0:0
     RDKit          3D

 32 34  0  0  0  0  0  0  0  0999 V2000
   56.2700   29.2360   42.2720 N   0  0  0  0  0  0  0  0  0  0  0  0
   56.8910   30.2680   43.0440 C   0  0  0  0  0  0  0  0  0  0  0  0
   57.2600   31.4740   42.4390 C   0  0  0  0  0  0  0  0  0  0  0  0
   57.8530   32.4890   43.1940 C   0  0  0  0  0  0  0  0  0  0  0  0
   58.0900   32.3100   44.5670 C   0  0  0  0  0  0  0  0  0  0  0  0
   58.6230   33.4010   45.3360 N   0  0  0  0  0  0  0  0  0  0  0  0
   59.1640   34.5440   44.8720 C   0  0  0  0  0  0  0  0  0  0  0  0
   59.5980   35.3270   45.8820 N   0  0  0  0  0  0  0  0  0  0  0  0
   59.2990   34.5940   46.9780 C   0  0  0  0  0  0  0  0  0  0  0  0
   58.7180   33.4260   46.6510 N   0  0  0  0  0  0  0  0  0  0  0  0
   57.7640   31.0700   45.1680 C   0  0  0  0  0  0  0  0  0  0  0  0
   58.0450   30.7990   46.5150 O   0  0  0  0  0  0  0  0  0  0  0  0
   58.8290   29.7270   46.9680 C   0  0  0  0  0  0  0  0  0  0  0  0
   59.5260   28.8800   46.0830 C   0  0  0  0  0  0  0  0  0  0  0  0
   60.3030   27.8310   46.5810 C   0  0  0  0  0  0  0  0  0  0  0  0
   60.3830   27.6090   47.9580 C   0  0  0  0  0  0  0  0  0  0  0  0
   59.6810   28.4350   48.8410 C   0  0  0  0  0  0  0  0  0  0  0  0
   58.9030   29.4870   48.3460 C   0  0  0  0  0  0  0  0  0  0  0  0
   57.1410   30.0740   44.4080 C   0  0  0  0  0  0  0  0  0  0  0  0
   55.6070   29.4710   41.5000 H   0  0  0  0  0  0  0  0  0  0  0  0
   56.4690   28.2300   42.4670 H   0  0  0  0  0  0  0  0  0  0  0  0
   57.0825   31.6239   41.3638 H   0  0  0  0  0  0  0  0  0  0  0  0
   58.1364   33.4352   42.7098 H   0  0  0  0  0  0  0  0  0  0  0  0
   59.2421   34.8057   43.8064 H   0  0  0  0  0  0  0  0  0  0  0  0
   59.5055   34.9136   48.0101 H   0  0  0  0  0  0  0  0  0  0  0  0
   58.3860   32.6820   47.3050 H   0  0  0  0  0  0  0  0  0  0  0  0
   59.4581   29.0452   44.9976 H   0  0  0  0  0  0  0  0  0  0  0  0
   60.8531   27.1783   45.8872 H   0  0  0  0  0  0  0  0  0  0  0  0
   60.9982   26.7845   48.3474 H   0  0  0  0  0  0  0  0  0  0  0  0
   59.7404   28.2577   49.9250 H   0  0  0  0  0  0  0  0  0  0  0  0
   58.3458   30.1298   49.0434 H   0  0  0  0  0  0  0  0  0  0  0  0
   56.8446   29.1291   44.8869 H   0  0  0  0  0  0  0  0  0  0  0  0
  1  2  1  0
  2  3  2  0
  3  4  1  0
  4  5  2  0
  5  6  1  0
  6  7  1  0
  7  8  2  0
  8  9  1  0
  9 10  2  0
  5 11  1  0
 11 12  1  0
 12 13  1  0
 13 14  2  0
 14 15  1  0
 15 16  2  0
 16 17  1  0
 17 18  2  0
 11 19  2  0
 19  2  1  0
 10  6  1  0
 18 13  1  0
  1 20  1  0
  1 21  1  0
  3 22  1  0
  4 23  1  0
  7 24  1  0
  9 25  1  0
 10 26  1  0
 14 27  1  0
 15 28  1  0
 16 29  1  0
 17 30  1  0
 18 31  1  0
 19 32  1  0
M  CHG  1  10   1
M  END
>  <UniqueID>  (1) 
1

>  <SMILES>  (1) 
Nc1ccc(-n2cnc[nH+]2)c(Oc2ccccc2)c1

>  <Energy>  (1) 
79.00643508812227

>  <Genealogy>  (1) 
Nc1ccc(-n2cnc[nH+]2)c(Oc2ccccc2)c1 (protonated)
Nc1ccc(-n2cnc[nH+]2)c(Oc2ccccc2)c1 (3D coordinates assigned)
Nc1ccc(-n2cnc[nH+]2)c(Oc2ccccc2)c1 (optimized conformer: 79.00643508812227 kcal/mol)

>  <smiles>  (1) 
Nc1ccc(-n2cncn2)c(Oc2ccccc2)c1

>  <score_type>  (1) 
oracle

>  <origin>  (1) 
adg

>  <m_score__min__energy>  (1) 
-4.96

>  <m_primary>  (1) 
energy

$$$$
1:0
     RDKit          3D

 39 41  0  0  0  0  0  0  0  0999 V2000
   58.9420   31.8190   48.7210 C   0  0  0  0  0  0  0  0  0  0  0  0
   59.0090   32.8830   47.7090 N   0  0  0  0  0  0  0  0  0  0  0  0
   59.5710   34.1700   48.0420 C   0  0  0  0  0  0  0  0  0  0  0  0
   60.1620   34.3560   49.1400 O   0  0  0  0  0  0  0  0  0  0  0  0
   59.3940   35.3260   47.1020 C   0  0  0  0  0  0  0  0  0  0  0  0
   59.3210   34.8810   45.7500 O   0  0  0  0  0  0  0  0  0  0  0  0
   58.7340   33.6650   45.3900 C   0  0  0  0  0  0  0  0  0  0  0  0
   58.3560   33.4530   44.0620 C   0  0  0  0  0  0  0  0  0  0  0  0
   57.7600   32.2490   43.6850 C   0  0  0  0  0  0  0  0  0  0  0  0
   57.5500   31.2420   44.6320 C   0  0  0  0  0  0  0  0  0  0  0  0
   56.7780   29.7360   44.1380 S   0  0  0  0  0  0  0  0  0  0  0  0
   56.5130   29.7480   42.6570 O   0  0  0  0  0  0  0  0  0  0  0  0
   55.4660   29.6100   44.8610 O   0  0  0  0  0  0  0  0  0  0  0  0
   57.8150   28.3910   44.5450 N   0  0  0  0  0  0  0  0  0  0  0  0
   57.4030   27.7660   45.8270 C   0  0  0  0  0  0  0  0  0  0  0  0
   58.2980   28.1670   47.0070 C   0  0  0  0  0  0  0  0  0  0  0  0
   59.7660   27.7880   46.7470 C   0  0  0  0  0  0  0  0  0  0  0  0
   60.1380   27.8440   45.2550 C   0  0  0  0  0  0  0  0  0  0  0  0
   59.2310   28.8190   44.4970 C   0  0  0  0  0  0  0  0  0  0  0  0
   57.9410   31.4450   45.9640 C   0  0  0  0  0  0  0  0  0  0  0  0
   58.5430   32.6580   46.3570 C   0  0  0  0  0  0  0  0  0  0  0  0
   58.9702   32.2662   49.7256 H   0  0  0  0  0  0  0  0  0  0  0  0
   58.0065   31.2537   48.5974 H   0  0  0  0  0  0  0  0  0  0  0  0
   59.7992   31.1409   48.5974 H   0  0  0  0  0  0  0  0  0  0  0  0
   58.4647   35.8568   47.3562 H   0  0  0  0  0  0  0  0  0  0  0  0
   60.2613   35.9949   47.2034 H   0  0  0  0  0  0  0  0  0  0  0  0
   58.5288   34.2379   43.3109 H   0  0  0  0  0  0  0  0  0  0  0  0
   57.4546   32.0917   42.6400 H   0  0  0  0  0  0  0  0  0  0  0  0
   56.3706   28.0732   46.0504 H   0  0  0  0  0  0  0  0  0  0  0  0
   57.4910   26.6765   45.7040 H   0  0  0  0  0  0  0  0  0  0  0  0
   58.2294   29.2547   47.1557 H   0  0  0  0  0  0  0  0  0  0  0  0
   57.9535   27.6300   47.9031 H   0  0  0  0  0  0  0  0  0  0  0  0
   60.4128   28.4870   47.2975 H   0  0  0  0  0  0  0  0  0  0  0  0
   59.9067   26.7510   47.0860 H   0  0  0  0  0  0  0  0  0  0  0  0
   61.1825   28.1749   45.1573 H   0  0  0  0  0  0  0  0  0  0  0  0
   60.0089   26.8400   44.8246 H   0  0  0  0  0  0  0  0  0  0  0  0
   59.3186   29.8164   44.9525 H   0  0  0  0  0  0  0  0  0  0  0  0
   59.5499   28.8400   43.4444 H   0  0  0  0  0  0  0  0  0  0  0  0
   57.7766   30.6514   46.7078 H   0  0  0  0  0  0  0  0  0  0  0  0
  1  2  1  0
  2  3  1  0
  3  4  2  0
  3  5  1  0
  5  6  1  0
  6  7  1  0
  7  8  2  0
  8  9  1  0
  9 10  2  0
 10 11  1  0
 11 12  2  0
 11 13  2  0
 11 14  1  0
 14 15  1  0
 15 16  1  0
 16 17  1  0
 17 18  1  0
 18 19  1  0
 10 20  1  0
 20 21  2  0
 21  2  1  0
 21  7  1  0
 19 14  1  0
  1 22  1  0
  1 23  1  0
  1 24  1  0
  5 25  1  0
  5 26  1  0
  8 27  1  0
  9 28  1  0
 15 29  1  0
 15 30  1  0
 16 31  1  0
 16 32  1  0
 17 33  1  0
 17 34  1  0
 18 35  1  0
 18 36  1  0
 19 37  1  0
 19 38  1  0
 20 39  1  0
M  END
>  <UniqueID>  (2) 
2

>  <SMILES>  (2) 
CN1C(=O)COc2ccc(S(=O)(=O)N3CCCCC3)cc21

>  <Energy>  (2) 
49.28269132268444

>  <Genealogy>  (2) 
CN1C(=O)COc2ccc(S(=O)(=O)N3CCCCC3)cc21 (3D coordinates assigned)
CN1C(=O)COc2ccc(S(=O)(=O)N3CCCCC3)cc21 (nonaromatic ring conformer: 49.28269132268444 kcal/mol)

>  <smiles>  (2) 
CN1C(=O)COc2ccc(S(=O)(=O)N3CCCCC3)cc21

>  <score_type>  (2) 
oracle

>  <origin>  (2) 
adg

>  <m_score__min__energy>  (2) 
-7.8399999999999999

>  <m_primary>  (2) 
energy

$$$$
2:0
     RDKit          3D

 36 37  0  0  0  0  0  0  0  0999 V2000
   59.8780   35.4805   45.3433 H   0  0  0  0  0  0  0  0  0  0  0  0
   59.5920   34.6080   45.9490 C   0  0  0  0  0  0  0  0  0  0  0  0
   58.3570   34.1070   45.7940 C   0  0  0  0  0  0  0  0  0  0  0  0
   57.5445   34.5323   46.4014 H   0  0  0  0  0  0  0  0  0  0  0  0
   58.0250   33.0110   44.8490 C   0  0  0  0  0  0  0  0  0  0  0  0
   58.3540   33.0680   43.4810 C   0  0  0  0  0  0  0  0  0  0  0  0
   58.8669   33.9536   43.0776 H   0  0  0  0  0  0  0  0  0  0  0  0
   58.0320   32.0050   42.6340 C   0  0  0  0  0  0  0  0  0  0  0  0
   58.2867   32.0601   41.5653 H   0  0  0  0  0  0  0  0  0  0  0  0
   57.3890   30.8740   43.1370 C   0  0  0  0  0  0  0  0  0  0  0  0
   57.1336   30.0453   42.4603 H   0  0  0  0  0  0  0  0  0  0  0  0
   57.0650   30.7850   44.5010 C   0  0  0  0  0  0  0  0  0  0  0  0
   56.4100   29.6130   45.0190 N   0  0  0  0  0  0  0  0  0  0  0  0
   55.1830   29.4470   44.8610 O   0  0  0  0  0  0  0  0  0  0  0  0
   57.1260   28.6540   45.6970 O   0  0  0  0  0  0  0  0  0  0  0  0
   57.3940   31.8600   45.3500 C   0  0  0  0  0  0  0  0  0  0  0  0
   57.1532   31.7973   46.4215 H   0  0  0  0  0  0  0  0  0  0  0  0
   60.5940   34.0510   46.8920 C   0  0  0  0  0  0  0  0  0  0  0  0
   60.3710   33.9730   48.2780 C   0  0  0  0  0  0  0  0  0  0  0  0
   59.4173   34.3260   48.6972 H   0  0  0  0  0  0  0  0  0  0  0  0
   61.3500   33.4510   49.1280 C   0  0  0  0  0  0  0  0  0  0  0  0
   61.1543   33.3912   50.2088 H   0  0  0  0  0  0  0  0  0  0  0  0
   62.5850   33.0000   48.6190 C   0  0  0  0  0  0  0  0  0  0  0  0
   63.6010   32.4550   49.5010 N   0  0  0  0  0  0  0  0  0  0  0  0
   64.9420   33.0500   49.5530 C   0  0  0  0  0  0  0  0  0  0  0  0
   65.2434   33.1837   50.6024 H   0  0  0  0  0  0  0  0  0  0  0  0
   65.6580   32.3851   49.0478 H   0  0  0  0  0  0  0  0  0  0  0  0
   64.9295   34.0270   49.0478 H   0  0  0  0  0  0  0  0  0  0  0  0
   63.3060   31.2990   50.3580 C   0  0  0  0  0  0  0  0  0  0  0  0
   63.3820   31.5967   51.4142 H   0  0  0  0  0  0  0  0  0  0  0  0
   62.2873   30.9394   50.1508 H   0  0  0  0  0  0  0  0  0  0  0  0
   64.0278   30.4952   50.1508 H   0  0  0  0  0  0  0  0  0  0  0  0
   62.8080   33.0970   47.2310 C   0  0  0  0  0  0  0  0  0  0  0  0
   63.7655   32.7568   46.8097 H   0  0  0  0  0  0  0  0  0  0  0  0
   61.8280   33.6200   46.3830 C   0  0  0  0  0  0  0  0  0  0  0  0
   62.0267   33.6945   45.3037 H   0  0  0  0  0  0  0  0  0  0  0  0
  1  2  1  0
  2  3  2  0
  3  4  1  0
  3  5  1  0
  5  6  2  0
  6  7  1  0
  6  8  1  0
  8  9  1  0
  8 10  2  0
 10 11  1  0
 10 12  1  0
 12 13  1  0
 13 14  2  0
 13 15  1  0
 12 16  2  0
 16 17  1  0
  2 18  1  0
 18 19  2  0
 19 20  1  0
 19 21  1  0
 21 22  1  0
 21 23  2  0
 23 24  1  0
 24 25  1  0
 25 26  1  0
 25 27  1  0
 25 28  1  0
 24 29  1  0
 29 30  1  0
 29 31  1  0
 29 32  1  0
 23 33  1  0
 33 34  1  0
 33 35  2  0
 35 36  1  0
 16  5  1  0
 35 18  1  0
M  CHG  2  13   1  15  -1
M  END
>  <UniqueID>  (3) 
3

>  <SMILES>  (3) 
CN(C)c1ccc(/C=C/c2cccc([N+](=O)[O-])c2)cc1

>  <Energy>  (3) 
44.152763340075516

>  <Genealogy>  (3) 
CN(C)c1ccc(/C=C/c2cccc([N+](=O)[O-])c2)cc1 (cis-trans isomerization)
CN(C)c1ccc(/C=C/c2cccc([N+](=O)[O-])c2)cc1 (3D coordinates assigned)
CN(C)c1ccc(/C=C/c2cccc([N+](=O)[O-])c2)cc1 (optimized conformer: 44.152763340075516 kcal/mol)

>  <smiles>  (3) 
CN(C)c1ccc(C=Cc2cccc([N+](=O)[O-])c2)cc1

>  <score_type>  (3) 
oracle

>  <origin>  (3) 
adg

>  <m_score__min__energy>  (3) 
-7.9299999999999997

>  <m_primary>  (3) 
energy

$$$$
3:0
     RDKit          3D

 25 27  0  0  0  0  0  0  0  0999 V2000
   56.6390   30.4660   42.7380 Cl  0  0  0  0  0  0  0  0  0  0  0  0
   57.4560   31.3510   44.0120 C   0  0  0  0  0  0  0  0  0  0  0  0
   57.7890   30.7100   45.2090 C   0  0  0  0  0  0  0  0  0  0  0  0
   58.4430   31.4140   46.2250 C   0  0  0  0  0  0  0  0  0  0  0  0
   58.7560   32.7730   46.0580 C   0  0  0  0  0  0  0  0  0  0  0  0
   59.4450   33.4800   47.1010 N   0  0  0  0  0  0  0  0  0  0  0  0
   58.9060   34.4720   47.8080 N   0  0  0  0  0  0  0  0  0  0  0  0
   59.7790   34.9320   48.6990 N   0  0  0  0  0  0  0  0  0  0  0  0
   60.9050   34.2190   48.5500 C   0  0  0  0  0  0  0  0  0  0  0  0
   62.1240   34.3470   49.2100 C   0  0  0  0  0  0  0  0  0  0  0  0
   63.1720   33.5000   48.8020 C   0  0  0  0  0  0  0  0  0  0  0  0
   62.9780   32.5740   47.7490 C   0  0  0  0  0  0  0  0  0  0  0  0
   61.7310   32.4780   47.0980 C   0  0  0  0  0  0  0  0  0  0  0  0
   60.7060   33.3120   47.5500 C   0  0  0  0  0  0  0  0  0  0  0  0
   58.4380   33.4050   44.8440 C   0  0  0  0  0  0  0  0  0  0  0  0
   57.7850   32.6990   43.8290 C   0  0  0  0  0  0  0  0  0  0  0  0
   57.5359   29.6491   45.3520 H   0  0  0  0  0  0  0  0  0  0  0  0
   58.7136   30.9009   47.1596 H   0  0  0  0  0  0  0  0  0  0  0  0
   59.6010   35.7150   49.3670 H   0  0  0  0  0  0  0  0  0  0  0  0
   62.2628   35.0805   50.0179 H   0  0  0  0  0  0  0  0  0  0  0  0
   64.1485   33.5582   49.3050 H   0  0  0  0  0  0  0  0  0  0  0  0
   63.8078   31.9233   47.4358 H   0  0  0  0  0  0  0  0  0  0  0  0
   61.5719   31.7745   46.2675 H   0  0  0  0  0  0  0  0  0  0  0  0
   58.7043   34.4613   44.6912 H   0  0  0  0  0  0  0  0  0  0  0  0
   57.5296   33.2036   42.8856 H   0  0  0  0  0  0  0  0  0  0  0  0
  1  2  1  0
  2  3  2  0
  3  4  1  0
  4  5  2  0
  5  6  1  0
  6  7  1  0
  7  8  2  0
  8  9  1  0
  9 10  2  0
 10 11  1  0
 11 12  2  0
 12 13  1  0
 13 14  2  0
  5 15  1  0
 15 16  2  0
 16  2  1  0
 14  6  1  0
 14  9  1  0
  3 17  1  0
  4 18  1  0
  8 19  1  0
 10 20  1  0
 11 21  1  0
 12 22  1  0
 13 23  1  0
 15 24  1  0
 16 25  1  0
M  CHG  1   8   1
M  END
>  <UniqueID>  (4) 
4

>  <SMILES>  (4) 
Clc1ccc(-n2n[nH+]c3ccccc32)cc1

>  <Energy>  (4) 
78.28714558051342

>  <Genealogy>  (4) 
Clc1ccc(-n2n[nH+]c3ccccc32)cc1 (protonated)
Clc1ccc(-n2n[nH+]c3ccccc32)cc1 (3D coordinates assigned)
Clc1ccc(-n2n[nH+]c3ccccc32)cc1 (optimized conformer: 78.28714558051342 kcal/mol)

>  <smiles>  (4) 
Clc1ccc(-n2nnc3ccccc32)cc1

>  <score_type>  (4) 
oracle

>  <origin>  (4) 
adg

>  <m_score__min__energy>  (4) 
-5.6100000000000003

>  <m_primary>  (4) 
energy

$$$$
4:0
     RDKit          3D

 70 73  0  0  0  0  0  0  0  0999 V2000
   58.8044   35.4813   44.4376 H   0  0  0  0  0  0  0  0  0  0  0  0
   58.5810   34.6220   45.0870 C   0  0  0  0  0  0  0  0  0  0  0  0
   57.4380   33.9580   44.8780 C   0  0  0  0  0  0  0  0  0  0  0  0
   56.5450   34.5008   44.5346 H   0  0  0  0  0  0  0  0  0  0  0  0
   58.0940   30.1370   44.6870 C   0  0  0  0  0  0  0  0  0  0  0  0
   59.2670   29.3610   44.4790 C   0  0  0  0  0  0  0  0  0  0  0  0
   60.1934   29.8516   44.1456 H   0  0  0  0  0  0  0  0  0  0  0  0
   59.2530   27.9710   44.6960 C   0  0  0  0  0  0  0  0  0  0  0  0
   60.1608   27.3655   44.5570 H   0  0  0  0  0  0  0  0  0  0  0  0
   58.0540   27.3870   45.0920 C   0  0  0  0  0  0  0  0  0  0  0  0
   56.9210   28.1140   45.2560 C   0  0  0  0  0  0  0  0  0  0  0  0
   56.8910   29.4910   45.0550 C   0  0  0  0  0  0  0  0  0  0  0  0
   55.9581   30.0605   45.1789 H   0  0  0  0  0  0  0  0  0  0  0  0
   55.8850   27.2770   45.6260 O   0  0  0  0  0  0  0  0  0  0  0  0
   56.4020   25.9410   45.6980 C   0  0  0  0  0  0  0  0  0  0  0  0
   56.2860   25.5366   46.7144 H   0  0  0  0  0  0  0  0  0  0  0  0
   55.8687   25.2565   45.0219 H   0  0  0  0  0  0  0  0  0  0  0  0
   57.7910   26.0570   45.3580 O   0  0  0  0  0  0  0  0  0  0  0  0
   58.0670   31.5890   44.4120 C   0  0  0  0  0  0  0  0  0  0  0  0
   58.6701   31.9530   43.5671 H   0  0  0  0  0  0  0  0  0  0  0  0
   57.3690   32.5000   45.1060 C   0  0  0  0  0  0  0  0  0  0  0  0
   56.6992   32.1367   45.8993 H   0  0  0  0  0  0  0  0  0  0  0  0
   59.5610   34.2730   46.1350 C   0  0  0  0  0  0  0  0  0  0  0  0
   60.7270   33.9570   45.7740 O   0  0  0  0  0  0  0  0  0  0  0  0
   59.2370   34.3020   47.5370 N   0  0  0  0  0  0  0  0  0  0  0  0
   58.3030   34.6350   47.8610 H   0  0  0  0  0  0  0  0  0  0  0  0
   60.2030   33.9200   48.5660 C   0  0  0  0  0  0  0  0  0  0  0  0
   61.1276   34.5001   48.4297 H   0  0  0  0  0  0  0  0  0  0  0  0
   60.4176   32.8449   48.4757 H   0  0  0  0  0  0  0  0  0  0  0  0
   59.6290   34.2010   49.9620 C   0  0  0  0  0  0  0  0  0  0  0  0
   58.6839   34.7524   49.8487 H   0  0  0  0  0  0  0  0  0  0  0  0
   60.3787   34.7846   50.5165 H   0  0  0  0  0  0  0  0  0  0  0  0
   59.3560   32.9190   50.7640 C   0  0  0  0  0  0  0  0  0  0  0  0
   58.9828   33.1984   51.7603 H   0  0  0  0  0  0  0  0  0  0  0  0
   60.2995   32.3573   50.8298 H   0  0  0  0  0  0  0  0  0  0  0  0
   58.3170   32.0120   50.0840 C   0  0  0  0  0  0  0  0  0  0  0  0
   58.3293   32.2110   49.0022 H   0  0  0  0  0  0  0  0  0  0  0  0
   57.3355   32.2386   50.5259 H   0  0  0  0  0  0  0  0  0  0  0  0
   58.5980   30.5230   50.3130 C   0  0  0  0  0  0  0  0  0  0  0  0
   57.7948   30.0927   50.9292 H   0  0  0  0  0  0  0  0  0  0  0  0
   59.5650   30.4161   50.8263 H   0  0  0  0  0  0  0  0  0  0  0  0
   58.6580   29.8050   49.0160 N   0  0  0  0  0  0  0  0  0  0  0  0
   58.6400   30.7090   47.8380 C   0  0  0  0  0  0  0  0  0  0  0  0
   58.1959   31.6673   48.1453 H   0  0  0  0  0  0  0  0  0  0  0  0
   58.0560   30.1995   47.0574 H   0  0  0  0  0  0  0  0  0  0  0  0
   60.0340   30.9920   47.2360 C   0  0  0  0  0  0  0  0  0  0  0  0
   60.0774   32.0424   46.9124 H   0  0  0  0  0  0  0  0  0  0  0  0
   60.1867   30.3139   46.3835 H   0  0  0  0  0  0  0  0  0  0  0  0
   61.0990   30.7500   48.2140 N   0  0  0  0  0  0  0  0  0  0  0  0
   62.2320   31.6310   48.2850 C   0  0  0  0  0  0  0  0  0  0  0  0
   62.7190   32.2250   47.1100 C   0  0  0  0  0  0  0  0  0  0  0  0
   62.2331   32.0098   46.1469 H   0  0  0  0  0  0  0  0  0  0  0  0
   63.8160   33.0870   47.1560 C   0  0  0  0  0  0  0  0  0  0  0  0
   64.1926   33.5479   46.2309 H   0  0  0  0  0  0  0  0  0  0  0  0
   64.4350   33.3640   48.3760 C   0  0  0  0  0  0  0  0  0  0  0  0
   65.3009   34.0416   48.4098 H   0  0  0  0  0  0  0  0  0  0  0  0
   63.9590   32.7840   49.5540 C   0  0  0  0  0  0  0  0  0  0  0  0
   64.4509   33.0080   50.5120 H   0  0  0  0  0  0  0  0  0  0  0  0
   62.8500   31.9120   49.5210 C   0  0  0  0  0  0  0  0  0  0  0  0
   62.3310   31.3270   50.6860 O   0  0  0  0  0  0  0  0  0  0  0  0
   62.9230   31.4350   51.9780 C   0  0  0  0  0  0  0  0  0  0  0  0
   62.1504   31.2941   52.7483 H   0  0  0  0  0  0  0  0  0  0  0  0
   63.6989   30.6636   52.0914 H   0  0  0  0  0  0  0  0  0  0  0  0
   63.3765   32.4307   52.0914 H   0  0  0  0  0  0  0  0  0  0  0  0
   61.1270   29.4930   48.9670 C   0  0  0  0  0  0  0  0  0  0  0  0
   61.4119   29.7033   50.0084 H   0  0  0  0  0  0  0  0  0  0  0  0
   61.8579   28.8183   48.4974 H   0  0  0  0  0  0  0  0  0  0  0  0
   59.7500   28.8130   48.9500 C   0  0  0  0  0  0  0  0  0  0  0  0
   59.6734   28.1384   49.8154 H   0  0  0  0  0  0  0  0  0  0  0  0
   59.6523   28.2529   48.0084 H   0  0  0  0  0  0  0  0  0  0  0  0
  1  2  1  0
  2  3  2  0
  3  4  1  0
  3  5  1  0
  5  6  2  0
  6  7  1  0
  6  8  1  0
  8  9  1  0
  8 10  2  0
 10 11  1  0
 11 12  2  0
 12 13  1  0
 11 14  1  0
 14 15  1  0
 15 16  1  0
 15 17  1  0
 15 18  1  0
  2 19  1  0
 19 20  1  0
 19 21  2  0
 21 22  1  0
 21 23  1  0
 23 24  2  0
 23 25  1  0
 25 26  1  0
 25 27  1  0
 27 28  1  0
 27 29  1  0
 27 30  1  0
 30 31  1  0
 30 32  1  0
 30 33  1  0
 33 34  1  0
 33 35  1  0
 33 36  1  0
 36 37  1  0
 36 38  1  0
 36 39  1  0
 39 40  1  0
 39 41  1  0
 39 42  1  0
 42 43  1  0
 43 44  1  0
 43 45  1  0
 43 46  1  0
 46 47  1  0
 46 48  1  0
 46 49  1  0
 49 50  1  0
 50 51  2  0
 51 52  1  0
 51 53  1  0
 53 54  1  0
 53 55  2  0
 55 56  1  0
 55 57  1  0
 57 58  1  0
 57 59  2  0
 59 60  1  0
 60 61  1  0
 61 62  1  0
 61 63  1  0
 61 64  1  0
 49 65  1  0
 65 66  1  0
 65 67  1  0
 65 68  1  0
 68 69  1  0
 68 70  1  0
 12  5  1  0
 68 42  1  0
 18 10  1  0
 59 50  1  0
M  END
>  <UniqueID>  (5) 
5

>  <SMILES>  (5) 
COc1ccccc1N1CCN(CCCCCNC(=O)/C=C/C=C\c2ccc3c(c2)OCO3)CC1

>  <Energy>  (5) 
111.17491699027532

>  <Genealogy>  (5) 
COc1ccccc1N1CCN(CCCCCNC(=O)/C=C/C=C\c2ccc3c(c2)OCO3)CC1 (cis-trans isomerization)
COc1ccccc1N1CCN(CCCCCNC(=O)/C=C/C=C\c2ccc3c(c2)OCO3)CC1 (3D coordinates assigned)
COc1ccccc1N1CCN(CCCCCNC(=O)/C=C/C=C\c2ccc3c(c2)OCO3)CC1 (nonaromatic ring conformer: 111.17491699027532 kcal/mol)

>  <smiles>  (5) 
COc1ccccc1N1CCN(CCCCCNC(=O)C=CC=Cc2ccc3c(c2)OCO3)CC1

>  <score_type>  (5) 
oracle

>  <origin>  (5) 
adg

>  <m_score__min__energy>  (5) 
-8.4299999999999997

>  <m_primary>  (5) 
energy

$$$$
5:0
     RDKit          3D

 20 20  0  0  0  0  0  0  0  0999 V2000
   55.1460   26.1840   46.7540 H   0  0  0  0  0  0  0  0  0  0  0  0
   55.8400   25.5490   46.3000 N   0  0  0  0  0  0  0  0  0  0  0  0
   57.0930   25.8650   46.1890 C   0  0  0  0  0  0  0  0  0  0  0  0
   58.0350   24.9230   45.6510 N   0  0  0  0  0  0  0  0  0  0  0  0
   59.0420   25.0470   45.9040 H   0  0  0  0  0  0  0  0  0  0  0  0
   57.6760   23.7710   44.8680 C   0  0  0  0  0  0  0  0  0  0  0  0
   56.7100   23.8420   43.8500 C   0  0  0  0  0  0  0  0  0  0  0  0
   56.1907   24.7907   43.6492 H   0  0  0  0  0  0  0  0  0  0  0  0
   56.4100   22.7080   43.0940 C   0  0  0  0  0  0  0  0  0  0  0  0
   55.6464   22.7541   42.3036 H   0  0  0  0  0  0  0  0  0  0  0  0
   57.0880   21.5140   43.3500 C   0  0  0  0  0  0  0  0  0  0  0  0
   56.8540   20.6132   42.7636 H   0  0  0  0  0  0  0  0  0  0  0  0
   58.0370   21.4630   44.3230 N   0  0  0  0  0  0  0  0  0  0  0  0
   58.5420   20.5660   44.4960 H   0  0  0  0  0  0  0  0  0  0  0  0
   58.3470   22.5570   45.0720 C   0  0  0  0  0  0  0  0  0  0  0  0
   59.1292   22.4879   45.8423 H   0  0  0  0  0  0  0  0  0  0  0  0
   57.5890   27.1590   46.7610 C   0  0  0  0  0  0  0  0  0  0  0  0
   57.5687   27.1060   47.8595 H   0  0  0  0  0  0  0  0  0  0  0  0
   58.6198   27.3388   46.4216 H   0  0  0  0  0  0  0  0  0  0  0  0
   56.9425   27.9817   46.4216 H   0  0  0  0  0  0  0  0  0  0  0  0
  1  2  1  0
  2  3  2  0
  3  4  1  0
  4  5  1  0
  4  6  1  0
  6  7  2  0
  7  8  1  0
  7  9  1  0
  9 10  1  0
  9 11  2  0
 11 12  1  0
 11 13  1  0
 13 14  1  0
 13 15  2  0
 15 16  1  0
  3 17  1  0
 17 18  1  0
 17 19  1  0
 17 20  1  0
 15  6  1  0
M  CHG  1  13   1
M  END
>  <UniqueID>  (6) 
6

>  <SMILES>  (6) 
[H]/N=C(\C)Nc1ccc[nH+]c1

>  <Energy>  (6) 
20.093777745253664

>  <Genealogy>  (6) 
CC(=N)Nc1ccc[nH+]c1 (protonated)
[H]/N=C(\C)Nc1ccc[nH+]c1 (cis-trans isomerization)
[H]/N=C(\C)Nc1ccc[nH+]c1 (3D coordinates assigned)
[H]/N=C(\C)Nc1ccc[nH+]c1 (optimized conformer: 20.093777745253664 kcal/mol)

>  <smiles>  (6) 
CC(=N)Nc1cccnc1

>  <score_type>  (6) 
oracle

>  <origin>  (6) 
adg

>  <m_score__min__energy>  (6) 
-3.1200000000000001

>  <m_primary>  (6) 
energy

$$$$
6:0
     RDKit          3D

 38 39  0  0  0  0  0  0  0  0999 V2000
   61.6680   30.8240   47.9720 C   0  0  0  0  0  0  0  0  0  0  0  0
   60.5990   29.9220   47.4290 C   0  0  0  0  0  0  0  0  0  0  0  0
   60.5740   29.5830   46.0670 C   0  0  0  0  0  0  0  0  0  0  0  0
   59.5420   28.7870   45.5600 C   0  0  0  0  0  0  0  0  0  0  0  0
   58.5190   28.3360   46.4030 C   0  0  0  0  0  0  0  0  0  0  0  0
   57.1930   27.3860   45.7400 S   0  0  0  0  0  0  0  0  0  0  0  0
   56.6870   26.4480   46.7990 O   0  0  0  0  0  0  0  0  0  0  0  0
   57.6540   26.5760   44.5600 O   0  0  0  0  0  0  0  0  0  0  0  0
   55.9030   28.4320   45.2450 N   0  0  0  0  0  0  0  0  0  0  0  0
   56.0710   29.6420   44.4980 C   0  0  0  0  0  0  0  0  0  0  0  0
   55.1420   30.4940   44.5190 O   0  0  0  0  0  0  0  0  0  0  0  0
   57.2810   29.8880   43.6380 C   0  0  0  0  0  0  0  0  0  0  0  0
   57.5140   31.6670   43.2970 S   0  0  0  0  0  0  0  0  0  0  0  0
   58.0130   32.0660   44.9760 C   0  0  0  0  0  0  0  0  0  0  0  0
   57.6730   31.3150   46.0430 N   0  0  0  0  0  0  0  0  0  0  0  0
   58.1440   31.9520   47.1030 N   0  0  0  0  0  0  0  0  0  0  0  0
   58.7580   33.0730   46.6830 C   0  0  0  0  0  0  0  0  0  0  0  0
   59.2650   34.1350   47.6070 C   0  0  0  0  0  0  0  0  0  0  0  0
   58.6990   33.1710   45.3390 N   0  0  0  0  0  0  0  0  0  0  0  0
   59.1580   34.2730   44.4970 C   0  0  0  0  0  0  0  0  0  0  0  0
   58.5430   28.6740   47.7620 C   0  0  0  0  0  0  0  0  0  0  0  0
   59.5760   29.4650   48.2730 C   0  0  0  0  0  0  0  0  0  0  0  0
   61.6424   30.8024   49.0715 H   0  0  0  0  0  0  0  0  0  0  0  0
   62.6519   30.4790   47.6213 H   0  0  0  0  0  0  0  0  0  0  0  0
   61.4935   31.8519   47.6213 H   0  0  0  0  0  0  0  0  0  0  0  0
   61.3680   29.9443   45.3970 H   0  0  0  0  0  0  0  0  0  0  0  0
   59.5339   28.5140   44.4944 H   0  0  0  0  0  0  0  0  0  0  0  0
   58.1717   29.5045   44.1572 H   0  0  0  0  0  0  0  0  0  0  0  0
   57.1319   29.3708   42.6787 H   0  0  0  0  0  0  0  0  0  0  0  0
   58.0140   31.6380   48.0900 H   0  0  0  0  0  0  0  0  0  0  0  0
   59.1133   33.8173   48.6491 H   0  0  0  0  0  0  0  0  0  0  0  0
   60.3377   34.2973   47.4256 H   0  0  0  0  0  0  0  0  0  0  0  0
   58.7167   35.0712   47.4256 H   0  0  0  0  0  0  0  0  0  0  0  0
   59.5030   35.1014   45.1332 H   0  0  0  0  0  0  0  0  0  0  0  0
   59.9874   33.9284   43.8619 H   0  0  0  0  0  0  0  0  0  0  0  0
   58.3292   34.6190   43.8619 H   0  0  0  0  0  0  0  0  0  0  0  0
   57.7458   28.3156   48.4298 H   0  0  0  0  0  0  0  0  0  0  0  0
   59.5867   29.7300   49.3405 H   0  0  0  0  0  0  0  0  0  0  0  0
  1  2  1  0
  2  3  2  0
  3  4  1  0
  4  5  2  0
  5  6  1  0
  6  7  2  0
  6  8  2  0
  6  9  1  0
  9 10  1  0
 10 11  2  0
 10 12  1  0
 12 13  1  0
 13 14  1  0
 14 15  2  0
 15 16  1  0
 16 17  2  0
 17 18  1  0
 17 19  1  0
 19 20  1  0
  5 21  1  0
 21 22  2  0
 22  2  1  0
 19 14  1  0
  1 23  1  0
  1 24  1  0
  1 25  1  0
  3 26  1  0
  4 27  1  0
 12 28  1  0
 12 29  1  0
 16 30  1  0
 18 31  1  0
 18 32  1  0
 18 33  1  0
 20 34  1  0
 20 35  1  0
 20 36  1  0
 21 37  1  0
 22 38  1  0
M  CHG  2   9  -1  16   1
M  END
>  <UniqueID>  (7) 
7

>  <SMILES>  (7) 
Cc1ccc(S(=O)(=O)[N-]C(=O)CSc2n[nH+]c(C)n2C)cc1

>  <Energy>  (7) 
64.93189253769731

>  <Genealogy>  (7) 
Cc1ccc(S(=O)(=O)[N-]C(=O)CSc2n[nH+]c(C)n2C)cc1 (protonated)
Cc1ccc(S(=O)(=O)[N-]C(=O)CSc2n[nH+]c(C)n2C)cc1 (3D coordinates assigned)
Cc1ccc(S(=O)(=O)[N-]C(=O)CSc2n[nH+]c(C)n2C)cc1 (optimized conformer: 64.93189253769731 kcal/mol)

>  <smiles>  (7) 
Cc1ccc(S(=O)(=O)NC(=O)CSc2nnc(C)n2C)cc1

>  <score_type>  (7) 
oracle

>  <origin>  (7) 
adg

>  <m_score__min__energy>  (7) 
-9.4800000000000004

>  <m_primary>  (7) 
energy

$$$$
7:0
     RDKit          3D

 32 33  0  0  0  0  0  0  0  0999 V2000
   65.9430   32.3290   50.1230 C   0  0  0  0  0  0  0  0  0  0  0  0
   65.2640   33.4520   49.5680 O   0  0  0  0  0  0  0  0  0  0  0  0
   63.9960   33.3950   48.9710 C   0  0  0  0  0  0  0  0  0  0  0  0
   62.9220   34.0050   49.6290 C   0  0  0  0  0  0  0  0  0  0  0  0
   61.6400   33.9780   49.0750 C   0  0  0  0  0  0  0  0  0  0  0  0
   61.4160   33.3530   47.8400 C   0  0  0  0  0  0  0  0  0  0  0  0
   60.0500   33.3040   47.2810 C   0  0  0  0  0  0  0  0  0  0  0  0
   59.7710   33.6380   46.0050 N   0  0  0  0  0  0  0  0  0  0  0  0
   58.4630   33.5270   45.8380 N   0  0  0  0  0  0  0  0  0  0  0  0
   57.7740   33.8450   44.5890 C   0  0  0  0  0  0  0  0  0  0  0  0
   57.7720   32.6390   43.6450 C   0  0  0  0  0  0  0  0  0  0  0  0
   57.0120   31.5210   44.2140 C   0  0  0  0  0  0  0  0  0  0  0  0
   56.4110   30.6390   44.6640 N   0  0  0  0  0  0  0  0  0  0  0  0
   57.8800   33.1320   46.9840 C   0  0  0  0  0  0  0  0  0  0  0  0
   58.8660   32.9670   47.9340 C   0  0  0  0  0  0  0  0  0  0  0  0
   58.6560   32.4320   49.2880 C   0  0  0  0  0  0  0  0  0  0  0  0
   58.9320   33.1120   50.3100 O   0  0  0  0  0  0  0  0  0  0  0  0
   62.4840   32.7190   47.1880 C   0  0  0  0  0  0  0  0  0  0  0  0
   63.7680   32.7460   47.7430 C   0  0  0  0  0  0  0  0  0  0  0  0
   65.9087   32.3857   51.2210 H   0  0  0  0  0  0  0  0  0  0  0  0
   65.4537   31.4025   49.7882 H   0  0  0  0  0  0  0  0  0  0  0  0
   66.9908   32.3319   49.7882 H   0  0  0  0  0  0  0  0  0  0  0  0
   63.0890   34.5105   50.5916 H   0  0  0  0  0  0  0  0  0  0  0  0
   60.8023   34.4492   49.6100 H   0  0  0  0  0  0  0  0  0  0  0  0
   56.7352   34.1292   44.8128 H   0  0  0  0  0  0  0  0  0  0  0  0
   58.3016   34.6757   44.0976 H   0  0  0  0  0  0  0  0  0  0  0  0
   57.3156   32.9330   42.6883 H   0  0  0  0  0  0  0  0  0  0  0  0
   58.8117   32.3126   43.4948 H   0  0  0  0  0  0  0  0  0  0  0  0
   56.8030   32.9688   47.1370 H   0  0  0  0  0  0  0  0  0  0  0  0
   58.2495   31.4171   49.4095 H   0  0  0  0  0  0  0  0  0  0  0  0
   62.3110   32.1977   46.2350 H   0  0  0  0  0  0  0  0  0  0  0  0
   64.6024   32.2582   47.2178 H   0  0  0  0  0  0  0  0  0  0  0  0
  1  2  1  0
  2  3  1  0
  3  4  2  0
  4  5  1  0
  5  6  2  0
  6  7  1  0
  7  8  2  0
  8  9  1  0
  9 10  1  0
 10 11  1  0
 11 12  1  0
 12 13  3  0
  9 14  1  0
 14 15  2  0
 15 16  1  0
 16 17  2  0
  6 18  1  0
 18 19  2  0
 19  3  1  0
 15  7  1  0
  1 20  1  0
  1 21  1  0
  1 22  1  0
  4 23  1  0
  5 24  1  0
 10 25  1  0
 10 26  1  0
 11 27  1  0
 11 28  1  0
 14 29  1  0
 16 30  1  0
 18 31  1  0
 19 32  1  0
M  END
>  <UniqueID>  (8) 
8

>  <SMILES>  (8) 
COc1ccc(-c2nn(CCC#N)cc2C=O)cc1

>  <Energy>  (8) 
62.620273657521714

>  <Genealogy>  (8) 
COc1ccc(-c2nn(CCC#N)cc2C=O)cc1 (3D coordinates assigned)
COc1ccc(-c2nn(CCC#N)cc2C=O)cc1 (optimized conformer: 62.620273657521714 kcal/mol)

>  <smiles>  (8) 
COc1ccc(-c2nn(CCC#N)cc2C=O)cc1

>  <score_type>  (8) 
oracle

>  <origin>  (8) 
adg

>  <m_score__min__energy>  (8) 
-5.6799999999999997

>  <m_primary>  (8) 
energy

$$$$
8:0
     RDKit          3D

 41 43  0  0  1  0  0  0  0  0999 V2000
   57.2760   24.0630   43.7220 C   0  0  0  0  0  0  0  0  0  0  0  0
   57.5970   24.9980   44.8580 C   0  0  0  0  0  0  0  0  0  0  0  0
   57.4840   24.5450   46.1560 C   0  0  0  0  0  0  0  0  0  0  0  0
   57.7730   25.4210   47.1920 C   0  0  0  0  0  0  0  0  0  0  0  0
   58.1680   26.7340   46.9500 C   0  0  0  0  0  0  0  0  0  0  0  0
   58.2730   27.1690   45.6220 C   0  0  0  0  0  0  0  0  0  0  0  0
   58.6510   28.5120   45.4030 N   0  0  0  0  0  0  0  0  0  0  0  0
   57.8670   29.4580   45.0970 C   0  0  0  0  0  0  0  0  0  0  0  0
   58.2160   30.7390   45.5050 C   0  0  0  0  0  0  0  0  0  0  0  0
   57.3990   31.8180   45.2050 C   0  0  0  0  0  0  0  0  0  0  0  0
   57.7220   33.1250   45.6140 N   0  0  0  0  0  0  0  0  0  0  0  0
   58.8420   33.4140   46.4690 C   0  0  0  0  0  0  0  0  0  0  0  0
   58.7410   33.2680   47.8540 C   0  0  0  0  0  0  0  0  0  0  0  0
   59.8100   33.5430   48.6950 C   0  0  0  0  0  0  0  0  0  0  0  0
   61.0160   33.9770   48.1730 C   0  0  0  0  0  0  0  0  0  0  0  0
   62.0780   34.2490   49.0970 C   0  0  0  0  0  0  0  0  0  0  0  0
   62.9420   34.4590   49.8340 N   0  0  0  0  0  0  0  0  0  0  0  0
   61.1320   34.1270   46.8080 C   0  0  0  0  0  0  0  0  0  0  0  0
   60.0500   33.8450   45.9880 C   0  0  0  0  0  0  0  0  0  0  0  0
   56.2730   31.5210   44.5030 N   0  0  0  0  0  0  0  0  0  0  0  0
   55.9570   30.2670   44.1160 C   0  0  0  0  0  0  0  0  0  0  0  0
   56.7460   29.1970   44.4040 N   0  0  0  0  0  0  0  0  0  0  0  0
   57.9880   26.2970   44.5940 C   0  0  0  0  0  0  0  0  0  0  0  0
   58.0990   26.7010   43.1590 C   0  0  0  0  0  0  0  0  0  0  0  0
   56.9438   23.0954   44.1262 H   0  0  0  0  0  0  0  0  0  0  0  0
   56.4754   24.4970   43.1050 H   0  0  0  0  0  0  0  0  0  0  0  0
   58.1743   23.9137   43.1050 H   0  0  0  0  0  0  0  0  0  0  0  0
   57.1714   23.5113   46.3651 H   0  0  0  0  0  0  0  0  0  0  0  0
   57.6880   25.0695   48.2309 H   0  0  0  0  0  0  0  0  0  0  0  0
   58.3929   27.4155   47.7836 H   0  0  0  0  0  0  0  0  0  0  0  0
   59.1465   30.8983   46.0697 H   0  0  0  0  0  0  0  0  0  0  0  0
   57.1570   33.9430   45.3110 H   0  0  0  0  0  0  0  0  0  0  0  0
   57.7903   32.9265   48.2893 H   0  0  0  0  0  0  0  0  0  0  0  0
   59.6983   33.4154   49.7818 H   0  0  0  0  0  0  0  0  0  0  0  0
   62.0810   34.4697   46.3699 H   0  0  0  0  0  0  0  0  0  0  0  0
   60.1670   33.9732   44.9018 H   0  0  0  0  0  0  0  0  0  0  0  0
   55.0291   30.1047   43.5479 H   0  0  0  0  0  0  0  0  0  0  0  0
   56.5230   28.2270   44.1210 H   0  0  0  0  0  0  0  0  0  0  0  0
   58.3900   27.7600   43.0977 H   0  0  0  0  0  0  0  0  0  0  0  0
   58.8604   26.0822   42.6617 H   0  0  0  0  0  0  0  0  0  0  0  0
   57.1283   26.5581   42.6617 H   0  0  0  0  0  0  0  0  0  0  0  0
  1  2  1  0
  2  3  2  0
  3  4  1  0
  4  5  2  0
  5  6  1  0
  6  7  1  0
  7  8  2  0
  8  9  1  0
  9 10  2  0
 10 11  1  0
 11 12  1  0
 12 13  2  0
 13 14  1  0
 14 15  2  0
 15 16  1  0
 16 17  3  0
 15 18  1  0
 18 19  2  0
 10 20  1  0
 20 21  2  0
 21 22  1  0
  6 23  2  0
 23 24  1  0
 23  2  1  0
 22  8  1  0
 19 12  1  0
  1 25  1  0
  1 26  1  0
  1 27  1  0
  3 28  1  0
  4 29  1  0
  5 30  1  0
  9 31  1  0
 11 32  1  0
 13 33  1  0
 14 34  1  0
 18 35  1  0
 19 36  1  0
 21 37  1  0
 22 38  1  0
 24 39  1  0
 24 40  1  0
 24 41  1  0
M  END
>  <smiles>  (9) 
Cc1cccc(N=c2cc(Nc3ccc(C#N)cc3)nc[nH]2)c1C

>  <score_type>  (9) 
oracle

>  <origin>  (9) 
adg

>  <m_score__min__energy>  (9) 
-7.9000000000000004

>  <m_primary>  (9) 
energy

$$$$
9:0
     RDKit          3D

 43 46  0  0  0  0  0  0  0  0999 V2000
   55.8300   29.7650   43.6930 C   0  0  0  0  0  0  0  0  0  0  0  0
   57.1340   29.3470   44.2210 N   0  0  0  0  0  0  0  0  0  0  0  0
   57.7540   28.1150   43.7200 C   0  0  0  0  0  0  0  0  0  0  0  0
   57.8390   30.1220   45.2210 C   0  0  0  0  0  0  0  0  0  0  0  0
   58.4710   29.4830   46.2570 N   0  0  0  0  0  0  0  0  0  0  0  0
   59.1430   30.1640   47.2400 C   0  0  0  0  0  0  0  0  0  0  0  0
   59.8440   29.4100   48.3250 C   0  0  0  0  0  0  0  0  0  0  0  0
   59.0720   29.4010   49.4730 F   0  0  0  0  0  0  0  0  0  0  0  0
   61.0540   30.0190   48.5960 F   0  0  0  0  0  0  0  0  0  0  0  0
   60.0710   28.1050   47.9280 F   0  0  0  0  0  0  0  0  0  0  0  0
   59.2260   31.5270   47.1970 N   0  0  0  0  0  0  0  0  0  0  0  0
   58.6110   32.1700   46.1770 C   0  0  0  0  0  0  0  0  0  0  0  0
   57.9250   31.5210   45.2050 C   0  0  0  0  0  0  0  0  0  0  0  0
   57.3900   32.4140   44.3480 N   0  0  0  0  0  0  0  0  0  0  0  0
   57.7900   33.6120   44.8550 C   0  0  0  0  0  0  0  0  0  0  0  0
   58.5510   33.4910   45.9700 N   0  0  0  0  0  0  0  0  0  0  0  0
   59.0630   34.5610   46.8200 C   0  0  0  0  0  0  0  0  0  0  0  0
   60.4500   34.2210   47.2920 C   0  0  0  0  0  0  0  0  0  0  0  0
   61.4400   33.8480   46.3690 C   0  0  0  0  0  0  0  0  0  0  0  0
   62.7160   33.4860   46.8060 C   0  0  0  0  0  0  0  0  0  0  0  0
   63.0180   33.4830   48.1760 C   0  0  0  0  0  0  0  0  0  0  0  0
   64.2960   33.1180   48.6260 C   0  0  0  0  0  0  0  0  0  0  0  0
   64.5830   33.1140   49.9950 C   0  0  0  0  0  0  0  0  0  0  0  0
   63.5990   33.4700   50.9210 C   0  0  0  0  0  0  0  0  0  0  0  0
   62.3210   33.8340   50.4850 C   0  0  0  0  0  0  0  0  0  0  0  0
   62.0200   33.8450   49.1130 C   0  0  0  0  0  0  0  0  0  0  0  0
   60.7420   34.2060   48.6640 C   0  0  0  0  0  0  0  0  0  0  0  0
   55.1489   29.9833   44.5287 H   0  0  0  0  0  0  0  0  0  0  0  0
   55.9560   30.6678   43.0773 H   0  0  0  0  0  0  0  0  0  0  0  0
   55.4077   28.9572   43.0773 H   0  0  0  0  0  0  0  0  0  0  0  0
   58.0681   27.4909   44.5696 H   0  0  0  0  0  0  0  0  0  0  0  0
   57.0271   27.5615   43.1074 H   0  0  0  0  0  0  0  0  0  0  0  0
   58.6316   28.3690   43.1074 H   0  0  0  0  0  0  0  0  0  0  0  0
   57.5229   34.5798   44.4056 H   0  0  0  0  0  0  0  0  0  0  0  0
   59.0926   35.4994   46.2469 H   0  0  0  0  0  0  0  0  0  0  0  0
   58.4025   34.6782   47.6918 H   0  0  0  0  0  0  0  0  0  0  0  0
   61.2088   33.8408   45.2936 H   0  0  0  0  0  0  0  0  0  0  0  0
   63.4865   33.2024   46.0739 H   0  0  0  0  0  0  0  0  0  0  0  0
   65.0733   32.8346   47.9011 H   0  0  0  0  0  0  0  0  0  0  0  0
   65.5867   32.8296   50.3438 H   0  0  0  0  0  0  0  0  0  0  0  0
   63.8303   33.4639   51.9964 H   0  0  0  0  0  0  0  0  0  0  0  0
   61.5497   34.1123   51.2182 H   0  0  0  0  0  0  0  0  0  0  0  0
   59.9637   34.4791   49.3917 H   0  0  0  0  0  0  0  0  0  0  0  0
  1  2  1  0
  2  3  1  0
  2  4  1  0
  4  5  2  0
  5  6  1  0
  6  7  1  0
  7  8  1  0
  7  9  1  0
  7 10  1  0
  6 11  2  0
 11 12  1  0
 12 13  2  0
 13 14  1  0
 14 15  2  0
 15 16  1  0
 16 17  1  0
 17 18  1  0
 18 19  2  0
 19 20  1  0
 20 21  2  0
 21 22  1  0
 22 23  2  0
 23 24  1  0
 24 25  2  0
 25 26  1  0
 26 27  2  0
 13  4  1  0
 27 18  1  0
 16 12  1  0
 26 21  1  0
  1 28  1  0
  1 29  1  0
  1 30  1  0
  3 31  1  0
  3 32  1  0
  3 33  1  0
 15 34  1  0
 17 35  1  0
 17 36  1  0
 19 37  1  0
 20 38  1  0
 22 39  1  0
 23 40  1  0
 24 41  1  0
 25 42  1  0
 27 43  1  0
M  END
>  <UniqueID>  (10) 
9

>  <SMILES>  (10) 
CN(C)c1nc(C(F)(F)F)nc2c1ncn2Cc1ccc2ccccc2c1

>  <Energy>  (10) 
87.53023689520501

>  <Genealogy>  (10) 
CN(C)c1nc(C(F)(F)F)nc2c1ncn2Cc1ccc2ccccc2c1 (3D coordinates assigned)
CN(C)c1nc(C(F)(F)F)nc2c1ncn2Cc1ccc2ccccc2c1 (optimized conformer: 87.53023689520501 kcal/mol)

>  <smiles>  (10) 
CN(C)c1nc(C(F)(F)F)nc2c1ncn2Cc1ccc2ccccc2c1

>  <score_type>  (10) 
oracle

>  <origin>  (10) 
adg

>  <m_score__min__energy>  (10) 
-7.54

>  <m_primary>  (10) 
energy

$$$$
10:0
     RDKit          3D

 38 40  0  0  0  0  0  0  0  0999 V2000
   57.4110   34.0410   44.8220 C   0  0  0  0  0  0  0  0  0  0  0  0
   57.9380   32.9320   45.7530 C   0  0  2  0  0  0  0  0  0  0  0  0
   59.4130   33.2040   46.0560 C   0  0  0  0  0  0  0  0  0  0  0  0
   59.9860   32.0530   46.8870 C   0  0  2  0  0  0  0  0  0  0  0  0
   61.3790   32.4280   47.3840 C   0  0  0  0  0  0  0  0  0  0  0  0
   61.9730   31.7570   48.4710 C   0  0  0  0  0  0  0  0  0  0  0  0
   63.2490   32.1160   48.9140 C   0  0  0  0  0  0  0  0  0  0  0  0
   63.9480   33.1450   48.2790 C   0  0  0  0  0  0  0  0  0  0  0  0
   63.3720   33.8170   47.1990 C   0  0  0  0  0  0  0  0  0  0  0  0
   62.0960   33.4620   46.7520 C   0  0  0  0  0  0  0  0  0  0  0  0
   59.9970   30.7720   46.1220 N   0  0  1  0  0  0  0  0  0  0  0  0
   60.1870   29.6490   47.0710 C   0  0  0  0  0  0  0  0  0  0  0  0
   58.7900   30.5480   45.3170 C   0  0  0  0  0  0  0  0  0  0  0  0
   58.6560   29.3430   44.5890 C   0  0  0  0  0  0  0  0  0  0  0  0
   57.4940   29.0540   43.8760 C   0  0  0  0  0  0  0  0  0  0  0  0
   56.4460   29.9660   43.8550 C   0  0  0  0  0  0  0  0  0  0  0  0
   56.5810   31.1970   44.4930 C   0  0  0  0  0  0  0  0  0  0  0  0
   57.7730   31.5390   45.1640 C   0  0  0  0  0  0  0  0  0  0  0  0
   57.0167   34.8708   45.4269 H   0  0  0  0  0  0  0  0  0  0  0  0
   58.2313   34.4074   44.1873 H   0  0  0  0  0  0  0  0  0  0  0  0
   56.6089   33.6364   44.1873 H   0  0  0  0  0  0  0  0  0  0  0  0
   57.3404   32.9531   46.6763 H   0  0  0  0  0  0  0  0  0  0  0  0
   59.9715   33.2877   45.1120 H   0  0  0  0  0  0  0  0  0  0  0  0
   59.5032   34.1434   46.6211 H   0  0  0  0  0  0  0  0  0  0  0  0
   59.3345   31.8871   47.7577 H   0  0  0  0  0  0  0  0  0  0  0  0
   61.4286   30.9447   48.9747 H   0  0  0  0  0  0  0  0  0  0  0  0
   63.7037   31.5870   49.7646 H   0  0  0  0  0  0  0  0  0  0  0  0
   64.9521   33.4260   48.6296 H   0  0  0  0  0  0  0  0  0  0  0  0
   63.9233   34.6271   46.6991 H   0  0  0  0  0  0  0  0  0  0  0  0
   61.6485   33.9946   45.8999 H   0  0  0  0  0  0  0  0  0  0  0  0
   60.8040   30.7710   45.4560 H   0  0  0  0  0  0  0  0  0  0  0  0
   60.1232   30.0258   48.1025 H   0  0  0  0  0  0  0  0  0  0  0  0
   59.4038   28.8941   46.9073 H   0  0  0  0  0  0  0  0  0  0  0  0
   61.1749   29.1938   46.9073 H   0  0  0  0  0  0  0  0  0  0  0  0
   59.4849   28.6199   44.5855 H   0  0  0  0  0  0  0  0  0  0  0  0
   57.4065   28.1034   43.3295 H   0  0  0  0  0  0  0  0  0  0  0  0
   55.5097   29.7160   43.3346 H   0  0  0  0  0  0  0  0  0  0  0  0
   55.7457   31.9125   44.4730 H   0  0  0  0  0  0  0  0  0  0  0  0
  1  2  1  0
  2  3  1  0
  3  4  1  0
  4  5  1  0
  5  6  2  0
  6  7  1  0
  7  8  2  0
  8  9  1  0
  9 10  2  0
  4 11  1  0
 11 12  1  0
 11 13  1  0
 13 14  2  0
 14 15  1  0
 15 16  2  0
 16 17  1  0
 17 18  2  0
 18  2  1  0
 10  5  1  0
 18 13  1  0
  1 19  1  0
  1 20  1  0
  1 21  1  0
  2 22  1  1
  3 23  1  0
  3 24  1  0
  4 25  1  1
  6 26  1  0
  7 27  1  0
  8 28  1  0
  9 29  1  0
 10 30  1  0
 11 31  1  6
 12 32  1  0
 12 33  1  0
 12 34  1  0
 14 35  1  0
 15 36  1  0
 16 37  1  0
 17 38  1  0
M  CHG  1  11   1
M  END
>  <UniqueID>  (11) 
10

>  <SMILES>  (11) 
C[C@@H]1C[C@H](c2ccccc2)[NH+](C)c2ccccc21

>  <Energy>  (11) 
52.10737233919651

>  <Genealogy>  (11) 
CC1CC(c2ccccc2)[NH+](C)c2ccccc21 (protonated)
C[C@@H]1C[C@H](c2ccccc2)[NH+](C)c2ccccc21 (chirality)
C[C@@H]1C[C@H](c2ccccc2)[NH+](C)c2ccccc21 (3D coordinates assigned)
C[C@@H]1C[C@H](c2ccccc2)[NH+](C)c2ccccc21 (nonaromatic ring conformer: 52.10737233919651 kcal/mol)

>  <smiles>  (11) 
CC1CC(c2ccccc2)N(C)c2ccccc21

>  <score_type>  (11) 
oracle

>  <origin>  (11) 
adg

>  <m_score__min__energy>  (11) 
-5.8700000000000001

>  <m_primary>  (11) 
energy

$$$$
11:0
     RDKit          3D

 55 61  0  0  0  0  0  0  0  0999 V2000
   62.4276   31.6962   50.8455 H   0  0  0  0  0  0  0  0  0  0  0  0
   62.7280   32.6480   50.3830 C   0  0  0  0  0  0  0  0  0  0  0  0
   62.0760   33.0920   49.3520 N   0  0  0  0  0  0  0  0  0  0  0  0
   61.2170   32.2790   48.5400 C   0  0  0  0  0  0  0  0  0  0  0  0
   60.1350   32.8290   47.7840 C   0  0  0  0  0  0  0  0  0  0  0  0
   59.8460   34.3050   47.7560 C   0  0  0  0  0  0  0  0  0  0  0  0
   59.7718   34.6837   48.7861 H   0  0  0  0  0  0  0  0  0  0  0  0
   60.6588   34.8279   47.2307 H   0  0  0  0  0  0  0  0  0  0  0  0
   58.8960   34.4827   47.2307 H   0  0  0  0  0  0  0  0  0  0  0  0
   59.3170   31.9610   47.0340 C   0  0  0  0  0  0  0  0  0  0  0  0
   58.4539   32.3475   46.4721 H   0  0  0  0  0  0  0  0  0  0  0  0
   59.6170   30.6390   47.0200 N   0  0  0  0  0  0  0  0  0  0  0  0
   59.0340   29.6040   46.3930 C   0  0  0  0  0  0  0  0  0  0  0  0
   57.9050   29.5800   45.5540 C   0  0  0  0  0  0  0  0  0  0  0  0
   57.3517   30.5016   45.3207 H   0  0  0  0  0  0  0  0  0  0  0  0
   57.5040   28.3330   45.0200 C   0  0  0  0  0  0  0  0  0  0  0  0
   56.6280   28.2608   44.3586 H   0  0  0  0  0  0  0  0  0  0  0  0
   58.2520   27.1830   45.3540 C   0  0  0  0  0  0  0  0  0  0  0  0
   59.3600   27.2370   46.1820 C   0  0  0  0  0  0  0  0  0  0  0  0
   59.7450   28.4660   46.7010 C   0  0  0  0  0  0  0  0  0  0  0  0
   60.7780   28.7620   47.5170 N   0  0  0  0  0  0  0  0  0  0  0  0
   61.4910   28.1150   47.9200 H   0  0  0  0  0  0  0  0  0  0  0  0
   60.6640   30.1030   47.6870 C   0  0  0  0  0  0  0  0  0  0  0  0
   61.4990   30.9020   48.4600 C   0  0  0  0  0  0  0  0  0  0  0  0
   62.3574   30.4696   48.9950 H   0  0  0  0  0  0  0  0  0  0  0  0
   59.9560   25.8750   46.3610 C   0  0  0  0  0  0  0  0  0  0  0  0
   59.9362   25.5652   47.4163 H   0  0  0  0  0  0  0  0  0  0  0  0
   61.0144   25.8112   46.0683 H   0  0  0  0  0  0  0  0  0  0  0  0
   59.0640   25.0440   45.5440 N   0  0  0  0  0  0  0  0  0  0  0  0
   58.0950   25.7970   44.9740 C   0  0  0  0  0  0  0  0  0  0  0  0
   57.1250   25.2330   44.1490 C   0  0  0  0  0  0  0  0  0  0  0  0
   56.3421   25.8544   43.6897 H   0  0  0  0  0  0  0  0  0  0  0  0
   57.1750   23.8470   43.9200 C   0  0  0  0  0  0  0  0  0  0  0  0
   56.2210   23.2300   43.0980 C   0  0  0  0  0  0  0  0  0  0  0  0
   55.4294   23.8327   42.6288 H   0  0  0  0  0  0  0  0  0  0  0  0
   56.2730   21.8510   42.8730 C   0  0  0  0  0  0  0  0  0  0  0  0
   55.5222   21.3726   42.2270 H   0  0  0  0  0  0  0  0  0  0  0  0
   57.2740   21.0790   43.4650 C   0  0  0  0  0  0  0  0  0  0  0  0
   57.3079   19.9946   43.2833 H   0  0  0  0  0  0  0  0  0  0  0  0
   58.2330   21.6760   44.2870 C   0  0  0  0  0  0  0  0  0  0  0  0
   59.0188   21.0603   44.7490 H   0  0  0  0  0  0  0  0  0  0  0  0
   58.1970   23.0630   44.5260 C   0  0  0  0  0  0  0  0  0  0  0  0
   59.1520   23.6990   45.3520 C   0  0  0  0  0  0  0  0  0  0  0  0
   60.0730   23.0390   45.9070 O   0  0  0  0  0  0  0  0  0  0  0  0
   63.8670   33.4020   50.9440 C   0  0  0  0  0  0  0  0  0  0  0  0
   63.6750   34.4200   51.8970 C   0  0  0  0  0  0  0  0  0  0  0  0
   62.6583   34.6683   52.2357 H   0  0  0  0  0  0  0  0  0  0  0  0
   64.7710   35.1170   52.4150 C   0  0  0  0  0  0  0  0  0  0  0  0
   64.6145   35.9101   53.1610 H   0  0  0  0  0  0  0  0  0  0  0  0
   66.0640   34.8080   51.9870 C   0  0  0  0  0  0  0  0  0  0  0  0
   66.9245   35.3589   52.3946 H   0  0  0  0  0  0  0  0  0  0  0  0
   66.2650   33.7990   51.0410 C   0  0  0  0  0  0  0  0  0  0  0  0
   67.5210   33.4980   50.6260 F   0  0  0  0  0  0  0  0  0  0  0  0
   65.1710   33.0980   50.5210 C   0  0  0  0  0  0  0  0  0  0  0  0
   65.3335   32.3045   49.7768 H   0  0  0  0  0  0  0  0  0  0  0  0
  1  2  1  0
  2  3  2  0
  3  4  1  0
  4  5  1  0
  5  6  1  0
  6  7  1  0
  6  8  1  0
  6  9  1  0
  5 10  2  0
 10 11  1  0
 10 12  1  0
 12 13  1  0
 13 14  2  0
 14 15  1  0
 14 16  1  0
 16 17  1  0
 16 18  2  0
 18 19  1  0
 19 20  2  0
 20 21  1  0
 21 22  1  0
 21 23  2  0
 23 24  1  0
 24 25  1  0
 19 26  1  0
 26 27  1  0
 26 28  1  0
 26 29  1  0
 29 30  1  0
 30 31  2  0
 31 32  1  0
 31 33  1  0
 33 34  2  0
 34 35  1  0
 34 36  1  0
 36 37  1  0
 36 38  2  0
 38 39  1  0
 38 40  1  0
 40 41  1  0
 40 42  2  0
 42 43  1  0
 43 44  2  0
  2 45  1  0
 45 46  2  0
 46 47  1  0
 46 48  1  0
 48 49  1  0
 48 50  2  0
 50 51  1  0
 50 52  1  0
 52 53  1  0
 52 54  2  0
 54 55  1  0
 24  4  2  0
 43 29  1  0
 54 45  1  0
 23 12  1  0
 42 33  1  0
 20 13  1  0
 30 18  1  0
M  CHG  1  21   1
M  END
>  <UniqueID>  (12) 
11

>  <SMILES>  (12) 
Cc1cn2c(cc1/N=C/c1cccc(F)c1)[nH+]c1c3c(ccc12)-c1cc2ccccc2c(=O)n1C3

>  <Energy>  (12) 
146.47578417163297

>  <Genealogy>  (12) 
Cc1cn2c(cc1N=Cc1cccc(F)c1)[nH+]c1c3c(ccc12)-c1cc2ccccc2c(=O)n1C3 (protonated)
Cc1cn2c(cc1/N=C/c1cccc(F)c1)[nH+]c1c3c(ccc12)-c1cc2ccccc2c(=O)n1C3 (cis-trans isomerization)
Cc1cn2c(cc1/N=C/c1cccc(F)c1)[nH+]c1c3c(ccc12)-c1cc2ccccc2c(=O)n1C3 (3D coordinates assigned)
Cc1cn2c(cc1/N=C/c1cccc(F)c1)[nH+]c1c3c(ccc12)-c1cc2ccccc2c(=O)n1C3 (nonaromatic ring conformer: 146.47578417163297 kcal/mol)

>  <smiles>  (12) 
Cc1cn2c(cc1N=Cc1cccc(F)c1)nc1c3c(ccc12)-c1cc2ccccc2c(=O)n1C3

>  <score_type>  (12) 
oracle

>  <origin>  (12) 
adg

>  <m_score__min__energy>  (12) 
-8.8599999999999994

>  <m_primary>  (12) 
energy

$$$$
12:0
     RDKit          3D

 14 14  0  0  0  0  0  0  0  0999 V2000
   58.1820   25.5990   46.1790 C   0  0  0  0  0  0  0  0  0  0  0  0
   57.6930   26.9070   45.7250 N   0  0  0  0  0  0  0  0  0  0  0  0
   58.5830   27.8800   45.3610 C   0  0  0  0  0  0  0  0  0  0  0  0
   58.1310   29.1250   44.9290 C   0  0  0  0  0  0  0  0  0  0  0  0
   56.7590   29.3530   44.8780 C   0  0  0  0  0  0  0  0  0  0  0  0
   56.3150   30.4660   44.4920 O   0  0  0  0  0  0  0  0  0  0  0  0
   55.8980   28.3720   45.2440 N   0  0  0  0  0  0  0  0  0  0  0  0
   56.3470   27.1600   45.6640 C   0  0  0  0  0  0  0  0  0  0  0  0
   55.5120   26.2760   45.9950 O   0  0  0  0  0  0  0  0  0  0  0  0
   58.1918   25.5727   47.2786 H   0  0  0  0  0  0  0  0  0  0  0  0
   57.5190   24.8077   45.7992 H   0  0  0  0  0  0  0  0  0  0  0  0
   59.2015   25.4367   45.7992 H   0  0  0  0  0  0  0  0  0  0  0  0
   59.6632   27.6780   45.4097 H   0  0  0  0  0  0  0  0  0  0  0  0
   58.8427   29.9104   44.6347 H   0  0  0  0  0  0  0  0  0  0  0  0
  1  2  1  0
  2  3  1  0
  3  4  2  0
  4  5  1  0
  5  6  2  0
  5  7  1  0
  7  8  1  0
  8  9  2  0
  8  2  1  0
  1 10  1  0
  1 11  1  0
  1 12  1  0
  3 13  1  0
  4 14  1  0
M  CHG  1   7  -1
M  END
>  <UniqueID>  (13) 
12

>  <SMILES>  (13) 
Cn1ccc(=O)[n-]c1=O

>  <Energy>  (13) 
14.693824807736078

>  <Genealogy>  (13) 
Cn1ccc(=O)[n-]c1=O (protonated)
Cn1ccc(=O)[n-]c1=O (3D coordinates assigned)
Cn1ccc(=O)[n-]c1=O (optimized conformer: 14.693824807736078 kcal/mol)

>  <smiles>  (13) 
Cn1ccc(=O)[nH]c1=O

>  <score_type>  (13) 
oracle

>  <origin>  (13) 
adg

>  <m_score__min__energy>  (13) 
-6.3700000000000001

>  <m_primary>  (13) 
energy

$$$$
13:0
     RDKit          3D

 36 38  0  0  1  0  0  0  0  0999 V2000
   55.6230   25.0190   45.6390 C   0  0  0  0  0  0  0  0  0  0  0  0
   55.7090   26.3510   46.0850 O   0  0  0  0  0  0  0  0  0  0  0  0
   56.9240   27.0200   46.1620 C   0  0  0  0  0  0  0  0  0  0  0  0
   57.9620   26.3780   46.7400 N   0  0  0  0  0  0  0  0  0  0  0  0
   59.1330   27.0360   46.8100 C   0  0  0  0  0  0  0  0  0  0  0  0
   60.1210   26.4170   47.3670 N   0  0  0  0  0  0  0  0  0  0  0  0
   59.2930   28.2950   46.3270 N   0  0  0  0  0  0  0  0  0  0  0  0
   58.2820   28.9820   45.7380 C   0  0  0  0  0  0  0  0  0  0  0  0
   58.4660   30.3260   45.2610 N   0  0  0  0  0  0  0  0  0  0  0  0
   58.9230   31.4040   46.0890 C   0  0  0  0  0  0  0  0  0  0  0  0
   58.5170   32.7830   45.6420 C   0  0  2  0  0  0  0  0  0  0  0  0
   57.0280   32.9180   45.8800 C   0  0  0  0  0  0  0  0  0  0  0  0
   56.4850   32.0630   44.8440 N   0  0  0  0  0  0  0  0  0  0  0  0
   57.4660   31.9540   43.7870 C   0  0  1  0  0  0  0  0  0  0  0  0
   58.5480   32.9870   44.1450 C   0  0  0  0  0  0  0  0  0  0  0  0
   58.2220   30.6410   43.8560 C   0  0  0  0  0  0  0  0  0  0  0  0
   57.0760   28.3240   45.6580 C   0  0  0  0  0  0  0  0  0  0  0  0
   55.9000   28.8810   45.1040 N   0  0  0  0  0  0  0  0  0  0  0  0
   55.5794   24.3440   46.5064 H   0  0  0  0  0  0  0  0  0  0  0  0
   54.7149   24.8938   45.0310 H   0  0  0  0  0  0  0  0  0  0  0  0
   56.5075   24.7781   45.0310 H   0  0  0  0  0  0  0  0  0  0  0  0
   61.0490   26.3070   46.9480 H   0  0  0  0  0  0  0  0  0  0  0  0
   60.2580   28.6770   46.4440 H   0  0  0  0  0  0  0  0  0  0  0  0
   58.5247   31.2453   47.1020 H   0  0  0  0  0  0  0  0  0  0  0  0
   60.0214   31.3808   46.0352 H   0  0  0  0  0  0  0  0  0  0  0  0
   59.1999   33.4645   46.1704 H   0  0  0  0  0  0  0  0  0  0  0  0
   56.7483   32.5606   46.8820 H   0  0  0  0  0  0  0  0  0  0  0  0
   56.6621   33.9546   45.8401 H   0  0  0  0  0  0  0  0  0  0  0  0
   56.1970   31.1420   45.2320 H   0  0  0  0  0  0  0  0  0  0  0  0
   56.9622   32.0683   42.8159 H   0  0  0  0  0  0  0  0  0  0  0  0
   59.5264   32.7391   43.7076 H   0  0  0  0  0  0  0  0  0  0  0  0
   58.3833   34.0138   43.7865 H   0  0  0  0  0  0  0  0  0  0  0  0
   57.6231   29.8422   43.3942 H   0  0  0  0  0  0  0  0  0  0  0  0
   59.1761   30.7240   43.3148 H   0  0  0  0  0  0  0  0  0  0  0  0
   55.7580   29.8930   44.9010 H   0  0  0  0  0  0  0  0  0  0  0  0
   55.1190   28.2100   44.8720 H   0  0  0  0  0  0  0  0  0  0  0  0
  1  2  1  0
  2  3  1  0
  3  4  2  0
  4  5  1  0
  5  6  2  3
  5  7  1  0
  7  8  1  0
  8  9  1  0
  9 10  1  0
 10 11  1  0
 11 12  1  0
 12 13  1  0
 13 14  1  0
 14 15  1  0
 14 16  1  0
  8 17  2  0
 17 18  1  0
 17  3  1  0
 16  9  1  0
 15 11  1  0
  1 19  1  0
  1 20  1  0
  1 21  1  0
  6 22  1  0
  7 23  1  0
 10 24  1  0
 10 25  1  0
 11 26  1  1
 12 27  1  0
 12 28  1  0
 13 29  1  0
 14 30  1  6
 15 31  1  0
 15 32  1  0
 16 33  1  0
 16 34  1  0
 18 35  1  0
 18 36  1  0
M  END
>  <smiles>  (14) 
COc1nc(=N)[nH]c(N2CC3CNC(C3)C2)c1N

>  <score_type>  (14) 
oracle

>  <origin>  (14) 
adg

>  <m_score__min__energy>  (14) 
-5.9100000000000001

>  <m_primary>  (14) 
energy

$$$$
14:0
     RDKit          3D

 33 35  0  0  0  0  0  0  0  0999 V2000
   58.2884   26.7202   46.9603 H   0  0  0  0  0  0  0  0  0  0  0  0
   57.4040   27.2910   46.6410 C   0  0  0  0  0  0  0  0  0  0  0  0
   56.2540   26.6930   46.5760 N   0  0  0  0  0  0  0  0  0  0  0  0
   55.9670   25.5790   45.7200 C   0  0  0  0  0  0  0  0  0  0  0  0
   54.7560   24.9540   45.7580 N   0  0  0  0  0  0  0  0  0  0  0  0
   54.4680   23.8950   44.9540 C   0  0  0  0  0  0  0  0  0  0  0  0
   53.4808   23.4131   45.0113 H   0  0  0  0  0  0  0  0  0  0  0  0
   55.4260   23.4200   44.0560 C   0  0  0  0  0  0  0  0  0  0  0  0
   55.1995   22.5649   43.4022 H   0  0  0  0  0  0  0  0  0  0  0  0
   56.6740   24.0420   43.9970 C   0  0  0  0  0  0  0  0  0  0  0  0
   57.4385   23.6785   43.2945 H   0  0  0  0  0  0  0  0  0  0  0  0
   56.9500   25.1270   44.8320 C   0  0  0  0  0  0  0  0  0  0  0  0
   57.9315   25.6221   44.7921 H   0  0  0  0  0  0  0  0  0  0  0  0
   57.5550   28.7300   46.2940 C   0  0  0  0  0  0  0  0  0  0  0  0
   56.6050   29.3410   45.4630 C   0  0  0  0  0  0  0  0  0  0  0  0
   55.5250   28.6230   44.9610 O   0  0  0  0  0  0  0  0  0  0  0  0
   56.7300   30.6480   45.1360 N   0  0  0  0  0  0  0  0  0  0  0  0
   57.7580   31.4050   45.5920 C   0  0  0  0  0  0  0  0  0  0  0  0
   57.8290   32.9760   45.1110 S   0  0  0  0  0  0  0  0  0  0  0  0
   58.7090   30.8500   46.4110 N   0  0  0  0  0  0  0  0  0  0  0  0
   59.8080   31.6390   46.9110 C   0  0  0  0  0  0  0  0  0  0  0  0
   61.1280   31.1940   46.7450 C   0  0  0  0  0  0  0  0  0  0  0  0
   61.3256   30.2433   46.2281 H   0  0  0  0  0  0  0  0  0  0  0  0
   62.1930   31.9560   47.2350 C   0  0  0  0  0  0  0  0  0  0  0  0
   63.2271   31.6054   47.1015 H   0  0  0  0  0  0  0  0  0  0  0  0
   61.9440   33.1640   47.8950 C   0  0  0  0  0  0  0  0  0  0  0  0
   62.7824   33.7642   48.2781 H   0  0  0  0  0  0  0  0  0  0  0  0
   60.6290   33.6090   48.0680 C   0  0  0  0  0  0  0  0  0  0  0  0
   60.4338   34.5574   48.5899 H   0  0  0  0  0  0  0  0  0  0  0  0
   59.5630   32.8490   47.5780 C   0  0  0  0  0  0  0  0  0  0  0  0
   58.5297   33.2003   47.7156 H   0  0  0  0  0  0  0  0  0  0  0  0
   58.6220   29.5270   46.7650 C   0  0  0  0  0  0  0  0  0  0  0  0
   59.4990   29.0240   47.5220 O   0  0  0  0  0  0  0  0  0  0  0  0
  1  2  1  0
  2  3  2  0
  3  4  1  0
  4  5  2  0
  5  6  1  0
  6  7  1  0
  6  8  2  0
  8  9  1  0
  8 10  1  0
 10 11  1  0
 10 12  2  0
 12 13  1  0
  2 14  1  0
 14 15  2  0
 15 16  1  0
 15 17  1  0
 17 18  1  0
 18 19  2  0
 18 20  1  0
 20 21  1  0
 21 22  2  0
 22 23  1  0
 22 24  1  0
 24 25  1  0
 24 26  2  0
 26 27  1  0
 26 28  1  0
 28 29  1  0
 28 30  2  0
 30 31  1  0
 20 32  1  0
 32 33  2  0
 12  4  1  0
 32 14  1  0
 30 21  1  0
M  CHG  2  16  -1  17  -1
M  END
>  <UniqueID>  (15) 
13

>  <SMILES>  (15) 
O=c1c(/C=N/c2ccccn2)c([O-])[n-]c(=S)n1-c1ccccc1

>  <Energy>  (15) 
52.38179672831057

>  <Genealogy>  (15) 
O=c1c(C=Nc2ccccn2)c([O-])[n-]c(=S)n1-c1ccccc1 (protonated)
O=c1c(/C=N/c2ccccn2)c([O-])[n-]c(=S)n1-c1ccccc1 (cis-trans isomerization)
O=c1c(/C=N/c2ccccn2)c([O-])[n-]c(=S)n1-c1ccccc1 (3D coordinates assigned)
O=c1c(/C=N/c2ccccn2)c([O-])[n-]c(=S)n1-c1ccccc1 (optimized conformer: 52.38179672831057 kcal/mol)

>  <smiles>  (15) 
O=c1c(C=Nc2ccccn2)c(O)[nH]c(=S)n1-c1ccccc1

>  <score_type>  (15) 
oracle

>  <origin>  (15) 
adg

>  <m_score__min__energy>  (15) 
-11.720000000000001

>  <m_primary>  (15) 
energy

$$$$
15:0
     RDKit          3D

 40 41  0  0  0  0  0  0  0  0999 V2000
   56.9557   28.8099   42.6739 H   0  0  0  0  0  0  0  0  0  0  0  0
   57.2100   29.0780   43.7100 C   0  0  0  0  0  0  0  0  0  0  0  0
   56.2330   29.8890   44.4600 C   0  0  0  0  0  0  0  0  0  0  0  0
   55.2540   29.3450   45.0420 O   0  0  0  0  0  0  0  0  0  0  0  0
   56.3820   31.2800   44.4780 O   0  0  0  0  0  0  0  0  0  0  0  0
   57.3890   31.9440   45.2400 C   0  0  0  0  0  0  0  0  0  0  0  0
   57.1946   31.7865   46.3112 H   0  0  0  0  0  0  0  0  0  0  0  0
   58.3710   31.5304   44.9669 H   0  0  0  0  0  0  0  0  0  0  0  0
   57.3860   33.4180   44.9490 C   0  0  0  0  0  0  0  0  0  0  0  0
   56.4556   33.9072   44.6250 H   0  0  0  0  0  0  0  0  0  0  0  0
   58.3840   28.6410   44.1900 C   0  0  0  0  0  0  0  0  0  0  0  0
   58.9881   27.9924   43.5385 H   0  0  0  0  0  0  0  0  0  0  0  0
   58.9300   28.9630   45.5270 C   0  0  0  0  0  0  0  0  0  0  0  0
   59.9910   29.8720   45.6340 C   0  0  0  0  0  0  0  0  0  0  0  0
   60.4272   30.3132   44.7257 H   0  0  0  0  0  0  0  0  0  0  0  0
   59.6930   34.1670   48.6660 C   0  0  0  0  0  0  0  0  0  0  0  0
   59.2583   34.2990   49.6678 H   0  0  0  0  0  0  0  0  0  0  0  0
   61.0620   33.9330   48.5260 C   0  0  0  0  0  0  0  0  0  0  0  0
   61.7043   33.8770   49.4172 H   0  0  0  0  0  0  0  0  0  0  0  0
   61.6160   33.7700   47.2550 C   0  0  0  0  0  0  0  0  0  0  0  0
   62.6957   33.5900   47.1461 H   0  0  0  0  0  0  0  0  0  0  0  0
   58.3460   28.4500   46.6980 C   0  0  0  0  0  0  0  0  0  0  0  0
   57.4839   27.7705   46.6265 H   0  0  0  0  0  0  0  0  0  0  0  0
   58.5030   34.1410   45.0800 C   0  0  0  0  0  0  0  0  0  0  0  0
   58.7632   34.8406   44.2720 H   0  0  0  0  0  0  0  0  0  0  0  0
   59.4130   34.0570   46.2490 C   0  0  0  0  0  0  0  0  0  0  0  0
   58.8730   34.2340   47.5350 C   0  0  0  0  0  0  0  0  0  0  0  0
   57.7964   34.4268   47.6526 H   0  0  0  0  0  0  0  0  0  0  0  0
   60.4980   30.2210   46.8890 C   0  0  0  0  0  0  0  0  0  0  0  0
   61.3431   30.9216   46.9599 H   0  0  0  0  0  0  0  0  0  0  0  0
   59.9400   29.6870   48.0560 C   0  0  0  0  0  0  0  0  0  0  0  0
   60.4880   30.0650   49.2910 O   0  0  0  0  0  0  0  0  0  0  0  0
   61.6850   30.8220   49.4410 C   0  0  0  0  0  0  0  0  0  0  0  0
   61.9009   30.9585   50.5109 H   0  0  0  0  0  0  0  0  0  0  0  0
   62.5194   30.2870   48.9640 H   0  0  0  0  0  0  0  0  0  0  0  0
   61.5593   31.8052   48.9640 H   0  0  0  0  0  0  0  0  0  0  0  0
   58.8540   28.7980   47.9530 C   0  0  0  0  0  0  0  0  0  0  0  0
   58.4033   28.3755   48.8631 H   0  0  0  0  0  0  0  0  0  0  0  0
   60.8010   33.8350   46.1190 C   0  0  0  0  0  0  0  0  0  0  0  0
   61.2443   33.7125   45.1198 H   0  0  0  0  0  0  0  0  0  0  0  0
  1  2  1  0
  2  3  1  0
  3  4  2  0
  3  5  1  0
  5  6  1  0
  6  7  1  0
  6  8  1  0
  6  9  1  0
  9 10  1  0
  9 11  2  0
 11 12  1  0
 11 13  1  0
 13 14  2  0
 14 15  1  0
 14 16  1  0
 16 17  1  0
 16 18  2  0
 18 19  1  0
 18 20  1  0
 20 21  1  0
 20 22  2  0
 22 23  1  0
  2 24  2  0
 24 25  1  0
 24 26  1  0
 26 27  2  0
 27 28  1  0
 27 29  1  0
 29 30  1  0
 29 31  2  0
 31 32  1  0
 32 33  1  0
 33 34  1  0
 33 35  1  0
 33 36  1  0
 31 37  1  0
 37 38  1  0
 37 39  2  0
 39 40  1  0
 22 13  1  0
 39 26  1  0
M  END
>  <UniqueID>  (16) 
14

>  <SMILES>  (16) 
COc1ccc(/C=C\C(=O)OC/C=C/c2ccccc2)cc1

>  <Energy>  (16) 
45.582559593134036

>  <Genealogy>  (16) 
COc1ccc(/C=C\C(=O)OC/C=C/c2ccccc2)cc1 (cis-trans isomerization)
COc1ccc(/C=C\C(=O)OC/C=C/c2ccccc2)cc1 (3D coordinates assigned)
COc1ccc(/C=C\C(=O)OC/C=C/c2ccccc2)cc1 (optimized conformer: 45.582559593134036 kcal/mol)

>  <smiles>  (16) 
COc1ccc(C=CC(=O)OCC=Cc2ccccc2)cc1

>  <score_type>  (16) 
oracle

>  <origin>  (16) 
adg

>  <m_score__min__energy>  (16) 
-7.0199999999999996

>  <m_primary>  (16) 
energy

$$$$
16:0
     RDKit          3D

 34 34  0  0  0  0  0  0  0  0999 V2000
   57.9000   25.4150   46.8010 C   0  0  0  0  0  0  0  0  0  0  0  0
   56.8360   25.6210   45.7170 C   0  0  0  0  0  0  0  0  0  0  0  0
   57.3920   26.2730   44.4990 N   0  0  0  0  0  0  0  0  0  0  0  0
   57.4570   25.2990   43.3760 C   0  0  0  0  0  0  0  0  0  0  0  0
   56.6580   24.0230   43.6690 C   0  0  0  0  0  0  0  0  0  0  0  0
   58.7460   26.8260   44.7840 C   0  0  0  0  0  0  0  0  0  0  0  0
   58.6920   28.2740   45.2940 C   0  0  0  0  0  0  0  0  0  0  0  0
   57.3780   28.5770   45.6990 O   0  0  0  0  0  0  0  0  0  0  0  0
   56.6550   29.5490   44.5140 S   0  0  0  0  0  0  0  0  0  0  0  0
   55.1900   29.7140   44.8070 O   0  0  0  0  0  0  0  0  0  0  0  0
   56.8450   28.9400   43.1520 O   0  0  0  0  0  0  0  0  0  0  0  0
   57.4240   31.1230   44.5440 C   0  0  0  0  0  0  0  0  0  0  0  0
   57.7350   31.8900   43.4320 C   0  0  0  0  0  0  0  0  0  0  0  0
   58.3540   33.1010   43.7610 C   0  0  0  0  0  0  0  0  0  0  0  0
   58.5250   33.2730   45.1280 C   0  0  0  0  0  0  0  0  0  0  0  0
   59.3260   34.7840   45.9700 Br  0  0  0  0  0  0  0  0  0  0  0  0
   57.9130   31.9300   45.9350 S   0  0  0  0  0  0  0  0  0  0  0  0
   57.4345   25.5051   47.7936 H   0  0  0  0  0  0  0  0  0  0  0  0
   58.3438   24.4143   46.6937 H   0  0  0  0  0  0  0  0  0  0  0  0
   58.6853   26.1778   46.6937 H   0  0  0  0  0  0  0  0  0  0  0  0
   56.4219   24.6413   45.4365 H   0  0  0  0  0  0  0  0  0  0  0  0
   56.0586   26.2816   46.1284 H   0  0  0  0  0  0  0  0  0  0  0  0
   56.7540   27.0580   44.2220 H   0  0  0  0  0  0  0  0  0  0  0  0
   57.0481   25.7732   42.4716 H   0  0  0  0  0  0  0  0  0  0  0  0
   58.5102   25.0136   43.2370 H   0  0  0  0  0  0  0  0  0  0  0  0
   56.5721   23.8859   44.7570 H   0  0  0  0  0  0  0  0  0  0  0  0
   55.6532   24.1107   43.2300 H   0  0  0  0  0  0  0  0  0  0  0  0
   57.1756   23.1573   43.2300 H   0  0  0  0  0  0  0  0  0  0  0  0
   59.2294   26.2001   45.5485 H   0  0  0  0  0  0  0  0  0  0  0  0
   59.3143   26.8232   43.8422 H   0  0  0  0  0  0  0  0  0  0  0  0
   59.3752   28.3881   46.1485 H   0  0  0  0  0  0  0  0  0  0  0  0
   58.9963   28.9593   44.4892 H   0  0  0  0  0  0  0  0  0  0  0  0
   57.5180   31.5793   42.3994 H   0  0  0  0  0  0  0  0  0  0  0  0
   58.6727   33.8415   43.0126 H   0  0  0  0  0  0  0  0  0  0  0  0
  1  2  1  0
  2  3  1  0
  3  4  1  0
  4  5  1  0
  3  6  1  0
  6  7  1  0
  7  8  1  0
  8  9  1  0
  9 10  2  0
  9 11  2  0
  9 12  1  0
 12 13  2  0
 13 14  1  0
 14 15  2  0
 15 16  1  0
 15 17  1  0
 17 12  1  0
  1 18  1  0
  1 19  1  0
  1 20  1  0
  2 21  1  0
  2 22  1  0
  3 23  1  0
  4 24  1  0
  4 25  1  0
  5 26  1  0
  5 27  1  0
  5 28  1  0
  6 29  1  0
  6 30  1  0
  7 31  1  0
  7 32  1  0
 13 33  1  0
 14 34  1  0
M  CHG  1   3   1
M  END
>  <UniqueID>  (17) 
15

>  <SMILES>  (17) 
CC[NH+](CC)CCOS(=O)(=O)c1ccc(Br)s1

>  <Energy>  (17) 
60.264994143684575

>  <Genealogy>  (17) 
CC[NH+](CC)CCOS(=O)(=O)c1ccc(Br)s1 (protonated)
CC[NH+](CC)CCOS(=O)(=O)c1ccc(Br)s1 (3D coordinates assigned)
CC[NH+](CC)CCOS(=O)(=O)c1ccc(Br)s1 (optimized conformer: 60.264994143684575 kcal/mol)

>  <smiles>  (17) 
CCN(CC)CCOS(=O)(=O)c1ccc(Br)s1

>  <score_type>  (17) 
oracle

>  <origin>  (17) 
adg

>  <m_score__min__energy>  (17) 
-4.6699999999999999

>  <m_primary>  (17) 
energy

$$$$
17:0
     RDKit          3D

 27 28  0  0  0  0  0  0  0  0999 V2000
   58.1910   29.5150   46.2460 O   0  0  0  0  0  0  0  0  0  0  0  0
   57.1590   29.5700   45.5250 C   0  0  0  0  0  0  0  0  0  0  0  0
   56.7280   30.8470   45.0380 N   0  0  0  0  0  0  0  0  0  0  0  0
   57.4480   32.0790   45.1620 C   0  0  0  0  0  0  0  0  0  0  0  0
   57.4400   32.8210   46.3580 C   0  0  0  0  0  0  0  0  0  0  0  0
   58.1240   34.0370   46.4370 C   0  0  0  0  0  0  0  0  0  0  0  0
   58.8050   34.5310   45.3200 C   0  0  0  0  0  0  0  0  0  0  0  0
   58.7940   33.8130   44.1210 C   0  0  0  0  0  0  0  0  0  0  0  0
   58.1110   32.5960   44.0400 C   0  0  0  0  0  0  0  0  0  0  0  0
   56.4150   28.3770   45.2280 N   0  0  0  0  0  0  0  0  0  0  0  0
   56.8340   27.0660   45.6350 C   0  0  0  0  0  0  0  0  0  0  0  0
   58.1970   26.7400   45.5980 C   0  0  0  0  0  0  0  0  0  0  0  0
   58.6300   25.4650   45.9740 C   0  0  0  0  0  0  0  0  0  0  0  0
   57.7010   24.5010   46.3740 C   0  0  0  0  0  0  0  0  0  0  0  0
   58.1210   23.2630   46.7350 F   0  0  0  0  0  0  0  0  0  0  0  0
   56.3370   24.8080   46.3870 C   0  0  0  0  0  0  0  0  0  0  0  0
   55.8990   26.0820   46.0120 C   0  0  0  0  0  0  0  0  0  0  0  0
   54.5670   26.3360   45.9690 F   0  0  0  0  0  0  0  0  0  0  0  0
   56.8931   32.4422   47.2340 H   0  0  0  0  0  0  0  0  0  0  0  0
   58.1267   34.6060   47.3784 H   0  0  0  0  0  0  0  0  0  0  0  0
   59.3493   35.4847   45.3850 H   0  0  0  0  0  0  0  0  0  0  0  0
   59.3232   34.2059   43.2403 H   0  0  0  0  0  0  0  0  0  0  0  0
   58.0936   32.0408   43.0906 H   0  0  0  0  0  0  0  0  0  0  0  0
   55.5840   28.4410   44.5980 H   0  0  0  0  0  0  0  0  0  0  0  0
   58.9302   27.4920   45.2711 H   0  0  0  0  0  0  0  0  0  0  0  0
   59.7023   25.2207   45.9549 H   0  0  0  0  0  0  0  0  0  0  0  0
   55.6062   24.0450   46.6932 H   0  0  0  0  0  0  0  0  0  0  0  0
  1  2  2  0
  2  3  1  0
  3  4  1  0
  4  5  2  0
  5  6  1  0
  6  7  2  0
  7  8  1  0
  8  9  2  0
  2 10  1  0
 10 11  1  0
 11 12  2  0
 12 13  1  0
 13 14  2  0
 14 15  1  0
 14 16  1  0
 16 17  2  0
 17 18  1  0
  9  4  1  0
 17 11  1  0
  5 19  1  0
  6 20  1  0
  7 21  1  0
  8 22  1  0
  9 23  1  0
 10 24  1  0
 12 25  1  0
 13 26  1  0
 16 27  1  0
M  CHG  1   3  -1
M  END
>  <UniqueID>  (18) 
16

>  <SMILES>  (18) 
O=C([N-]c1ccccc1)Nc1ccc(F)cc1F

>  <Energy>  (18) 
37.335149000285675

>  <Genealogy>  (18) 
O=C([N-]c1ccccc1)Nc1ccc(F)cc1F (protonated)
O=C([N-]c1ccccc1)Nc1ccc(F)cc1F (3D coordinates assigned)
O=C([N-]c1ccccc1)Nc1ccc(F)cc1F (optimized conformer: 37.335149000285675 kcal/mol)

>  <smiles>  (18) 
O=C(Nc1ccccc1)Nc1ccc(F)cc1F

>  <score_type>  (18) 
oracle

>  <origin>  (18) 
adg

>  <m_score__min__energy>  (18) 
-8.1999999999999993

>  <m_primary>  (18) 
energy

$$$$
18:0
     RDKit          3D

 42 45  0  0  0  0  0  0  0  0999 V2000
   59.6280   33.6910   51.4460 C   0  0  0  0  0  0  0  0  0  0  0  0
   61.0540   33.5470   50.9650 C   0  0  0  0  0  0  0  0  0  0  0  0
   62.0440   33.4540   51.9000 N   0  0  0  0  0  0  0  0  0  0  0  0
   63.3460   33.3160   51.5480 C   0  0  0  0  0  0  0  0  0  0  0  0
   64.5690   33.2010   52.8090 Cl  0  0  0  0  0  0  0  0  0  0  0  0
   63.6950   33.2660   50.2000 C   0  0  0  0  0  0  0  0  0  0  0  0
   65.3780   33.0830   49.7030 Cl  0  0  0  0  0  0  0  0  0  0  0  0
   62.6820   33.3580   49.2410 C   0  0  0  0  0  0  0  0  0  0  0  0
   62.9950   33.3050   48.0190 O   0  0  0  0  0  0  0  0  0  0  0  0
   61.3670   33.5010   49.6220 N   0  0  0  0  0  0  0  0  0  0  0  0
   60.3080   33.5750   48.5880 C   0  0  0  0  0  0  0  0  0  0  0  0
   59.9920   32.2100   48.0270 C   0  0  0  0  0  0  0  0  0  0  0  0
   59.2110   31.3000   48.7580 C   0  0  0  0  0  0  0  0  0  0  0  0
   58.9200   30.0390   48.2340 C   0  0  0  0  0  0  0  0  0  0  0  0
   59.4070   29.6660   46.9730 C   0  0  0  0  0  0  0  0  0  0  0  0
   59.0960   28.3310   46.4170 C   0  0  0  0  0  0  0  0  0  0  0  0
   59.9600   27.2670   46.7260 C   0  0  0  0  0  0  0  0  0  0  0  0
   59.6730   25.9700   46.2980 C   0  0  0  0  0  0  0  0  0  0  0  0
   58.5190   25.7190   45.5590 C   0  0  0  0  0  0  0  0  0  0  0  0
   57.6560   26.7650   45.2290 C   0  0  0  0  0  0  0  0  0  0  0  0
   57.9340   28.0840   45.6350 C   0  0  0  0  0  0  0  0  0  0  0  0
   57.0240   29.1680   45.1880 C   0  0  0  0  0  0  0  0  0  0  0  0
   57.3900   30.4460   44.9740 N   0  0  0  0  0  0  0  0  0  0  0  0
   56.2920   31.0490   44.5500 N   0  0  0  0  0  0  0  0  0  0  0  0
   55.2970   30.1780   44.4960 N   0  0  0  0  0  0  0  0  0  0  0  0
   55.7240   28.9870   44.8850 N   0  0  0  0  0  0  0  0  0  0  0  0
   60.2210   30.5570   46.2580 C   0  0  0  0  0  0  0  0  0  0  0  0
   60.5120   31.8200   46.7810 C   0  0  0  0  0  0  0  0  0  0  0  0
   59.6104   33.6928   52.5459 H   0  0  0  0  0  0  0  0  0  0  0  0
   59.2082   34.6361   51.0711 H   0  0  0  0  0  0  0  0  0  0  0  0
   59.0278   32.8489   51.0711 H   0  0  0  0  0  0  0  0  0  0  0  0
   61.8070   33.4870   52.9170 H   0  0  0  0  0  0  0  0  0  0  0  0
   59.3972   33.9971   49.0377 H   0  0  0  0  0  0  0  0  0  0  0  0
   60.6685   34.2124   47.7672 H   0  0  0  0  0  0  0  0  0  0  0  0
   58.8263   31.5824   49.7491 H   0  0  0  0  0  0  0  0  0  0  0  0
   58.3054   29.3343   48.8134 H   0  0  0  0  0  0  0  0  0  0  0  0
   60.8717   27.4581   47.3111 H   0  0  0  0  0  0  0  0  0  0  0  0
   60.3583   25.1455   46.5443 H   0  0  0  0  0  0  0  0  0  0  0  0
   58.2874   24.6937   45.2347 H   0  0  0  0  0  0  0  0  0  0  0  0
   56.7477   26.5563   44.6447 H   0  0  0  0  0  0  0  0  0  0  0  0
   60.6320   30.2604   45.2817 H   0  0  0  0  0  0  0  0  0  0  0  0
   61.1516   32.5126   46.2142 H   0  0  0  0  0  0  0  0  0  0  0  0
  1  2  1  0
  2  3  2  0
  3  4  1  0
  4  5  1  0
  4  6  2  0
  6  7  1  0
  6  8  1  0
  8  9  2  0
  8 10  1  0
 10 11  1  0
 11 12  1  0
 12 13  2  0
 13 14  1  0
 14 15  2  0
 15 16  1  0
 16 17  2  0
 17 18  1  0
 18 19  2  0
 19 20  1  0
 20 21  2  0
 21 22  1  0
 22 23  1  0
 23 24  2  0
 24 25  1  0
 25 26  1  0
 15 27  1  0
 27 28  2  0
 10  2  1  0
 28 12  1  0
 21 16  1  0
 26 22  2  0
  1 29  1  0
  1 30  1  0
  1 31  1  0
  3 32  1  0
 11 33  1  0
 11 34  1  0
 13 35  1  0
 14 36  1  0
 17 37  1  0
 18 38  1  0
 19 39  1  0
 20 40  1  0
 27 41  1  0
 28 42  1  0
M  CHG  2   3   1  25  -1
M  END
>  <UniqueID>  (19) 
17

>  <SMILES>  (19) 
Cc1[nH+]c(Cl)c(Cl)c(=O)n1Cc1ccc(-c2ccccc2-c2nn[n-]n2)cc1

>  <Energy>  (19) 
100.93722593436233

>  <Genealogy>  (19) 
Cc1[nH+]c(Cl)c(Cl)c(=O)n1Cc1ccc(-c2ccccc2-c2nn[n-]n2)cc1 (protonated)
Cc1[nH+]c(Cl)c(Cl)c(=O)n1Cc1ccc(-c2ccccc2-c2nn[n-]n2)cc1 (3D coordinates assigned)
Cc1[nH+]c(Cl)c(Cl)c(=O)n1Cc1ccc(-c2ccccc2-c2nn[n-]n2)cc1 (optimized conformer: 100.93722593436233 kcal/mol)

>  <smiles>  (19) 
Cc1nc(Cl)c(Cl)c(=O)n1Cc1ccc(-c2ccccc2-c2nn[nH]n2)cc1

>  <score_type>  (19) 
oracle

>  <origin>  (19) 
adg

>  <m_score__min__energy>  (19) 
-10.140000000000001

>  <m_primary>  (19) 
energy

$$$$
19:0
     RDKit          3D

 33 34  0  0  0  0  0  0  0  0999 V2000
   56.1430   31.0950   44.4990 O   0  0  0  0  0  0  0  0  0  0  0  0
   56.4800   29.9510   44.8670 N   0  0  0  0  0  0  0  0  0  0  0  0
   55.5230   28.9640   44.9100 O   0  0  0  0  0  0  0  0  0  0  0  0
   57.8000   29.7000   45.3860 C   0  0  0  0  0  0  0  0  0  0  0  0
   58.2620   30.4550   46.4790 C   0  0  0  0  0  0  0  0  0  0  0  0
   59.5470   30.2530   47.0060 C   0  0  0  0  0  0  0  0  0  0  0  0
   60.0290   31.0880   48.1730 C   0  0  0  0  0  0  0  0  0  0  0  0
   60.0990   32.5330   47.8390 N   0  0  0  0  0  0  0  0  0  0  0  0
   60.4510   32.6940   46.4010 C   0  0  0  0  0  0  0  0  0  0  0  0
   60.0690   34.0810   45.8710 C   0  0  0  0  0  0  0  0  0  0  0  0
   58.5480   34.2990   45.9450 C   0  0  0  0  0  0  0  0  0  0  0  0
   57.8870   33.4680   47.0560 C   0  0  0  0  0  0  0  0  0  0  0  0
   58.8500   33.2550   48.2330 C   0  0  0  0  0  0  0  0  0  0  0  0
   60.3740   29.2730   46.4410 C   0  0  0  0  0  0  0  0  0  0  0  0
   59.9250   28.5070   45.3650 C   0  0  0  0  0  0  0  0  0  0  0  0
   58.6460   28.7090   44.8330 C   0  0  0  0  0  0  0  0  0  0  0  0
   58.1340   27.6480   43.5240 Cl  0  0  0  0  0  0  0  0  0  0  0  0
   57.6061   31.2155   46.9277 H   0  0  0  0  0  0  0  0  0  0  0  0
   59.3351   30.9526   49.0157 H   0  0  0  0  0  0  0  0  0  0  0  0
   61.0440   30.7521   48.4316 H   0  0  0  0  0  0  0  0  0  0  0  0
   60.8870   32.9540   48.3850 H   0  0  0  0  0  0  0  0  0  0  0  0
   61.5356   32.5543   46.2825 H   0  0  0  0  0  0  0  0  0  0  0  0
   59.8894   31.9428   45.8263 H   0  0  0  0  0  0  0  0  0  0  0  0
   60.5725   34.8489   46.4767 H   0  0  0  0  0  0  0  0  0  0  0  0
   60.3829   34.1533   44.8192 H   0  0  0  0  0  0  0  0  0  0  0  0
   58.3534   35.3643   46.1383 H   0  0  0  0  0  0  0  0  0  0  0  0
   58.1174   33.9764   44.9856 H   0  0  0  0  0  0  0  0  0  0  0  0
   56.9914   33.9961   47.4153 H   0  0  0  0  0  0  0  0  0  0  0  0
   57.6161   32.4850   46.6434 H   0  0  0  0  0  0  0  0  0  0  0  0
   59.1268   34.2377   48.6424 H   0  0  0  0  0  0  0  0  0  0  0  0
   58.3300   32.6337   48.9770 H   0  0  0  0  0  0  0  0  0  0  0  0
   61.3824   29.1069   46.8480 H   0  0  0  0  0  0  0  0  0  0  0  0
   60.5812   27.7381   44.9311 H   0  0  0  0  0  0  0  0  0  0  0  0
  1  2  2  0
  2  3  1  0
  2  4  1  0
  4  5  2  0
  5  6  1  0
  6  7  1  0
  7  8  1  0
  8  9  1  0
  9 10  1  0
 10 11  1  0
 11 12  1  0
 12 13  1  0
  6 14  2  0
 14 15  1  0
 15 16  2  0
 16 17  1  0
 16  4  1  0
 13  8  1  0
  5 18  1  0
  7 19  1  0
  7 20  1  0
  8 21  1  0
  9 22  1  0
  9 23  1  0
 10 24  1  0
 10 25  1  0
 11 26  1  0
 11 27  1  0
 12 28  1  0
 12 29  1  0
 13 30  1  0
 13 31  1  0
 14 32  1  0
 15 33  1  0
M  CHG  3   2   1   3  -1   8   1
M  END
>  <UniqueID>  (20) 
18

>  <SMILES>  (20) 
O=[N+]([O-])c1cc(C[NH+]2CCCCC2)ccc1Cl

>  <Energy>  (20) 
45.16797269573866

>  <Genealogy>  (20) 
O=[N+]([O-])c1cc(C[NH+]2CCCCC2)ccc1Cl (protonated)
O=[N+]([O-])c1cc(C[NH+]2CCCCC2)ccc1Cl (3D coordinates assigned)
O=[N+]([O-])c1cc(C[NH+]2CCCCC2)ccc1Cl (nonaromatic ring conformer: 45.16797269573866 kcal/mol)

>  <smiles>  (20) 
O=[N+]([O-])c1cc(CN2CCCCC2)ccc1Cl

>  <score_type>  (20) 
oracle

>  <origin>  (20) 
adg

>  <m_score__min__energy>  (20) 
-5.7999999999999998

>  <m_primary>  (20) 
energy

$$$$
20:0
     RDKit          3D

 41 43  0  0  0  0  0  0  0  0999 V2000
   57.6240   21.6710   45.7150 C   0  0  0  0  0  0  0  0  0  0  0  0
   57.1570   23.0960   45.7600 C   0  0  0  0  0  0  0  0  0  0  0  0
   55.9630   23.4670   45.1270 C   0  0  0  0  0  0  0  0  0  0  0  0
   55.5120   24.7850   45.1940 C   0  0  0  0  0  0  0  0  0  0  0  0
   56.2470   25.7570   45.8950 C   0  0  0  0  0  0  0  0  0  0  0  0
   55.7910   27.1180   45.9670 N   0  0  0  0  0  0  0  0  0  0  0  0
   56.3440   28.2240   45.2460 C   0  0  0  0  0  0  0  0  0  0  0  0
   55.6130   29.2200   45.0100 O   0  0  0  0  0  0  0  0  0  0  0  0
   57.7580   28.2400   44.8130 C   0  0  0  0  0  0  0  0  0  0  0  0
   58.7520   29.1280   45.1920 C   0  0  0  0  0  0  0  0  0  0  0  0
   58.6290   30.2650   46.1220 C   0  0  0  0  0  0  0  0  0  0  0  0
   58.9930   30.1000   47.4680 C   0  0  0  0  0  0  0  0  0  0  0  0
   58.8980   31.1710   48.3600 C   0  0  0  0  0  0  0  0  0  0  0  0
   58.4450   32.4150   47.9160 C   0  0  0  0  0  0  0  0  0  0  0  0
   58.0870   32.5920   46.5760 C   0  0  0  0  0  0  0  0  0  0  0  0
   58.1790   31.5240   45.6750 C   0  0  0  0  0  0  0  0  0  0  0  0
   57.6900   31.7870   44.0040 Cl  0  0  0  0  0  0  0  0  0  0  0  0
   59.8670   28.8490   44.4920 N   0  0  0  0  0  0  0  0  0  0  0  0
   59.6190   27.8330   43.7190 O   0  0  0  0  0  0  0  0  0  0  0  0
   58.3800   27.4260   43.8740 C   0  0  0  0  0  0  0  0  0  0  0  0
   57.7860   26.2790   43.1220 C   0  0  0  0  0  0  0  0  0  0  0  0
   57.4220   25.3800   46.5740 C   0  0  0  0  0  0  0  0  0  0  0  0
   58.2180   26.3980   47.3430 C   0  0  0  0  0  0  0  0  0  0  0  0
   57.8730   24.0510   46.4960 C   0  0  0  0  0  0  0  0  0  0  0  0
   57.7478   21.2932   46.7406 H   0  0  0  0  0  0  0  0  0  0  0  0
   56.8798   21.0578   45.1857 H   0  0  0  0  0  0  0  0  0  0  0  0
   58.5868   21.6172   45.1857 H   0  0  0  0  0  0  0  0  0  0  0  0
   55.3792   22.7156   44.5751 H   0  0  0  0  0  0  0  0  0  0  0  0
   54.5734   25.0664   44.6942 H   0  0  0  0  0  0  0  0  0  0  0  0
   59.3546   29.1232   47.8217 H   0  0  0  0  0  0  0  0  0  0  0  0
   59.1806   31.0340   49.4142 H   0  0  0  0  0  0  0  0  0  0  0  0
   58.3697   33.2562   48.6208 H   0  0  0  0  0  0  0  0  0  0  0  0
   57.7319   33.5734   46.2285 H   0  0  0  0  0  0  0  0  0  0  0  0
   60.7800   29.3530   44.5400 H   0  0  0  0  0  0  0  0  0  0  0  0
   57.4003   25.5343   43.8338 H   0  0  0  0  0  0  0  0  0  0  0  0
   56.9627   26.6423   42.4894 H   0  0  0  0  0  0  0  0  0  0  0  0
   58.5578   25.8163   42.4894 H   0  0  0  0  0  0  0  0  0  0  0  0
   58.0854   26.2284   48.4217 H   0  0  0  0  0  0  0  0  0  0  0  0
   59.2830   26.3019   47.0849 H   0  0  0  0  0  0  0  0  0  0  0  0
   57.8679   27.4084   47.0849 H   0  0  0  0  0  0  0  0  0  0  0  0
   58.7962   23.7574   47.0171 H   0  0  0  0  0  0  0  0  0  0  0  0
  1  2  1  0
  2  3  2  0
  3  4  1  0
  4  5  2  0
  5  6  1  0
  6  7  1  0
  7  8  2  0
  7  9  1  0
  9 10  1  0
 10 11  1  0
 11 12  2  0
 12 13  1  0
 13 14  2  0
 14 15  1  0
 15 16  2  0
 16 17  1  0
 10 18  2  0
 18 19  1  0
 19 20  1  0
 20 21  1  0
  5 22  1  0
 22 23  1  0
 22 24  2  0
 24  2  1  0
 20  9  2  0
 16 11  1  0
  1 25  1  0
  1 26  1  0
  1 27  1  0
  3 28  1  0
  4 29  1  0
 12 30  1  0
 13 31  1  0
 14 32  1  0
 15 33  1  0
 18 34  1  0
 21 35  1  0
 21 36  1  0
 21 37  1  0
 23 38  1  0
 23 39  1  0
 23 40  1  0
 24 41  1  0
M  CHG  2   6  -1  18   1
M  END
>  <UniqueID>  (21) 
19

>  <SMILES>  (21) 
Cc1ccc([N-]C(=O)c2c(-c3ccccc3Cl)[nH+]oc2C)c(C)c1

>  <Energy>  (21) 
86.4909867820914

>  <Genealogy>  (21) 
Cc1ccc([N-]C(=O)c2c(-c3ccccc3Cl)[nH+]oc2C)c(C)c1 (protonated)
Cc1ccc([N-]C(=O)c2c(-c3ccccc3Cl)[nH+]oc2C)c(C)c1 (3D coordinates assigned)
Cc1ccc([N-]C(=O)c2c(-c3ccccc3Cl)[nH+]oc2C)c(C)c1 (optimized conformer: 86.4909867820914 kcal/mol)

>  <smiles>  (21) 
Cc1ccc(NC(=O)c2c(-c3ccccc3Cl)noc2C)c(C)c1

>  <score_type>  (21) 
oracle

>  <origin>  (21) 
adg

>  <m_score__min__energy>  (21) 
-8.2699999999999996

>  <m_primary>  (21) 
energy

$$$$
21:0
     RDKit          3D

 36 39  0  0  0  0  0  0  0  0999 V2000
   63.9520   32.6340   47.2360 O   0  0  0  0  0  0  0  0  0  0  0  0
   63.5310   33.0590   48.3450 C   0  0  0  0  0  0  0  0  0  0  0  0
   64.3350   33.2090   49.5520 C   0  0  0  0  0  0  0  0  0  0  0  0
   65.6920   32.9830   49.7740 C   0  0  0  0  0  0  0  0  0  0  0  0
   66.1980   33.2150   51.0670 C   0  0  0  0  0  0  0  0  0  0  0  0
   65.3440   33.6630   52.0980 C   0  0  0  0  0  0  0  0  0  0  0  0
   63.9770   33.8820   51.8490 C   0  0  0  0  0  0  0  0  0  0  0  0
   63.5010   33.6440   50.5600 C   0  0  0  0  0  0  0  0  0  0  0  0
   62.1610   33.7780   50.0010 C   0  0  0  0  0  0  0  0  0  0  0  0
   61.1500   34.1980   50.6230 O   0  0  0  0  0  0  0  0  0  0  0  0
   62.1700   33.4140   48.6150 N   0  0  0  0  0  0  0  0  0  0  0  0
   61.0590   33.4060   47.7010 C   0  0  0  0  0  0  0  0  0  0  0  0
   61.2150   33.8740   46.3860 C   0  0  0  0  0  0  0  0  0  0  0  0
   60.1340   33.8680   45.4990 C   0  0  0  0  0  0  0  0  0  0  0  0
   58.8850   33.3880   45.9120 C   0  0  0  0  0  0  0  0  0  0  0  0
   57.5260   33.3900   44.7950 S   0  0  0  0  0  0  0  0  0  0  0  0
   56.6700   34.6010   45.0440 O   0  0  0  0  0  0  0  0  0  0  0  0
   58.0480   33.4160   43.3860 O   0  0  0  0  0  0  0  0  0  0  0  0
   56.5720   31.9640   45.0460 N   0  0  0  0  0  0  0  0  0  0  0  0
   57.0270   30.7660   44.8580 C   0  0  0  0  0  0  0  0  0  0  0  0
   56.2680   29.6500   44.9310 N   0  0  0  0  0  0  0  0  0  0  0  0
   57.0060   28.5340   44.6890 C   0  0  0  0  0  0  0  0  0  0  0  0
   58.3530   28.7640   44.4220 C   0  0  0  0  0  0  0  0  0  0  0  0
   58.6290   30.4230   44.4930 S   0  0  0  0  0  0  0  0  0  0  0  0
   58.7220   32.9270   47.2250 C   0  0  0  0  0  0  0  0  0  0  0  0
   59.8010   32.9340   48.1130 C   0  0  0  0  0  0  0  0  0  0  0  0
   66.3482   32.6338   48.9632 H   0  0  0  0  0  0  0  0  0  0  0  0
   67.2649   33.0463   51.2752 H   0  0  0  0  0  0  0  0  0  0  0  0
   65.7508   33.8423   53.1042 H   0  0  0  0  0  0  0  0  0  0  0  0
   63.3042   34.2303   52.6465 H   0  0  0  0  0  0  0  0  0  0  0  0
   62.1940   34.2477   46.0516 H   0  0  0  0  0  0  0  0  0  0  0  0
   60.2653   34.2418   44.4728 H   0  0  0  0  0  0  0  0  0  0  0  0
   56.5709   27.5238   44.7031 H   0  0  0  0  0  0  0  0  0  0  0  0
   59.1072   27.9939   44.2024 H   0  0  0  0  0  0  0  0  0  0  0  0
   57.7407   32.5581   47.5582 H   0  0  0  0  0  0  0  0  0  0  0  0
   59.6648   32.5677   49.1412 H   0  0  0  0  0  0  0  0  0  0  0  0
  1  2  2  0
  2  3  1  0
  3  4  2  0
  4  5  1  0
  5  6  2  0
  6  7  1  0
  7  8  2  0
  8  9  1  0
  9 10  2  0
  9 11  1  0
 11 12  1  0
 12 13  2  0
 13 14  1  0
 14 15  2  0
 15 16  1  0
 16 17  2  0
 16 18  2  0
 16 19  1  0
 19 20  2  3
 20 21  1  0
 21 22  1  0
 22 23  2  0
 23 24  1  0
 15 25  1  0
 25 26  2  0
 11  2  1  0
 26 12  1  0
  8  3  1  0
 24 20  1  0
  4 27  1  0
  5 28  1  0
  6 29  1  0
  7 30  1  0
 13 31  1  0
 14 32  1  0
 22 33  1  0
 23 34  1  0
 25 35  1  0
 26 36  1  0
M  CHG  1  21  -1
M  END
>  <UniqueID>  (22) 
20

>  <SMILES>  (22) 
O=C1c2ccccc2C(=O)N1c1ccc(S(=O)(=O)N=c2[n-]ccs2)cc1

>  <Energy>  (22) 
111.27418964130993

>  <Genealogy>  (22) 
O=C1c2ccccc2C(=O)N1c1ccc(S(=O)(=O)N=c2[n-]ccs2)cc1 (protonated)
O=C1c2ccccc2C(=O)N1c1ccc(S(=O)(=O)N=c2[n-]ccs2)cc1 (3D coordinates assigned)
O=C1c2ccccc2C(=O)N1c1ccc(S(=O)(=O)N=c2[n-]ccs2)cc1 (nonaromatic ring conformer: 111.27418964130993 kcal/mol)

>  <smiles>  (22) 
O=C1c2ccccc2C(=O)N1c1ccc(S(=O)(=O)N=c2[nH]ccs2)cc1

>  <score_type>  (22) 
oracle

>  <origin>  (22) 
adg

>  <m_score__min__energy>  (22) 
-9.9800000000000004

>  <m_primary>  (22) 
energy

$$$$
22:0
     RDKit          3D

 34 34  0  0  0  0  0  0  0  0999 V2000
   57.2670   24.2170   45.0560 C   0  0  0  0  0  0  0  0  0  0  0  0
   56.9650   23.9940   46.5350 C   0  0  0  0  0  0  0  0  0  0  0  0
   56.3980   25.1660   47.1160 O   0  0  0  0  0  0  0  0  0  0  0  0
   56.2590   26.3800   46.4320 C   0  0  0  0  0  0  0  0  0  0  0  0
   55.1500   26.7170   45.9370 O   0  0  0  0  0  0  0  0  0  0  0  0
   57.3830   27.2510   46.2870 N   0  0  0  0  0  0  0  0  0  0  0  0
   57.5980   28.0860   45.1120 C   0  0  0  0  0  0  0  0  0  0  0  0
   56.6670   29.2540   45.1360 C   0  0  0  0  0  0  0  0  0  0  0  0
   55.4460   29.0890   44.8610 O   0  0  0  0  0  0  0  0  0  0  0  0
   57.1500   30.5100   45.5040 O   0  0  0  0  0  0  0  0  0  0  0  0
   57.3410   31.5650   44.5680 C   0  0  0  0  0  0  0  0  0  0  0  0
   58.0860   32.6870   45.2310 C   0  0  0  0  0  0  0  0  0  0  0  0
   58.4160   33.8430   44.5080 C   0  0  0  0  0  0  0  0  0  0  0  0
   59.0670   34.9060   45.1410 C   0  0  0  0  0  0  0  0  0  0  0  0
   59.3880   34.8250   46.4990 C   0  0  0  0  0  0  0  0  0  0  0  0
   59.0600   33.6760   47.2360 C   0  0  0  0  0  0  0  0  0  0  0  0
   59.3640   33.5940   48.7020 C   0  0  0  0  0  0  0  0  0  0  0  0
   58.3930   32.6180   46.6000 C   0  0  0  0  0  0  0  0  0  0  0  0
   58.1482   24.8677   44.9558 H   0  0  0  0  0  0  0  0  0  0  0  0
   57.4688   23.2495   44.5730 H   0  0  0  0  0  0  0  0  0  0  0  0
   56.4017   24.6945   44.5730 H   0  0  0  0  0  0  0  0  0  0  0  0
   56.2544   23.1605   46.6367 H   0  0  0  0  0  0  0  0  0  0  0  0
   57.9049   23.7601   47.0564 H   0  0  0  0  0  0  0  0  0  0  0  0
   58.6366   28.4484   45.1081 H   0  0  0  0  0  0  0  0  0  0  0  0
   57.4063   27.4909   44.2070 H   0  0  0  0  0  0  0  0  0  0  0  0
   57.9215   31.1947   43.7102 H   0  0  0  0  0  0  0  0  0  0  0  0
   56.3637   31.9280   44.2171 H   0  0  0  0  0  0  0  0  0  0  0  0
   58.1618   33.9132   43.4401 H   0  0  0  0  0  0  0  0  0  0  0  0
   59.3273   35.8086   44.5688 H   0  0  0  0  0  0  0  0  0  0  0  0
   59.8996   35.6647   46.9921 H   0  0  0  0  0  0  0  0  0  0  0  0
   58.4594   33.8380   49.2783 H   0  0  0  0  0  0  0  0  0  0  0  0
   59.6939   32.5748   48.9516 H   0  0  0  0  0  0  0  0  0  0  0  0
   60.1617   34.3091   48.9516 H   0  0  0  0  0  0  0  0  0  0  0  0
   58.1080   31.7268   47.1784 H   0  0  0  0  0  0  0  0  0  0  0  0
  1  2  1  0
  2  3  1  0
  3  4  1  0
  4  5  2  0
  4  6  1  0
  6  7  1  0
  7  8  1  0
  8  9  2  0
  8 10  1  0
 10 11  1  0
 11 12  1  0
 12 13  2  0
 13 14  1  0
 14 15  2  0
 15 16  1  0
 16 17  1  0
 16 18  2  0
 18 12  1  0
  1 19  1  0
  1 20  1  0
  1 21  1  0
  2 22  1  0
  2 23  1  0
  7 24  1  0
  7 25  1  0
 11 26  1  0
 11 27  1  0
 13 28  1  0
 14 29  1  0
 15 30  1  0
 17 31  1  0
 17 32  1  0
 17 33  1  0
 18 34  1  0
M  CHG  1   6  -1
M  END
>  <UniqueID>  (23) 
21

>  <SMILES>  (23) 
CCOC(=O)[N-]CC(=O)OCc1cccc(C)c1

>  <Energy>  (23) 
20.939169775237005

>  <Genealogy>  (23) 
CCOC(=O)[N-]CC(=O)OCc1cccc(C)c1 (protonated)
CCOC(=O)[N-]CC(=O)OCc1cccc(C)c1 (3D coordinates assigned)
CCOC(=O)[N-]CC(=O)OCc1cccc(C)c1 (optimized conformer: 20.939169775237005 kcal/mol)

>  <smiles>  (23) 
CCOC(=O)NCC(=O)OCc1cccc(C)c1

>  <score_type>  (23) 
oracle

>  <origin>  (23) 
adg

>  <m_score__min__energy>  (23) 
-8.6099999999999994

>  <m_primary>  (23) 
energy

$$$$
23:0
     RDKit          3D

 37 39  0  0  0  0  0  0  0  0999 V2000
   58.8900   29.3490   48.1060 C   0  0  0  0  0  0  0  0  0  0  0  0
   58.6710   28.6670   46.8100 C   0  0  0  0  0  0  0  0  0  0  0  0
   58.0030   27.4600   46.8450 C   0  0  0  0  0  0  0  0  0  0  0  0
   57.7330   26.7310   45.7140 C   0  0  0  0  0  0  0  0  0  0  0  0
   58.1590   27.2530   44.5190 C   0  0  0  0  0  0  0  0  0  0  0  0
   58.8340   28.4730   44.4830 C   0  0  0  0  0  0  0  0  0  0  0  0
   59.1170   29.2250   45.5910 C   0  0  0  0  0  0  0  0  0  0  0  0
   59.7160   30.4780   45.6450 N   0  0  0  0  0  0  0  0  0  0  0  0
   59.1780   31.7720   45.7980 C   0  0  0  0  0  0  0  0  0  0  0  0
   59.7160   32.7700   46.5740 C   0  0  0  0  0  0  0  0  0  0  0  0
   59.0820   33.9740   46.8570 C   0  0  0  0  0  0  0  0  0  0  0  0
   57.8430   34.2140   46.3440 C   0  0  0  0  0  0  0  0  0  0  0  0
   57.2710   33.2530   45.5630 C   0  0  0  0  0  0  0  0  0  0  0  0
   57.9180   32.0250   45.2710 C   0  0  0  0  0  0  0  0  0  0  0  0
   57.2260   31.2330   44.2770 C   0  0  0  0  0  0  0  0  0  0  0  0
   56.2550   30.3350   44.6390 N   0  0  0  0  0  0  0  0  0  0  0  0
   55.6750   29.7950   43.5690 C   0  0  0  0  0  0  0  0  0  0  0  0
   56.2630   30.3360   42.5080 N   0  0  0  0  0  0  0  0  0  0  0  0
   57.2180   31.2240   42.9140 C   0  0  0  0  0  0  0  0  0  0  0  0
   57.9590   32.0220   41.9020 C   0  0  0  0  0  0  0  0  0  0  0  0
   58.6667   28.6537   48.9286 H   0  0  0  0  0  0  0  0  0  0  0  0
   59.9381   29.6754   48.1761 H   0  0  0  0  0  0  0  0  0  0  0  0
   58.2278   30.2246   48.1761 H   0  0  0  0  0  0  0  0  0  0  0  0
   57.6738   27.0665   47.8181 H   0  0  0  0  0  0  0  0  0  0  0  0
   57.1987   25.7707   45.7635 H   0  0  0  0  0  0  0  0  0  0  0  0
   57.9671   26.7063   43.5840 H   0  0  0  0  0  0  0  0  0  0  0  0
   59.1589   28.8543   43.5037 H   0  0  0  0  0  0  0  0  0  0  0  0
   60.7790   30.4690   45.4980 H   0  0  0  0  0  0  0  0  0  0  0  0
   60.7165   32.6049   47.0003 H   0  0  0  0  0  0  0  0  0  0  0  0
   59.5761   34.7262   47.4894 H   0  0  0  0  0  0  0  0  0  0  0  0
   57.3179   35.1575   46.5540 H   0  0  0  0  0  0  0  0  0  0  0  0
   56.2707   33.4372   45.1440 H   0  0  0  0  0  0  0  0  0  0  0  0
   55.9720   30.0770   45.6240 H   0  0  0  0  0  0  0  0  0  0  0  0
   54.8677   29.0478   43.5646 H   0  0  0  0  0  0  0  0  0  0  0  0
   58.6222   32.7362   42.4121 H   0  0  0  0  0  0  0  0  0  0  0  0
   58.5597   31.3490   41.2725 H   0  0  0  0  0  0  0  0  0  0  0  0
   57.2434   32.5713   41.2725 H   0  0  0  0  0  0  0  0  0  0  0  0
  1  2  1  0
  2  3  2  0
  3  4  1  0
  4  5  2  0
  5  6  1  0
  6  7  2  0
  7  8  1  0
  8  9  1  0
  9 10  2  0
 10 11  1  0
 11 12  2  0
 12 13  1  0
 13 14  2  0
 14 15  1  0
 15 16  1  0
 16 17  1  0
 17 18  2  0
 18 19  1  0
 19 20  1  0
  7  2  1  0
 14  9  1  0
 19 15  2  0
  1 21  1  0
  1 22  1  0
  1 23  1  0
  3 24  1  0
  4 25  1  0
  5 26  1  0
  6 27  1  0
  8 28  1  0
 10 29  1  0
 11 30  1  0
 12 31  1  0
 13 32  1  0
 16 33  1  0
 17 34  1  0
 20 35  1  0
 20 36  1  0
 20 37  1  0
M  END
>  <smiles>  (24) 
Cc1ccccc1Nc1ccccc1-c1[nH]cnc1C

>  <score_type>  (24) 
oracle

>  <origin>  (24) 
adg

>  <m_score__min__energy>  (24) 
-7.3099999999999996

>  <m_primary>  (24) 
energy

$$$$
24:0
     RDKit          3D

 18 19  0  0  0  0  0  0  0  0999 V2000
   55.5280   26.6650   46.1610 O   0  0  0  0  0  0  0  0  0  0  0  0
   56.2750   27.5200   45.6160 C   0  0  0  0  0  0  0  0  0  0  0  0
   55.6550   28.5930   44.9120 N   0  0  0  0  0  0  0  0  0  0  0  0
   56.5790   29.8120   44.1340 S   0  0  0  0  0  0  0  0  0  0  0  0
   56.2540   31.1510   44.7320 O   0  0  0  0  0  0  0  0  0  0  0  0
   56.2800   29.8090   42.6620 O   0  0  0  0  0  0  0  0  0  0  0  0
   58.2410   29.4520   44.3870 N   0  0  0  0  0  0  0  0  0  0  0  0
   58.6710   28.3060   45.1350 C   0  0  0  0  0  0  0  0  0  0  0  0
   60.0530   28.0990   45.2860 C   0  0  0  0  0  0  0  0  0  0  0  0
   60.5400   27.0060   46.0000 C   0  0  0  0  0  0  0  0  0  0  0  0
   59.6550   26.1010   46.5760 C   0  0  0  0  0  0  0  0  0  0  0  0
   58.2790   26.2850   46.4410 C   0  0  0  0  0  0  0  0  0  0  0  0
   57.7580   27.3830   45.7220 C   0  0  0  0  0  0  0  0  0  0  0  0
   58.9460   30.1030   43.9730 H   0  0  0  0  0  0  0  0  0  0  0  0
   60.7602   28.8100   44.8341 H   0  0  0  0  0  0  0  0  0  0  0  0
   61.6248   26.8589   46.1081 H   0  0  0  0  0  0  0  0  0  0  0  0
   60.0409   25.2384   47.1391 H   0  0  0  0  0  0  0  0  0  0  0  0
   57.5887   25.5633   46.9020 H   0  0  0  0  0  0  0  0  0  0  0  0
  1  2  2  0
  2  3  1  0
  3  4  1  0
  4  5  2  0
  4  6  2  0
  4  7  1  0
  7  8  1  0
  8  9  2  0
  9 10  1  0
 10 11  2  0
 11 12  1  0
 12 13  2  0
 13  2  1  0
 13  8  1  0
  7 14  1  0
  9 15  1  0
 10 16  1  0
 11 17  1  0
 12 18  1  0
M  CHG  1   3  -1
M  END
>  <UniqueID>  (25) 
22

>  <SMILES>  (25) 
O=C1[N-]S(=O)(=O)Nc2ccccc21

>  <Energy>  (25) 
25.02123304538187

>  <Genealogy>  (25) 
O=C1[N-]S(=O)(=O)Nc2ccccc21 (protonated)
O=C1[N-]S(=O)(=O)Nc2ccccc21 (3D coordinates assigned)
O=C1[N-]S(=O)(=O)Nc2ccccc21 (nonaromatic ring conformer: 25.02123304538187 kcal/mol)

>  <smiles>  (25) 
O=C1NS(=O)(=O)Nc2ccccc21

>  <score_type>  (25) 
oracle

>  <origin>  (25) 
adg

>  <m_score__min__energy>  (25) 
-8.1099999999999994

>  <m_primary>  (25) 
energy

$$$$
25:0
     RDKit          3D

 38 40  0  0  0  0  0  0  0  0999 V2000
   58.4610   32.4240   47.5490 O   0  0  0  0  0  0  0  0  0  0  0  0
   59.3490   33.1150   46.9770 C   0  0  0  0  0  0  0  0  0  0  0  0
   59.0600   33.7380   45.7140 N   0  0  0  0  0  0  0  0  0  0  0  0
   57.7420   33.6640   45.0900 C   0  0  0  0  0  0  0  0  0  0  0  0
   57.4030   32.2420   44.7800 C   0  0  0  0  0  0  0  0  0  0  0  0
   58.2760   31.2710   44.3390 C   0  0  0  0  0  0  0  0  0  0  0  0
   57.4640   30.1690   44.1710 C   0  0  0  0  0  0  0  0  0  0  0  0
   57.9070   28.8020   43.7490 C   0  0  0  0  0  0  0  0  0  0  0  0
   58.1040   27.9180   44.9570 C   0  0  0  0  0  0  0  0  0  0  0  0
   57.0370   27.1110   45.3920 C   0  0  0  0  0  0  0  0  0  0  0  0
   57.1740   26.3000   46.5220 C   0  0  0  0  0  0  0  0  0  0  0  0
   58.3730   26.2920   47.2370 C   0  0  0  0  0  0  0  0  0  0  0  0
   58.5030   25.5060   48.3350 F   0  0  0  0  0  0  0  0  0  0  0  0
   59.4370   27.0990   46.8260 C   0  0  0  0  0  0  0  0  0  0  0  0
   59.3130   27.9150   45.6930 C   0  0  0  0  0  0  0  0  0  0  0  0
   60.6890   28.9170   45.2400 Cl  0  0  0  0  0  0  0  0  0  0  0  0
   56.1960   30.4780   44.5060 N   0  0  0  0  0  0  0  0  0  0  0  0
   56.1960   31.7320   44.8590 O   0  0  0  0  0  0  0  0  0  0  0  0
   60.6850   33.2380   47.6040 C   0  0  0  0  0  0  0  0  0  0  0  0
   61.7490   32.4490   47.1260 C   0  0  0  0  0  0  0  0  0  0  0  0
   63.0180   32.5450   47.7020 C   0  0  0  0  0  0  0  0  0  0  0  0
   63.2410   33.4230   48.7630 C   0  0  0  0  0  0  0  0  0  0  0  0
   62.1920   34.2030   49.2570 C   0  0  0  0  0  0  0  0  0  0  0  0
   60.9170   34.1100   48.6900 C   0  0  0  0  0  0  0  0  0  0  0  0
   59.9060   34.8300   49.2400 F   0  0  0  0  0  0  0  0  0  0  0  0
   59.8420   34.1320   45.1460 H   0  0  0  0  0  0  0  0  0  0  0  0
   56.9894   34.0763   45.7782 H   0  0  0  0  0  0  0  0  0  0  0  0
   57.7513   34.2451   44.1561 H   0  0  0  0  0  0  0  0  0  0  0  0
   59.3587   31.3547   44.1635 H   0  0  0  0  0  0  0  0  0  0  0  0
   57.1414   28.3582   43.0957 H   0  0  0  0  0  0  0  0  0  0  0  0
   58.8613   28.8865   43.2084 H   0  0  0  0  0  0  0  0  0  0  0  0
   56.0867   27.1183   44.8380 H   0  0  0  0  0  0  0  0  0  0  0  0
   56.3357   25.6670   46.8485 H   0  0  0  0  0  0  0  0  0  0  0  0
   60.3782   27.0940   47.3953 H   0  0  0  0  0  0  0  0  0  0  0  0
   61.5795   31.7516   46.2924 H   0  0  0  0  0  0  0  0  0  0  0  0
   63.8431   31.9271   47.3182 H   0  0  0  0  0  0  0  0  0  0  0  0
   64.2427   33.5013   49.2108 H   0  0  0  0  0  0  0  0  0  0  0  0
   62.3698   34.8928   50.0951 H   0  0  0  0  0  0  0  0  0  0  0  0
  1  2  2  0
  2  3  1  0
  3  4  1  0
  4  5  1  0
  5  6  2  0
  6  7  1  0
  7  8  1  0
  8  9  1  0
  9 10  2  0
 10 11  1  0
 11 12  2  0
 12 13  1  0
 12 14  1  0
 14 15  2  0
 15 16  1  0
  7 17  2  0
 17 18  1  0
  2 19  1  0
 19 20  2  0
 20 21  1  0
 21 22  2  0
 22 23  1  0
 23 24  2  0
 24 25  1  0
 18  5  1  0
 24 19  1  0
 15  9  1  0
  3 26  1  0
  4 27  1  0
  4 28  1  0
  6 29  1  0
  8 30  1  0
  8 31  1  0
 10 32  1  0
 11 33  1  0
 14 34  1  0
 20 35  1  0
 21 36  1  0
 22 37  1  0
 23 38  1  0
M  END
>  <UniqueID>  (26) 
23

>  <SMILES>  (26) 
O=C(NCc1cc(Cc2ccc(F)cc2Cl)no1)c1ccccc1F

>  <Energy>  (26) 
71.52887155756927

>  <Genealogy>  (26) 
O=C(NCc1cc(Cc2ccc(F)cc2Cl)no1)c1ccccc1F (3D coordinates assigned)
O=C(NCc1cc(Cc2ccc(F)cc2Cl)no1)c1ccccc1F (optimized conformer: 71.52887155756927 kcal/mol)

>  <smiles>  (26) 
O=C(NCc1cc(Cc2ccc(F)cc2Cl)no1)c1ccccc1F

>  <score_type>  (26) 
oracle

>  <origin>  (26) 
adg

>  <m_score__min__energy>  (26) 
-9.1300000000000008

>  <m_primary>  (26) 
energy

$$$$
26:0
     RDKit          3D

 22 22  0  0  0  0  0  0  0  0999 V2000
   56.6460   26.6710   45.6840 C   0  0  0  0  0  0  0  0  0  0  0  0
   57.4640   27.8480   45.2190 C   0  0  0  0  0  0  0  0  0  0  0  0
   58.8580   27.7100   45.1260 C   0  0  0  0  0  0  0  0  0  0  0  0
   59.6550   28.7750   44.7000 C   0  0  0  0  0  0  0  0  0  0  0  0
   61.0750   28.6200   44.6100 N   0  0  0  0  0  0  0  0  0  0  0  0
   59.0600   29.9930   44.3610 C   0  0  0  0  0  0  0  0  0  0  0  0
   57.6690   30.1600   44.4440 C   0  0  0  0  0  0  0  0  0  0  0  0
   57.0740   31.4920   44.0680 C   0  0  0  0  0  0  0  0  0  0  0  0
   56.8550   29.0830   44.8760 C   0  0  0  0  0  0  0  0  0  0  0  0
   55.4260   29.2390   44.9660 N   0  0  0  0  0  0  0  0  0  0  0  0
   56.6296   26.6474   46.7836 H   0  0  0  0  0  0  0  0  0  0  0  0
   55.6181   26.7658   45.3039 H   0  0  0  0  0  0  0  0  0  0  0  0
   57.0932   25.7406   45.3039 H   0  0  0  0  0  0  0  0  0  0  0  0
   59.3282   26.7517   45.3918 H   0  0  0  0  0  0  0  0  0  0  0  0
   61.5160   28.2300   43.7470 H   0  0  0  0  0  0  0  0  0  0  0  0
   61.6940   28.8920   45.4040 H   0  0  0  0  0  0  0  0  0  0  0  0
   59.6891   30.8306   44.0252 H   0  0  0  0  0  0  0  0  0  0  0  0
   56.8236   32.0525   44.9808 H   0  0  0  0  0  0  0  0  0  0  0  0
   57.8020   32.0643   43.4744 H   0  0  0  0  0  0  0  0  0  0  0  0
   56.1619   31.3317   43.4744 H   0  0  0  0  0  0  0  0  0  0  0  0
   54.7660   28.5820   44.4960 H   0  0  0  0  0  0  0  0  0  0  0  0
   54.9870   30.0160   45.5050 H   0  0  0  0  0  0  0  0  0  0  0  0
  1  2  1  0
  2  3  2  0
  3  4  1  0
  4  5  1  0
  4  6  2  0
  6  7  1  0
  7  8  1  0
  7  9  2  0
  9 10  1  0
  9  2  1  0
  1 11  1  0
  1 12  1  0
  1 13  1  0
  3 14  1  0
  5 15  1  0
  5 16  1  0
  6 17  1  0
  8 18  1  0
  8 19  1  0
  8 20  1  0
 10 21  1  0
 10 22  1  0
M  END
>  <UniqueID>  (27) 
24

>  <SMILES>  (27) 
Cc1cc(N)cc(C)c1N

>  <Energy>  (27) 
20.833284177318745

>  <Genealogy>  (27) 
Cc1cc(N)cc(C)c1N (3D coordinates assigned)
Cc1cc(N)cc(C)c1N (optimized conformer: 20.833284177318745 kcal/mol)

>  <smiles>  (27) 
Cc1cc(N)cc(C)c1N

>  <score_type>  (27) 
oracle

>  <origin>  (27) 
adg

>  <m_score__min__energy>  (27) 
-4.8200000000000003

>  <m_primary>  (27) 
energy

$$$$
27:0
     RDKit          3D

 38 40  0  0  0  0  0  0  0  0999 V2000
   59.6686   21.2179   43.9156 H   0  0  0  0  0  0  0  0  0  0  0  0
   58.8330   21.8690   44.2120 C   0  0  0  0  0  0  0  0  0  0  0  0
   59.0670   22.9700   44.9710 N   0  0  0  0  0  0  0  0  0  0  0  0
   58.0660   23.8090   45.3650 C   0  0  0  0  0  0  0  0  0  0  0  0
   58.3230   24.8610   46.0930 N   0  0  0  0  0  0  0  0  0  0  0  0
   58.3100   26.2670   45.6670 C   0  0  0  0  0  0  0  0  0  0  0  0
   59.2895   26.7000   45.9182 H   0  0  0  0  0  0  0  0  0  0  0  0
   57.2640   27.1020   46.4520 C   0  0  0  0  0  0  0  0  0  0  0  0
   56.5043   26.4177   46.8577 H   0  0  0  0  0  0  0  0  0  0  0  0
   57.8047   27.6386   47.2455 H   0  0  0  0  0  0  0  0  0  0  0  0
   56.5570   28.1590   45.5880 C   0  0  0  0  0  0  0  0  0  0  0  0
   55.7144   27.6868   45.0617 H   0  0  0  0  0  0  0  0  0  0  0  0
   56.2010   28.9651   46.2464 H   0  0  0  0  0  0  0  0  0  0  0  0
   57.4760   28.7390   44.5980 N   0  0  0  0  0  0  0  0  0  0  0  0
   57.4360   30.1500   44.3160 C   0  0  0  0  0  0  0  0  0  0  0  0
   57.4250   30.5500   43.1220 O   0  0  0  0  0  0  0  0  0  0  0  0
   57.3770   31.1180   45.3700 N   0  0  0  0  0  0  0  0  0  0  0  0
   58.0610   32.3750   45.3570 C   0  0  0  0  0  0  0  0  0  0  0  0
   59.3520   32.7550   46.3580 S   0  0  0  0  0  0  0  0  0  0  0  0
   59.5210   34.3410   45.8200 C   0  0  0  0  0  0  0  0  0  0  0  0
   60.2749   35.0612   46.1707 H   0  0  0  0  0  0  0  0  0  0  0  0
   58.5490   34.5880   44.8590 C   0  0  0  0  0  0  0  0  0  0  0  0
   58.4414   35.5557   44.3471 H   0  0  0  0  0  0  0  0  0  0  0  0
   57.7190   33.4900   44.6030 C   0  0  0  0  0  0  0  0  0  0  0  0
   56.8871   33.5084   43.8835 H   0  0  0  0  0  0  0  0  0  0  0  0
   58.2640   27.8630   43.7180 C   0  0  0  0  0  0  0  0  0  0  0  0
   57.8934   27.9664   42.6875 H   0  0  0  0  0  0  0  0  0  0  0  0
   59.3193   28.1649   43.7896 H   0  0  0  0  0  0  0  0  0  0  0  0
   58.1580   26.3920   44.1390 C   0  0  0  0  0  0  0  0  0  0  0  0
   57.1767   25.9969   43.8374 H   0  0  0  0  0  0  0  0  0  0  0  0
   58.9587   25.8185   43.6492 H   0  0  0  0  0  0  0  0  0  0  0  0
   56.7410   23.5310   44.9750 C   0  0  0  0  0  0  0  0  0  0  0  0
   55.6460   24.3860   45.3640 C   0  0  0  0  0  0  0  0  0  0  0  0
   54.7680   25.0720   45.6750 N   0  0  0  0  0  0  0  0  0  0  0  0
   56.4850   22.3990   44.1920 C   0  0  0  0  0  0  0  0  0  0  0  0
   55.4559   22.1685   43.8793 H   0  0  0  0  0  0  0  0  0  0  0  0
   57.5340   21.5630   43.8080 C   0  0  0  0  0  0  0  0  0  0  0  0
   57.3384   20.6721   43.1932 H   0  0  0  0  0  0  0  0  0  0  0  0
  1  2  1  0
  2  3  1  0
  3  4  1  0
  4  5  2  0
  5  6  1  0
  6  7  1  0
  6  8  1  0
  8  9  1  0
  8 10  1  0
  8 11  1  0
 11 12  1  0
 11 13  1  0
 11 14  1  0
 14 15  1  0
 15 16  2  0
 15 17  1  0
 17 18  1  0
 18 19  1  0
 19 20  1  0
 20 21  1  0
 20 22  2  0
 22 23  1  0
 22 24  1  0
 24 25  1  0
 14 26  1  0
 26 27  1  0
 26 28  1  0
 26 29  1  0
 29 30  1  0
 29 31  1  0
  4 32  1  0
 32 33  1  0
 33 34  3  0
 32 35  2  0
 35 36  1  0
 35 37  1  0
 37 38  1  0
 37  2  2  0
 29  6  1  0
 24 18  2  0
M  CHG  2   3  -1  17  -1
M  END
>  <UniqueID>  (28) 
25

>  <SMILES>  (28) 
N#Cc1ccc[n-]/c1=N\C1CCN(C(=O)[N-]c2cccs2)CC1

>  <Energy>  (28) 
74.69604309800113

>  <Genealogy>  (28) 
N#Cc1ccc[n-]c1=NC1CCN(C(=O)[N-]c2cccs2)CC1 (protonated)
N#Cc1ccc[n-]/c1=N\C1CCN(C(=O)[N-]c2cccs2)CC1 (cis-trans isomerization)
N#Cc1ccc[n-]/c1=N\C1CCN(C(=O)[N-]c2cccs2)CC1 (3D coordinates assigned)
N#Cc1ccc[n-]/c1=N\C1CCN(C(=O)[N-]c2cccs2)CC1 (nonaromatic ring conformer: 74.69604309800113 kcal/mol)

>  <smiles>  (28) 
N#Cc1ccc[nH]c1=NC1CCN(C(=O)Nc2cccs2)CC1

>  <score_type>  (28) 
oracle

>  <origin>  (28) 
adg

>  <m_score__min__energy>  (28) 
-10.08

>  <m_primary>  (28) 
energy

$$$$
28:0
     RDKit          3D

 35 37  0  0  0  0  0  0  0  0999 V2000
   60.7810   33.4650   51.8240 C   0  0  0  0  0  0  0  0  0  0  0  0
   61.6350   33.3700   50.6270 N   0  0  0  0  0  0  0  0  0  0  0  0
   61.1360   33.7450   49.4000 C   0  0  0  0  0  0  0  0  0  0  0  0
   59.9470   34.1440   49.2740 O   0  0  0  0  0  0  0  0  0  0  0  0
   61.9790   33.6750   48.2970 C   0  0  0  0  0  0  0  0  0  0  0  0
   63.2600   33.2580   48.4440 C   0  0  0  0  0  0  0  0  0  0  0  0
   63.8960   33.3030   47.2590 N   0  0  0  0  0  0  0  0  0  0  0  0
   62.9570   33.7580   46.3960 C   0  0  0  0  0  0  0  0  0  0  0  0
   61.7650   33.9940   47.0030 N   0  0  0  0  0  0  0  0  0  0  0  0
   60.5650   34.5440   46.3700 C   0  0  0  0  0  0  0  0  0  0  0  0
   59.6050   33.4430   45.9890 C   0  0  0  0  0  0  0  0  0  0  0  0
   59.8350   32.1290   46.4340 C   0  0  0  0  0  0  0  0  0  0  0  0
   58.9480   31.1020   46.0990 C   0  0  0  0  0  0  0  0  0  0  0  0
   57.8170   31.3780   45.3270 C   0  0  0  0  0  0  0  0  0  0  0  0
   57.5670   32.6830   44.8950 C   0  0  0  0  0  0  0  0  0  0  0  0
   58.4500   33.7150   45.2280 C   0  0  0  0  0  0  0  0  0  0  0  0
   58.1730   34.9770   44.8100 F   0  0  0  0  0  0  0  0  0  0  0  0
   63.7800   32.8970   49.6500 N   0  0  0  0  0  0  0  0  0  0  0  0
   65.1880   32.4880   49.7510 C   0  0  0  0  0  0  0  0  0  0  0  0
   62.9580   32.9790   50.7540 C   0  0  0  0  0  0  0  0  0  0  0  0
   63.4190   32.6990   51.8970 O   0  0  0  0  0  0  0  0  0  0  0  0
   61.4058   33.3955   52.7266 H   0  0  0  0  0  0  0  0  0  0  0  0
   60.2491   34.4279   51.8195 H   0  0  0  0  0  0  0  0  0  0  0  0
   60.0505   32.6426   51.8195 H   0  0  0  0  0  0  0  0  0  0  0  0
   64.8890   33.0670   47.0420 H   0  0  0  0  0  0  0  0  0  0  0  0
   63.1392   33.9186   45.3231 H   0  0  0  0  0  0  0  0  0  0  0  0
   60.0679   35.2280   47.0736 H   0  0  0  0  0  0  0  0  0  0  0  0
   60.8634   35.0817   45.4580 H   0  0  0  0  0  0  0  0  0  0  0  0
   60.7191   31.9078   47.0500 H   0  0  0  0  0  0  0  0  0  0  0  0
   59.1408   30.0753   46.4437 H   0  0  0  0  0  0  0  0  0  0  0  0
   57.1230   30.5677   45.0591 H   0  0  0  0  0  0  0  0  0  0  0  0
   56.6732   32.8992   44.2913 H   0  0  0  0  0  0  0  0  0  0  0  0
   65.4708   32.4058   50.8108 H   0  0  0  0  0  0  0  0  0  0  0  0
   65.3230   31.5135   49.2589 H   0  0  0  0  0  0  0  0  0  0  0  0
   65.8240   33.2385   49.2589 H   0  0  0  0  0  0  0  0  0  0  0  0
  1  2  1  0
  2  3  1  0
  3  4  2  0
  3  5  1  0
  5  6  2  0
  6  7  1  0
  7  8  2  0
  8  9  1  0
  9 10  1  0
 10 11  1  0
 11 12  2  0
 12 13  1  0
 13 14  2  0
 14 15  1  0
 15 16  2  0
 16 17  1  0
  6 18  1  0
 18 19  1  0
 18 20  1  0
 20 21  2  0
 20  2  1  0
  9  5  1  0
 16 11  1  0
  1 22  1  0
  1 23  1  0
  1 24  1  0
  7 25  1  0
  8 26  1  0
 10 27  1  0
 10 28  1  0
 12 29  1  0
 13 30  1  0
 14 31  1  0
 15 32  1  0
 19 33  1  0
 19 34  1  0
 19 35  1  0
M  CHG  1   7   1
M  END
>  <UniqueID>  (29) 
26

>  <SMILES>  (29) 
Cn1c(=O)c2c([nH+]cn2Cc2ccccc2F)n(C)c1=O

>  <Energy>  (29) 
84.60362658168971

>  <Genealogy>  (29) 
Cn1c(=O)c2c([nH+]cn2Cc2ccccc2F)n(C)c1=O (protonated)
Cn1c(=O)c2c([nH+]cn2Cc2ccccc2F)n(C)c1=O (3D coordinates assigned)
Cn1c(=O)c2c([nH+]cn2Cc2ccccc2F)n(C)c1=O (optimized conformer: 84.60362658168971 kcal/mol)

>  <smiles>  (29) 
Cn1c(=O)c2c(ncn2Cc2ccccc2F)n(C)c1=O

>  <score_type>  (29) 
oracle

>  <origin>  (29) 
adg

>  <m_score__min__energy>  (29) 
-4.8899999999999997

>  <m_primary>  (29) 
energy

$$$$
29:0
     RDKit          3D

 19 18  0  0  0  0  0  0  0  0999 V2000
   58.9750   34.4850   46.7080 C   0  0  0  0  0  0  0  0  0  0  0  0
   59.0090   34.5460   45.1810 C   0  0  0  0  0  0  0  0  0  0  0  0
   57.9060   33.7010   44.5270 C   0  0  0  0  0  0  0  0  0  0  0  0
   57.8960   32.2520   45.0230 C   0  0  0  0  0  0  0  0  0  0  0  0
   56.5990   31.7280   44.8720 O   0  0  0  0  0  0  0  0  0  0  0  0
   56.7110   30.0430   44.7410 S   0  0  0  0  0  0  0  0  0  0  0  0
   55.1380   29.3280   44.8270 N   0  0  0  0  0  0  0  0  0  0  0  0
   57.3270   29.7020   43.4130 O   0  0  0  0  0  0  0  0  0  0  0  0
   57.5800   29.4910   45.8370 O   0  0  0  0  0  0  0  0  0  0  0  0
   59.4712   35.3753   47.1217 H   0  0  0  0  0  0  0  0  0  0  0  0
   57.9301   34.4552   47.0506 H   0  0  0  0  0  0  0  0  0  0  0  0
   59.4992   33.5806   47.0506 H   0  0  0  0  0  0  0  0  0  0  0  0
   58.8818   35.5929   44.8682 H   0  0  0  0  0  0  0  0  0  0  0  0
   59.9767   34.1373   44.8547 H   0  0  0  0  0  0  0  0  0  0  0  0
   56.9316   34.1574   44.7553 H   0  0  0  0  0  0  0  0  0  0  0  0
   58.1028   33.6794   43.4450 H   0  0  0  0  0  0  0  0  0  0  0  0
   58.6067   31.6547   44.4329 H   0  0  0  0  0  0  0  0  0  0  0  0
   58.1907   32.2184   46.0822 H   0  0  0  0  0  0  0  0  0  0  0  0
   55.1520   28.6530   45.6250 H   0  0  0  0  0  0  0  0  0  0  0  0
  1  2  1  0
  2  3  1  0
  3  4  1  0
  4  5  1  0
  5  6  1  0
  6  7  1  0
  6  8  2  0
  6  9  2  0
  1 10  1  0
  1 11  1  0
  1 12  1  0
  2 13  1  0
  2 14  1  0
  3 15  1  0
  3 16  1  0
  4 17  1  0
  4 18  1  0
  7 19  1  0
M  CHG  1   7  -1
M  END
>  <UniqueID>  (30) 
27

>  <SMILES>  (30) 
CCCCOS([NH-])(=O)=O

>  <Energy>  (30) 
7.816115538565296

>  <Genealogy>  (30) 
CCCCOS([NH-])(=O)=O (protonated)
CCCCOS([NH-])(=O)=O (3D coordinates assigned)
CCCCOS([NH-])(=O)=O (optimized conformer: 7.816115538565296 kcal/mol)

>  <smiles>  (30) 
CCCCOS(N)(=O)=O

>  <score_type>  (30) 
oracle

>  <origin>  (30) 
adg

>  <m_score__min__energy>  (30) 
-7.3399999999999999

>  <m_primary>  (30) 
energy

$$$$
30:0
     RDKit          3D

 47 49  0  0  0  0  0  0  0  0999 V2000
   51.1185   31.7420   49.2486 H   0  0  0  0  0  0  0  0  0  0  0  0
   51.3500   31.5820   50.3120 C   0  0  0  0  0  0  0  0  0  0  0  0
   50.7460   32.3430   51.2570 N   0  0  0  0  0  0  0  0  0  0  0  0
   50.9640   32.1470   52.5830 C   0  0  0  0  0  0  0  0  0  0  0  0
   50.2530   32.9200   53.5080 C   0  0  0  0  0  0  0  0  0  0  0  0
   49.6072   33.7383   53.1568 H   0  0  0  0  0  0  0  0  0  0  0  0
   50.3600   32.6570   54.8720 C   0  0  0  0  0  0  0  0  0  0  0  0
   49.8216   33.2844   55.5977 H   0  0  0  0  0  0  0  0  0  0  0  0
   51.1500   31.5980   55.3160 C   0  0  0  0  0  0  0  0  0  0  0  0
   51.1986   31.3645   56.3898 H   0  0  0  0  0  0  0  0  0  0  0  0
   51.8810   30.8310   54.4040 C   0  0  0  0  0  0  0  0  0  0  0  0
   52.4788   29.9811   54.7649 H   0  0  0  0  0  0  0  0  0  0  0  0
   51.8610   31.1350   53.0220 C   0  0  0  0  0  0  0  0  0  0  0  0
   52.5970   30.4120   52.0320 C   0  0  0  0  0  0  0  0  0  0  0  0
   53.6010   29.6070   52.2710 N   0  0  0  0  0  0  0  0  0  0  0  0
   54.9690   29.9010   52.5840 C   0  0  0  0  0  0  0  0  0  0  0  0
   55.7770   28.8980   53.1200 C   0  0  0  0  0  0  0  0  0  0  0  0
   55.3352   27.9227   53.3724 H   0  0  0  0  0  0  0  0  0  0  0  0
   57.1470   29.1160   53.3420 C   0  0  0  0  0  0  0  0  0  0  0  0
   57.9780   27.9820   53.8730 C   0  0  0  0  0  0  0  0  0  0  0  0
   57.9642   28.0009   54.9728 H   0  0  0  0  0  0  0  0  0  0  0  0
   57.5646   27.0267   53.5175 H   0  0  0  0  0  0  0  0  0  0  0  0
   59.0135   28.0884   53.5175 H   0  0  0  0  0  0  0  0  0  0  0  0
   57.7120   30.3780   53.0260 C   0  0  0  0  0  0  0  0  0  0  0  0
   59.0650   30.6750   53.2580 O   0  0  0  0  0  0  0  0  0  0  0  0
   59.6250   30.8890   54.5490 C   0  0  0  0  0  0  0  0  0  0  0  0
   58.8906   30.6084   55.3183 H   0  0  0  0  0  0  0  0  0  0  0  0
   60.5292   30.2730   54.6632 H   0  0  0  0  0  0  0  0  0  0  0  0
   59.8880   31.9510   54.6632 H   0  0  0  0  0  0  0  0  0  0  0  0
   56.9060   31.3690   52.4260 C   0  0  0  0  0  0  0  0  0  0  0  0
   57.4930   32.7100   52.0270 C   0  0  0  0  0  0  0  0  0  0  0  0
   56.8824   33.1365   51.2175 H   0  0  0  0  0  0  0  0  0  0  0  0
   57.4895   33.3568   52.9168 H   0  0  0  0  0  0  0  0  0  0  0  0
   58.8930   32.5940   51.5570 N   0  0  0  0  0  0  0  0  0  0  0  0
   59.3710   31.8120   52.0640 H   0  0  0  0  0  0  0  0  0  0  0  0
   59.6490   33.8350   51.7980 C   0  0  0  0  0  0  0  0  0  0  0  0
   59.7489   33.9990   52.8811 H   0  0  0  0  0  0  0  0  0  0  0  0
   60.6484   33.7491   51.3464 H   0  0  0  0  0  0  0  0  0  0  0  0
   59.1143   34.6836   51.3464 H   0  0  0  0  0  0  0  0  0  0  0  0
   58.9120   32.2710   50.1190 C   0  0  0  0  0  0  0  0  0  0  0  0
   58.9761   31.1806   49.9889 H   0  0  0  0  0  0  0  0  0  0  0  0
   57.9904   32.6429   49.6474 H   0  0  0  0  0  0  0  0  0  0  0  0
   59.7836   32.7484   49.6474 H   0  0  0  0  0  0  0  0  0  0  0  0
   55.5420   31.1220   52.2090 C   0  0  0  0  0  0  0  0  0  0  0  0
   54.9166   31.8956   51.7395 H   0  0  0  0  0  0  0  0  0  0  0  0
   52.2620   30.5990   50.6830 C   0  0  0  0  0  0  0  0  0  0  0  0
   52.7237   29.9638   49.9127 H   0  0  0  0  0  0  0  0  0  0  0  0
  1  2  1  0
  2  3  1  0
  3  4  1  0
  4  5  2  0
  5  6  1  0
  5  7  1  0
  7  8  1  0
  7  9  2  0
  9 10  1  0
  9 11  1  0
 11 12  1  0
 11 13  2  0
 13 14  1  0
 14 15  2  0
 15 16  1  0
 16 17  2  0
 17 18  1  0
 17 19  1  0
 19 20  1  0
 20 21  1  0
 20 22  1  0
 20 23  1  0
 19 24  2  0
 24 25  1  0
 25 26  1  0
 26 27  1  0
 26 28  1  0
 26 29  1  0
 24 30  1  0
 30 31  1  0
 31 32  1  0
 31 33  1  0
 31 34  1  0
 34 35  1  0
 34 36  1  0
 36 37  1  0
 36 38  1  0
 36 39  1  0
 34 40  1  0
 40 41  1  0
 40 42  1  0
 40 43  1  0
 30 44  2  0
 44 45  1  0
 14 46  1  0
 46 47  1  0
 46  2  2  0
 13  4  1  0
 44 16  1  0
M  CHG  2   3  -1  34   1
M  END
>  <UniqueID>  (31) 
28

>  <SMILES>  (31) 
COc1c(C)cc(/N=c2/cc[n-]c3ccccc23)cc1C[NH+](C)C

>  <Energy>  (31) 
77.58653318291195

>  <Genealogy>  (31) 
COc1c(C)cc(N=c2cc[n-]c3ccccc23)cc1C[NH+](C)C (protonated)
COc1c(C)cc(/N=c2/cc[n-]c3ccccc23)cc1C[NH+](C)C (cis-trans isomerization)
COc1c(C)cc(/N=c2/cc[n-]c3ccccc23)cc1C[NH+](C)C (3D coordinates assigned)
COc1c(C)cc(/N=c2/cc[n-]c3ccccc23)cc1C[NH+](C)C (optimized conformer: 77.58653318291195 kcal/mol)

>  <smiles>  (31) 
COc1c(C)cc(N=c2cc[nH]c3ccccc23)cc1CN(C)C

>  <score_type>  (31) 
oracle

>  <origin>  (31) 
adg

>  <m_score__min__energy>  (31) 
-7.3799999999999999

>  <m_primary>  (31) 
energy

$$$$
31:0
     RDKit          3D

 37 39  0  0  0  0  0  0  0  0999 V2000
   62.4610   33.7760   50.4320 C   0  0  0  0  0  0  0  0  0  0  0  0
   62.5560   33.7230   48.9370 C   0  0  0  0  0  0  0  0  0  0  0  0
   63.7560   33.4610   48.2570 C   0  0  0  0  0  0  0  0  0  0  0  0
   63.6240   33.4610   46.8740 C   0  0  0  0  0  0  0  0  0  0  0  0
   62.0190   33.7900   46.4960 S   0  0  0  0  0  0  0  0  0  0  0  0
   61.4790   33.9540   48.0790 C   0  0  0  0  0  0  0  0  0  0  0  0
   60.0500   34.2010   48.4690 C   0  0  0  0  0  0  0  0  0  0  0  0
   59.3630   34.9830   47.4330 N   0  0  0  0  0  0  0  0  0  0  0  0
   58.8370   34.1030   46.4190 C   0  0  0  0  0  0  0  0  0  0  0  0
   58.5030   34.5940   45.1490 C   0  0  0  0  0  0  0  0  0  0  0  0
   58.0300   33.7530   44.1930 N   0  0  0  0  0  0  0  0  0  0  0  0
   57.8600   32.4220   44.4160 C   0  0  0  0  0  0  0  0  0  0  0  0
   58.2200   31.8720   45.6670 C   0  0  0  0  0  0  0  0  0  0  0  0
   58.6960   32.7300   46.6670 C   0  0  0  0  0  0  0  0  0  0  0  0
   58.0020   30.4120   45.9840 C   0  0  0  0  0  0  0  0  0  0  0  0
   57.8520   29.5520   44.7250 C   0  0  0  0  0  0  0  0  0  0  0  0
   56.8650   30.1960   43.7510 C   0  0  0  0  0  0  0  0  0  0  0  0
   57.3930   31.5540   43.2760 C   0  0  0  0  0  0  0  0  0  0  0  0
   63.3410   33.2850   50.8730 H   0  0  0  0  0  0  0  0  0  0  0  0
   62.4237   34.8253   50.7601 H   0  0  0  0  0  0  0  0  0  0  0  0
   61.5485   33.2566   50.7601 H   0  0  0  0  0  0  0  0  0  0  0  0
   64.7105   33.2735   48.7707 H   0  0  0  0  0  0  0  0  0  0  0  0
   64.4315   33.2772   46.1500 H   0  0  0  0  0  0  0  0  0  0  0  0
   59.5368   33.2362   48.5944 H   0  0  0  0  0  0  0  0  0  0  0  0
   60.0308   34.7656   49.4129 H   0  0  0  0  0  0  0  0  0  0  0  0
   60.0310   35.6620   46.9960 H   0  0  0  0  0  0  0  0  0  0  0  0
   58.5820   35.5320   47.8640 H   0  0  0  0  0  0  0  0  0  0  0  0
   58.6244   35.6643   44.9259 H   0  0  0  0  0  0  0  0  0  0  0  0
   58.9611   32.3236   47.6542 H   0  0  0  0  0  0  0  0  0  0  0  0
   58.8632   30.0444   46.5613 H   0  0  0  0  0  0  0  0  0  0  0  0
   57.0660   30.3314   46.5561 H   0  0  0  0  0  0  0  0  0  0  0  0
   58.8319   29.4535   44.2351 H   0  0  0  0  0  0  0  0  0  0  0  0
   57.4713   28.5613   45.0142 H   0  0  0  0  0  0  0  0  0  0  0  0
   56.7300   29.5354   42.8819 H   0  0  0  0  0  0  0  0  0  0  0  0
   55.9037   30.3463   44.2641 H   0  0  0  0  0  0  0  0  0  0  0  0
   58.2380   31.3845   42.5924 H   0  0  0  0  0  0  0  0  0  0  0  0
   56.5658   32.0775   42.7742 H   0  0  0  0  0  0  0  0  0  0  0  0
  1  2  1  0
  2  3  1  0
  3  4  2  0
  4  5  1  0
  5  6  1  0
  6  7  1  0
  7  8  1  0
  8  9  1  0
  9 10  2  0
 10 11  1  0
 11 12  2  0
 12 13  1  0
 13 14  2  0
 13 15  1  0
 15 16  1  0
 16 17  1  0
 17 18  1  0
  6  2  2  0
 14  9  1  0
 18 12  1  0
  1 19  1  0
  1 20  1  0
  1 21  1  0
  3 22  1  0
  4 23  1  0
  7 24  1  0
  7 25  1  0
  8 26  1  0
  8 27  1  0
 10 28  1  0
 14 29  1  0
 15 30  1  0
 15 31  1  0
 16 32  1  0
 16 33  1  0
 17 34  1  0
 17 35  1  0
 18 36  1  0
 18 37  1  0
M  CHG  1   8   1
M  END
>  <UniqueID>  (32) 
29

>  <SMILES>  (32) 
Cc1ccsc1C[NH2+]c1cnc2c(c1)CCCC2

>  <Energy>  (32) 
61.62443447820016

>  <Genealogy>  (32) 
Cc1ccsc1C[NH2+]c1cnc2c(c1)CCCC2 (protonated)
Cc1ccsc1C[NH2+]c1cnc2c(c1)CCCC2 (3D coordinates assigned)
Cc1ccsc1C[NH2+]c1cnc2c(c1)CCCC2 (nonaromatic ring conformer: 61.62443447820016 kcal/mol)

>  <smiles>  (32) 
Cc1ccsc1CNc1cnc2c(c1)CCCC2

>  <score_type>  (32) 
oracle

>  <origin>  (32) 
adg

>  <m_score__min__energy>  (32) 
-5.8200000000000003

>  <m_primary>  (32) 
energy

$$$$
32:0
     RDKit          3D

 41 43  0  0  1  0  0  0  0  0999 V2000
   60.5050   30.1440   48.5720 C   0  0  0  0  0  0  0  0  0  0  0  0
   60.6310   29.6390   47.1670 C   0  0  0  0  0  0  0  0  0  0  0  0
   59.3430   29.4890   46.5150 N   0  0  0  0  0  0  0  0  0  0  0  0
   58.7070   28.3120   46.4100 C   0  0  0  0  0  0  0  0  0  0  0  0
   57.4690   28.2330   45.7700 C   0  0  0  0  0  0  0  0  0  0  0  0
   56.8330   26.9210   45.6900 C   0  0  0  0  0  0  0  0  0  0  0  0
   55.4390   26.7710   45.9050 N   0  0  0  0  0  0  0  0  0  0  0  0
   57.4880   25.8630   45.4280 O   0  0  0  0  0  0  0  0  0  0  0  0
   56.8750   29.3550   45.2370 C   0  0  0  0  0  0  0  0  0  0  0  0
   55.7590   29.2880   44.6600 O   0  0  0  0  0  0  0  0  0  0  0  0
   57.5410   30.5630   45.3530 C   0  0  0  0  0  0  0  0  0  0  0  0
   57.0110   31.7400   44.8430 C   0  0  0  0  0  0  0  0  0  0  0  0
   57.6730   32.9100   44.9640 N   0  0  0  0  0  0  0  0  0  0  0  0
   58.8600   32.9310   45.5880 C   0  0  0  0  0  0  0  0  0  0  0  0
   59.5670   33.9970   45.7540 N   0  0  0  0  0  0  0  0  0  0  0  0
   60.5790   33.9970   46.7540 C   0  0  0  0  0  0  0  0  0  0  0  0
   61.9170   33.8000   46.4710 C   0  0  0  0  0  0  0  0  0  0  0  0
   62.8310   33.8170   47.5170 C   0  0  0  0  0  0  0  0  0  0  0  0
   62.4390   34.0250   48.8330 C   0  0  0  0  0  0  0  0  0  0  0  0
   63.4010   34.0450   49.9590 C   0  0  0  0  0  0  0  0  0  0  0  0
   61.0940   34.2220   49.1140 C   0  0  0  0  0  0  0  0  0  0  0  0
   60.1870   34.2060   48.0800 C   0  0  0  0  0  0  0  0  0  0  0  0
   59.3900   31.7840   46.0930 N   0  0  0  0  0  0  0  0  0  0  0  0
   58.7640   30.5910   45.9950 C   0  0  0  0  0  0  0  0  0  0  0  0
   60.7096   29.3240   49.2761 H   0  0  0  0  0  0  0  0  0  0  0  0
   61.2279   30.9568   48.7357 H   0  0  0  0  0  0  0  0  0  0  0  0
   59.4850   30.5219   48.7357 H   0  0  0  0  0  0  0  0  0  0  0  0
   61.2387   30.3508   46.5890 H   0  0  0  0  0  0  0  0  0  0  0  0
   61.1033   28.6464   47.2086 H   0  0  0  0  0  0  0  0  0  0  0  0
   59.1639   27.4042   46.8307 H   0  0  0  0  0  0  0  0  0  0  0  0
   54.7690   27.0790   45.1610 H   0  0  0  0  0  0  0  0  0  0  0  0
   55.1260   26.3490   46.8180 H   0  0  0  0  0  0  0  0  0  0  0  0
   56.0368   31.7190   44.3325 H   0  0  0  0  0  0  0  0  0  0  0  0
   57.2910   33.7850   44.5920 H   0  0  0  0  0  0  0  0  0  0  0  0
   62.2522   33.6328   45.4367 H   0  0  0  0  0  0  0  0  0  0  0  0
   63.8973   33.6610   47.2963 H   0  0  0  0  0  0  0  0  0  0  0  0
   62.8509   34.0336   50.9115 H   0  0  0  0  0  0  0  0  0  0  0  0
   64.0520   33.1602   49.9009 H   0  0  0  0  0  0  0  0  0  0  0  0
   64.0146   34.9561   49.9009 H   0  0  0  0  0  0  0  0  0  0  0  0
   60.7584   34.3884   50.1483 H   0  0  0  0  0  0  0  0  0  0  0  0
   59.1212   34.3623   48.3029 H   0  0  0  0  0  0  0  0  0  0  0  0
  1  2  1  0
  2  3  1  0
  3  4  1  0
  4  5  2  0
  5  6  1  0
  6  7  1  0
  6  8  2  0
  5  9  1  0
  9 10  2  0
  9 11  1  0
 11 12  2  0
 12 13  1  0
 13 14  1  0
 14 15  2  0
 15 16  1  0
 16 17  2  0
 17 18  1  0
 18 19  2  0
 19 20  1  0
 19 21  1  0
 21 22  2  0
 14 23  1  0
 23 24  2  0
 24  3  1  0
 24 11  1  0
 22 16  1  0
  1 25  1  0
  1 26  1  0
  1 27  1  0
  2 28  1  0
  2 29  1  0
  4 30  1  0
  7 31  1  0
  7 32  1  0
 12 33  1  0
 13 34  1  0
 17 35  1  0
 18 36  1  0
 20 37  1  0
 20 38  1  0
 20 39  1  0
 21 40  1  0
 22 41  1  0
M  END
>  <smiles>  (33) 
CCn1cc(C(N)=O)c(=O)c2c[nH]c(=Nc3ccc(C)cc3)nc21

>  <score_type>  (33) 
oracle

>  <origin>  (33) 
adg

>  <m_score__min__energy>  (33) 
-7.8799999999999999

>  <m_primary>  (33) 
energy

$$$$
33:0
     RDKit          3D

 51 53  0  0  0  0  0  0  0  0999 V2000
   62.9870   34.1550   50.3280 C   0  0  0  0  0  0  0  0  0  0  0  0
   62.1620   34.8040   49.3670 O   0  0  0  0  0  0  0  0  0  0  0  0
   61.2360   34.1460   48.5420 C   0  0  0  0  0  0  0  0  0  0  0  0
   61.5460   33.7770   47.2200 C   0  0  0  0  0  0  0  0  0  0  0  0
   60.6070   33.1090   46.4330 C   0  0  0  0  0  0  0  0  0  0  0  0
   59.3400   32.8030   46.9470 C   0  0  0  0  0  0  0  0  0  0  0  0
   58.3590   32.0560   46.1290 C   0  0  0  0  0  0  0  0  0  0  0  0
   57.4250   32.5790   45.2520 C   0  0  0  0  0  0  0  0  0  0  0  0
   57.2500   34.0150   44.8720 C   0  0  0  0  0  0  0  0  0  0  0  0
   56.6490   31.5880   44.7750 N   0  0  0  0  0  0  0  0  0  0  0  0
   57.0420   30.4470   45.3190 N   0  0  0  0  0  0  0  0  0  0  0  0
   58.0790   30.6940   46.1460 C   0  0  0  0  0  0  0  0  0  0  0  0
   58.7760   29.6290   46.9050 C   0  0  0  0  0  0  0  0  0  0  0  0
   59.6440   29.9770   47.9460 C   0  0  0  0  0  0  0  0  0  0  0  0
   60.3270   28.9850   48.6710 C   0  0  0  0  0  0  0  0  0  0  0  0
   61.2090   29.3080   49.7160 O   0  0  0  0  0  0  0  0  0  0  0  0
   61.7290   30.6110   49.9640 C   0  0  0  0  0  0  0  0  0  0  0  0
   60.1390   27.6280   48.3600 C   0  0  0  0  0  0  0  0  0  0  0  0
   60.8570   26.6980   49.1340 O   0  0  0  0  0  0  0  0  0  0  0  0
   60.8430   26.5820   50.5530 C   0  0  0  0  0  0  0  0  0  0  0  0
   59.2590   27.2650   47.3090 C   0  0  0  0  0  0  0  0  0  0  0  0
   59.0920   25.9140   46.9660 O   0  0  0  0  0  0  0  0  0  0  0  0
   58.5200   25.4460   45.7480 C   0  0  0  0  0  0  0  0  0  0  0  0
   58.5650   28.2750   46.6130 C   0  0  0  0  0  0  0  0  0  0  0  0
   59.0200   33.1870   48.2580 C   0  0  0  0  0  0  0  0  0  0  0  0
   59.9690   33.8460   49.0650 C   0  0  0  0  0  0  0  0  0  0  0  0
   59.6930   34.2070   50.3920 O   0  0  0  0  0  0  0  0  0  0  0  0
   59.2040   33.3140   51.3870 C   0  0  0  0  0  0  0  0  0  0  0  0
   62.6491   34.4208   51.3405 H   0  0  0  0  0  0  0  0  0  0  0  0
   62.9195   33.0654   50.1931 H   0  0  0  0  0  0  0  0  0  0  0  0
   64.0301   34.4772   50.1931 H   0  0  0  0  0  0  0  0  0  0  0  0
   62.5356   34.0168   46.8039 H   0  0  0  0  0  0  0  0  0  0  0  0
   60.8631   32.8209   45.4028 H   0  0  0  0  0  0  0  0  0  0  0  0
   57.1752   34.6286   45.7819 H   0  0  0  0  0  0  0  0  0  0  0  0
   58.1146   34.3449   44.2773 H   0  0  0  0  0  0  0  0  0  0  0  0
   56.3315   34.1276   44.2773 H   0  0  0  0  0  0  0  0  0  0  0  0
   59.7933   31.0369   48.1994 H   0  0  0  0  0  0  0  0  0  0  0  0
   61.7959   30.7787   51.0491 H   0  0  0  0  0  0  0  0  0  0  0  0
   62.7305   30.6973   49.5172 H   0  0  0  0  0  0  0  0  0  0  0  0
   61.0621   31.3631   49.5172 H   0  0  0  0  0  0  0  0  0  0  0  0
   60.9632   27.5783   51.0035 H   0  0  0  0  0  0  0  0  0  0  0  0
   59.8858   26.1467   50.8759 H   0  0  0  0  0  0  0  0  0  0  0  0
   61.6691   25.9314   50.8759 H   0  0  0  0  0  0  0  0  0  0  0  0
   57.6866   24.7641   45.9725 H   0  0  0  0  0  0  0  0  0  0  0  0
   58.1472   26.3014   45.1655 H   0  0  0  0  0  0  0  0  0  0  0  0
   59.2846   24.9112   45.1655 H   0  0  0  0  0  0  0  0  0  0  0  0
   57.8464   27.9960   45.8283 H   0  0  0  0  0  0  0  0  0  0  0  0
   58.0189   32.9716   48.6598 H   0  0  0  0  0  0  0  0  0  0  0  0
   59.4262   33.7198   52.3850 H   0  0  0  0  0  0  0  0  0  0  0  0
   58.1162   33.1975   51.2724 H   0  0  0  0  0  0  0  0  0  0  0  0
   59.6917   32.3347   51.2724 H   0  0  0  0  0  0  0  0  0  0  0  0
  1  2  1  0
  2  3  1  0
  3  4  2  0
  4  5  1  0
  5  6  2  0
  6  7  1  0
  7  8  1  0
  8  9  1  0
  8 10  2  0
 10 11  1  0
 11 12  1  0
 12 13  1  0
 13 14  2  0
 14 15  1  0
 15 16  1  0
 16 17  1  0
 15 18  2  0
 18 19  1  0
 19 20  1  0
 18 21  1  0
 21 22  1  0
 22 23  1  0
 21 24  2  0
  6 25  1  0
 25 26  2  0
 26 27  1  0
 27 28  1  0
 26  3  1  0
 12  7  2  0
 24 13  1  0
  1 29  1  0
  1 30  1  0
  1 31  1  0
  4 32  1  0
  5 33  1  0
  9 34  1  0
  9 35  1  0
  9 36  1  0
 14 37  1  0
 17 38  1  0
 17 39  1  0
 17 40  1  0
 20 41  1  0
 20 42  1  0
 20 43  1  0
 23 44  1  0
 23 45  1  0
 23 46  1  0
 24 47  1  0
 25 48  1  0
 28 49  1  0
 28 50  1  0
 28 51  1  0
M  CHG  1  11  -1
M  END
>  <UniqueID>  (34) 
30

>  <SMILES>  (34) 
COc1ccc(-c2c(C)n[n-]c2-c2cc(OC)c(OC)c(OC)c2)cc1OC

>  <Energy>  (34) 
88.90208296762621

>  <Genealogy>  (34) 
COc1ccc(-c2c(C)n[n-]c2-c2cc(OC)c(OC)c(OC)c2)cc1OC (protonated)
COc1ccc(-c2c(C)n[n-]c2-c2cc(OC)c(OC)c(OC)c2)cc1OC (3D coordinates assigned)
COc1ccc(-c2c(C)n[n-]c2-c2cc(OC)c(OC)c(OC)c2)cc1OC (optimized conformer: 88.90208296762621 kcal/mol)

>  <smiles>  (34) 
COc1ccc(-c2c(C)n[nH]c2-c2cc(OC)c(OC)c(OC)c2)cc1OC

>  <score_type>  (34) 
oracle

>  <origin>  (34) 
adg

>  <m_score__min__energy>  (34) 
-7.4800000000000004

>  <m_primary>  (34) 
energy

$$$$
34:0
     RDKit          3D

 45 47  0  0  0  0  0  0  0  0999 V2000
   64.6330   32.8860   49.1240 C   0  0  0  0  0  0  0  0  0  0  0  0
   63.3310   33.3800   48.5650 C   0  0  0  0  0  0  0  0  0  0  0  0
   62.9760   33.0900   47.2380 C   0  0  0  0  0  0  0  0  0  0  0  0
   61.7470   33.5170   46.7300 C   0  0  0  0  0  0  0  0  0  0  0  0
   60.8520   34.2160   47.5480 C   0  0  0  0  0  0  0  0  0  0  0  0
   59.2680   34.7510   46.8980 S   0  0  0  0  0  0  0  0  0  0  0  0
   58.6640   33.0700   46.7100 C   0  0  0  0  0  0  0  0  0  0  0  0
   58.6060   32.0810   47.6790 C   0  0  0  0  0  0  0  0  0  0  0  0
   59.0800   32.1860   49.0910 C   0  0  0  0  0  0  0  0  0  0  0  0
   58.1350   30.9430   47.1330 N   0  0  0  0  0  0  0  0  0  0  0  0
   57.8710   31.1910   45.8600 N   0  0  0  0  0  0  0  0  0  0  0  0
   57.2500   29.9940   44.7690 S   0  0  0  0  0  0  0  0  0  0  0  0
   55.7500   30.0770   44.7720 O   0  0  0  0  0  0  0  0  0  0  0  0
   57.7560   30.2850   43.3840 O   0  0  0  0  0  0  0  0  0  0  0  0
   57.7860   28.3750   45.2510 C   0  0  0  0  0  0  0  0  0  0  0  0
   56.8200   27.4250   45.6240 C   0  0  0  0  0  0  0  0  0  0  0  0
   57.1980   26.1350   45.9980 C   0  0  0  0  0  0  0  0  0  0  0  0
   58.5450   25.7780   46.0100 C   0  0  0  0  0  0  0  0  0  0  0  0
   59.5200   26.7120   45.6580 C   0  0  0  0  0  0  0  0  0  0  0  0
   59.1580   28.0200   45.2910 C   0  0  0  0  0  0  0  0  0  0  0  0
   60.2430   28.9950   44.9140 C   0  0  0  0  0  0  0  0  0  0  0  0
   58.1660   32.4760   45.5680 C   0  0  0  0  0  0  0  0  0  0  0  0
   58.0500   33.1030   44.2120 C   0  0  0  0  0  0  0  0  0  0  0  0
   61.1980   34.5020   48.8730 C   0  0  0  0  0  0  0  0  0  0  0  0
   62.4290   34.0770   49.3840 C   0  0  0  0  0  0  0  0  0  0  0  0
   64.5899   32.9023   50.2230 H   0  0  0  0  0  0  0  0  0  0  0  0
   64.8132   31.8570   48.7794 H   0  0  0  0  0  0  0  0  0  0  0  0
   65.4504   33.5365   48.7794 H   0  0  0  0  0  0  0  0  0  0  0  0
   63.6679   32.5247   46.5964 H   0  0  0  0  0  0  0  0  0  0  0  0
   61.4818   33.3033   45.6841 H   0  0  0  0  0  0  0  0  0  0  0  0
   58.2389   31.9997   49.7749 H   0  0  0  0  0  0  0  0  0  0  0  0
   59.8694   31.4410   49.2691 H   0  0  0  0  0  0  0  0  0  0  0  0
   59.4809   33.1947   49.2691 H   0  0  0  0  0  0  0  0  0  0  0  0
   55.7552   27.7011   45.6211 H   0  0  0  0  0  0  0  0  0  0  0  0
   56.4320   25.3991   46.2837 H   0  0  0  0  0  0  0  0  0  0  0  0
   58.8401   24.7581   46.2975 H   0  0  0  0  0  0  0  0  0  0  0  0
   60.5812   26.4224   45.6677 H   0  0  0  0  0  0  0  0  0  0  0  0
   60.7001   29.4057   45.8264 H   0  0  0  0  0  0  0  0  0  0  0  0
   61.0109   28.4775   44.3202 H   0  0  0  0  0  0  0  0  0  0  0  0
   59.8102   29.8136   44.3202 H   0  0  0  0  0  0  0  0  0  0  0  0
   57.8509   34.1793   44.3215 H   0  0  0  0  0  0  0  0  0  0  0  0
   58.9901   32.9584   43.6595 H   0  0  0  0  0  0  0  0  0  0  0  0
   57.2238   32.6316   43.6595 H   0  0  0  0  0  0  0  0  0  0  0  0
   60.5011   35.0619   49.5140 H   0  0  0  0  0  0  0  0  0  0  0  0
   62.6909   34.2897   50.4310 H   0  0  0  0  0  0  0  0  0  0  0  0
  1  2  1  0
  2  3  2  0
  3  4  1  0
  4  5  2  0
  5  6  1  0
  6  7  1  0
  7  8  1  0
  8  9  1  0
  8 10  2  0
 10 11  1  0
 11 12  1  0
 12 13  2  0
 12 14  2  0
 12 15  1  0
 15 16  2  0
 16 17  1  0
 17 18  2  0
 18 19  1  0
 19 20  2  0
 20 21  1  0
 11 22  1  0
 22 23  1  0
  5 24  1  0
 24 25  2  0
 25  2  1  0
 22  7  2  0
 20 15  1  0
  1 26  1  0
  1 27  1  0
  1 28  1  0
  3 29  1  0
  4 30  1  0
  9 31  1  0
  9 32  1  0
  9 33  1  0
 16 34  1  0
 17 35  1  0
 18 36  1  0
 19 37  1  0
 21 38  1  0
 21 39  1  0
 21 40  1  0
 23 41  1  0
 23 42  1  0
 23 43  1  0
 24 44  1  0
 25 45  1  0
M  END
>  <UniqueID>  (35) 
31

>  <SMILES>  (35) 
Cc1ccc(Sc2c(C)nn(S(=O)(=O)c3ccccc3C)c2C)cc1

>  <Energy>  (35) 
72.83638037968376

>  <Genealogy>  (35) 
Cc1ccc(Sc2c(C)nn(S(=O)(=O)c3ccccc3C)c2C)cc1 (3D coordinates assigned)
Cc1ccc(Sc2c(C)nn(S(=O)(=O)c3ccccc3C)c2C)cc1 (optimized conformer: 72.83638037968376 kcal/mol)

>  <smiles>  (35) 
Cc1ccc(Sc2c(C)nn(S(=O)(=O)c3ccccc3C)c2C)cc1

>  <score_type>  (35) 
oracle

>  <origin>  (35) 
adg

>  <m_score__min__energy>  (35) 
-9.2200000000000006

>  <m_primary>  (35) 
energy

$$$$
35:0
     RDKit          3D

 45 48  0  0  0  0  0  0  0  0999 V2000
   60.8510   29.8780   50.8920 O   0  0  0  0  0  0  0  0  0  0  0  0
   61.3120   30.5900   49.9620 C   0  0  0  0  0  0  0  0  0  0  0  0
   62.5170   31.3300   50.1910 N   0  0  0  0  0  0  0  0  0  0  0  0
   62.5880   32.5930   50.9180 C   0  0  0  0  0  0  0  0  0  0  0  0
   63.3750   33.6120   50.0990 C   0  0  0  0  0  0  0  0  0  0  0  0
   62.9280   33.5960   48.6690 C   0  0  0  0  0  0  0  0  0  0  0  0
   63.7280   33.3790   47.5510 C   0  0  0  0  0  0  0  0  0  0  0  0
   63.0030   33.5180   46.4180 N   0  0  0  0  0  0  0  0  0  0  0  0
   61.7570   33.8340   46.8090 C   0  0  0  0  0  0  0  0  0  0  0  0
   60.6560   34.0980   45.9960 C   0  0  0  0  0  0  0  0  0  0  0  0
   59.4410   34.4360   46.6210 C   0  0  0  0  0  0  0  0  0  0  0  0
   59.3560   34.5030   48.0300 C   0  0  0  0  0  0  0  0  0  0  0  0
   60.4840   34.2340   48.8260 C   0  0  0  0  0  0  0  0  0  0  0  0
   61.6720   33.8960   48.1770 C   0  0  0  0  0  0  0  0  0  0  0  0
   60.5750   30.6680   48.6860 C   0  0  0  0  0  0  0  0  0  0  0  0
   59.2490   31.1280   48.6720 C   0  0  0  0  0  0  0  0  0  0  0  0
   58.5420   31.2070   47.4680 C   0  0  0  0  0  0  0  0  0  0  0  0
   59.1500   30.8230   46.2630 C   0  0  0  0  0  0  0  0  0  0  0  0
   58.3970   30.8990   44.9920 C   0  0  0  0  0  0  0  0  0  0  0  0
   58.4740   32.0730   44.2230 C   0  0  0  0  0  0  0  0  0  0  0  0
   57.7620   32.1830   43.0250 C   0  0  0  0  0  0  0  0  0  0  0  0
   56.9720   31.1230   42.5820 C   0  0  0  0  0  0  0  0  0  0  0  0
   56.8950   29.9470   43.3310 C   0  0  0  0  0  0  0  0  0  0  0  0
   57.6040   29.8230   44.5320 C   0  0  0  0  0  0  0  0  0  0  0  0
   57.5140   28.1470   45.4630 Br  0  0  0  0  0  0  0  0  0  0  0  0
   60.4630   30.3240   46.2840 C   0  0  0  0  0  0  0  0  0  0  0  0
   61.1690   30.2460   47.4870 C   0  0  0  0  0  0  0  0  0  0  0  0
   61.5704   32.9720   51.0936 H   0  0  0  0  0  0  0  0  0  0  0  0
   63.0924   32.4315   51.8821 H   0  0  0  0  0  0  0  0  0  0  0  0
   63.2120   34.6161   50.5177 H   0  0  0  0  0  0  0  0  0  0  0  0
   64.4430   33.3519   50.1401 H   0  0  0  0  0  0  0  0  0  0  0  0
   64.7988   33.1296   47.5843 H   0  0  0  0  0  0  0  0  0  0  0  0
   63.3500   33.4170   45.4370 H   0  0  0  0  0  0  0  0  0  0  0  0
   60.7342   34.0439   44.9001 H   0  0  0  0  0  0  0  0  0  0  0  0
   58.5522   34.6493   46.0090 H   0  0  0  0  0  0  0  0  0  0  0  0
   58.4010   34.7674   48.5076 H   0  0  0  0  0  0  0  0  0  0  0  0
   60.4313   34.2883   49.9234 H   0  0  0  0  0  0  0  0  0  0  0  0
   58.7636   31.4278   49.6125 H   0  0  0  0  0  0  0  0  0  0  0  0
   57.5043   31.5719   47.4655 H   0  0  0  0  0  0  0  0  0  0  0  0
   59.0987   32.9109   44.5661 H   0  0  0  0  0  0  0  0  0  0  0  0
   57.8251   33.1068   42.4312 H   0  0  0  0  0  0  0  0  0  0  0  0
   56.4088   31.2132   41.6414 H   0  0  0  0  0  0  0  0  0  0  0  0
   56.2731   29.1124   42.9751 H   0  0  0  0  0  0  0  0  0  0  0  0
   60.9376   29.9930   45.3485 H   0  0  0  0  0  0  0  0  0  0  0  0
   62.1959   29.8517   47.4942 H   0  0  0  0  0  0  0  0  0  0  0  0
  1  2  2  0
  2  3  1  0
  3  4  1  0
  4  5  1  0
  5  6  1  0
  6  7  2  0
  7  8  1  0
  8  9  1  0
  9 10  2  0
 10 11  1  0
 11 12  2  0
 12 13  1  0
 13 14  2  0
  2 15  1  0
 15 16  2  0
 16 17  1  0
 17 18  2  0
 18 19  1  0
 19 20  2  0
 20 21  1  0
 21 22  2  0
 22 23  1  0
 23 24  2  0
 24 25  1  0
 18 26  1  0
 26 27  2  0
 14  6  1  0
 27 15  1  0
 14  9  1  0
 24 19  1  0
  4 28  1  0
  4 29  1  0
  5 30  1  0
  5 31  1  0
  7 32  1  0
  8 33  1  0
 10 34  1  0
 11 35  1  0
 12 36  1  0
 13 37  1  0
 16 38  1  0
 17 39  1  0
 20 40  1  0
 21 41  1  0
 22 42  1  0
 23 43  1  0
 26 44  1  0
 27 45  1  0
M  CHG  1   3  -1
M  END
>  <UniqueID>  (36) 
32

>  <SMILES>  (36) 
O=C([N-]CCc1c[nH]c2ccccc12)c1ccc(-c2ccccc2Br)cc1

>  <Energy>  (36) 
90.37301818011751

>  <Genealogy>  (36) 
O=C([N-]CCc1c[nH]c2ccccc12)c1ccc(-c2ccccc2Br)cc1 (protonated)
O=C([N-]CCc1c[nH]c2ccccc12)c1ccc(-c2ccccc2Br)cc1 (3D coordinates assigned)
O=C([N-]CCc1c[nH]c2ccccc12)c1ccc(-c2ccccc2Br)cc1 (optimized conformer: 90.37301818011751 kcal/mol)

>  <smiles>  (36) 
O=C(NCCc1c[nH]c2ccccc12)c1ccc(-c2ccccc2Br)cc1

>  <score_type>  (36) 
oracle

>  <origin>  (36) 
adg

>  <m_score__min__energy>  (36) 
-10.359999999999999

>  <m_primary>  (36) 
energy

$$$$
36:0
     RDKit          3D

 32 33  0  0  0  0  0  0  0  0999 V2000
   57.3700   31.3830   43.0630 C   0  0  0  0  0  0  0  0  0  0  0  0
   56.8060   30.0780   43.1030 O   0  0  0  0  0  0  0  0  0  0  0  0
   56.6010   29.3780   44.2970 C   0  0  0  0  0  0  0  0  0  0  0  0
   55.4900   29.4700   44.8900 O   0  0  0  0  0  0  0  0  0  0  0  0
   57.6720   28.5140   44.8660 C   0  0  0  0  0  0  0  0  0  0  0  0
   59.0130   28.9320   44.7590 C   0  0  0  0  0  0  0  0  0  0  0  0
   60.0470   28.1610   45.2900 C   0  0  0  0  0  0  0  0  0  0  0  0
   59.7630   26.9590   45.9340 C   0  0  0  0  0  0  0  0  0  0  0  0
   60.7710   26.2110   46.4460 F   0  0  0  0  0  0  0  0  0  0  0  0
   58.4440   26.5220   46.0460 C   0  0  0  0  0  0  0  0  0  0  0  0
   57.3850   27.2870   45.5180 C   0  0  0  0  0  0  0  0  0  0  0  0
   56.0270   26.8290   45.6210 N   0  0  0  0  0  0  0  0  0  0  0  0
   55.5250   25.2290   46.0670 S   0  0  0  0  0  0  0  0  0  0  0  0
   55.9240   24.9690   47.4910 O   0  0  0  0  0  0  0  0  0  0  0  0
   54.0290   25.1350   45.9510 O   0  0  0  0  0  0  0  0  0  0  0  0
   56.3060   24.0400   45.0310 C   0  0  0  0  0  0  0  0  0  0  0  0
   57.5040   23.4370   45.4360 C   0  0  0  0  0  0  0  0  0  0  0  0
   58.1320   22.4970   44.6110 C   0  0  0  0  0  0  0  0  0  0  0  0
   57.5630   22.1560   43.3810 C   0  0  0  0  0  0  0  0  0  0  0  0
   56.3650   22.7500   42.9750 C   0  0  0  0  0  0  0  0  0  0  0  0
   55.7360   23.6900   43.7980 C   0  0  0  0  0  0  0  0  0  0  0  0
   57.5270   31.7462   44.0894 H   0  0  0  0  0  0  0  0  0  0  0  0
   58.3341   31.3497   42.5343 H   0  0  0  0  0  0  0  0  0  0  0  0
   56.6852   32.0624   42.5343 H   0  0  0  0  0  0  0  0  0  0  0  0
   59.2477   29.8786   44.2502 H   0  0  0  0  0  0  0  0  0  0  0  0
   61.0887   28.5028   45.2000 H   0  0  0  0  0  0  0  0  0  0  0  0
   58.2276   25.5696   46.5521 H   0  0  0  0  0  0  0  0  0  0  0  0
   57.9521   23.7030   46.4047 H   0  0  0  0  0  0  0  0  0  0  0  0
   59.0735   22.0266   44.9307 H   0  0  0  0  0  0  0  0  0  0  0  0
   58.0586   21.4193   42.7317 H   0  0  0  0  0  0  0  0  0  0  0  0
   55.9166   22.4783   42.0080 H   0  0  0  0  0  0  0  0  0  0  0  0
   54.7924   24.1557   43.4776 H   0  0  0  0  0  0  0  0  0  0  0  0
  1  2  1  0
  2  3  1  0
  3  4  2  0
  3  5  1  0
  5  6  2  0
  6  7  1  0
  7  8  2  0
  8  9  1  0
  8 10  1  0
 10 11  2  0
 11 12  1  0
 12 13  1  0
 13 14  2  0
 13 15  2  0
 13 16  1  0
 16 17  2  0
 17 18  1  0
 18 19  2  0
 19 20  1  0
 20 21  2  0
 11  5  1  0
 21 16  1  0
  1 22  1  0
  1 23  1  0
  1 24  1  0
  6 25  1  0
  7 26  1  0
 10 27  1  0
 17 28  1  0
 18 29  1  0
 19 30  1  0
 20 31  1  0
 21 32  1  0
M  CHG  1  12  -1
M  END
>  <UniqueID>  (37) 
33

>  <SMILES>  (37) 
COC(=O)c1ccc(F)cc1[N-]S(=O)(=O)c1ccccc1

>  <Energy>  (37) 
36.538160070676426

>  <Genealogy>  (37) 
COC(=O)c1ccc(F)cc1[N-]S(=O)(=O)c1ccccc1 (protonated)
COC(=O)c1ccc(F)cc1[N-]S(=O)(=O)c1ccccc1 (3D coordinates assigned)
COC(=O)c1ccc(F)cc1[N-]S(=O)(=O)c1ccccc1 (optimized conformer: 36.538160070676426 kcal/mol)

>  <smiles>  (37) 
COC(=O)c1ccc(F)cc1NS(=O)(=O)c1ccccc1

>  <score_type>  (37) 
oracle

>  <origin>  (37) 
adg

>  <m_score__min__energy>  (37) 
-9.1400000000000006

>  <m_primary>  (37) 
energy

$$$$
37:0
     RDKit          3D

 30 31  0  0  0  0  0  0  0  0999 V2000
   61.0220   28.6020   44.8150 C   0  0  0  0  0  0  0  0  0  0  0  0
   59.8830   28.5760   45.7270 N   0  0  0  0  0  0  0  0  0  0  0  0
   59.8850   28.9430   47.0220 C   0  0  0  0  0  0  0  0  0  0  0  0
   58.5930   28.8520   47.5000 C   0  0  0  0  0  0  0  0  0  0  0  0
   57.7910   28.4400   46.5010 N   0  0  0  0  0  0  0  0  0  0  0  0
   58.5970   28.2930   45.4320 C   0  0  0  0  0  0  0  0  0  0  0  0
   58.0040   27.8020   43.8070 S   0  0  0  0  0  0  0  0  0  0  0  0
   57.3010   29.4370   43.3960 C   0  0  0  0  0  0  0  0  0  0  0  0
   56.2790   29.8390   44.4080 C   0  0  0  0  0  0  0  0  0  0  0  0
   55.5200   28.9670   44.9080 O   0  0  0  0  0  0  0  0  0  0  0  0
   56.2460   31.1960   44.8700 N   0  0  0  0  0  0  0  0  0  0  0  0
   57.3760   32.0290   45.1660 C   0  0  0  0  0  0  0  0  0  0  0  0
   57.7450   33.0110   44.2370 C   0  0  0  0  0  0  0  0  0  0  0  0
   58.8300   33.8550   44.4930 C   0  0  0  0  0  0  0  0  0  0  0  0
   59.5470   33.7310   45.6860 C   0  0  0  0  0  0  0  0  0  0  0  0
   59.1710   32.7700   46.6290 C   0  0  0  0  0  0  0  0  0  0  0  0
   58.0860   31.9240   46.3760 C   0  0  0  0  0  0  0  0  0  0  0  0
   61.9561   28.6233   45.3955 H   0  0  0  0  0  0  0  0  0  0  0  0
   61.0047   27.7032   44.1810 H   0  0  0  0  0  0  0  0  0  0  0  0
   60.9637   29.4990   44.1810 H   0  0  0  0  0  0  0  0  0  0  0  0
   60.7651   29.2609   47.6003 H   0  0  0  0  0  0  0  0  0  0  0  0
   58.2722   29.0788   48.5275 H   0  0  0  0  0  0  0  0  0  0  0  0
   56.7590   28.2910   46.5420 H   0  0  0  0  0  0  0  0  0  0  0  0
   58.1082   30.1842   43.3808 H   0  0  0  0  0  0  0  0  0  0  0  0
   56.8188   29.3778   42.4091 H   0  0  0  0  0  0  0  0  0  0  0  0
   57.1777   33.1186   43.3007 H   0  0  0  0  0  0  0  0  0  0  0  0
   59.1194   34.6173   43.7546 H   0  0  0  0  0  0  0  0  0  0  0  0
   60.4063   34.3889   45.8829 H   0  0  0  0  0  0  0  0  0  0  0  0
   59.7296   32.6788   47.5722 H   0  0  0  0  0  0  0  0  0  0  0  0
   57.7874   31.1753   47.1245 H   0  0  0  0  0  0  0  0  0  0  0  0
  1  2  1  0
  2  3  1  0
  3  4  2  0
  4  5  1  0
  5  6  2  0
  6  7  1  0
  7  8  1  0
  8  9  1  0
  9 10  2  0
  9 11  1  0
 11 12  1  0
 12 13  2  0
 13 14  1  0
 14 15  2  0
 15 16  1  0
 16 17  2  0
  6  2  1  0
 17 12  1  0
  1 18  1  0
  1 19  1  0
  1 20  1  0
  3 21  1  0
  4 22  1  0
  5 23  1  0
  8 24  1  0
  8 25  1  0
 13 26  1  0
 14 27  1  0
 15 28  1  0
 16 29  1  0
 17 30  1  0
M  CHG  2   5   1  11  -1
M  END
>  <UniqueID>  (38) 
34

>  <SMILES>  (38) 
Cn1cc[nH+]c1SCC(=O)[N-]c1ccccc1

>  <Energy>  (38) 
57.10704106577833

>  <Genealogy>  (38) 
Cn1cc[nH+]c1SCC(=O)[N-]c1ccccc1 (protonated)
Cn1cc[nH+]c1SCC(=O)[N-]c1ccccc1 (3D coordinates assigned)
Cn1cc[nH+]c1SCC(=O)[N-]c1ccccc1 (optimized conformer: 57.10704106577833 kcal/mol)

>  <smiles>  (38) 
Cn1ccnc1SCC(=O)Nc1ccccc1

>  <score_type>  (38) 
oracle

>  <origin>  (38) 
adg

>  <m_score__min__energy>  (38) 
-6.5

>  <m_primary>  (38) 
energy

$$$$
38:0
     RDKit          3D

 42 43  0  0  0  0  0  0  0  0999 V2000
   62.1990   33.4380   47.0890 C   0  0  0  0  0  0  0  0  0  0  0  0
   61.0000   34.2080   48.2250 S   0  0  0  0  0  0  0  0  0  0  0  0
   59.9630   34.9600   46.9240 C   0  0  0  0  0  0  0  0  0  0  0  0
   59.1090   33.9170   46.2600 C   0  0  0  0  0  0  0  0  0  0  0  0
   58.5650   32.8590   47.0030 C   0  0  0  0  0  0  0  0  0  0  0  0
   57.8240   31.8580   46.3700 C   0  0  0  0  0  0  0  0  0  0  0  0
   57.6100   31.8920   44.9790 C   0  0  0  0  0  0  0  0  0  0  0  0
   56.9050   30.7630   44.3140 C   0  0  0  0  0  0  0  0  0  0  0  0
   55.6640   30.6160   44.4890 O   0  0  0  0  0  0  0  0  0  0  0  0
   57.6120   29.7920   43.5290 N   0  0  0  0  0  0  0  0  0  0  0  0
   57.3960   28.3590   43.7320 C   0  0  0  0  0  0  0  0  0  0  0  0
   58.6340   27.7110   44.3800 C   0  0  2  0  0  0  0  0  0  0  0  0
   58.3360   26.2680   44.8040 C   0  0  0  0  0  0  0  0  0  0  0  0
   59.1480   28.5290   45.5530 C   0  0  0  0  0  0  0  0  0  0  0  0
   60.2850   29.3520   45.4250 C   0  0  0  0  0  0  0  0  0  0  0  0
   60.7860   30.0440   46.5340 C   0  0  0  0  0  0  0  0  0  0  0  0
   60.1620   29.9200   47.7770 C   0  0  0  0  0  0  0  0  0  0  0  0
   59.0310   29.1110   47.9150 C   0  0  0  0  0  0  0  0  0  0  0  0
   58.5240   28.4220   46.8110 C   0  0  0  0  0  0  0  0  0  0  0  0
   58.1430   32.9680   44.2430 C   0  0  0  0  0  0  0  0  0  0  0  0
   58.8830   33.9710   44.8780 C   0  0  0  0  0  0  0  0  0  0  0  0
   62.9842   32.9337   47.6714 H   0  0  0  0  0  0  0  0  0  0  0  0
   61.6829   32.7020   46.4550 H   0  0  0  0  0  0  0  0  0  0  0  0
   62.6536   34.2135   46.4550 H   0  0  0  0  0  0  0  0  0  0  0  0
   59.3140   35.7246   47.3759 H   0  0  0  0  0  0  0  0  0  0  0  0
   60.6184   35.4161   46.1674 H   0  0  0  0  0  0  0  0  0  0  0  0
   58.7228   32.8172   48.0908 H   0  0  0  0  0  0  0  0  0  0  0  0
   57.4031   31.0341   46.9651 H   0  0  0  0  0  0  0  0  0  0  0  0
   58.4300   30.0770   42.9520 H   0  0  0  0  0  0  0  0  0  0  0  0
   56.5261   28.2140   44.3895 H   0  0  0  0  0  0  0  0  0  0  0  0
   57.2178   27.8852   42.7554 H   0  0  0  0  0  0  0  0  0  0  0  0
   59.4308   27.6894   43.6220 H   0  0  0  0  0  0  0  0  0  0  0  0
   58.3227   26.2038   45.9020 H   0  0  0  0  0  0  0  0  0  0  0  0
   57.3561   25.9641   44.4071 H   0  0  0  0  0  0  0  0  0  0  0  0
   59.1153   25.6008   44.4071 H   0  0  0  0  0  0  0  0  0  0  0  0
   60.7814   29.4511   44.4484 H   0  0  0  0  0  0  0  0  0  0  0  0
   61.6724   30.6863   46.4261 H   0  0  0  0  0  0  0  0  0  0  0  0
   60.5611   30.4597   48.6484 H   0  0  0  0  0  0  0  0  0  0  0  0
   58.5393   29.0167   48.8945 H   0  0  0  0  0  0  0  0  0  0  0  0
   57.6303   27.7908   46.9250 H   0  0  0  0  0  0  0  0  0  0  0  0
   57.9756   33.0202   43.1571 H   0  0  0  0  0  0  0  0  0  0  0  0
   59.2897   34.8066   44.2894 H   0  0  0  0  0  0  0  0  0  0  0  0
  1  2  1  0
  2  3  1  0
  3  4  1  0
  4  5  2  0
  5  6  1  0
  6  7  2  0
  7  8  1  0
  8  9  2  0
  8 10  1  0
 10 11  1  0
 11 12  1  0
 12 13  1  0
 12 14  1  0
 14 15  2  0
 15 16  1  0
 16 17  2  0
 17 18  1  0
 18 19  2  0
  7 20  1  0
 20 21  2  0
 21  4  1  0
 19 14  1  0
  1 22  1  0
  1 23  1  0
  1 24  1  0
  3 25  1  0
  3 26  1  0
  5 27  1  0
  6 28  1  0
 10 29  1  0
 11 30  1  0
 11 31  1  0
 12 32  1  6
 13 33  1  0
 13 34  1  0
 13 35  1  0
 15 36  1  0
 16 37  1  0
 17 38  1  0
 18 39  1  0
 19 40  1  0
 20 41  1  0
 21 42  1  0
M  END
>  <UniqueID>  (39) 
35

>  <SMILES>  (39) 
CSCc1ccc(C(=O)NC[C@H](C)c2ccccc2)cc1

>  <Energy>  (39) 
34.2493453441016

>  <Genealogy>  (39) 
CSCc1ccc(C(=O)NC[C@H](C)c2ccccc2)cc1 (chirality)
CSCc1ccc(C(=O)NC[C@H](C)c2ccccc2)cc1 (3D coordinates assigned)
CSCc1ccc(C(=O)NC[C@H](C)c2ccccc2)cc1 (optimized conformer: 34.2493453441016 kcal/mol)

>  <smiles>  (39) 
CSCc1ccc(C(=O)NCC(C)c2ccccc2)cc1

>  <score_type>  (39) 
oracle

>  <origin>  (39) 
adg

>  <m_score__min__energy>  (39) 
-7.4900000000000002

>  <m_primary>  (39) 
energy

$$$$
39:0
     RDKit          3D

 29 30  0  0  0  0  0  0  0  0999 V2000
   56.8732   34.1233   44.6609 H   0  0  0  0  0  0  0  0  0  0  0  0
   57.0860   33.2450   45.2880 C   0  0  0  0  0  0  0  0  0  0  0  0
   57.3610   33.4630   46.5820 C   0  0  0  0  0  0  0  0  0  0  0  0
   56.5176   33.6510   47.2627 H   0  0  0  0  0  0  0  0  0  0  0  0
   58.7220   33.4670   47.1520 C   0  0  0  0  0  0  0  0  0  0  0  0
   58.9440   32.7540   48.3400 C   0  0  0  0  0  0  0  0  0  0  0  0
   58.1071   32.2285   48.8232 H   0  0  0  0  0  0  0  0  0  0  0  0
   60.2130   32.7040   48.9150 C   0  0  0  0  0  0  0  0  0  0  0  0
   60.3719   32.1370   49.8441 H   0  0  0  0  0  0  0  0  0  0  0  0
   61.2890   33.3750   48.3120 C   0  0  0  0  0  0  0  0  0  0  0  0
   62.5840   33.3520   48.8500 O   0  0  0  0  0  0  0  0  0  0  0  0
   63.7680   33.1320   48.0900 C   0  0  0  0  0  0  0  0  0  0  0  0
   64.6170   32.9742   48.7714 H   0  0  0  0  0  0  0  0  0  0  0  0
   63.6367   32.2429   47.4558 H   0  0  0  0  0  0  0  0  0  0  0  0
   63.9649   34.0089   47.4558 H   0  0  0  0  0  0  0  0  0  0  0  0
   61.0710   34.0960   47.1340 C   0  0  0  0  0  0  0  0  0  0  0  0
   61.9142   34.6200   46.6602 H   0  0  0  0  0  0  0  0  0  0  0  0
   59.7960   34.1660   46.5410 C   0  0  0  0  0  0  0  0  0  0  0  0
   59.6350   34.9140   45.3170 N   0  0  0  0  0  0  0  0  0  0  0  0
   59.6480   36.1620   45.3130 O   0  0  0  0  0  0  0  0  0  0  0  0
   59.5570   34.2560   44.1110 O   0  0  0  0  0  0  0  0  0  0  0  0
   57.0460   31.9190   44.6370 C   0  0  0  0  0  0  0  0  0  0  0  0
   56.1210   30.9630   44.8590 N   0  0  0  0  0  0  0  0  0  0  0  0
   56.5140   29.9370   44.0750 C   0  0  0  0  0  0  0  0  0  0  0  0
   55.9732   28.9816   44.0060 H   0  0  0  0  0  0  0  0  0  0  0  0
   57.6380   30.2080   43.3870 N   0  0  0  0  0  0  0  0  0  0  0  0
   58.1390   29.5780   42.7220 H   0  0  0  0  0  0  0  0  0  0  0  0
   57.9830   31.4550   43.7390 C   0  0  0  0  0  0  0  0  0  0  0  0
   58.8600   32.0103   43.3749 H   0  0  0  0  0  0  0  0  0  0  0  0
  1  2  1  0
  2  3  2  0
  3  4  1  0
  3  5  1  0
  5  6  2  0
  6  7  1  0
  6  8  1  0
  8  9  1  0
  8 10  2  0
 10 11  1  0
 11 12  1  0
 12 13  1  0
 12 14  1  0
 12 15  1  0
 10 16  1  0
 16 17  1  0
 16 18  2  0
 18 19  1  0
 19 20  2  0
 19 21  1  0
  2 22  1  0
 22 23  1  0
 23 24  2  0
 24 25  1  0
 24 26  1  0
 26 27  1  0
 26 28  1  0
 28 29  1  0
 18  5  1  0
 28 22  2  0
M  CHG  2  19   1  21  -1
M  END
>  <UniqueID>  (40) 
36

>  <SMILES>  (40) 
COc1ccc(/C=C\c2c[nH]cn2)c([N+](=O)[O-])c1

>  <Energy>  (40) 
69.83125415465418

>  <Genealogy>  (40) 
COc1ccc(/C=C\c2c[nH]cn2)c([N+](=O)[O-])c1 (cis-trans isomerization)
COc1ccc(/C=C\c2c[nH]cn2)c([N+](=O)[O-])c1 (3D coordinates assigned)
COc1ccc(/C=C\c2c[nH]cn2)c([N+](=O)[O-])c1 (optimized conformer: 69.83125415465418 kcal/mol)

>  <smiles>  (40) 
COc1ccc(C=Cc2c[nH]cn2)c([N+](=O)[O-])c1

>  <score_type>  (40) 
oracle

>  <origin>  (40) 
adg

>  <m_score__min__energy>  (40) 
-6.3700000000000001

>  <m_primary>  (40) 
energy

$$$$
40:0
     RDKit          3D

 44 47  0  0  0  0  0  0  0  0999 V2000
   61.3350   30.2490   46.0180 O   0  0  0  0  0  0  0  0  0  0  0  0
   60.0900   30.2190   46.2200 C   0  0  0  0  0  0  0  0  0  0  0  0
   59.3880   31.4790   46.5480 C   0  0  0  0  0  0  0  0  0  0  0  0
   59.9240   32.2940   47.5610 C   0  0  0  0  0  0  0  0  0  0  0  0
   59.3560   33.5350   47.8490 C   0  0  0  0  0  0  0  0  0  0  0  0
   58.2540   33.9830   47.1240 C   0  0  0  0  0  0  0  0  0  0  0  0
   57.7070   33.1870   46.1170 C   0  0  0  0  0  0  0  0  0  0  0  0
   58.2520   31.9230   45.8240 C   0  0  0  0  0  0  0  0  0  0  0  0
   57.6100   31.0990   44.8330 N   0  0  0  0  0  0  0  0  0  0  0  0
   56.6430   30.2320   45.0960 N   0  0  0  0  0  0  0  0  0  0  0  0
   56.2700   29.7180   43.9100 C   0  0  0  0  0  0  0  0  0  0  0  0
   57.0330   30.3160   42.9310 C   0  0  0  0  0  0  0  0  0  0  0  0
   57.8620   31.1860   43.5330 N   0  0  0  0  0  0  0  0  0  0  0  0
   59.3910   28.9570   46.1910 N   0  0  0  0  0  0  0  0  0  0  0  0
   59.6820   27.9540   45.1550 C   0  0  0  0  0  0  0  0  0  0  0  0
   58.3760   27.4010   44.5740 C   0  0  0  0  0  0  0  0  0  0  0  0
   57.3290   27.0280   45.6650 C   0  0  1  0  0  0  0  0  0  0  0  0
   56.7640   25.6250   45.4820 C   0  0  0  0  0  0  0  0  0  0  0  0
   57.6180   24.5750   45.1000 C   0  0  0  0  0  0  0  0  0  0  0  0
   57.1150   23.2860   44.9110 C   0  0  0  0  0  0  0  0  0  0  0  0
   55.7540   23.0490   45.0990 C   0  0  0  0  0  0  0  0  0  0  0  0
   54.9300   24.0690   45.4550 N   0  0  0  0  0  0  0  0  0  0  0  0
   55.3900   25.3360   45.6440 C   0  0  0  0  0  0  0  0  0  0  0  0
   54.5070   26.3040   45.9960 F   0  0  0  0  0  0  0  0  0  0  0  0
   57.8280   27.2450   47.1140 C   0  0  1  0  0  0  0  0  0  0  0  0
   58.7610   26.2890   47.4760 F   0  0  0  0  0  0  0  0  0  0  0  0
   58.4480   28.6430   47.2760 C   0  0  0  0  0  0  0  0  0  0  0  0
   60.7992   31.9497   48.1315 H   0  0  0  0  0  0  0  0  0  0  0  0
   59.7785   34.1604   48.6492 H   0  0  0  0  0  0  0  0  0  0  0  0
   57.8141   34.9665   47.3459 H   0  0  0  0  0  0  0  0  0  0  0  0
   56.8404   33.5514   45.5459 H   0  0  0  0  0  0  0  0  0  0  0  0
   55.4935   28.9554   43.7502 H   0  0  0  0  0  0  0  0  0  0  0  0
   56.9743   30.1171   41.8507 H   0  0  0  0  0  0  0  0  0  0  0  0
   60.2685   28.4218   44.3505 H   0  0  0  0  0  0  0  0  0  0  0  0
   60.2536   27.1285   45.6043 H   0  0  0  0  0  0  0  0  0  0  0  0
   57.9366   28.1632   43.9138 H   0  0  0  0  0  0  0  0  0  0  0  0
   58.6250   26.4777   44.0304 H   0  0  0  0  0  0  0  0  0  0  0  0
   56.5061   27.7419   45.5126 H   0  0  0  0  0  0  0  0  0  0  0  0
   58.6899   24.7704   44.9490 H   0  0  0  0  0  0  0  0  0  0  0  0
   57.7861   22.4656   44.6167 H   0  0  0  0  0  0  0  0  0  0  0  0
   55.3474   22.0365   44.9591 H   0  0  0  0  0  0  0  0  0  0  0  0
   56.9527   27.1544   47.7741 H   0  0  0  0  0  0  0  0  0  0  0  0
   57.6419   29.3914   47.2736 H   0  0  0  0  0  0  0  0  0  0  0  0
   59.0041   28.6601   48.2249 H   0  0  0  0  0  0  0  0  0  0  0  0
  1  2  2  0
  2  3  1  0
  3  4  2  0
  4  5  1  0
  5  6  2  0
  6  7  1  0
  7  8  2  0
  8  9  1  0
  9 10  1  0
 10 11  2  0
 11 12  1  0
 12 13  2  0
  2 14  1  0
 14 15  1  0
 15 16  1  0
 16 17  1  0
 17 18  1  0
 18 19  2  0
 19 20  1  0
 20 21  2  0
 21 22  1  0
 22 23  2  0
 23 24  1  0
 17 25  1  0
 25 26  1  0
 25 27  1  0
  8  3  1  0
 13  9  1  0
 27 14  1  0
 23 18  1  0
  4 28  1  0
  5 29  1  0
  6 30  1  0
  7 31  1  0
 11 32  1  0
 12 33  1  0
 15 34  1  0
 15 35  1  0
 16 36  1  0
 16 37  1  0
 17 38  1  6
 19 39  1  0
 20 40  1  0
 21 41  1  0
 25 42  1  1
 27 43  1  0
 27 44  1  0
M  END
>  <UniqueID>  (41) 
37

>  <SMILES>  (41) 
O=C(c1ccccc1-n1nccn1)N1CC[C@@H](c2cccnc2F)[C@@H](F)C1

>  <Energy>  (41) 
98.29854882084472

>  <Genealogy>  (41) 
O=C(c1ccccc1-n1nccn1)N1CC[C@@H](c2cccnc2F)[C@@H](F)C1 (chirality)
O=C(c1ccccc1-n1nccn1)N1CC[C@@H](c2cccnc2F)[C@@H](F)C1 (3D coordinates assigned)
O=C(c1ccccc1-n1nccn1)N1CC[C@@H](c2cccnc2F)[C@@H](F)C1 (nonaromatic ring conformer: 98.29854882084472 kcal/mol)

>  <smiles>  (41) 
O=C(c1ccccc1-n1nccn1)N1CCC(c2cccnc2F)C(F)C1

>  <score_type>  (41) 
oracle

>  <origin>  (41) 
adg

>  <m_score__min__energy>  (41) 
-8.4299999999999997

>  <m_primary>  (41) 
energy

$$$$
41:0
     RDKit          3D

 59 62  0  0  0  0  0  0  0  0999 V2000
   51.4340   24.1020   44.4390 C   0  0  0  0  0  0  0  0  0  0  0  0
   52.4280   23.0930   44.5890 O   0  0  0  0  0  0  0  0  0  0  0  0
   53.7710   23.3470   44.9090 C   0  0  0  0  0  0  0  0  0  0  0  0
   54.7680   23.4920   43.9240 C   0  0  0  0  0  0  0  0  0  0  0  0
   56.0910   23.7480   44.2940 C   0  0  0  0  0  0  0  0  0  0  0  0
   56.4370   23.8590   45.6480 C   0  0  0  0  0  0  0  0  0  0  0  0
   58.1010   24.2140   46.1050 S   0  0  0  0  0  0  0  0  0  0  0  0
   58.9260   22.9620   45.9850 O   0  0  0  0  0  0  0  0  0  0  0  0
   58.1280   24.6660   47.5390 O   0  0  0  0  0  0  0  0  0  0  0  0
   58.8040   25.4530   45.1130 N   0  0  0  0  0  0  0  0  0  0  0  0
   58.3120   26.7930   45.0440 C   0  0  0  0  0  0  0  0  0  0  0  0
   58.1360   27.4420   43.8140 C   0  0  0  0  0  0  0  0  0  0  0  0
   57.6350   28.7470   43.7720 C   0  0  0  0  0  0  0  0  0  0  0  0
   57.2700   29.4040   44.9520 C   0  0  0  0  0  0  0  0  0  0  0  0
   56.7820   30.7170   44.8710 O   0  0  0  0  0  0  0  0  0  0  0  0
   57.4860   31.8690   45.2500 C   0  0  0  0  0  0  0  0  0  0  0  0
   57.4180   32.9980   44.4290 C   0  0  0  0  0  0  0  0  0  0  0  0
   58.0970   34.1670   44.7770 C   0  0  0  0  0  0  0  0  0  0  0  0
   58.8440   34.2230   45.9590 C   0  0  0  0  0  0  0  0  0  0  0  0
   59.6880   35.7060   46.3750 Cl  0  0  0  0  0  0  0  0  0  0  0  0
   58.9070   33.1070   46.8080 C   0  0  0  0  0  0  0  0  0  0  0  0
   59.6560   33.2010   47.9890 O   0  0  0  0  0  0  0  0  0  0  0  0
   59.2460   32.6890   49.2550 C   0  0  0  0  0  0  0  0  0  0  0  0
   59.8120   31.2810   49.4580 C   0  0  2  0  0  0  0  0  0  0  0  0
   61.1640   31.1040   48.7060 C   0  0  0  0  0  0  0  0  0  0  0  0
   60.9990   30.2280   47.5390 N   0  0  0  0  0  0  0  0  0  0  0  0
   60.4660   28.9140   47.9330 C   0  0  0  0  0  0  0  0  0  0  0  0
   59.3870   29.0380   49.0260 C   0  0  0  0  0  0  0  0  0  0  0  0
   58.8350   30.3390   49.0380 O   0  0  0  0  0  0  0  0  0  0  0  0
   58.2170   31.9300   46.4510 C   0  0  0  0  0  0  0  0  0  0  0  0
   57.4390   28.7480   46.1850 C   0  0  0  0  0  0  0  0  0  0  0  0
   57.9410   27.4440   46.2260 C   0  0  0  0  0  0  0  0  0  0  0  0
   55.4470   23.7140   46.6290 C   0  0  0  0  0  0  0  0  0  0  0  0
   54.1220   23.4610   46.2590 C   0  0  0  0  0  0  0  0  0  0  0  0
   51.1015   24.4396   45.4317 H   0  0  0  0  0  0  0  0  0  0  0  0
   51.8563   24.9532   43.8847 H   0  0  0  0  0  0  0  0  0  0  0  0
   50.5766   23.6925   43.8847 H   0  0  0  0  0  0  0  0  0  0  0  0
   54.5040   23.4034   42.8598 H   0  0  0  0  0  0  0  0  0  0  0  0
   56.8640   23.8629   43.5198 H   0  0  0  0  0  0  0  0  0  0  0  0
   58.3928   26.9231   42.8787 H   0  0  0  0  0  0  0  0  0  0  0  0
   57.5272   29.2602   42.8050 H   0  0  0  0  0  0  0  0  0  0  0  0
   56.8257   32.9652   43.5027 H   0  0  0  0  0  0  0  0  0  0  0  0
   58.0447   35.0474   44.1196 H   0  0  0  0  0  0  0  0  0  0  0  0
   59.6171   33.3494   50.0526 H   0  0  0  0  0  0  0  0  0  0  0  0
   58.1474   32.6451   49.2884 H   0  0  0  0  0  0  0  0  0  0  0  0
   60.0330   31.1140   50.5226 H   0  0  0  0  0  0  0  0  0  0  0  0
   61.5220   32.0885   48.3705 H   0  0  0  0  0  0  0  0  0  0  0  0
   61.8922   30.6459   49.3915 H   0  0  0  0  0  0  0  0  0  0  0  0
   61.9270   30.0990   47.0730 H   0  0  0  0  0  0  0  0  0  0  0  0
   60.3480   30.6810   46.8540 H   0  0  0  0  0  0  0  0  0  0  0  0
   60.0240   28.4298   47.0497 H   0  0  0  0  0  0  0  0  0  0  0  0
   61.2957   28.3162   48.3382 H   0  0  0  0  0  0  0  0  0  0  0  0
   58.5877   28.3085   48.8287 H   0  0  0  0  0  0  0  0  0  0  0  0
   59.8503   28.8415   50.0041 H   0  0  0  0  0  0  0  0  0  0  0  0
   58.2504   31.0541   47.1155 H   0  0  0  0  0  0  0  0  0  0  0  0
   57.1751   29.2632   47.1204 H   0  0  0  0  0  0  0  0  0  0  0  0
   58.0449   26.9273   47.1915 H   0  0  0  0  0  0  0  0  0  0  0  0
   55.7126   23.7994   47.6930 H   0  0  0  0  0  0  0  0  0  0  0  0
   53.3501   23.3508   47.0349 H   0  0  0  0  0  0  0  0  0  0  0  0
  1  2  1  0
  2  3  1  0
  3  4  2  0
  4  5  1  0
  5  6  2  0
  6  7  1  0
  7  8  2  0
  7  9  2  0
  7 10  1  0
 10 11  1  0
 11 12  2  0
 12 13  1  0
 13 14  2  0
 14 15  1  0
 15 16  1  0
 16 17  2  0
 17 18  1  0
 18 19  2  0
 19 20  1  0
 19 21  1  0
 21 22  1  0
 22 23  1  0
 23 24  1  0
 24 25  1  0
 25 26  1  0
 26 27  1  0
 27 28  1  0
 28 29  1  0
 21 30  2  0
 14 31  1  0
 31 32  2  0
  6 33  1  0
 33 34  2  0
 34  3  1  0
 32 11  1  0
 30 16  1  0
 29 24  1  0
  1 35  1  0
  1 36  1  0
  1 37  1  0
  4 38  1  0
  5 39  1  0
 12 40  1  0
 13 41  1  0
 17 42  1  0
 18 43  1  0
 23 44  1  0
 23 45  1  0
 24 46  1  1
 25 47  1  0
 25 48  1  0
 26 49  1  0
 26 50  1  0
 27 51  1  0
 27 52  1  0
 28 53  1  0
 28 54  1  0
 30 55  1  0
 31 56  1  0
 32 57  1  0
 33 58  1  0
 34 59  1  0
M  CHG  2  10  -1  26   1
M  END
>  <UniqueID>  (42) 
38

>  <SMILES>  (42) 
COc1ccc(S(=O)(=O)[N-]c2ccc(Oc3ccc(Cl)c(OC[C@@H]4C[NH2+]CCO4)c3)cc2)cc1

>  <Energy>  (42) 
82.61068590356602

>  <Genealogy>  (42) 
COc1ccc(S(=O)(=O)[N-]c2ccc(Oc3ccc(Cl)c(OCC4C[NH2+]CCO4)c3)cc2)cc1 (protonated)
COc1ccc(S(=O)(=O)[N-]c2ccc(Oc3ccc(Cl)c(OC[C@@H]4C[NH2+]CCO4)c3)cc2)cc1 (chirality)
COc1ccc(S(=O)(=O)[N-]c2ccc(Oc3ccc(Cl)c(OC[C@@H]4C[NH2+]CCO4)c3)cc2)cc1 (3D coordinates assigned)
COc1ccc(S(=O)(=O)[N-]c2ccc(Oc3ccc(Cl)c(OC[C@@H]4C[NH2+]CCO4)c3)cc2)cc1 (nonaromatic ring conformer: 82.61068590356602 kcal/mol)

>  <smiles>  (42) 
COc1ccc(S(=O)(=O)Nc2ccc(Oc3ccc(Cl)c(OCC4CNCCO4)c3)cc2)cc1

>  <score_type>  (42) 
oracle

>  <origin>  (42) 
adg

>  <m_score__min__energy>  (42) 
-8.6600000000000001

>  <m_primary>  (42) 
energy

$$$$
42:0
     RDKit          3D

 26 27  0  0  0  0  0  0  0  0999 V2000
   55.9550   29.6840   44.5190 C   0  0  0  0  0  0  0  0  0  0  0  0
   56.2300   29.8030   43.0420 C   0  0  0  0  0  0  0  0  0  0  0  0
   57.0300   31.0640   42.7160 C   0  0  0  0  0  0  0  0  0  0  0  0
   58.2200   31.1130   43.5610 N   0  0  0  0  0  0  0  0  0  0  0  0
   58.3990   32.1810   44.4870 C   0  0  0  0  0  0  0  0  0  0  0  0
   58.1340   33.4780   44.1010 C   0  0  0  0  0  0  0  0  0  0  0  0
   58.3140   34.5150   45.0200 C   0  0  0  0  0  0  0  0  0  0  0  0
   58.7540   34.2330   46.2980 C   0  0  0  0  0  0  0  0  0  0  0  0
   59.0120   35.0040   47.3720 N   0  0  0  0  0  0  0  0  0  0  0  0
   59.4130   34.2240   48.3580 N   0  0  0  0  0  0  0  0  0  0  0  0
   59.4350   32.9430   47.9910 C   0  0  0  0  0  0  0  0  0  0  0  0
   59.0190   32.9150   46.6790 C   0  0  0  0  0  0  0  0  0  0  0  0
   58.8380   31.9060   45.7660 C   0  0  0  0  0  0  0  0  0  0  0  0
   59.1730   30.2360   46.2440 Cl  0  0  0  0  0  0  0  0  0  0  0  0
   56.8209   30.0587   45.0845 H   0  0  0  0  0  0  0  0  0  0  0  0
   55.0650   30.2775   44.7753 H   0  0  0  0  0  0  0  0  0  0  0  0
   55.7784   28.6289   44.7753 H   0  0  0  0  0  0  0  0  0  0  0  0
   56.8024   28.9228   42.7139 H   0  0  0  0  0  0  0  0  0  0  0  0
   55.2652   29.8636   42.5172 H   0  0  0  0  0  0  0  0  0  0  0  0
   57.3311   31.0448   41.6582 H   0  0  0  0  0  0  0  0  0  0  0  0
   56.4090   31.9526   42.9025 H   0  0  0  0  0  0  0  0  0  0  0  0
   58.9320   30.3620   43.4800 H   0  0  0  0  0  0  0  0  0  0  0  0
   57.7846   33.6939   43.0806 H   0  0  0  0  0  0  0  0  0  0  0  0
   58.1055   35.5542   44.7258 H   0  0  0  0  0  0  0  0  0  0  0  0
   58.9250   36.0420   47.4530 H   0  0  0  0  0  0  0  0  0  0  0  0
   59.7265   32.0823   48.6109 H   0  0  0  0  0  0  0  0  0  0  0  0
  1  2  1  0
  2  3  1  0
  3  4  1  0
  4  5  1  0
  5  6  2  0
  6  7  1  0
  7  8  2  0
  8  9  1  0
  9 10  1  0
 10 11  2  0
 11 12  1  0
 12 13  2  0
 13 14  1  0
 13  5  1  0
 12  8  1  0
  1 15  1  0
  1 16  1  0
  1 17  1  0
  2 18  1  0
  2 19  1  0
  3 20  1  0
  3 21  1  0
  4 22  1  0
  6 23  1  0
  7 24  1  0
  9 25  1  0
 11 26  1  0
M  END
>  <smiles>  (43) 
CCCNc1ccc2[nH]ncc2c1Cl

>  <score_type>  (43) 
oracle

>  <origin>  (43) 
adg

>  <m_score__min__energy>  (43) 
-5.4000000000000004

>  <m_primary>  (43) 
energy

$$$$
43:0
     RDKit          3D

 61 64  0  0  0  0  0  0  0  0999 V2000
   60.3600   28.3670   44.9050 C   0  0  0  0  0  0  0  0  0  0  0  0
   60.9800   27.1770   45.6380 C   0  0  0  0  0  0  0  0  0  0  0  0
   60.1130   26.6710   46.8030 C   0  0  0  0  0  0  0  0  0  0  0  0
   59.8660   27.7440   47.8420 C   0  0  0  0  0  0  0  0  0  0  0  0
   60.7360   27.8500   48.8910 N   0  0  0  0  0  0  0  0  0  0  0  0
   60.6130   28.8160   49.8360 C   0  0  0  0  0  0  0  0  0  0  0  0
   59.5770   29.7460   49.7660 C   0  0  0  0  0  0  0  0  0  0  0  0
   59.5100   30.8500   50.7400 C   0  0  0  0  0  0  0  0  0  0  0  0
   59.0870   30.6270   51.9060 O   0  0  0  0  0  0  0  0  0  0  0  0
   59.9180   32.1770   50.3650 N   0  0  0  0  0  0  0  0  0  0  0  0
   61.1330   32.7410   50.9740 C   0  0  0  0  0  0  0  0  0  0  0  0
   61.5540   34.0640   50.3110 C   0  0  0  0  0  0  0  0  0  0  0  0
   61.1790   34.0640   48.8270 C   0  0  0  0  0  0  0  0  0  0  0  0
   59.6410   34.0300   48.6790 C   0  0  1  0  0  0  0  0  0  0  0  0
   59.1650   33.7970   47.2510 C   0  0  0  0  0  0  0  0  0  0  0  0
   58.1520   32.8440   47.0190 C   0  0  0  0  0  0  0  0  0  0  0  0
   57.7720   32.5090   45.7170 C   0  0  0  0  0  0  0  0  0  0  0  0
   58.4050   33.1120   44.6240 C   0  0  0  0  0  0  0  0  0  0  0  0
   58.0320   32.7470   43.2830 C   0  0  0  0  0  0  0  0  0  0  0  0
   57.7300   32.4560   42.2050 N   0  0  0  0  0  0  0  0  0  0  0  0
   59.4160   34.0530   44.8380 C   0  0  0  0  0  0  0  0  0  0  0  0
   59.8000   34.3880   46.1390 C   0  0  0  0  0  0  0  0  0  0  0  0
   58.9560   33.0470   49.6670 C   0  0  0  0  0  0  0  0  0  0  0  0
   58.6410   29.6390   48.7330 C   0  0  0  0  0  0  0  0  0  0  0  0
   58.7730   28.6430   47.7560 C   0  0  0  0  0  0  0  0  0  0  0  0
   57.7870   28.5880   46.6570 C   0  0  0  0  0  0  0  0  0  0  0  0
   57.4670   29.6390   45.8840 N   0  0  0  0  0  0  0  0  0  0  0  0
   56.5320   29.1520   45.0430 C   0  0  0  0  0  0  0  0  0  0  0  0
   55.8570   29.9890   44.0100 C   0  0  0  0  0  0  0  0  0  0  0  0
   56.2280   27.8540   45.2530 N   0  0  0  0  0  0  0  0  0  0  0  0
   57.0230   27.5020   46.2800 C   0  0  0  0  0  0  0  0  0  0  0  0
   57.1160   26.1100   46.8150 C   0  0  0  0  0  0  0  0  0  0  0  0
   59.9816   29.0933   45.6394 H   0  0  0  0  0  0  0  0  0  0  0  0
   61.1227   28.8469   44.2741 H   0  0  0  0  0  0  0  0  0  0  0  0
   59.5297   28.0169   44.2741 H   0  0  0  0  0  0  0  0  0  0  0  0
   61.1163   26.3551   44.9197 H   0  0  0  0  0  0  0  0  0  0  0  0
   61.9371   27.5143   46.0624 H   0  0  0  0  0  0  0  0  0  0  0  0
   59.1446   26.3353   46.4037 H   0  0  0  0  0  0  0  0  0  0  0  0
   60.6529   25.8466   47.2917 H   0  0  0  0  0  0  0  0  0  0  0  0
   61.5340   27.1810   48.9760 H   0  0  0  0  0  0  0  0  0  0  0  0
   61.3362   28.8656   50.6634 H   0  0  0  0  0  0  0  0  0  0  0  0
   60.9418   32.9247   52.0416 H   0  0  0  0  0  0  0  0  0  0  0  0
   61.9492   32.0173   50.8326 H   0  0  0  0  0  0  0  0  0  0  0  0
   61.0435   34.8989   50.8132 H   0  0  0  0  0  0  0  0  0  0  0  0
   62.6445   34.1759   50.4020 H   0  0  0  0  0  0  0  0  0  0  0  0
   61.5723   34.9740   48.3504 H   0  0  0  0  0  0  0  0  0  0  0  0
   61.6116   33.1767   48.3417 H   0  0  0  0  0  0  0  0  0  0  0  0
   59.3198   35.0459   48.9523 H   0  0  0  0  0  0  0  0  0  0  0  0
   57.6555   32.3590   47.8724 H   0  0  0  0  0  0  0  0  0  0  0  0
   56.9742   31.7702   45.5506 H   0  0  0  0  0  0  0  0  0  0  0  0
   59.9108   34.5312   43.9798 H   0  0  0  0  0  0  0  0  0  0  0  0
   60.6056   35.1200   46.2975 H   0  0  0  0  0  0  0  0  0  0  0  0
   58.4021   33.6311   50.4167 H   0  0  0  0  0  0  0  0  0  0  0  0
   58.2884   32.3990   49.0802 H   0  0  0  0  0  0  0  0  0  0  0  0
   57.7955   30.3411   48.6868 H   0  0  0  0  0  0  0  0  0  0  0  0
   55.2400   30.7541   44.5039 H   0  0  0  0  0  0  0  0  0  0  0  0
   56.6157   30.4790   43.3820 H   0  0  0  0  0  0  0  0  0  0  0  0
   55.2174   29.3514   43.3820 H   0  0  0  0  0  0  0  0  0  0  0  0
   57.1141   26.1389   47.9146 H   0  0  0  0  0  0  0  0  0  0  0  0
   56.2551   25.5233   46.4621 H   0  0  0  0  0  0  0  0  0  0  0  0
   58.0473   25.6430   46.4621 H   0  0  0  0  0  0  0  0  0  0  0  0
  1  2  1  0
  2  3  1  0
  3  4  1  0
  4  5  2  0
  5  6  1  0
  6  7  2  0
  7  8  1  0
  8  9  2  0
  8 10  1  0
 10 11  1  0
 11 12  1  0
 12 13  1  0
 13 14  1  0
 14 15  1  0
 15 16  2  0
 16 17  1  0
 17 18  2  0
 18 19  1  0
 19 20  3  0
 18 21  1  0
 21 22  2  0
 14 23  1  0
  7 24  1  0
 24 25  2  0
 25 26  1  0
 26 27  1  0
 27 28  2  0
 28 29  1  0
 28 30  1  0
 30 31  1  0
 31 32  1  0
 25  4  1  0
 31 26  2  0
 23 10  1  0
 22 15  1  0
  1 33  1  0
  1 34  1  0
  1 35  1  0
  2 36  1  0
  2 37  1  0
  3 38  1  0
  3 39  1  0
  5 40  1  0
  6 41  1  0
 11 42  1  0
 11 43  1  0
 12 44  1  0
 12 45  1  0
 13 46  1  0
 13 47  1  0
 14 48  1  1
 16 49  1  0
 17 50  1  0
 21 51  1  0
 22 52  1  0
 23 53  1  0
 23 54  1  0
 24 55  1  0
 29 56  1  0
 29 57  1  0
 29 58  1  0
 32 59  1  0
 32 60  1  0
 32 61  1  0
M  CHG  2   5   1  30  -1
M  END
>  <UniqueID>  (44) 
39

>  <SMILES>  (44) 
CCCc1[nH+]cc(C(=O)N2CCC[C@@H](c3ccc(C#N)cc3)C2)cc1-c1nc(C)[n-]c1C

>  <Energy>  (44) 
99.31314235671647

>  <Genealogy>  (44) 
CCCc1[nH+]cc(C(=O)N2CCCC(c3ccc(C#N)cc3)C2)cc1-c1nc(C)[n-]c1C (protonated)
CCCc1[nH+]cc(C(=O)N2CCC[C@@H](c3ccc(C#N)cc3)C2)cc1-c1nc(C)[n-]c1C (chirality)
CCCc1[nH+]cc(C(=O)N2CCC[C@@H](c3ccc(C#N)cc3)C2)cc1-c1nc(C)[n-]c1C (3D coordinates assigned)
CCCc1[nH+]cc(C(=O)N2CCC[C@@H](c3ccc(C#N)cc3)C2)cc1-c1nc(C)[n-]c1C (nonaromatic ring conformer: 99.31314235671647 kcal/mol)

>  <smiles>  (44) 
CCCc1ncc(C(=O)N2CCCC(c3ccc(C#N)cc3)C2)cc1-c1nc(C)[nH]c1C

>  <score_type>  (44) 
oracle

>  <origin>  (44) 
adg

>  <m_score__min__energy>  (44) 
-8.6699999999999999

>  <m_primary>  (44) 
energy

$$$$
44:0
     RDKit          3D

 52 54  0  0  0  0  0  0  0  0999 V2000
   59.7700   32.8680   50.1950 C   0  0  0  0  0  0  0  0  0  0  0  0
   60.2110   34.1850   49.5630 C   0  0  0  0  0  0  0  0  0  0  0  0
   61.3760   33.9720   48.6230 C   0  0  0  0  0  0  0  0  0  0  0  0
   62.5770   33.4560   49.1470 C   0  0  0  0  0  0  0  0  0  0  0  0
   63.6500   33.1550   48.3070 C   0  0  0  0  0  0  0  0  0  0  0  0
   63.5330   33.3390   46.9310 C   0  0  0  0  0  0  0  0  0  0  0  0
   62.3480   33.8400   46.3910 C   0  0  0  0  0  0  0  0  0  0  0  0
   61.2770   34.1910   47.2230 C   0  0  0  0  0  0  0  0  0  0  0  0
   60.0780   34.6740   46.6050 N   0  0  0  0  0  0  0  0  0  0  0  0
   59.3000   33.9850   45.6200 C   0  0  0  0  0  0  0  0  0  0  0  0
   59.3310   34.4060   44.4340 O   0  0  0  0  0  0  0  0  0  0  0  0
   58.4730   32.8480   45.9560 N   0  0  0  0  0  0  0  0  0  0  0  0
   58.8690   31.9350   47.0420 C   0  0  0  0  0  0  0  0  0  0  0  0
   60.1710   31.1880   46.7100 C   0  0  0  0  0  0  0  0  0  0  0  0
   59.9520   29.7240   46.7240 N   0  0  0  0  0  0  0  0  0  0  0  0
   58.5150   29.4150   46.8920 C   0  0  0  0  0  0  0  0  0  0  0  0
   58.1930   27.9970   46.3920 C   0  0  0  0  0  0  0  0  0  0  0  0
   58.4770   27.7960   45.0120 O   0  0  0  0  0  0  0  0  0  0  0  0
   59.4720   28.6710   44.5000 C   0  0  0  0  0  0  0  0  0  0  0  0
   60.5420   29.0510   45.5400 C   0  0  0  0  0  0  0  0  0  0  0  0
   57.0910   32.8050   45.4520 C   0  0  0  0  0  0  0  0  0  0  0  0
   56.9020   31.6430   44.5250 C   0  0  0  0  0  0  0  0  0  0  0  0
   57.3850   31.5480   43.2350 C   0  0  0  0  0  0  0  0  0  0  0  0
   56.9580   30.3240   42.7680 C   0  0  0  0  0  0  0  0  0  0  0  0
   56.2420   29.7490   43.7990 C   0  0  0  0  0  0  0  0  0  0  0  0
   56.2260   30.5610   44.8330 O   0  0  0  0  0  0  0  0  0  0  0  0
   59.8004   32.9588   51.2908 H   0  0  0  0  0  0  0  0  0  0  0  0
   58.7442   32.6331   49.8749 H   0  0  0  0  0  0  0  0  0  0  0  0
   60.4475   32.0627   49.8749 H   0  0  0  0  0  0  0  0  0  0  0  0
   59.3686   34.6138   49.0004 H   0  0  0  0  0  0  0  0  0  0  0  0
   60.5277   34.8692   50.3640 H   0  0  0  0  0  0  0  0  0  0  0  0
   62.6703   33.2884   50.2301 H   0  0  0  0  0  0  0  0  0  0  0  0
   64.5895   32.7719   48.7319 H   0  0  0  0  0  0  0  0  0  0  0  0
   64.3757   33.0891   46.2696 H   0  0  0  0  0  0  0  0  0  0  0  0
   62.2539   33.9605   45.3017 H   0  0  0  0  0  0  0  0  0  0  0  0
   59.0177   32.5189   47.9623 H   0  0  0  0  0  0  0  0  0  0  0  0
   58.0700   31.1903   47.1726 H   0  0  0  0  0  0  0  0  0  0  0  0
   60.5171   31.4919   45.7111 H   0  0  0  0  0  0  0  0  0  0  0  0
   60.9268   31.4400   47.4685 H   0  0  0  0  0  0  0  0  0  0  0  0
   58.2537   29.4883   47.9580 H   0  0  0  0  0  0  0  0  0  0  0  0
   57.9306   30.1356   46.3010 H   0  0  0  0  0  0  0  0  0  0  0  0
   58.7879   27.2798   46.9765 H   0  0  0  0  0  0  0  0  0  0  0  0
   57.1105   27.8501   46.5209 H   0  0  0  0  0  0  0  0  0  0  0  0
   59.9690   28.1767   43.6523 H   0  0  0  0  0  0  0  0  0  0  0  0
   58.9656   29.5999   44.1990 H   0  0  0  0  0  0  0  0  0  0  0  0
   61.0563   28.1366   45.8708 H   0  0  0  0  0  0  0  0  0  0  0  0
   61.2437   29.7524   45.0650 H   0  0  0  0  0  0  0  0  0  0  0  0
   56.3996   32.7054   46.3017 H   0  0  0  0  0  0  0  0  0  0  0  0
   56.8862   33.7346   44.9007 H   0  0  0  0  0  0  0  0  0  0  0  0
   57.9853   32.2937   42.6932 H   0  0  0  0  0  0  0  0  0  0  0  0
   57.1490   29.8922   41.7745 H   0  0  0  0  0  0  0  0  0  0  0  0
   55.7585   28.7617   43.7611 H   0  0  0  0  0  0  0  0  0  0  0  0
  1  2  1  0
  2  3  1  0
  3  4  2  0
  4  5  1  0
  5  6  2  0
  6  7  1  0
  7  8  2  0
  8  9  1  0
  9 10  1  0
 10 11  2  0
 10 12  1  0
 12 13  1  0
 13 14  1  0
 14 15  1  0
 15 16  1  0
 16 17  1  0
 17 18  1  0
 18 19  1  0
 19 20  1  0
 12 21  1  0
 21 22  1  0
 22 23  2  0
 23 24  1  0
 24 25  2  0
 25 26  1  0
  8  3  1  0
 20 15  1  0
 26 22  1  0
  1 27  1  0
  1 28  1  0
  1 29  1  0
  2 30  1  0
  2 31  1  0
  4 32  1  0
  5 33  1  0
  6 34  1  0
  7 35  1  0
 13 36  1  0
 13 37  1  0
 14 38  1  0
 14 39  1  0
 16 40  1  0
 16 41  1  0
 17 42  1  0
 17 43  1  0
 19 44  1  0
 19 45  1  0
 20 46  1  0
 20 47  1  0
 21 48  1  0
 21 49  1  0
 23 50  1  0
 24 51  1  0
 25 52  1  0
M  CHG  1   9  -1
M  END
>  <UniqueID>  (45) 
40

>  <SMILES>  (45) 
CCc1ccccc1[N-]C(=O)N(CCN1CCOCC1)Cc1ccco1

>  <Energy>  (45) 
95.1875125187483

>  <Genealogy>  (45) 
CCc1ccccc1[N-]C(=O)N(CCN1CCOCC1)Cc1ccco1 (protonated)
CCc1ccccc1[N-]C(=O)N(CCN1CCOCC1)Cc1ccco1 (3D coordinates assigned)
CCc1ccccc1[N-]C(=O)N(CCN1CCOCC1)Cc1ccco1 (nonaromatic ring conformer: 95.1875125187483 kcal/mol)

>  <smiles>  (45) 
CCc1ccccc1NC(=O)N(CCN1CCOCC1)Cc1ccco1

>  <score_type>  (45) 
oracle

>  <origin>  (45) 
adg

>  <m_score__min__energy>  (45) 
-9.0899999999999999

>  <m_primary>  (45) 
energy

$$$$
45:0
     RDKit          3D

 39 40  0  0  0  0  0  0  0  0999 V2000
   58.4680   30.2430   54.7620 H   0  0  0  0  0  0  0  0  0  0  0  0
   57.7530   30.1520   54.0510 O   0  0  0  0  0  0  0  0  0  0  0  0
   58.0190   30.4280   52.7120 C   0  0  0  0  0  0  0  0  0  0  0  0
   58.6740   29.4720   51.9270 C   0  0  0  0  0  0  0  0  0  0  0  0
   58.9740   28.5107   52.3697 H   0  0  0  0  0  0  0  0  0  0  0  0
   58.9480   29.7360   50.5810 C   0  0  0  0  0  0  0  0  0  0  0  0
   59.4571   28.9785   49.9670 H   0  0  0  0  0  0  0  0  0  0  0  0
   58.5760   30.9640   50.0100 C   0  0  0  0  0  0  0  0  0  0  0  0
   58.8370   31.2320   48.5530 C   0  0  0  0  0  0  0  0  0  0  0  0
   59.5174   32.0912   48.4595 H   0  0  0  0  0  0  0  0  0  0  0  0
   57.8804   31.4487   48.0550 H   0  0  0  0  0  0  0  0  0  0  0  0
   59.4760   30.0080   47.8860 C   0  0  0  0  0  0  0  0  0  0  0  0
   58.6875   29.2771   47.6537 H   0  0  0  0  0  0  0  0  0  0  0  0
   60.2143   29.5855   48.5834 H   0  0  0  0  0  0  0  0  0  0  0  0
   60.1920   30.3740   46.6120 C   0  0  0  0  0  0  0  0  0  0  0  0
   60.0520   31.5330   46.1370 O   0  0  0  0  0  0  0  0  0  0  0  0
   60.8980   29.3630   45.7970 C   0  0  0  0  0  0  0  0  0  0  0  0
   61.9649   29.5354   45.5920 H   0  0  0  0  0  0  0  0  0  0  0  0
   60.3450   28.2530   45.2870 C   0  0  0  0  0  0  0  0  0  0  0  0
   60.9940   27.5849   44.7018 H   0  0  0  0  0  0  0  0  0  0  0  0
   58.9310   27.8590   45.4510 C   0  0  0  0  0  0  0  0  0  0  0  0
   58.6260   26.6440   46.0790 C   0  0  0  0  0  0  0  0  0  0  0  0
   59.4376   25.9863   46.4236 H   0  0  0  0  0  0  0  0  0  0  0  0
   57.2950   26.2650   46.2690 C   0  0  0  0  0  0  0  0  0  0  0  0
   57.0621   25.3015   46.7460 H   0  0  0  0  0  0  0  0  0  0  0  0
   56.2580   27.1060   45.8550 C   0  0  0  0  0  0  0  0  0  0  0  0
   54.9390   26.7140   46.0470 O   0  0  0  0  0  0  0  0  0  0  0  0
   56.5450   28.3400   45.2540 C   0  0  0  0  0  0  0  0  0  0  0  0
   55.4730   29.1600   44.8670 O   0  0  0  0  0  0  0  0  0  0  0  0
   55.5190   30.0920   43.7910 C   0  0  0  0  0  0  0  0  0  0  0  0
   55.5695   31.1145   44.1935 H   0  0  0  0  0  0  0  0  0  0  0  0
   56.4086   29.8964   43.1743 H   0  0  0  0  0  0  0  0  0  0  0  0
   54.6145   29.9849   43.1743 H   0  0  0  0  0  0  0  0  0  0  0  0
   57.8890   28.7160   45.0600 C   0  0  0  0  0  0  0  0  0  0  0  0
   58.1238   29.6869   44.5994 H   0  0  0  0  0  0  0  0  0  0  0  0
   57.9050   31.9140   50.7970 C   0  0  0  0  0  0  0  0  0  0  0  0
   57.5914   32.8703   50.3529 H   0  0  0  0  0  0  0  0  0  0  0  0
   57.6340   31.6490   52.1430 C   0  0  0  0  0  0  0  0  0  0  0  0
   57.1171   32.4013   52.7568 H   0  0  0  0  0  0  0  0  0  0  0  0
  1  2  1  0
  2  3  1  0
  3  4  2  0
  4  5  1  0
  4  6  1  0
  6  7  1  0
  6  8  2  0
  8  9  1  0
  9 10  1  0
  9 11  1  0
  9 12  1  0
 12 13  1  0
 12 14  1  0
 12 15  1  0
 15 16  2  0
 15 17  1  0
 17 18  1  0
 17 19  2  0
 19 20  1  0
 19 21  1  0
 21 22  2  0
 22 23  1  0
 22 24  1  0
 24 25  1  0
 24 26  2  0
 26 27  1  0
 26 28  1  0
 28 29  1  0
 29 30  1  0
 30 31  1  0
 30 32  1  0
 30 33  1  0
 28 34  2  0
 34 35  1  0
  8 36  1  0
 36 37  1  0
 36 38  2  0
 38 39  1  0
 38  3  1  0
 34 21  1  0
M  CHG  1  27  -1
M  END
>  <UniqueID>  (46) 
41

>  <SMILES>  (46) 
COc1cc(/C=C\C(=O)CCc2ccc(O)cc2)ccc1[O-]

>  <Energy>  (46) 
42.89792793027295

>  <Genealogy>  (46) 
COc1cc(C=CC(=O)CCc2ccc(O)cc2)ccc1[O-] (protonated)
COc1cc(/C=C\C(=O)CCc2ccc(O)cc2)ccc1[O-] (cis-trans isomerization)
COc1cc(/C=C\C(=O)CCc2ccc(O)cc2)ccc1[O-] (3D coordinates assigned)
COc1cc(/C=C\C(=O)CCc2ccc(O)cc2)ccc1[O-] (optimized conformer: 42.89792793027295 kcal/mol)

>  <smiles>  (46) 
COc1cc(C=CC(=O)CCc2ccc(O)cc2)ccc1O

>  <score_type>  (46) 
oracle

>  <origin>  (46) 
adg

>  <m_score__min__energy>  (46) 
-10.5

>  <m_primary>  (46) 
energy

$$$$
46:0
     RDKit          3D

 59 62  0  0  0  0  0  0  0  0999 V2000
   63.7710   34.0630   47.5260 C   0  0  0  0  0  0  0  0  0  0  0  0
   62.7420   33.8410   46.4170 C   0  0  0  0  0  0  0  0  0  0  0  0
   61.3720   33.7720   46.9540 N   0  0  0  0  0  0  0  0  0  0  0  0
   60.2370   34.1960   46.1780 C   0  0  0  0  0  0  0  0  0  0  0  0
   60.1150   35.4170   45.8880 O   0  0  0  0  0  0  0  0  0  0  0  0
   59.2030   33.2300   45.7430 C   0  0  0  0  0  0  0  0  0  0  0  0
   57.9370   33.6580   45.3350 C   0  0  0  0  0  0  0  0  0  0  0  0
   57.0010   32.7130   44.9260 C   0  0  0  0  0  0  0  0  0  0  0  0
   57.3400   31.3600   44.9410 C   0  0  0  0  0  0  0  0  0  0  0  0
   56.5130   30.5060   44.5130 O   0  0  0  0  0  0  0  0  0  0  0  0
   58.5780   30.9770   45.3950 N   0  0  0  0  0  0  0  0  0  0  0  0
   58.9940   29.5680   45.4330 C   0  0  0  0  0  0  0  0  0  0  0  0
   59.3020   29.1620   46.8480 C   0  0  0  0  0  0  0  0  0  0  0  0
   58.8000   29.9080   47.9260 C   0  0  0  0  0  0  0  0  0  0  0  0
   59.1490   29.5710   49.2400 C   0  0  0  0  0  0  0  0  0  0  0  0
   60.0010   28.4920   49.4830 C   0  0  0  0  0  0  0  0  0  0  0  0
   60.5040   27.7440   48.4120 C   0  0  0  0  0  0  0  0  0  0  0  0
   60.1590   28.0800   47.0990 C   0  0  0  0  0  0  0  0  0  0  0  0
   59.4720   31.8980   45.7640 N   0  0  0  0  0  0  0  0  0  0  0  0
   61.1480   33.0960   48.2040 C   0  0  0  0  0  0  0  0  0  0  0  0
   60.3880   33.6940   49.2240 C   0  0  0  0  0  0  0  0  0  0  0  0
   59.7510   34.9540   48.9660 N   0  0  0  0  0  0  0  0  0  0  0  0
   60.3000   33.0960   50.4600 N   0  0  0  0  0  0  0  0  0  0  0  0
   59.4650   33.6790   51.5340 C   0  0  0  0  0  0  0  0  0  0  0  0
   58.4340   32.6960   52.0360 C   0  0  0  0  0  0  0  0  0  0  0  0
   57.6000   32.0000   51.1420 C   0  0  0  0  0  0  0  0  0  0  0  0
   56.6920   31.0480   51.6190 C   0  0  0  0  0  0  0  0  0  0  0  0
   56.6080   30.7820   52.9880 C   0  0  0  0  0  0  0  0  0  0  0  0
   57.4310   31.4670   53.8850 C   0  0  0  0  0  0  0  0  0  0  0  0
   58.3440   32.4150   53.4120 C   0  0  0  0  0  0  0  0  0  0  0  0
   60.9660   31.9180   50.6950 C   0  0  0  0  0  0  0  0  0  0  0  0
   60.9250   31.3750   51.8320 O   0  0  0  0  0  0  0  0  0  0  0  0
   61.6870   31.3250   49.7070 N   0  0  0  0  0  0  0  0  0  0  0  0
   61.7900   31.8850   48.4760 C   0  0  0  0  0  0  0  0  0  0  0  0
   62.4920   31.3230   47.5920 O   0  0  0  0  0  0  0  0  0  0  0  0
   63.2825   33.9576   48.5059 H   0  0  0  0  0  0  0  0  0  0  0  0
   64.5748   33.3176   47.4349 H   0  0  0  0  0  0  0  0  0  0  0  0
   64.1960   35.0735   47.4349 H   0  0  0  0  0  0  0  0  0  0  0  0
   62.8033   34.6740   45.7013 H   0  0  0  0  0  0  0  0  0  0  0  0
   62.9674   32.8831   45.9254 H   0  0  0  0  0  0  0  0  0  0  0  0
   57.6835   34.7284   45.3371 H   0  0  0  0  0  0  0  0  0  0  0  0
   56.0017   33.0304   44.5935 H   0  0  0  0  0  0  0  0  0  0  0  0
   58.1821   28.9375   45.0414 H   0  0  0  0  0  0  0  0  0  0  0  0
   59.8955   29.4403   44.8157 H   0  0  0  0  0  0  0  0  0  0  0  0
   58.1303   30.7602   47.7382 H   0  0  0  0  0  0  0  0  0  0  0  0
   58.7513   30.1572   50.0815 H   0  0  0  0  0  0  0  0  0  0  0  0
   60.2768   28.2299   50.5151 H   0  0  0  0  0  0  0  0  0  0  0  0
   61.1715   26.8909   48.6034 H   0  0  0  0  0  0  0  0  0  0  0  0
   60.5612   27.4936   46.2597 H   0  0  0  0  0  0  0  0  0  0  0  0
   59.7510   35.3660   48.0000 H   0  0  0  0  0  0  0  0  0  0  0  0
   59.3630   35.5210   49.7580 H   0  0  0  0  0  0  0  0  0  0  0  0
   60.1151   33.9725   52.3714 H   0  0  0  0  0  0  0  0  0  0  0  0
   58.9355   34.5506   51.1217 H   0  0  0  0  0  0  0  0  0  0  0  0
   57.6619   32.2051   50.0631 H   0  0  0  0  0  0  0  0  0  0  0  0
   56.0428   30.5077   50.9143 H   0  0  0  0  0  0  0  0  0  0  0  0
   55.8934   30.0328   53.3596 H   0  0  0  0  0  0  0  0  0  0  0  0
   57.3610   31.2608   54.9632 H   0  0  0  0  0  0  0  0  0  0  0  0
   58.9968   32.9451   54.1211 H   0  0  0  0  0  0  0  0  0  0  0  0
   62.1940   30.4320   49.9060 H   0  0  0  0  0  0  0  0  0  0  0  0
  1  2  1  0
  2  3  1  0
  3  4  1  0
  4  5  2  0
  4  6  1  0
  6  7  1  0
  7  8  2  0
  8  9  1  0
  9 10  2  0
  9 11  1  0
 11 12  1  0
 12 13  1  0
 13 14  2  0
 14 15  1  0
 15 16  2  0
 16 17  1  0
 17 18  2  0
 11 19  1  0
  3 20  1  0
 20 21  2  0
 21 22  1  0
 21 23  1  0
 23 24  1  0
 24 25  1  0
 25 26  2  0
 26 27  1  0
 27 28  2  0
 28 29  1  0
 29 30  2  0
 23 31  1  0
 31 32  2  0
 31 33  1  0
 33 34  1  0
 34 35  2  0
 19  6  2  0
 34 20  1  0
 18 13  1  0
 30 25  1  0
  1 36  1  0
  1 37  1  0
  1 38  1  0
  2 39  1  0
  2 40  1  0
  7 41  1  0
  8 42  1  0
 12 43  1  0
 12 44  1  0
 14 45  1  0
 15 46  1  0
 16 47  1  0
 17 48  1  0
 18 49  1  0
 22 50  1  0
 22 51  1  0
 24 52  1  0
 24 53  1  0
 26 54  1  0
 27 55  1  0
 28 56  1  0
 29 57  1  0
 30 58  1  0
 33 59  1  0
M  END
>  <UniqueID>  (47) 
42

>  <SMILES>  (47) 
CCN(C(=O)c1ccc(=O)n(Cc2ccccc2)n1)c1c(N)n(Cc2ccccc2)c(=O)[nH]c1=O

>  <Energy>  (47) 
82.15854685321784

>  <Genealogy>  (47) 
CCN(C(=O)c1ccc(=O)n(Cc2ccccc2)n1)c1c(N)n(Cc2ccccc2)c(=O)[nH]c1=O (3D coordinates assigned)
CCN(C(=O)c1ccc(=O)n(Cc2ccccc2)n1)c1c(N)n(Cc2ccccc2)c(=O)[nH]c1=O (optimized conformer: 82.15854685321784 kcal/mol)

>  <smiles>  (47) 
CCN(C(=O)c1ccc(=O)n(Cc2ccccc2)n1)c1c(N)n(Cc2ccccc2)c(=O)[nH]c1=O

>  <score_type>  (47) 
oracle

>  <origin>  (47) 
adg

>  <m_score__min__energy>  (47) 
-8.9700000000000006

>  <m_primary>  (47) 
energy

$$$$
47:0
     RDKit          3D

 39 40  0  0  0  0  0  0  0  0999 V2000
   62.7220   33.8360   48.6110 C   0  0  0  0  0  0  0  0  0  0  0  0
   61.4590   34.4940   48.6460 O   0  0  0  0  0  0  0  0  0  0  0  0
   60.3910   34.2030   47.7850 C   0  0  0  0  0  0  0  0  0  0  0  0
   60.3970   34.5650   46.4250 C   0  0  0  0  0  0  0  0  0  0  0  0
   59.3070   34.2490   45.6060 C   0  0  0  0  0  0  0  0  0  0  0  0
   58.2030   33.5560   46.1270 C   0  0  0  0  0  0  0  0  0  0  0  0
   57.0260   33.2220   45.2430 C   0  0  0  0  0  0  0  0  0  0  0  0
   57.2710   31.9970   44.3390 C   0  0  0  0  0  0  0  0  0  0  0  0
   57.0080   30.7200   45.0440 N   0  0  0  0  0  0  0  0  0  0  0  0
   56.3660   29.7270   44.1450 C   0  0  0  0  0  0  0  0  0  0  0  0
   57.3980   28.8080   43.4700 C   0  0  0  0  0  0  0  0  0  0  0  0
   58.2130   28.0530   44.4540 N   0  0  0  0  0  0  0  0  0  0  0  0
   57.7900   26.6460   44.5370 C   0  0  0  0  0  0  0  0  0  0  0  0
   58.2290   28.6630   45.8010 C   0  0  0  0  0  0  0  0  0  0  0  0
   58.2280   30.1940   45.7120 C   0  0  0  0  0  0  0  0  0  0  0  0
   58.1930   33.2130   47.4890 C   0  0  0  0  0  0  0  0  0  0  0  0
   59.2810   33.5290   48.3060 C   0  0  0  0  0  0  0  0  0  0  0  0
   63.0697   33.6549   49.6388 H   0  0  0  0  0  0  0  0  0  0  0  0
   62.6208   32.8760   48.0836 H   0  0  0  0  0  0  0  0  0  0  0  0
   63.4508   34.4690   48.0836 H   0  0  0  0  0  0  0  0  0  0  0  0
   61.2620   35.0985   46.0040 H   0  0  0  0  0  0  0  0  0  0  0  0
   59.3155   34.5457   44.5468 H   0  0  0  0  0  0  0  0  0  0  0  0
   56.1559   33.0150   45.8834 H   0  0  0  0  0  0  0  0  0  0  0  0
   56.8584   34.0859   44.5830 H   0  0  0  0  0  0  0  0  0  0  0  0
   56.6061   32.0628   43.4652 H   0  0  0  0  0  0  0  0  0  0  0  0
   58.3290   32.0052   44.0382 H   0  0  0  0  0  0  0  0  0  0  0  0
   55.6732   29.1094   44.7354 H   0  0  0  0  0  0  0  0  0  0  0  0
   55.8342   30.2780   43.3553 H   0  0  0  0  0  0  0  0  0  0  0  0
   56.8657   28.0908   42.8279 H   0  0  0  0  0  0  0  0  0  0  0  0
   58.0807   29.4427   42.8860 H   0  0  0  0  0  0  0  0  0  0  0  0
   57.7014   26.3514   45.5931 H   0  0  0  0  0  0  0  0  0  0  0  0
   56.8161   26.5260   44.0400 H   0  0  0  0  0  0  0  0  0  0  0  0
   58.5363   26.0088   44.0400 H   0  0  0  0  0  0  0  0  0  0  0  0
   57.3374   28.3345   46.3551 H   0  0  0  0  0  0  0  0  0  0  0  0
   59.1450   28.3431   46.3193 H   0  0  0  0  0  0  0  0  0  0  0  0
   58.2800   30.6075   46.7300 H   0  0  0  0  0  0  0  0  0  0  0  0
   59.0978   30.4965   45.1104 H   0  0  0  0  0  0  0  0  0  0  0  0
   57.3228   32.6922   47.9150 H   0  0  0  0  0  0  0  0  0  0  0  0
   59.2650   33.2454   49.3687 H   0  0  0  0  0  0  0  0  0  0  0  0
  1  2  1  0
  2  3  1  0
  3  4  2  0
  4  5  1  0
  5  6  2  0
  6  7  1  0
  7  8  1  0
  8  9  1  0
  9 10  1  0
 10 11  1  0
 11 12  1  0
 12 13  1  0
 12 14  1  0
 14 15  1  0
  6 16  1  0
 16 17  2  0
 17  3  1  0
 15  9  1  0
  1 18  1  0
  1 19  1  0
  1 20  1  0
  4 21  1  0
  5 22  1  0
  7 23  1  0
  7 24  1  0
  8 25  1  0
  8 26  1  0
 10 27  1  0
 10 28  1  0
 11 29  1  0
 11 30  1  0
 13 31  1  0
 13 32  1  0
 13 33  1  0
 14 34  1  0
 14 35  1  0
 15 36  1  0
 15 37  1  0
 16 38  1  0
 17 39  1  0
M  END
>  <UniqueID>  (48) 
43

>  <SMILES>  (48) 
COc1ccc(CCN2CCN(C)CC2)cc1

>  <Energy>  (48) 
49.67719074741982

>  <Genealogy>  (48) 
COc1ccc(CCN2CCN(C)CC2)cc1 (3D coordinates assigned)
COc1ccc(CCN2CCN(C)CC2)cc1 (nonaromatic ring conformer: 49.67719074741982 kcal/mol)

>  <smiles>  (48) 
COc1ccc(CCN2CCN(C)CC2)cc1

>  <score_type>  (48) 
oracle

>  <origin>  (48) 
adg

>  <m_score__min__energy>  (48) 
-6.2199999999999998

>  <m_primary>  (48) 
energy

$$$$
48:0
     RDKit          3D

 42 44  0  0  0  0  0  0  0  0999 V2000
   56.3700   29.3470   43.9230 C   0  0  0  0  0  0  0  0  0  0  0  0
   57.2270   29.1130   45.1280 C   0  0  0  0  0  0  0  0  0  0  0  0
   57.4390   30.0400   46.0790 N   0  0  0  0  0  0  0  0  0  0  0  0
   58.2900   29.5050   46.9760 C   0  0  0  0  0  0  0  0  0  0  0  0
   58.8650   30.2840   48.1270 C   0  0  0  0  0  0  0  0  0  0  0  0
   59.9240   31.2540   47.6370 C   0  0  0  0  0  0  0  0  0  0  0  0
   61.2680   30.9030   47.8720 C   0  0  0  0  0  0  0  0  0  0  0  0
   62.3110   31.7510   47.5020 C   0  0  0  0  0  0  0  0  0  0  0  0
   62.0380   32.9680   46.8860 C   0  0  0  0  0  0  0  0  0  0  0  0
   60.7190   33.3460   46.6280 C   0  0  0  0  0  0  0  0  0  0  0  0
   60.4800   34.5390   46.0210 N   0  0  0  0  0  0  0  0  0  0  0  0
   59.2230   34.9620   45.7350 C   0  0  0  0  0  0  0  0  0  0  0  0
   58.1300   34.1640   46.0590 C   0  0  0  0  0  0  0  0  0  0  0  0
   58.3340   32.9320   46.6820 C   0  0  0  0  0  0  0  0  0  0  0  0
   59.6410   32.4940   46.9920 C   0  0  0  0  0  0  0  0  0  0  0  0
   58.6260   28.2110   46.5970 C   0  0  0  0  0  0  0  0  0  0  0  0
   59.6110   27.3090   47.2770 C   0  0  0  0  0  0  0  0  0  0  0  0
   57.9530   27.9640   45.4070 C   0  0  0  0  0  0  0  0  0  0  0  0
   58.0760   26.7420   44.5310 C   0  0  0  0  0  0  0  0  0  0  0  0
   57.0000   25.6960   44.8510 C   0  0  0  0  0  0  0  0  0  0  0  0
   56.2240   26.0560   46.0790 C   0  0  0  0  0  0  0  0  0  0  0  0
   55.1480   26.7040   45.9820 O   0  0  0  0  0  0  0  0  0  0  0  0
   56.6650   25.6380   47.3290 O   0  0  0  0  0  0  0  0  0  0  0  0
   55.3548   29.6242   44.2433 H   0  0  0  0  0  0  0  0  0  0  0  0
   56.7993   30.1608   43.3202 H   0  0  0  0  0  0  0  0  0  0  0  0
   56.3262   28.4279   43.3202 H   0  0  0  0  0  0  0  0  0  0  0  0
   57.0440   31.0080   46.1010 H   0  0  0  0  0  0  0  0  0  0  0  0
   58.0595   30.8470   48.6212 H   0  0  0  0  0  0  0  0  0  0  0  0
   59.3273   29.5814   48.8360 H   0  0  0  0  0  0  0  0  0  0  0  0
   61.4987   29.9426   48.3561 H   0  0  0  0  0  0  0  0  0  0  0  0
   63.3527   31.4569   47.6977 H   0  0  0  0  0  0  0  0  0  0  0  0
   62.8647   33.6353   46.6010 H   0  0  0  0  0  0  0  0  0  0  0  0
   59.0679   35.9356   45.2471 H   0  0  0  0  0  0  0  0  0  0  0  0
   57.1099   34.5027   45.8251 H   0  0  0  0  0  0  0  0  0  0  0  0
   57.4713   32.2976   46.9334 H   0  0  0  0  0  0  0  0  0  0  0  0
   59.5050   27.4061   48.3676 H   0  0  0  0  0  0  0  0  0  0  0  0
   59.4189   26.2671   46.9813 H   0  0  0  0  0  0  0  0  0  0  0  0
   60.6321   27.5918   46.9813 H   0  0  0  0  0  0  0  0  0  0  0  0
   57.9733   27.0470   43.4791 H   0  0  0  0  0  0  0  0  0  0  0  0
   59.0596   26.2866   44.7185 H   0  0  0  0  0  0  0  0  0  0  0  0
   56.3071   25.6258   43.9996 H   0  0  0  0  0  0  0  0  0  0  0  0
   57.5012   24.7338   45.0326 H   0  0  0  0  0  0  0  0  0  0  0  0
  1  2  1  0
  2  3  1  0
  3  4  1  0
  4  5  1  0
  5  6  1  0
  6  7  2  0
  7  8  1  0
  8  9  2  0
  9 10  1  0
 10 11  2  0
 11 12  1  0
 12 13  2  0
 13 14  1  0
 14 15  2  0
  4 16  2  0
 16 17  1  0
 16 18  1  0
 18 19  1  0
 19 20  1  0
 20 21  1  0
 21 22  2  0
 21 23  1  0
 18  2  2  0
 15  6  1  0
 15 10  1  0
  1 24  1  0
  1 25  1  0
  1 26  1  0
  3 27  1  0
  5 28  1  0
  5 29  1  0
  7 30  1  0
  8 31  1  0
  9 32  1  0
 12 33  1  0
 13 34  1  0
 14 35  1  0
 17 36  1  0
 17 37  1  0
 17 38  1  0
 19 39  1  0
 19 40  1  0
 20 41  1  0
 20 42  1  0
M  CHG  1  23  -1
M  END
>  <UniqueID>  (49) 
44

>  <SMILES>  (49) 
Cc1[nH]c(Cc2cccc3ncccc23)c(C)c1CCC(=O)[O-]

>  <Energy>  (49) 
69.16185873775866

>  <Genealogy>  (49) 
Cc1[nH]c(Cc2cccc3ncccc23)c(C)c1CCC(=O)[O-] (protonated)
Cc1[nH]c(Cc2cccc3ncccc23)c(C)c1CCC(=O)[O-] (3D coordinates assigned)
Cc1[nH]c(Cc2cccc3ncccc23)c(C)c1CCC(=O)[O-] (optimized conformer: 69.16185873775866 kcal/mol)

>  <smiles>  (49) 
Cc1[nH]c(Cc2cccc3ncccc23)c(C)c1CCC(=O)O

>  <score_type>  (49) 
oracle

>  <origin>  (49) 
adg

>  <m_score__min__energy>  (49) 
-11.279999999999999

>  <m_primary>  (49) 
energy

$$$$
49:0
     RDKit          3D

 53 56  0  0  0  0  0  0  0  0999 V2000
   57.9170   33.7910   46.4000 C   0  0  0  0  0  0  0  0  0  0  0  0
   58.1590   32.7500   47.4860 C   0  0  0  0  0  0  0  0  0  0  0  0
   59.1190   33.4690   48.8650 S   0  0  0  0  0  0  0  0  0  0  0  0
   58.7020   32.1800   50.0440 C   0  0  0  0  0  0  0  0  0  0  0  0
   58.8110   30.8350   49.6770 C   0  0  0  0  0  0  0  0  0  0  0  0
   58.4950   29.8280   50.5940 C   0  0  0  0  0  0  0  0  0  0  0  0
   58.0540   30.1590   51.8860 C   0  0  0  0  0  0  0  0  0  0  0  0
   57.7250   29.0870   52.8470 C   0  0  0  0  0  0  0  0  0  0  0  0
   58.5590   28.0620   53.1140 N   0  0  0  0  0  0  0  0  0  0  0  0
   58.0130   27.3400   54.0790 N   0  0  0  0  0  0  0  0  0  0  0  0
   58.6550   26.1810   54.6880 C   0  0  0  0  0  0  0  0  0  0  0  0
   58.7290   25.0590   53.6900 C   0  0  0  0  0  0  0  0  0  0  0  0
   57.6830   24.1280   53.5920 C   0  0  0  0  0  0  0  0  0  0  0  0
   57.7730   23.0600   52.6930 C   0  0  0  0  0  0  0  0  0  0  0  0
   58.9110   22.9100   51.8950 C   0  0  0  0  0  0  0  0  0  0  0  0
   58.9980   21.8740   51.0250 F   0  0  0  0  0  0  0  0  0  0  0  0
   59.9640   23.8250   51.9990 C   0  0  0  0  0  0  0  0  0  0  0  0
   59.8770   24.8930   52.8960 C   0  0  0  0  0  0  0  0  0  0  0  0
   56.8450   27.8880   54.4650 C   0  0  0  0  0  0  0  0  0  0  0  0
   56.6140   29.0010   53.6820 C   0  0  0  0  0  0  0  0  0  0  0  0
   55.4050   29.8410   53.7120 C   0  0  0  0  0  0  0  0  0  0  0  0
   55.3650   30.8250   54.4970 O   0  0  0  0  0  0  0  0  0  0  0  0
   54.2840   29.5320   52.8650 N   0  0  0  0  0  0  0  0  0  0  0  0
   53.1890   30.4270   52.6150 C   0  0  0  0  0  0  0  0  0  0  0  0
   52.2320   30.6300   53.6190 C   0  0  0  0  0  0  0  0  0  0  0  0
   51.1640   31.5080   53.4130 C   0  0  0  0  0  0  0  0  0  0  0  0
   51.0560   32.2070   52.2080 C   0  0  0  0  0  0  0  0  0  0  0  0
   49.9940   33.0810   52.0060 O   0  0  0  0  0  0  0  0  0  0  0  0
   52.0200   32.0320   51.2100 C   0  0  0  0  0  0  0  0  0  0  0  0
   51.9330   32.7260   50.0460 F   0  0  0  0  0  0  0  0  0  0  0  0
   53.0890   31.1500   51.4130 C   0  0  0  0  0  0  0  0  0  0  0  0
   57.9750   31.5130   52.2580 C   0  0  0  0  0  0  0  0  0  0  0  0
   58.2970   32.5170   51.3410 C   0  0  0  0  0  0  0  0  0  0  0  0
   57.6914   34.7615   46.8661 H   0  0  0  0  0  0  0  0  0  0  0  0
   58.8173   33.8849   45.7749 H   0  0  0  0  0  0  0  0  0  0  0  0
   57.0676   33.4782   45.7749 H   0  0  0  0  0  0  0  0  0  0  0  0
   57.1907   32.3935   47.8671 H   0  0  0  0  0  0  0  0  0  0  0  0
   58.7297   31.9143   47.0549 H   0  0  0  0  0  0  0  0  0  0  0  0
   59.1464   30.5685   48.6638 H   0  0  0  0  0  0  0  0  0  0  0  0
   58.5921   28.7718   50.3024 H   0  0  0  0  0  0  0  0  0  0  0  0
   59.6716   26.4527   55.0085 H   0  0  0  0  0  0  0  0  0  0  0  0
   58.0673   25.8552   55.5589 H   0  0  0  0  0  0  0  0  0  0  0  0
   56.7896   24.2386   54.2242 H   0  0  0  0  0  0  0  0  0  0  0  0
   56.9474   22.3374   52.6139 H   0  0  0  0  0  0  0  0  0  0  0  0
   60.8612   23.7037   51.3742 H   0  0  0  0  0  0  0  0  0  0  0  0
   60.7099   25.6064   52.9811 H   0  0  0  0  0  0  0  0  0  0  0  0
   56.1892   27.5138   55.2650 H   0  0  0  0  0  0  0  0  0  0  0  0
   54.3310   28.6630   52.2860 H   0  0  0  0  0  0  0  0  0  0  0  0
   52.3221   30.0946   54.5757 H   0  0  0  0  0  0  0  0  0  0  0  0
   50.4083   31.6487   54.1998 H   0  0  0  0  0  0  0  0  0  0  0  0
   53.8518   31.0226   50.6307 H   0  0  0  0  0  0  0  0  0  0  0  0
   57.6581   31.7831   53.2761 H   0  0  0  0  0  0  0  0  0  0  0  0
   58.2321   33.5739   51.6388 H   0  0  0  0  0  0  0  0  0  0  0  0
  1  2  1  0
  2  3  1  0
  3  4  1  0
  4  5  2  0
  5  6  1  0
  6  7  2  0
  7  8  1  0
  8  9  2  0
  9 10  1  0
 10 11  1  0
 11 12  1  0
 12 13  2  0
 13 14  1  0
 14 15  2  0
 15 16  1  0
 15 17  1  0
 17 18  2  0
 10 19  1  0
 19 20  2  0
 20 21  1  0
 21 22  2  0
 21 23  1  0
 23 24  1  0
 24 25  2  0
 25 26  1  0
 26 27  2  0
 27 28  1  0
 27 29  1  0
 29 30  1  0
 29 31  2  0
  7 32  1  0
 32 33  2  0
 33  4  1  0
 20  8  1  0
 31 24  1  0
 18 12  1  0
  1 34  1  0
  1 35  1  0
  1 36  1  0
  2 37  1  0
  2 38  1  0
  5 39  1  0
  6 40  1  0
 11 41  1  0
 11 42  1  0
 13 43  1  0
 14 44  1  0
 17 45  1  0
 18 46  1  0
 19 47  1  0
 23 48  1  0
 25 49  1  0
 26 50  1  0
 31 51  1  0
 32 52  1  0
 33 53  1  0
M  CHG  1  28  -1
M  END
>  <UniqueID>  (50) 
45

>  <SMILES>  (50) 
CCSc1ccc(-c2nn(Cc3ccc(F)cc3)cc2C(=O)Nc2ccc([O-])c(F)c2)cc1

>  <Energy>  (50) 
88.85771200053965

>  <Genealogy>  (50) 
CCSc1ccc(-c2nn(Cc3ccc(F)cc3)cc2C(=O)Nc2ccc([O-])c(F)c2)cc1 (protonated)
CCSc1ccc(-c2nn(Cc3ccc(F)cc3)cc2C(=O)Nc2ccc([O-])c(F)c2)cc1 (3D coordinates assigned)
CCSc1ccc(-c2nn(Cc3ccc(F)cc3)cc2C(=O)Nc2ccc([O-])c(F)c2)cc1 (optimized conformer: 88.85771200053965 kcal/mol)

>  <smiles>  (50) 
CCSc1ccc(-c2nn(Cc3ccc(F)cc3)cc2C(=O)Nc2ccc(O)c(F)c2)cc1

>  <score_type>  (50) 
oracle

>  <origin>  (50) 
adg

>  <m_score__min__energy>  (50) 
-10.949999999999999

>  <m_primary>  (50) 
energy

$$$$
50:0
     RDKit          3D

 34 35  0  0  0  0  0  0  0  0999 V2000
   56.3801   29.2969   42.9254 H   0  0  0  0  0  0  0  0  0  0  0  0
   56.3430   29.6980   43.9490 C   0  0  0  0  0  0  0  0  0  0  0  0
   56.0780   28.9090   44.9450 N   0  0  0  0  0  0  0  0  0  0  0  0
   56.9830   27.9200   45.4540 C   0  0  0  0  0  0  0  0  0  0  0  0
   58.3600   28.1560   45.3400 C   0  0  0  0  0  0  0  0  0  0  0  0
   58.7176   29.0882   44.8783 H   0  0  0  0  0  0  0  0  0  0  0  0
   59.2810   27.2170   45.8080 C   0  0  0  0  0  0  0  0  0  0  0  0
   60.3596   27.4177   45.7281 H   0  0  0  0  0  0  0  0  0  0  0  0
   58.8340   26.0240   46.3770 C   0  0  0  0  0  0  0  0  0  0  0  0
   59.5607   25.2908   46.7570 H   0  0  0  0  0  0  0  0  0  0  0  0
   57.4650   25.7590   46.4650 C   0  0  0  0  0  0  0  0  0  0  0  0
   57.1190   24.8138   46.9086 H   0  0  0  0  0  0  0  0  0  0  0  0
   56.5240   26.6950   45.9890 C   0  0  0  0  0  0  0  0  0  0  0  0
   55.1450   26.4260   46.0070 O   0  0  0  0  0  0  0  0  0  0  0  0
   54.5550   25.1890   45.6250 C   0  0  0  0  0  0  0  0  0  0  0  0
   54.2831   24.6189   46.5256 H   0  0  0  0  0  0  0  0  0  0  0  0
   53.6522   25.3825   45.0270 H   0  0  0  0  0  0  0  0  0  0  0  0
   55.2735   24.6092   45.0270 H   0  0  0  0  0  0  0  0  0  0  0  0
   56.5980   31.1520   44.1910 C   0  0  0  0  0  0  0  0  0  0  0  0
   56.3007   31.7251   43.3004 H   0  0  0  0  0  0  0  0  0  0  0  0
   56.0112   31.4765   45.0630 H   0  0  0  0  0  0  0  0  0  0  0  0
   58.0560   31.3900   44.4690 C   0  0  0  0  0  0  0  0  0  0  0  0
   58.8990   30.5400   44.0770 O   0  0  0  0  0  0  0  0  0  0  0  0
   58.5150   32.5910   45.2120 C   0  0  0  0  0  0  0  0  0  0  0  0
   58.5300   33.8420   44.5670 C   0  0  0  0  0  0  0  0  0  0  0  0
   58.1984   33.9200   43.5211 H   0  0  0  0  0  0  0  0  0  0  0  0
   58.9620   34.9850   45.2430 C   0  0  0  0  0  0  0  0  0  0  0  0
   58.9632   35.9585   44.7308 H   0  0  0  0  0  0  0  0  0  0  0  0
   59.3920   34.8940   46.5670 C   0  0  0  0  0  0  0  0  0  0  0  0
   59.7303   35.7956   47.0986 H   0  0  0  0  0  0  0  0  0  0  0  0
   59.3930   33.6590   47.2170 C   0  0  0  0  0  0  0  0  0  0  0  0
   59.7383   33.5911   48.2592 H   0  0  0  0  0  0  0  0  0  0  0  0
   58.9580   32.5060   46.5530 C   0  0  0  0  0  0  0  0  0  0  0  0
   59.0750   30.8380   47.4950 Br  0  0  0  0  0  0  0  0  0  0  0  0
  1  2  1  0
  2  3  2  0
  3  4  1  0
  4  5  2  0
  5  6  1  0
  5  7  1  0
  7  8  1  0
  7  9  2  0
  9 10  1  0
  9 11  1  0
 11 12  1  0
 11 13  2  0
 13 14  1  0
 14 15  1  0
 15 16  1  0
 15 17  1  0
 15 18  1  0
  2 19  1  0
 19 20  1  0
 19 21  1  0
 19 22  1  0
 22 23  2  0
 22 24  1  0
 24 25  2  0
 25 26  1  0
 25 27  1  0
 27 28  1  0
 27 29  2  0
 29 30  1  0
 29 31  1  0
 31 32  1  0
 31 33  2  0
 33 34  1  0
 13  4  1  0
 33 24  1  0
M  END
>  <UniqueID>  (51) 
46

>  <SMILES>  (51) 
COc1ccccc1/N=C/CC(=O)c1ccccc1Br

>  <Energy>  (51) 
40.2705640932684

>  <Genealogy>  (51) 
COc1ccccc1/N=C/CC(=O)c1ccccc1Br (cis-trans isomerization)
COc1ccccc1/N=C/CC(=O)c1ccccc1Br (3D coordinates assigned)
COc1ccccc1/N=C/CC(=O)c1ccccc1Br (optimized conformer: 40.2705640932684 kcal/mol)

>  <smiles>  (51) 
COc1ccccc1N=CCC(=O)c1ccccc1Br

>  <score_type>  (51) 
oracle

>  <origin>  (51) 
adg

>  <m_score__min__energy>  (51) 
-7.5499999999999998

>  <m_primary>  (51) 
energy

$$$$
51:0
     RDKit          3D

 44 46  0  0  0  0  0  0  0  0999 V2000
   56.5090   29.9460   43.3530 C   0  0  0  0  0  0  0  0  0  0  0  0
   56.2560   30.8290   44.4410 O   0  0  0  0  0  0  0  0  0  0  0  0
   57.2230   31.6540   45.0330 C   0  0  0  0  0  0  0  0  0  0  0  0
   58.4410   31.0800   45.4200 C   0  0  0  0  0  0  0  0  0  0  0  0
   59.4360   31.8610   46.0160 C   0  0  0  0  0  0  0  0  0  0  0  0
   59.2220   33.2280   46.2340 C   0  0  0  0  0  0  0  0  0  0  0  0
   60.4660   34.2140   46.9970 S   0  0  0  0  0  0  0  0  0  0  0  0
   59.9980   35.6410   47.0300 O   0  0  0  0  0  0  0  0  0  0  0  0
   61.7530   34.1390   46.2240 O   0  0  0  0  0  0  0  0  0  0  0  0
   60.7460   33.6670   48.6200 N   0  0  0  0  0  0  0  0  0  0  0  0
   59.9590   32.6540   49.2730 C   0  0  0  0  0  0  0  0  0  0  0  0
   58.8990   32.9710   50.1330 C   0  0  0  0  0  0  0  0  0  0  0  0
   58.1670   31.9560   50.7410 C   0  0  0  0  0  0  0  0  0  0  0  0
   58.4930   30.6210   50.4900 C   0  0  0  0  0  0  0  0  0  0  0  0
   57.8150   29.7120   51.0450 O   0  0  0  0  0  0  0  0  0  0  0  0
   59.5330   30.3070   49.6510 N   0  0  0  0  0  0  0  0  0  0  0  0
   59.8650   28.9050   49.3500 C   0  0  0  0  0  0  0  0  0  0  0  0
   59.5780   28.5990   47.9050 C   0  0  0  0  0  0  0  0  0  0  0  0
   58.3180   28.1080   47.5230 C   0  0  0  0  0  0  0  0  0  0  0  0
   58.0590   27.7920   46.1860 C   0  0  0  0  0  0  0  0  0  0  0  0
   59.0580   27.9550   45.2220 C   0  0  0  0  0  0  0  0  0  0  0  0
   58.8070   27.6460   43.9260 F   0  0  0  0  0  0  0  0  0  0  0  0
   60.3180   28.4340   45.5950 C   0  0  0  0  0  0  0  0  0  0  0  0
   60.5790   28.7520   46.9310 C   0  0  0  0  0  0  0  0  0  0  0  0
   60.2520   31.3010   49.0430 C   0  0  0  0  0  0  0  0  0  0  0  0
   58.0100   33.8100   45.8430 C   0  0  0  0  0  0  0  0  0  0  0  0
   57.0140   33.0300   45.2480 C   0  0  0  0  0  0  0  0  0  0  0  0
   56.7924   28.9568   43.7418 H   0  0  0  0  0  0  0  0  0  0  0  0
   55.6016   29.8521   42.7383 H   0  0  0  0  0  0  0  0  0  0  0  0
   57.3284   30.3469   42.7383 H   0  0  0  0  0  0  0  0  0  0  0  0
   58.6159   30.0068   45.2537 H   0  0  0  0  0  0  0  0  0  0  0  0
   60.3894   31.4006   46.3145 H   0  0  0  0  0  0  0  0  0  0  0  0
   61.4870   34.1630   49.1640 H   0  0  0  0  0  0  0  0  0  0  0  0
   58.6454   34.0235   50.3276 H   0  0  0  0  0  0  0  0  0  0  0  0
   57.3350   32.2037   51.4166 H   0  0  0  0  0  0  0  0  0  0  0  0
   60.9326   28.7335   49.5521 H   0  0  0  0  0  0  0  0  0  0  0  0
   59.2512   28.2480   49.9836 H   0  0  0  0  0  0  0  0  0  0  0  0
   57.5315   27.9716   48.2798 H   0  0  0  0  0  0  0  0  0  0  0  0
   57.0683   27.4148   45.8924 H   0  0  0  0  0  0  0  0  0  0  0  0
   61.1044   28.5606   44.8363 H   0  0  0  0  0  0  0  0  0  0  0  0
   61.5728   29.1238   47.2211 H   0  0  0  0  0  0  0  0  0  0  0  0
   61.0738   31.0343   48.3622 H   0  0  0  0  0  0  0  0  0  0  0  0
   57.8409   34.8849   46.0046 H   0  0  0  0  0  0  0  0  0  0  0  0
   56.0629   33.4931   44.9464 H   0  0  0  0  0  0  0  0  0  0  0  0
  1  2  1  0
  2  3  1  0
  3  4  2  0
  4  5  1  0
  5  6  2  0
  6  7  1  0
  7  8  2  0
  7  9  2  0
  7 10  1  0
 10 11  1  0
 11 12  1  0
 12 13  2  0
 13 14  1  0
 14 15  2  0
 14 16  1  0
 16 17  1  0
 17 18  1  0
 18 19  2  0
 19 20  1  0
 20 21  2  0
 21 22  1  0
 21 23  1  0
 23 24  2  0
 16 25  1  0
  6 26  1  0
 26 27  2  0
 27  3  1  0
 25 11  2  0
 24 18  1  0
  1 28  1  0
  1 29  1  0
  1 30  1  0
  4 31  1  0
  5 32  1  0
 10 33  1  0
 12 34  1  0
 13 35  1  0
 17 36  1  0
 17 37  1  0
 19 38  1  0
 20 39  1  0
 23 40  1  0
 24 41  1  0
 25 42  1  0
 26 43  1  0
 27 44  1  0
M  END
>  <UniqueID>  (52) 
47

>  <SMILES>  (52) 
COc1ccc(S(=O)(=O)Nc2ccc(=O)n(Cc3ccc(F)cc3)c2)cc1

>  <Energy>  (52) 
49.99416838239301

>  <Genealogy>  (52) 
COc1ccc(S(=O)(=O)Nc2ccc(=O)n(Cc3ccc(F)cc3)c2)cc1 (3D coordinates assigned)
COc1ccc(S(=O)(=O)Nc2ccc(=O)n(Cc3ccc(F)cc3)c2)cc1 (optimized conformer: 49.99416838239301 kcal/mol)

>  <smiles>  (52) 
COc1ccc(S(=O)(=O)Nc2ccc(=O)n(Cc3ccc(F)cc3)c2)cc1

>  <score_type>  (52) 
oracle

>  <origin>  (52) 
adg

>  <m_score__min__energy>  (52) 
-8.3499999999999996

>  <m_primary>  (52) 
energy

$$$$
52:0
     RDKit          3D

 51 55  0  0  0  0  0  0  0  0999 V2000
   59.5100   33.4470   50.5630 C   0  0  0  0  0  0  0  0  0  0  0  0
   60.3250   32.4060   49.8670 C   0  0  0  0  0  0  0  0  0  0  0  0
   60.1580   31.0280   49.9440 C   0  0  0  0  0  0  0  0  0  0  0  0
   61.0600   30.4010   49.1500 N   0  0  0  0  0  0  0  0  0  0  0  0
   61.0890   28.9640   48.8640 C   0  0  0  0  0  0  0  0  0  0  0  0
   60.0890   28.6450   47.7860 C   0  0  0  0  0  0  0  0  0  0  0  0
   58.8240   28.1410   48.1290 C   0  0  0  0  0  0  0  0  0  0  0  0
   57.8260   28.0210   47.1570 C   0  0  0  0  0  0  0  0  0  0  0  0
   58.0730   28.4320   45.8430 C   0  0  0  0  0  0  0  0  0  0  0  0
   56.9920   28.4810   44.9030 N   0  0  0  0  0  0  0  0  0  0  0  0
   56.4230   29.7020   44.4080 C   0  0  0  0  0  0  0  0  0  0  0  0
   55.2460   29.6860   43.9600 O   0  0  0  0  0  0  0  0  0  0  0  0
   57.1790   30.9770   44.4350 C   0  0  0  0  0  0  0  0  0  0  0  0
   57.4960   31.6430   43.2370 C   0  0  0  0  0  0  0  0  0  0  0  0
   58.1550   32.8750   43.2600 C   0  0  0  0  0  0  0  0  0  0  0  0
   58.5240   33.4540   44.4810 C   0  0  0  0  0  0  0  0  0  0  0  0
   59.1780   34.6940   44.5150 C   0  0  0  0  0  0  0  0  0  0  0  0
   59.5420   35.2620   45.7390 C   0  0  0  0  0  0  0  0  0  0  0  0
   59.2580   34.5960   46.9350 C   0  0  0  0  0  0  0  0  0  0  0  0
   58.6080   33.3590   46.9150 C   0  0  0  0  0  0  0  0  0  0  0  0
   58.2350   32.7780   45.6920 C   0  0  0  0  0  0  0  0  0  0  0  0
   57.5710   31.5410   45.6590 C   0  0  0  0  0  0  0  0  0  0  0  0
   59.3610   28.8590   45.4820 C   0  0  0  0  0  0  0  0  0  0  0  0
   60.3620   28.9620   46.4470 C   0  0  0  0  0  0  0  0  0  0  0  0
   61.7870   31.3760   48.5610 C   0  0  0  0  0  0  0  0  0  0  0  0
   62.8170   31.2440   47.6240 C   0  0  0  0  0  0  0  0  0  0  0  0
   63.4000   32.4160   47.1100 C   0  0  0  0  0  0  0  0  0  0  0  0
   62.9500   33.6850   47.5360 C   0  0  0  0  0  0  0  0  0  0  0  0
   61.9170   33.7940   48.4840 C   0  0  0  0  0  0  0  0  0  0  0  0
   61.3590   32.6140   48.9760 C   0  0  0  0  0  0  0  0  0  0  0  0
   59.6078   33.3221   51.6515 H   0  0  0  0  0  0  0  0  0  0  0  0
   59.8683   34.4463   50.2750 H   0  0  0  0  0  0  0  0  0  0  0  0
   58.4539   33.3390   50.2750 H   0  0  0  0  0  0  0  0  0  0  0  0
   59.4023   30.5195   50.5608 H   0  0  0  0  0  0  0  0  0  0  0  0
   62.0959   28.6780   48.5259 H   0  0  0  0  0  0  0  0  0  0  0  0
   60.8348   28.4042   49.7761 H   0  0  0  0  0  0  0  0  0  0  0  0
   58.6174   27.8394   49.1665 H   0  0  0  0  0  0  0  0  0  0  0  0
   56.8449   27.6026   47.4262 H   0  0  0  0  0  0  0  0  0  0  0  0
   57.2224   31.1895   42.2729 H   0  0  0  0  0  0  0  0  0  0  0  0
   58.3847   33.3917   42.3165 H   0  0  0  0  0  0  0  0  0  0  0  0
   59.4050   35.2207   43.5764 H   0  0  0  0  0  0  0  0  0  0  0  0
   60.0533   36.2357   45.7614 H   0  0  0  0  0  0  0  0  0  0  0  0
   59.5473   35.0474   47.8955 H   0  0  0  0  0  0  0  0  0  0  0  0
   58.3881   32.8393   47.8592 H   0  0  0  0  0  0  0  0  0  0  0  0
   57.3567   31.0106   46.5986 H   0  0  0  0  0  0  0  0  0  0  0  0
   59.5809   29.1130   44.4346 H   0  0  0  0  0  0  0  0  0  0  0  0
   61.3701   29.2932   46.1572 H   0  0  0  0  0  0  0  0  0  0  0  0
   63.1614   30.2514   47.2983 H   0  0  0  0  0  0  0  0  0  0  0  0
   64.2119   32.3438   46.3713 H   0  0  0  0  0  0  0  0  0  0  0  0
   63.4108   34.5946   47.1234 H   0  0  0  0  0  0  0  0  0  0  0  0
   61.5609   34.7769   48.8261 H   0  0  0  0  0  0  0  0  0  0  0  0
  1  2  1  0
  2  3  2  0
  3  4  1  0
  4  5  1  0
  5  6  1  0
  6  7  2  0
  7  8  1  0
  8  9  2  0
  9 10  1  0
 10 11  1  0
 11 12  2  0
 11 13  1  0
 13 14  2  0
 14 15  1  0
 15 16  2  0
 16 17  1  0
 17 18  2  0
 18 19  1  0
 19 20  2  0
 20 21  1  0
 21 22  2  0
  9 23  1  0
 23 24  2  0
  4 25  1  0
 25 26  2  0
 26 27  1  0
 27 28  2  0
 28 29  1  0
 29 30  2  0
 30  2  1  0
 24  6  1  0
 30 25  1  0
 22 13  1  0
 21 16  1  0
  1 31  1  0
  1 32  1  0
  1 33  1  0
  3 34  1  0
  5 35  1  0
  5 36  1  0
  7 37  1  0
  8 38  1  0
 14 39  1  0
 15 40  1  0
 17 41  1  0
 18 42  1  0
 19 43  1  0
 20 44  1  0
 22 45  1  0
 23 46  1  0
 24 47  1  0
 26 48  1  0
 27 49  1  0
 28 50  1  0
 29 51  1  0
M  CHG  1  10  -1
M  END
>  <UniqueID>  (53) 
48

>  <SMILES>  (53) 
Cc1cn(Cc2ccc([N-]C(=O)c3ccc4ccccc4c3)cc2)c2ccccc12

>  <Energy>  (53) 
97.59281894925621

>  <Genealogy>  (53) 
Cc1cn(Cc2ccc([N-]C(=O)c3ccc4ccccc4c3)cc2)c2ccccc12 (protonated)
Cc1cn(Cc2ccc([N-]C(=O)c3ccc4ccccc4c3)cc2)c2ccccc12 (3D coordinates assigned)
Cc1cn(Cc2ccc([N-]C(=O)c3ccc4ccccc4c3)cc2)c2ccccc12 (optimized conformer: 97.59281894925621 kcal/mol)

>  <smiles>  (53) 
Cc1cn(Cc2ccc(NC(=O)c3ccc4ccccc4c3)cc2)c2ccccc12

>  <score_type>  (53) 
oracle

>  <origin>  (53) 
adg

>  <m_score__min__energy>  (53) 
-11.67

>  <m_primary>  (53) 
energy

$$$$
53:0
     RDKit          3D

 66 71  0  0  0  0  0  0  0  0999 V2000
   66.8780   31.8540   51.0320 C   0  0  0  0  0  0  0  0  0  0  0  0
   65.9160   30.7450   51.3380 C   0  0  0  0  0  0  0  0  0  0  0  0
   64.5410   30.9930   51.3380 C   0  0  0  0  0  0  0  0  0  0  0  0
   63.6520   29.9690   51.6580 C   0  0  0  0  0  0  0  0  0  0  0  0
   64.1310   28.6870   51.9920 C   0  0  0  0  0  0  0  0  0  0  0  0
   63.2590   27.6110   52.3220 C   0  0  0  0  0  0  0  0  0  0  0  0
   61.7480   27.8110   52.3170 C   0  0  0  0  0  0  0  0  0  0  0  0
   61.2100   28.1130   50.9920 N   0  0  0  0  0  0  0  0  0  0  0  0
   60.9440   27.2240   50.0230 C   0  0  0  0  0  0  0  0  0  0  0  0
   60.4950   27.9070   48.9100 C   0  0  0  0  0  0  0  0  0  0  0  0
   60.5350   29.2570   49.2800 C   0  0  0  0  0  0  0  0  0  0  0  0
   60.9700   29.3380   50.5570 N   0  0  0  0  0  0  0  0  0  0  0  0
   60.1400   30.4680   48.5140 C   0  0  0  0  0  0  0  0  0  0  0  0
   59.8450   31.6370   49.2460 C   0  0  0  0  0  0  0  0  0  0  0  0
   59.4630   32.8140   48.6050 C   0  0  0  0  0  0  0  0  0  0  0  0
   59.3630   32.8550   47.2150 C   0  0  0  0  0  0  0  0  0  0  0  0
   58.8920   34.3430   46.4010 S   0  0  0  0  0  0  0  0  0  0  0  0
   57.2810   34.1340   45.6770 C   0  0  0  0  0  0  0  0  0  0  0  0
   59.8870   34.6750   45.3240 O   0  0  0  0  0  0  0  0  0  0  0  0
   58.8560   35.4740   47.3900 O   0  0  0  0  0  0  0  0  0  0  0  0
   59.6660   31.7130   46.4690 C   0  0  0  0  0  0  0  0  0  0  0  0
   60.0540   30.5130   47.1000 C   0  0  0  0  0  0  0  0  0  0  0  0
   60.3740   29.3220   46.2290 C   0  0  0  0  0  0  0  0  0  0  0  0
   59.4940   28.0650   46.5060 C   0  0  0  0  0  0  0  0  0  0  0  0
   59.4620   27.1840   45.2100 C   0  0  0  0  0  0  0  0  0  0  0  0
   58.2670   27.5380   44.3120 C   0  0  0  0  0  0  0  0  0  0  0  0
   56.9730   27.2840   44.9760 N   0  0  0  0  0  0  0  0  0  0  0  0
   57.0100   27.4010   46.4460 C   0  0  0  0  0  0  0  0  0  0  0  0
   58.0290   28.4500   46.9130 C   0  0  0  0  0  0  0  0  0  0  0  0
   60.1670   27.2160   47.6140 C   0  0  0  0  0  0  0  0  0  0  0  0
   63.8250   26.3620   52.6570 C   0  0  0  0  0  0  0  0  0  0  0  0
   65.2060   26.1780   52.6610 C   0  0  0  0  0  0  0  0  0  0  0  0
   66.0580   27.2290   52.3350 C   0  0  0  0  0  0  0  0  0  0  0  0
   65.5360   28.4850   51.9980 C   0  0  0  0  0  0  0  0  0  0  0  0
   66.3810   29.5100   51.6810 N   0  0  0  0  0  0  0  0  0  0  0  0
   67.2519   32.2850   51.9725 H   0  0  0  0  0  0  0  0  0  0  0  0
   67.7223   31.4567   50.4495 H   0  0  0  0  0  0  0  0  0  0  0  0
   66.3654   32.6338   50.4495 H   0  0  0  0  0  0  0  0  0  0  0  0
   64.1613   31.9942   51.0860 H   0  0  0  0  0  0  0  0  0  0  0  0
   62.5692   30.1628   51.6498 H   0  0  0  0  0  0  0  0  0  0  0  0
   61.2725   26.8900   52.6855 H   0  0  0  0  0  0  0  0  0  0  0  0
   61.5313   28.6754   52.9618 H   0  0  0  0  0  0  0  0  0  0  0  0
   61.0636   26.1334   50.1019 H   0  0  0  0  0  0  0  0  0  0  0  0
   59.9178   31.6193   50.3434 H   0  0  0  0  0  0  0  0  0  0  0  0
   59.2397   33.7134   49.1976 H   0  0  0  0  0  0  0  0  0  0  0  0
   56.5302   34.0366   46.4750 H   0  0  0  0  0  0  0  0  0  0  0  0
   57.0427   35.0087   45.0541 H   0  0  0  0  0  0  0  0  0  0  0  0
   57.2738   33.2274   45.0541 H   0  0  0  0  0  0  0  0  0  0  0  0
   59.6008   31.7506   45.3716 H   0  0  0  0  0  0  0  0  0  0  0  0
   60.2323   29.6162   45.1786 H   0  0  0  0  0  0  0  0  0  0  0  0
   61.4109   29.0354   46.4585 H   0  0  0  0  0  0  0  0  0  0  0  0
   60.3923   27.3459   44.6458 H   0  0  0  0  0  0  0  0  0  0  0  0
   59.3632   26.1312   45.5132 H   0  0  0  0  0  0  0  0  0  0  0  0
   58.3261   28.6043   44.0484 H   0  0  0  0  0  0  0  0  0  0  0  0
   58.3174   26.8999   43.4174 H   0  0  0  0  0  0  0  0  0  0  0  0
   56.6610   26.3130   44.7380 H   0  0  0  0  0  0  0  0  0  0  0  0
   56.0114   27.6914   46.8046 H   0  0  0  0  0  0  0  0  0  0  0  0
   57.3121   26.4266   46.8573 H   0  0  0  0  0  0  0  0  0  0  0  0
   57.7763   29.4187   46.4571 H   0  0  0  0  0  0  0  0  0  0  0  0
   57.9835   28.5040   48.0107 H   0  0  0  0  0  0  0  0  0  0  0  0
   59.4903   26.3807   47.8470 H   0  0  0  0  0  0  0  0  0  0  0  0
   61.1415   26.9257   47.1944 H   0  0  0  0  0  0  0  0  0  0  0  0
   63.1657   25.5213   52.9189 H   0  0  0  0  0  0  0  0  0  0  0  0
   65.6256   25.1957   52.9235 H   0  0  0  0  0  0  0  0  0  0  0  0
   67.1469   27.0730   52.3419 H   0  0  0  0  0  0  0  0  0  0  0  0
   67.4150   29.3490   51.7000 H   0  0  0  0  0  0  0  0  0  0  0  0
  1  2  1  0
  2  3  2  0
  3  4  1  0
  4  5  2  0
  5  6  1  0
  6  7  1  0
  7  8  1  0
  8  9  1  0
  9 10  2  0
 10 11  1  0
 11 12  2  0
 11 13  1  0
 13 14  2  0
 14 15  1  0
 15 16  2  0
 16 17  1  0
 17 18  1  0
 17 19  2  0
 17 20  2  0
 16 21  1  0
 21 22  2  0
 22 23  1  0
 23 24  1  0
 24 25  1  0
 25 26  1  0
 26 27  1  0
 27 28  1  0
 28 29  1  0
 24 30  1  0
  6 31  2  0
 31 32  1  0
 32 33  2  0
 33 34  1  0
 34 35  2  0
 35  2  1  0
 34  5  1  0
 12  8  1  0
 22 13  1  0
 29 24  1  0
 30 10  1  0
  1 36  1  0
  1 37  1  0
  1 38  1  0
  3 39  1  0
  4 40  1  0
  7 41  1  0
  7 42  1  0
  9 43  1  0
 14 44  1  0
 15 45  1  0
 18 46  1  0
 18 47  1  0
 18 48  1  0
 21 49  1  0
 23 50  1  0
 23 51  1  0
 25 52  1  0
 25 53  1  0
 26 54  1  0
 26 55  1  0
 27 56  1  0
 28 57  1  0
 28 58  1  0
 29 59  1  0
 29 60  1  0
 30 61  1  0
 30 62  1  0
 31 63  1  0
 32 64  1  0
 33 65  1  0
 35 66  1  0
M  CHG  1  35   1
M  END
>  <UniqueID>  (54) 
49

>  <SMILES>  (54) 
Cc1ccc2c(Cn3cc4c(n3)-c3ccc(S(C)(=O)=O)cc3CC3(CCNCC3)C4)cccc2[nH+]1

>  <Energy>  (54) 
126.67804253569768

>  <Genealogy>  (54) 
Cc1ccc2c(Cn3cc4c(n3)-c3ccc(S(C)(=O)=O)cc3CC3(CCNCC3)C4)cccc2[nH+]1 (protonated)
Cc1ccc2c(Cn3cc4c(n3)-c3ccc(S(C)(=O)=O)cc3CC3(CCNCC3)C4)cccc2[nH+]1 (3D coordinates assigned)
Cc1ccc2c(Cn3cc4c(n3)-c3ccc(S(C)(=O)=O)cc3CC3(CCNCC3)C4)cccc2[nH+]1 (nonaromatic ring conformer: 126.67804253569768 kcal/mol)

>  <smiles>  (54) 
Cc1ccc2c(Cn3cc4c(n3)-c3ccc(S(C)(=O)=O)cc3CC3(CCNCC3)C4)cccc2n1

>  <score_type>  (54) 
oracle

>  <origin>  (54) 
adg

>  <m_score__min__energy>  (54) 
-6.7800000000000002

>  <m_primary>  (54) 
energy

$$$$
54:0
     RDKit          3D

 36 37  0  0  0  0  0  0  0  0999 V2000
   58.9290   28.8300   45.1770 C   0  0  0  0  0  0  0  0  0  0  0  0
   57.4650   28.7620   45.6010 C   0  0  0  0  0  0  0  0  0  0  0  0
   56.8710   30.0610   45.5890 O   0  0  0  0  0  0  0  0  0  0  0  0
   57.4900   31.2410   45.1380 C   0  0  0  0  0  0  0  0  0  0  0  0
   58.1400   32.1330   46.0130 C   0  0  0  0  0  0  0  0  0  0  0  0
   58.7660   33.2860   45.5190 C   0  0  0  0  0  0  0  0  0  0  0  0
   59.6280   34.3470   46.6280 S   0  0  0  0  0  0  0  0  0  0  0  0
   58.7870   34.5960   47.8480 O   0  0  0  0  0  0  0  0  0  0  0  0
   59.9070   35.6710   45.9700 O   0  0  0  0  0  0  0  0  0  0  0  0
   61.1410   33.5760   47.0880 C   0  0  0  0  0  0  0  0  0  0  0  0
   62.3190   33.8430   46.3800 C   0  0  0  0  0  0  0  0  0  0  0  0
   63.5090   33.2020   46.7310 C   0  0  0  0  0  0  0  0  0  0  0  0
   63.5270   32.2840   47.7850 C   0  0  0  0  0  0  0  0  0  0  0  0
   62.3560   31.9960   48.4960 C   0  0  0  0  0  0  0  0  0  0  0  0
   62.4210   31.0580   49.5360 O   0  0  0  0  0  0  0  0  0  0  0  0
   63.4390   31.0290   50.5300 C   0  0  0  0  0  0  0  0  0  0  0  0
   61.1600   32.6520   48.1430 C   0  0  0  0  0  0  0  0  0  0  0  0
   58.7350   33.5580   44.1460 C   0  0  0  0  0  0  0  0  0  0  0  0
   58.0770   32.6890   43.2750 C   0  0  0  0  0  0  0  0  0  0  0  0
   57.4550   31.5350   43.7650 C   0  0  0  0  0  0  0  0  0  0  0  0
   56.6450   30.4530   42.6420 Cl  0  0  0  0  0  0  0  0  0  0  0  0
   59.5687   28.8597   46.0713 H   0  0  0  0  0  0  0  0  0  0  0  0
   59.1786   27.9425   44.5770 H   0  0  0  0  0  0  0  0  0  0  0  0
   59.0952   29.7368   44.5770 H   0  0  0  0  0  0  0  0  0  0  0  0
   56.9181   28.1093   44.9047 H   0  0  0  0  0  0  0  0  0  0  0  0
   57.4132   28.3608   46.6239 H   0  0  0  0  0  0  0  0  0  0  0  0
   58.1566   31.9232   47.0927 H   0  0  0  0  0  0  0  0  0  0  0  0
   62.3071   34.5594   45.5453 H   0  0  0  0  0  0  0  0  0  0  0  0
   64.4340   33.4199   46.1770 H   0  0  0  0  0  0  0  0  0  0  0  0
   64.4682   31.7842   48.0577 H   0  0  0  0  0  0  0  0  0  0  0  0
   62.9772   31.0422   51.5283 H   0  0  0  0  0  0  0  0  0  0  0  0
   64.0378   30.1134   50.4150 H   0  0  0  0  0  0  0  0  0  0  0  0
   64.0889   31.9090   50.4150 H   0  0  0  0  0  0  0  0  0  0  0  0
   60.2350   32.4380   48.6986 H   0  0  0  0  0  0  0  0  0  0  0  0
   59.2302   34.4583   43.7533 H   0  0  0  0  0  0  0  0  0  0  0  0
   58.0470   32.9119   42.1982 H   0  0  0  0  0  0  0  0  0  0  0  0
  1  2  1  0
  2  3  1  0
  3  4  1  0
  4  5  2  0
  5  6  1  0
  6  7  1  0
  7  8  2  0
  7  9  2  0
  7 10  1  0
 10 11  2  0
 11 12  1  0
 12 13  2  0
 13 14  1  0
 14 15  1  0
 15 16  1  0
 14 17  2  0
  6 18  2  0
 18 19  1  0
 19 20  2  0
 20 21  1  0
 20  4  1  0
 17 10  1  0
  1 22  1  0
  1 23  1  0
  1 24  1  0
  2 25  1  0
  2 26  1  0
  5 27  1  0
 11 28  1  0
 12 29  1  0
 13 30  1  0
 16 31  1  0
 16 32  1  0
 16 33  1  0
 17 34  1  0
 18 35  1  0
 19 36  1  0
M  END
>  <UniqueID>  (55) 
50

>  <SMILES>  (55) 
CCOc1cc(S(=O)(=O)c2cccc(OC)c2)ccc1Cl

>  <Energy>  (55) 
34.67774169366994

>  <Genealogy>  (55) 
CCOc1cc(S(=O)(=O)c2cccc(OC)c2)ccc1Cl (3D coordinates assigned)
CCOc1cc(S(=O)(=O)c2cccc(OC)c2)ccc1Cl (optimized conformer: 34.67774169366994 kcal/mol)

>  <smiles>  (55) 
CCOc1cc(S(=O)(=O)c2cccc(OC)c2)ccc1Cl

>  <score_type>  (55) 
oracle

>  <origin>  (55) 
adg

>  <m_score__min__energy>  (55) 
-7.3700000000000001

>  <m_primary>  (55) 
energy

$$$$
55:0
     RDKit          3D

 32 34  0  0  0  0  0  0  0  0999 V2000
   59.6890   34.6070   48.2090 C   0  0  0  0  0  0  0  0  0  0  0  0
   59.1940   34.0180   46.9280 C   0  0  0  0  0  0  0  0  0  0  0  0
   59.4050   34.6990   45.7080 C   0  0  0  0  0  0  0  0  0  0  0  0
   58.9320   34.1240   44.5210 C   0  0  0  0  0  0  0  0  0  0  0  0
   58.2900   32.9350   44.6090 N   0  0  0  0  0  0  0  0  0  0  0  0
   57.7450   32.1630   43.6600 C   0  0  0  0  0  0  0  0  0  0  0  0
   57.2270   31.0530   44.3080 C   0  0  0  0  0  0  0  0  0  0  0  0
   56.4250   29.7080   43.5220 S   0  0  0  0  0  0  0  0  0  0  0  0
   55.0650   29.4920   44.1250 O   0  0  0  0  0  0  0  0  0  0  0  0
   56.2720   30.0200   42.0600 O   0  0  0  0  0  0  0  0  0  0  0  0
   57.3710   28.2650   43.7040 N   0  0  0  0  0  0  0  0  0  0  0  0
   58.4060   28.0990   44.6910 C   0  0  0  0  0  0  0  0  0  0  0  0
   58.1190   27.3950   45.8710 C   0  0  0  0  0  0  0  0  0  0  0  0
   59.1040   27.2120   46.8460 C   0  0  0  0  0  0  0  0  0  0  0  0
   60.3850   27.7330   46.6550 C   0  0  0  0  0  0  0  0  0  0  0  0
   60.6820   28.4420   45.4890 C   0  0  0  0  0  0  0  0  0  0  0  0
   59.7000   28.6290   44.5110 C   0  0  0  0  0  0  0  0  0  0  0  0
   57.4440   31.1240   45.6450 N   0  0  0  0  0  0  0  0  0  0  0  0
   58.0960   32.2960   45.7710 C   0  0  0  0  0  0  0  0  0  0  0  0
   58.5400   32.8180   46.9410 N   0  0  0  0  0  0  0  0  0  0  0  0
   59.2385   34.0709   49.0573 H   0  0  0  0  0  0  0  0  0  0  0  0
   60.7840   34.5140   48.2563 H   0  0  0  0  0  0  0  0  0  0  0  0
   59.4089   35.6697   48.2563 H   0  0  0  0  0  0  0  0  0  0  0  0
   59.9318   35.6645   45.6904 H   0  0  0  0  0  0  0  0  0  0  0  0
   59.0772   34.6215   43.5507 H   0  0  0  0  0  0  0  0  0  0  0  0
   57.7146   32.3692   42.5799 H   0  0  0  0  0  0  0  0  0  0  0  0
   57.2120   27.5060   43.0040 H   0  0  0  0  0  0  0  0  0  0  0  0
   57.1111   26.9841   46.0298 H   0  0  0  0  0  0  0  0  0  0  0  0
   58.8692   26.6562   47.7658 H   0  0  0  0  0  0  0  0  0  0  0  0
   61.1595   27.5853   47.4220 H   0  0  0  0  0  0  0  0  0  0  0  0
   61.6908   28.8543   45.3395 H   0  0  0  0  0  0  0  0  0  0  0  0
   59.9384   29.1924   43.5968 H   0  0  0  0  0  0  0  0  0  0  0  0
  1  2  1  0
  2  3  1  0
  3  4  2  0
  4  5  1  0
  5  6  1  0
  6  7  2  0
  7  8  1  0
  8  9  2  0
  8 10  2  0
  8 11  1  0
 11 12  1  0
 12 13  2  0
 13 14  1  0
 14 15  2  0
 15 16  1  0
 16 17  2  0
  7 18  1  0
 18 19  2  0
 19 20  1  0
 20  2  2  0
 19  5  1  0
 17 12  1  0
  1 21  1  0
  1 22  1  0
  1 23  1  0
  3 24  1  0
  4 25  1  0
  6 26  1  0
 11 27  1  0
 13 28  1  0
 14 29  1  0
 15 30  1  0
 16 31  1  0
 17 32  1  0
M  END
>  <UniqueID>  (56) 
51

>  <SMILES>  (56) 
Cc1ccn2cc(S(=O)(=O)Nc3ccccc3)nc2n1

>  <Energy>  (56) 
71.63527601039505

>  <Genealogy>  (56) 
Cc1ccn2cc(S(=O)(=O)Nc3ccccc3)nc2n1 (3D coordinates assigned)
Cc1ccn2cc(S(=O)(=O)Nc3ccccc3)nc2n1 (optimized conformer: 71.63527601039505 kcal/mol)

>  <smiles>  (56) 
Cc1ccn2cc(S(=O)(=O)Nc3ccccc3)nc2n1

>  <score_type>  (56) 
oracle

>  <origin>  (56) 
adg

>  <m_score__min__energy>  (56) 
-8.0500000000000007

>  <m_primary>  (56) 
energy

$$$$
56:0
     RDKit          3D

 61 63  0  0  0  0  0  0  0  0999 V2000
   58.0792   29.7298   44.6393 H   0  0  0  0  0  0  0  0  0  0  0  0
   57.9650   28.7280   45.0790 C   0  0  0  0  0  0  0  0  0  0  0  0
   59.0960   28.0130   45.4770 C   0  0  0  0  0  0  0  0  0  0  0  0
   60.0948   28.4584   45.3585 H   0  0  0  0  0  0  0  0  0  0  0  0
   58.9650   26.7300   46.0270 C   0  0  0  0  0  0  0  0  0  0  0  0
   60.1820   25.9580   46.4670 C   0  0  0  0  0  0  0  0  0  0  0  0
   59.8643   24.9683   46.8269 H   0  0  0  0  0  0  0  0  0  0  0  0
   60.8587   25.8682   45.6044 H   0  0  0  0  0  0  0  0  0  0  0  0
   60.9390   26.6750   47.5920 C   0  0  0  0  0  0  0  0  0  0  0  0
   61.7225   26.0055   47.9765 H   0  0  0  0  0  0  0  0  0  0  0  0
   61.3737   27.5965   47.1775 H   0  0  0  0  0  0  0  0  0  0  0  0
   60.0530   27.0470   48.6930 N   0  0  0  0  0  0  0  0  0  0  0  0
   59.2880   28.2530   48.8140 C   0  0  0  0  0  0  0  0  0  0  0  0
   58.1590   28.3000   48.2580 O   0  0  0  0  0  0  0  0  0  0  0  0
   59.7590   29.4290   49.5790 C   0  0  0  0  0  0  0  0  0  0  0  0
   59.3840   29.5800   50.7730 O   0  0  0  0  0  0  0  0  0  0  0  0
   60.6250   30.4610   48.9600 C   0  0  0  0  0  0  0  0  0  0  0  0
   60.4930   30.7630   47.5950 C   0  0  0  0  0  0  0  0  0  0  0  0
   59.7436   30.2332   46.9886 H   0  0  0  0  0  0  0  0  0  0  0  0
   61.3070   31.7320   47.0010 C   0  0  0  0  0  0  0  0  0  0  0  0
   61.2088   31.9410   45.9255 H   0  0  0  0  0  0  0  0  0  0  0  0
   62.2500   32.4420   47.7650 C   0  0  0  0  0  0  0  0  0  0  0  0
   63.1740   33.4370   47.1100 C   0  0  0  0  0  0  0  0  0  0  0  0
   62.4840   34.2110   46.1910 F   0  0  0  0  0  0  0  0  0  0  0  0
   64.2020   32.7930   46.4440 F   0  0  0  0  0  0  0  0  0  0  0  0
   63.7150   34.2620   48.0800 F   0  0  0  0  0  0  0  0  0  0  0  0
   62.3860   32.1370   49.1290 C   0  0  0  0  0  0  0  0  0  0  0  0
   63.1374   32.6655   49.7340 H   0  0  0  0  0  0  0  0  0  0  0  0
   61.5740   31.1670   49.7240 C   0  0  0  0  0  0  0  0  0  0  0  0
   61.6773   30.9535   50.7981 H   0  0  0  0  0  0  0  0  0  0  0  0
   57.6830   26.1810   46.1910 C   0  0  0  0  0  0  0  0  0  0  0  0
   57.5729   25.1748   46.6216 H   0  0  0  0  0  0  0  0  0  0  0  0
   56.5370   26.9050   45.8100 C   0  0  0  0  0  0  0  0  0  0  0  0
   55.2400   26.3910   45.9810 O   0  0  0  0  0  0  0  0  0  0  0  0
   54.8490   25.0660   45.6390 C   0  0  0  0  0  0  0  0  0  0  0  0
   54.6777   24.4856   46.5576 H   0  0  0  0  0  0  0  0  0  0  0  0
   53.9221   25.0983   45.0475 H   0  0  0  0  0  0  0  0  0  0  0  0
   55.6450   24.5899   45.0475 H   0  0  0  0  0  0  0  0  0  0  0  0
   56.6810   28.1770   45.2360 C   0  0  0  0  0  0  0  0  0  0  0  0
   55.5240   28.8850   44.8840 O   0  0  0  0  0  0  0  0  0  0  0  0
   55.4990   30.2430   44.4410 C   0  0  0  0  0  0  0  0  0  0  0  0
   54.4932   30.4886   44.0695 H   0  0  0  0  0  0  0  0  0  0  0  0
   55.7530   30.9064   45.2809 H   0  0  0  0  0  0  0  0  0  0  0  0
   56.5200   30.4340   43.3140 C   0  0  0  0  0  0  0  0  0  0  0  0
   57.0921   29.5024   43.1926 H   0  0  0  0  0  0  0  0  0  0  0  0
   55.9676   30.6868   42.3970 H   0  0  0  0  0  0  0  0  0  0  0  0
   57.4970   31.5790   43.6060 C   0  0  0  0  0  0  0  0  0  0  0  0
   58.5249   31.1874   43.6027 H   0  0  0  0  0  0  0  0  0  0  0  0
   57.3825   32.3507   42.8305 H   0  0  0  0  0  0  0  0  0  0  0  0
   57.2130   32.1750   44.9120 N   0  0  0  0  0  0  0  0  0  0  0  0
   57.9480   33.0440   45.5460 C   0  0  0  0  0  0  0  0  0  0  0  0
   58.6790   34.0410   44.8660 C   0  0  0  0  0  0  0  0  0  0  0  0
   58.6269   34.1158   43.7698 H   0  0  0  0  0  0  0  0  0  0  0  0
   59.4700   34.9330   45.5960 C   0  0  0  0  0  0  0  0  0  0  0  0
   60.0439   35.7138   45.0755 H   0  0  0  0  0  0  0  0  0  0  0  0
   59.5300   34.8310   46.9840 C   0  0  0  0  0  0  0  0  0  0  0  0
   60.1518   35.5276   47.5654 H   0  0  0  0  0  0  0  0  0  0  0  0
   58.7940   33.8370   47.6300 C   0  0  0  0  0  0  0  0  0  0  0  0
   58.8385   33.7463   48.7254 H   0  0  0  0  0  0  0  0  0  0  0  0
   58.0200   32.9780   46.9080 N   0  0  0  0  0  0  0  0  0  0  0  0
   57.4850   32.2400   47.4180 H   0  0  0  0  0  0  0  0  0  0  0  0
  1  2  1  0
  2  3  2  0
  3  4  1  0
  3  5  1  0
  5  6  1  0
  6  7  1  0
  6  8  1  0
  6  9  1  0
  9 10  1  0
  9 11  1  0
  9 12  1  0
 12 13  1  0
 13 14  2  0
 13 15  1  0
 15 16  2  0
 15 17  1  0
 17 18  2  0
 18 19  1  0
 18 20  1  0
 20 21  1  0
 20 22  2  0
 22 23  1  0
 23 24  1  0
 23 25  1  0
 23 26  1  0
 22 27  1  0
 27 28  1  0
 27 29  2  0
 29 30  1  0
  5 31  2  0
 31 32  1  0
 31 33  1  0
 33 34  1  0
 34 35  1  0
 35 36  1  0
 35 37  1  0
 35 38  1  0
 33 39  2  0
 39 40  1  0
 40 41  1  0
 41 42  1  0
 41 43  1  0
 41 44  1  0
 44 45  1  0
 44 46  1  0
 44 47  1  0
 47 48  1  0
 47 49  1  0
 47 50  1  0
 50 51  2  0
 51 52  1  0
 52 53  1  0
 52 54  2  0
 54 55  1  0
 54 56  1  0
 56 57  1  0
 56 58  2  0
 58 59  1  0
 58 60  1  0
 60 61  1  0
 39  2  1  0
 60 51  1  0
 29 17  1  0
M  CHG  1  12  -1
M  END
>  <UniqueID>  (57) 
52

>  <SMILES>  (57) 
COc1cc(CC[N-]C(=O)C(=O)c2ccc(C(F)(F)F)cc2)ccc1OCCC/N=c1\cccc[nH]1

>  <Energy>  (57) 
65.88006586368273

>  <Genealogy>  (57) 
COc1cc(CC[N-]C(=O)C(=O)c2ccc(C(F)(F)F)cc2)ccc1OCCCN=c1cccc[nH]1 (protonated)
COc1cc(CC[N-]C(=O)C(=O)c2ccc(C(F)(F)F)cc2)ccc1OCCC/N=c1\cccc[nH]1 (cis-trans isomerization)
COc1cc(CC[N-]C(=O)C(=O)c2ccc(C(F)(F)F)cc2)ccc1OCCC/N=c1\cccc[nH]1 (3D coordinates assigned)
COc1cc(CC[N-]C(=O)C(=O)c2ccc(C(F)(F)F)cc2)ccc1OCCC/N=c1\cccc[nH]1 (optimized conformer: 65.88006586368273 kcal/mol)

>  <smiles>  (57) 
COc1cc(CCNC(=O)C(=O)c2ccc(C(F)(F)F)cc2)ccc1OCCCN=c1cccc[nH]1

>  <score_type>  (57) 
oracle

>  <origin>  (57) 
adg

>  <m_score__min__energy>  (57) 
-9.9700000000000006

>  <m_primary>  (57) 
energy

$$$$
57:0
     RDKit          3D

 55 59  0  0  0  0  0  0  0  0999 V2000
   57.5527   33.7725   44.1720 H   0  0  0  0  0  0  0  0  0  0  0  0
   57.7040   32.7190   44.4500 C   0  0  0  0  0  0  0  0  0  0  0  0
   57.4730   31.7450   43.5370 N   0  0  0  0  0  0  0  0  0  0  0  0
   57.6330   30.4330   43.8370 C   0  0  0  0  0  0  0  0  0  0  0  0
   57.4285   29.6701   43.0714 H   0  0  0  0  0  0  0  0  0  0  0  0
   58.0570   30.0390   45.1150 C   0  0  0  0  0  0  0  0  0  0  0  0
   58.2070   28.5900   45.4050 C   0  0  0  0  0  0  0  0  0  0  0  0
   59.4720   28.0460   45.6840 C   0  0  0  0  0  0  0  0  0  0  0  0
   60.3602   28.6949   45.6763 H   0  0  0  0  0  0  0  0  0  0  0  0
   59.6080   26.6860   45.9710 C   0  0  0  0  0  0  0  0  0  0  0  0
   60.6019   26.2678   46.1881 H   0  0  0  0  0  0  0  0  0  0  0  0
   58.4840   25.8550   45.9830 C   0  0  0  0  0  0  0  0  0  0  0  0
   58.5954   24.7856   46.2152 H   0  0  0  0  0  0  0  0  0  0  0  0
   57.2150   26.3800   45.7000 C   0  0  0  0  0  0  0  0  0  0  0  0
   56.0010   25.4930   45.7520 C   0  0  0  0  0  0  0  0  0  0  0  0
   55.8918   24.9675   44.7918 H   0  0  0  0  0  0  0  0  0  0  0  0
   56.1214   24.7614   46.5646 H   0  0  0  0  0  0  0  0  0  0  0  0
   54.8090   26.2970   46.0020 N   0  0  0  0  0  0  0  0  0  0  0  0
   54.8050   27.0830   45.3130 H   0  0  0  0  0  0  0  0  0  0  0  0
   54.9010   26.7320   46.9490 H   0  0  0  0  0  0  0  0  0  0  0  0
   57.0800   27.7500   45.4270 C   0  0  0  0  0  0  0  0  0  0  0  0
   56.0831   28.1704   45.2284 H   0  0  0  0  0  0  0  0  0  0  0  0
   58.3580   31.0310   46.0810 C   0  0  0  0  0  0  0  0  0  0  0  0
   58.8330   30.6330   47.2350 N   0  0  0  0  0  0  0  0  0  0  0  0
   60.0510   30.9990   47.8950 C   0  0  0  0  0  0  0  0  0  0  0  0
   60.2310   30.6680   49.2380 C   0  0  0  0  0  0  0  0  0  0  0  0
   59.4206   30.1744   49.7944 H   0  0  0  0  0  0  0  0  0  0  0  0
   61.4360   30.9610   49.8780 C   0  0  0  0  0  0  0  0  0  0  0  0
   61.5601   30.7164   50.9433 H   0  0  0  0  0  0  0  0  0  0  0  0
   62.4920   31.5650   49.1760 C   0  0  0  0  0  0  0  0  0  0  0  0
   63.7600   31.8480   49.8840 C   0  0  0  0  0  0  0  0  0  0  0  0
   64.0490   31.4940   51.5190 S   0  0  0  0  0  0  0  0  0  0  0  0
   65.6220   32.0760   51.4560 C   0  0  0  0  0  0  0  0  0  0  0  0
   66.5730   32.1310   52.4720 C   0  0  0  0  0  0  0  0  0  0  0  0
   66.3402   31.7719   53.4854 H   0  0  0  0  0  0  0  0  0  0  0  0
   67.8370   32.6580   52.1650 C   0  0  0  0  0  0  0  0  0  0  0  0
   68.6094   32.7169   52.9459 H   0  0  0  0  0  0  0  0  0  0  0  0
   68.1220   33.1120   50.8620 C   0  0  0  0  0  0  0  0  0  0  0  0
   69.1165   33.5220   50.6323 H   0  0  0  0  0  0  0  0  0  0  0  0
   67.1450   33.0450   49.8530 C   0  0  0  0  0  0  0  0  0  0  0  0
   67.3647   33.3968   48.8342 H   0  0  0  0  0  0  0  0  0  0  0  0
   65.8890   32.5220   50.1720 C   0  0  0  0  0  0  0  0  0  0  0  0
   64.8580   32.3930   49.2960 N   0  0  0  0  0  0  0  0  0  0  0  0
   64.9240   32.6480   48.2860 H   0  0  0  0  0  0  0  0  0  0  0  0
   62.3220   31.8920   47.8110 C   0  0  0  0  0  0  0  0  0  0  0  0
   63.3600   32.5440   47.1260 O   0  0  0  0  0  0  0  0  0  0  0  0
   63.2330   33.7990   46.4670 C   0  0  0  0  0  0  0  0  0  0  0  0
   63.1519   34.6001   47.2164 H   0  0  0  0  0  0  0  0  0  0  0  0
   64.1180   33.9739   45.8376 H   0  0  0  0  0  0  0  0  0  0  0  0
   62.3309   33.7930   45.8376 H   0  0  0  0  0  0  0  0  0  0  0  0
   61.1040   31.5800   47.1760 C   0  0  0  0  0  0  0  0  0  0  0  0
   60.9782   31.7947   46.1045 H   0  0  0  0  0  0  0  0  0  0  0  0
   58.1330   32.3990   45.7430 C   0  0  0  0  0  0  0  0  0  0  0  0
   58.2120   33.4850   46.6900 C   0  0  0  0  0  0  0  0  0  0  0  0
   58.2850   34.3530   47.4540 N   0  0  0  0  0  0  0  0  0  0  0  0
  1  2  1  0
  2  3  1  0
  3  4  1  0
  4  5  1  0
  4  6  2  0
  6  7  1  0
  7  8  2  0
  8  9  1  0
  8 10  1  0
 10 11  1  0
 10 12  2  0
 12 13  1  0
 12 14  1  0
 14 15  1  0
 15 16  1  0
 15 17  1  0
 15 18  1  0
 18 19  1  0
 18 20  1  0
 14 21  2  0
 21 22  1  0
  6 23  1  0
 23 24  2  0
 24 25  1  0
 25 26  2  0
 26 27  1  0
 26 28  1  0
 28 29  1  0
 28 30  2  0
 30 31  1  0
 31 32  1  0
 32 33  1  0
 33 34  2  0
 34 35  1  0
 34 36  1  0
 36 37  1  0
 36 38  2  0
 38 39  1  0
 38 40  1  0
 40 41  1  0
 40 42  2  0
 42 43  1  0
 43 44  1  0
 30 45  1  0
 45 46  1  0
 46 47  1  0
 47 48  1  0
 47 49  1  0
 47 50  1  0
 45 51  2  0
 51 52  1  0
 23 53  1  0
 53 54  1  0
 54 55  3  0
 53  2  2  0
 21  7  1  0
 51 25  1  0
 43 31  2  0
 42 33  1  0
M  CHG  2   3  -1  43   1
M  END
>  <UniqueID>  (58) 
53

>  <SMILES>  (58) 
COc1cc(/N=c2\c(C#N)c[n-]cc2-c2cccc(CN)c2)ccc1-c1[nH+]c2ccccc2s1

>  <Energy>  (58) 
120.79392445810801

>  <Genealogy>  (58) 
COc1cc(N=c2c(C#N)c[n-]cc2-c2cccc(CN)c2)ccc1-c1[nH+]c2ccccc2s1 (protonated)
COc1cc(/N=c2\c(C#N)c[n-]cc2-c2cccc(CN)c2)ccc1-c1[nH+]c2ccccc2s1 (cis-trans isomerization)
COc1cc(/N=c2\c(C#N)c[n-]cc2-c2cccc(CN)c2)ccc1-c1[nH+]c2ccccc2s1 (3D coordinates assigned)
COc1cc(/N=c2\c(C#N)c[n-]cc2-c2cccc(CN)c2)ccc1-c1[nH+]c2ccccc2s1 (optimized conformer: 120.79392445810801 kcal/mol)

>  <smiles>  (58) 
COc1cc(N=c2c(C#N)c[nH]cc2-c2cccc(CN)c2)ccc1-c1nc2ccccc2s1

>  <score_type>  (58) 
oracle

>  <origin>  (58) 
adg

>  <m_score__min__energy>  (58) 
-9.1500000000000004

>  <m_primary>  (58) 
energy

$$$$
58:0
     RDKit          3D

 34 36  0  0  0  0  0  0  0  0999 V2000
   63.5070   33.8170   46.8140 C   0  0  0  0  0  0  0  0  0  0  0  0
   63.5260   33.0180   48.0880 C   0  0  0  0  0  0  0  0  0  0  0  0
   64.6540   33.0710   48.9250 C   0  0  0  0  0  0  0  0  0  0  0  0
   64.6860   32.3410   50.1160 C   0  0  0  0  0  0  0  0  0  0  0  0
   63.5910   31.5590   50.4890 C   0  0  0  0  0  0  0  0  0  0  0  0
   62.4580   31.5100   49.6750 C   0  0  0  0  0  0  0  0  0  0  0  0
   62.4110   32.2440   48.4800 C   0  0  0  0  0  0  0  0  0  0  0  0
   61.2250   32.1890   47.6680 N   0  0  0  0  0  0  0  0  0  0  0  0
   60.9100   31.0180   47.0440 C   0  0  0  0  0  0  0  0  0  0  0  0
   59.8000   30.9290   46.2690 N   0  0  0  0  0  0  0  0  0  0  0  0
   58.9650   31.9850   46.0950 C   0  0  0  0  0  0  0  0  0  0  0  0
   57.8180   31.8720   45.2730 C   0  0  0  0  0  0  0  0  0  0  0  0
   57.4490   30.6000   44.6090 C   0  0  0  0  0  0  0  0  0  0  0  0
   58.4460   29.7000   44.1220 N   0  0  0  0  0  0  0  0  0  0  0  0
   56.2330   30.2860   44.5000 O   0  0  0  0  0  0  0  0  0  0  0  0
   57.0140   33.0050   45.0650 C   0  0  0  0  0  0  0  0  0  0  0  0
   57.3170   34.2180   45.6860 C   0  0  0  0  0  0  0  0  0  0  0  0
   58.4340   34.3260   46.5140 C   0  0  0  0  0  0  0  0  0  0  0  0
   59.2700   33.2140   46.7190 C   0  0  0  0  0  0  0  0  0  0  0  0
   60.4220   33.2880   47.5240 C   0  0  0  0  0  0  0  0  0  0  0  0
   60.7140   34.3660   48.1150 O   0  0  0  0  0  0  0  0  0  0  0  0
   63.4815   34.8901   47.0545 H   0  0  0  0  0  0  0  0  0  0  0  0
   64.4107   33.5940   46.2278 H   0  0  0  0  0  0  0  0  0  0  0  0
   62.6149   33.5513   46.2278 H   0  0  0  0  0  0  0  0  0  0  0  0
   65.5170   33.6910   48.6406 H   0  0  0  0  0  0  0  0  0  0  0  0
   65.5759   32.3825   50.7613 H   0  0  0  0  0  0  0  0  0  0  0  0
   63.6212   30.9813   51.4246 H   0  0  0  0  0  0  0  0  0  0  0  0
   61.5974   30.8926   49.9720 H   0  0  0  0  0  0  0  0  0  0  0  0
   61.5603   30.1398   47.1699 H   0  0  0  0  0  0  0  0  0  0  0  0
   59.4550   29.8380   44.3450 H   0  0  0  0  0  0  0  0  0  0  0  0
   58.1640   28.8350   43.6100 H   0  0  0  0  0  0  0  0  0  0  0  0
   56.1362   32.9356   44.4057 H   0  0  0  0  0  0  0  0  0  0  0  0
   56.6713   35.0932   45.5214 H   0  0  0  0  0  0  0  0  0  0  0  0
   58.6614   35.2824   47.0075 H   0  0  0  0  0  0  0  0  0  0  0  0
  1  2  1  0
  2  3  2  0
  3  4  1  0
  4  5  2  0
  5  6  1  0
  6  7  2  0
  7  8  1  0
  8  9  1  0
  9 10  2  0
 10 11  1  0
 11 12  2  0
 12 13  1  0
 13 14  1  0
 13 15  2  0
 12 16  1  0
 16 17  2  0
 17 18  1  0
 18 19  2  0
 19 20  1  0
 20 21  2  0
  7  2  1  0
 20  8  1  0
 19 11  1  0
  1 22  1  0
  1 23  1  0
  1 24  1  0
  3 25  1  0
  4 26  1  0
  5 27  1  0
  6 28  1  0
  9 29  1  0
 14 30  1  0
 14 31  1  0
 16 32  1  0
 17 33  1  0
 18 34  1  0
M  END
>  <UniqueID>  (59) 
54

>  <SMILES>  (59) 
Cc1ccccc1-n1cnc2c(C(N)=O)cccc2c1=O

>  <Energy>  (59) 
53.75211479773886

>  <Genealogy>  (59) 
Cc1ccccc1-n1cnc2c(C(N)=O)cccc2c1=O (3D coordinates assigned)
Cc1ccccc1-n1cnc2c(C(N)=O)cccc2c1=O (optimized conformer: 53.75211479773886 kcal/mol)

>  <smiles>  (59) 
Cc1ccccc1-n1cnc2c(C(N)=O)cccc2c1=O

>  <score_type>  (59) 
oracle

>  <origin>  (59) 
adg

>  <m_score__min__energy>  (59) 
-7.2400000000000002

>  <m_primary>  (59) 
energy

$$$$
59:0
     RDKit          3D

 30 31  0  0  0  0  0  0  0  0999 V2000
   59.5243   34.9079   49.8108 H   0  0  0  0  0  0  0  0  0  0  0  0
   59.9430   34.2430   49.0410 C   0  0  0  0  0  0  0  0  0  0  0  0
   61.3170   34.2500   48.7850 C   0  0  0  0  0  0  0  0  0  0  0  0
   61.9782   34.9246   49.3486 H   0  0  0  0  0  0  0  0  0  0  0  0
   61.8510   33.3990   47.8120 C   0  0  0  0  0  0  0  0  0  0  0  0
   63.7320   33.3910   47.4810 Br  0  0  0  0  0  0  0  0  0  0  0  0
   61.0080   32.5480   47.0880 C   0  0  0  0  0  0  0  0  0  0  0  0
   61.4319   31.8741   46.3290 H   0  0  0  0  0  0  0  0  0  0  0  0
   59.6210   32.5500   47.3260 C   0  0  0  0  0  0  0  0  0  0  0  0
   58.7360   31.6680   46.6140 N   0  0  0  0  0  0  0  0  0  0  0  0
   58.2330   30.9300   47.1560 H   0  0  0  0  0  0  0  0  0  0  0  0
   58.4040   31.8160   45.2250 C   0  0  0  0  0  0  0  0  0  0  0  0
   58.4940   32.9430   44.6710 O   0  0  0  0  0  0  0  0  0  0  0  0
   57.8500   30.7240   44.4780 N   0  0  0  0  0  0  0  0  0  0  0  0
   57.3440   29.6260   44.9680 C   0  0  0  0  0  0  0  0  0  0  0  0
   57.9740   28.7070   45.7910 C   0  0  0  0  0  0  0  0  0  0  0  0
   58.9885   28.7541   46.2135 H   0  0  0  0  0  0  0  0  0  0  0  0
   57.0220   27.7150   45.9550 C   0  0  0  0  0  0  0  0  0  0  0  0
   57.2230   26.4320   46.6900 C   0  0  0  0  0  0  0  0  0  0  0  0
   57.1933   26.6214   47.7732 H   0  0  0  0  0  0  0  0  0  0  0  0
   56.4246   25.7254   46.4193 H   0  0  0  0  0  0  0  0  0  0  0  0
   58.1992   26.0034   46.4193 H   0  0  0  0  0  0  0  0  0  0  0  0
   55.9090   28.0090   45.2500 N   0  0  0  0  0  0  0  0  0  0  0  0
   56.1090   29.1790   44.6660 N   0  0  0  0  0  0  0  0  0  0  0  0
   55.1490   29.8130   43.7700 C   0  0  0  0  0  0  0  0  0  0  0  0
   54.3759   30.3236   44.3629 H   0  0  0  0  0  0  0  0  0  0  0  0
   55.6684   30.5463   43.1356 H   0  0  0  0  0  0  0  0  0  0  0  0
   54.6785   29.0474   43.1356 H   0  0  0  0  0  0  0  0  0  0  0  0
   59.1000   33.3920   48.3200 C   0  0  0  0  0  0  0  0  0  0  0  0
   58.0210   33.3825   48.5335 H   0  0  0  0  0  0  0  0  0  0  0  0
  1  2  1  0
  2  3  2  0
  3  4  1  0
  3  5  1  0
  5  6  1  0
  5  7  2  0
  7  8  1  0
  7  9  1  0
  9 10  1  0
 10 11  1  0
 10 12  1  0
 12 13  2  0
 12 14  1  0
 14 15  2  0
 15 16  1  0
 16 17  1  0
 16 18  2  0
 18 19  1  0
 19 20  1  0
 19 21  1  0
 19 22  1  0
 18 23  1  0
 23 24  1  0
 24 25  1  0
 25 26  1  0
 25 27  1  0
 25 28  1  0
  9 29  2  0
 29 30  1  0
 29  2  1  0
 24 15  1  0
M  CHG  1  23  -1
M  END
>  <UniqueID>  (60) 
55

>  <SMILES>  (60) 
Cc1c/c(=N\C(=O)Nc2cccc(Br)c2)n(C)[n-]1

>  <Energy>  (60) 
67.27519561363154

>  <Genealogy>  (60) 
Cc1cc(=NC(=O)Nc2cccc(Br)c2)n(C)[n-]1 (protonated)
Cc1c/c(=N\C(=O)Nc2cccc(Br)c2)n(C)[n-]1 (cis-trans isomerization)
Cc1c/c(=N\C(=O)Nc2cccc(Br)c2)n(C)[n-]1 (3D coordinates assigned)
Cc1c/c(=N\C(=O)Nc2cccc(Br)c2)n(C)[n-]1 (optimized conformer: 67.27519561363154 kcal/mol)

>  <smiles>  (60) 
Cc1cc(=NC(=O)Nc2cccc(Br)c2)n(C)[nH]1

>  <score_type>  (60) 
oracle

>  <origin>  (60) 
adg

>  <m_score__min__energy>  (60) 
-9.0600000000000005

>  <m_primary>  (60) 
energy

$$$$
60:0
     RDKit          3D

 33 35  0  0  0  0  0  0  0  0999 V2000
   55.1480   28.1990   44.9160 H   0  0  0  0  0  0  0  0  0  0  0  0
   56.0330   28.7300   45.0550 N   0  0  0  0  0  0  0  0  0  0  0  0
   57.0190   28.3590   45.8200 C   0  0  0  0  0  0  0  0  0  0  0  0
   57.0440   27.0790   46.4340 C   0  0  0  0  0  0  0  0  0  0  0  0
   56.0510   26.0190   46.1430 C   0  0  0  0  0  0  0  0  0  0  0  0
   56.4250   24.8230   46.0120 O   0  0  0  0  0  0  0  0  0  0  0  0
   54.7140   26.3350   45.9350 O   0  0  0  0  0  0  0  0  0  0  0  0
   58.0770   26.7850   47.3380 C   0  0  0  0  0  0  0  0  0  0  0  0
   58.0911   25.8112   47.8494 H   0  0  0  0  0  0  0  0  0  0  0  0
   59.0570   27.6870   47.5880 N   0  0  0  0  0  0  0  0  0  0  0  0
   59.0860   28.9050   46.9900 C   0  0  0  0  0  0  0  0  0  0  0  0
   60.1280   29.7910   47.2830 C   0  0  0  0  0  0  0  0  0  0  0  0
   60.9180   29.4894   47.9865 H   0  0  0  0  0  0  0  0  0  0  0  0
   60.1750   31.0630   46.6870 C   0  0  0  0  0  0  0  0  0  0  0  0
   61.2820   32.0020   46.9980 C   0  0  0  0  0  0  0  0  0  0  0  0
   61.2860   33.3090   46.4810 C   0  0  0  0  0  0  0  0  0  0  0  0
   60.4612   33.6447   45.8353 H   0  0  0  0  0  0  0  0  0  0  0  0
   62.3040   34.1600   46.7750 N   0  0  0  0  0  0  0  0  0  0  0  0
   63.3450   33.7910   47.5650 C   0  0  0  0  0  0  0  0  0  0  0  0
   64.1519   34.5070   47.7802 H   0  0  0  0  0  0  0  0  0  0  0  0
   63.3930   32.4960   48.1080 C   0  0  0  0  0  0  0  0  0  0  0  0
   64.4430   32.0570   48.9270 O   0  0  0  0  0  0  0  0  0  0  0  0
   65.1900   32.9030   49.7980 C   0  0  0  0  0  0  0  0  0  0  0  0
   64.9627   32.6456   50.8430 H   0  0  0  0  0  0  0  0  0  0  0  0
   66.2651   32.7636   49.6115 H   0  0  0  0  0  0  0  0  0  0  0  0
   64.9186   33.9525   49.6115 H   0  0  0  0  0  0  0  0  0  0  0  0
   62.3540   31.6080   47.8180 C   0  0  0  0  0  0  0  0  0  0  0  0
   62.3749   30.5905   48.2354 H   0  0  0  0  0  0  0  0  0  0  0  0
   59.1570   31.4320   45.7910 C   0  0  0  0  0  0  0  0  0  0  0  0
   59.1820   32.4250   45.3184 H   0  0  0  0  0  0  0  0  0  0  0  0
   58.1140   30.5520   45.4940 C   0  0  0  0  0  0  0  0  0  0  0  0
   57.3253   30.8580   44.7909 H   0  0  0  0  0  0  0  0  0  0  0  0
   58.0640   29.2750   46.0880 C   0  0  0  0  0  0  0  0  0  0  0  0
  1  2  1  0
  2  3  2  0
  3  4  1  0
  4  5  1  0
  5  6  2  0
  5  7  1  0
  4  8  2  0
  8  9  1  0
  8 10  1  0
 10 11  1  0
 11 12  2  0
 12 13  1  0
 12 14  1  0
 14 15  1  0
 15 16  2  0
 16 17  1  0
 16 18  1  0
 18 19  2  0
 19 20  1  0
 19 21  1  0
 21 22  1  0
 22 23  1  0
 23 24  1  0
 23 25  1  0
 23 26  1  0
 21 27  2  0
 27 28  1  0
 14 29  2  0
 29 30  1  0
 29 31  1  0
 31 32  1  0
 31 33  2  0
 33  3  1  0
 33 11  1  0
 27 15  1  0
M  CHG  2   7  -1  10  -1
M  END
>  <UniqueID>  (61) 
56

>  <SMILES>  (61) 
[H]/N=c1\c(C(=O)[O-])c[n-]c2cc(-c3cncc(OC)c3)ccc12

>  <Energy>  (61) 
54.12304277118384

>  <Genealogy>  (61) 
COc1cncc(-c2ccc3c(=N)c(C(=O)[O-])c[n-]c3c2)c1 (protonated)
[H]/N=c1\c(C(=O)[O-])c[n-]c2cc(-c3cncc(OC)c3)ccc12 (cis-trans isomerization)
[H]/N=c1\c(C(=O)[O-])c[n-]c2cc(-c3cncc(OC)c3)ccc12 (3D coordinates assigned)
[H]/N=c1\c(C(=O)[O-])c[n-]c2cc(-c3cncc(OC)c3)ccc12 (optimized conformer: 54.12304277118384 kcal/mol)

>  <smiles>  (61) 
COc1cncc(-c2ccc3c(=N)c(C(=O)O)c[nH]c3c2)c1

>  <score_type>  (61) 
oracle

>  <origin>  (61) 
adg

>  <m_score__min__energy>  (61) 
-10.6

>  <m_primary>  (61) 
energy

$$$$
61:0
     RDKit          3D

 54 56  0  0  0  0  0  0  0  0999 V2000
   57.0520   30.4880   44.2150 C   0  0  0  0  0  0  0  0  0  0  0  0
   57.0860   31.1970   45.4510 O   0  0  0  0  0  0  0  0  0  0  0  0
   57.7830   32.3980   45.6580 C   0  0  0  0  0  0  0  0  0  0  0  0
   57.7350   33.3750   44.6570 C   0  0  0  0  0  0  0  0  0  0  0  0
   58.3980   34.5940   44.8230 C   0  0  0  0  0  0  0  0  0  0  0  0
   59.1190   34.8470   45.9920 C   0  0  0  0  0  0  0  0  0  0  0  0
   59.1890   33.8760   47.0040 C   0  0  0  0  0  0  0  0  0  0  0  0
   59.9500   34.1620   48.2770 C   0  0  0  0  0  0  0  0  0  0  0  0
   61.1950   33.3530   48.3640 N   0  0  0  0  0  0  0  0  0  0  0  0
   61.9860   33.5620   47.1220 C   0  0  0  0  0  0  0  0  0  0  0  0
   63.2700   32.7340   47.1230 C   0  0  0  0  0  0  0  0  0  0  0  0
   64.1340   33.1210   48.3140 C   0  0  0  0  0  0  0  0  0  0  0  0
   63.3410   32.9330   49.6010 C   0  0  0  0  0  0  0  0  0  0  0  0
   62.0060   33.7200   49.5670 C   0  0  2  0  0  0  0  0  0  0  0  0
   61.2580   33.4940   50.9130 C   0  0  0  0  0  0  0  0  0  0  0  0
   60.8270   32.0270   51.1570 C   0  0  0  0  0  0  0  0  0  0  0  0
   59.8810   31.5400   50.1170 N   0  0  0  0  0  0  0  0  0  0  0  0
   58.4890   32.0020   50.3580 C   0  0  0  0  0  0  0  0  0  0  0  0
   57.6790   31.0220   51.2370 C   0  0  0  0  0  0  0  0  0  0  0  0
   58.5360   30.2430   52.0450 O   0  0  0  0  0  0  0  0  0  0  0  0
   59.3030   29.3680   51.2370 C   0  0  0  0  0  0  0  0  0  0  0  0
   59.9180   30.0660   49.9970 C   0  0  0  0  0  0  0  0  0  0  0  0
   58.5190   32.6510   46.8340 C   0  0  0  0  0  0  0  0  0  0  0  0
   57.0002   29.4073   44.4135 H   0  0  0  0  0  0  0  0  0  0  0  0
   56.1677   30.7978   43.6388 H   0  0  0  0  0  0  0  0  0  0  0  0
   57.9619   30.7117   43.6388 H   0  0  0  0  0  0  0  0  0  0  0  0
   57.1711   33.1819   43.7325 H   0  0  0  0  0  0  0  0  0  0  0  0
   58.3518   35.3560   44.0310 H   0  0  0  0  0  0  0  0  0  0  0  0
   59.6340   35.8105   46.1205 H   0  0  0  0  0  0  0  0  0  0  0  0
   60.2153   35.2292   48.3022 H   0  0  0  0  0  0  0  0  0  0  0  0
   59.3071   33.8968   49.1292 H   0  0  0  0  0  0  0  0  0  0  0  0
   61.3739   33.2693   46.2562 H   0  0  0  0  0  0  0  0  0  0  0  0
   62.2638   34.6249   47.0675 H   0  0  0  0  0  0  0  0  0  0  0  0
   63.0153   31.6659   47.1887 H   0  0  0  0  0  0  0  0  0  0  0  0
   63.8263   32.9268   46.1938 H   0  0  0  0  0  0  0  0  0  0  0  0
   65.0300   32.4834   48.3393 H   0  0  0  0  0  0  0  0  0  0  0  0
   64.4355   34.1747   48.2205 H   0  0  0  0  0  0  0  0  0  0  0  0
   63.1217   31.8631   49.7325 H   0  0  0  0  0  0  0  0  0  0  0  0
   63.9452   33.3151   50.4371 H   0  0  0  0  0  0  0  0  0  0  0  0
   62.1996   34.7982   49.4675 H   0  0  0  0  0  0  0  0  0  0  0  0
   61.9234   33.7998   51.7338 H   0  0  0  0  0  0  0  0  0  0  0  0
   60.3362   34.0927   50.8685 H   0  0  0  0  0  0  0  0  0  0  0  0
   61.7226   31.3884   51.1485 H   0  0  0  0  0  0  0  0  0  0  0  0
   60.3135   31.9825   52.1288 H   0  0  0  0  0  0  0  0  0  0  0  0
   60.1880   31.9170   49.1900 H   0  0  0  0  0  0  0  0  0  0  0  0
   58.5248   32.9792   50.8617 H   0  0  0  0  0  0  0  0  0  0  0  0
   57.9864   32.0658   49.3816 H   0  0  0  0  0  0  0  0  0  0  0  0
   56.9984   31.5960   51.8830 H   0  0  0  0  0  0  0  0  0  0  0  0
   57.1088   30.3494   50.5794 H   0  0  0  0  0  0  0  0  0  0  0  0
   60.1198   28.9545   51.8468 H   0  0  0  0  0  0  0  0  0  0  0  0
   58.6253   28.5836   50.8689 H   0  0  0  0  0  0  0  0  0  0  0  0
   60.9645   29.7443   49.8907 H   0  0  0  0  0  0  0  0  0  0  0  0
   59.3234   29.7813   49.1164 H   0  0  0  0  0  0  0  0  0  0  0  0
   58.5694   31.8860   47.6228 H   0  0  0  0  0  0  0  0  0  0  0  0
  1  2  1  0
  2  3  1  0
  3  4  2  0
  4  5  1  0
  5  6  2  0
  6  7  1  0
  7  8  1  0
  8  9  1  0
  9 10  1  0
 10 11  1  0
 11 12  1  0
 12 13  1  0
 13 14  1  0
 14 15  1  0
 15 16  1  0
 16 17  1  0
 17 18  1  0
 18 19  1  0
 19 20  1  0
 20 21  1  0
 21 22  1  0
  7 23  2  0
 23  3  1  0
 14  9  1  0
 22 17  1  0
  1 24  1  0
  1 25  1  0
  1 26  1  0
  4 27  1  0
  5 28  1  0
  6 29  1  0
  8 30  1  0
  8 31  1  0
 10 32  1  0
 10 33  1  0
 11 34  1  0
 11 35  1  0
 12 36  1  0
 12 37  1  0
 13 38  1  0
 13 39  1  0
 14 40  1  6
 15 41  1  0
 15 42  1  0
 16 43  1  0
 16 44  1  0
 17 45  1  0
 18 46  1  0
 18 47  1  0
 19 48  1  0
 19 49  1  0
 21 50  1  0
 21 51  1  0
 22 52  1  0
 22 53  1  0
 23 54  1  0
M  CHG  1  17   1
M  END
>  <UniqueID>  (62) 
57

>  <SMILES>  (62) 
COc1cccc(CN2CCCC[C@@H]2CC[NH+]2CCOCC2)c1

>  <Energy>  (62) 
65.6853473240789

>  <Genealogy>  (62) 
COc1cccc(CN2CCCCC2CC[NH+]2CCOCC2)c1 (protonated)
COc1cccc(CN2CCCC[C@@H]2CC[NH+]2CCOCC2)c1 (chirality)
COc1cccc(CN2CCCC[C@@H]2CC[NH+]2CCOCC2)c1 (3D coordinates assigned)
COc1cccc(CN2CCCC[C@@H]2CC[NH+]2CCOCC2)c1 (nonaromatic ring conformer: 65.6853473240789 kcal/mol)

>  <smiles>  (62) 
COc1cccc(CN2CCCCC2CCN2CCOCC2)c1

>  <score_type>  (62) 
oracle

>  <origin>  (62) 
adg

>  <m_score__min__energy>  (62) 
-5.96

>  <m_primary>  (62) 
energy

$$$$
62:0
     RDKit          3D

 49 50  0  0  0  0  0  0  0  0999 V2000
   59.6420   35.2040   45.9940 C   0  0  0  0  0  0  0  0  0  0  0  0
   58.9050   33.9880   45.5000 C   0  0  0  0  0  0  0  0  0  0  0  0
   58.6840   33.8370   44.1220 C   0  0  0  0  0  0  0  0  0  0  0  0
   58.0430   32.7000   43.6260 C   0  0  0  0  0  0  0  0  0  0  0  0
   57.6100   31.6960   44.4980 C   0  0  0  0  0  0  0  0  0  0  0  0
   56.8190   30.2590   43.8550 S   0  0  0  0  0  0  0  0  0  0  0  0
   56.6210   30.4230   42.3730 O   0  0  0  0  0  0  0  0  0  0  0  0
   55.4680   30.0760   44.4880 O   0  0  0  0  0  0  0  0  0  0  0  0
   57.7940   28.8500   44.1720 N   0  0  0  0  0  0  0  0  0  0  0  0
   57.7740   27.7400   43.2160 C   0  0  0  0  0  0  0  0  0  0  0  0
   58.6130   28.7760   45.3590 C   0  0  0  0  0  0  0  0  0  0  0  0
   58.1000   28.2340   46.5530 C   0  0  0  0  0  0  0  0  0  0  0  0
   58.8930   28.1680   47.7030 C   0  0  0  0  0  0  0  0  0  0  0  0
   60.2060   28.6420   47.6770 C   0  0  0  0  0  0  0  0  0  0  0  0
   60.7270   29.1870   46.5010 C   0  0  0  0  0  0  0  0  0  0  0  0
   59.9370   29.2590   45.3490 C   0  0  0  0  0  0  0  0  0  0  0  0
   57.8060   31.8470   45.8770 C   0  0  0  0  0  0  0  0  0  0  0  0
   58.4260   32.9970   46.3890 C   0  0  0  0  0  0  0  0  0  0  0  0
   58.5910   33.1150   47.8090 N   0  0  0  0  0  0  0  0  0  0  0  0
   59.6120   32.3990   48.5250 C   0  0  0  0  0  0  0  0  0  0  0  0
   60.5280   31.8170   47.8780 O   0  0  0  0  0  0  0  0  0  0  0  0
   59.6340   32.3990   50.0480 C   0  0  0  0  0  0  0  0  0  0  0  0
   60.8990   31.6730   50.5520 C   0  0  0  0  0  0  0  0  0  0  0  0
   58.3790   31.6800   50.5740 C   0  0  0  0  0  0  0  0  0  0  0  0
   59.6520   33.8440   50.5940 C   0  0  0  0  0  0  0  0  0  0  0  0
   59.6451   35.2091   47.0940 H   0  0  0  0  0  0  0  0  0  0  0  0
   60.6778   35.1802   45.6245 H   0  0  0  0  0  0  0  0  0  0  0  0
   59.1416   36.1113   45.6245 H   0  0  0  0  0  0  0  0  0  0  0  0
   59.0187   34.6212   43.4269 H   0  0  0  0  0  0  0  0  0  0  0  0
   57.8777   32.5934   42.5437 H   0  0  0  0  0  0  0  0  0  0  0  0
   57.7568   26.7856   43.7626 H   0  0  0  0  0  0  0  0  0  0  0  0
   56.8771   27.8167   42.5838 H   0  0  0  0  0  0  0  0  0  0  0  0
   58.6731   27.7843   42.5838 H   0  0  0  0  0  0  0  0  0  0  0  0
   57.0662   27.8591   46.5815 H   0  0  0  0  0  0  0  0  0  0  0  0
   58.4815   27.7418   48.6298 H   0  0  0  0  0  0  0  0  0  0  0  0
   60.8295   28.5864   48.5815 H   0  0  0  0  0  0  0  0  0  0  0  0
   61.7614   29.5606   46.4809 H   0  0  0  0  0  0  0  0  0  0  0  0
   60.3520   29.6957   44.4287 H   0  0  0  0  0  0  0  0  0  0  0  0
   57.4707   31.0567   46.5648 H   0  0  0  0  0  0  0  0  0  0  0  0
   58.0790   33.8840   48.2950 H   0  0  0  0  0  0  0  0  0  0  0  0
   60.9058   31.6691   51.6520 H   0  0  0  0  0  0  0  0  0  0  0  0
   60.8994   30.6372   50.1816 H   0  0  0  0  0  0  0  0  0  0  0  0
   61.7935   32.1952   50.1816 H   0  0  0  0  0  0  0  0  0  0  0  0
   58.3876   31.6849   51.6740 H   0  0  0  0  0  0  0  0  0  0  0  0
   57.4798   32.1999   50.2120 H   0  0  0  0  0  0  0  0  0  0  0  0
   58.3727   30.6413   50.2120 H   0  0  0  0  0  0  0  0  0  0  0  0
   59.6517   33.8205   51.6937 H   0  0  0  0  0  0  0  0  0  0  0  0
   60.5566   34.3591   50.2385 H   0  0  0  0  0  0  0  0  0  0  0  0
   58.7605   34.3814   50.2385 H   0  0  0  0  0  0  0  0  0  0  0  0
  1  2  1  0
  2  3  2  0
  3  4  1  0
  4  5  2  0
  5  6  1  0
  6  7  2  0
  6  8  2  0
  6  9  1  0
  9 10  1  0
  9 11  1  0
 11 12  2  0
 12 13  1  0
 13 14  2  0
 14 15  1  0
 15 16  2  0
  5 17  1  0
 17 18  2  0
 18 19  1  0
 19 20  1  0
 20 21  2  0
 20 22  1  0
 22 23  1  0
 22 24  1  0
 22 25  1  0
 18  2  1  0
 16 11  1  0
  1 26  1  0
  1 27  1  0
  1 28  1  0
  3 29  1  0
  4 30  1  0
 10 31  1  0
 10 32  1  0
 10 33  1  0
 12 34  1  0
 13 35  1  0
 14 36  1  0
 15 37  1  0
 16 38  1  0
 17 39  1  0
 19 40  1  0
 23 41  1  0
 23 42  1  0
 23 43  1  0
 24 44  1  0
 24 45  1  0
 24 46  1  0
 25 47  1  0
 25 48  1  0
 25 49  1  0
M  END
>  <UniqueID>  (63) 
58

>  <SMILES>  (63) 
Cc1ccc(S(=O)(=O)N(C)c2ccccc2)cc1NC(=O)C(C)(C)C

>  <Energy>  (63) 
54.520465673409

>  <Genealogy>  (63) 
Cc1ccc(S(=O)(=O)N(C)c2ccccc2)cc1NC(=O)C(C)(C)C (3D coordinates assigned)
Cc1ccc(S(=O)(=O)N(C)c2ccccc2)cc1NC(=O)C(C)(C)C (optimized conformer: 54.520465673409 kcal/mol)

>  <smiles>  (63) 
Cc1ccc(S(=O)(=O)N(C)c2ccccc2)cc1NC(=O)C(C)(C)C

>  <score_type>  (63) 
oracle

>  <origin>  (63) 
adg

>  <m_score__min__energy>  (63) 
-9.5999999999999996

>  <m_primary>  (63) 
energy

$$$$
63:0
     RDKit          3D

 32 33  0  0  0  0  0  0  0  0999 V2000
   56.2700   29.4550   42.5430 C   0  0  0  0  0  0  0  0  0  0  0  0
   56.7310   29.8070   43.9200 C   0  0  0  0  0  0  0  0  0  0  0  0
   55.8880   29.9100   44.8510 O   0  0  0  0  0  0  0  0  0  0  0  0
   58.1210   30.0580   44.1650 N   0  0  0  0  0  0  0  0  0  0  0  0
   58.6380   30.3780   45.4950 C   0  0  0  0  0  0  0  0  0  0  0  0
   58.7260   31.8690   45.6740 C   0  0  0  0  0  0  0  0  0  0  0  0
   57.9910   32.7330   44.8470 C   0  0  0  0  0  0  0  0  0  0  0  0
   58.0730   34.1160   45.0260 C   0  0  0  0  0  0  0  0  0  0  0  0
   58.8780   34.6480   46.0360 C   0  0  0  0  0  0  0  0  0  0  0  0
   59.6010   33.7950   46.8850 C   0  0  0  0  0  0  0  0  0  0  0  0
   60.4990   34.3680   47.9460 C   0  0  0  0  0  0  0  0  0  0  0  0
   61.8430   33.8160   47.8110 N   0  0  0  0  0  0  0  0  0  0  0  0
   62.6170   33.8360   46.7150 C   0  0  0  0  0  0  0  0  0  0  0  0
   63.7670   33.1330   46.9970 C   0  0  0  0  0  0  0  0  0  0  0  0
   63.7090   32.6620   48.2610 N   0  0  0  0  0  0  0  0  0  0  0  0
   62.5190   33.0940   48.7250 C   0  0  0  0  0  0  0  0  0  0  0  0
   59.5300   32.4070   46.6920 C   0  0  0  0  0  0  0  0  0  0  0  0
   55.3972   28.7886   42.6077 H   0  0  0  0  0  0  0  0  0  0  0  0
   55.9916   30.3725   42.0038 H   0  0  0  0  0  0  0  0  0  0  0  0
   57.0818   28.9448   42.0038 H   0  0  0  0  0  0  0  0  0  0  0  0
   58.7930   30.0170   43.3660 H   0  0  0  0  0  0  0  0  0  0  0  0
   57.9639   29.9598   46.2570 H   0  0  0  0  0  0  0  0  0  0  0  0
   59.6429   29.9439   45.6032 H   0  0  0  0  0  0  0  0  0  0  0  0
   57.3485   32.3197   44.0556 H   0  0  0  0  0  0  0  0  0  0  0  0
   57.5016   34.7885   44.3693 H   0  0  0  0  0  0  0  0  0  0  0  0
   58.9456   35.7381   46.1665 H   0  0  0  0  0  0  0  0  0  0  0  0
   60.5413   35.4617   47.8363 H   0  0  0  0  0  0  0  0  0  0  0  0
   60.0991   34.1087   48.9374 H   0  0  0  0  0  0  0  0  0  0  0  0
   62.3757   34.3269   45.7606 H   0  0  0  0  0  0  0  0  0  0  0  0
   64.6039   32.9789   46.2999 H   0  0  0  0  0  0  0  0  0  0  0  0
   62.1427   32.8807   49.7364 H   0  0  0  0  0  0  0  0  0  0  0  0
   60.1085   31.7351   47.3431 H   0  0  0  0  0  0  0  0  0  0  0  0
  1  2  1  0
  2  3  2  0
  2  4  1  0
  4  5  1  0
  5  6  1  0
  6  7  2  0
  7  8  1  0
  8  9  2  0
  9 10  1  0
 10 11  1  0
 11 12  1  0
 12 13  1  0
 13 14  2  0
 14 15  1  0
 15 16  2  0
 10 17  2  0
 17  6  1  0
 16 12  1  0
  1 18  1  0
  1 19  1  0
  1 20  1  0
  4 21  1  0
  5 22  1  0
  5 23  1  0
  7 24  1  0
  8 25  1  0
  9 26  1  0
 11 27  1  0
 11 28  1  0
 13 29  1  0
 14 30  1  0
 16 31  1  0
 17 32  1  0
M  END
>  <UniqueID>  (64) 
59

>  <SMILES>  (64) 
CC(=O)NCc1cccc(Cn2ccnc2)c1

>  <Energy>  (64) 
54.700461719098705

>  <Genealogy>  (64) 
CC(=O)NCc1cccc(Cn2ccnc2)c1 (3D coordinates assigned)
CC(=O)NCc1cccc(Cn2ccnc2)c1 (optimized conformer: 54.700461719098705 kcal/mol)

>  <smiles>  (64) 
CC(=O)NCc1cccc(Cn2ccnc2)c1

>  <score_type>  (64) 
oracle

>  <origin>  (64) 
adg

>  <m_score__min__energy>  (64) 
-6.7599999999999998

>  <m_primary>  (64) 
energy

$$$$
64:0
     RDKit          3D

 32 33  0  0  0  0  0  0  0  0999 V2000
   62.8340   31.6520   48.7640 C   0  0  0  0  0  0  0  0  0  0  0  0
   63.4440   32.9860   48.5530 N   0  0  0  0  0  0  0  0  0  0  0  0
   63.7990   33.1150   47.1200 C   0  0  0  0  0  0  0  0  0  0  0  0
   64.6910   33.0860   49.3510 C   0  0  0  0  0  0  0  0  0  0  0  0
   62.4860   34.0820   48.8980 C   0  0  0  0  0  0  0  0  0  0  0  0
   61.0860   33.9150   48.3200 C   0  0  0  0  0  0  0  0  0  0  0  0
   60.8710   34.1830   46.9560 C   0  0  0  0  0  0  0  0  0  0  0  0
   59.5950   34.0460   46.4000 C   0  0  0  0  0  0  0  0  0  0  0  0
   59.3560   34.3280   45.0460 C   0  0  0  0  0  0  0  0  0  0  0  0
   58.0680   34.1820   44.5190 C   0  0  0  0  0  0  0  0  0  0  0  0
   57.0180   33.7530   45.3370 C   0  0  0  0  0  0  0  0  0  0  0  0
   57.2490   33.4680   46.6860 C   0  0  0  0  0  0  0  0  0  0  0  0
   58.5340   33.6120   47.2220 C   0  0  0  0  0  0  0  0  0  0  0  0
   58.7660   33.3280   48.5290 N   0  0  0  0  0  0  0  0  0  0  0  0
   59.9950   33.4570   49.0950 C   0  0  0  0  0  0  0  0  0  0  0  0
   60.1640   33.0030   50.7850 Cl  0  0  0  0  0  0  0  0  0  0  0  0
   62.7445   31.4562   49.8427 H   0  0  0  0  0  0  0  0  0  0  0  0
   61.8356   31.6283   48.3029 H   0  0  0  0  0  0  0  0  0  0  0  0
   63.4692   30.8813   48.3029 H   0  0  0  0  0  0  0  0  0  0  0  0
   64.8294   33.4894   47.0298 H   0  0  0  0  0  0  0  0  0  0  0  0
   63.7223   32.1315   46.6333 H   0  0  0  0  0  0  0  0  0  0  0  0
   63.1088   33.8198   46.6333 H   0  0  0  0  0  0  0  0  0  0  0  0
   64.4432   33.0661   50.4225 H   0  0  0  0  0  0  0  0  0  0  0  0
   65.3489   32.2377   49.1110 H   0  0  0  0  0  0  0  0  0  0  0  0
   65.2053   34.0283   49.1110 H   0  0  0  0  0  0  0  0  0  0  0  0
   62.4001   34.1287   49.9937 H   0  0  0  0  0  0  0  0  0  0  0  0
   62.8957   35.0013   48.4542 H   0  0  0  0  0  0  0  0  0  0  0  0
   61.7117   34.5023   46.3226 H   0  0  0  0  0  0  0  0  0  0  0  0
   60.1805   34.6635   44.3997 H   0  0  0  0  0  0  0  0  0  0  0  0
   57.8809   34.4053   43.4583 H   0  0  0  0  0  0  0  0  0  0  0  0
   56.0074   33.6395   44.9178 H   0  0  0  0  0  0  0  0  0  0  0  0
   56.4207   33.1305   47.3264 H   0  0  0  0  0  0  0  0  0  0  0  0
  1  2  1  0
  2  3  1  0
  2  4  1  0
  2  5  1  0
  5  6  1  0
  6  7  2  0
  7  8  1  0
  8  9  2  0
  9 10  1  0
 10 11  2  0
 11 12  1  0
 12 13  2  0
 13 14  1  0
 14 15  2  0
 15 16  1  0
 15  6  1  0
 13  8  1  0
  1 17  1  0
  1 18  1  0
  1 19  1  0
  3 20  1  0
  3 21  1  0
  3 22  1  0
  4 23  1  0
  4 24  1  0
  4 25  1  0
  5 26  1  0
  5 27  1  0
  7 28  1  0
  9 29  1  0
 10 30  1  0
 11 31  1  0
 12 32  1  0
M  CHG  1   2   1
M  END
>  <UniqueID>  (65) 
60

>  <SMILES>  (65) 
C[N+](C)(C)Cc1cc2ccccc2nc1Cl

>  <Energy>  (65) 
42.62616337429581

>  <Genealogy>  (65) 
C[N+](C)(C)Cc1cc2ccccc2nc1Cl (3D coordinates assigned)
C[N+](C)(C)Cc1cc2ccccc2nc1Cl (optimized conformer: 42.62616337429581 kcal/mol)

>  <smiles>  (65) 
C[N+](C)(C)Cc1cc2ccccc2nc1Cl

>  <score_type>  (65) 
oracle

>  <origin>  (65) 
adg

>  <m_score__min__energy>  (65) 
-4.7300000000000004

>  <m_primary>  (65) 
energy

$$$$
65:0
     RDKit          3D

 46 48  0  0  0  0  0  0  0  0999 V2000
   58.5540   28.0270   44.5970 C   0  0  0  0  0  0  0  0  0  0  0  0
   57.3730   27.7160   45.5220 C   0  0  0  0  0  0  0  0  0  0  0  0
   57.8410   27.3050   46.9230 C   0  0  0  0  0  0  0  0  0  0  0  0
   56.4410   28.8430   45.5870 N   0  0  0  0  0  0  0  0  0  0  0  0
   55.9440   29.6010   44.4740 C   0  0  0  0  0  0  0  0  0  0  0  0
   54.8060   29.3440   43.9950 O   0  0  0  0  0  0  0  0  0  0  0  0
   56.7860   30.6630   43.8710 C   0  0  0  0  0  0  0  0  0  0  0  0
   56.7370   30.8620   42.4780 C   0  0  0  0  0  0  0  0  0  0  0  0
   57.4780   31.8810   41.8760 C   0  0  0  0  0  0  0  0  0  0  0  0
   58.2840   32.7120   42.6530 C   0  0  0  0  0  0  0  0  0  0  0  0
   58.3560   32.5240   44.0320 C   0  0  0  0  0  0  0  0  0  0  0  0
   57.6110   31.5080   44.6570 C   0  0  0  0  0  0  0  0  0  0  0  0
   57.7760   31.2800   46.0670 N   0  0  0  0  0  0  0  0  0  0  0  0
   58.9430   31.6690   46.8120 C   0  0  0  0  0  0  0  0  0  0  0  0
   59.1950   33.0290   47.0380 C   0  0  0  0  0  0  0  0  0  0  0  0
   60.3320   33.4330   47.7440 C   0  0  0  0  0  0  0  0  0  0  0  0
   61.2480   32.4820   48.2270 C   0  0  0  0  0  0  0  0  0  0  0  0
   62.4560   32.9110   48.9780 C   0  0  0  0  0  0  0  0  0  0  0  0
   63.7430   32.6680   48.4600 C   0  0  0  0  0  0  0  0  0  0  0  0
   64.8790   33.0740   49.1690 C   0  0  0  0  0  0  0  0  0  0  0  0
   64.7440   33.7230   50.3980 C   0  0  0  0  0  0  0  0  0  0  0  0
   63.4730   33.9700   50.9210 C   0  0  0  0  0  0  0  0  0  0  0  0
   62.3330   33.5680   50.2170 C   0  0  0  0  0  0  0  0  0  0  0  0
   61.0030   31.1190   47.9840 C   0  0  0  0  0  0  0  0  0  0  0  0
   59.8660   30.7160   47.2790 C   0  0  0  0  0  0  0  0  0  0  0  0
   59.4422   28.2609   45.2023 H   0  0  0  0  0  0  0  0  0  0  0  0
   58.7626   27.1532   43.9623 H   0  0  0  0  0  0  0  0  0  0  0  0
   58.3052   28.8902   43.9623 H   0  0  0  0  0  0  0  0  0  0  0  0
   56.8377   26.8575   45.0903 H   0  0  0  0  0  0  0  0  0  0  0  0
   57.2409   27.8320   47.6794 H   0  0  0  0  0  0  0  0  0  0  0  0
   57.7163   26.2192   47.0474 H   0  0  0  0  0  0  0  0  0  0  0  0
   58.9016   27.5689   47.0474 H   0  0  0  0  0  0  0  0  0  0  0  0
   56.1079   30.2074   41.8570 H   0  0  0  0  0  0  0  0  0  0  0  0
   57.4258   32.0283   40.7872 H   0  0  0  0  0  0  0  0  0  0  0  0
   58.8636   33.5167   42.1771 H   0  0  0  0  0  0  0  0  0  0  0  0
   59.0019   33.1767   44.6376 H   0  0  0  0  0  0  0  0  0  0  0  0
   57.0220   30.7550   46.5650 H   0  0  0  0  0  0  0  0  0  0  0  0
   58.4924   33.7847   46.6568 H   0  0  0  0  0  0  0  0  0  0  0  0
   60.5114   34.5034   47.9230 H   0  0  0  0  0  0  0  0  0  0  0  0
   63.8557   32.1563   47.4928 H   0  0  0  0  0  0  0  0  0  0  0  0
   65.8807   32.8815   48.7572 H   0  0  0  0  0  0  0  0  0  0  0  0
   65.6387   34.0396   50.9541 H   0  0  0  0  0  0  0  0  0  0  0  0
   63.3680   34.4819   51.8889 H   0  0  0  0  0  0  0  0  0  0  0  0
   61.3346   33.7664   50.6340 H   0  0  0  0  0  0  0  0  0  0  0  0
   61.7126   30.3634   48.3521 H   0  0  0  0  0  0  0  0  0  0  0  0
   59.6917   29.6468   47.0880 H   0  0  0  0  0  0  0  0  0  0  0  0
  1  2  1  0
  2  3  1  0
  2  4  1  0
  4  5  1  0
  5  6  2  0
  5  7  1  0
  7  8  2  0
  8  9  1  0
  9 10  2  0
 10 11  1  0
 11 12  2  0
 12 13  1  0
 13 14  1  0
 14 15  2  0
 15 16  1  0
 16 17  2  0
 17 18  1  0
 18 19  2  0
 19 20  1  0
 20 21  2  0
 21 22  1  0
 22 23  2  0
 17 24  1  0
 24 25  2  0
 12  7  1  0
 25 14  1  0
 23 18  1  0
  1 26  1  0
  1 27  1  0
  1 28  1  0
  2 29  1  0
  3 30  1  0
  3 31  1  0
  3 32  1  0
  8 33  1  0
  9 34  1  0
 10 35  1  0
 11 36  1  0
 13 37  1  0
 15 38  1  0
 16 39  1  0
 19 40  1  0
 20 41  1  0
 21 42  1  0
 22 43  1  0
 23 44  1  0
 24 45  1  0
 25 46  1  0
M  CHG  1   4  -1
M  END
>  <UniqueID>  (66) 
61

>  <SMILES>  (66) 
CC(C)[N-]C(=O)c1ccccc1Nc1ccc(-c2ccccc2)cc1

>  <Energy>  (66) 
58.27846390669125

>  <Genealogy>  (66) 
CC(C)[N-]C(=O)c1ccccc1Nc1ccc(-c2ccccc2)cc1 (protonated)
CC(C)[N-]C(=O)c1ccccc1Nc1ccc(-c2ccccc2)cc1 (3D coordinates assigned)
CC(C)[N-]C(=O)c1ccccc1Nc1ccc(-c2ccccc2)cc1 (optimized conformer: 58.27846390669125 kcal/mol)

>  <smiles>  (66) 
CC(C)NC(=O)c1ccccc1Nc1ccc(-c2ccccc2)cc1

>  <score_type>  (66) 
oracle

>  <origin>  (66) 
adg

>  <m_score__min__energy>  (66) 
-9.7400000000000002

>  <m_primary>  (66) 
energy

$$$$
66:0
     RDKit          3D

 53 55  0  0  0  0  0  0  0  0999 V2000
   61.7800   33.5310   50.9520 C   0  0  0  0  0  0  0  0  0  0  0  0
   62.1550   33.5180   49.4920 C   0  0  0  0  0  0  0  0  0  0  0  0
   63.5150   33.4830   49.1440 C   0  0  0  0  0  0  0  0  0  0  0  0
   63.9060   33.4830   47.8070 C   0  0  0  0  0  0  0  0  0  0  0  0
   62.9470   33.5030   46.7980 C   0  0  0  0  0  0  0  0  0  0  0  0
   61.5830   33.5250   47.1130 C   0  0  0  0  0  0  0  0  0  0  0  0
   60.6350   33.5100   46.0360 N   0  0  0  0  0  0  0  0  0  0  0  0
   59.8420   34.6560   45.6960 C   0  0  0  0  0  0  0  0  0  0  0  0
   59.9390   35.7180   46.3700 O   0  0  0  0  0  0  0  0  0  0  0  0
   58.9030   34.5820   44.5240 C   0  0  0  0  0  0  0  0  0  0  0  0
   58.3580   33.2300   44.3490 N   0  0  0  0  0  0  0  0  0  0  0  0
   58.1420   32.7100   42.9940 C   0  0  0  0  0  0  0  0  0  0  0  0
   57.8190   32.5250   45.4870 C   0  0  0  0  0  0  0  0  0  0  0  0
   57.3800   33.1790   46.4720 O   0  0  0  0  0  0  0  0  0  0  0  0
   57.7570   31.0480   45.5270 C   0  0  0  0  0  0  0  0  0  0  0  0
   58.5070   30.3260   46.4690 C   0  0  0  0  0  0  0  0  0  0  0  0
   58.4320   28.9320   46.5130 C   0  0  0  0  0  0  0  0  0  0  0  0
   57.5890   28.2330   45.6310 C   0  0  0  0  0  0  0  0  0  0  0  0
   57.5260   26.7930   45.6740 N   0  0  0  0  0  0  0  0  0  0  0  0
   58.6820   25.9120   45.6130 C   0  0  0  0  0  0  0  0  0  0  0  0
   58.1240   24.4860   45.4530 C   0  0  0  0  0  0  0  0  0  0  0  0
   56.6190   24.5560   45.7440 C   0  0  0  0  0  0  0  0  0  0  0  0
   56.3520   26.0070   45.7990 C   0  0  0  0  0  0  0  0  0  0  0  0
   55.2090   26.4920   46.0090 O   0  0  0  0  0  0  0  0  0  0  0  0
   56.8360   28.9600   44.6930 C   0  0  0  0  0  0  0  0  0  0  0  0
   56.9120   30.3550   44.6500 C   0  0  0  0  0  0  0  0  0  0  0  0
   61.1720   33.5880   48.4700 C   0  0  0  0  0  0  0  0  0  0  0  0
   59.7080   33.7200   48.8240 C   0  0  0  0  0  0  0  0  0  0  0  0
   62.6926   33.4994   51.5653 H   0  0  0  0  0  0  0  0  0  0  0  0
   61.2180   34.4492   51.1781 H   0  0  0  0  0  0  0  0  0  0  0  0
   61.1558   32.6539   51.1781 H   0  0  0  0  0  0  0  0  0  0  0  0
   64.2790   33.4553   49.9349 H   0  0  0  0  0  0  0  0  0  0  0  0
   64.9749   33.4672   47.5479 H   0  0  0  0  0  0  0  0  0  0  0  0
   63.2636   33.5015   45.7445 H   0  0  0  0  0  0  0  0  0  0  0  0
   60.3810   32.5890   45.6140 H   0  0  0  0  0  0  0  0  0  0  0  0
   58.0714   35.2830   44.6887 H   0  0  0  0  0  0  0  0  0  0  0  0
   59.4662   34.8447   43.6164 H   0  0  0  0  0  0  0  0  0  0  0  0
   57.7206   31.6956   43.0534 H   0  0  0  0  0  0  0  0  0  0  0  0
   57.4423   33.3668   42.4564 H   0  0  0  0  0  0  0  0  0  0  0  0
   59.1011   32.6777   42.4564 H   0  0  0  0  0  0  0  0  0  0  0  0
   59.1574   30.8613   47.1764 H   0  0  0  0  0  0  0  0  0  0  0  0
   59.0376   28.3762   47.2439 H   0  0  0  0  0  0  0  0  0  0  0  0
   59.3157   26.1728   44.7525 H   0  0  0  0  0  0  0  0  0  0  0  0
   59.3035   26.0014   46.5162 H   0  0  0  0  0  0  0  0  0  0  0  0
   58.2938   24.1271   44.4271 H   0  0  0  0  0  0  0  0  0  0  0  0
   58.6244   23.7898   46.1421 H   0  0  0  0  0  0  0  0  0  0  0  0
   56.0394   24.0787   44.9401 H   0  0  0  0  0  0  0  0  0  0  0  0
   56.3337   24.0301   46.6670 H   0  0  0  0  0  0  0  0  0  0  0  0
   56.1818   28.4270   43.9873 H   0  0  0  0  0  0  0  0  0  0  0  0
   56.3041   30.9128   43.9225 H   0  0  0  0  0  0  0  0  0  0  0  0
   59.5948   33.7302   49.9181 H   0  0  0  0  0  0  0  0  0  0  0  0
   59.3127   34.6574   48.4057 H   0  0  0  0  0  0  0  0  0  0  0  0
   59.1514   32.8684   48.4057 H   0  0  0  0  0  0  0  0  0  0  0  0
  1  2  1  0
  2  3  2  0
  3  4  1  0
  4  5  2  0
  5  6  1  0
  6  7  1  0
  7  8  1  0
  8  9  2  0
  8 10  1  0
 10 11  1  0
 11 12  1  0
 11 13  1  0
 13 14  2  0
 13 15  1  0
 15 16  2  0
 16 17  1  0
 17 18  2  0
 18 19  1  0
 19 20  1  0
 20 21  1  0
 21 22  1  0
 22 23  1  0
 23 24  2  0
 18 25  1  0
 25 26  2  0
  6 27  2  0
 27 28  1  0
 27  2  1  0
 26 15  1  0
 23 19  1  0
  1 29  1  0
  1 30  1  0
  1 31  1  0
  3 32  1  0
  4 33  1  0
  5 34  1  0
  7 35  1  0
 10 36  1  0
 10 37  1  0
 12 38  1  0
 12 39  1  0
 12 40  1  0
 16 41  1  0
 17 42  1  0
 20 43  1  0
 20 44  1  0
 21 45  1  0
 21 46  1  0
 22 47  1  0
 22 48  1  0
 25 49  1  0
 26 50  1  0
 28 51  1  0
 28 52  1  0
 28 53  1  0
M  END
>  <UniqueID>  (67) 
62

>  <SMILES>  (67) 
Cc1cccc(NC(=O)CN(C)C(=O)c2ccc(N3CCCC3=O)cc2)c1C

>  <Energy>  (67) 
74.78236604441621

>  <Genealogy>  (67) 
Cc1cccc(NC(=O)CN(C)C(=O)c2ccc(N3CCCC3=O)cc2)c1C (3D coordinates assigned)
Cc1cccc(NC(=O)CN(C)C(=O)c2ccc(N3CCCC3=O)cc2)c1C (nonaromatic ring conformer: 74.78236604441621 kcal/mol)

>  <smiles>  (67) 
Cc1cccc(NC(=O)CN(C)C(=O)c2ccc(N3CCCC3=O)cc2)c1C

>  <score_type>  (67) 
oracle

>  <origin>  (67) 
adg

>  <m_score__min__energy>  (67) 
-9.3100000000000005

>  <m_primary>  (67) 
energy

$$$$
67:0
     RDKit          3D

 47 49  0  0  0  0  0  0  0  0999 V2000
   59.2830   28.4550   44.4980 C   0  0  0  0  0  0  0  0  0  0  0  0
   57.8160   28.1950   44.8440 C   0  0  0  0  0  0  0  0  0  0  0  0
   56.7600   29.5190   44.2600 S   0  0  0  0  0  0  0  0  0  0  0  0
   55.3930   29.3760   44.8740 O   0  0  0  0  0  0  0  0  0  0  0  0
   56.6240   29.4300   42.7650 O   0  0  0  0  0  0  0  0  0  0  0  0
   57.4550   31.0820   44.6840 C   0  0  0  0  0  0  0  0  0  0  0  0
   57.4100   32.1390   43.7640 C   0  0  0  0  0  0  0  0  0  0  0  0
   58.0140   33.3650   44.0660 C   0  0  0  0  0  0  0  0  0  0  0  0
   58.6660   33.5480   45.2980 C   0  0  0  0  0  0  0  0  0  0  0  0
   59.4320   34.8140   45.5670 C   0  0  0  0  0  0  0  0  0  0  0  0
   60.2930   34.6050   46.7720 C   0  0  0  0  0  0  0  0  0  0  0  0
   59.8400   34.8810   47.9190 O   0  0  0  0  0  0  0  0  0  0  0  0
   61.5900   34.0120   46.6290 N   0  0  0  0  0  0  0  0  0  0  0  0
   62.1730   33.1420   47.6150 C   0  0  0  0  0  0  0  0  0  0  0  0
   61.5600   31.9140   47.9020 C   0  0  0  0  0  0  0  0  0  0  0  0
   62.0930   31.0700   48.8800 C   0  0  0  0  0  0  0  0  0  0  0  0
   63.2310   31.4550   49.5950 C   0  0  0  0  0  0  0  0  0  0  0  0
   63.8440   32.6970   49.3470 C   0  0  0  0  0  0  0  0  0  0  0  0
   65.0310   33.1260   50.1310 C   0  0  0  0  0  0  0  0  0  0  0  0
   64.8920   33.9820   51.2400 C   0  0  0  0  0  0  0  0  0  0  0  0
   66.0180   34.3760   51.9660 C   0  0  0  0  0  0  0  0  0  0  0  0
   67.2790   33.9140   51.5830 C   0  0  0  0  0  0  0  0  0  0  0  0
   67.4050   33.0830   50.5120 N   0  0  0  0  0  0  0  0  0  0  0  0
   66.3240   32.6830   49.7860 C   0  0  0  0  0  0  0  0  0  0  0  0
   63.3040   33.5360   48.3540 C   0  0  0  0  0  0  0  0  0  0  0  0
   58.7100   32.4860   46.2170 C   0  0  0  0  0  0  0  0  0  0  0  0
   58.1050   31.2610   45.9130 C   0  0  0  0  0  0  0  0  0  0  0  0
   59.8657   28.5583   45.4253 H   0  0  0  0  0  0  0  0  0  0  0  0
   59.6759   27.6125   43.9100 H   0  0  0  0  0  0  0  0  0  0  0  0
   59.3624   29.3812   43.9100 H   0  0  0  0  0  0  0  0  0  0  0  0
   57.4996   27.2518   44.3746 H   0  0  0  0  0  0  0  0  0  0  0  0
   57.7243   28.1373   45.9386 H   0  0  0  0  0  0  0  0  0  0  0  0
   56.8975   32.0041   42.8001 H   0  0  0  0  0  0  0  0  0  0  0  0
   57.9784   34.1880   43.3370 H   0  0  0  0  0  0  0  0  0  0  0  0
   60.0624   35.0570   44.6990 H   0  0  0  0  0  0  0  0  0  0  0  0
   58.7334   35.6450   45.7444 H   0  0  0  0  0  0  0  0  0  0  0  0
   62.1210   34.1860   45.7440 H   0  0  0  0  0  0  0  0  0  0  0  0
   60.6546   31.6134   47.3543 H   0  0  0  0  0  0  0  0  0  0  0  0
   61.6162   30.1007   49.0877 H   0  0  0  0  0  0  0  0  0  0  0  0
   63.6504   30.7819   50.3572 H   0  0  0  0  0  0  0  0  0  0  0  0
   63.8950   34.3410   51.5351 H   0  0  0  0  0  0  0  0  0  0  0  0
   65.9125   35.0450   52.8328 H   0  0  0  0  0  0  0  0  0  0  0  0
   68.1716   34.2219   52.1474 H   0  0  0  0  0  0  0  0  0  0  0  0
   66.4608   32.0108   48.9261 H   0  0  0  0  0  0  0  0  0  0  0  0
   63.7716   34.5112   48.1533 H   0  0  0  0  0  0  0  0  0  0  0  0
   59.2230   32.6181   47.1811 H   0  0  0  0  0  0  0  0  0  0  0  0
   58.1397   30.4366   46.6404 H   0  0  0  0  0  0  0  0  0  0  0  0
  1  2  1  0
  2  3  1  0
  3  4  2  0
  3  5  2  0
  3  6  1  0
  6  7  2  0
  7  8  1  0
  8  9  2  0
  9 10  1  0
 10 11  1  0
 11 12  2  0
 11 13  1  0
 13 14  1  0
 14 15  2  0
 15 16  1  0
 16 17  2  0
 17 18  1  0
 18 19  1  0
 19 20  2  0
 20 21  1  0
 21 22  2  0
 22 23  1  0
 23 24  2  0
 18 25  2  0
  9 26  1  0
 26 27  2  0
 27  6  1  0
 25 14  1  0
 24 19  1  0
  1 28  1  0
  1 29  1  0
  1 30  1  0
  2 31  1  0
  2 32  1  0
  7 33  1  0
  8 34  1  0
 10 35  1  0
 10 36  1  0
 13 37  1  0
 15 38  1  0
 16 39  1  0
 17 40  1  0
 20 41  1  0
 21 42  1  0
 22 43  1  0
 24 44  1  0
 25 45  1  0
 26 46  1  0
 27 47  1  0
M  END
>  <UniqueID>  (68) 
63

>  <SMILES>  (68) 
CCS(=O)(=O)c1ccc(CC(=O)Nc2cccc(-c3cccnc3)c2)cc1

>  <Energy>  (68) 
50.334553596057

>  <Genealogy>  (68) 
CCS(=O)(=O)c1ccc(CC(=O)Nc2cccc(-c3cccnc3)c2)cc1 (3D coordinates assigned)
CCS(=O)(=O)c1ccc(CC(=O)Nc2cccc(-c3cccnc3)c2)cc1 (optimized conformer: 50.334553596057 kcal/mol)

>  <smiles>  (68) 
CCS(=O)(=O)c1ccc(CC(=O)Nc2cccc(-c3cccnc3)c2)cc1

>  <score_type>  (68) 
oracle

>  <origin>  (68) 
adg

>  <m_score__min__energy>  (68) 
-9.4100000000000001

>  <m_primary>  (68) 
energy

$$$$
68:0
     RDKit          3D

 32 34  0  0  1  0  0  0  0  0999 V2000
   59.6380   35.0350   46.0860 C   0  0  0  0  0  0  0  0  0  0  0  0
   59.0970   33.8110   46.4720 O   0  0  0  0  0  0  0  0  0  0  0  0
   58.5280   32.9860   45.5130 C   0  0  0  0  0  0  0  0  0  0  0  0
   58.3570   33.4480   44.2510 C   0  0  0  0  0  0  0  0  0  0  0  0
   57.8060   32.7260   43.2150 C   0  0  0  0  0  0  0  0  0  0  0  0
   57.4110   31.4410   43.5260 C   0  0  0  0  0  0  0  0  0  0  0  0
   56.8720   30.7210   42.5300 N   0  0  0  0  0  0  0  0  0  0  0  0
   56.4630   29.4610   42.7490 C   0  0  0  0  0  0  0  0  0  0  0  0
   56.6180   28.9760   43.9870 N   0  0  0  0  0  0  0  0  0  0  0  0
   57.1550   29.6670   45.0180 C   0  0  0  0  0  0  0  0  0  0  0  0
   57.2300   29.0920   46.1200 N   0  0  0  0  0  0  0  0  0  0  0  0
   58.1470   28.0770   46.4750 C   0  0  0  0  0  0  0  0  0  0  0  0
   57.2810   26.8460   46.1900 C   0  0  0  0  0  0  0  0  0  0  0  0
   57.7190   25.5470   46.0960 C   0  0  0  0  0  0  0  0  0  0  0  0
   56.5960   24.7990   45.8290 C   0  0  0  0  0  0  0  0  0  0  0  0
   55.5300   25.6680   45.7710 C   0  0  0  0  0  0  0  0  0  0  0  0
   55.9680   26.8670   45.9880 O   0  0  0  0  0  0  0  0  0  0  0  0
   57.5800   30.9540   44.8160 C   0  0  0  0  0  0  0  0  0  0  0  0
   58.1230   31.6640   45.8350 C   0  0  0  0  0  0  0  0  0  0  0  0
   59.8966   35.6201   46.9808 H   0  0  0  0  0  0  0  0  0  0  0  0
   60.5438   34.8627   45.4861 H   0  0  0  0  0  0  0  0  0  0  0  0
   58.9008   35.5889   45.4861 H   0  0  0  0  0  0  0  0  0  0  0  0
   58.6825   34.4768   44.0374 H   0  0  0  0  0  0  0  0  0  0  0  0
   57.6886   33.1467   42.2054 H   0  0  0  0  0  0  0  0  0  0  0  0
   56.0198   28.8537   41.9460 H   0  0  0  0  0  0  0  0  0  0  0  0
   56.2960   27.9950   44.1440 H   0  0  0  0  0  0  0  0  0  0  0  0
   59.0487   28.0995   45.8453 H   0  0  0  0  0  0  0  0  0  0  0  0
   58.5466   28.1427   47.4977 H   0  0  0  0  0  0  0  0  0  0  0  0
   58.7504   25.1822   46.2102 H   0  0  0  0  0  0  0  0  0  0  0  0
   56.5570   23.7088   45.6880 H   0  0  0  0  0  0  0  0  0  0  0  0
   54.4839   25.3909   45.5738 H   0  0  0  0  0  0  0  0  0  0  0  0
   58.2420   31.2437   46.8445 H   0  0  0  0  0  0  0  0  0  0  0  0
  1  2  1  0
  2  3  1  0
  3  4  2  0
  4  5  1  0
  5  6  2  0
  6  7  1  0
  7  8  2  0
  8  9  1  0
  9 10  1  0
 10 11  2  0
 11 12  1  0
 12 13  1  0
 13 14  2  0
 14 15  1  0
 15 16  2  0
 16 17  1  0
 10 18  1  0
 18 19  2  0
 19  3  1  0
 18  6  1  0
 17 13  1  0
  1 20  1  0
  1 21  1  0
  1 22  1  0
  4 23  1  0
  5 24  1  0
  8 25  1  0
  9 26  1  0
 12 27  1  0
 12 28  1  0
 14 29  1  0
 15 30  1  0
 16 31  1  0
 19 32  1  0
M  END
>  <smiles>  (69) 
COc1ccc2nc[nH]c(=NCc3ccco3)c2c1

>  <score_type>  (69) 
oracle

>  <origin>  (69) 
adg

>  <m_score__min__energy>  (69) 
-6.1500000000000004

>  <m_primary>  (69) 
energy

$$$$
69:0
     RDKit          3D

 31 32  0  0  0  0  0  0  0  0999 V2000
   66.9600   32.8070   50.7350 C   0  0  0  0  0  0  0  0  0  0  0  0
   66.0580   32.3550   49.7300 O   0  0  0  0  0  0  0  0  0  0  0  0
   64.7580   32.8480   49.5490 C   0  0  0  0  0  0  0  0  0  0  0  0
   64.0250   33.4270   50.6010 C   0  0  0  0  0  0  0  0  0  0  0  0
   62.7360   33.9020   50.3610 C   0  0  0  0  0  0  0  0  0  0  0  0
   62.1730   33.8080   49.0830 C   0  0  0  0  0  0  0  0  0  0  0  0
   60.8410   34.3080   48.8580 N   0  0  0  0  0  0  0  0  0  0  0  0
   59.6580   33.4640   48.6830 C   0  0  0  0  0  0  0  0  0  0  0  0
   59.0050   33.7320   47.3510 C   0  0  0  0  0  0  0  0  0  0  0  0
   59.6440   34.5310   46.3880 C   0  0  0  0  0  0  0  0  0  0  0  0
   59.0350   34.7690   45.1530 C   0  0  0  0  0  0  0  0  0  0  0  0
   57.7890   34.2050   44.8660 C   0  0  0  0  0  0  0  0  0  0  0  0
   57.1520   33.3990   45.8120 C   0  0  0  0  0  0  0  0  0  0  0  0
   57.7580   33.1590   47.0500 C   0  0  0  0  0  0  0  0  0  0  0  0
   62.9350   33.2170   48.0610 C   0  0  0  0  0  0  0  0  0  0  0  0
   64.1920   32.7600   48.3140 N   0  0  0  0  0  0  0  0  0  0  0  0
   66.5379   32.5955   51.7285 H   0  0  0  0  0  0  0  0  0  0  0  0
   67.9218   32.2844   50.6264 H   0  0  0  0  0  0  0  0  0  0  0  0
   67.1170   33.8903   50.6264 H   0  0  0  0  0  0  0  0  0  0  0  0
   64.4656   33.5045   51.6059 H   0  0  0  0  0  0  0  0  0  0  0  0
   62.1582   34.3533   51.1810 H   0  0  0  0  0  0  0  0  0  0  0  0
   60.7040   35.3410   48.7740 H   0  0  0  0  0  0  0  0  0  0  0  0
   59.9581   32.4069   48.7319 H   0  0  0  0  0  0  0  0  0  0  0  0
   58.9382   33.6936   49.4825 H   0  0  0  0  0  0  0  0  0  0  0  0
   60.6280   34.9711   46.6072 H   0  0  0  0  0  0  0  0  0  0  0  0
   59.5370   35.4011   44.4058 H   0  0  0  0  0  0  0  0  0  0  0  0
   57.3097   34.3960   43.8945 H   0  0  0  0  0  0  0  0  0  0  0  0
   56.1730   32.9525   45.5836 H   0  0  0  0  0  0  0  0  0  0  0  0
   57.2561   32.5191   47.7907 H   0  0  0  0  0  0  0  0  0  0  0  0
   62.5129   33.1230   47.0496 H   0  0  0  0  0  0  0  0  0  0  0  0
   64.7360   32.3260   47.5350 H   0  0  0  0  0  0  0  0  0  0  0  0
  1  2  1  0
  2  3  1  0
  3  4  2  0
  4  5  1  0
  5  6  2  0
  6  7  1  0
  7  8  1  0
  8  9  1  0
  9 10  2  0
 10 11  1  0
 11 12  2  0
 12 13  1  0
 13 14  2  0
  6 15  1  0
 15 16  2  0
 16  3  1  0
 14  9  1  0
  1 17  1  0
  1 18  1  0
  1 19  1  0
  4 20  1  0
  5 21  1  0
  7 22  1  0
  8 23  1  0
  8 24  1  0
 10 25  1  0
 11 26  1  0
 12 27  1  0
 13 28  1  0
 14 29  1  0
 15 30  1  0
 16 31  1  0
M  CHG  1  16   1
M  END
>  <UniqueID>  (70) 
64

>  <SMILES>  (70) 
COc1ccc(NCc2ccccc2)c[nH+]1

>  <Energy>  (70) 
30.039054205634

>  <Genealogy>  (70) 
COc1ccc(NCc2ccccc2)c[nH+]1 (protonated)
COc1ccc(NCc2ccccc2)c[nH+]1 (3D coordinates assigned)
COc1ccc(NCc2ccccc2)c[nH+]1 (optimized conformer: 30.039054205634 kcal/mol)

>  <smiles>  (70) 
COc1ccc(NCc2ccccc2)cn1

>  <score_type>  (70) 
oracle

>  <origin>  (70) 
adg

>  <m_score__min__energy>  (70) 
-4.2800000000000002

>  <m_primary>  (70) 
energy

$$$$
70:0
     RDKit          3D

 45 46  0  0  0  0  0  0  0  0999 V2000
   58.0996   26.7434   44.8571 H   0  0  0  0  0  0  0  0  0  0  0  0
   57.7400   27.6510   45.3640 C   0  0  0  0  0  0  0  0  0  0  0  0
   56.2770   27.7970   45.5210 C   0  0  0  0  0  0  0  0  0  0  0  0
   55.7480   28.9030   45.2310 O   0  0  0  0  0  0  0  0  0  0  0  0
   55.4680   26.7110   45.9910 N   0  0  0  0  0  0  0  0  0  0  0  0
   55.8980   25.3760   46.2850 C   0  0  0  0  0  0  0  0  0  0  0  0
   55.4550   24.2700   45.5400 C   0  0  0  0  0  0  0  0  0  0  0  0
   54.7368   24.4143   44.7194 H   0  0  0  0  0  0  0  0  0  0  0  0
   55.9240   22.9860   45.8380 C   0  0  0  0  0  0  0  0  0  0  0  0
   55.5666   22.1236   45.2562 H   0  0  0  0  0  0  0  0  0  0  0  0
   56.8520   22.7930   46.8800 C   0  0  0  0  0  0  0  0  0  0  0  0
   57.3490   21.5260   47.2200 O   0  0  0  0  0  0  0  0  0  0  0  0
   57.3810   20.4110   46.3340 C   0  0  0  0  0  0  0  0  0  0  0  0
   57.4077   19.4792   46.9180 H   0  0  0  0  0  0  0  0  0  0  0  0
   56.4822   20.4206   45.6999 H   0  0  0  0  0  0  0  0  0  0  0  0
   58.2778   20.4722   45.6999 H   0  0  0  0  0  0  0  0  0  0  0  0
   57.3030   23.9020   47.6050 C   0  0  0  0  0  0  0  0  0  0  0  0
   58.0298   23.7625   48.4188 H   0  0  0  0  0  0  0  0  0  0  0  0
   56.8380   25.1850   47.3040 C   0  0  0  0  0  0  0  0  0  0  0  0
   57.2130   26.0497   47.8712 H   0  0  0  0  0  0  0  0  0  0  0  0
   58.6700   28.5240   45.7830 C   0  0  0  0  0  0  0  0  0  0  0  0
   59.5852   28.1117   46.2329 H   0  0  0  0  0  0  0  0  0  0  0  0
   58.5620   29.9930   45.6880 C   0  0  0  0  0  0  0  0  0  0  0  0
   58.3030   30.6170   44.4620 C   0  0  0  0  0  0  0  0  0  0  0  0
   58.1965   30.0083   43.5520 H   0  0  0  0  0  0  0  0  0  0  0  0
   58.1780   32.0140   44.3840 C   0  0  0  0  0  0  0  0  0  0  0  0
   57.8650   32.6630   43.1800 O   0  0  0  0  0  0  0  0  0  0  0  0
   57.6640   32.0020   41.9340 C   0  0  0  0  0  0  0  0  0  0  0  0
   57.3484   30.9641   42.1162 H   0  0  0  0  0  0  0  0  0  0  0  0
   56.8849   32.5271   41.3619 H   0  0  0  0  0  0  0  0  0  0  0  0
   58.6035   32.0045   41.3619 H   0  0  0  0  0  0  0  0  0  0  0  0
   58.3560   32.8010   45.5350 C   0  0  0  0  0  0  0  0  0  0  0  0
   58.2000   34.1910   45.3800 O   0  0  0  0  0  0  0  0  0  0  0  0
   59.2430   35.1500   45.2450 C   0  0  0  0  0  0  0  0  0  0  0  0
   59.5841   35.4636   46.2426 H   0  0  0  0  0  0  0  0  0  0  0  0
   60.0834   34.7026   44.6940 H   0  0  0  0  0  0  0  0  0  0  0  0
   58.8676   36.0249   44.6940 H   0  0  0  0  0  0  0  0  0  0  0  0
   58.6760   32.1780   46.7700 C   0  0  0  0  0  0  0  0  0  0  0  0
   58.8920   32.9620   47.9150 O   0  0  0  0  0  0  0  0  0  0  0  0
   58.9260   32.4680   49.2500 C   0  0  0  0  0  0  0  0  0  0  0  0
   58.8680   33.3109   49.9544 H   0  0  0  0  0  0  0  0  0  0  0  0
   58.0721   31.7941   49.4135 H   0  0  0  0  0  0  0  0  0  0  0  0
   59.8642   31.9174   49.4135 H   0  0  0  0  0  0  0  0  0  0  0  0
   58.7790   30.7750   46.8260 C   0  0  0  0  0  0  0  0  0  0  0  0
   59.0338   30.2875   47.7786 H   0  0  0  0  0  0  0  0  0  0  0  0
  1  2  1  0
  2  3  1  0
  3  4  2  0
  3  5  1  0
  5  6  1  0
  6  7  2  0
  7  8  1  0
  7  9  1  0
  9 10  1  0
  9 11  2  0
 11 12  1  0
 12 13  1  0
 13 14  1  0
 13 15  1  0
 13 16  1  0
 11 17  1  0
 17 18  1  0
 17 19  2  0
 19 20  1  0
  2 21  2  0
 21 22  1  0
 21 23  1  0
 23 24  2  0
 24 25  1  0
 24 26  1  0
 26 27  1  0
 27 28  1  0
 28 29  1  0
 28 30  1  0
 28 31  1  0
 26 32  2  0
 32 33  1  0
 33 34  1  0
 34 35  1  0
 34 36  1  0
 34 37  1  0
 32 38  1  0
 38 39  1  0
 39 40  1  0
 40 41  1  0
 40 42  1  0
 40 43  1  0
 38 44  2  0
 44 45  1  0
 19  6  1  0
 44 23  1  0
M  CHG  1   5  -1
M  END
>  <UniqueID>  (71) 
65

>  <SMILES>  (71) 
COc1ccc([N-]C(=O)/C=C\c2cc(OC)c(OC)c(OC)c2)cc1

>  <Energy>  (71) 
55.804700679796106

>  <Genealogy>  (71) 
COc1ccc([N-]C(=O)C=Cc2cc(OC)c(OC)c(OC)c2)cc1 (protonated)
COc1ccc([N-]C(=O)/C=C\c2cc(OC)c(OC)c(OC)c2)cc1 (cis-trans isomerization)
COc1ccc([N-]C(=O)/C=C\c2cc(OC)c(OC)c(OC)c2)cc1 (3D coordinates assigned)
COc1ccc([N-]C(=O)/C=C\c2cc(OC)c(OC)c(OC)c2)cc1 (optimized conformer: 55.804700679796106 kcal/mol)

>  <smiles>  (71) 
COc1ccc(NC(=O)C=Cc2cc(OC)c(OC)c(OC)c2)cc1

>  <score_type>  (71) 
oracle

>  <origin>  (71) 
adg

>  <m_score__min__energy>  (71) 
-8.4800000000000004

>  <m_primary>  (71) 
energy

$$$$
71:0
     RDKit          3D

 48 50  0  0  0  0  0  0  0  0999 V2000
   60.4230   27.4760   48.4150 C   0  0  0  0  0  0  0  0  0  0  0  0
   60.1870   28.9100   48.5050 N   0  0  0  0  0  0  0  0  0  0  0  0
   60.6960   29.8440   47.6820 C   0  0  0  0  0  0  0  0  0  0  0  0
   60.1720   31.0640   48.0540 C   0  0  0  0  0  0  0  0  0  0  0  0
   60.4430   32.4050   47.4250 C   0  0  0  0  0  0  0  0  0  0  0  0
   59.4240   32.8170   46.4360 N   0  0  0  0  0  0  0  0  0  0  0  0
   58.0700   32.9310   47.0010 C   0  0  0  0  0  0  0  0  0  0  0  0
   57.0340   33.0080   45.8600 C   0  0  0  0  0  0  0  0  0  0  0  0
   57.5830   33.5780   44.6040 N   0  0  0  0  0  0  0  0  0  0  0  0
   58.0490   32.5390   43.6590 C   0  0  0  0  0  0  0  0  0  0  0  0
   57.7730   31.1690   44.2210 C   0  0  0  0  0  0  0  0  0  0  0  0
   58.8090   30.4350   44.8170 C   0  0  0  0  0  0  0  0  0  0  0  0
   58.5660   29.1560   45.3270 C   0  0  0  0  0  0  0  0  0  0  0  0
   57.2820   28.6000   45.2500 C   0  0  0  0  0  0  0  0  0  0  0  0
   56.9800   26.9820   45.8730 S   0  0  0  0  0  0  0  0  0  0  0  0
   57.6810   25.7820   44.7640 C   0  0  0  0  0  0  0  0  0  0  0  0
   55.5000   26.7500   45.9950 O   0  0  0  0  0  0  0  0  0  0  0  0
   57.6040   26.8350   47.2330 O   0  0  0  0  0  0  0  0  0  0  0  0
   56.2480   29.3270   44.6450 C   0  0  0  0  0  0  0  0  0  0  0  0
   56.4900   30.6050   44.1360 C   0  0  0  0  0  0  0  0  0  0  0  0
   58.6190   34.5960   44.8710 C   0  0  0  0  0  0  0  0  0  0  0  0
   59.8060   34.0270   45.6800 C   0  0  0  0  0  0  0  0  0  0  0  0
   59.3340   30.7910   49.1210 C   0  0  0  0  0  0  0  0  0  0  0  0
   59.3540   29.4670   49.3710 N   0  0  0  0  0  0  0  0  0  0  0  0
   60.4928   27.0516   49.4274 H   0  0  0  0  0  0  0  0  0  0  0  0
   59.5910   27.0007   47.8748 H   0  0  0  0  0  0  0  0  0  0  0  0
   61.3634   27.2924   47.8748 H   0  0  0  0  0  0  0  0  0  0  0  0
   61.4039   29.6664   46.8590 H   0  0  0  0  0  0  0  0  0  0  0  0
   60.4779   33.1616   48.2227 H   0  0  0  0  0  0  0  0  0  0  0  0
   61.3973   32.3185   46.8848 H   0  0  0  0  0  0  0  0  0  0  0  0
   57.8598   32.0511   47.6267 H   0  0  0  0  0  0  0  0  0  0  0  0
   58.0065   33.8433   47.6123 H   0  0  0  0  0  0  0  0  0  0  0  0
   56.6686   31.9917   45.6514 H   0  0  0  0  0  0  0  0  0  0  0  0
   56.2289   33.6778   46.1964 H   0  0  0  0  0  0  0  0  0  0  0  0
   57.5192   32.6534   42.7018 H   0  0  0  0  0  0  0  0  0  0  0  0
   59.1318   32.6532   43.5026 H   0  0  0  0  0  0  0  0  0  0  0  0
   59.8181   30.8679   44.8836 H   0  0  0  0  0  0  0  0  0  0  0  0
   59.3845   28.5850   45.7897 H   0  0  0  0  0  0  0  0  0  0  0  0
   58.1518   24.9760   45.3459 H   0  0  0  0  0  0  0  0  0  0  0  0
   56.8869   25.3608   44.1300 H   0  0  0  0  0  0  0  0  0  0  0  0
   58.4379   26.2668   44.1300 H   0  0  0  0  0  0  0  0  0  0  0  0
   55.2415   28.8894   44.5706 H   0  0  0  0  0  0  0  0  0  0  0  0
   55.6723   31.1718   43.6668 H   0  0  0  0  0  0  0  0  0  0  0  0
   58.9960   34.9773   43.9105 H   0  0  0  0  0  0  0  0  0  0  0  0
   58.1579   35.3965   45.4681 H   0  0  0  0  0  0  0  0  0  0  0  0
   60.6200   33.7711   44.9858 H   0  0  0  0  0  0  0  0  0  0  0  0
   60.1276   34.7934   46.4006 H   0  0  0  0  0  0  0  0  0  0  0  0
   58.7454   31.5360   49.6765 H   0  0  0  0  0  0  0  0  0  0  0  0
  1  2  1  0
  2  3  1  0
  3  4  2  0
  4  5  1  0
  5  6  1  0
  6  7  1  0
  7  8  1  0
  8  9  1  0
  9 10  1  0
 10 11  1  0
 11 12  2  0
 12 13  1  0
 13 14  2  0
 14 15  1  0
 15 16  1  0
 15 17  2  0
 15 18  2  0
 14 19  1  0
 19 20  2  0
  9 21  1  0
 21 22  1  0
  4 23  1  0
 23 24  2  0
 24  2  1  0
 22  6  1  0
 20 11  1  0
  1 25  1  0
  1 26  1  0
  1 27  1  0
  3 28  1  0
  5 29  1  0
  5 30  1  0
  7 31  1  0
  7 32  1  0
  8 33  1  0
  8 34  1  0
 10 35  1  0
 10 36  1  0
 12 37  1  0
 13 38  1  0
 16 39  1  0
 16 40  1  0
 16 41  1  0
 19 42  1  0
 20 43  1  0
 21 44  1  0
 21 45  1  0
 22 46  1  0
 22 47  1  0
 23 48  1  0
M  END
>  <UniqueID>  (72) 
66

>  <SMILES>  (72) 
Cn1cc(CN2CCN(Cc3ccc(S(C)(=O)=O)cc3)CC2)cn1

>  <Energy>  (72) 
87.50787712318278

>  <Genealogy>  (72) 
Cn1cc(CN2CCN(Cc3ccc(S(C)(=O)=O)cc3)CC2)cn1 (3D coordinates assigned)
Cn1cc(CN2CCN(Cc3ccc(S(C)(=O)=O)cc3)CC2)cn1 (nonaromatic ring conformer: 87.50787712318278 kcal/mol)

>  <smiles>  (72) 
Cn1cc(CN2CCN(Cc3ccc(S(C)(=O)=O)cc3)CC2)cn1

>  <score_type>  (72) 
oracle

>  <origin>  (72) 
adg

>  <m_score__min__energy>  (72) 
-8.4900000000000002

>  <m_primary>  (72) 
energy

$$$$
72:0
     RDKit          3D

 28 29  0  0  0  0  0  0  0  0999 V2000
   55.9480   29.8840   43.1340 C   0  0  0  0  0  0  0  0  0  0  0  0
   56.1850   30.1380   44.5150 O   0  0  0  0  0  0  0  0  0  0  0  0
   57.2250   29.5610   45.2630 C   0  0  0  0  0  0  0  0  0  0  0  0
   58.4470   30.2280   45.4790 C   0  0  0  0  0  0  0  0  0  0  0  0
   59.4660   29.6270   46.2340 C   0  0  0  0  0  0  0  0  0  0  0  0
   60.7630   30.3540   46.4850 C   0  0  0  0  0  0  0  0  0  0  0  0
   60.6280   31.3690   47.6330 C   0  0  1  0  0  0  0  0  0  0  0  0
   60.4900   32.7580   47.1110 C   0  0  0  0  0  0  0  0  0  0  0  0
   61.3660   33.3780   46.4530 O   0  0  0  0  0  0  0  0  0  0  0  0
   59.1960   33.3030   47.4920 C   0  0  0  0  0  0  0  0  0  0  0  0
   58.5160   32.4600   48.1930 N   0  0  0  0  0  0  0  0  0  0  0  0
   59.3060   31.2820   48.3340 C   0  0  0  0  0  0  0  0  0  0  0  0
   58.9310   30.2930   49.0170 O   0  0  0  0  0  0  0  0  0  0  0  0
   59.2580   28.3530   46.7810 C   0  0  0  0  0  0  0  0  0  0  0  0
   58.0510   27.6850   46.5690 C   0  0  0  0  0  0  0  0  0  0  0  0
   57.0350   28.2810   45.8150 C   0  0  0  0  0  0  0  0  0  0  0  0
   55.8420   27.5830   45.6240 O   0  0  0  0  0  0  0  0  0  0  0  0
   55.2008   29.0832   43.0314 H   0  0  0  0  0  0  0  0  0  0  0  0
   55.5734   30.7990   42.6519 H   0  0  0  0  0  0  0  0  0  0  0  0
   56.8867   29.5736   42.6519 H   0  0  0  0  0  0  0  0  0  0  0  0
   58.6039   31.2294   45.0518 H   0  0  0  0  0  0  0  0  0  0  0  0
   61.5393   29.6199   46.7466 H   0  0  0  0  0  0  0  0  0  0  0  0
   61.0339   30.9018   45.5704 H   0  0  0  0  0  0  0  0  0  0  0  0
   61.5084   31.1564   48.2573 H   0  0  0  0  0  0  0  0  0  0  0  0
   58.8419   34.3075   47.2170 H   0  0  0  0  0  0  0  0  0  0  0  0
   60.0492   27.8780   47.3796 H   0  0  0  0  0  0  0  0  0  0  0  0
   57.8979   26.6836   46.9976 H   0  0  0  0  0  0  0  0  0  0  0  0
   55.1420   27.8840   44.9560 H   0  0  0  0  0  0  0  0  0  0  0  0
  1  2  1  0
  2  3  1  0
  3  4  2  0
  4  5  1  0
  5  6  1  0
  6  7  1  0
  7  8  1  0
  8  9  2  0
  8 10  1  0
 10 11  2  0
 11 12  1  0
 12 13  2  0
  5 14  2  0
 14 15  1  0
 15 16  2  0
 16 17  1  0
 16  3  1  0
 12  7  1  0
  1 18  1  0
  1 19  1  0
  1 20  1  0
  4 21  1  0
  6 22  1  0
  6 23  1  0
  7 24  1  1
 10 25  1  0
 14 26  1  0
 15 27  1  0
 17 28  1  0
M  END
>  <UniqueID>  (73) 
67

>  <SMILES>  (73) 
COc1cc(C[C@H]2C(=O)C=NC2=O)ccc1O

>  <Energy>  (73) 
41.936670416458405

>  <Genealogy>  (73) 
COc1cc(C[C@H]2C(=O)C=NC2=O)ccc1O (chirality)
COc1cc(C[C@H]2C(=O)C=NC2=O)ccc1O (3D coordinates assigned)
COc1cc(C[C@H]2C(=O)C=NC2=O)ccc1O (nonaromatic ring conformer: 41.936670416458405 kcal/mol)

>  <smiles>  (73) 
COc1cc(CC2C(=O)C=NC2=O)ccc1O

>  <score_type>  (73) 
oracle

>  <origin>  (73) 
adg

>  <m_score__min__energy>  (73) 
-6.5800000000000001

>  <m_primary>  (73) 
energy

$$$$
73:0
     RDKit          3D

 45 46  0  0  0  0  0  0  0  0999 V2000
   59.3020   35.1970   45.2430 C   0  0  0  0  0  0  0  0  0  0  0  0
   59.0360   34.0950   46.1760 N   0  0  0  0  0  0  0  0  0  0  0  0
   59.3770   34.2680   47.5930 C   0  0  0  0  0  0  0  0  0  0  0  0
   58.4450   32.8550   45.7040 C   0  0  0  0  0  0  0  0  0  0  0  0
   58.5790   31.6610   46.4430 C   0  0  0  0  0  0  0  0  0  0  0  0
   58.0080   30.4690   45.9890 C   0  0  0  0  0  0  0  0  0  0  0  0
   57.2900   30.4390   44.7860 C   0  0  0  0  0  0  0  0  0  0  0  0
   56.6620   29.1500   44.3070 C   0  0  0  0  0  0  0  0  0  0  0  0
   57.5620   28.3890   43.4190 N   0  0  0  0  0  0  0  0  0  0  0  0
   58.7600   27.8640   44.1100 C   0  0  0  0  0  0  0  0  0  0  0  0
   58.5010   26.5070   44.8160 C   0  0  0  0  0  0  0  0  0  0  0  0
   57.7280   25.5550   43.8670 C   0  0  0  0  0  0  0  0  0  0  0  0
   57.0320   24.4350   44.6450 C   0  0  0  0  0  0  0  0  0  0  0  0
   55.9740   24.9920   45.6180 C   0  0  0  0  0  0  0  0  0  0  0  0
   56.2710   26.4290   46.0880 C   0  0  0  0  0  0  0  0  0  0  0  0
   57.7780   26.6940   46.1840 C   0  0  0  0  0  0  0  0  0  0  0  0
   57.1510   31.6180   44.0420 C   0  0  0  0  0  0  0  0  0  0  0  0
   57.7200   32.8120   44.4940 C   0  0  0  0  0  0  0  0  0  0  0  0
   59.5231   36.1128   45.8108 H   0  0  0  0  0  0  0  0  0  0  0  0
   60.1642   34.9411   44.6096 H   0  0  0  0  0  0  0  0  0  0  0  0
   58.4180   35.3626   44.6096 H   0  0  0  0  0  0  0  0  0  0  0  0
   58.5693   33.8582   48.2172 H   0  0  0  0  0  0  0  0  0  0  0  0
   60.3150   33.7368   47.8119 H   0  0  0  0  0  0  0  0  0  0  0  0
   59.5023   35.3387   47.8119 H   0  0  0  0  0  0  0  0  0  0  0  0
   59.1403   31.6682   47.3890 H   0  0  0  0  0  0  0  0  0  0  0  0
   58.1229   29.5483   46.5798 H   0  0  0  0  0  0  0  0  0  0  0  0
   56.4177   28.5285   45.1811 H   0  0  0  0  0  0  0  0  0  0  0  0
   55.7588   29.4064   43.7338 H   0  0  0  0  0  0  0  0  0  0  0  0
   57.0180   27.6050   42.9920 H   0  0  0  0  0  0  0  0  0  0  0  0
   57.8710   29.0050   42.6310 H   0  0  0  0  0  0  0  0  0  0  0  0
   59.5614   27.7272   43.3690 H   0  0  0  0  0  0  0  0  0  0  0  0
   59.0407   28.5922   44.8852 H   0  0  0  0  0  0  0  0  0  0  0  0
   59.4711   26.0427   45.0469 H   0  0  0  0  0  0  0  0  0  0  0  0
   56.9705   26.1340   43.3184 H   0  0  0  0  0  0  0  0  0  0  0  0
   58.4485   25.0982   43.1726 H   0  0  0  0  0  0  0  0  0  0  0  0
   56.5395   23.7577   43.9317 H   0  0  0  0  0  0  0  0  0  0  0  0
   57.7927   23.9008   45.2332 H   0  0  0  0  0  0  0  0  0  0  0  0
   54.9973   24.9855   45.1121 H   0  0  0  0  0  0  0  0  0  0  0  0
   55.9840   24.3497   46.5110 H   0  0  0  0  0  0  0  0  0  0  0  0
   55.8295   27.1370   45.3712 H   0  0  0  0  0  0  0  0  0  0  0  0
   55.8354   26.5592   47.0897 H   0  0  0  0  0  0  0  0  0  0  0  0
   57.9341   27.7271   46.5280 H   0  0  0  0  0  0  0  0  0  0  0  0
   58.2028   25.9660   46.8908 H   0  0  0  0  0  0  0  0  0  0  0  0
   56.5903   31.6039   43.0957 H   0  0  0  0  0  0  0  0  0  0  0  0
   57.6012   33.7296   43.8991 H   0  0  0  0  0  0  0  0  0  0  0  0
  1  2  1  0
  2  3  1  0
  2  4  1  0
  4  5  2  0
  5  6  1  0
  6  7  2  0
  7  8  1  0
  8  9  1  0
  9 10  1  0
 10 11  1  0
 11 12  1  0
 12 13  1  0
 13 14  1  0
 14 15  1  0
 15 16  1  0
  7 17  1  0
 17 18  2  0
 18  4  1  0
 16 11  1  0
  1 19  1  0
  1 20  1  0
  1 21  1  0
  3 22  1  0
  3 23  1  0
  3 24  1  0
  5 25  1  0
  6 26  1  0
  8 27  1  0
  8 28  1  0
  9 29  1  0
  9 30  1  0
 10 31  1  0
 10 32  1  0
 11 33  1  0
 12 34  1  0
 12 35  1  0
 13 36  1  0
 13 37  1  0
 14 38  1  0
 14 39  1  0
 15 40  1  0
 15 41  1  0
 16 42  1  0
 16 43  1  0
 17 44  1  0
 18 45  1  0
M  CHG  1   9   1
M  END
>  <UniqueID>  (74) 
68

>  <SMILES>  (74) 
CN(C)c1ccc(C[NH2+]CC2CCCCC2)cc1

>  <Energy>  (74) 
48.13028154678636

>  <Genealogy>  (74) 
CN(C)c1ccc(C[NH2+]CC2CCCCC2)cc1 (protonated)
CN(C)c1ccc(C[NH2+]CC2CCCCC2)cc1 (3D coordinates assigned)
CN(C)c1ccc(C[NH2+]CC2CCCCC2)cc1 (nonaromatic ring conformer: 48.13028154678636 kcal/mol)

>  <smiles>  (74) 
CN(C)c1ccc(CNCC2CCCCC2)cc1

>  <score_type>  (74) 
oracle

>  <origin>  (74) 
adg

>  <m_score__min__energy>  (74) 
-5.1399999999999997

>  <m_primary>  (74) 
energy

$$$$
74:0
     RDKit          3D

 40 44  0  0  1  0  0  0  0  0999 V2000
   60.7560   29.8720   49.7470 C   0  0  0  0  0  0  0  0  0  0  0  0
   60.2010   29.0150   48.7220 N   0  0  0  0  0  0  0  0  0  0  0  0
   59.5900   29.3690   47.5930 C   0  0  0  0  0  0  0  0  0  0  0  0
   59.2180   28.2400   46.9040 C   0  0  0  0  0  0  0  0  0  0  0  0
   58.5350   28.0750   45.6430 C   0  0  0  0  0  0  0  0  0  0  0  0
   58.3660   26.9690   44.8530 C   0  0  0  0  0  0  0  0  0  0  0  0
   57.6580   27.3430   43.7930 N   0  0  0  0  0  0  0  0  0  0  0  0
   57.3540   28.6350   43.8420 N   0  0  0  0  0  0  0  0  0  0  0  0
   56.6810   29.4910   43.0560 C   0  0  0  0  0  0  0  0  0  0  0  0
   56.5100   30.8230   43.3560 C   0  0  0  0  0  0  0  0  0  0  0  0
   57.0660   31.2820   44.5270 C   0  0  0  0  0  0  0  0  0  0  0  0
   56.9700   32.4990   44.9070 N   0  0  0  0  0  0  0  0  0  0  0  0
   57.9030   33.0690   45.8220 C   0  0  0  0  0  0  0  0  0  0  0  0
   58.7220   34.1060   45.3660 C   0  0  0  0  0  0  0  0  0  0  0  0
   59.6370   34.6800   46.2300 C   0  0  0  0  0  0  0  0  0  0  0  0
   59.7450   34.2330   47.5410 C   0  0  0  0  0  0  0  0  0  0  0  0
   60.5320   34.6030   48.5760 N   0  0  0  0  0  0  0  0  0  0  0  0
   60.2270   33.8350   49.6430 C   0  0  0  0  0  0  0  0  0  0  0  0
   59.2180   32.9410   49.3030 C   0  0  0  0  0  0  0  0  0  0  0  0
   58.9250   33.2020   47.9830 C   0  0  0  0  0  0  0  0  0  0  0  0
   58.0150   32.6290   47.1310 C   0  0  0  0  0  0  0  0  0  0  0  0
   57.7370   30.4200   45.3080 N   0  0  0  0  0  0  0  0  0  0  0  0
   57.8880   29.1070   44.9820 C   0  0  0  0  0  0  0  0  0  0  0  0
   59.6380   27.1710   47.6820 C   0  0  0  0  0  0  0  0  0  0  0  0
   60.2330   27.6860   48.7800 N   0  0  0  0  0  0  0  0  0  0  0  0
   60.4973   29.4725   50.7387 H   0  0  0  0  0  0  0  0  0  0  0  0
   61.8502   29.9094   49.6408 H   0  0  0  0  0  0  0  0  0  0  0  0
   60.3425   30.8858   49.6408 H   0  0  0  0  0  0  0  0  0  0  0  0
   59.4112   30.4032   47.2636 H   0  0  0  0  0  0  0  0  0  0  0  0
   58.7464   25.9575   45.0584 H   0  0  0  0  0  0  0  0  0  0  0  0
   57.3710   26.6980   43.0030 H   0  0  0  0  0  0  0  0  0  0  0  0
   56.2432   29.1070   42.1228 H   0  0  0  0  0  0  0  0  0  0  0  0
   55.9513   31.4934   42.6864 H   0  0  0  0  0  0  0  0  0  0  0  0
   58.6395   34.4626   44.3287 H   0  0  0  0  0  0  0  0  0  0  0  0
   60.2839   35.4964   45.8765 H   0  0  0  0  0  0  0  0  0  0  0  0
   61.2560   35.3540   48.5610 H   0  0  0  0  0  0  0  0  0  0  0  0
   60.7042   33.9056   50.6316 H   0  0  0  0  0  0  0  0  0  0  0  0
   58.7520   32.1846   49.9516 H   0  0  0  0  0  0  0  0  0  0  0  0
   57.3693   31.8140   47.4899 H   0  0  0  0  0  0  0  0  0  0  0  0
   59.5104   26.1037   47.4485 H   0  0  0  0  0  0  0  0  0  0  0  0
  1  2  1  0
  2  3  1  0
  3  4  2  0
  4  5  1  0
  5  6  2  0
  6  7  1  0
  7  8  1  0
  8  9  1  0
  9 10  2  0
 10 11  1  0
 11 12  2  0
 12 13  1  0
 13 14  2  0
 14 15  1  0
 15 16  2  0
 16 17  1  0
 17 18  1  0
 18 19  2  0
 19 20  1  0
 20 21  2  0
 11 22  1  0
 22 23  2  0
  4 24  1  0
 24 25  2  0
 25  2  1  0
 23  5  1  0
 23  8  1  0
 21 13  1  0
 20 16  1  0
  1 26  1  0
  1 27  1  0
  1 28  1  0
  3 29  1  0
  6 30  1  0
  7 31  1  0
  9 32  1  0
 10 33  1  0
 14 34  1  0
 15 35  1  0
 17 36  1  0
 18 37  1  0
 19 38  1  0
 21 39  1  0
 24 40  1  0
M  END
>  <smiles>  (75) 
Cn1cc(-c2c[nH]n3ccc(=Nc4ccc5[nH]ccc5c4)nc23)cn1

>  <score_type>  (75) 
oracle

>  <origin>  (75) 
adg

>  <m_score__min__energy>  (75) 
-8.1199999999999992

>  <m_primary>  (75) 
energy

$$$$
75:0
     RDKit          3D

 33 35  0  0  0  0  0  0  0  0999 V2000
   56.3368   23.9732   46.2981 H   0  0  0  0  0  0  0  0  0  0  0  0
   57.0110   24.8220   46.1110 C   0  0  0  0  0  0  0  0  0  0  0  0
   58.3910   24.6480   46.2050 C   0  0  0  0  0  0  0  0  0  0  0  0
   58.8034   23.6631   46.4694 H   0  0  0  0  0  0  0  0  0  0  0  0
   59.2510   25.7220   45.9640 C   0  0  0  0  0  0  0  0  0  0  0  0
   60.3389   25.5800   46.0427 H   0  0  0  0  0  0  0  0  0  0  0  0
   58.7330   26.9850   45.6210 C   0  0  0  0  0  0  0  0  0  0  0  0
   57.3360   27.1630   45.5340 C   0  0  0  0  0  0  0  0  0  0  0  0
   56.4830   26.0710   45.7800 C   0  0  0  0  0  0  0  0  0  0  0  0
   55.3931   26.2026   45.7110 H   0  0  0  0  0  0  0  0  0  0  0  0
   56.7790   28.4990   45.2240 C   0  0  0  0  0  0  0  0  0  0  0  0
   55.5320   28.6850   45.2460 O   0  0  0  0  0  0  0  0  0  0  0  0
   57.6770   29.6270   44.9090 C   0  0  0  0  0  0  0  0  0  0  0  0
   57.1620   30.8230   44.8290 N   0  0  0  0  0  0  0  0  0  0  0  0
   57.7670   32.0560   45.2480 C   0  0  0  0  0  0  0  0  0  0  0  0
   58.0770   32.2990   46.5960 C   0  0  0  0  0  0  0  0  0  0  0  0
   57.8277   31.5475   47.3596 H   0  0  0  0  0  0  0  0  0  0  0  0
   58.7010   33.4920   46.9710 C   0  0  0  0  0  0  0  0  0  0  0  0
   58.9162   33.6877   48.0318 H   0  0  0  0  0  0  0  0  0  0  0  0
   59.0540   34.4410   46.0000 C   0  0  0  0  0  0  0  0  0  0  0  0
   59.6890   35.7390   46.4060 C   0  0  0  0  0  0  0  0  0  0  0  0
   59.7208   35.8041   47.5036 H   0  0  0  0  0  0  0  0  0  0  0  0
   60.7125   35.7874   46.0060 H   0  0  0  0  0  0  0  0  0  0  0  0
   59.0990   36.5768   46.0060 H   0  0  0  0  0  0  0  0  0  0  0  0
   58.7590   34.1900   44.6510 C   0  0  0  0  0  0  0  0  0  0  0  0
   59.0197   34.9354   43.8852 H   0  0  0  0  0  0  0  0  0  0  0  0
   58.1350   32.9960   44.2770 C   0  0  0  0  0  0  0  0  0  0  0  0
   57.9321   32.7939   43.2149 H   0  0  0  0  0  0  0  0  0  0  0  0
   59.1510   29.3670   44.6720 C   0  0  0  0  0  0  0  0  0  0  0  0
   59.3194   29.2625   43.5900 H   0  0  0  0  0  0  0  0  0  0  0  0
   59.7078   30.2172   45.0929 H   0  0  0  0  0  0  0  0  0  0  0  0
   59.6430   28.1230   45.3560 C   0  0  0  0  0  0  0  0  0  0  0  0
   60.8680   28.0330   45.6420 O   0  0  0  0  0  0  0  0  0  0  0  0
  1  2  1  0
  2  3  2  0
  3  4  1  0
  3  5  1  0
  5  6  1  0
  5  7  2  0
  7  8  1  0
  8  9  2  0
  9 10  1  0
  8 11  1  0
 11 12  2  0
 11 13  1  0
 13 14  2  0
 14 15  1  0
 15 16  2  0
 16 17  1  0
 16 18  1  0
 18 19  1  0
 18 20  2  0
 20 21  1  0
 21 22  1  0
 21 23  1  0
 21 24  1  0
 20 25  1  0
 25 26  1  0
 25 27  2  0
 27 28  1  0
 13 29  1  0
 29 30  1  0
 29 31  1  0
 29 32  1  0
 32 33  2  0
  9  2  1  0
 27 15  1  0
 32  7  1  0
M  END
>  <UniqueID>  (76) 
69

>  <SMILES>  (76) 
Cc1ccc(/N=C2\CC(=O)c3ccccc3C2=O)cc1

>  <Energy>  (76) 
45.5549194728446

>  <Genealogy>  (76) 
Cc1ccc(/N=C2\CC(=O)c3ccccc3C2=O)cc1 (cis-trans isomerization)
Cc1ccc(/N=C2\CC(=O)c3ccccc3C2=O)cc1 (3D coordinates assigned)
Cc1ccc(/N=C2\CC(=O)c3ccccc3C2=O)cc1 (nonaromatic ring conformer: 45.5549194728446 kcal/mol)

>  <smiles>  (76) 
Cc1ccc(N=C2CC(=O)c3ccccc3C2=O)cc1

>  <score_type>  (76) 
oracle

>  <origin>  (76) 
adg

>  <m_score__min__energy>  (76) 
-7.9400000000000004

>  <m_primary>  (76) 
energy

$$$$
76:0
     RDKit          3D

 40 42  0  0  0  0  0  0  0  0999 V2000
   58.1280   32.5020   42.6370 C   0  0  0  0  0  0  0  0  0  0  0  0
   57.9060   32.2170   44.0590 N   0  0  0  0  0  0  0  0  0  0  0  0
   58.3770   33.1360   45.0720 C   0  0  0  0  0  0  0  0  0  0  0  0
   58.0740   32.9330   46.4330 C   0  0  0  0  0  0  0  0  0  0  0  0
   58.5360   33.8290   47.4020 C   0  0  0  0  0  0  0  0  0  0  0  0
   59.3060   34.9320   47.0280 C   0  0  0  0  0  0  0  0  0  0  0  0
   59.6150   35.1430   45.6830 C   0  0  0  0  0  0  0  0  0  0  0  0
   59.1560   34.2510   44.7100 C   0  0  0  0  0  0  0  0  0  0  0  0
   57.3780   30.9330   44.4400 C   0  0  0  0  0  0  0  0  0  0  0  0
   58.1740   30.0240   45.1570 C   0  0  0  0  0  0  0  0  0  0  0  0
   57.6570   28.7840   45.5420 C   0  0  0  0  0  0  0  0  0  0  0  0
   56.3360   28.4410   45.2340 C   0  0  0  0  0  0  0  0  0  0  0  0
   55.8400   27.1570   45.6410 N   0  0  0  0  0  0  0  0  0  0  0  0
   56.6360   26.0450   46.0800 C   0  0  0  0  0  0  0  0  0  0  0  0
   57.1870   26.1110   47.2100 O   0  0  0  0  0  0  0  0  0  0  0  0
   56.7800   24.8130   45.2710 C   0  0  0  0  0  0  0  0  0  0  0  0
   57.9890   24.0940   45.2900 C   0  0  0  0  0  0  0  0  0  0  0  0
   58.1310   22.9290   44.5310 C   0  0  0  0  0  0  0  0  0  0  0  0
   57.0660   22.4640   43.7540 C   0  0  0  0  0  0  0  0  0  0  0  0
   55.8570   23.1610   43.7400 C   0  0  0  0  0  0  0  0  0  0  0  0
   55.7090   24.3260   44.4980 C   0  0  0  0  0  0  0  0  0  0  0  0
   55.5440   29.3390   44.4990 C   0  0  0  0  0  0  0  0  0  0  0  0
   56.0600   30.5780   44.1120 C   0  0  0  0  0  0  0  0  0  0  0  0
   58.8012   33.3662   42.5370 H   0  0  0  0  0  0  0  0  0  0  0  0
   58.5832   31.6248   42.1539 H   0  0  0  0  0  0  0  0  0  0  0  0
   57.1661   32.7287   42.1539 H   0  0  0  0  0  0  0  0  0  0  0  0
   57.4704   32.0644   46.7350 H   0  0  0  0  0  0  0  0  0  0  0  0
   58.2921   33.6644   48.4619 H   0  0  0  0  0  0  0  0  0  0  0  0
   59.6690   35.6344   47.7927 H   0  0  0  0  0  0  0  0  0  0  0  0
   60.2207   36.0127   45.3886 H   0  0  0  0  0  0  0  0  0  0  0  0
   59.4056   34.4217   43.6524 H   0  0  0  0  0  0  0  0  0  0  0  0
   59.2094   30.2897   45.4166 H   0  0  0  0  0  0  0  0  0  0  0  0
   58.2926   28.0733   46.0906 H   0  0  0  0  0  0  0  0  0  0  0  0
   58.8276   24.4508   45.9059 H   0  0  0  0  0  0  0  0  0  0  0  0
   59.0824   22.3771   44.5451 H   0  0  0  0  0  0  0  0  0  0  0  0
   57.1808   21.5492   43.1540 H   0  0  0  0  0  0  0  0  0  0  0  0
   55.0184   22.7926   43.1309 H   0  0  0  0  0  0  0  0  0  0  0  0
   54.7503   24.8653   44.4905 H   0  0  0  0  0  0  0  0  0  0  0  0
   54.5138   29.0654   44.2273 H   0  0  0  0  0  0  0  0  0  0  0  0
   55.4296   31.2800   43.5466 H   0  0  0  0  0  0  0  0  0  0  0  0
  1  2  1  0
  2  3  1  0
  3  4  2  0
  4  5  1  0
  5  6  2  0
  6  7  1  0
  7  8  2  0
  2  9  1  0
  9 10  2  0
 10 11  1  0
 11 12  2  0
 12 13  1  0
 13 14  1  0
 14 15  2  0
 14 16  1  0
 16 17  2  0
 17 18  1  0
 18 19  2  0
 19 20  1  0
 20 21  2  0
 12 22  1  0
 22 23  2  0
  8  3  1  0
 23  9  1  0
 21 16  1  0
  1 24  1  0
  1 25  1  0
  1 26  1  0
  4 27  1  0
  5 28  1  0
  6 29  1  0
  7 30  1  0
  8 31  1  0
 10 32  1  0
 11 33  1  0
 17 34  1  0
 18 35  1  0
 19 36  1  0
 20 37  1  0
 21 38  1  0
 22 39  1  0
 23 40  1  0
M  CHG  1  13  -1
M  END
>  <UniqueID>  (77) 
70

>  <SMILES>  (77) 
CN(c1ccccc1)c1ccc([N-]C(=O)c2ccccc2)cc1

>  <Energy>  (77) 
58.01103776900937

>  <Genealogy>  (77) 
CN(c1ccccc1)c1ccc([N-]C(=O)c2ccccc2)cc1 (protonated)
CN(c1ccccc1)c1ccc([N-]C(=O)c2ccccc2)cc1 (3D coordinates assigned)
CN(c1ccccc1)c1ccc([N-]C(=O)c2ccccc2)cc1 (optimized conformer: 58.01103776900937 kcal/mol)

>  <smiles>  (77) 
CN(c1ccccc1)c1ccc(NC(=O)c2ccccc2)cc1

>  <score_type>  (77) 
oracle

>  <origin>  (77) 
adg

>  <m_score__min__energy>  (77) 
-10.1

>  <m_primary>  (77) 
energy

$$$$
77:0
     RDKit          3D

 30 30  0  0  0  0  0  0  0  0999 V2000
   59.3300   34.2900   44.9560 C   0  0  0  0  0  0  0  0  0  0  0  0
   57.9410   33.7840   44.5740 C   0  0  0  0  0  0  0  0  0  0  0  0
   58.0230   32.4580   43.9410 N   0  0  0  0  0  0  0  0  0  0  0  0
   58.0100   32.3630   42.4740 C   0  0  0  0  0  0  0  0  0  0  0  0
   57.0390   31.2810   42.0120 C   0  0  0  0  0  0  0  0  0  0  0  0
   58.0440   31.2690   44.7600 C   0  0  0  0  0  0  0  0  0  0  0  0
   57.6840   31.3370   45.9670 O   0  0  0  0  0  0  0  0  0  0  0  0
   58.5120   30.0170   44.2270 N   0  0  0  0  0  0  0  0  0  0  0  0
   58.2290   28.7390   44.8220 C   0  0  0  0  0  0  0  0  0  0  0  0
   59.2810   27.8390   45.0550 C   0  0  0  0  0  0  0  0  0  0  0  0
   59.0280   26.5820   45.6120 C   0  0  0  0  0  0  0  0  0  0  0  0
   57.7200   26.2080   45.9300 C   0  0  0  0  0  0  0  0  0  0  0  0
   56.6620   27.0880   45.6830 C   0  0  0  0  0  0  0  0  0  0  0  0
   55.3910   26.7160   45.9750 F   0  0  0  0  0  0  0  0  0  0  0  0
   56.9110   28.3460   45.1260 C   0  0  0  0  0  0  0  0  0  0  0  0
   59.4198   34.3227   46.0518 H   0  0  0  0  0  0  0  0  0  0  0  0
   60.0929   33.6120   44.5457 H   0  0  0  0  0  0  0  0  0  0  0  0
   59.4780   35.2998   44.5457 H   0  0  0  0  0  0  0  0  0  0  0  0
   57.3213   33.7132   45.4801 H   0  0  0  0  0  0  0  0  0  0  0  0
   57.4938   34.4892   43.8579 H   0  0  0  0  0  0  0  0  0  0  0  0
   57.6998   33.3304   42.0523 H   0  0  0  0  0  0  0  0  0  0  0  0
   59.0209   32.1021   42.1277 H   0  0  0  0  0  0  0  0  0  0  0  0
   56.5958   30.7872   42.8893 H   0  0  0  0  0  0  0  0  0  0  0  0
   56.2421   31.7377   41.4068 H   0  0  0  0  0  0  0  0  0  0  0  0
   57.5789   30.5379   41.4068 H   0  0  0  0  0  0  0  0  0  0  0  0
   59.1820   30.0430   43.4270 H   0  0  0  0  0  0  0  0  0  0  0  0
   60.3115   28.1249   44.7975 H   0  0  0  0  0  0  0  0  0  0  0  0
   59.8595   25.8868   45.8001 H   0  0  0  0  0  0  0  0  0  0  0  0
   57.5226   25.2214   46.3746 H   0  0  0  0  0  0  0  0  0  0  0  0
   56.0745   29.0313   44.9244 H   0  0  0  0  0  0  0  0  0  0  0  0
  1  2  1  0
  2  3  1  0
  3  4  1  0
  4  5  1  0
  3  6  1  0
  6  7  2  0
  6  8  1  0
  8  9  1  0
  9 10  2  0
 10 11  1  0
 11 12  2  0
 12 13  1  0
 13 14  1  0
 13 15  2  0
 15  9  1  0
  1 16  1  0
  1 17  1  0
  1 18  1  0
  2 19  1  0
  2 20  1  0
  4 21  1  0
  4 22  1  0
  5 23  1  0
  5 24  1  0
  5 25  1  0
  8 26  1  0
 10 27  1  0
 11 28  1  0
 12 29  1  0
 15 30  1  0
M  END
>  <UniqueID>  (78) 
71

>  <SMILES>  (78) 
CCN(CC)C(=O)Nc1cccc(F)c1

>  <Energy>  (78) 
25.372148191776255

>  <Genealogy>  (78) 
CCN(CC)C(=O)Nc1cccc(F)c1 (3D coordinates assigned)
CCN(CC)C(=O)Nc1cccc(F)c1 (optimized conformer: 25.372148191776255 kcal/mol)

>  <smiles>  (78) 
CCN(CC)C(=O)Nc1cccc(F)c1

>  <score_type>  (78) 
oracle

>  <origin>  (78) 
adg

>  <m_score__min__energy>  (78) 
-5.6399999999999997

>  <m_primary>  (78) 
energy

$$$$
78:0
     RDKit          3D

 26 28  0  0  0  0  0  0  0  0999 V2000
   57.7400   32.2870   41.4380 C   0  0  0  0  0  0  0  0  0  0  0  0
   57.0210   31.3090   42.2560 C   0  0  0  0  0  0  0  0  0  0  0  0
   56.2840   30.3020   41.7860 O   0  0  0  0  0  0  0  0  0  0  0  0
   55.7740   29.6090   42.7470 N   0  0  0  0  0  0  0  0  0  0  0  0
   56.1690   30.1540   43.9110 C   0  0  0  0  0  0  0  0  0  0  0  0
   55.8160   29.6790   45.0520 N   0  0  0  0  0  0  0  0  0  0  0  0
   56.9780   31.2570   43.6330 C   0  0  0  0  0  0  0  0  0  0  0  0
   57.6060   32.1190   44.6250 C   0  0  0  0  0  0  0  0  0  0  0  0
   58.3790   33.1760   44.3180 N   0  0  0  0  0  0  0  0  0  0  0  0
   58.7920   33.7460   45.4570 C   0  0  0  0  0  0  0  0  0  0  0  0
   59.6020   34.8540   45.6950 C   0  0  0  0  0  0  0  0  0  0  0  0
   59.8700   35.2260   46.9830 C   0  0  0  0  0  0  0  0  0  0  0  0
   59.3550   34.5270   48.0530 C   0  0  0  0  0  0  0  0  0  0  0  0
   59.6120   34.8830   49.3260 F   0  0  0  0  0  0  0  0  0  0  0  0
   58.5450   33.4170   47.8340 C   0  0  0  0  0  0  0  0  0  0  0  0
   58.2820   33.0520   46.5200 C   0  0  0  0  0  0  0  0  0  0  0  0
   57.5500   32.0500   45.9640 N   0  0  0  0  0  0  0  0  0  0  0  0
   58.2634   32.9989   42.0931 H   0  0  0  0  0  0  0  0  0  0  0  0
   58.4721   31.7665   40.8031 H   0  0  0  0  0  0  0  0  0  0  0  0
   57.0248   32.8305   40.8031 H   0  0  0  0  0  0  0  0  0  0  0  0
   55.1580   28.7680   42.6080 H   0  0  0  0  0  0  0  0  0  0  0  0
   55.1390   30.0840   45.7080 H   0  0  0  0  0  0  0  0  0  0  0  0
   60.0224   35.4247   44.8539 H   0  0  0  0  0  0  0  0  0  0  0  0
   60.5098   36.1012   47.1689 H   0  0  0  0  0  0  0  0  0  0  0  0
   58.1258   32.8461   48.6757 H   0  0  0  0  0  0  0  0  0  0  0  0
   57.0470   31.3630   46.5450 H   0  0  0  0  0  0  0  0  0  0  0  0
  1  2  1  0
  2  3  1  0
  3  4  1  0
  4  5  1  0
  5  6  2  3
  5  7  1  0
  7  8  1  0
  8  9  2  0
  9 10  1  0
 10 11  2  0
 11 12  1  0
 12 13  2  0
 13 14  1  0
 13 15  1  0
 15 16  2  0
 16 17  1  0
  7  2  2  0
 17  8  1  0
 16 10  1  0
  1 18  1  0
  1 19  1  0
  1 20  1  0
  4 21  1  0
  6 22  1  0
 11 23  1  0
 12 24  1  0
 15 25  1  0
 17 26  1  0
M  END
>  <smiles>  (79) 
Cc1o[nH]c(=N)c1-c1nc2ccc(F)cc2[nH]1

>  <score_type>  (79) 
oracle

>  <origin>  (79) 
adg

>  <m_score__min__energy>  (79) 
-7.0300000000000002

>  <m_primary>  (79) 
energy

$$$$
79:0
     RDKit          3D

 13 13  0  0  0  0  0  0  0  0999 V2000
   55.1440   29.0520   44.9210 O   0  0  0  0  0  0  0  0  0  0  0  0
   56.2380   29.7970   44.4850 C   0  0  0  0  0  0  0  0  0  0  0  0
   57.3820   29.8810   45.2880 C   0  0  0  0  0  0  0  0  0  0  0  0
   58.4860   30.6250   44.8600 C   0  0  0  0  0  0  0  0  0  0  0  0
   58.4500   31.2870   43.6290 C   0  0  0  0  0  0  0  0  0  0  0  0
   57.3090   31.2060   42.8250 C   0  0  0  0  0  0  0  0  0  0  0  0
   56.2030   30.4610   43.2500 C   0  0  0  0  0  0  0  0  0  0  0  0
   55.1380   28.0400   44.8710 H   0  0  0  0  0  0  0  0  0  0  0  0
   57.4123   29.3610   46.2569 H   0  0  0  0  0  0  0  0  0  0  0  0
   59.3837   30.6895   45.4925 H   0  0  0  0  0  0  0  0  0  0  0  0
   59.3192   31.8715   43.2931 H   0  0  0  0  0  0  0  0  0  0  0  0
   57.2805   31.7284   41.8574 H   0  0  0  0  0  0  0  0  0  0  0  0
   55.3066   30.3962   42.6157 H   0  0  0  0  0  0  0  0  0  0  0  0
  1  2  1  0
  2  3  2  0
  3  4  1  0
  4  5  2  0
  5  6  1  0
  6  7  2  0
  7  2  1  0
  1  8  1  0
  3  9  1  0
  4 10  1  0
  5 11  1  0
  6 12  1  0
  7 13  1  0
M  END
>  <UniqueID>  (80) 
72

>  <SMILES>  (80) 
Oc1ccccc1

>  <Energy>  (80) 
11.178493318559156

>  <Genealogy>  (80) 
Oc1ccccc1 (3D coordinates assigned)
Oc1ccccc1 (optimized conformer: 11.178493318559156 kcal/mol)

>  <smiles>  (80) 
Oc1ccccc1

>  <score_type>  (80) 
oracle

>  <origin>  (80) 
adg

>  <m_score__min__energy>  (80) 
-4.8499999999999996

>  <m_primary>  (80) 
energy

$$$$
80:0
     RDKit          3D

 30 32  0  0  0  0  0  0  0  0999 V2000
   56.4820   30.1210   43.0970 C   0  0  0  0  0  0  0  0  0  0  0  0
   56.6820   29.9770   44.4710 C   0  0  0  0  0  0  0  0  0  0  0  0
   57.4230   30.9300   45.1760 C   0  0  0  0  0  0  0  0  0  0  0  0
   57.9720   32.0460   44.5130 C   0  0  0  0  0  0  0  0  0  0  0  0
   58.7670   33.0730   45.2380 C   0  0  0  0  0  0  0  0  0  0  0  0
   58.4770   34.4420   45.2360 C   0  0  0  0  0  0  0  0  0  0  0  0
   59.6340   35.2270   46.1720 S   0  0  0  0  0  0  0  0  0  0  0  0
   60.4510   33.8060   46.5400 C   0  0  0  0  0  0  0  0  0  0  0  0
   61.6250   33.7180   47.3580 N   0  0  0  0  0  0  0  0  0  0  0  0
   61.5970   33.8440   48.8030 C   0  0  0  0  0  0  0  0  0  0  0  0
   63.0560   33.8540   49.2400 C   0  0  0  0  0  0  0  0  0  0  0  0
   63.8550   33.3230   48.0510 C   0  0  0  0  0  0  0  0  0  0  0  0
   62.9590   33.4970   46.8310 C   0  0  0  0  0  0  0  0  0  0  0  0
   59.8680   32.7330   45.9650 N   0  0  0  0  0  0  0  0  0  0  0  0
   57.7670   32.1730   43.1240 C   0  0  0  0  0  0  0  0  0  0  0  0
   57.0250   31.2180   42.4240 C   0  0  0  0  0  0  0  0  0  0  0  0
   55.8971   29.3709   42.5445 H   0  0  0  0  0  0  0  0  0  0  0  0
   56.2557   29.1119   45.0000 H   0  0  0  0  0  0  0  0  0  0  0  0
   57.5790   30.8078   46.2580 H   0  0  0  0  0  0  0  0  0  0  0  0
   57.6371   34.9223   44.7126 H   0  0  0  0  0  0  0  0  0  0  0  0
   61.1013   34.7808   49.0975 H   0  0  0  0  0  0  0  0  0  0  0  0
   61.0363   33.0226   49.2730 H   0  0  0  0  0  0  0  0  0  0  0  0
   63.3739   34.8775   49.4877 H   0  0  0  0  0  0  0  0  0  0  0  0
   63.2120   33.2380   50.1379 H   0  0  0  0  0  0  0  0  0  0  0  0
   64.7844   33.8983   47.9277 H   0  0  0  0  0  0  0  0  0  0  0  0
   64.1395   32.2702   48.1949 H   0  0  0  0  0  0  0  0  0  0  0  0
   63.2850   34.3620   46.2348 H   0  0  0  0  0  0  0  0  0  0  0  0
   62.9960   32.6193   46.1690 H   0  0  0  0  0  0  0  0  0  0  0  0
   58.1951   33.0318   42.5863 H   0  0  0  0  0  0  0  0  0  0  0  0
   56.8682   31.3303   41.3410 H   0  0  0  0  0  0  0  0  0  0  0  0
  1  2  2  0
  2  3  1  0
  3  4  2  0
  4  5  1  0
  5  6  2  0
  6  7  1  0
  7  8  1  0
  8  9  1  0
  9 10  1  0
 10 11  1  0
 11 12  1  0
 12 13  1  0
  8 14  2  0
  4 15  1  0
 15 16  2  0
 16  1  1  0
 14  5  1  0
 13  9  1  0
  1 17  1  0
  2 18  1  0
  3 19  1  0
  6 20  1  0
 10 21  1  0
 10 22  1  0
 11 23  1  0
 11 24  1  0
 12 25  1  0
 12 26  1  0
 13 27  1  0
 13 28  1  0
 15 29  1  0
 16 30  1  0
M  END
>  <UniqueID>  (81) 
73

>  <SMILES>  (81) 
c1ccc(-c2csc(N3CCCC3)n2)cc1

>  <Energy>  (81) 
61.88710487342276

>  <Genealogy>  (81) 
c1ccc(-c2csc(N3CCCC3)n2)cc1 (3D coordinates assigned)
c1ccc(-c2csc(N3CCCC3)n2)cc1 (nonaromatic ring conformer: 61.88710487342276 kcal/mol)

>  <smiles>  (81) 
c1ccc(-c2csc(N3CCCC3)n2)cc1

>  <score_type>  (81) 
oracle

>  <origin>  (81) 
adg

>  <m_score__min__energy>  (81) 
-6.6299999999999999

>  <m_primary>  (81) 
energy

$$$$
81:0
     RDKit          3D

 50 54  0  0  0  0  0  0  0  0999 V2000
   61.4700   29.2640   49.8830 O   0  0  0  0  0  0  0  0  0  0  0  0
   60.6880   29.6450   48.9710 C   0  0  0  0  0  0  0  0  0  0  0  0
   60.0750   28.6190   48.0610 C   0  0  0  0  0  0  0  0  0  0  0  0
   60.7460   28.7920   46.3670 S   0  0  0  0  0  0  0  0  0  0  0  0
   59.5980   30.0870   45.8590 C   0  0  0  0  0  0  0  0  0  0  0  0
   59.9810   31.3900   46.0210 N   0  0  0  0  0  0  0  0  0  0  0  0
   59.1290   32.3900   45.6910 C   0  0  0  0  0  0  0  0  0  0  0  0
   59.3940   33.7580   45.8120 C   0  0  0  0  0  0  0  0  0  0  0  0
   58.3230   34.5460   45.3920 C   0  0  0  0  0  0  0  0  0  0  0  0
   57.0620   33.5390   44.8760 S   0  0  0  0  0  0  0  0  0  0  0  0
   57.8810   32.1060   45.1900 C   0  0  0  0  0  0  0  0  0  0  0  0
   57.4790   30.7910   45.0100 C   0  0  0  0  0  0  0  0  0  0  0  0
   56.3380   30.5390   44.5340 O   0  0  0  0  0  0  0  0  0  0  0  0
   58.3500   29.7830   45.3490 N   0  0  0  0  0  0  0  0  0  0  0  0
   57.9500   28.4120   45.1600 C   0  0  0  0  0  0  0  0  0  0  0  0
   57.3950   27.6840   46.2240 C   0  0  0  0  0  0  0  0  0  0  0  0
   57.0400   26.3430   46.0480 C   0  0  0  0  0  0  0  0  0  0  0  0
   57.2410   25.7220   44.8120 C   0  0  0  0  0  0  0  0  0  0  0  0
   57.7960   26.4410   43.7500 C   0  0  0  0  0  0  0  0  0  0  0  0
   58.1500   27.7830   43.9210 C   0  0  0  0  0  0  0  0  0  0  0  0
   60.4510   31.0540   48.7870 N   0  0  0  0  0  0  0  0  0  0  0  0
   59.1110   31.5840   49.0540 C   0  0  0  0  0  0  0  0  0  0  0  0
   59.2100   32.6940   50.1000 C   0  0  0  0  0  0  0  0  0  0  0  0
   60.1100   33.8300   49.5970 C   0  0  0  0  0  0  0  0  0  0  0  0
   61.3980   33.3300   48.9820 C   0  0  0  0  0  0  0  0  0  0  0  0
   62.4420   34.2380   48.7520 C   0  0  0  0  0  0  0  0  0  0  0  0
   63.6000   33.8290   48.0850 C   0  0  0  0  0  0  0  0  0  0  0  0
   63.7100   32.5210   47.6150 C   0  0  0  0  0  0  0  0  0  0  0  0
   62.6730   31.6080   47.8240 C   0  0  0  0  0  0  0  0  0  0  0  0
   61.5200   31.9920   48.5350 C   0  0  0  0  0  0  0  0  0  0  0  0
   60.3047   27.6128   48.4415 H   0  0  0  0  0  0  0  0  0  0  0  0
   58.9859   28.7709   48.0321 H   0  0  0  0  0  0  0  0  0  0  0  0
   60.9260   31.6130   46.4090 H   0  0  0  0  0  0  0  0  0  0  0  0
   60.3407   34.1663   46.1953 H   0  0  0  0  0  0  0  0  0  0  0  0
   58.3005   35.6458   45.3952 H   0  0  0  0  0  0  0  0  0  0  0  0
   57.2389   28.1695   47.1986 H   0  0  0  0  0  0  0  0  0  0  0  0
   56.6022   25.7763   46.8830 H   0  0  0  0  0  0  0  0  0  0  0  0
   56.9622   24.6668   44.6752 H   0  0  0  0  0  0  0  0  0  0  0  0
   57.9546   25.9507   42.7782 H   0  0  0  0  0  0  0  0  0  0  0  0
   58.5860   28.3468   43.0831 H   0  0  0  0  0  0  0  0  0  0  0  0
   58.6841   31.9904   48.1252 H   0  0  0  0  0  0  0  0  0  0  0  0
   58.4626   30.7786   49.4294 H   0  0  0  0  0  0  0  0  0  0  0  0
   58.2044   33.0916   50.3017 H   0  0  0  0  0  0  0  0  0  0  0  0
   59.6454   32.2770   51.0200 H   0  0  0  0  0  0  0  0  0  0  0  0
   59.5588   34.4053   48.8386 H   0  0  0  0  0  0  0  0  0  0  0  0
   60.3770   34.4498   50.4657 H   0  0  0  0  0  0  0  0  0  0  0  0
   62.3488   35.2778   49.0985 H   0  0  0  0  0  0  0  0  0  0  0  0
   64.4253   34.5396   47.9307 H   0  0  0  0  0  0  0  0  0  0  0  0
   64.6167   32.2065   47.0775 H   0  0  0  0  0  0  0  0  0  0  0  0
   62.7579   30.5841   47.4311 H   0  0  0  0  0  0  0  0  0  0  0  0
  1  2  2  0
  2  3  1  0
  3  4  1  0
  4  5  1  0
  5  6  2  0
  6  7  1  0
  7  8  1  0
  8  9  2  0
  9 10  1  0
 10 11  1  0
 11 12  1  0
 12 13  2  0
 12 14  1  0
 14 15  1  0
 15 16  2  0
 16 17  1  0
 17 18  2  0
 18 19  1  0
 19 20  2  0
  2 21  1  0
 21 22  1  0
 22 23  1  0
 23 24  1  0
 24 25  1  0
 25 26  2  0
 26 27  1  0
 27 28  2  0
 28 29  1  0
 29 30  2  0
 14  5  1  0
 20 15  1  0
 30 21  1  0
 11  7  2  0
 30 25  1  0
  3 31  1  0
  3 32  1  0
  6 33  1  0
  8 34  1  0
  9 35  1  0
 16 36  1  0
 17 37  1  0
 18 38  1  0
 19 39  1  0
 20 40  1  0
 22 41  1  0
 22 42  1  0
 23 43  1  0
 23 44  1  0
 24 45  1  0
 24 46  1  0
 26 47  1  0
 27 48  1  0
 28 49  1  0
 29 50  1  0
M  CHG  1   6   1
M  END
>  <UniqueID>  (82) 
74

>  <SMILES>  (82) 
O=C(CSc1[nH+]c2ccsc2c(=O)n1-c1ccccc1)N1CCCc2ccccc21

>  <Energy>  (82) 
98.20315272934145

>  <Genealogy>  (82) 
O=C(CSc1[nH+]c2ccsc2c(=O)n1-c1ccccc1)N1CCCc2ccccc21 (protonated)
O=C(CSc1[nH+]c2ccsc2c(=O)n1-c1ccccc1)N1CCCc2ccccc21 (3D coordinates assigned)
O=C(CSc1[nH+]c2ccsc2c(=O)n1-c1ccccc1)N1CCCc2ccccc21 (nonaromatic ring conformer: 98.20315272934145 kcal/mol)

>  <smiles>  (82) 
O=C(CSc1nc2ccsc2c(=O)n1-c1ccccc1)N1CCCc2ccccc21

>  <score_type>  (82) 
oracle

>  <origin>  (82) 
adg

>  <m_score__min__energy>  (82) 
-7.4800000000000004

>  <m_primary>  (82) 
energy

$$$$
82:0
     RDKit          3D

 58 61  0  0  0  0  0  0  0  0999 V2000
   63.2740   25.6590   52.0320 C   0  0  0  0  0  0  0  0  0  0  0  0
   62.5920   27.0210   51.9700 C   0  0  0  0  0  0  0  0  0  0  0  0
   61.1540   26.8960   51.4430 C   0  0  0  0  0  0  0  0  0  0  0  0
   60.7240   28.1270   50.6200 C   0  0  0  0  0  0  0  0  0  0  0  0
   60.6870   27.8860   49.1030 C   0  0  0  0  0  0  0  0  0  0  0  0
   59.7420   28.8280   48.3740 C   0  0  0  0  0  0  0  0  0  0  0  0
   59.3610   28.6680   47.0810 C   0  0  0  0  0  0  0  0  0  0  0  0
   59.9100   27.6020   46.2080 C   0  0  0  0  0  0  0  0  0  0  0  0
   59.2450   27.2220   45.1210 C   0  0  0  0  0  0  0  0  0  0  0  0
   57.8730   27.7470   44.8200 C   0  0  0  0  0  0  0  0  0  0  0  0
   57.6020   29.1140   45.4220 C   0  0  0  0  0  0  0  0  0  0  0  0
   56.4270   29.8330   44.8790 C   0  0  0  0  0  0  0  0  0  0  0  0
   56.5790   30.9490   44.3090 O   0  0  0  0  0  0  0  0  0  0  0  0
   55.1590   29.2580   44.9120 O   0  0  0  0  0  0  0  0  0  0  0  0
   58.3320   29.5730   46.4800 C   0  0  0  0  0  0  0  0  0  0  0  0
   58.1440   30.9820   47.0590 C   0  0  2  0  0  0  0  0  0  0  0  0
   58.3680   32.0750   45.9830 C   0  0  0  0  0  0  0  0  0  0  0  0
   58.6790   33.4360   46.6160 C   0  0  0  0  0  0  0  0  0  0  0  0
   60.0490   33.4160   47.3270 C   0  0  2  0  0  0  0  0  0  0  0  0
   61.1620   33.8090   46.3190 C   0  0  0  0  0  0  0  0  0  0  0  0
   62.5250   33.4430   46.8240 C   0  0  0  0  0  0  0  0  0  0  0  0
   63.4510   34.2310   46.7080 O   0  0  0  0  0  0  0  0  0  0  0  0
   62.7690   32.0850   47.4120 C   0  0  0  0  0  0  0  0  0  0  0  0
   61.4790   31.2560   47.4670 C   0  0  0  0  0  0  0  0  0  0  0  0
   60.3190   32.0660   48.1000 C   0  0  2  0  0  0  0  0  0  0  0  0
   58.9990   31.2500   48.3380 C   0  0  2  0  0  0  0  0  0  0  0  0
   59.1640   29.9690   49.1760 C   0  0  0  0  0  0  0  0  0  0  0  0
   63.4191   25.3691   53.0831 H   0  0  0  0  0  0  0  0  0  0  0  0
   62.6444   24.9104   51.5288 H   0  0  0  0  0  0  0  0  0  0  0  0
   64.2506   25.7147   51.5288 H   0  0  0  0  0  0  0  0  0  0  0  0
   62.5680   27.4571   52.9796 H   0  0  0  0  0  0  0  0  0  0  0  0
   63.1608   27.6657   51.2838 H   0  0  0  0  0  0  0  0  0  0  0  0
   61.0875   26.0027   50.8046 H   0  0  0  0  0  0  0  0  0  0  0  0
   60.4826   26.8199   52.3110 H   0  0  0  0  0  0  0  0  0  0  0  0
   59.7173   28.4265   50.9468 H   0  0  0  0  0  0  0  0  0  0  0  0
   61.4785   28.9072   50.7988 H   0  0  0  0  0  0  0  0  0  0  0  0
   61.7012   28.0267   48.7010 H   0  0  0  0  0  0  0  0  0  0  0  0
   60.3194   26.8618   48.9417 H   0  0  0  0  0  0  0  0  0  0  0  0
   60.8686   27.1251   46.4601 H   0  0  0  0  0  0  0  0  0  0  0  0
   59.7115   26.5069   44.4274 H   0  0  0  0  0  0  0  0  0  0  0  0
   57.7594   27.8187   43.7282 H   0  0  0  0  0  0  0  0  0  0  0  0
   57.1531   27.0472   45.2694 H   0  0  0  0  0  0  0  0  0  0  0  0
   57.0945   31.0351   47.3842 H   0  0  0  0  0  0  0  0  0  0  0  0
   59.2119   31.7780   45.3430 H   0  0  0  0  0  0  0  0  0  0  0  0
   57.4436   32.1728   45.3948 H   0  0  0  0  0  0  0  0  0  0  0  0
   58.6937   34.2039   45.8285 H   0  0  0  0  0  0  0  0  0  0  0  0
   57.9014   33.6619   47.3605 H   0  0  0  0  0  0  0  0  0  0  0  0
   60.0483   34.1733   48.1248 H   0  0  0  0  0  0  0  0  0  0  0  0
   60.9822   33.2858   45.3682 H   0  0  0  0  0  0  0  0  0  0  0  0
   61.1297   34.9000   46.1822 H   0  0  0  0  0  0  0  0  0  0  0  0
   63.5083   31.5552   46.7933 H   0  0  0  0  0  0  0  0  0  0  0  0
   63.1396   32.2153   48.4395 H   0  0  0  0  0  0  0  0  0  0  0  0
   61.1965   30.9636   46.4449 H   0  0  0  0  0  0  0  0  0  0  0  0
   61.6625   30.3668   48.0880 H   0  0  0  0  0  0  0  0  0  0  0  0
   60.6752   32.3193   49.1094 H   0  0  0  0  0  0  0  0  0  0  0  0
   58.4188   31.9512   48.9558 H   0  0  0  0  0  0  0  0  0  0  0  0
   59.8355   30.1832   50.0205 H   0  0  0  0  0  0  0  0  0  0  0  0
   58.1657   29.6638   49.5228 H   0  0  0  0  0  0  0  0  0  0  0  0
  1  2  1  0
  2  3  1  0
  3  4  1  0
  4  5  1  0
  5  6  1  0
  6  7  2  0
  7  8  1  0
  8  9  2  0
  9 10  1  0
 10 11  1  0
 11 12  1  0
 12 13  2  0
 12 14  1  0
 11 15  2  0
 15 16  1  0
 16 17  1  0
 17 18  1  0
 18 19  1  0
 19 20  1  0
 20 21  1  0
 21 22  2  0
 21 23  1  0
 23 24  1  0
 24 25  1  0
 25 26  1  0
 26 27  1  0
 27  6  1  0
 15  7  1  0
 26 16  1  0
 25 19  1  0
  1 28  1  0
  1 29  1  0
  1 30  1  0
  2 31  1  0
  2 32  1  0
  3 33  1  0
  3 34  1  0
  4 35  1  0
  4 36  1  0
  5 37  1  0
  5 38  1  0
  8 39  1  0
  9 40  1  0
 10 41  1  0
 10 42  1  0
 16 43  1  1
 17 44  1  0
 17 45  1  0
 18 46  1  0
 18 47  1  0
 19 48  1  1
 20 49  1  0
 20 50  1  0
 23 51  1  0
 23 52  1  0
 24 53  1  0
 24 54  1  0
 25 55  1  1
 26 56  1  1
 27 57  1  0
 27 58  1  0
M  CHG  1  14  -1
M  END
>  <UniqueID>  (83) 
75

>  <SMILES>  (83) 
CCCCCC1=C2C=CCC(C(=O)[O-])=C2[C@@H]2CC[C@@H]3CC(=O)CCC3C2C1

>  <Energy>  (83) 
78.73053857492059

>  <Genealogy>  (83) 
CCCCCC1=C2C=CCC(C(=O)[O-])=C2C2CCC3CC(=O)CCC3C2C1 (protonated)
CCCCCC1=C2C=CCC(C(=O)[O-])=C2[C@@H]2CC[C@@H]3CC(=O)CCC3C2C1 (chirality)
CCCCCC1=C2C=CCC(C(=O)[O-])=C2[C@@H]2CC[C@@H]3CC(=O)CCC3C2C1 (3D coordinates assigned)
CCCCCC1=C2C=CCC(C(=O)[O-])=C2[C@@H]2CC[C@@H]3CC(=O)CCC3C2C1 (nonaromatic ring conformer: 78.73053857492059 kcal/mol)

>  <smiles>  (83) 
CCCCCC1=C2C=CCC(C(=O)O)=C2C2CCC3CC(=O)CCC3C2C1

>  <score_type>  (83) 
oracle

>  <origin>  (83) 
adg

>  <m_score__min__energy>  (83) 
-11.43

>  <m_primary>  (83) 
energy

$$$$
83:0
     RDKit          3D

 39 41  0  0  0  0  0  0  0  0999 V2000
   63.7790   33.1190   47.5020 C   0  0  0  0  0  0  0  0  0  0  0  0
   62.4130   33.6220   47.4940 N   0  0  0  0  0  0  0  0  0  0  0  0
   61.5990   33.6660   46.4230 C   0  0  0  0  0  0  0  0  0  0  0  0
   60.3640   34.1040   46.8530 C   0  0  0  0  0  0  0  0  0  0  0  0
   59.1110   34.2260   46.0410 C   0  0  0  0  0  0  0  0  0  0  0  0
   58.5640   32.8920   45.7040 N   0  0  0  0  0  0  0  0  0  0  0  0
   58.3030   32.1190   46.9380 C   0  0  0  0  0  0  0  0  0  0  0  0
   58.9390   30.7560   46.8440 C   0  0  0  0  0  0  0  0  0  0  0  0
   59.5990   30.3460   45.6760 C   0  0  0  0  0  0  0  0  0  0  0  0
   60.1920   29.0830   45.6190 C   0  0  0  0  0  0  0  0  0  0  0  0
   60.1180   28.2410   46.7290 C   0  0  0  0  0  0  0  0  0  0  0  0
   59.4730   28.6510   47.8530 N   0  0  0  0  0  0  0  0  0  0  0  0
   58.8870   29.8750   47.9350 C   0  0  0  0  0  0  0  0  0  0  0  0
   57.3370   32.9940   44.8740 C   0  0  0  0  0  0  0  0  0  0  0  0
   57.0080   31.6640   44.2740 C   0  0  0  0  0  0  0  0  0  0  0  0
   57.4140   31.2150   43.0330 C   0  0  0  0  0  0  0  0  0  0  0  0
   56.8710   29.9560   42.9010 C   0  0  0  0  0  0  0  0  0  0  0  0
   56.1740   29.7130   44.0680 C   0  0  0  0  0  0  0  0  0  0  0  0
   56.2770   30.7490   44.8680 O   0  0  0  0  0  0  0  0  0  0  0  0
   60.4960   34.2930   48.2160 C   0  0  0  0  0  0  0  0  0  0  0  0
   61.7540   33.9840   48.5840 N   0  0  0  0  0  0  0  0  0  0  0  0
   64.1177   32.9943   48.5411 H   0  0  0  0  0  0  0  0  0  0  0  0
   63.8154   32.1485   46.9855 H   0  0  0  0  0  0  0  0  0  0  0  0
   64.4361   33.8341   46.9855 H   0  0  0  0  0  0  0  0  0  0  0  0
   61.8700   33.4004   45.3905 H   0  0  0  0  0  0  0  0  0  0  0  0
   58.3613   34.7865   46.6187 H   0  0  0  0  0  0  0  0  0  0  0  0
   59.3501   34.7528   45.1054 H   0  0  0  0  0  0  0  0  0  0  0  0
   58.7241   32.6576   47.7998 H   0  0  0  0  0  0  0  0  0  0  0  0
   57.2167   31.9998   47.0632 H   0  0  0  0  0  0  0  0  0  0  0  0
   59.6493   31.0181   44.8067 H   0  0  0  0  0  0  0  0  0  0  0  0
   60.7127   28.7550   44.7073 H   0  0  0  0  0  0  0  0  0  0  0  0
   60.5821   27.2443   46.6945 H   0  0  0  0  0  0  0  0  0  0  0  0
   58.3709   30.1755   48.8588 H   0  0  0  0  0  0  0  0  0  0  0  0
   56.4986   33.3259   45.5040 H   0  0  0  0  0  0  0  0  0  0  0  0
   57.5094   33.7199   44.0657 H   0  0  0  0  0  0  0  0  0  0  0  0
   58.0395   31.7501   42.3033 H   0  0  0  0  0  0  0  0  0  0  0  0
   56.9723   29.2800   42.0391 H   0  0  0  0  0  0  0  0  0  0  0  0
   55.6171   28.7915   44.2932 H   0  0  0  0  0  0  0  0  0  0  0  0
   59.7007   34.6403   48.8919 H   0  0  0  0  0  0  0  0  0  0  0  0
  1  2  1  0
  2  3  1  0
  3  4  2  0
  4  5  1  0
  5  6  1  0
  6  7  1  0
  7  8  1  0
  8  9  2  0
  9 10  1  0
 10 11  2  0
 11 12  1  0
 12 13  2  0
  6 14  1  0
 14 15  1  0
 15 16  2  0
 16 17  1  0
 17 18  2  0
 18 19  1  0
  4 20  1  0
 20 21  2  0
 21  2  1  0
 13  8  1  0
 19 15  1  0
  1 22  1  0
  1 23  1  0
  1 24  1  0
  3 25  1  0
  5 26  1  0
  5 27  1  0
  7 28  1  0
  7 29  1  0
  9 30  1  0
 10 31  1  0
 11 32  1  0
 13 33  1  0
 14 34  1  0
 14 35  1  0
 16 36  1  0
 17 37  1  0
 18 38  1  0
 20 39  1  0
M  END
>  <UniqueID>  (84) 
76

>  <SMILES>  (84) 
Cn1cc(CN(Cc2cccnc2)Cc2ccco2)cn1

>  <Energy>  (84) 
95.31853028329515

>  <Genealogy>  (84) 
Cn1cc(CN(Cc2cccnc2)Cc2ccco2)cn1 (3D coordinates assigned)
Cn1cc(CN(Cc2cccnc2)Cc2ccco2)cn1 (optimized conformer: 95.31853028329515 kcal/mol)

>  <smiles>  (84) 
Cn1cc(CN(Cc2cccnc2)Cc2ccco2)cn1

>  <score_type>  (84) 
oracle

>  <origin>  (84) 
adg

>  <m_score__min__energy>  (84) 
-6.4800000000000004

>  <m_primary>  (84) 
energy

$$$$
84:0
     RDKit          3D

 54 57  0  0  0  0  0  0  0  0999 V2000
   65.4130   32.7790   49.9790 C   0  0  0  0  0  0  0  0  0  0  0  0
   64.6980   32.0100   49.0180 O   0  0  0  0  0  0  0  0  0  0  0  0
   63.5050   32.4210   48.4030 C   0  0  0  0  0  0  0  0  0  0  0  0
   63.4730   33.4050   47.4000 C   0  0  0  0  0  0  0  0  0  0  0  0
   62.2590   33.7820   46.8170 C   0  0  0  0  0  0  0  0  0  0  0  0
   61.0500   33.1810   47.2200 C   0  0  0  0  0  0  0  0  0  0  0  0
   59.7880   33.5730   46.6220 N   0  0  0  0  0  0  0  0  0  0  0  0
   59.6430   34.9160   46.0320 C   0  0  0  0  0  0  0  0  0  0  0  0
   58.6200   34.9650   44.8730 C   0  0  0  0  0  0  0  0  0  0  0  0
   57.6550   33.8480   44.8710 N   0  0  0  0  0  0  0  0  0  0  0  0
   57.8680   32.8180   43.8260 C   0  0  0  0  0  0  0  0  0  0  0  0
   57.4990   31.4220   44.2500 C   0  0  0  0  0  0  0  0  0  0  0  0
   58.3920   30.4270   44.4360 N   0  0  0  0  0  0  0  0  0  0  0  0
   57.5810   29.4150   44.8130 C   0  0  0  0  0  0  0  0  0  0  0  0
   58.0730   28.0510   45.1800 C   0  0  0  0  0  0  0  0  0  0  0  0
   58.7930   28.1050   46.5000 C   0  0  0  0  0  0  0  0  0  0  0  0
   58.6400   29.2160   47.3450 C   0  0  0  0  0  0  0  0  0  0  0  0
   59.3400   29.2870   48.5540 C   0  0  0  0  0  0  0  0  0  0  0  0
   60.1990   28.2440   48.9350 C   0  0  0  0  0  0  0  0  0  0  0  0
   60.9820   28.3290   50.2130 C   0  0  0  0  0  0  0  0  0  0  0  0
   60.3730   27.1450   48.0790 C   0  0  0  0  0  0  0  0  0  0  0  0
   59.6750   27.0760   46.8690 C   0  0  0  0  0  0  0  0  0  0  0  0
   56.2840   29.7800   44.8720 N   0  0  0  0  0  0  0  0  0  0  0  0
   56.2760   31.0280   44.5160 O   0  0  0  0  0  0  0  0  0  0  0  0
   57.3480   33.3310   46.2130 C   0  0  0  0  0  0  0  0  0  0  0  0
   58.5910   32.7620   46.8980 C   0  0  0  0  0  0  0  0  0  0  0  0
   61.0930   32.2020   48.2320 C   0  0  0  0  0  0  0  0  0  0  0  0
   62.3080   31.8260   48.8100 C   0  0  0  0  0  0  0  0  0  0  0  0
   65.1204   32.4643   50.9916 H   0  0  0  0  0  0  0  0  0  0  0  0
   66.4933   32.6219   49.8440 H   0  0  0  0  0  0  0  0  0  0  0  0
   65.1778   33.8451   49.8440 H   0  0  0  0  0  0  0  0  0  0  0  0
   64.4085   33.8815   47.0716 H   0  0  0  0  0  0  0  0  0  0  0  0
   62.2479   34.5560   46.0355 H   0  0  0  0  0  0  0  0  0  0  0  0
   59.3130   35.6099   46.8192 H   0  0  0  0  0  0  0  0  0  0  0  0
   60.6217   35.1979   45.6164 H   0  0  0  0  0  0  0  0  0  0  0  0
   58.0572   35.9071   44.9490 H   0  0  0  0  0  0  0  0  0  0  0  0
   59.1960   34.8872   43.9391 H   0  0  0  0  0  0  0  0  0  0  0  0
   57.2587   33.0846   42.9499 H   0  0  0  0  0  0  0  0  0  0  0  0
   58.9463   32.8072   43.6086 H   0  0  0  0  0  0  0  0  0  0  0  0
   57.2178   27.3636   45.2587 H   0  0  0  0  0  0  0  0  0  0  0  0
   58.7659   27.6946   44.4036 H   0  0  0  0  0  0  0  0  0  0  0  0
   57.9658   30.0352   47.0546 H   0  0  0  0  0  0  0  0  0  0  0  0
   59.2170   30.1627   49.2082 H   0  0  0  0  0  0  0  0  0  0  0  0
   60.2955   28.2545   51.0693 H   0  0  0  0  0  0  0  0  0  0  0  0
   61.7090   27.5045   50.2531 H   0  0  0  0  0  0  0  0  0  0  0  0
   61.5152   29.2903   50.2531 H   0  0  0  0  0  0  0  0  0  0  0  0
   61.0613   26.3347   48.3612 H   0  0  0  0  0  0  0  0  0  0  0  0
   59.8174   26.2120   46.2033 H   0  0  0  0  0  0  0  0  0  0  0  0
   56.9460   34.1502   46.8272 H   0  0  0  0  0  0  0  0  0  0  0  0
   56.6127   32.5196   46.1079 H   0  0  0  0  0  0  0  0  0  0  0  0
   58.4195   32.7389   47.9843 H   0  0  0  0  0  0  0  0  0  0  0  0
   58.7655   31.7503   46.5031 H   0  0  0  0  0  0  0  0  0  0  0  0
   60.1598   31.7284   48.5708 H   0  0  0  0  0  0  0  0  0  0  0  0
   62.3225   31.0539   49.5933 H   0  0  0  0  0  0  0  0  0  0  0  0
  1  2  1  0
  2  3  1  0
  3  4  2  0
  4  5  1  0
  5  6  2  0
  6  7  1  0
  7  8  1  0
  8  9  1  0
  9 10  1  0
 10 11  1  0
 11 12  1  0
 12 13  2  0
 13 14  1  0
 14 15  1  0
 15 16  1  0
 16 17  2  0
 17 18  1  0
 18 19  2  0
 19 20  1  0
 19 21  1  0
 21 22  2  0
 14 23  2  0
 23 24  1  0
 10 25  1  0
 25 26  1  0
  6 27  1  0
 27 28  2  0
 28  3  1  0
 26  7  1  0
 24 12  1  0
 22 16  1  0
  1 29  1  0
  1 30  1  0
  1 31  1  0
  4 32  1  0
  5 33  1  0
  8 34  1  0
  8 35  1  0
  9 36  1  0
  9 37  1  0
 11 38  1  0
 11 39  1  0
 15 40  1  0
 15 41  1  0
 17 42  1  0
 18 43  1  0
 20 44  1  0
 20 45  1  0
 20 46  1  0
 21 47  1  0
 22 48  1  0
 25 49  1  0
 25 50  1  0
 26 51  1  0
 26 52  1  0
 27 53  1  0
 28 54  1  0
M  END
>  <UniqueID>  (85) 
77

>  <SMILES>  (85) 
COc1ccc(N2CCN(Cc3nc(Cc4ccc(C)cc4)no3)CC2)cc1

>  <Energy>  (85) 
100.04858765788903

>  <Genealogy>  (85) 
COc1ccc(N2CCN(Cc3nc(Cc4ccc(C)cc4)no3)CC2)cc1 (3D coordinates assigned)
COc1ccc(N2CCN(Cc3nc(Cc4ccc(C)cc4)no3)CC2)cc1 (nonaromatic ring conformer: 100.04858765788903 kcal/mol)

>  <smiles>  (85) 
COc1ccc(N2CCN(Cc3nc(Cc4ccc(C)cc4)no3)CC2)cc1

>  <score_type>  (85) 
oracle

>  <origin>  (85) 
adg

>  <m_score__min__energy>  (85) 
-9.4100000000000001

>  <m_primary>  (85) 
energy

$$$$
85:0
     RDKit          3D

 46 49  0  0  0  0  0  0  0  0999 V2000
   60.0315   34.4605   44.5830 H   0  0  0  0  0  0  0  0  0  0  0  0
   59.2030   33.7860   44.8450 C   0  0  0  0  0  0  0  0  0  0  0  0
   58.1370   33.0610   43.7600 S   0  0  0  0  0  0  0  0  0  0  0  0
   57.2870   32.2540   44.9740 C   0  0  0  0  0  0  0  0  0  0  0  0
   56.2400   31.4980   44.8100 N   0  0  0  0  0  0  0  0  0  0  0  0
   56.2480   30.1200   44.4150 C   0  0  0  0  0  0  0  0  0  0  0  0
   55.3600   29.3510   44.8680 O   0  0  0  0  0  0  0  0  0  0  0  0
   57.3630   29.5430   43.5830 C   0  0  0  0  0  0  0  0  0  0  0  0
   57.0850   28.5249   43.2728 H   0  0  0  0  0  0  0  0  0  0  0  0
   57.5110   30.1969   42.7110 H   0  0  0  0  0  0  0  0  0  0  0  0
   58.6870   29.4810   44.3620 C   0  0  0  0  0  0  0  0  0  0  0  0
   59.5074   29.7081   43.6653 H   0  0  0  0  0  0  0  0  0  0  0  0
   58.6053   30.2120   45.1799 H   0  0  0  0  0  0  0  0  0  0  0  0
   58.9750   28.1160   45.0180 C   0  0  0  0  0  0  0  0  0  0  0  0
   58.1240   27.8640   45.6679 H   0  0  0  0  0  0  0  0  0  0  0  0
   59.1216   27.4042   44.1923 H   0  0  0  0  0  0  0  0  0  0  0  0
   60.2600   28.0570   45.8690 C   0  0  0  0  0  0  0  0  0  0  0  0
   59.9807   27.7938   46.8999 H   0  0  0  0  0  0  0  0  0  0  0  0
   60.9163   27.3066   45.4040 H   0  0  0  0  0  0  0  0  0  0  0  0
   61.0460   29.3760   45.9030 C   0  0  0  0  0  0  0  0  0  0  0  0
   62.1174   29.1575   45.7833 H   0  0  0  0  0  0  0  0  0  0  0  0
   60.6846   30.0159   45.0845 H   0  0  0  0  0  0  0  0  0  0  0  0
   60.8430   30.0850   47.1660 N   0  0  0  0  0  0  0  0  0  0  0  0
   61.5300   31.2840   47.5720 C   0  0  0  0  0  0  0  0  0  0  0  0
   62.7780   31.7330   47.1150 C   0  0  0  0  0  0  0  0  0  0  0  0
   63.3367   31.1582   46.3617 H   0  0  0  0  0  0  0  0  0  0  0  0
   63.3050   32.9320   47.6360 C   0  0  0  0  0  0  0  0  0  0  0  0
   64.2817   33.2947   47.2830 H   0  0  0  0  0  0  0  0  0  0  0  0
   62.5950   33.6730   48.6050 C   0  0  0  0  0  0  0  0  0  0  0  0
   63.0165   34.6083   49.0019 H   0  0  0  0  0  0  0  0  0  0  0  0
   61.3490   33.2130   49.0610 C   0  0  0  0  0  0  0  0  0  0  0  0
   60.5740   33.8860   50.0240 C   0  0  0  0  0  0  0  0  0  0  0  0
   60.9366   34.8265   50.4644 H   0  0  0  0  0  0  0  0  0  0  0  0
   59.3280   33.3500   50.4240 C   0  0  0  0  0  0  0  0  0  0  0  0
   58.7248   33.8772   51.1778 H   0  0  0  0  0  0  0  0  0  0  0  0
   58.8520   32.1470   49.8660 C   0  0  0  0  0  0  0  0  0  0  0  0
   57.8827   31.7271   50.1727 H   0  0  0  0  0  0  0  0  0  0  0  0
   59.6420   31.5030   48.9150 C   0  0  0  0  0  0  0  0  0  0  0  0
   60.8530   32.0230   48.5290 C   0  0  0  0  0  0  0  0  0  0  0  0
   59.3470   30.0280   48.0470 S   0  0  0  0  0  0  0  0  0  0  0  0
   58.1590   30.1310   47.1350 O   0  0  0  0  0  0  0  0  0  0  0  0
   59.2760   28.8310   48.9510 O   0  0  0  0  0  0  0  0  0  0  0  0
   57.7890   32.5400   46.1930 N   0  0  0  0  0  0  0  0  0  0  0  0
   57.4060   32.1610   47.0880 H   0  0  0  0  0  0  0  0  0  0  0  0
   58.8530   33.3830   46.1300 C   0  0  0  0  0  0  0  0  0  0  0  0
   59.3955   33.7206   47.0254 H   0  0  0  0  0  0  0  0  0  0  0  0
  1  2  1  0
  2  3  1  0
  3  4  1  0
  4  5  2  0
  5  6  1  0
  6  7  2  0
  6  8  1  0
  8  9  1  0
  8 10  1  0
  8 11  1  0
 11 12  1  0
 11 13  1  0
 11 14  1  0
 14 15  1  0
 14 16  1  0
 14 17  1  0
 17 18  1  0
 17 19  1  0
 17 20  1  0
 20 21  1  0
 20 22  1  0
 20 23  1  0
 23 24  1  0
 24 25  2  0
 25 26  1  0
 25 27  1  0
 27 28  1  0
 27 29  2  0
 29 30  1  0
 29 31  1  0
 31 32  2  0
 32 33  1  0
 32 34  1  0
 34 35  1  0
 34 36  2  0
 36 37  1  0
 36 38  1  0
 38 39  2  0
 38 40  1  0
 40 41  2  0
 40 42  2  0
  4 43  1  0
 43 44  1  0
 43 45  1  0
 45 46  1  0
 45  2  2  0
 40 23  1  0
 39 24  1  0
 39 31  1  0
M  END
>  <UniqueID>  (86) 
78

>  <SMILES>  (86) 
O=C(CCCCCN1c2cccc3cccc(c23)S1(=O)=O)/N=c1/[nH]ccs1

>  <Energy>  (86) 
109.28057618634227

>  <Genealogy>  (86) 
O=C(CCCCCN1c2cccc3cccc(c23)S1(=O)=O)/N=c1/[nH]ccs1 (cis-trans isomerization)
O=C(CCCCCN1c2cccc3cccc(c23)S1(=O)=O)/N=c1/[nH]ccs1 (3D coordinates assigned)
O=C(CCCCCN1c2cccc3cccc(c23)S1(=O)=O)/N=c1/[nH]ccs1 (nonaromatic ring conformer: 109.28057618634227 kcal/mol)

>  <smiles>  (86) 
O=C(CCCCCN1c2cccc3cccc(c23)S1(=O)=O)N=c1[nH]ccs1

>  <score_type>  (86) 
oracle

>  <origin>  (86) 
adg

>  <m_score__min__energy>  (86) 
-9.4900000000000002

>  <m_primary>  (86) 
energy

$$$$
86:0
     RDKit          3D

 40 42  0  0  0  0  0  0  0  0999 V2000
   55.4100   25.2330   45.7800 C   0  0  0  0  0  0  0  0  0  0  0  0
   55.5270   26.6350   45.9970 O   0  0  0  0  0  0  0  0  0  0  0  0
   56.6440   27.4020   45.6320 C   0  0  0  0  0  0  0  0  0  0  0  0
   57.9650   26.9840   45.8910 C   0  0  0  0  0  0  0  0  0  0  0  0
   59.0440   27.7830   45.5020 C   0  0  0  0  0  0  0  0  0  0  0  0
   58.8190   29.0020   44.8580 C   0  0  0  0  0  0  0  0  0  0  0  0
   57.5110   29.4290   44.5980 C   0  0  0  0  0  0  0  0  0  0  0  0
   57.2460   30.9600   43.7700 S   0  0  0  0  0  0  0  0  0  0  0  0
   58.5230   31.4690   43.1630 O   0  0  0  0  0  0  0  0  0  0  0  0
   56.2360   30.7570   42.6770 O   0  0  0  0  0  0  0  0  0  0  0  0
   56.6450   32.1310   44.8940 N   0  0  0  0  0  0  0  0  0  0  0  0
   57.4830   32.7530   45.8710 C   0  0  0  0  0  0  0  0  0  0  0  0
   56.9690   33.4230   46.8090 O   0  0  0  0  0  0  0  0  0  0  0  0
   58.9070   32.6430   45.7470 N   0  0  0  0  0  0  0  0  0  0  0  0
   59.8410   33.0690   46.7540 C   0  0  0  0  0  0  0  0  0  0  0  0
   59.4930   34.1250   47.6100 C   0  0  0  0  0  0  0  0  0  0  0  0
   60.3850   34.5750   48.5860 C   0  0  0  0  0  0  0  0  0  0  0  0
   61.6490   33.9820   48.7090 C   0  0  0  0  0  0  0  0  0  0  0  0
   62.5620   34.4200   49.6790 C   0  0  0  0  0  0  0  0  0  0  0  0
   63.7900   33.8380   49.7730 N   0  0  0  0  0  0  0  0  0  0  0  0
   64.1660   32.8280   48.9420 C   0  0  0  0  0  0  0  0  0  0  0  0
   63.2920   32.3580   47.9610 C   0  0  0  0  0  0  0  0  0  0  0  0
   62.0200   32.9340   47.8390 C   0  0  0  0  0  0  0  0  0  0  0  0
   61.1180   32.4870   46.8620 C   0  0  0  0  0  0  0  0  0  0  0  0
   56.4280   28.6260   44.9870 C   0  0  0  0  0  0  0  0  0  0  0  0
   55.3667   24.7143   46.7491 H   0  0  0  0  0  0  0  0  0  0  0  0
   54.4914   25.0253   45.2116 H   0  0  0  0  0  0  0  0  0  0  0  0
   56.2815   24.8760   45.2116 H   0  0  0  0  0  0  0  0  0  0  0  0
   58.1473   26.0264   46.4006 H   0  0  0  0  0  0  0  0  0  0  0  0
   60.0731   27.4509   45.7036 H   0  0  0  0  0  0  0  0  0  0  0  0
   59.6712   29.6278   44.5545 H   0  0  0  0  0  0  0  0  0  0  0  0
   59.2840   32.3150   44.8290 H   0  0  0  0  0  0  0  0  0  0  0  0
   58.5074   34.6034   47.5113 H   0  0  0  0  0  0  0  0  0  0  0  0
   60.0952   35.3956   49.2588 H   0  0  0  0  0  0  0  0  0  0  0  0
   62.2862   35.2346   50.3649 H   0  0  0  0  0  0  0  0  0  0  0  0
   64.4580   34.1750   50.5020 H   0  0  0  0  0  0  0  0  0  0  0  0
   65.1651   32.3793   49.0443 H   0  0  0  0  0  0  0  0  0  0  0  0
   63.5986   31.5426   47.2893 H   0  0  0  0  0  0  0  0  0  0  0  0
   61.4102   31.6776   46.1768 H   0  0  0  0  0  0  0  0  0  0  0  0
   55.4002   28.9610   44.7835 H   0  0  0  0  0  0  0  0  0  0  0  0
  1  2  1  0
  2  3  1  0
  3  4  2  0
  4  5  1  0
  5  6  2  0
  6  7  1  0
  7  8  1  0
  8  9  2  0
  8 10  2  0
  8 11  1  0
 11 12  1  0
 12 13  2  0
 12 14  1  0
 14 15  1  0
 15 16  2  0
 16 17  1  0
 17 18  2  0
 18 19  1  0
 19 20  2  0
 20 21  1  0
 21 22  2  0
 22 23  1  0
 23 24  2  0
  7 25  2  0
 25  3  1  0
 24 15  1  0
 23 18  1  0
  1 26  1  0
  1 27  1  0
  1 28  1  0
  4 29  1  0
  5 30  1  0
  6 31  1  0
 14 32  1  0
 16 33  1  0
 17 34  1  0
 19 35  1  0
 20 36  1  0
 21 37  1  0
 22 38  1  0
 24 39  1  0
 25 40  1  0
M  CHG  2  11  -1  20   1
M  END
>  <UniqueID>  (87) 
79

>  <SMILES>  (87) 
COc1cccc(S(=O)(=O)[N-]C(=O)Nc2ccc3c[nH+]ccc3c2)c1

>  <Energy>  (87) 
49.997020845119366

>  <Genealogy>  (87) 
COc1cccc(S(=O)(=O)[N-]C(=O)Nc2ccc3c[nH+]ccc3c2)c1 (protonated)
COc1cccc(S(=O)(=O)[N-]C(=O)Nc2ccc3c[nH+]ccc3c2)c1 (3D coordinates assigned)
COc1cccc(S(=O)(=O)[N-]C(=O)Nc2ccc3c[nH+]ccc3c2)c1 (optimized conformer: 49.997020845119366 kcal/mol)

>  <smiles>  (87) 
COc1cccc(S(=O)(=O)NC(=O)Nc2ccc3cnccc3c2)c1

>  <score_type>  (87) 
oracle

>  <origin>  (87) 
adg

>  <m_score__min__energy>  (87) 
-8.7100000000000009

>  <m_primary>  (87) 
energy

$$$$
87:0
     RDKit          3D

 35 37  0  0  0  0  0  0  0  0999 V2000
   54.8790   24.4590   45.2830 C   0  0  0  0  0  0  0  0  0  0  0  0
   55.5200   25.2590   46.2710 O   0  0  0  0  0  0  0  0  0  0  0  0
   56.6860   26.0100   46.0540 C   0  0  0  0  0  0  0  0  0  0  0  0
   56.6670   27.4180   46.0010 C   0  0  0  0  0  0  0  0  0  0  0  0
   57.8520   28.1400   45.7890 C   0  0  0  0  0  0  0  0  0  0  0  0
   57.8270   29.6200   45.7360 C   0  0  0  0  0  0  0  0  0  0  0  0
   56.9970   30.3060   44.8190 C   0  0  0  0  0  0  0  0  0  0  0  0
   56.0910   29.5780   43.8690 C   0  0  0  0  0  0  0  0  0  0  0  0
   57.0090   31.6660   44.7840 N   0  0  0  0  0  0  0  0  0  0  0  0
   57.7850   32.4090   45.6140 C   0  0  0  0  0  0  0  0  0  0  0  0
   57.7520   33.8060   45.5320 C   0  0  0  0  0  0  0  0  0  0  0  0
   58.5450   34.5780   46.3840 C   0  0  0  0  0  0  0  0  0  0  0  0
   59.3750   33.9590   47.3220 C   0  0  0  0  0  0  0  0  0  0  0  0
   60.1430   34.7120   48.1470 F   0  0  0  0  0  0  0  0  0  0  0  0
   59.4170   32.5630   47.4120 C   0  0  0  0  0  0  0  0  0  0  0  0
   58.6210   31.7740   46.5590 C   0  0  0  0  0  0  0  0  0  0  0  0
   58.6380   30.3690   46.6130 C   0  0  0  0  0  0  0  0  0  0  0  0
   59.3860   29.7750   47.4400 O   0  0  0  0  0  0  0  0  0  0  0  0
   59.0590   27.4510   45.6140 C   0  0  0  0  0  0  0  0  0  0  0  0
   59.0850   26.0560   45.6610 C   0  0  0  0  0  0  0  0  0  0  0  0
   57.9080   25.3320   45.8820 C   0  0  0  0  0  0  0  0  0  0  0  0
   57.9720   23.9400   45.9270 O   0  0  0  0  0  0  0  0  0  0  0  0
   54.2639   23.6913   45.7753 H   0  0  0  0  0  0  0  0  0  0  0  0
   54.2380   25.0954   44.6552 H   0  0  0  0  0  0  0  0  0  0  0  0
   55.6398   23.9722   44.6552 H   0  0  0  0  0  0  0  0  0  0  0  0
   55.7157   27.9558   46.1268 H   0  0  0  0  0  0  0  0  0  0  0  0
   55.3581   28.9891   44.4399 H   0  0  0  0  0  0  0  0  0  0  0  0
   55.5629   30.3059   43.2355 H   0  0  0  0  0  0  0  0  0  0  0  0
   56.6881   28.9056   43.2355 H   0  0  0  0  0  0  0  0  0  0  0  0
   57.0999   34.2970   44.7947 H   0  0  0  0  0  0  0  0  0  0  0  0
   58.5160   35.6755   46.3164 H   0  0  0  0  0  0  0  0  0  0  0  0
   60.0736   32.0806   48.1511 H   0  0  0  0  0  0  0  0  0  0  0  0
   59.9895   28.0110   45.4390 H   0  0  0  0  0  0  0  0  0  0  0  0
   60.0370   25.5224   45.5234 H   0  0  0  0  0  0  0  0  0  0  0  0
   57.1480   23.3650   46.0510 H   0  0  0  0  0  0  0  0  0  0  0  0
  1  2  1  0
  2  3  1  0
  3  4  2  0
  4  5  1  0
  5  6  1  0
  6  7  2  0
  7  8  1  0
  7  9  1  0
  9 10  1  0
 10 11  2  0
 11 12  1  0
 12 13  2  0
 13 14  1  0
 13 15  1  0
 15 16  2  0
 16 17  1  0
 17 18  2  0
  5 19  2  0
 19 20  1  0
 20 21  2  0
 21 22  1  0
 21  3  1  0
 17  6  1  0
 16 10  1  0
  1 23  1  0
  1 24  1  0
  1 25  1  0
  4 26  1  0
  8 27  1  0
  8 28  1  0
  8 29  1  0
 11 30  1  0
 12 31  1  0
 15 32  1  0
 19 33  1  0
 20 34  1  0
 22 35  1  0
M  CHG  1   9  -1
M  END
>  <UniqueID>  (88) 
80

>  <SMILES>  (88) 
COc1cc(-c2c(C)[n-]c3ccc(F)cc3c2=O)ccc1O

>  <Energy>  (88) 
49.43597263528024

>  <Genealogy>  (88) 
COc1cc(-c2c(C)[n-]c3ccc(F)cc3c2=O)ccc1O (protonated)
COc1cc(-c2c(C)[n-]c3ccc(F)cc3c2=O)ccc1O (3D coordinates assigned)
COc1cc(-c2c(C)[n-]c3ccc(F)cc3c2=O)ccc1O (optimized conformer: 49.43597263528024 kcal/mol)

>  <smiles>  (88) 
COc1cc(-c2c(C)[nH]c3ccc(F)cc3c2=O)ccc1O

>  <score_type>  (88) 
oracle

>  <origin>  (88) 
adg

>  <m_score__min__energy>  (88) 
-7.6699999999999999

>  <m_primary>  (88) 
energy

$$$$
88:0
     RDKit          3D

 26 28  0  0  0  0  0  0  0  0999 V2000
   54.0680   28.9660   44.4780 H   0  0  0  0  0  0  0  0  0  0  0  0
   54.8790   29.3480   43.9420 N   0  0  0  0  0  0  0  0  0  0  0  0
   56.0370   29.5060   44.4980 C   0  0  0  0  0  0  0  0  0  0  0  0
   56.5660   30.7320   44.7430 N   0  0  0  0  0  0  0  0  0  0  0  0
   57.7450   30.4250   45.3120 C   0  0  0  0  0  0  0  0  0  0  0  0
   58.7190   31.3050   45.7770 C   0  0  0  0  0  0  0  0  0  0  0  0
   58.5799   32.3935   45.7007 H   0  0  0  0  0  0  0  0  0  0  0  0
   59.8940   30.7600   46.3510 C   0  0  0  0  0  0  0  0  0  0  0  0
   60.9630   31.6560   46.8620 C   0  0  0  0  0  0  0  0  0  0  0  0
   60.8340   33.0540   46.7630 C   0  0  0  0  0  0  0  0  0  0  0  0
   59.9340   33.4880   46.3029 H   0  0  0  0  0  0  0  0  0  0  0  0
   61.8410   33.8950   47.2450 C   0  0  0  0  0  0  0  0  0  0  0  0
   61.7312   34.9864   47.1621 H   0  0  0  0  0  0  0  0  0  0  0  0
   62.9870   33.3520   47.8320 C   0  0  0  0  0  0  0  0  0  0  0  0
   63.7786   34.0151   48.2109 H   0  0  0  0  0  0  0  0  0  0  0  0
   63.1260   31.9660   47.9370 C   0  0  0  0  0  0  0  0  0  0  0  0
   64.0280   31.5388   48.3995 H   0  0  0  0  0  0  0  0  0  0  0  0
   62.1220   31.1200   47.4560 C   0  0  0  0  0  0  0  0  0  0  0  0
   62.2381   30.0295   47.5420 H   0  0  0  0  0  0  0  0  0  0  0  0
   60.0390   29.3470   46.4320 C   0  0  0  0  0  0  0  0  0  0  0  0
   60.9497   28.9193   46.8766 H   0  0  0  0  0  0  0  0  0  0  0  0
   59.0330   28.4900   45.9510 C   0  0  0  0  0  0  0  0  0  0  0  0
   59.1399   27.3968   46.0104 H   0  0  0  0  0  0  0  0  0  0  0  0
   57.8990   29.0730   45.3980 C   0  0  0  0  0  0  0  0  0  0  0  0
   56.8210   28.4690   44.8830 N   0  0  0  0  0  0  0  0  0  0  0  0
   56.6310   27.4450   44.8000 H   0  0  0  0  0  0  0  0  0  0  0  0
  1  2  1  0
  2  3  2  0
  3  4  1  0
  4  5  1  0
  5  6  2  0
  6  7  1  0
  6  8  1  0
  8  9  1  0
  9 10  2  0
 10 11  1  0
 10 12  1  0
 12 13  1  0
 12 14  2  0
 14 15  1  0
 14 16  1  0
 16 17  1  0
 16 18  2  0
 18 19  1  0
  8 20  2  0
 20 21  1  0
 20 22  1  0
 22 23  1  0
 22 24  2  0
 24 25  1  0
 25 26  1  0
 25  3  1  0
 24  5  1  0
 18  9  1  0
M  CHG  1   4  -1
M  END
>  <UniqueID>  (89) 
81

>  <SMILES>  (89) 
[H]/N=c1/[n-]c2cc(-c3ccccc3)ccc2[nH]1

>  <Energy>  (89) 
70.55530355015162

>  <Genealogy>  (89) 
N=c1[n-]c2cc(-c3ccccc3)ccc2[nH]1 (protonated)
[H]/N=c1/[n-]c2cc(-c3ccccc3)ccc2[nH]1 (cis-trans isomerization)
[H]/N=c1/[n-]c2cc(-c3ccccc3)ccc2[nH]1 (3D coordinates assigned)
[H]/N=c1/[n-]c2cc(-c3ccccc3)ccc2[nH]1 (optimized conformer: 70.55530355015162 kcal/mol)

>  <smiles>  (89) 
N=c1[nH]c2ccc(-c3ccccc3)cc2[nH]1

>  <score_type>  (89) 
oracle

>  <origin>  (89) 
adg

>  <m_score__min__energy>  (89) 
-8.4900000000000002

>  <m_primary>  (89) 
energy

$$$$
89:0
     RDKit          3D

 47 48  0  0  0  0  0  0  0  0999 V2000
   55.1450   28.0520   44.9920 H   0  0  0  0  0  0  0  0  0  0  0  0
   55.5320   28.9800   44.8720 O   0  0  0  0  0  0  0  0  0  0  0  0
   56.6270   29.3760   45.6050 N   0  0  0  0  0  0  0  0  0  0  0  0
   56.6330   30.3420   46.0030 H   0  0  0  0  0  0  0  0  0  0  0  0
   57.6250   28.5640   45.8020 C   0  0  0  0  0  0  0  0  0  0  0  0
   58.5170   28.7360   46.9810 C   0  0  0  0  0  0  0  0  0  0  0  0
   58.6950   29.9880   47.6220 C   0  0  0  0  0  0  0  0  0  0  0  0
   58.1250   31.1620   47.1170 O   0  0  0  0  0  0  0  0  0  0  0  0
   58.8540   32.3300   46.8590 C   0  0  0  0  0  0  0  0  0  0  0  0
   58.2290   33.5070   46.4120 C   0  0  0  0  0  0  0  0  0  0  0  0
   57.1432   33.5191   46.2365 H   0  0  0  0  0  0  0  0  0  0  0  0
   58.9840   34.6620   46.1900 C   0  0  0  0  0  0  0  0  0  0  0  0
   58.4888   35.5855   45.8555 H   0  0  0  0  0  0  0  0  0  0  0  0
   60.3660   34.6460   46.3920 C   0  0  0  0  0  0  0  0  0  0  0  0
   60.9541   35.5617   46.2317 H   0  0  0  0  0  0  0  0  0  0  0  0
   61.0070   33.4650   46.7990 C   0  0  0  0  0  0  0  0  0  0  0  0
   62.4880   33.4590   47.0390 C   0  0  0  0  0  0  0  0  0  0  0  0
   62.6840   33.4582   48.1214 H   0  0  0  0  0  0  0  0  0  0  0  0
   62.9293   32.5591   46.5858 H   0  0  0  0  0  0  0  0  0  0  0  0
   62.9365   34.3553   46.5858 H   0  0  0  0  0  0  0  0  0  0  0  0
   60.2430   32.3120   47.0380 C   0  0  0  0  0  0  0  0  0  0  0  0
   60.7389   31.3874   47.3684 H   0  0  0  0  0  0  0  0  0  0  0  0
   59.4420   30.0680   48.7560 N   0  0  0  0  0  0  0  0  0  0  0  0
   60.0660   28.9860   49.2930 C   0  0  0  0  0  0  0  0  0  0  0  0
   60.8950   29.1420   50.5270 C   0  0  0  0  0  0  0  0  0  0  0  0
   60.2570   29.0219   51.4150 H   0  0  0  0  0  0  0  0  0  0  0  0
   61.6852   28.3768   50.5371 H   0  0  0  0  0  0  0  0  0  0  0  0
   61.3530   30.1421   50.5371 H   0  0  0  0  0  0  0  0  0  0  0  0
   59.9670   27.7440   48.6600 C   0  0  0  0  0  0  0  0  0  0  0  0
   60.4975   26.8703   49.0664 H   0  0  0  0  0  0  0  0  0  0  0  0
   59.1900   27.6220   47.5090 C   0  0  0  0  0  0  0  0  0  0  0  0
   59.1033   26.6454   47.0103 H   0  0  0  0  0  0  0  0  0  0  0  0
   57.8240   27.4480   44.9140 N   0  0  0  0  0  0  0  0  0  0  0  0
   58.8430   27.5420   43.8630 C   0  0  0  0  0  0  0  0  0  0  0  0
   58.3867   27.9657   42.9562 H   0  0  0  0  0  0  0  0  0  0  0  0
   59.2339   26.5336   43.6621 H   0  0  0  0  0  0  0  0  0  0  0  0
   59.9980   28.4320   44.3020 C   0  0  0  0  0  0  0  0  0  0  0  0
   60.0393   28.4638   45.4008 H   0  0  0  0  0  0  0  0  0  0  0  0
   60.9427   28.0261   43.9112 H   0  0  0  0  0  0  0  0  0  0  0  0
   59.8463   29.4490   43.9112 H   0  0  0  0  0  0  0  0  0  0  0  0
   57.0720   26.2040   45.1290 C   0  0  0  0  0  0  0  0  0  0  0  0
   56.3709   26.3512   45.9638 H   0  0  0  0  0  0  0  0  0  0  0  0
   56.5345   25.9638   44.1998 H   0  0  0  0  0  0  0  0  0  0  0  0
   57.9970   25.0330   45.4600 C   0  0  0  0  0  0  0  0  0  0  0  0
   58.0797   24.9283   46.5519 H   0  0  0  0  0  0  0  0  0  0  0  0
   57.5837   24.1073   45.0332 H   0  0  0  0  0  0  0  0  0  0  0  0
   58.9933   25.2207   45.0332 H   0  0  0  0  0  0  0  0  0  0  0  0
  1  2  1  0
  2  3  1  0
  3  4  1  0
  3  5  2  0
  5  6  1  0
  6  7  2  0
  7  8  1  0
  8  9  1  0
  9 10  2  0
 10 11  1  0
 10 12  1  0
 12 13  1  0
 12 14  2  0
 14 15  1  0
 14 16  1  0
 16 17  1  0
 17 18  1  0
 17 19  1  0
 17 20  1  0
 16 21  2  0
 21 22  1  0
  7 23  1  0
 23 24  2  0
 24 25  1  0
 25 26  1  0
 25 27  1  0
 25 28  1  0
 24 29  1  0
 29 30  1  0
 29 31  2  0
 31 32  1  0
  5 33  1  0
 33 34  1  0
 34 35  1  0
 34 36  1  0
 34 37  1  0
 37 38  1  0
 37 39  1  0
 37 40  1  0
 33 41  1  0
 41 42  1  0
 41 43  1  0
 41 44  1  0
 44 45  1  0
 44 46  1  0
 44 47  1  0
 31  6  1  0
 21  9  1  0
M  CHG  1   3   1
M  END
>  <UniqueID>  (90) 
82

>  <SMILES>  (90) 
CCN(CC)/C(=[NH+]\O)c1ccc(C)nc1Oc1cccc(C)c1

>  <Energy>  (90) 
55.00662116289125

>  <Genealogy>  (90) 
CCN(CC)C(=[NH+]O)c1ccc(C)nc1Oc1cccc(C)c1 (protonated)
CCN(CC)/C(=[NH+]\O)c1ccc(C)nc1Oc1cccc(C)c1 (cis-trans isomerization)
CCN(CC)/C(=[NH+]\O)c1ccc(C)nc1Oc1cccc(C)c1 (3D coordinates assigned)
CCN(CC)/C(=[NH+]\O)c1ccc(C)nc1Oc1cccc(C)c1 (optimized conformer: 55.00662116289125 kcal/mol)

>  <smiles>  (90) 
CCN(CC)C(=NO)c1ccc(C)nc1Oc1cccc(C)c1

>  <score_type>  (90) 
oracle

>  <origin>  (90) 
adg

>  <m_score__min__energy>  (90) 
-6.0899999999999999

>  <m_primary>  (90) 
energy

$$$$
90:0
     RDKit          3D

 49 51  0  0  0  0  0  0  0  0999 V2000
   58.0700   34.2760   44.8720 C   0  0  0  0  0  0  0  0  0  0  0  0
   59.2810   34.8830   45.2120 C   0  0  0  0  0  0  0  0  0  0  0  0
   59.7450   34.8320   46.5300 C   0  0  0  0  0  0  0  0  0  0  0  0
   58.9910   34.1810   47.5210 C   0  0  0  0  0  0  0  0  0  0  0  0
   59.5070   34.0960   48.9340 C   0  0  0  0  0  0  0  0  0  0  0  0
   61.0350   33.9520   48.9430 C   0  0  0  0  0  0  0  0  0  0  0  0
   61.4450   32.5450   48.7350 N   0  0  0  0  0  0  0  0  0  0  0  0
   60.3840   31.6000   49.1690 C   0  0  0  0  0  0  0  0  0  0  0  0
   59.4820   31.1620   48.0000 C   0  0  0  0  0  0  0  0  0  0  0  0
   60.2530   30.5110   46.9030 N   0  0  0  0  0  0  0  0  0  0  0  0
   60.0170   29.0480   46.8000 C   0  0  0  0  0  0  0  0  0  0  0  0
   59.6600   28.5420   45.3840 C   0  0  0  0  0  0  0  0  0  0  0  0
   58.3990   29.2070   44.9010 C   0  0  0  0  0  0  0  0  0  0  0  0
   58.4640   30.3970   44.1550 C   0  0  0  0  0  0  0  0  0  0  0  0
   57.2910   31.0300   43.7360 C   0  0  0  0  0  0  0  0  0  0  0  0
   56.0450   30.4890   44.0640 C   0  0  0  0  0  0  0  0  0  0  0  0
   55.9720   29.3130   44.8170 C   0  0  0  0  0  0  0  0  0  0  0  0
   57.1430   28.6760   45.2400 C   0  0  0  0  0  0  0  0  0  0  0  0
   61.6980   30.8520   46.9060 C   0  0  0  0  0  0  0  0  0  0  0  0
   61.9100   32.3070   47.3430 C   0  0  0  0  0  0  0  0  0  0  0  0
   57.7800   33.5620   47.1680 C   0  0  0  0  0  0  0  0  0  0  0  0
   57.3200   33.6150   45.8490 C   0  0  0  0  0  0  0  0  0  0  0  0
   57.7062   34.3181   43.8348 H   0  0  0  0  0  0  0  0  0  0  0  0
   59.8706   35.4019   44.4418 H   0  0  0  0  0  0  0  0  0  0  0  0
   60.7038   35.3032   46.7920 H   0  0  0  0  0  0  0  0  0  0  0  0
   59.2268   35.0108   49.4769 H   0  0  0  0  0  0  0  0  0  0  0  0
   59.0647   33.2143   49.4208 H   0  0  0  0  0  0  0  0  0  0  0  0
   61.4578   34.5709   48.1379 H   0  0  0  0  0  0  0  0  0  0  0  0
   61.4084   34.2805   49.9242 H   0  0  0  0  0  0  0  0  0  0  0  0
   60.8597   30.7081   49.6029 H   0  0  0  0  0  0  0  0  0  0  0  0
   59.7531   32.1163   49.9075 H   0  0  0  0  0  0  0  0  0  0  0  0
   58.7344   30.4492   48.3781 H   0  0  0  0  0  0  0  0  0  0  0  0
   59.0054   32.0633   47.5871 H   0  0  0  0  0  0  0  0  0  0  0  0
   59.8720   30.9090   46.0090 H   0  0  0  0  0  0  0  0  0  0  0  0
   60.9314   28.5310   47.1266 H   0  0  0  0  0  0  0  0  0  0  0  0
   59.1435   28.8323   47.4328 H   0  0  0  0  0  0  0  0  0  0  0  0
   60.4836   28.7789   44.6944 H   0  0  0  0  0  0  0  0  0  0  0  0
   59.5031   27.4538   45.4189 H   0  0  0  0  0  0  0  0  0  0  0  0
   59.4420   30.8313   43.9003 H   0  0  0  0  0  0  0  0  0  0  0  0
   57.3485   31.9568   43.1463 H   0  0  0  0  0  0  0  0  0  0  0  0
   55.1230   30.9875   43.7303 H   0  0  0  0  0  0  0  0  0  0  0  0
   54.9914   28.8880   45.0772 H   0  0  0  0  0  0  0  0  0  0  0  0
   57.0806   27.7562   45.8401 H   0  0  0  0  0  0  0  0  0  0  0  0
   62.2252   30.1848   47.6038 H   0  0  0  0  0  0  0  0  0  0  0  0
   62.0933   30.7272   45.8871 H   0  0  0  0  0  0  0  0  0  0  0  0
   62.9826   32.5433   47.2818 H   0  0  0  0  0  0  0  0  0  0  0  0
   61.3212   32.9515   46.6737 H   0  0  0  0  0  0  0  0  0  0  0  0
   57.1916   33.0336   47.9326 H   0  0  0  0  0  0  0  0  0  0  0  0
   56.3670   33.1361   45.5797 H   0  0  0  0  0  0  0  0  0  0  0  0
  1  2  2  0
  2  3  1  0
  3  4  2  0
  4  5  1  0
  5  6  1  0
  6  7  1  0
  7  8  1  0
  8  9  1  0
  9 10  1  0
 10 11  1  0
 11 12  1  0
 12 13  1  0
 13 14  2  0
 14 15  1  0
 15 16  2  0
 16 17  1  0
 17 18  2  0
 10 19  1  0
 19 20  1  0
  4 21  1  0
 21 22  2  0
 22  1  1  0
 20  7  1  0
 18 13  1  0
  1 23  1  0
  2 24  1  0
  3 25  1  0
  5 26  1  0
  5 27  1  0
  6 28  1  0
  6 29  1  0
  8 30  1  0
  8 31  1  0
  9 32  1  0
  9 33  1  0
 10 34  1  0
 11 35  1  0
 11 36  1  0
 12 37  1  0
 12 38  1  0
 14 39  1  0
 15 40  1  0
 16 41  1  0
 17 42  1  0
 18 43  1  0
 19 44  1  0
 19 45  1  0
 20 46  1  0
 20 47  1  0
 21 48  1  0
 22 49  1  0
M  CHG  1  10   1
M  END
>  <UniqueID>  (91) 
83

>  <SMILES>  (91) 
c1ccc(CCN2CC[NH+](CCc3ccccc3)CC2)cc1

>  <Energy>  (91) 
63.35780930002753

>  <Genealogy>  (91) 
c1ccc(CCN2CC[NH+](CCc3ccccc3)CC2)cc1 (protonated)
c1ccc(CCN2CC[NH+](CCc3ccccc3)CC2)cc1 (3D coordinates assigned)
c1ccc(CCN2CC[NH+](CCc3ccccc3)CC2)cc1 (nonaromatic ring conformer: 63.35780930002753 kcal/mol)

>  <smiles>  (91) 
c1ccc(CCN2CCN(CCc3ccccc3)CC2)cc1

>  <score_type>  (91) 
oracle

>  <origin>  (91) 
adg

>  <m_score__min__energy>  (91) 
-6.4000000000000004

>  <m_primary>  (91) 
energy

$$$$
91:0
     RDKit          3D

 44 46  0  0  0  0  0  0  0  0999 V2000
   63.3460   34.0080   46.3610 C   0  0  0  0  0  0  0  0  0  0  0  0
   62.6820   32.9340   47.1210 N   0  0  0  0  0  0  0  0  0  0  0  0
   63.5460   31.7410   47.1320 C   0  0  0  0  0  0  0  0  0  0  0  0
   62.4010   33.3620   48.5090 C   0  0  0  0  0  0  0  0  0  0  0  0
   62.5700   32.1930   49.4940 C   0  0  0  0  0  0  0  0  0  0  0  0
   61.3090   31.3200   49.5800 C   0  0  0  0  0  0  0  0  0  0  0  0
   60.7190   31.0920   48.2610 N   0  0  0  0  0  0  0  0  0  0  0  0
   59.4320   30.4770   48.1130 C   0  0  0  0  0  0  0  0  0  0  0  0
   58.9050   29.8740   49.0870 O   0  0  0  0  0  0  0  0  0  0  0  0
   58.7370   30.4960   46.8140 C   0  0  0  0  0  0  0  0  0  0  0  0
   58.1760   29.3910   46.2700 N   0  0  0  0  0  0  0  0  0  0  0  0
   57.7040   29.7670   45.0690 C   0  0  0  0  0  0  0  0  0  0  0  0
   57.0300   28.9700   44.1460 C   0  0  0  0  0  0  0  0  0  0  0  0
   56.5870   29.5720   42.9550 C   0  0  0  0  0  0  0  0  0  0  0  0
   56.8160   30.9440   42.7210 C   0  0  0  0  0  0  0  0  0  0  0  0
   57.4970   31.7260   43.6710 C   0  0  0  0  0  0  0  0  0  0  0  0
   57.9450   31.0980   44.8360 C   0  0  0  0  0  0  0  0  0  0  0  0
   58.6060   31.5910   45.9500 C   0  0  0  0  0  0  0  0  0  0  0  0
   58.9660   32.9970   46.2150 C   0  0  0  0  0  0  0  0  0  0  0  0
   58.9600   33.6190   47.4590 C   0  0  0  0  0  0  0  0  0  0  0  0
   59.3380   34.9670   47.4060 C   0  0  0  0  0  0  0  0  0  0  0  0
   59.6470   35.4090   46.1270 C   0  0  0  0  0  0  0  0  0  0  0  0
   59.4420   34.1250   45.0620 S   0  0  0  0  0  0  0  0  0  0  0  0
   63.7924   34.7301   47.0605 H   0  0  0  0  0  0  0  0  0  0  0  0
   64.1345   33.5755   45.7276 H   0  0  0  0  0  0  0  0  0  0  0  0
   62.6066   34.5201   45.7276 H   0  0  0  0  0  0  0  0  0  0  0  0
   63.7565   31.4503   48.1718 H   0  0  0  0  0  0  0  0  0  0  0  0
   63.0359   30.9141   46.6162 H   0  0  0  0  0  0  0  0  0  0  0  0
   64.4908   31.9677   46.6162 H   0  0  0  0  0  0  0  0  0  0  0  0
   63.0976   34.1675   48.7845 H   0  0  0  0  0  0  0  0  0  0  0  0
   61.3607   33.7156   48.5617 H   0  0  0  0  0  0  0  0  0  0  0  0
   63.4116   31.5679   49.1609 H   0  0  0  0  0  0  0  0  0  0  0  0
   62.7564   32.6165   50.4920 H   0  0  0  0  0  0  0  0  0  0  0  0
   61.5766   30.3496   50.0236 H   0  0  0  0  0  0  0  0  0  0  0  0
   60.5689   31.8461   50.2009 H   0  0  0  0  0  0  0  0  0  0  0  0
   61.2450   31.3590   47.3980 H   0  0  0  0  0  0  0  0  0  0  0  0
   58.1330   28.4340   46.6880 H   0  0  0  0  0  0  0  0  0  0  0  0
   56.8500   27.9028   44.3430 H   0  0  0  0  0  0  0  0  0  0  0  0
   56.0588   28.9695   42.2014 H   0  0  0  0  0  0  0  0  0  0  0  0
   56.4593   31.4057   41.7885 H   0  0  0  0  0  0  0  0  0  0  0  0
   57.6716   32.7989   43.5021 H   0  0  0  0  0  0  0  0  0  0  0  0
   58.6858   33.1039   48.3915 H   0  0  0  0  0  0  0  0  0  0  0  0
   59.3854   35.6141   48.2942 H   0  0  0  0  0  0  0  0  0  0  0  0
   59.9705   36.4251   45.8568 H   0  0  0  0  0  0  0  0  0  0  0  0
  1  2  1  0
  2  3  1  0
  2  4  1  0
  4  5  1  0
  5  6  1  0
  6  7  1  0
  7  8  1  0
  8  9  2  0
  8 10  1  0
 10 11  1  0
 11 12  1  0
 12 13  2  0
 13 14  1  0
 14 15  2  0
 15 16  1  0
 16 17  2  0
 17 18  1  0
 18 19  1  0
 19 20  2  0
 20 21  1  0
 21 22  2  0
 22 23  1  0
 18 10  2  0
 23 19  1  0
 17 12  1  0
  1 24  1  0
  1 25  1  0
  1 26  1  0
  3 27  1  0
  3 28  1  0
  3 29  1  0
  4 30  1  0
  4 31  1  0
  5 32  1  0
  5 33  1  0
  6 34  1  0
  6 35  1  0
  7 36  1  0
 11 37  1  0
 13 38  1  0
 14 39  1  0
 15 40  1  0
 16 41  1  0
 20 42  1  0
 21 43  1  0
 22 44  1  0
M  END
>  <UniqueID>  (92) 
84

>  <SMILES>  (92) 
CN(C)CCCNC(=O)c1[nH]c2ccccc2c1-c1cccs1

>  <Energy>  (92) 
103.6012738310843

>  <Genealogy>  (92) 
CN(C)CCCNC(=O)c1[nH]c2ccccc2c1-c1cccs1 (3D coordinates assigned)
CN(C)CCCNC(=O)c1[nH]c2ccccc2c1-c1cccs1 (optimized conformer: 103.6012738310843 kcal/mol)

>  <smiles>  (92) 
CN(C)CCCNC(=O)c1[nH]c2ccccc2c1-c1cccs1

>  <score_type>  (92) 
oracle

>  <origin>  (92) 
adg

>  <m_score__min__energy>  (92) 
-7.3499999999999996

>  <m_primary>  (92) 
energy

$$$$
92:0
     RDKit          3D

 25 27  0  0  0  0  0  0  0  0999 V2000
   58.6520   30.1120   46.4280 O   0  0  0  0  0  0  0  0  0  0  0  0
   58.8630   31.2850   46.0360 C   0  0  0  0  0  0  0  0  0  0  0  0
   57.9180   31.8540   45.1760 C   0  0  0  0  0  0  0  0  0  0  0  0
   57.0070   30.8940   44.5590 C   0  0  0  0  0  0  0  0  0  0  0  0
   56.8690   30.7000   43.2000 C   0  0  0  0  0  0  0  0  0  0  0  0
   55.9000   29.7010   43.0720 C   0  0  0  0  0  0  0  0  0  0  0  0
   55.4930   29.3300   44.2990 N   0  0  0  0  0  0  0  0  0  0  0  0
   56.1590   30.0500   45.2160 N   0  0  0  0  0  0  0  0  0  0  0  0
   57.7730   33.1860   44.8720 C   0  0  0  0  0  0  0  0  0  0  0  0
   58.3140   34.2660   45.5720 C   0  0  0  0  0  0  0  0  0  0  0  0
   59.3990   34.3040   46.4410 C   0  0  0  0  0  0  0  0  0  0  0  0
   60.2540   33.2420   46.6840 C   0  0  0  0  0  0  0  0  0  0  0  0
   61.5240   33.3760   47.1640 C   0  0  0  0  0  0  0  0  0  0  0  0
   62.0410   32.0900   47.2670 C   0  0  0  0  0  0  0  0  0  0  0  0
   61.1080   31.1940   46.8610 N   0  0  0  0  0  0  0  0  0  0  0  0
   60.0300   31.8910   46.5090 C   0  0  0  0  0  0  0  0  0  0  0  0
   57.4055   31.2192   42.3921 H   0  0  0  0  0  0  0  0  0  0  0  0
   55.5305   29.2859   42.1227 H   0  0  0  0  0  0  0  0  0  0  0  0
   54.7680   28.5930   44.4960 H   0  0  0  0  0  0  0  0  0  0  0  0
   57.1680   33.4264   43.9853 H   0  0  0  0  0  0  0  0  0  0  0  0
   57.8071   35.2292   45.4126 H   0  0  0  0  0  0  0  0  0  0  0  0
   59.5922   35.2464   46.9743 H   0  0  0  0  0  0  0  0  0  0  0  0
   62.0369   34.3152   47.4188 H   0  0  0  0  0  0  0  0  0  0  0  0
   63.0509   31.8381   47.6229 H   0  0  0  0  0  0  0  0  0  0  0  0
   61.1960   30.1450   46.8220 H   0  0  0  0  0  0  0  0  0  0  0  0
  1  2  2  0
  2  3  1  0
  3  4  1  0
  4  5  1  0
  5  6  2  0
  6  7  1  0
  7  8  1  0
  3  9  2  0
  9 10  1  0
 10 11  2  0
 11 12  1  0
 12 13  1  0
 13 14  2  0
 14 15  1  0
 15 16  1  0
 16  2  1  0
  8  4  2  0
 16 12  2  0
  5 17  1  0
  6 18  1  0
  7 19  1  0
  9 20  1  0
 10 21  1  0
 11 22  1  0
 13 23  1  0
 14 24  1  0
 15 25  1  0
M  END
>  <smiles>  (93) 
O=c1c(-c2cc[nH]n2)cccc2cc[nH]c12

>  <score_type>  (93) 
oracle

>  <origin>  (93) 
adg

>  <m_score__min__energy>  (93) 
-7.3099999999999996

>  <m_primary>  (93) 
energy

$$$$
93:0
     RDKit          3D

 41 43  0  0  0  0  0  0  0  0999 V2000
   55.6020   29.5290   44.6550 O   0  0  0  0  0  0  0  0  0  0  0  0
   56.5250   30.3690   44.4920 C   0  0  0  0  0  0  0  0  0  0  0  0
   57.9180   29.9010   44.1190 C   0  0  0  0  0  0  0  0  0  0  0  0
   58.5590   29.0200   45.1200 N   0  0  0  0  0  0  0  0  0  0  0  0
   57.7800   28.7970   46.3640 C   0  0  0  0  0  0  0  0  0  0  0  0
   57.7640   27.3280   46.8060 C   0  0  0  0  0  0  0  0  0  0  0  0
   57.5230   26.4630   45.6470 N   0  0  0  0  0  0  0  0  0  0  0  0
   56.3190   25.6780   45.5710 C   0  0  0  0  0  0  0  0  0  0  0  0
   55.2410   26.1430   46.0320 O   0  0  0  0  0  0  0  0  0  0  0  0
   56.3000   24.3420   44.9510 C   0  0  0  0  0  0  0  0  0  0  0  0
   55.9830   23.1480   45.5710 C   0  0  0  0  0  0  0  0  0  0  0  0
   56.0780   22.1850   44.5890 C   0  0  0  0  0  0  0  0  0  0  0  0
   56.4370   22.8470   43.4340 C   0  0  0  0  0  0  0  0  0  0  0  0
   56.5570   24.1310   43.6800 O   0  0  0  0  0  0  0  0  0  0  0  0
   58.3800   26.6090   44.4620 C   0  0  0  0  0  0  0  0  0  0  0  0
   59.2790   27.8500   44.5710 C   0  0  0  0  0  0  0  0  0  0  0  0
   56.2730   31.7290   44.8730 N   0  0  0  0  0  0  0  0  0  0  0  0
   57.2600   32.7080   45.2210 C   0  0  0  0  0  0  0  0  0  0  0  0
   57.4160   33.1370   46.5480 C   0  0  0  0  0  0  0  0  0  0  0  0
   58.4090   34.0660   46.8750 C   0  0  0  0  0  0  0  0  0  0  0  0
   59.2660   34.5540   45.8830 C   0  0  0  0  0  0  0  0  0  0  0  0
   60.2300   35.4520   46.2010 F   0  0  0  0  0  0  0  0  0  0  0  0
   59.1350   34.1040   44.5660 C   0  0  0  0  0  0  0  0  0  0  0  0
   58.1430   33.1740   44.2360 C   0  0  0  0  0  0  0  0  0  0  0  0
   58.0300   32.7400   42.9560 F   0  0  0  0  0  0  0  0  0  0  0  0
   57.8523   29.3504   43.1690 H   0  0  0  0  0  0  0  0  0  0  0  0
   58.5431   30.8036   44.0514 H   0  0  0  0  0  0  0  0  0  0  0  0
   58.2247   29.4005   47.1690 H   0  0  0  0  0  0  0  0  0  0  0  0
   56.7399   29.0900   46.1579 H   0  0  0  0  0  0  0  0  0  0  0  0
   58.7339   27.0719   47.2573 H   0  0  0  0  0  0  0  0  0  0  0  0
   56.9612   27.1794   47.5432 H   0  0  0  0  0  0  0  0  0  0  0  0
   55.7118   22.9977   46.6264 H   0  0  0  0  0  0  0  0  0  0  0  0
   55.9026   21.1052   44.7039 H   0  0  0  0  0  0  0  0  0  0  0  0
   56.5983   22.3716   42.4552 H   0  0  0  0  0  0  0  0  0  0  0  0
   59.0138   25.7151   44.3661 H   0  0  0  0  0  0  0  0  0  0  0  0
   57.7340   26.7254   43.5793 H   0  0  0  0  0  0  0  0  0  0  0  0
   60.1271   27.6152   45.2310 H   0  0  0  0  0  0  0  0  0  0  0  0
   59.6178   28.1095   43.5572 H   0  0  0  0  0  0  0  0  0  0  0  0
   56.7552   32.7414   47.3334 H   0  0  0  0  0  0  0  0  0  0  0  0
   58.5162   34.4132   47.9132 H   0  0  0  0  0  0  0  0  0  0  0  0
   59.8135   34.4820   43.7871 H   0  0  0  0  0  0  0  0  0  0  0  0
  1  2  2  0
  2  3  1  0
  3  4  1  0
  4  5  1  0
  5  6  1  0
  6  7  1  0
  7  8  1  0
  8  9  2  0
  8 10  1  0
 10 11  2  0
 11 12  1  0
 12 13  2  0
 13 14  1  0
  7 15  1  0
 15 16  1  0
  2 17  1  0
 17 18  1  0
 18 19  2  0
 19 20  1  0
 20 21  2  0
 21 22  1  0
 21 23  1  0
 23 24  2  0
 24 25  1  0
 16  4  1  0
 24 18  1  0
 14 10  1  0
  3 26  1  0
  3 27  1  0
  5 28  1  0
  5 29  1  0
  6 30  1  0
  6 31  1  0
 11 32  1  0
 12 33  1  0
 13 34  1  0
 15 35  1  0
 15 36  1  0
 16 37  1  0
 16 38  1  0
 19 39  1  0
 20 40  1  0
 23 41  1  0
M  CHG  1  17  -1
M  END
>  <UniqueID>  (94) 
85

>  <SMILES>  (94) 
O=C(CN1CCN(C(=O)c2ccco2)CC1)[N-]c1ccc(F)cc1F

>  <Energy>  (94) 
90.31868086221522

>  <Genealogy>  (94) 
O=C(CN1CCN(C(=O)c2ccco2)CC1)[N-]c1ccc(F)cc1F (protonated)
O=C(CN1CCN(C(=O)c2ccco2)CC1)[N-]c1ccc(F)cc1F (3D coordinates assigned)
O=C(CN1CCN(C(=O)c2ccco2)CC1)[N-]c1ccc(F)cc1F (nonaromatic ring conformer: 90.31868086221522 kcal/mol)

>  <smiles>  (94) 
O=C(CN1CCN(C(=O)c2ccco2)CC1)Nc1ccc(F)cc1F

>  <score_type>  (94) 
oracle

>  <origin>  (94) 
adg

>  <m_score__min__energy>  (94) 
-9.4499999999999993

>  <m_primary>  (94) 
energy

$$$$
94:0
     RDKit          3D

 34 36  0  0  0  0  0  0  0  0999 V2000
   55.1360   29.3490   44.8250 N   0  0  0  0  0  0  0  0  0  0  0  0
   56.4820   29.8170   44.8990 C   0  0  0  0  0  0  0  0  0  0  0  0
   56.7070   31.0440   44.7200 O   0  0  0  0  0  0  0  0  0  0  0  0
   57.5960   28.8660   45.1710 C   0  0  0  0  0  0  0  0  0  0  0  0
   57.8340   27.8130   44.2660 C   0  0  0  0  0  0  0  0  0  0  0  0
   58.8710   26.9030   44.4800 C   0  0  0  0  0  0  0  0  0  0  0  0
   59.6830   27.0210   45.6040 C   0  0  0  0  0  0  0  0  0  0  0  0
   59.4640   28.0520   46.5180 C   0  0  0  0  0  0  0  0  0  0  0  0
   58.4390   28.9930   46.3060 C   0  0  0  0  0  0  0  0  0  0  0  0
   58.2060   30.0320   47.2720 N   0  0  0  0  0  0  0  0  0  0  0  0
   59.2110   30.8120   47.9350 C   0  0  0  0  0  0  0  0  0  0  0  0
   59.6360   30.4260   49.0550 O   0  0  0  0  0  0  0  0  0  0  0  0
   59.6710   32.1100   47.3860 C   0  0  0  0  0  0  0  0  0  0  0  0
   58.6970   33.0410   46.9870 C   0  0  0  0  0  0  0  0  0  0  0  0
   59.0630   34.2940   46.5010 C   0  0  0  0  0  0  0  0  0  0  0  0
   60.4080   34.6450   46.4050 C   0  0  0  0  0  0  0  0  0  0  0  0
   61.4050   33.7360   46.7830 C   0  0  0  0  0  0  0  0  0  0  0  0
   62.7580   34.0910   46.6660 C   0  0  0  0  0  0  0  0  0  0  0  0
   63.7570   33.1810   47.0130 C   0  0  0  0  0  0  0  0  0  0  0  0
   63.4160   31.9090   47.4710 C   0  0  0  0  0  0  0  0  0  0  0  0
   62.0750   31.5400   47.5970 C   0  0  0  0  0  0  0  0  0  0  0  0
   61.0470   32.4500   47.2730 C   0  0  0  0  0  0  0  0  0  0  0  0
   54.5090   29.3820   45.6590 H   0  0  0  0  0  0  0  0  0  0  0  0
   57.1936   27.7062   43.3780 H   0  0  0  0  0  0  0  0  0  0  0  0
   59.0465   26.0912   43.7588 H   0  0  0  0  0  0  0  0  0  0  0  0
   60.4977   26.3012   45.7718 H   0  0  0  0  0  0  0  0  0  0  0  0
   60.0986   28.1303   47.4131 H   0  0  0  0  0  0  0  0  0  0  0  0
   57.6316   32.7768   47.0594 H   0  0  0  0  0  0  0  0  0  0  0  0
   58.2869   35.0095   46.1917 H   0  0  0  0  0  0  0  0  0  0  0  0
   60.6885   35.6406   46.0306 H   0  0  0  0  0  0  0  0  0  0  0  0
   63.0319   35.0912   46.2991 H   0  0  0  0  0  0  0  0  0  0  0  0
   64.8154   33.4675   46.9251 H   0  0  0  0  0  0  0  0  0  0  0  0
   64.2076   31.1921   47.7346 H   0  0  0  0  0  0  0  0  0  0  0  0
   61.8182   30.5310   47.9520 H   0  0  0  0  0  0  0  0  0  0  0  0
  1  2  1  0
  2  3  2  0
  2  4  1  0
  4  5  2  0
  5  6  1  0
  6  7  2  0
  7  8  1  0
  8  9  2  0
  9 10  1  0
 10 11  1  0
 11 12  2  0
 11 13  1  0
 13 14  2  0
 14 15  1  0
 15 16  2  0
 16 17  1  0
 17 18  2  0
 18 19  1  0
 19 20  2  0
 20 21  1  0
 21 22  2  0
  9  4  1  0
 22 13  1  0
 22 17  1  0
  1 23  1  0
  5 24  1  0
  6 25  1  0
  7 26  1  0
  8 27  1  0
 14 28  1  0
 15 29  1  0
 16 30  1  0
 18 31  1  0
 19 32  1  0
 20 33  1  0
 21 34  1  0
M  CHG  2   1  -1  10  -1
M  END
>  <UniqueID>  (95) 
86

>  <SMILES>  (95) 
[NH-]C(=O)c1ccccc1[N-]C(=O)c1cccc2ccccc12

>  <Energy>  (95) 
53.39268761931844

>  <Genealogy>  (95) 
[NH-]C(=O)c1ccccc1[N-]C(=O)c1cccc2ccccc12 (protonated)
[NH-]C(=O)c1ccccc1[N-]C(=O)c1cccc2ccccc12 (3D coordinates assigned)
[NH-]C(=O)c1ccccc1[N-]C(=O)c1cccc2ccccc12 (optimized conformer: 53.39268761931844 kcal/mol)

>  <smiles>  (95) 
NC(=O)c1ccccc1NC(=O)c1cccc2ccccc12

>  <score_type>  (95) 
oracle

>  <origin>  (95) 
adg

>  <m_score__min__energy>  (95) 
-13.59

>  <m_primary>  (95) 
energy

$$$$
95:0
     RDKit          3D

 50 50  0  0  0  0  0  0  0  0999 V2000
   59.3050   35.0870   45.0080 C   0  0  0  0  0  0  0  0  0  0  0  0
   58.8530   33.6720   45.2230 C   0  0  0  0  0  0  0  0  0  0  0  0
   58.1980   33.0500   44.2110 N   0  0  0  0  0  0  0  0  0  0  0  0
   57.7590   31.7700   44.2910 C   0  0  0  0  0  0  0  0  0  0  0  0
   57.0480   31.1860   43.1030 C   0  0  0  0  0  0  0  0  0  0  0  0
   57.9720   31.0280   45.4710 C   0  0  0  0  0  0  0  0  0  0  0  0
   57.4910   29.6350   45.5480 C   0  0  0  0  0  0  0  0  0  0  0  0
   56.2990   29.3680   45.2360 O   0  0  0  0  0  0  0  0  0  0  0  0
   58.3580   28.6300   45.9920 O   0  0  0  0  0  0  0  0  0  0  0  0
   59.2330   27.9070   45.1270 C   0  0  0  0  0  0  0  0  0  0  0  0
   60.5040   28.7190   44.8630 C   0  0  0  0  0  0  0  0  0  0  0  0
   58.5020   27.6150   43.8180 C   0  0  0  0  0  0  0  0  0  0  0  0
   58.6290   31.6450   46.5660 C   0  0  0  0  0  0  0  0  0  0  0  0
   58.8890   30.8820   47.8510 C   0  0  0  0  0  0  0  0  0  0  0  0
   59.0960   32.9790   46.4300 C   0  0  0  0  0  0  0  0  0  0  0  0
   59.8290   33.6460   47.5310 C   0  0  0  0  0  0  0  0  0  0  0  0
   59.3480   33.6470   48.6960 O   0  0  0  0  0  0  0  0  0  0  0  0
   61.0510   34.2730   47.2660 O   0  0  0  0  0  0  0  0  0  0  0  0
   62.1650   33.6050   46.6780 C   0  0  0  0  0  0  0  0  0  0  0  0
   62.9680   32.8140   47.7280 C   0  0  0  0  0  0  0  0  0  0  0  0
   62.4360   32.9600   49.1050 N   0  0  0  0  0  0  0  0  0  0  0  0
   63.2510   33.8910   49.9080 C   0  0  0  0  0  0  0  0  0  0  0  0
   62.3960   31.6430   49.7650 C   0  0  0  0  0  0  0  0  0  0  0  0
   59.4606   35.5742   45.9819 H   0  0  0  0  0  0  0  0  0  0  0  0
   60.2484   35.0886   44.4423 H   0  0  0  0  0  0  0  0  0  0  0  0
   58.5373   35.6352   44.4423 H   0  0  0  0  0  0  0  0  0  0  0  0
   56.2409   30.5231   43.4481 H   0  0  0  0  0  0  0  0  0  0  0  0
   56.6212   31.9977   42.4956 H   0  0  0  0  0  0  0  0  0  0  0  0
   57.7614   30.6097   42.4956 H   0  0  0  0  0  0  0  0  0  0  0  0
   59.5263   26.9589   45.6015 H   0  0  0  0  0  0  0  0  0  0  0  0
   60.9590   29.0097   45.8213 H   0  0  0  0  0  0  0  0  0  0  0  0
   61.2166   28.1084   44.2890 H   0  0  0  0  0  0  0  0  0  0  0  0
   60.2495   29.6222   44.2890 H   0  0  0  0  0  0  0  0  0  0  0  0
   57.5012   27.2152   44.0382 H   0  0  0  0  0  0  0  0  0  0  0  0
   58.4060   28.5438   43.2365 H   0  0  0  0  0  0  0  0  0  0  0  0
   59.0724   26.8757   43.2365 H   0  0  0  0  0  0  0  0  0  0  0  0
   58.6685   31.5292   48.7127 H   0  0  0  0  0  0  0  0  0  0  0  0
   58.2434   29.9921   47.8861 H   0  0  0  0  0  0  0  0  0  0  0  0
   59.9437   30.5715   47.8861 H   0  0  0  0  0  0  0  0  0  0  0  0
   61.7990   32.9087   45.9091 H   0  0  0  0  0  0  0  0  0  0  0  0
   62.8281   34.3634   46.2362 H   0  0  0  0  0  0  0  0  0  0  0  0
   62.9445   31.7485   47.4557 H   0  0  0  0  0  0  0  0  0  0  0  0
   63.9908   33.2188   47.7290 H   0  0  0  0  0  0  0  0  0  0  0  0
   61.4540   33.3210   49.0700 H   0  0  0  0  0  0  0  0  0  0  0  0
   63.0817   33.6976   50.9776 H   0  0  0  0  0  0  0  0  0  0  0  0
   64.3153   33.7432   49.6726 H   0  0  0  0  0  0  0  0  0  0  0  0
   62.9637   34.9264   49.6726 H   0  0  0  0  0  0  0  0  0  0  0  0
   62.4001   31.7796   50.8565 H   0  0  0  0  0  0  0  0  0  0  0  0
   61.4813   31.1104   49.4656 H   0  0  0  0  0  0  0  0  0  0  0  0
   63.2767   31.0559   49.4656 H   0  0  0  0  0  0  0  0  0  0  0  0
  1  2  1  0
  2  3  2  0
  3  4  1  0
  4  5  1  0
  4  6  2  0
  6  7  1  0
  7  8  2  0
  7  9  1  0
  9 10  1  0
 10 11  1  0
 10 12  1  0
  6 13  1  0
 13 14  1  0
 13 15  2  0
 15 16  1  0
 16 17  2  0
 16 18  1  0
 18 19  1  0
 19 20  1  0
 20 21  1  0
 21 22  1  0
 21 23  1  0
 15  2  1  0
  1 24  1  0
  1 25  1  0
  1 26  1  0
  5 27  1  0
  5 28  1  0
  5 29  1  0
 10 30  1  0
 11 31  1  0
 11 32  1  0
 11 33  1  0
 12 34  1  0
 12 35  1  0
 12 36  1  0
 14 37  1  0
 14 38  1  0
 14 39  1  0
 19 40  1  0
 19 41  1  0
 20 42  1  0
 20 43  1  0
 21 44  1  0
 22 45  1  0
 22 46  1  0
 22 47  1  0
 23 48  1  0
 23 49  1  0
 23 50  1  0
M  CHG  1  21   1
M  END
>  <UniqueID>  (96) 
87

>  <SMILES>  (96) 
Cc1nc(C)c(C(=O)OC(C)C)c(C)c1C(=O)OCC[NH+](C)C

>  <Energy>  (96) 
54.427784104917585

>  <Genealogy>  (96) 
Cc1nc(C)c(C(=O)OC(C)C)c(C)c1C(=O)OCC[NH+](C)C (protonated)
Cc1nc(C)c(C(=O)OC(C)C)c(C)c1C(=O)OCC[NH+](C)C (3D coordinates assigned)
Cc1nc(C)c(C(=O)OC(C)C)c(C)c1C(=O)OCC[NH+](C)C (optimized conformer: 54.427784104917585 kcal/mol)

>  <smiles>  (96) 
Cc1nc(C)c(C(=O)OC(C)C)c(C)c1C(=O)OCCN(C)C

>  <score_type>  (96) 
oracle

>  <origin>  (96) 
adg

>  <m_score__min__energy>  (96) 
-5.0499999999999998

>  <m_primary>  (96) 
energy

$$$$
96:0
     RDKit          3D

 42 44  0  0  0  0  0  0  0  0999 V2000
   59.8080   33.9670   50.4990 C   0  0  0  0  0  0  0  0  0  0  0  0
   59.9190   33.3180   49.1930 N   0  0  0  0  0  0  0  0  0  0  0  0
   58.9310   32.3530   48.8300 C   0  0  0  0  0  0  0  0  0  0  0  0
   58.3780   31.6690   49.7330 O   0  0  0  0  0  0  0  0  0  0  0  0
   58.4210   32.2660   47.4160 C   0  0  0  0  0  0  0  0  0  0  0  0
   58.2600   33.5580   46.7090 N   0  0  2  0  0  0  0  0  0  0  0  0
   57.2320   33.6130   45.6340 C   0  0  0  0  0  0  0  0  0  0  0  0
   57.5640   32.9220   44.2940 C   0  0  0  0  0  0  0  0  0  0  0  0
   57.5130   31.4150   44.3100 C   0  0  0  0  0  0  0  0  0  0  0  0
   58.6300   30.6630   44.7180 C   0  0  0  0  0  0  0  0  0  0  0  0
   58.6290   29.2700   44.5980 C   0  0  0  0  0  0  0  0  0  0  0  0
   57.5260   28.6160   44.0440 C   0  0  0  0  0  0  0  0  0  0  0  0
   56.4210   29.3530   43.6140 C   0  0  0  0  0  0  0  0  0  0  0  0
   56.4140   30.7460   43.7400 C   0  0  0  0  0  0  0  0  0  0  0  0
   59.7560   34.3930   46.3420 S   0  0  0  0  0  0  0  0  0  0  0  0
   59.6260   35.8240   46.7830 O   0  0  0  0  0  0  0  0  0  0  0  0
   59.9560   34.3880   44.8520 O   0  0  0  0  0  0  0  0  0  0  0  0
   61.1950   33.7310   47.1220 C   0  0  0  0  0  0  0  0  0  0  0  0
   62.4250   33.7670   46.4440 C   0  0  0  0  0  0  0  0  0  0  0  0
   63.6040   33.3960   47.0930 C   0  0  0  0  0  0  0  0  0  0  0  0
   63.5690   32.9880   48.4270 C   0  0  0  0  0  0  0  0  0  0  0  0
   62.3550   32.9560   49.1140 C   0  0  0  0  0  0  0  0  0  0  0  0
   61.1610   33.3340   48.4730 C   0  0  0  0  0  0  0  0  0  0  0  0
   59.9363   33.2169   51.2933 H   0  0  0  0  0  0  0  0  0  0  0  0
   60.5874   34.7375   50.5930 H   0  0  0  0  0  0  0  0  0  0  0  0
   58.8168   34.4347   50.5930 H   0  0  0  0  0  0  0  0  0  0  0  0
   59.1278   31.6513   46.8393 H   0  0  0  0  0  0  0  0  0  0  0  0
   57.4109   31.8365   47.4882 H   0  0  0  0  0  0  0  0  0  0  0  0
   57.8540   34.1830   47.4470 H   0  0  0  0  0  0  0  0  0  0  0  0
   56.3177   33.1453   46.0282 H   0  0  0  0  0  0  0  0  0  0  0  0
   57.1445   34.6807   45.3845 H   0  0  0  0  0  0  0  0  0  0  0  0
   56.8441   33.2774   43.5420 H   0  0  0  0  0  0  0  0  0  0  0  0
   58.6077   33.1862   44.0687 H   0  0  0  0  0  0  0  0  0  0  0  0
   59.5103   31.1746   45.1343 H   0  0  0  0  0  0  0  0  0  0  0  0
   59.4977   28.6884   44.9402 H   0  0  0  0  0  0  0  0  0  0  0  0
   57.5281   27.5203   43.9465 H   0  0  0  0  0  0  0  0  0  0  0  0
   55.5542   28.8372   43.1752 H   0  0  0  0  0  0  0  0  0  0  0  0
   55.5441   31.3221   43.3914 H   0  0  0  0  0  0  0  0  0  0  0  0
   62.4593   34.0902   45.3931 H   0  0  0  0  0  0  0  0  0  0  0  0
   64.5615   33.4253   46.5523 H   0  0  0  0  0  0  0  0  0  0  0  0
   64.4978   32.6918   48.9366 H   0  0  0  0  0  0  0  0  0  0  0  0
   62.3313   32.6327   50.1651 H   0  0  0  0  0  0  0  0  0  0  0  0
  1  2  1  0
  2  3  1  0
  3  4  2  0
  3  5  1  0
  5  6  1  0
  6  7  1  0
  7  8  1  0
  8  9  1  0
  9 10  2  0
 10 11  1  0
 11 12  2  0
 12 13  1  0
 13 14  2  0
  6 15  1  0
 15 16  2  0
 15 17  2  0
 15 18  1  0
 18 19  2  0
 19 20  1  0
 20 21  2  0
 21 22  1  0
 22 23  2  0
 23  2  1  0
 14  9  1  0
 23 18  1  0
  1 24  1  0
  1 25  1  0
  1 26  1  0
  5 27  1  0
  5 28  1  0
  6 29  1  1
  7 30  1  0
  7 31  1  0
  8 32  1  0
  8 33  1  0
 10 34  1  0
 11 35  1  0
 12 36  1  0
 13 37  1  0
 14 38  1  0
 19 39  1  0
 20 40  1  0
 21 41  1  0
 22 42  1  0
M  CHG  1   6   1
M  END
>  <UniqueID>  (97) 
88

>  <SMILES>  (97) 
CN1C(=O)C[N@H+](CCc2ccccc2)S(=O)(=O)c2ccccc21

>  <Energy>  (97) 
68.99570475403998

>  <Genealogy>  (97) 
CN1C(=O)C[NH+](CCc2ccccc2)S(=O)(=O)c2ccccc21 (protonated)
CN1C(=O)C[N@H+](CCc2ccccc2)S(=O)(=O)c2ccccc21 (chirality)
CN1C(=O)C[N@H+](CCc2ccccc2)S(=O)(=O)c2ccccc21 (3D coordinates assigned)
CN1C(=O)C[N@H+](CCc2ccccc2)S(=O)(=O)c2ccccc21 (nonaromatic ring conformer: 68.99570475403998 kcal/mol)

>  <smiles>  (97) 
CN1C(=O)CN(CCc2ccccc2)S(=O)(=O)c2ccccc21

>  <score_type>  (97) 
oracle

>  <origin>  (97) 
adg

>  <m_score__min__energy>  (97) 
-4.6200000000000001

>  <m_primary>  (97) 
energy

$$$$
