0:0
     RDKit          3D

 49 51  0  0  0  0  0  0  0  0999 V2000
   57.9468   33.6069   47.6506 H   0  0  0  0  0  0  0  0  0  0  0  0
   58.5860   33.3370   46.7970 C   0  0  0  0  0  0  0  0  0  0  0  0
   58.1850   33.6020   45.5930 N   0  0  0  0  0  0  0  0  0  0  0  0
   57.7890   32.6130   44.6330 C   0  0  0  0  0  0  0  0  0  0  0  0
   57.9250   32.8930   43.3110 N   0  0  0  0  0  0  0  0  0  0  0  0
   57.5520   32.0010   42.3570 C   0  0  0  0  0  0  0  0  0  0  0  0
   57.7250   32.3420   40.9120 C   0  0  0  0  0  0  0  0  0  0  0  0
   58.2210   33.3197   40.8228 H   0  0  0  0  0  0  0  0  0  0  0  0
   58.3416   31.5722   40.4249 H   0  0  0  0  0  0  0  0  0  0  0  0
   56.7397   32.3850   40.4249 H   0  0  0  0  0  0  0  0  0  0  0  0
   57.0190   30.7680   42.7350 C   0  0  0  0  0  0  0  0  0  0  0  0
   56.7178   30.0311   41.9759 H   0  0  0  0  0  0  0  0  0  0  0  0
   56.8750   30.4870   44.0980 C   0  0  0  0  0  0  0  0  0  0  0  0
   56.2480   29.1950   44.5360 C   0  0  0  0  0  0  0  0  0  0  0  0
   56.2270   29.1517   45.6349 H   0  0  0  0  0  0  0  0  0  0  0  0
   55.2208   29.1355   44.1470 H   0  0  0  0  0  0  0  0  0  0  0  0
   56.8369   28.3513   44.1470 H   0  0  0  0  0  0  0  0  0  0  0  0
   57.2390   31.4210   45.0210 N   0  0  0  0  0  0  0  0  0  0  0  0
   57.0620   31.2250   46.0310 H   0  0  0  0  0  0  0  0  0  0  0  0
   59.8860   32.6790   47.0440 C   0  0  0  0  0  0  0  0  0  0  0  0
   61.0490   33.4530   47.2260 C   0  0  0  0  0  0  0  0  0  0  0  0
   60.9770   34.5503   47.2542 H   0  0  0  0  0  0  0  0  0  0  0  0
   62.2940   32.8340   47.3710 C   0  0  0  0  0  0  0  0  0  0  0  0
   63.7360   33.8100   47.5830 Cl  0  0  0  0  0  0  0  0  0  0  0  0
   62.3940   31.4410   47.3260 C   0  0  0  0  0  0  0  0  0  0  0  0
   63.3771   30.9572   47.4239 H   0  0  0  0  0  0  0  0  0  0  0  0
   61.2480   30.6630   47.1570 C   0  0  0  0  0  0  0  0  0  0  0  0
   61.3334   29.5672   47.1123 H   0  0  0  0  0  0  0  0  0  0  0  0
   59.9910   31.2670   47.0440 C   0  0  0  0  0  0  0  0  0  0  0  0
   58.8650   30.4410   46.9200 O   0  0  0  0  0  0  0  0  0  0  0  0
   58.7130   29.2370   47.6140 C   0  0  0  0  0  0  0  0  0  0  0  0
   58.7390   29.2320   48.8770 O   0  0  0  0  0  0  0  0  0  0  0  0
   58.4970   27.9760   46.8710 C   0  0  0  0  0  0  0  0  0  0  0  0
   57.8500   26.8920   47.4900 C   0  0  0  0  0  0  0  0  0  0  0  0
   57.4772   26.9931   48.5199 H   0  0  0  0  0  0  0  0  0  0  0  0
   57.6780   25.6870   46.8040 C   0  0  0  0  0  0  0  0  0  0  0  0
   57.1515   24.8521   47.2896 H   0  0  0  0  0  0  0  0  0  0  0  0
   58.1720   25.5350   45.5010 C   0  0  0  0  0  0  0  0  0  0  0  0
   57.9770   24.2860   44.8250 N   0  0  0  0  0  0  0  0  0  0  0  0
   58.3270   22.9870   45.3140 C   0  0  0  0  0  0  0  0  0  0  0  0
   57.8410   22.5960   46.4060 O   0  0  0  0  0  0  0  0  0  0  0  0
   59.2920   22.1010   44.5890 C   0  0  0  0  0  0  0  0  0  0  0  0
   59.8982   21.5444   45.3189 H   0  0  0  0  0  0  0  0  0  0  0  0
   58.7359   21.3923   43.9578 H   0  0  0  0  0  0  0  0  0  0  0  0
   59.9508   22.7154   43.9578 H   0  0  0  0  0  0  0  0  0  0  0  0
   58.7910   26.6250   44.8690 C   0  0  0  0  0  0  0  0  0  0  0  0
   59.1454   26.5277   43.8322 H   0  0  0  0  0  0  0  0  0  0  0  0
   58.9590   27.8330   45.5510 C   0  0  0  0  0  0  0  0  0  0  0  0
   59.4561   28.6777   45.0517 H   0  0  0  0  0  0  0  0  0  0  0  0
  1  2  1  0
  2  3  2  0
  3  4  1  0
  4  5  2  0
  5  6  1  0
  6  7  1  0
  7  8  1  0
  7  9  1  0
  7 10  1  0
  6 11  2  0
 11 12  1  0
 11 13  1  0
 13 14  1  0
 14 15  1  0
 14 16  1  0
 14 17  1  0
 13 18  2  0
 18 19  1  0
  2 20  1  0
 20 21  2  0
 21 22  1  0
 21 23  1  0
 23 24  1  0
 23 25  2  0
 25 26  1  0
 25 27  1  0
 27 28  1  0
 27 29  2  0
 29 30  1  0
 30 31  1  0
 31 32  2  0
 31 33  1  0
 33 34  2  0
 34 35  1  0
 34 36  1  0
 36 37  1  0
 36 38  2  0
 38 39  1  0
 39 40  1  0
 40 41  2  0
 40 42  1  0
 42 43  1  0
 42 44  1  0
 42 45  1  0
 38 46  1  0
 46 47  1  0
 46 48  2  0
 48 49  1  0
 18  4  1  0
 29 20  1  0
 48 33  1  0
M  CHG  2  18   1  39  -1
M  END
>  <UniqueID>  (1) 
1

>  <SMILES>  (1) 
CC(=O)[N-]c1ccc(C(=O)Oc2ccc(Cl)cc2/C=N/c2nc(C)cc(C)[nH+]2)cc1

>  <Energy>  (1) 
63.05344370891025

>  <Genealogy>  (1) 
CC(=O)[N-]c1ccc(C(=O)Oc2ccc(Cl)cc2C=Nc2nc(C)cc(C)[nH+]2)cc1 (protonated)
CC(=O)[N-]c1ccc(C(=O)Oc2ccc(Cl)cc2/C=N/c2nc(C)cc(C)[nH+]2)cc1 (cis-trans isomerization)
CC(=O)[N-]c1ccc(C(=O)Oc2ccc(Cl)cc2/C=N/c2nc(C)cc(C)[nH+]2)cc1 (3D coordinates assigned)
CC(=O)[N-]c1ccc(C(=O)Oc2ccc(Cl)cc2/C=N/c2nc(C)cc(C)[nH+]2)cc1 (optimized conformer: 63.05344370891025 kcal/mol)

>  <smiles>  (1) 
CC(=O)Nc1ccc(C(=O)Oc2ccc(Cl)cc2C=Nc2nc(C)cc(C)n2)cc1

>  <score_type>  (1) 
oracle

>  <origin>  (1) 
adg

>  <m_score__min__energy>  (1) 
-9.5399999999999991

>  <m_primary>  (1) 
energy

$$$$
1:0
     RDKit          3D

 61 64  0  0  0  0  0  0  0  0999 V2000
   58.1410   27.4320   43.3600 C   0  0  0  0  0  0  0  0  0  0  0  0
   57.5900   27.7940   44.7140 C   0  0  0  0  0  0  0  0  0  0  0  0
   57.5510   29.2690   44.8450 C   0  0  0  0  0  0  0  0  0  0  0  0
   58.6340   30.0390   45.2020 C   0  0  0  0  0  0  0  0  0  0  0  0
   59.9890   29.5230   45.4310 C   0  0  0  0  0  0  0  0  0  0  0  0
   60.2980   29.5120   46.8720 C   0  0  0  0  0  0  0  0  0  0  0  0
   60.8420   30.5290   47.5960 C   0  0  0  0  0  0  0  0  0  0  0  0
   61.0960   30.4570   48.9480 C   0  0  0  0  0  0  0  0  0  0  0  0
   60.7920   29.3030   49.6320 C   0  0  0  0  0  0  0  0  0  0  0  0
   60.2370   28.2390   48.9410 C   0  0  0  0  0  0  0  0  0  0  0  0
   59.9920   28.3420   47.5670 C   0  0  0  0  0  0  0  0  0  0  0  0
   58.4830   31.3970   45.3310 N   0  0  0  0  0  0  0  0  0  0  0  0
   57.3150   32.0240   45.1210 C   0  0  0  0  0  0  0  0  0  0  0  0
   57.2770   33.7960   45.3110 S   0  0  0  0  0  0  0  0  0  0  0  0
   58.9260   34.5180   45.2060 C   0  0  0  0  0  0  0  0  0  0  0  0
   59.7970   34.0450   46.2960 C   0  0  0  0  0  0  0  0  0  0  0  0
   59.2640   33.3820   47.2410 O   0  0  0  0  0  0  0  0  0  0  0  0
   61.1870   34.2620   46.3870 N   0  0  0  0  0  0  0  0  0  0  0  0
   61.9850   33.7830   47.4610 C   0  0  0  0  0  0  0  0  0  0  0  0
   63.0810   33.0120   47.1230 C   0  0  0  0  0  0  0  0  0  0  0  0
   63.9070   32.5110   48.1340 C   0  0  0  0  0  0  0  0  0  0  0  0
   63.6640   32.7610   49.4680 C   0  0  0  0  0  0  0  0  0  0  0  0
   64.5480   32.2180   50.4240 N   0  0  0  0  0  0  0  0  0  0  0  0
   65.9730   32.4140   50.2060 C   0  0  0  0  0  0  0  0  0  0  0  0
   66.7120   31.5520   51.2100 C   0  0  0  0  0  0  0  0  0  0  0  0
   66.1970   30.2660   51.1550 O   0  0  0  0  0  0  0  0  0  0  0  0
   64.9160   30.1770   51.6410 C   0  0  0  0  0  0  0  0  0  0  0  0
   64.1490   31.4870   51.6010 C   0  0  0  0  0  0  0  0  0  0  0  0
   62.5640   33.5330   49.7710 C   0  0  0  0  0  0  0  0  0  0  0  0
   61.7230   34.0460   48.7880 C   0  0  0  0  0  0  0  0  0  0  0  0
   56.2660   31.2740   44.7740 N   0  0  0  0  0  0  0  0  0  0  0  0
   56.3400   29.9410   44.6300 C   0  0  0  0  0  0  0  0  0  0  0  0
   55.2920   29.3200   44.2980 O   0  0  0  0  0  0  0  0  0  0  0  0
   59.0544   26.8319   43.4844 H   0  0  0  0  0  0  0  0  0  0  0  0
   57.3923   26.8492   42.8033 H   0  0  0  0  0  0  0  0  0  0  0  0
   58.3787   28.3505   42.8033 H   0  0  0  0  0  0  0  0  0  0  0  0
   56.5728   27.3883   44.8178 H   0  0  0  0  0  0  0  0  0  0  0  0
   58.2321   27.3698   45.5000 H   0  0  0  0  0  0  0  0  0  0  0  0
   60.0577   28.4980   45.0378 H   0  0  0  0  0  0  0  0  0  0  0  0
   60.7106   30.1745   44.9164 H   0  0  0  0  0  0  0  0  0  0  0  0
   61.0932   31.4622   47.0707 H   0  0  0  0  0  0  0  0  0  0  0  0
   61.5380   31.3148   49.4760 H   0  0  0  0  0  0  0  0  0  0  0  0
   60.9869   29.2265   50.7119 H   0  0  0  0  0  0  0  0  0  0  0  0
   59.9878   27.3096   49.4740 H   0  0  0  0  0  0  0  0  0  0  0  0
   59.5526   27.4895   47.0283 H   0  0  0  0  0  0  0  0  0  0  0  0
   59.3110   31.9760   45.6060 H   0  0  0  0  0  0  0  0  0  0  0  0
   59.3770   34.2388   44.2423 H   0  0  0  0  0  0  0  0  0  0  0  0
   58.8289   35.6102   45.2933 H   0  0  0  0  0  0  0  0  0  0  0  0
   61.6720   34.7830   45.6380 H   0  0  0  0  0  0  0  0  0  0  0  0
   63.3017   32.7943   46.0676 H   0  0  0  0  0  0  0  0  0  0  0  0
   64.7775   31.8985   47.8565 H   0  0  0  0  0  0  0  0  0  0  0  0
   66.2411   32.1120   49.1828 H   0  0  0  0  0  0  0  0  0  0  0  0
   66.2417   33.4730   50.3337 H   0  0  0  0  0  0  0  0  0  0  0  0
   67.7838   31.5325   50.9633 H   0  0  0  0  0  0  0  0  0  0  0  0
   66.5860   31.9635   52.2223 H   0  0  0  0  0  0  0  0  0  0  0  0
   64.3682   29.4367   51.0394 H   0  0  0  0  0  0  0  0  0  0  0  0
   64.9959   29.8866   52.6990 H   0  0  0  0  0  0  0  0  0  0  0  0
   63.0688   31.2829   51.5620 H   0  0  0  0  0  0  0  0  0  0  0  0
   64.3676   32.0781   52.5025 H   0  0  0  0  0  0  0  0  0  0  0  0
   62.3428   33.7514   50.8262 H   0  0  0  0  0  0  0  0  0  0  0  0
   60.8535   34.6584   49.0689 H   0  0  0  0  0  0  0  0  0  0  0  0
  1  2  1  0
  2  3  1  0
  3  4  2  0
  4  5  1  0
  5  6  1  0
  6  7  2  0
  7  8  1  0
  8  9  2  0
  9 10  1  0
 10 11  2  0
  4 12  1  0
 12 13  1  0
 13 14  1  0
 14 15  1  0
 15 16  1  0
 16 17  2  0
 16 18  1  0
 18 19  1  0
 19 20  2  0
 20 21  1  0
 21 22  2  0
 22 23  1  0
 23 24  1  0
 24 25  1  0
 25 26  1  0
 26 27  1  0
 27 28  1  0
 22 29  1  0
 29 30  2  0
 13 31  2  0
 31 32  1  0
 32 33  2  0
 32  3  1  0
 11  6  1  0
 30 19  1  0
 28 23  1  0
  1 34  1  0
  1 35  1  0
  1 36  1  0
  2 37  1  0
  2 38  1  0
  5 39  1  0
  5 40  1  0
  7 41  1  0
  8 42  1  0
  9 43  1  0
 10 44  1  0
 11 45  1  0
 12 46  1  0
 15 47  1  0
 15 48  1  0
 18 49  1  0
 20 50  1  0
 21 51  1  0
 24 52  1  0
 24 53  1  0
 25 54  1  0
 25 55  1  0
 27 56  1  0
 27 57  1  0
 28 58  1  0
 28 59  1  0
 29 60  1  0
 30 61  1  0
M  END
>  <smiles>  (2) 
CCc1c(Cc2ccccc2)[nH]c(SCC(=O)Nc2ccc(N3CCOCC3)cc2)nc1=O

>  <score_type>  (2) 
oracle

>  <origin>  (2) 
adg

>  <m_score__min__energy>  (2) 
-9.4199999999999999

>  <m_primary>  (2) 
energy

$$$$
2:0
     RDKit          3D

 50 52  0  0  0  0  0  0  0  0999 V2000
   55.9380   29.2070   44.8620 O   0  0  0  0  0  0  0  0  0  0  0  0
   57.0850   29.7890   44.0830 S   0  0  0  0  0  0  0  0  0  0  0  0
   56.5550   30.2780   42.7640 O   0  0  0  0  0  0  0  0  0  0  0  0
   57.7600   31.1650   44.9590 C   0  0  0  0  0  0  0  0  0  0  0  0
   57.9090   32.4050   44.3210 C   0  0  0  0  0  0  0  0  0  0  0  0
   58.4290   33.4980   45.0170 C   0  0  0  0  0  0  0  0  0  0  0  0
   58.7970   33.3710   46.3650 C   0  0  0  0  0  0  0  0  0  0  0  0
   59.4010   34.5400   47.0990 C   0  0  0  0  0  0  0  0  0  0  0  0
   60.7640   34.1730   47.6290 C   0  0  0  0  0  0  0  0  0  0  0  0
   61.7880   33.8050   46.7430 C   0  0  0  0  0  0  0  0  0  0  0  0
   63.0340   33.4120   47.2360 C   0  0  0  0  0  0  0  0  0  0  0  0
   63.2440   33.3800   48.6150 C   0  0  0  0  0  0  0  0  0  0  0  0
   64.7950   32.8870   49.2620 Cl  0  0  0  0  0  0  0  0  0  0  0  0
   62.2410   33.7270   49.4630 N   0  0  0  0  0  0  0  0  0  0  0  0
   61.0140   34.1170   49.0130 C   0  0  0  0  0  0  0  0  0  0  0  0
   60.0030   34.4600   49.9190 O   0  0  0  0  0  0  0  0  0  0  0  0
   59.2590   33.5080   50.6730 C   0  0  0  0  0  0  0  0  0  0  0  0
   59.9070   33.2880   52.0400 C   0  0  0  0  0  0  0  0  0  0  0  0
   61.2190   33.7820   52.0420 O   0  0  0  0  0  0  0  0  0  0  0  0
   58.6440   32.1310   47.0040 C   0  0  0  0  0  0  0  0  0  0  0  0
   58.1250   31.0350   46.3080 C   0  0  0  0  0  0  0  0  0  0  0  0
   57.9790   29.8490   46.9510 F   0  0  0  0  0  0  0  0  0  0  0  0
   58.3150   28.5730   43.8010 N   0  0  0  0  0  0  0  0  0  0  0  0
   58.9340   28.1190   45.0640 C   0  0  0  0  0  0  0  0  0  0  0  0
   58.0080   27.1940   45.8820 C   0  0  0  0  0  0  0  0  0  0  0  0
   57.2010   26.2740   45.0570 N   0  0  0  0  0  0  0  0  0  0  0  0
   57.7410   26.1080   43.7050 C   0  0  0  0  0  0  0  0  0  0  0  0
   57.7970   27.4560   42.9640 C   0  0  0  0  0  0  0  0  0  0  0  0
   57.6147   32.5170   43.2670 H   0  0  0  0  0  0  0  0  0  0  0  0
   58.5509   34.4642   44.5056 H   0  0  0  0  0  0  0  0  0  0  0  0
   59.4963   35.3920   46.4098 H   0  0  0  0  0  0  0  0  0  0  0  0
   58.7486   34.8107   47.9422 H   0  0  0  0  0  0  0  0  0  0  0  0
   61.6089   33.8261   45.6579 H   0  0  0  0  0  0  0  0  0  0  0  0
   63.8416   33.1305   46.5443 H   0  0  0  0  0  0  0  0  0  0  0  0
   58.2330   33.8788   50.8136 H   0  0  0  0  0  0  0  0  0  0  0  0
   59.2440   32.5531   50.1271 H   0  0  0  0  0  0  0  0  0  0  0  0
   59.3204   33.8131   52.8083 H   0  0  0  0  0  0  0  0  0  0  0  0
   59.9305   32.2095   52.2553 H   0  0  0  0  0  0  0  0  0  0  0  0
   61.2930   34.3940   51.2640 H   0  0  0  0  0  0  0  0  0  0  0  0
   58.9343   32.0206   48.0593 H   0  0  0  0  0  0  0  0  0  0  0  0
   59.0660   29.0580   43.2560 H   0  0  0  0  0  0  0  0  0  0  0  0
   59.8578   27.5712   44.8262 H   0  0  0  0  0  0  0  0  0  0  0  0
   59.1361   29.0113   45.6747 H   0  0  0  0  0  0  0  0  0  0  0  0
   58.6308   26.5938   46.5617 H   0  0  0  0  0  0  0  0  0  0  0  0
   57.3016   27.8438   46.4194 H   0  0  0  0  0  0  0  0  0  0  0  0
   56.2240   26.6400   44.9820 H   0  0  0  0  0  0  0  0  0  0  0  0
   58.7571   25.6919   43.7721 H   0  0  0  0  0  0  0  0  0  0  0  0
   57.0821   25.4277   43.1455 H   0  0  0  0  0  0  0  0  0  0  0  0
   58.4526   27.3446   42.0877 H   0  0  0  0  0  0  0  0  0  0  0  0
   56.7652   27.7138   42.6832 H   0  0  0  0  0  0  0  0  0  0  0  0
  1  2  2  0
  2  3  2  0
  2  4  1  0
  4  5  2  0
  5  6  1  0
  6  7  2  0
  7  8  1  0
  8  9  1  0
  9 10  2  0
 10 11  1  0
 11 12  2  0
 12 13  1  0
 12 14  1  0
 14 15  2  0
 15 16  1  0
 16 17  1  0
 17 18  1  0
 18 19  1  0
  7 20  1  0
 20 21  2  0
 21 22  1  0
  2 23  1  0
 23 24  1  0
 24 25  1  0
 25 26  1  0
 26 27  1  0
 27 28  1  0
 21  4  1  0
 28 23  1  0
 15  9  1  0
  5 29  1  0
  6 30  1  0
  8 31  1  0
  8 32  1  0
 10 33  1  0
 11 34  1  0
 17 35  1  0
 17 36  1  0
 18 37  1  0
 18 38  1  0
 19 39  1  0
 20 40  1  0
 23 41  1  0
 24 42  1  0
 24 43  1  0
 25 44  1  0
 25 45  1  0
 26 46  1  0
 27 47  1  0
 27 48  1  0
 28 49  1  0
 28 50  1  0
M  CHG  1  23   1
M  END
>  <UniqueID>  (3) 
2

>  <SMILES>  (3) 
O=S(=O)(c1ccc(Cc2ccc(Cl)nc2OCCO)cc1F)[NH+]1CCNCC1

>  <Energy>  (3) 
56.08665892499726

>  <Genealogy>  (3) 
O=S(=O)(c1ccc(Cc2ccc(Cl)nc2OCCO)cc1F)[NH+]1CCNCC1 (protonated)
O=S(=O)(c1ccc(Cc2ccc(Cl)nc2OCCO)cc1F)[NH+]1CCNCC1 (3D coordinates assigned)
O=S(=O)(c1ccc(Cc2ccc(Cl)nc2OCCO)cc1F)[NH+]1CCNCC1 (nonaromatic ring conformer: 56.08665892499726 kcal/mol)

>  <smiles>  (3) 
O=S(=O)(c1ccc(Cc2ccc(Cl)nc2OCCO)cc1F)N1CCNCC1

>  <score_type>  (3) 
oracle

>  <origin>  (3) 
adg

>  <m_score__min__energy>  (3) 
-7.2800000000000002

>  <m_primary>  (3) 
energy

$$$$
3:0
     RDKit          3D

 64 67  0  0  0  0  0  0  0  0999 V2000
   63.0740   33.8530   47.3670 C   0  0  0  0  0  0  0  0  0  0  0  0
   61.7610   33.4840   46.6810 C   0  0  0  0  0  0  0  0  0  0  0  0
   60.6060   33.8760   47.5070 N   0  0  0  0  0  0  0  0  0  0  0  0
   59.4270   34.4630   46.8540 C   0  0  0  0  0  0  0  0  0  0  0  0
   58.5040   33.3920   46.3440 C   0  0  0  0  0  0  0  0  0  0  0  0
   57.2910   33.3950   46.6890 O   0  0  0  0  0  0  0  0  0  0  0  0
   58.9900   32.3990   45.4320 N   0  0  0  0  0  0  0  0  0  0  0  0
   58.1430   31.3580   44.9220 C   0  0  0  0  0  0  0  0  0  0  0  0
   57.5700   31.4580   43.6310 C   0  0  0  0  0  0  0  0  0  0  0  0
   57.8240   32.6430   42.7390 C   0  0  0  0  0  0  0  0  0  0  0  0
   56.7150   30.4430   43.1770 C   0  0  0  0  0  0  0  0  0  0  0  0
   56.4640   29.3210   43.9640 C   0  0  0  0  0  0  0  0  0  0  0  0
   57.0570   29.2000   45.2200 C   0  0  0  0  0  0  0  0  0  0  0  0
   57.8900   30.2150   45.7120 C   0  0  0  0  0  0  0  0  0  0  0  0
   58.5100   30.0710   47.0750 C   0  0  0  0  0  0  0  0  0  0  0  0
   60.5430   33.5370   48.9080 C   0  0  0  0  0  0  0  0  0  0  0  0
   60.7850   34.4200   49.7770 O   0  0  0  0  0  0  0  0  0  0  0  0
   60.1910   32.1810   49.3670 C   0  0  0  0  0  0  0  0  0  0  0  0
   59.0880   32.0070   50.2180 C   0  0  0  0  0  0  0  0  0  0  0  0
   58.7670   30.7390   50.7180 C   0  0  0  0  0  0  0  0  0  0  0  0
   57.4140   30.5440   51.8270 S   0  0  0  0  0  0  0  0  0  0  0  0
   56.1840   31.2080   51.2720 O   0  0  0  0  0  0  0  0  0  0  0  0
   57.1140   29.0810   52.0050 O   0  0  0  0  0  0  0  0  0  0  0  0
   57.8240   31.2360   53.3630 N   0  0  0  0  0  0  0  0  0  0  0  0
   58.1440   30.4300   54.5420 C   0  0  0  0  0  0  0  0  0  0  0  0
   58.7960   31.3980   55.5580 C   0  0  0  0  0  0  0  0  0  0  0  0
   58.8330   32.6930   54.8240 C   0  0  0  0  0  0  0  0  0  0  0  0
   59.3450   33.9160   55.2640 C   0  0  0  0  0  0  0  0  0  0  0  0
   59.2770   35.0210   54.4000 C   0  0  0  0  0  0  0  0  0  0  0  0
   58.6960   34.8870   53.1240 C   0  0  0  0  0  0  0  0  0  0  0  0
   58.1820   33.6500   52.7070 C   0  0  0  0  0  0  0  0  0  0  0  0
   58.2740   32.5610   53.5830 C   0  0  0  0  0  0  0  0  0  0  0  0
   59.5610   29.6370   50.3700 C   0  0  0  0  0  0  0  0  0  0  0  0
   60.6620   29.8040   49.5250 C   0  0  0  0  0  0  0  0  0  0  0  0
   60.9830   31.0700   49.0280 C   0  0  0  0  0  0  0  0  0  0  0  0
   62.0870   31.2200   48.2510 F   0  0  0  0  0  0  0  0  0  0  0  0
   62.9407   33.8155   48.4583 H   0  0  0  0  0  0  0  0  0  0  0  0
   63.8567   33.1400   47.0685 H   0  0  0  0  0  0  0  0  0  0  0  0
   63.3707   34.8693   47.0685 H   0  0  0  0  0  0  0  0  0  0  0  0
   61.7031   34.0022   45.7124 H   0  0  0  0  0  0  0  0  0  0  0  0
   61.7350   32.3938   46.5367 H   0  0  0  0  0  0  0  0  0  0  0  0
   58.8867   35.0871   47.5810 H   0  0  0  0  0  0  0  0  0  0  0  0
   59.7649   35.0696   46.0008 H   0  0  0  0  0  0  0  0  0  0  0  0
   60.0180   32.3250   45.2680 H   0  0  0  0  0  0  0  0  0  0  0  0
   58.0147   33.5328   43.3569 H   0  0  0  0  0  0  0  0  0  0  0  0
   58.6997   32.4430   42.1040 H   0  0  0  0  0  0  0  0  0  0  0  0
   56.9433   32.8194   42.1040 H   0  0  0  0  0  0  0  0  0  0  0  0
   56.2380   30.5337   42.1900 H   0  0  0  0  0  0  0  0  0  0  0  0
   55.7966   28.5290   43.5936 H   0  0  0  0  0  0  0  0  0  0  0  0
   56.8703   28.3029   45.8286 H   0  0  0  0  0  0  0  0  0  0  0  0
   57.7458   30.2485   47.8460 H   0  0  0  0  0  0  0  0  0  0  0  0
   58.9156   29.0547   47.1878 H   0  0  0  0  0  0  0  0  0  0  0  0
   59.3220   30.8045   47.1878 H   0  0  0  0  0  0  0  0  0  0  0  0
   58.4705   32.8744   50.4944 H   0  0  0  0  0  0  0  0  0  0  0  0
   57.2281   29.9920   54.9653 H   0  0  0  0  0  0  0  0  0  0  0  0
   58.8177   29.5979   54.2897 H   0  0  0  0  0  0  0  0  0  0  0  0
   58.1873   31.4798   56.4706 H   0  0  0  0  0  0  0  0  0  0  0  0
   59.7895   31.0649   55.8926 H   0  0  0  0  0  0  0  0  0  0  0  0
   59.7914   34.0114   56.2648 H   0  0  0  0  0  0  0  0  0  0  0  0
   59.6785   35.9936   54.7206 H   0  0  0  0  0  0  0  0  0  0  0  0
   58.6450   35.7560   52.4515 H   0  0  0  0  0  0  0  0  0  0  0  0
   57.7179   33.5381   51.7160 H   0  0  0  0  0  0  0  0  0  0  0  0
   59.3170   28.6389   50.7628 H   0  0  0  0  0  0  0  0  0  0  0  0
   61.2782   28.9353   49.2502 H   0  0  0  0  0  0  0  0  0  0  0  0
  1  2  1  0
  2  3  1  0
  3  4  1  0
  4  5  1  0
  5  6  2  0
  5  7  1  0
  7  8  1  0
  8  9  2  0
  9 10  1  0
  9 11  1  0
 11 12  2  0
 12 13  1  0
 13 14  2  0
 14 15  1  0
  3 16  1  0
 16 17  2  0
 16 18  1  0
 18 19  2  0
 19 20  1  0
 20 21  1  0
 21 22  2  0
 21 23  2  0
 21 24  1  0
 24 25  1  0
 25 26  1  0
 26 27  1  0
 27 28  2  0
 28 29  1  0
 29 30  2  0
 30 31  1  0
 31 32  2  0
 20 33  2  0
 33 34  1  0
 34 35  2  0
 35 36  1  0
 14  8  1  0
 35 18  1  0
 32 24  1  0
 32 27  1  0
  1 37  1  0
  1 38  1  0
  1 39  1  0
  2 40  1  0
  2 41  1  0
  4 42  1  0
  4 43  1  0
  7 44  1  0
 10 45  1  0
 10 46  1  0
 10 47  1  0
 11 48  1  0
 12 49  1  0
 13 50  1  0
 15 51  1  0
 15 52  1  0
 15 53  1  0
 19 54  1  0
 25 55  1  0
 25 56  1  0
 26 57  1  0
 26 58  1  0
 28 59  1  0
 29 60  1  0
 30 61  1  0
 31 62  1  0
 33 63  1  0
 34 64  1  0
M  END
>  <UniqueID>  (4) 
3

>  <SMILES>  (4) 
CCN(CC(=O)Nc1c(C)cccc1C)C(=O)c1cc(S(=O)(=O)N2CCc3ccccc32)ccc1F

>  <Energy>  (4) 
90.6023608364727

>  <Genealogy>  (4) 
CCN(CC(=O)Nc1c(C)cccc1C)C(=O)c1cc(S(=O)(=O)N2CCc3ccccc32)ccc1F (3D coordinates assigned)
CCN(CC(=O)Nc1c(C)cccc1C)C(=O)c1cc(S(=O)(=O)N2CCc3ccccc32)ccc1F (nonaromatic ring conformer: 90.6023608364727 kcal/mol)

>  <smiles>  (4) 
CCN(CC(=O)Nc1c(C)cccc1C)C(=O)c1cc(S(=O)(=O)N2CCc3ccccc32)ccc1F

>  <score_type>  (4) 
oracle

>  <origin>  (4) 
adg

>  <m_score__min__energy>  (4) 
-10.6

>  <m_primary>  (4) 
energy

$$$$
4:0
     RDKit          3D

 45 47  0  0  0  0  0  0  0  0999 V2000
   53.2130   28.8370   52.9630 O   0  0  0  0  0  0  0  0  0  0  0  0
   53.8950   29.7740   52.4690 C   0  0  0  0  0  0  0  0  0  0  0  0
   53.2670   31.1300   52.2960 C   0  0  0  0  0  0  0  0  0  0  0  0
   52.3500   31.1380   51.1120 C   0  0  0  0  0  0  0  0  0  0  0  0
   52.4020   30.0360   49.8390 S   0  0  0  0  0  0  0  0  0  0  0  0
   51.1690   30.8170   49.0050 C   0  0  0  0  0  0  0  0  0  0  0  0
   50.7140   30.4390   47.8940 O   0  0  0  0  0  0  0  0  0  0  0  0
   50.7130   31.9100   49.6530 N   0  0  0  0  0  0  0  0  0  0  0  0
   51.3760   32.0920   50.8250 C   0  0  0  0  0  0  0  0  0  0  0  0
   51.0920   33.1630   51.6630 O   0  0  0  0  0  0  0  0  0  0  0  0
   55.2660   29.5260   52.1340 N   0  0  0  0  0  0  0  0  0  0  0  0
   56.3510   30.4580   52.2530 C   0  0  0  0  0  0  0  0  0  0  0  0
   56.4940   31.2800   53.3830 C   0  0  0  0  0  0  0  0  0  0  0  0
   57.5490   32.1940   53.4590 C   0  0  0  0  0  0  0  0  0  0  0  0
   58.4570   32.3140   52.3990 C   0  0  0  0  0  0  0  0  0  0  0  0
   59.8010   33.4460   52.5250 S   0  0  0  0  0  0  0  0  0  0  0  0
   60.7800   32.9050   53.5300 O   0  0  0  0  0  0  0  0  0  0  0  0
   59.3010   34.7780   53.0110 O   0  0  0  0  0  0  0  0  0  0  0  0
   60.5790   33.6240   50.9680 N   0  0  0  0  0  0  0  0  0  0  0  0
   61.3360   32.3980   50.6470 C   0  0  0  0  0  0  0  0  0  0  0  0
   62.5180   32.6480   49.6920 C   0  0  0  0  0  0  0  0  0  0  0  0
   62.3230   33.7710   48.6470 C   0  0  0  0  0  0  0  0  0  0  0  0
   61.0580   33.6470   47.7830 C   0  0  0  0  0  0  0  0  0  0  0  0
   59.7460   33.3720   48.5610 C   0  0  0  0  0  0  0  0  0  0  0  0
   59.6080   34.0650   49.9360 C   0  0  0  0  0  0  0  0  0  0  0  0
   58.3010   31.5110   51.2600 C   0  0  0  0  0  0  0  0  0  0  0  0
   57.2450   30.5970   51.1850 C   0  0  0  0  0  0  0  0  0  0  0  0
   52.6926   31.3806   53.2000 H   0  0  0  0  0  0  0  0  0  0  0  0
   54.0629   31.8718   52.1337 H   0  0  0  0  0  0  0  0  0  0  0  0
   55.7735   31.2043   54.2108 H   0  0  0  0  0  0  0  0  0  0  0  0
   57.6667   32.8215   54.3548 H   0  0  0  0  0  0  0  0  0  0  0  0
   61.7268   31.9731   51.5833 H   0  0  0  0  0  0  0  0  0  0  0  0
   60.6444   31.7103   50.1384 H   0  0  0  0  0  0  0  0  0  0  0  0
   63.3951   32.9066   50.3034 H   0  0  0  0  0  0  0  0  0  0  0  0
   62.6298   31.7205   49.1113 H   0  0  0  0  0  0  0  0  0  0  0  0
   62.2766   34.7305   49.1829 H   0  0  0  0  0  0  0  0  0  0  0  0
   63.1746   33.6957   47.9548 H   0  0  0  0  0  0  0  0  0  0  0  0
   60.9325   34.5884   47.2280 H   0  0  0  0  0  0  0  0  0  0  0  0
   61.2167   32.7708   47.1371 H   0  0  0  0  0  0  0  0  0  0  0  0
   58.9072   33.7049   47.9321 H   0  0  0  0  0  0  0  0  0  0  0  0
   59.7522   32.2931   48.7752 H   0  0  0  0  0  0  0  0  0  0  0  0
   59.7390   35.1468   49.7861 H   0  0  0  0  0  0  0  0  0  0  0  0
   58.6132   33.7905   50.3168 H   0  0  0  0  0  0  0  0  0  0  0  0
   59.0104   31.6001   50.4241 H   0  0  0  0  0  0  0  0  0  0  0  0
   57.1162   29.9836   50.2811 H   0  0  0  0  0  0  0  0  0  0  0  0
  1  2  2  0
  2  3  1  0
  3  4  1  0
  4  5  1  0
  5  6  1  0
  6  7  2  0
  6  8  1  0
  8  9  1  0
  9 10  1  0
  2 11  1  0
 11 12  1  0
 12 13  2  0
 13 14  1  0
 14 15  2  0
 15 16  1  0
 16 17  2  0
 16 18  2  0
 16 19  1  0
 19 20  1  0
 20 21  1  0
 21 22  1  0
 22 23  1  0
 23 24  1  0
 24 25  1  0
 15 26  1  0
 26 27  2  0
  9  4  2  0
 27 12  1  0
 25 19  1  0
  3 28  1  0
  3 29  1  0
 13 30  1  0
 14 31  1  0
 20 32  1  0
 20 33  1  0
 21 34  1  0
 21 35  1  0
 22 36  1  0
 22 37  1  0
 23 38  1  0
 23 39  1  0
 24 40  1  0
 24 41  1  0
 25 42  1  0
 25 43  1  0
 26 44  1  0
 27 45  1  0
M  CHG  3   8  -1  10  -1  11  -1
M  END
>  <UniqueID>  (5) 
4

>  <SMILES>  (5) 
O=C(Cc1sc(=O)[n-]c1[O-])[N-]c1ccc(S(=O)(=O)N2CCCCCC2)cc1

>  <Energy>  (5) 
93.22574178747678

>  <Genealogy>  (5) 
O=C(Cc1sc(=O)[n-]c1[O-])[N-]c1ccc(S(=O)(=O)N2CCCCCC2)cc1 (protonated)
O=C(Cc1sc(=O)[n-]c1[O-])[N-]c1ccc(S(=O)(=O)N2CCCCCC2)cc1 (3D coordinates assigned)
O=C(Cc1sc(=O)[n-]c1[O-])[N-]c1ccc(S(=O)(=O)N2CCCCCC2)cc1 (nonaromatic ring conformer: 93.22574178747678 kcal/mol)

>  <smiles>  (5) 
O=C(Cc1sc(=O)[nH]c1O)Nc1ccc(S(=O)(=O)N2CCCCCC2)cc1

>  <score_type>  (5) 
oracle

>  <origin>  (5) 
adg

>  <m_score__min__energy>  (5) 
-14.210000000000001

>  <m_primary>  (5) 
energy

$$$$
5:0
     RDKit          3D

 52 55  0  0  0  0  0  0  0  0999 V2000
   56.1560   29.8270   44.5100 O   0  0  0  0  0  0  0  0  0  0  0  0
   57.0090   30.6890   44.8560 C   0  0  0  0  0  0  0  0  0  0  0  0
   56.6460   31.9970   44.8570 N   0  0  0  0  0  0  0  0  0  0  0  0
   57.5090   32.9790   45.2110 C   0  0  0  0  0  0  0  0  0  0  0  0
   56.9650   34.5250   45.2520 S   0  0  0  0  0  0  0  0  0  0  0  0
   58.8200   32.6410   45.5830 C   0  0  0  0  0  0  0  0  0  0  0  0
   59.7880   33.6260   45.9790 N   0  0  0  0  0  0  0  0  0  0  0  0
   60.9420   33.3480   46.7930 C   0  0  0  0  0  0  0  0  0  0  0  0
   62.1930   33.8380   46.3890 C   0  0  0  0  0  0  0  0  0  0  0  0
   63.3340   33.5890   47.1570 C   0  0  0  0  0  0  0  0  0  0  0  0
   63.2350   32.8590   48.3440 C   0  0  0  0  0  0  0  0  0  0  0  0
   64.3430   32.6200   49.0870 F   0  0  0  0  0  0  0  0  0  0  0  0
   61.9920   32.3820   48.7670 C   0  0  0  0  0  0  0  0  0  0  0  0
   60.8450   32.6260   48.0040 C   0  0  0  0  0  0  0  0  0  0  0  0
   59.6480   32.1880   48.4680 F   0  0  0  0  0  0  0  0  0  0  0  0
   59.1680   31.2900   45.6080 C   0  0  0  0  0  0  0  0  0  0  0  0
   58.2780   30.3190   45.2330 N   0  0  0  0  0  0  0  0  0  0  0  0
   58.6900   28.8920   45.2480 C   0  0  1  0  0  0  0  0  0  0  0  0
   58.2120   28.1610   46.5320 C   0  0  0  0  0  0  0  0  0  0  0  0
   57.0870   27.1420   46.2610 C   0  0  0  0  0  0  0  0  0  0  0  0
   57.4140   26.1600   45.1860 N   0  0  2  0  0  0  0  0  0  0  0  0
   57.7880   24.8170   45.7040 C   0  0  0  0  0  0  0  0  0  0  0  0
   57.3880   23.6580   44.8080 C   0  0  0  0  0  0  0  0  0  0  0  0
   57.4450   22.3340   45.2800 C   0  0  0  0  0  0  0  0  0  0  0  0
   57.0660   21.2710   44.4550 C   0  0  0  0  0  0  0  0  0  0  0  0
   56.6070   21.5190   43.1600 C   0  0  0  0  0  0  0  0  0  0  0  0
   56.5120   22.8310   42.6920 C   0  0  0  0  0  0  0  0  0  0  0  0
   56.8890   23.8970   43.5140 C   0  0  0  0  0  0  0  0  0  0  0  0
   58.3680   26.6590   44.1590 C   0  0  0  0  0  0  0  0  0  0  0  0
   58.2470   28.1730   43.9590 C   0  0  0  0  0  0  0  0  0  0  0  0
   59.6010   34.6190   45.7110 H   0  0  0  0  0  0  0  0  0  0  0  0
   62.2765   34.4225   45.4609 H   0  0  0  0  0  0  0  0  0  0  0  0
   64.3119   33.9686   46.8261 H   0  0  0  0  0  0  0  0  0  0  0  0
   61.9147   31.8118   49.7045 H   0  0  0  0  0  0  0  0  0  0  0  0
   60.1771   30.9991   45.9354 H   0  0  0  0  0  0  0  0  0  0  0  0
   59.7893   28.8625   45.2728 H   0  0  0  0  0  0  0  0  0  0  0  0
   57.8408   28.9117   47.2453 H   0  0  0  0  0  0  0  0  0  0  0  0
   59.0715   27.6037   46.9329 H   0  0  0  0  0  0  0  0  0  0  0  0
   56.1827   27.6936   45.9643 H   0  0  0  0  0  0  0  0  0  0  0  0
   56.9428   26.5679   47.1881 H   0  0  0  0  0  0  0  0  0  0  0  0
   56.5140   26.0020   44.6720 H   0  0  0  0  0  0  0  0  0  0  0  0
   58.8803   24.7907   45.8313 H   0  0  0  0  0  0  0  0  0  0  0  0
   57.2393   24.6840   46.6480 H   0  0  0  0  0  0  0  0  0  0  0  0
   57.7901   22.1338   46.3051 H   0  0  0  0  0  0  0  0  0  0  0  0
   57.1295   20.2376   44.8267 H   0  0  0  0  0  0  0  0  0  0  0  0
   56.3201   20.6806   42.5083 H   0  0  0  0  0  0  0  0  0  0  0  0
   56.1401   23.0261   41.6753 H   0  0  0  0  0  0  0  0  0  0  0  0
   56.7950   24.9297   43.1469 H   0  0  0  0  0  0  0  0  0  0  0  0
   58.1584   26.1556   43.2037 H   0  0  0  0  0  0  0  0  0  0  0  0
   59.3889   26.4401   44.5052 H   0  0  0  0  0  0  0  0  0  0  0  0
   57.2018   28.4319   43.7341 H   0  0  0  0  0  0  0  0  0  0  0  0
   58.8877   28.4873   43.1219 H   0  0  0  0  0  0  0  0  0  0  0  0
  1  2  2  0
  2  3  1  0
  3  4  1  0
  4  5  2  0
  4  6  1  0
  6  7  1  0
  7  8  1  0
  8  9  2  0
  9 10  1  0
 10 11  2  0
 11 12  1  0
 11 13  1  0
 13 14  2  0
 14 15  1  0
  6 16  2  0
 16 17  1  0
 17 18  1  0
 18 19  1  0
 19 20  1  0
 20 21  1  0
 21 22  1  0
 22 23  1  0
 23 24  2  0
 24 25  1  0
 25 26  2  0
 26 27  1  0
 27 28  2  0
 21 29  1  0
 29 30  1  0
 17  2  1  0
 30 18  1  0
 14  8  1  0
 28 23  1  0
  7 31  1  0
  9 32  1  0
 10 33  1  0
 13 34  1  0
 16 35  1  0
 18 36  1  1
 19 37  1  0
 19 38  1  0
 20 39  1  0
 20 40  1  0
 21 41  1  6
 22 42  1  0
 22 43  1  0
 24 44  1  0
 25 45  1  0
 26 46  1  0
 27 47  1  0
 28 48  1  0
 29 49  1  0
 29 50  1  0
 30 51  1  0
 30 52  1  0
M  CHG  2   3  -1  21   1
M  END
>  <UniqueID>  (6) 
5

>  <SMILES>  (6) 
O=c1[n-]c(=S)c(Nc2ccc(F)cc2F)cn1C1CC[NH+](Cc2ccccc2)CC1

>  <Energy>  (6) 
82.62337933321865

>  <Genealogy>  (6) 
O=c1[n-]c(=S)c(Nc2ccc(F)cc2F)cn1C1CC[NH+](Cc2ccccc2)CC1 (protonated)
O=c1[n-]c(=S)c(Nc2ccc(F)cc2F)cn1C1CC[NH+](Cc2ccccc2)CC1 (3D coordinates assigned)
O=c1[n-]c(=S)c(Nc2ccc(F)cc2F)cn1C1CC[NH+](Cc2ccccc2)CC1 (nonaromatic ring conformer: 82.62337933321865 kcal/mol)

>  <smiles>  (6) 
O=c1[nH]c(=S)c(Nc2ccc(F)cc2F)cn1C1CCN(Cc2ccccc2)CC1

>  <score_type>  (6) 
oracle

>  <origin>  (6) 
adg

>  <m_score__min__energy>  (6) 
-8.7300000000000004

>  <m_primary>  (6) 
energy

$$$$
6:0
     RDKit          3D

 63 66  0  0  0  0  0  0  0  0999 V2000
   59.2620   34.2820   44.5140 C   0  0  0  0  0  0  0  0  0  0  0  0
   58.4110   34.0480   45.7840 C   0  0  2  0  0  0  0  0  0  0  0  0
   58.9040   34.9460   46.9140 C   0  0  0  0  0  0  0  0  0  0  0  0
   59.9330   34.1030   47.6560 C   0  0  0  0  0  0  0  0  0  0  0  0
   59.7120   32.6710   47.1740 C   0  0  0  0  0  0  0  0  0  0  0  0
   58.5050   32.6790   46.3320 N   0  0  0  0  0  0  0  0  0  0  0  0
   58.4660   31.5660   45.3500 C   0  0  2  0  0  0  0  0  0  0  0  0
   57.1420   31.5140   44.5790 C   0  0  0  0  0  0  0  0  0  0  0  0
   56.9260   30.0410   44.2540 C   0  0  0  0  0  0  0  0  0  0  0  0
   57.7150   29.3090   45.2330 N   0  0  0  0  0  0  0  0  0  0  0  0
   57.7060   27.8710   45.3820 C   0  0  0  0  0  0  0  0  0  0  0  0
   57.6530   27.2840   46.6590 C   0  0  0  0  0  0  0  0  0  0  0  0
   57.6670   25.8960   46.8080 C   0  0  0  0  0  0  0  0  0  0  0  0
   57.7200   25.0610   45.6880 C   0  0  0  0  0  0  0  0  0  0  0  0
   57.7770   23.6430   45.9000 N   0  0  0  0  0  0  0  0  0  0  0  0
   56.9080   22.8490   46.7210 C   0  0  0  0  0  0  0  0  0  0  0  0
   57.3540   22.2470   47.7330 O   0  0  0  0  0  0  0  0  0  0  0  0
   55.4750   22.6390   46.3050 C   0  0  0  0  0  0  0  0  0  0  0  0
   54.5140   22.8420   47.4910 C   0  0  0  0  0  0  0  0  0  0  0  0
   53.0470   22.5870   47.0740 C   0  0  0  0  0  0  0  0  0  0  0  0
   52.8460   22.6800   45.6090 N   0  0  0  0  0  0  0  0  0  0  0  0
   51.1430   22.8370   45.2460 S   0  0  0  0  0  0  0  0  0  0  0  0
   50.1610   22.4920   46.6920 C   0  0  0  0  0  0  0  0  0  0  0  0
   50.8360   24.2280   44.7620 O   0  0  0  0  0  0  0  0  0  0  0  0
   50.7690   21.8500   44.1760 O   0  0  0  0  0  0  0  0  0  0  0  0
   53.5830   23.8240   45.0460 C   0  0  0  0  0  0  0  0  0  0  0  0
   55.1030   23.5790   45.1380 C   0  0  0  0  0  0  0  0  0  0  0  0
   57.7940   25.6370   44.4080 C   0  0  0  0  0  0  0  0  0  0  0  0
   57.7760   27.0280   44.2560 C   0  0  0  0  0  0  0  0  0  0  0  0
   58.5400   30.2000   46.0360 C   0  0  0  0  0  0  0  0  0  0  0  0
   60.2849   34.5633   44.8047 H   0  0  0  0  0  0  0  0  0  0  0  0
   59.2913   33.3586   43.9170 H   0  0  0  0  0  0  0  0  0  0  0  0
   58.8151   35.0906   43.9170 H   0  0  0  0  0  0  0  0  0  0  0  0
   57.3788   34.2534   45.4640 H   0  0  0  0  0  0  0  0  0  0  0  0
   59.3679   35.8581   46.5105 H   0  0  0  0  0  0  0  0  0  0  0  0
   58.0855   35.2770   47.5702 H   0  0  0  0  0  0  0  0  0  0  0  0
   60.9520   34.4377   47.4120 H   0  0  0  0  0  0  0  0  0  0  0  0
   59.8200   34.1882   48.7469 H   0  0  0  0  0  0  0  0  0  0  0  0
   60.5788   32.3323   46.5876 H   0  0  0  0  0  0  0  0  0  0  0  0
   59.5905   31.9857   48.0258 H   0  0  0  0  0  0  0  0  0  0  0  0
   59.3246   31.7585   44.6898 H   0  0  0  0  0  0  0  0  0  0  0  0
   56.3187   31.8966   45.2001 H   0  0  0  0  0  0  0  0  0  0  0  0
   57.1702   32.1352   43.6716 H   0  0  0  0  0  0  0  0  0  0  0  0
   55.8614   29.7791   44.3444 H   0  0  0  0  0  0  0  0  0  0  0  0
   57.2279   29.8011   43.2238 H   0  0  0  0  0  0  0  0  0  0  0  0
   57.5999   27.9260   47.5507 H   0  0  0  0  0  0  0  0  0  0  0  0
   57.6361   25.4555   47.8155 H   0  0  0  0  0  0  0  0  0  0  0  0
   55.3734   21.5989   45.9618 H   0  0  0  0  0  0  0  0  0  0  0  0
   54.7848   22.1425   48.2956 H   0  0  0  0  0  0  0  0  0  0  0  0
   54.6016   23.8831   47.8352 H   0  0  0  0  0  0  0  0  0  0  0  0
   52.7566   21.5793   47.4061 H   0  0  0  0  0  0  0  0  0  0  0  0
   52.4272   23.3641   47.5450 H   0  0  0  0  0  0  0  0  0  0  0  0
   50.7530   22.7000   47.5955 H   0  0  0  0  0  0  0  0  0  0  0  0
   49.2641   23.1289   46.6867 H   0  0  0  0  0  0  0  0  0  0  0  0
   49.8595   21.4341   46.6867 H   0  0  0  0  0  0  0  0  0  0  0  0
   53.2997   23.9546   43.9912 H   0  0  0  0  0  0  0  0  0  0  0  0
   53.3311   24.7288   45.6186 H   0  0  0  0  0  0  0  0  0  0  0  0
   55.4461   23.1264   44.1960 H   0  0  0  0  0  0  0  0  0  0  0  0
   55.5900   24.5487   45.3183 H   0  0  0  0  0  0  0  0  0  0  0  0
   57.8665   24.9908   43.5208 H   0  0  0  0  0  0  0  0  0  0  0  0
   57.8169   27.4668   43.2482 H   0  0  0  0  0  0  0  0  0  0  0  0
   58.1481   30.2646   47.0618 H   0  0  0  0  0  0  0  0  0  0  0  0
   59.5763   29.8381   46.1078 H   0  0  0  0  0  0  0  0  0  0  0  0
  1  2  1  0
  2  3  1  0
  3  4  1  0
  4  5  1  0
  5  6  1  0
  6  7  1  0
  7  8  1  0
  8  9  1  0
  9 10  1  0
 10 11  1  0
 11 12  2  0
 12 13  1  0
 13 14  2  0
 14 15  1  0
 15 16  1  0
 16 17  2  0
 16 18  1  0
 18 19  1  0
 19 20  1  0
 20 21  1  0
 21 22  1  0
 22 23  1  0
 22 24  2  0
 22 25  2  0
 21 26  1  0
 26 27  1  0
 14 28  1  0
 28 29  2  0
 10 30  1  0
  6  2  1  0
 30  7  1  0
 29 11  1  0
 27 18  1  0
  1 31  1  0
  1 32  1  0
  1 33  1  0
  2 34  1  6
  3 35  1  0
  3 36  1  0
  4 37  1  0
  4 38  1  0
  5 39  1  0
  5 40  1  0
  7 41  1  6
  8 42  1  0
  8 43  1  0
  9 44  1  0
  9 45  1  0
 12 46  1  0
 13 47  1  0
 18 48  1  0
 19 49  1  0
 19 50  1  0
 20 51  1  0
 20 52  1  0
 23 53  1  0
 23 54  1  0
 23 55  1  0
 26 56  1  0
 26 57  1  0
 27 58  1  0
 27 59  1  0
 28 60  1  0
 29 61  1  0
 30 62  1  0
 30 63  1  0
M  CHG  1  15  -1
M  END
>  <UniqueID>  (7) 
6

>  <SMILES>  (7) 
C[C@@H]1CCCN1[C@@H]1CCN(c2ccc([N-]C(=O)C3CCN(S(C)(=O)=O)CC3)cc2)C1

>  <Energy>  (7) 
75.13932441264296

>  <Genealogy>  (7) 
CC1CCCN1C1CCN(c2ccc([N-]C(=O)C3CCN(S(C)(=O)=O)CC3)cc2)C1 (protonated)
C[C@@H]1CCCN1[C@@H]1CCN(c2ccc([N-]C(=O)C3CCN(S(C)(=O)=O)CC3)cc2)C1 (chirality)
C[C@@H]1CCCN1[C@@H]1CCN(c2ccc([N-]C(=O)C3CCN(S(C)(=O)=O)CC3)cc2)C1 (3D coordinates assigned)
C[C@@H]1CCCN1[C@@H]1CCN(c2ccc([N-]C(=O)C3CCN(S(C)(=O)=O)CC3)cc2)C1 (nonaromatic ring conformer: 75.13932441264296 kcal/mol)

>  <smiles>  (7) 
CC1CCCN1C1CCN(c2ccc(NC(=O)C3CCN(S(C)(=O)=O)CC3)cc2)C1

>  <score_type>  (7) 
oracle

>  <origin>  (7) 
adg

>  <m_score__min__energy>  (7) 
-10.640000000000001

>  <m_primary>  (7) 
energy

$$$$
7:0
     RDKit          3D

 49 51  0  0  0  0  0  0  0  0999 V2000
   57.7450   32.3880   42.9170 C   0  0  0  0  0  0  0  0  0  0  0  0
   58.1530   32.2300   44.3250 N   0  0  0  0  0  0  0  0  0  0  0  0
   58.1240   30.9930   44.9310 C   0  0  0  0  0  0  0  0  0  0  0  0
   57.6650   29.7460   44.2110 C   0  0  0  0  0  0  0  0  0  0  0  0
   56.6280   28.9780   44.9950 C   0  0  0  0  0  0  0  0  0  0  0  0
   55.4030   29.2400   44.8530 O   0  0  0  0  0  0  0  0  0  0  0  0
   57.0140   28.0370   46.0020 N   0  0  0  0  0  0  0  0  0  0  0  0
   57.5010   26.7120   45.7590 C   0  0  0  0  0  0  0  0  0  0  0  0
   56.6370   25.7260   45.2550 C   0  0  0  0  0  0  0  0  0  0  0  0
   57.0840   24.4160   45.0770 C   0  0  0  0  0  0  0  0  0  0  0  0
   55.9010   23.0920   44.3760 Br  0  0  0  0  0  0  0  0  0  0  0  0
   58.3920   24.0740   45.4190 C   0  0  0  0  0  0  0  0  0  0  0  0
   59.2530   25.0370   45.9500 C   0  0  0  0  0  0  0  0  0  0  0  0
   58.8150   26.3590   46.1390 C   0  0  0  0  0  0  0  0  0  0  0  0
   59.7550   27.3760   46.6730 C   0  0  0  0  0  0  0  0  0  0  0  0
   60.7100   27.7710   45.9490 O   0  0  0  0  0  0  0  0  0  0  0  0
   59.6000   27.9430   48.0300 C   0  0  0  0  0  0  0  0  0  0  0  0
   58.5650   28.8870   48.3090 N   0  0  0  0  0  0  0  0  0  0  0  0
   60.3690   27.5800   48.9600 O   0  0  0  0  0  0  0  0  0  0  0  0
   58.4850   30.8670   46.2350 N   0  0  0  0  0  0  0  0  0  0  0  0
   58.9130   31.9210   46.9750 C   0  0  0  0  0  0  0  0  0  0  0  0
   59.2660   31.7230   48.3610 N   0  0  0  0  0  0  0  0  0  0  0  0
   60.6140   31.2790   48.7370 C   0  0  0  0  0  0  0  0  0  0  0  0
   60.5850   30.5980   50.1090 C   0  0  0  0  0  0  0  0  0  0  0  0
   59.9340   31.4160   51.0620 O   0  0  0  0  0  0  0  0  0  0  0  0
   58.5690   31.5430   50.7180 C   0  0  0  0  0  0  0  0  0  0  0  0
   58.4090   32.3080   49.4010 C   0  0  0  0  0  0  0  0  0  0  0  0
   58.9910   33.1780   46.3700 C   0  0  0  0  0  0  0  0  0  0  0  0
   58.6110   33.3140   45.0350 C   0  0  0  0  0  0  0  0  0  0  0  0
   58.6990   34.4500   44.4980 O   0  0  0  0  0  0  0  0  0  0  0  0
   56.7200   32.7849   42.8746 H   0  0  0  0  0  0  0  0  0  0  0  0
   58.4296   33.0860   42.4130 H   0  0  0  0  0  0  0  0  0  0  0  0
   57.7810   31.4109   42.4130 H   0  0  0  0  0  0  0  0  0  0  0  0
   57.2321   30.0364   43.2424 H   0  0  0  0  0  0  0  0  0  0  0  0
   58.5400   29.0921   44.0814 H   0  0  0  0  0  0  0  0  0  0  0  0
   55.6000   25.9884   44.9986 H   0  0  0  0  0  0  0  0  0  0  0  0
   58.7464   23.0434   45.2702 H   0  0  0  0  0  0  0  0  0  0  0  0
   60.2818   24.7586   46.2224 H   0  0  0  0  0  0  0  0  0  0  0  0
   57.9300   29.2350   47.5540 H   0  0  0  0  0  0  0  0  0  0  0  0
   58.4300   29.2430   49.2800 H   0  0  0  0  0  0  0  0  0  0  0  0
   60.9842   30.5661   47.9856 H   0  0  0  0  0  0  0  0  0  0  0  0
   61.2789   32.1540   48.7853 H   0  0  0  0  0  0  0  0  0  0  0  0
   60.0465   29.6424   50.0260 H   0  0  0  0  0  0  0  0  0  0  0  0
   61.6201   30.4267   50.4396 H   0  0  0  0  0  0  0  0  0  0  0  0
   58.1299   30.5404   50.6083 H   0  0  0  0  0  0  0  0  0  0  0  0
   58.0551   32.1010   51.5146 H   0  0  0  0  0  0  0  0  0  0  0  0
   57.3591   32.2560   49.0770 H   0  0  0  0  0  0  0  0  0  0  0  0
   58.7046   33.3557   49.5590 H   0  0  0  0  0  0  0  0  0  0  0  0
   59.3475   34.0491   46.9393 H   0  0  0  0  0  0  0  0  0  0  0  0
  1  2  1  0
  2  3  1  0
  3  4  1  0
  4  5  1  0
  5  6  2  0
  5  7  1  0
  7  8  1  0
  8  9  2  0
  9 10  1  0
 10 11  1  0
 10 12  2  0
 12 13  1  0
 13 14  2  0
 14 15  1  0
 15 16  2  0
 15 17  1  0
 17 18  1  0
 17 19  2  0
  3 20  2  0
 20 21  1  0
 21 22  1  0
 22 23  1  0
 23 24  1  0
 24 25  1  0
 25 26  1  0
 26 27  1  0
 21 28  2  0
 28 29  1  0
 29 30  2  0
 29  2  1  0
 14  8  1  0
 27 22  1  0
  1 31  1  0
  1 32  1  0
  1 33  1  0
  4 34  1  0
  4 35  1  0
  9 36  1  0
 12 37  1  0
 13 38  1  0
 18 39  1  0
 18 40  1  0
 23 41  1  0
 23 42  1  0
 24 43  1  0
 24 44  1  0
 26 45  1  0
 26 46  1  0
 27 47  1  0
 27 48  1  0
 28 49  1  0
M  CHG  1   7  -1
M  END
>  <UniqueID>  (8) 
7

>  <SMILES>  (8) 
Cn1c(CC(=O)[N-]c2cc(Br)ccc2C(=O)C(N)=O)nc(N2CCOCC2)cc1=O

>  <Energy>  (8) 
68.19262288466207

>  <Genealogy>  (8) 
Cn1c(CC(=O)[N-]c2cc(Br)ccc2C(=O)C(N)=O)nc(N2CCOCC2)cc1=O (protonated)
Cn1c(CC(=O)[N-]c2cc(Br)ccc2C(=O)C(N)=O)nc(N2CCOCC2)cc1=O (3D coordinates assigned)
Cn1c(CC(=O)[N-]c2cc(Br)ccc2C(=O)C(N)=O)nc(N2CCOCC2)cc1=O (nonaromatic ring conformer: 68.19262288466207 kcal/mol)

>  <smiles>  (8) 
Cn1c(CC(=O)Nc2cc(Br)ccc2C(=O)C(N)=O)nc(N2CCOCC2)cc1=O

>  <score_type>  (8) 
oracle

>  <origin>  (8) 
adg

>  <m_score__min__energy>  (8) 
-10.720000000000001

>  <m_primary>  (8) 
energy

$$$$
8:0
     RDKit          3D

 41 43  0  0  0  0  0  0  0  0999 V2000
   60.6500   33.3260   50.0340 O   0  0  0  0  0  0  0  0  0  0  0  0
   59.4350   33.0090   49.9230 C   0  0  0  0  0  0  0  0  0  0  0  0
   58.9820   32.1960   48.7540 C   0  0  0  0  0  0  0  0  0  0  0  0
   58.8400   33.0710   47.5390 C   0  0  0  0  0  0  0  0  0  0  0  0
   57.7880   32.8610   46.6320 C   0  0  0  0  0  0  0  0  0  0  0  0
   57.6760   33.6550   45.4870 C   0  0  0  0  0  0  0  0  0  0  0  0
   58.6180   34.6560   45.2340 C   0  0  0  0  0  0  0  0  0  0  0  0
   59.6760   34.8620   46.1240 C   0  0  0  0  0  0  0  0  0  0  0  0
   59.7910   34.0700   47.2710 C   0  0  0  0  0  0  0  0  0  0  0  0
   58.4920   33.3800   50.9350 N   0  0  0  0  0  0  0  0  0  0  0  0
   58.4720   32.7920   52.2690 C   0  0  0  0  0  0  0  0  0  0  0  0
   57.7700   31.4720   52.2440 C   0  0  0  0  0  0  0  0  0  0  0  0
   56.4820   31.2330   52.6730 C   0  0  0  0  0  0  0  0  0  0  0  0
   56.3250   29.8760   52.4880 C   0  0  0  0  0  0  0  0  0  0  0  0
   55.0750   29.1000   52.7330 C   0  0  0  0  0  0  0  0  0  0  0  0
   54.1580   29.3410   51.6700 O   0  0  0  0  0  0  0  0  0  0  0  0
   53.1200   30.2830   51.7180 C   0  0  0  0  0  0  0  0  0  0  0  0
   52.5200   30.8060   50.5550 C   0  0  0  0  0  0  0  0  0  0  0  0
   51.4870   31.7430   50.6570 C   0  0  0  0  0  0  0  0  0  0  0  0
   51.0430   32.1650   51.9140 C   0  0  0  0  0  0  0  0  0  0  0  0
   50.0160   33.0950   52.0130 O   0  0  0  0  0  0  0  0  0  0  0  0
   51.6350   31.6510   53.0710 C   0  0  0  0  0  0  0  0  0  0  0  0
   52.6690   30.7140   52.9720 C   0  0  0  0  0  0  0  0  0  0  0  0
   57.4510   29.3490   51.9690 N   0  0  0  0  0  0  0  0  0  0  0  0
   58.3380   30.3220   51.8300 N   0  0  0  0  0  0  0  0  0  0  0  0
   59.7221   31.4081   48.5503 H   0  0  0  0  0  0  0  0  0  0  0  0
   58.0071   31.7430   48.9870 H   0  0  0  0  0  0  0  0  0  0  0  0
   57.0495   32.0686   46.8236 H   0  0  0  0  0  0  0  0  0  0  0  0
   56.8456   33.4918   44.7843 H   0  0  0  0  0  0  0  0  0  0  0  0
   58.5268   35.2820   44.3341 H   0  0  0  0  0  0  0  0  0  0  0  0
   60.4188   35.6478   45.9221 H   0  0  0  0  0  0  0  0  0  0  0  0
   60.6288   34.2297   47.9657 H   0  0  0  0  0  0  0  0  0  0  0  0
   59.5053   32.6469   52.6171 H   0  0  0  0  0  0  0  0  0  0  0  0
   57.9363   33.4692   52.9505 H   0  0  0  0  0  0  0  0  0  0  0  0
   55.7522   31.9544   53.0692 H   0  0  0  0  0  0  0  0  0  0  0  0
   55.3113   28.0267   52.7787 H   0  0  0  0  0  0  0  0  0  0  0  0
   54.6260   29.4142   53.6867 H   0  0  0  0  0  0  0  0  0  0  0  0
   52.8653   30.4762   49.5640 H   0  0  0  0  0  0  0  0  0  0  0  0
   51.0226   32.1491   49.7463 H   0  0  0  0  0  0  0  0  0  0  0  0
   51.2876   31.9835   54.0603 H   0  0  0  0  0  0  0  0  0  0  0  0
   53.1313   30.3127   53.8859 H   0  0  0  0  0  0  0  0  0  0  0  0
  1  2  2  0
  2  3  1  0
  3  4  1  0
  4  5  2  0
  5  6  1  0
  6  7  2  0
  7  8  1  0
  8  9  2  0
  2 10  1  0
 10 11  1  0
 11 12  1  0
 12 13  2  0
 13 14  1  0
 14 15  1  0
 15 16  1  0
 16 17  1  0
 17 18  2  0
 18 19  1  0
 19 20  2  0
 20 21  1  0
 20 22  1  0
 22 23  2  0
 14 24  2  0
 24 25  1  0
  9  4  1  0
 25 12  1  0
 23 17  1  0
  3 26  1  0
  3 27  1  0
  5 28  1  0
  6 29  1  0
  7 30  1  0
  8 31  1  0
  9 32  1  0
 11 33  1  0
 11 34  1  0
 13 35  1  0
 15 36  1  0
 15 37  1  0
 18 38  1  0
 19 39  1  0
 22 40  1  0
 23 41  1  0
M  CHG  3  10  -1  21  -1  25  -1
M  END
>  <UniqueID>  (9) 
8

>  <SMILES>  (9) 
O=C(Cc1ccccc1)[N-]Cc1cc(COc2ccc([O-])cc2)n[n-]1

>  <Energy>  (9) 
66.41359993181361

>  <Genealogy>  (9) 
O=C(Cc1ccccc1)[N-]Cc1cc(COc2ccc([O-])cc2)n[n-]1 (protonated)
O=C(Cc1ccccc1)[N-]Cc1cc(COc2ccc([O-])cc2)n[n-]1 (3D coordinates assigned)
O=C(Cc1ccccc1)[N-]Cc1cc(COc2ccc([O-])cc2)n[n-]1 (optimized conformer: 66.41359993181361 kcal/mol)

>  <smiles>  (9) 
O=C(Cc1ccccc1)NCc1cc(COc2ccc(O)cc2)n[nH]1

>  <score_type>  (9) 
oracle

>  <origin>  (9) 
adg

>  <m_score__min__energy>  (9) 
-13.81

>  <m_primary>  (9) 
energy

$$$$
9:0
     RDKit          3D

 50 51  0  0  0  0  0  0  0  0999 V2000
   49.9080   32.7670   53.2050 C   0  0  0  0  0  0  0  0  0  0  0  0
   50.6730   33.0840   52.0050 N   0  0  0  0  0  0  0  0  0  0  0  0
   51.4020   32.1340   51.2190 C   0  0  0  0  0  0  0  0  0  0  0  0
   51.4170   32.2700   49.9670 O   0  0  0  0  0  0  0  0  0  0  0  0
   52.1680   31.0300   51.8300 C   0  0  0  0  0  0  0  0  0  0  0  0
   51.4900   29.9620   52.4360 C   0  0  0  0  0  0  0  0  0  0  0  0
   52.2060   28.9050   53.0060 C   0  0  0  0  0  0  0  0  0  0  0  0
   53.6020   28.9110   52.9830 C   0  0  0  0  0  0  0  0  0  0  0  0
   54.2950   29.9900   52.4110 C   0  0  0  0  0  0  0  0  0  0  0  0
   55.8010   29.9830   52.3560 C   0  0  0  0  0  0  0  0  0  0  0  0
   56.3760   31.3830   52.0560 C   0  0  1  0  0  0  0  0  0  0  0  0
   57.1350   31.9530   53.2640 C   0  0  0  0  0  0  0  0  0  0  0  0
   57.2750   31.3160   50.8990 N   0  0  0  0  0  0  0  0  0  0  0  0
   58.4810   30.5380   50.9130 C   0  0  0  0  0  0  0  0  0  0  0  0
   58.8910   30.0160   51.9850 O   0  0  0  0  0  0  0  0  0  0  0  0
   59.2380   30.2940   49.6440 C   0  0  0  0  0  0  0  0  0  0  0  0
   58.3120   30.2870   48.5180 N   0  0  0  0  0  0  0  0  0  0  0  0
   58.6860   29.9200   47.1850 C   0  0  0  0  0  0  0  0  0  0  0  0
   59.2200   28.7970   46.9730 O   0  0  0  0  0  0  0  0  0  0  0  0
   58.3870   30.8350   46.0560 C   0  0  0  0  0  0  0  0  0  0  0  0
   59.1180   32.0350   45.9650 C   0  0  0  0  0  0  0  0  0  0  0  0
   58.8290   32.9760   44.9770 C   0  0  0  0  0  0  0  0  0  0  0  0
   57.8050   32.7380   44.0640 C   0  0  0  0  0  0  0  0  0  0  0  0
   57.0740   31.5500   44.1270 C   0  0  0  0  0  0  0  0  0  0  0  0
   57.3620   30.5770   45.1020 C   0  0  0  0  0  0  0  0  0  0  0  0
   56.6140   29.2990   45.0460 C   0  0  0  0  0  0  0  0  0  0  0  0
   55.2000   29.3060   44.8630 N   0  0  0  0  0  0  0  0  0  0  0  0
   57.2200   28.1990   45.1140 O   0  0  0  0  0  0  0  0  0  0  0  0
   53.5710   31.0500   51.8420 C   0  0  0  0  0  0  0  0  0  0  0  0
   50.5042   33.0140   54.0958 H   0  0  0  0  0  0  0  0  0  0  0  0
   48.9775   33.3536   53.2123 H   0  0  0  0  0  0  0  0  0  0  0  0
   49.6652   31.6942   53.2123 H   0  0  0  0  0  0  0  0  0  0  0  0
   50.3903   29.9560   52.4629 H   0  0  0  0  0  0  0  0  0  0  0  0
   51.6684   28.0669   53.4735 H   0  0  0  0  0  0  0  0  0  0  0  0
   54.1609   28.0675   53.4145 H   0  0  0  0  0  0  0  0  0  0  0  0
   56.1900   29.6399   53.3260 H   0  0  0  0  0  0  0  0  0  0  0  0
   56.1077   29.3088   51.5427 H   0  0  0  0  0  0  0  0  0  0  0  0
   55.5315   32.0524   51.8353 H   0  0  0  0  0  0  0  0  0  0  0  0
   56.6641   31.5993   54.1931 H   0  0  0  0  0  0  0  0  0  0  0  0
   58.1815   31.6157   53.2319 H   0  0  0  0  0  0  0  0  0  0  0  0
   57.1028   33.0521   53.2319 H   0  0  0  0  0  0  0  0  0  0  0  0
   57.0180   31.8230   50.0200 H   0  0  0  0  0  0  0  0  0  0  0  0
   59.9818   31.0919   49.5018 H   0  0  0  0  0  0  0  0  0  0  0  0
   59.7491   29.3218   49.7037 H   0  0  0  0  0  0  0  0  0  0  0  0
   59.9278   32.2329   46.6827 H   0  0  0  0  0  0  0  0  0  0  0  0
   59.4109   33.9077   44.9189 H   0  0  0  0  0  0  0  0  0  0  0  0
   57.5717   33.4865   43.2924 H   0  0  0  0  0  0  0  0  0  0  0  0
   56.2629   31.3725   43.4055 H   0  0  0  0  0  0  0  0  0  0  0  0
   54.5520   29.3430   45.6820 H   0  0  0  0  0  0  0  0  0  0  0  0
   54.1081   31.9032   51.4020 H   0  0  0  0  0  0  0  0  0  0  0  0
  1  2  1  0
  2  3  1  0
  3  4  2  0
  3  5  1  0
  5  6  2  0
  6  7  1  0
  7  8  2  0
  8  9  1  0
  9 10  1  0
 10 11  1  0
 11 12  1  0
 11 13  1  0
 13 14  1  0
 14 15  2  0
 14 16  1  0
 16 17  1  0
 17 18  1  0
 18 19  2  0
 18 20  1  0
 20 21  2  0
 21 22  1  0
 22 23  2  0
 23 24  1  0
 24 25  2  0
 25 26  1  0
 26 27  1  0
 26 28  2  0
  9 29  2  0
 29  5  1  0
 25 20  1  0
  1 30  1  0
  1 31  1  0
  1 32  1  0
  6 33  1  0
  7 34  1  0
  8 35  1  0
 10 36  1  0
 10 37  1  0
 11 38  1  6
 12 39  1  0
 12 40  1  0
 12 41  1  0
 13 42  1  0
 16 43  1  0
 16 44  1  0
 21 45  1  0
 22 46  1  0
 23 47  1  0
 24 48  1  0
 27 49  1  0
 29 50  1  0
M  CHG  3   2  -1  17  -1  27  -1
M  END
>  <UniqueID>  (10) 
9

>  <SMILES>  (10) 
C[N-]C(=O)c1cccc(C[C@@H](C)NC(=O)C[N-]C(=O)c2ccccc2C([NH-])=O)c1

>  <Energy>  (10) 
52.71931576389354

>  <Genealogy>  (10) 
C[N-]C(=O)c1cccc(CC(C)NC(=O)C[N-]C(=O)c2ccccc2C([NH-])=O)c1 (protonated)
C[N-]C(=O)c1cccc(C[C@@H](C)NC(=O)C[N-]C(=O)c2ccccc2C([NH-])=O)c1 (chirality)
C[N-]C(=O)c1cccc(C[C@@H](C)NC(=O)C[N-]C(=O)c2ccccc2C([NH-])=O)c1 (3D coordinates assigned)
C[N-]C(=O)c1cccc(C[C@@H](C)NC(=O)C[N-]C(=O)c2ccccc2C([NH-])=O)c1 (optimized conformer: 52.71931576389354 kcal/mol)

>  <smiles>  (10) 
CNC(=O)c1cccc(CC(C)NC(=O)CNC(=O)c2ccccc2C(N)=O)c1

>  <score_type>  (10) 
oracle

>  <origin>  (10) 
adg

>  <m_score__min__energy>  (10) 
-16.059999999999999

>  <m_primary>  (10) 
energy

$$$$
10:0
     RDKit          3D

 42 44  0  0  0  0  0  0  0  0999 V2000
   55.0690   21.1310   46.1100 C   0  0  0  0  0  0  0  0  0  0  0  0
   55.1250   22.6010   46.0470 N   0  0  0  0  0  0  0  0  0  0  0  0
   54.0010   23.3200   45.7300 C   0  0  0  0  0  0  0  0  0  0  0  0
   52.9150   22.7380   45.4640 O   0  0  0  0  0  0  0  0  0  0  0  0
   54.0410   24.6750   45.7030 N   0  0  0  0  0  0  0  0  0  0  0  0
   55.1710   25.3600   45.9930 C   0  0  0  0  0  0  0  0  0  0  0  0
   55.1430   26.7500   45.9770 O   0  0  0  0  0  0  0  0  0  0  0  0
   56.3400   24.6660   46.3340 C   0  0  0  0  0  0  0  0  0  0  0  0
   57.5920   25.3930   46.6620 C   0  0  0  0  0  0  0  0  0  0  0  0
   58.7010   24.8200   46.4920 O   0  0  0  0  0  0  0  0  0  0  0  0
   57.5800   26.7150   47.2180 N   0  0  0  0  0  0  0  0  0  0  0  0
   58.3710   27.8280   46.7760 C   0  0  0  0  0  0  0  0  0  0  0  0
   59.7750   27.7920   46.7980 C   0  0  0  0  0  0  0  0  0  0  0  0
   60.5130   28.8970   46.3690 C   0  0  0  0  0  0  0  0  0  0  0  0
   59.8590   30.0530   45.9330 C   0  0  0  0  0  0  0  0  0  0  0  0
   58.4560   30.1200   45.9410 C   0  0  0  0  0  0  0  0  0  0  0  0
   57.7560   31.3410   45.4780 C   0  0  0  0  0  0  0  0  0  0  0  0
   56.6750   31.2330   44.8360 O   0  0  0  0  0  0  0  0  0  0  0  0
   58.2990   32.6480   45.7270 N   0  0  0  0  0  0  0  0  0  0  0  0
   58.1390   33.6980   44.7190 C   0  0  0  0  0  0  0  0  0  0  0  0
   59.2410   34.7480   44.8910 C   0  0  0  0  0  0  0  0  0  0  0  0
   59.2850   35.2180   46.2270 O   0  0  0  0  0  0  0  0  0  0  0  0
   59.6510   34.1630   47.0960 C   0  0  0  0  0  0  0  0  0  0  0  0
   58.5780   33.0700   47.1040 C   0  0  0  0  0  0  0  0  0  0  0  0
   57.7200   28.9980   46.3630 C   0  0  0  0  0  0  0  0  0  0  0  0
   56.2840   23.2610   46.3740 C   0  0  0  0  0  0  0  0  0  0  0  0
   57.3140   22.6060   46.7030 O   0  0  0  0  0  0  0  0  0  0  0  0
   55.0567   20.8093   47.1618 H   0  0  0  0  0  0  0  0  0  0  0  0
   54.1567   20.7770   45.6076 H   0  0  0  0  0  0  0  0  0  0  0  0
   55.9517   20.7086   45.6076 H   0  0  0  0  0  0  0  0  0  0  0  0
   60.2948   26.8904   47.1543 H   0  0  0  0  0  0  0  0  0  0  0  0
   61.6123   28.8577   46.3741 H   0  0  0  0  0  0  0  0  0  0  0  0
   60.4460   30.9145   45.5819 H   0  0  0  0  0  0  0  0  0  0  0  0
   58.2091   33.2549   43.7146 H   0  0  0  0  0  0  0  0  0  0  0  0
   57.1562   34.1764   44.8428 H   0  0  0  0  0  0  0  0  0  0  0  0
   60.2113   34.2974   44.6352 H   0  0  0  0  0  0  0  0  0  0  0  0
   59.0255   35.5971   44.2258 H   0  0  0  0  0  0  0  0  0  0  0  0
   60.6041   33.7306   46.7574 H   0  0  0  0  0  0  0  0  0  0  0  0
   59.7541   34.5643   48.1150 H   0  0  0  0  0  0  0  0  0  0  0  0
   58.9368   32.2083   47.6859 H   0  0  0  0  0  0  0  0  0  0  0  0
   57.6576   33.4633   47.5604 H   0  0  0  0  0  0  0  0  0  0  0  0
   56.6208   29.0396   46.3688 H   0  0  0  0  0  0  0  0  0  0  0  0
  1  2  1  0
  2  3  1  0
  3  4  2  0
  3  5  1  0
  5  6  1  0
  6  7  1  0
  6  8  2  0
  8  9  1  0
  9 10  2  0
  9 11  1  0
 11 12  1  0
 12 13  2  0
 13 14  1  0
 14 15  2  0
 15 16  1  0
 16 17  1  0
 17 18  2  0
 17 19  1  0
 19 20  1  0
 20 21  1  0
 21 22  1  0
 22 23  1  0
 23 24  1  0
 16 25  2  0
  8 26  1  0
 26 27  2  0
 26  2  1  0
 25 12  1  0
 24 19  1  0
  1 28  1  0
  1 29  1  0
  1 30  1  0
 13 31  1  0
 14 32  1  0
 15 33  1  0
 20 34  1  0
 20 35  1  0
 21 36  1  0
 21 37  1  0
 23 38  1  0
 23 39  1  0
 24 40  1  0
 24 41  1  0
 25 42  1  0
M  CHG  3   5  -1   7  -1  11  -1
M  END
>  <UniqueID>  (11) 
10

>  <SMILES>  (11) 
Cn1c(=O)[n-]c([O-])c(C(=O)[N-]c2cccc(C(=O)N3CCOCC3)c2)c1=O

>  <Energy>  (11) 
63.26683668520617

>  <Genealogy>  (11) 
Cn1c(=O)[n-]c([O-])c(C(=O)[N-]c2cccc(C(=O)N3CCOCC3)c2)c1=O (protonated)
Cn1c(=O)[n-]c([O-])c(C(=O)[N-]c2cccc(C(=O)N3CCOCC3)c2)c1=O (3D coordinates assigned)
Cn1c(=O)[n-]c([O-])c(C(=O)[N-]c2cccc(C(=O)N3CCOCC3)c2)c1=O (nonaromatic ring conformer: 63.26683668520617 kcal/mol)

>  <smiles>  (11) 
Cn1c(=O)[nH]c(O)c(C(=O)Nc2cccc(C(=O)N3CCOCC3)c2)c1=O

>  <score_type>  (11) 
oracle

>  <origin>  (11) 
adg

>  <m_score__min__energy>  (11) 
-15.369999999999999

>  <m_primary>  (11) 
energy

$$$$
11:0
     RDKit          3D

 61 64  0  0  1  0  0  0  0  0999 V2000
   58.6300   33.2090   51.8520 C   0  0  0  0  0  0  0  0  0  0  0  0
   58.2680   31.9870   52.1800 C   0  0  0  0  0  0  0  0  0  0  0  0
   58.2500   30.8710   51.2200 C   0  0  0  0  0  0  0  0  0  0  0  0
   57.2460   30.1290   51.2560 O   0  0  0  0  0  0  0  0  0  0  0  0
   59.2790   30.6340   50.3110 N   0  0  0  0  0  0  0  0  0  0  0  0
   59.3700   29.6060   49.3520 C   0  0  0  0  0  0  0  0  0  0  0  0
   58.5170   29.4240   48.2940 C   0  0  0  0  0  0  0  0  0  0  0  0
   58.6560   28.3840   47.3740 C   0  0  0  0  0  0  0  0  0  0  0  0
   57.7510   28.2270   46.2880 N   0  0  0  0  0  0  0  0  0  0  0  0
   57.5060   29.1990   45.4530 C   0  0  0  0  0  0  0  0  0  0  0  0
   57.8810   30.4390   45.8280 N   0  0  0  0  0  0  0  0  0  0  0  0
   57.6360   31.4670   44.9730 C   0  0  0  0  0  0  0  0  0  0  0  0
   58.0070   32.7990   45.3080 N   0  0  0  0  0  0  0  0  0  0  0  0
   57.4250   33.9030   44.5360 C   0  0  0  0  0  0  0  0  0  0  0  0
   58.9190   33.0640   46.3630 C   0  0  0  0  0  0  0  0  0  0  0  0
   58.6830   34.0630   47.3130 C   0  0  0  0  0  0  0  0  0  0  0  0
   59.6000   34.2790   48.3190 C   0  0  0  0  0  0  0  0  0  0  0  0
   60.7530   33.5200   48.4000 C   0  0  0  0  0  0  0  0  0  0  0  0
   61.0090   32.5280   47.4740 C   0  0  0  0  0  0  0  0  0  0  0  0
   62.2490   31.6990   47.5460 C   0  0  0  0  0  0  0  0  0  0  0  0
   60.0720   32.3210   46.4630 C   0  0  0  0  0  0  0  0  0  0  0  0
   57.0180   31.2400   43.7530 C   0  0  0  0  0  0  0  0  0  0  0  0
   56.6690   29.9560   43.4490 C   0  0  0  0  0  0  0  0  0  0  0  0
   56.9050   28.9270   44.2850 N   0  0  0  0  0  0  0  0  0  0  0  0
   59.6810   27.4710   47.4930 C   0  0  0  0  0  0  0  0  0  0  0  0
   60.5460   27.6390   48.5500 C   0  0  0  0  0  0  0  0  0  0  0  0
   60.4050   28.6730   49.4600 C   0  0  0  0  0  0  0  0  0  0  0  0
   61.3750   28.7310   50.4990 N   0  0  0  0  0  0  0  0  0  0  0  0
   61.5600   27.7000   51.4890 C   0  0  0  0  0  0  0  0  0  0  0  0
   61.2290   28.3500   52.8360 C   0  0  0  0  0  0  0  0  0  0  0  0
   61.7650   29.6110   52.9360 O   0  0  0  0  0  0  0  0  0  0  0  0
   62.7940   29.8450   52.0330 C   0  0  0  0  0  0  0  0  0  0  0  0
   62.2660   29.8980   50.6080 C   0  0  0  0  0  0  0  0  0  0  0  0
   58.6250   34.0062   52.6099 H   0  0  0  0  0  0  0  0  0  0  0  0
   58.9376   33.4332   50.8200 H   0  0  0  0  0  0  0  0  0  0  0  0
   57.9650   31.7904   53.2190 H   0  0  0  0  0  0  0  0  0  0  0  0
   60.1000   31.3110   50.3450 H   0  0  0  0  0  0  0  0  0  0  0  0
   57.6842   30.1308   48.1644 H   0  0  0  0  0  0  0  0  0  0  0  0
   57.0252   34.6615   45.2251 H   0  0  0  0  0  0  0  0  0  0  0  0
   58.2013   34.3564   43.9021 H   0  0  0  0  0  0  0  0  0  0  0  0
   56.6123   33.5187   43.9021 H   0  0  0  0  0  0  0  0  0  0  0  0
   57.7697   34.6735   47.2575 H   0  0  0  0  0  0  0  0  0  0  0  0
   59.4125   35.0643   49.0661 H   0  0  0  0  0  0  0  0  0  0  0  0
   61.4732   33.7082   49.2098 H   0  0  0  0  0  0  0  0  0  0  0  0
   62.5119   31.5232   48.5996 H   0  0  0  0  0  0  0  0  0  0  0  0
   62.0751   30.7349   47.0457 H   0  0  0  0  0  0  0  0  0  0  0  0
   63.0734   32.2282   47.0457 H   0  0  0  0  0  0  0  0  0  0  0  0
   60.2617   31.5345   45.7178 H   0  0  0  0  0  0  0  0  0  0  0  0
   56.8160   32.0655   43.0546 H   0  0  0  0  0  0  0  0  0  0  0  0
   56.1770   29.7544   42.4860 H   0  0  0  0  0  0  0  0  0  0  0  0
   56.6280   27.9520   44.0280 H   0  0  0  0  0  0  0  0  0  0  0  0
   59.8023   26.6457   46.7760 H   0  0  0  0  0  0  0  0  0  0  0  0
   61.3765   26.9287   48.6761 H   0  0  0  0  0  0  0  0  0  0  0  0
   60.8821   26.8559   51.2942 H   0  0  0  0  0  0  0  0  0  0  0  0
   62.5856   27.3026   51.4726 H   0  0  0  0  0  0  0  0  0  0  0  0
   60.1361   28.4177   52.9404 H   0  0  0  0  0  0  0  0  0  0  0  0
   61.6628   27.7283   53.6331 H   0  0  0  0  0  0  0  0  0  0  0  0
   63.2737   30.8049   52.2749 H   0  0  0  0  0  0  0  0  0  0  0  0
   63.5201   29.0221   52.1076 H   0  0  0  0  0  0  0  0  0  0  0  0
   61.7082   30.8301   50.4349 H   0  0  0  0  0  0  0  0  0  0  0  0
   63.0744   29.8770   49.8623 H   0  0  0  0  0  0  0  0  0  0  0  0
  1  2  2  0
  2  3  1  0
  3  4  2  0
  3  5  1  0
  5  6  1  0
  6  7  2  0
  7  8  1  0
  8  9  1  0
  9 10  2  0
 10 11  1  0
 11 12  2  0
 12 13  1  0
 13 14  1  0
 13 15  1  0
 15 16  2  0
 16 17  1  0
 17 18  2  0
 18 19  1  0
 19 20  1  0
 19 21  2  0
 12 22  1  0
 22 23  2  0
 23 24  1  0
  8 25  2  0
 25 26  1  0
 26 27  2  0
 27 28  1  0
 28 29  1  0
 29 30  1  0
 30 31  1  0
 31 32  1  0
 32 33  1  0
 27  6  1  0
 33 28  1  0
 24 10  1  0
 21 15  1  0
  1 34  1  0
  1 35  1  0
  2 36  1  0
  5 37  1  0
  7 38  1  0
 14 39  1  0
 14 40  1  0
 14 41  1  0
 16 42  1  0
 17 43  1  0
 18 44  1  0
 20 45  1  0
 20 46  1  0
 20 47  1  0
 21 48  1  0
 22 49  1  0
 23 50  1  0
 24 51  1  0
 25 52  1  0
 26 53  1  0
 29 54  1  0
 29 55  1  0
 30 56  1  0
 30 57  1  0
 32 58  1  0
 32 59  1  0
 33 60  1  0
 33 61  1  0
M  END
>  <smiles>  (12) 
C=CC(=O)Nc1cc(N=c2nc(N(C)c3cccc(C)c3)cc[nH]2)ccc1N1CCOCC1

>  <score_type>  (12) 
oracle

>  <origin>  (12) 
adg

>  <m_score__min__energy>  (12) 
-9.3699999999999992

>  <m_primary>  (12) 
energy

$$$$
12:0
     RDKit          3D

 49 52  0  0  0  0  0  0  0  0999 V2000
   57.5160   32.3100   43.5270 C   0  0  0  0  0  0  0  0  0  0  0  0
   57.8920   31.3470   44.3720 C   0  0  0  0  0  0  0  0  0  0  0  0
   58.0440   30.0610   44.0030 N   0  0  0  0  0  0  0  0  0  0  0  0
   58.4670   29.3750   45.0850 C   0  0  0  0  0  0  0  0  0  0  0  0
   58.7290   28.0560   45.0270 C   0  0  0  0  0  0  0  0  0  0  0  0
   57.9350   27.0090   45.6980 C   0  0  0  0  0  0  0  0  0  0  0  0
   56.5390   27.1140   45.7710 C   0  0  0  0  0  0  0  0  0  0  0  0
   55.8880   28.2280   45.2460 O   0  0  0  0  0  0  0  0  0  0  0  0
   55.8170   26.1290   46.3670 N   0  0  0  0  0  0  0  0  0  0  0  0
   56.4240   25.0300   46.8830 C   0  0  0  0  0  0  0  0  0  0  0  0
   55.5300   23.8650   47.5960 S   0  0  0  0  0  0  0  0  0  0  0  0
   57.7720   24.8940   46.7990 N   0  0  0  0  0  0  0  0  0  0  0  0
   58.5370   25.8500   46.2130 C   0  0  0  0  0  0  0  0  0  0  0  0
   59.7850   25.6860   46.1370 O   0  0  0  0  0  0  0  0  0  0  0  0
   58.5580   30.2380   46.1840 C   0  0  0  0  0  0  0  0  0  0  0  0
   58.8300   29.8880   47.6220 C   0  0  0  0  0  0  0  0  0  0  0  0
   58.2110   31.5010   45.7130 C   0  0  0  0  0  0  0  0  0  0  0  0
   58.1560   32.7490   46.5050 C   0  0  0  0  0  0  0  0  0  0  0  0
   57.0330   33.2640   46.7620 O   0  0  0  0  0  0  0  0  0  0  0  0
   59.3590   33.3730   46.9870 N   0  0  0  0  0  0  0  0  0  0  0  0
   59.3250   34.1680   48.2210 C   0  0  0  0  0  0  0  0  0  0  0  0
   60.5910   33.9410   49.0670 C   0  0  0  0  0  0  0  0  0  0  0  0
   61.8820   33.6940   48.2370 C   0  0  0  0  0  0  0  0  0  0  0  0
   61.7070   34.1660   46.7820 C   0  0  0  0  0  0  0  0  0  0  0  0
   60.5390   33.4300   46.1110 C   0  0  0  0  0  0  0  0  0  0  0  0
   62.1650   32.3080   48.2310 O   0  0  0  0  0  0  0  0  0  0  0  0
   63.4650   32.1760   48.7040 C   0  0  0  0  0  0  0  0  0  0  0  0
   63.8050   33.4740   49.3640 C   0  0  0  0  0  0  0  0  0  0  0  0
   62.9460   34.4220   48.8150 O   0  0  0  0  0  0  0  0  0  0  0  0
   57.4080   33.3445   43.8850 H   0  0  0  0  0  0  0  0  0  0  0  0
   57.3142   32.0689   42.4729 H   0  0  0  0  0  0  0  0  0  0  0  0
   57.8840   29.6710   43.0440 H   0  0  0  0  0  0  0  0  0  0  0  0
   59.5993   27.7350   44.4357 H   0  0  0  0  0  0  0  0  0  0  0  0
   55.9470   28.4480   44.2580 H   0  0  0  0  0  0  0  0  0  0  0  0
   58.2881   30.5853   48.2779 H   0  0  0  0  0  0  0  0  0  0  0  0
   58.4912   28.8603   47.8197 H   0  0  0  0  0  0  0  0  0  0  0  0
   59.9095   29.9626   47.8197 H   0  0  0  0  0  0  0  0  0  0  0  0
   59.2555   35.2340   47.9588 H   0  0  0  0  0  0  0  0  0  0  0  0
   58.4515   33.8551   48.8119 H   0  0  0  0  0  0  0  0  0  0  0  0
   60.7500   34.8308   49.6939 H   0  0  0  0  0  0  0  0  0  0  0  0
   60.4162   33.0279   49.6550 H   0  0  0  0  0  0  0  0  0  0  0  0
   61.5047   35.2472   46.7747 H   0  0  0  0  0  0  0  0  0  0  0  0
   62.6301   33.9473   46.2252 H   0  0  0  0  0  0  0  0  0  0  0  0
   60.2701   33.9577   45.1841 H   0  0  0  0  0  0  0  0  0  0  0  0
   60.8591   32.3994   45.8982 H   0  0  0  0  0  0  0  0  0  0  0  0
   63.5242   31.3522   49.4306 H   0  0  0  0  0  0  0  0  0  0  0  0
   64.1661   31.9465   47.8880 H   0  0  0  0  0  0  0  0  0  0  0  0
   63.6500   33.4020   50.4506 H   0  0  0  0  0  0  0  0  0  0  0  0
   64.8589   33.7440   49.2013 H   0  0  0  0  0  0  0  0  0  0  0  0
  1  2  2  0
  2  3  1  0
  3  4  1  0
  4  5  2  3
  5  6  1  0
  6  7  2  0
  7  8  1  0
  7  9  1  0
  9 10  1  0
 10 11  2  0
 10 12  1  0
 12 13  1  0
 13 14  2  0
  4 15  1  0
 15 16  1  0
 15 17  2  0
 17 18  1  0
 18 19  2  0
 18 20  1  0
 20 21  1  0
 21 22  1  0
 22 23  1  0
 23 24  1  0
 24 25  1  0
 23 26  1  0
 26 27  1  0
 27 28  1  0
 28 29  1  0
 17  2  1  0
 25 20  1  0
 13  6  1  0
 29 23  1  0
  1 30  1  0
  1 31  1  0
  3 32  1  0
  5 33  1  0
  8 34  1  0
 16 35  1  0
 16 36  1  0
 16 37  1  0
 21 38  1  0
 21 39  1  0
 22 40  1  0
 22 41  1  0
 24 42  1  0
 24 43  1  0
 25 44  1  0
 25 45  1  0
 27 46  1  0
 27 47  1  0
 28 48  1  0
 28 49  1  0
M  CHG  2   9  -1  12  -1
M  END
>  <UniqueID>  (13) 
11

>  <SMILES>  (13) 
C=c1[nH]c(=Cc2c(O)[n-]c(=S)[n-]c2=O)c(C)c1C(=O)N1CCC2(CC1)OCCO2

>  <Energy>  (13) 
92.42144572131778

>  <Genealogy>  (13) 
C=c1[nH]c(=Cc2c(O)[n-]c(=S)[n-]c2=O)c(C)c1C(=O)N1CCC2(CC1)OCCO2 (protonated)
C=c1[nH]c(=Cc2c(O)[n-]c(=S)[n-]c2=O)c(C)c1C(=O)N1CCC2(CC1)OCCO2 (3D coordinates assigned)
C=c1[nH]c(=Cc2c(O)[n-]c(=S)[n-]c2=O)c(C)c1C(=O)N1CCC2(CC1)OCCO2 (nonaromatic ring conformer: 92.42144572131778 kcal/mol)

>  <smiles>  (13) 
C=c1[nH]c(=Cc2c(O)[nH]c(=S)[nH]c2=O)c(C)c1C(=O)N1CCC2(CC1)OCCO2

>  <score_type>  (13) 
oracle

>  <origin>  (13) 
adg

>  <m_score__min__energy>  (13) 
-12.970000000000001

>  <m_primary>  (13) 
energy

$$$$
13:0
     RDKit          3D

 69 73  0  0  0  0  0  0  0  0999 V2000
   57.2630   30.4940   43.9940 C   0  0  0  0  0  0  0  0  0  0  0  0
   57.0380   31.1960   45.2150 O   0  0  0  0  0  0  0  0  0  0  0  0
   57.7700   32.3180   45.6340 C   0  0  0  0  0  0  0  0  0  0  0  0
   58.0000   33.3400   44.7050 C   0  0  0  0  0  0  0  0  0  0  0  0
   58.7250   34.4750   45.0670 C   0  0  0  0  0  0  0  0  0  0  0  0
   59.2150   34.6060   46.3690 C   0  0  0  0  0  0  0  0  0  0  0  0
   58.9950   33.5960   47.3320 C   0  0  0  0  0  0  0  0  0  0  0  0
   59.6480   33.7490   48.7080 C   0  0  2  0  0  0  0  0  0  0  0  0
   61.1410   33.4560   48.7900 C   0  0  0  0  0  0  0  0  0  0  0  0
   61.7110   33.4930   50.0770 C   0  0  0  0  0  0  0  0  0  0  0  0
   63.0550   33.3930   50.2320 N   0  0  0  0  0  0  0  0  0  0  0  0
   63.8760   33.2440   49.1620 C   0  0  0  0  0  0  0  0  0  0  0  0
   65.3580   33.0990   49.3780 C   0  0  0  0  0  0  0  0  0  0  0  0
   65.7350   32.6220   50.7950 C   0  0  0  0  0  0  0  0  0  0  0  0
   65.6280   31.0970   50.9870 C   0  0  0  0  0  0  0  0  0  0  0  0
   64.4330   30.7160   51.7700 N   0  0  0  0  0  0  0  0  0  0  0  0
   64.0280   31.8000   52.6890 C   0  0  0  0  0  0  0  0  0  0  0  0
   62.7250   31.4180   53.4080 C   0  0  0  0  0  0  0  0  0  0  0  0
   61.6920   31.1730   52.4720 O   0  0  0  0  0  0  0  0  0  0  0  0
   62.0470   30.0790   51.6520 C   0  0  0  0  0  0  0  0  0  0  0  0
   63.3220   30.3930   50.8540 C   0  0  0  0  0  0  0  0  0  0  0  0
   63.3450   33.1570   47.9160 N   0  0  0  0  0  0  0  0  0  0  0  0
   62.0120   33.2770   47.6970 C   0  0  0  0  0  0  0  0  0  0  0  0
   61.5840   33.2240   46.5170 O   0  0  0  0  0  0  0  0  0  0  0  0
   60.8710   33.6330   51.2360 N   0  0  0  0  0  0  0  0  0  0  0  0
   59.5740   33.4930   51.1890 C   0  0  0  0  0  0  0  0  0  0  0  0
   58.7760   33.6670   52.4440 C   0  0  0  0  0  0  0  0  0  0  0  0
   58.8950   33.0780   49.8960 C   0  0  2  0  0  0  0  0  0  0  0  0
   58.8660   31.5700   49.8620 C   0  0  0  0  0  0  0  0  0  0  0  0
   57.8740   30.9460   50.3370 O   0  0  0  0  0  0  0  0  0  0  0  0
   59.9450   30.8580   49.2340 N   0  0  0  0  0  0  0  0  0  0  0  0
   59.8540   29.9970   48.0850 C   0  0  0  0  0  0  0  0  0  0  0  0
   60.7220   30.2160   46.9990 C   0  0  0  0  0  0  0  0  0  0  0  0
   60.6670   29.3950   45.8660 C   0  0  0  0  0  0  0  0  0  0  0  0
   59.7280   28.3580   45.8000 C   0  0  0  0  0  0  0  0  0  0  0  0
   58.8210   28.1670   46.8460 C   0  0  0  0  0  0  0  0  0  0  0  0
   58.8800   28.9820   47.9860 C   0  0  0  0  0  0  0  0  0  0  0  0
   58.2820   32.4420   46.9430 C   0  0  0  0  0  0  0  0  0  0  0  0
   57.5918   29.4681   44.2161 H   0  0  0  0  0  0  0  0  0  0  0  0
   56.3301   30.4621   43.4121 H   0  0  0  0  0  0  0  0  0  0  0  0
   58.0406   31.0104   43.4121 H   0  0  0  0  0  0  0  0  0  0  0  0
   57.6060   33.2470   43.6822 H   0  0  0  0  0  0  0  0  0  0  0  0
   58.9112   35.2675   44.3272 H   0  0  0  0  0  0  0  0  0  0  0  0
   59.7797   35.5078   46.6480 H   0  0  0  0  0  0  0  0  0  0  0  0
   59.5425   34.8368   48.8326 H   0  0  0  0  0  0  0  0  0  0  0  0
   65.7449   32.3691   48.6517 H   0  0  0  0  0  0  0  0  0  0  0  0
   65.8008   34.0974   49.2469 H   0  0  0  0  0  0  0  0  0  0  0  0
   66.7727   32.9251   50.9983 H   0  0  0  0  0  0  0  0  0  0  0  0
   65.0177   33.0834   51.4897 H   0  0  0  0  0  0  0  0  0  0  0  0
   65.5712   30.6184   49.9982 H   0  0  0  0  0  0  0  0  0  0  0  0
   66.5168   30.7630   51.5425 H   0  0  0  0  0  0  0  0  0  0  0  0
   64.8213   31.9620   53.4337 H   0  0  0  0  0  0  0  0  0  0  0  0
   63.8655   32.7220   52.1115 H   0  0  0  0  0  0  0  0  0  0  0  0
   62.8946   30.5098   54.0050 H   0  0  0  0  0  0  0  0  0  0  0  0
   62.4225   32.2511   54.0595 H   0  0  0  0  0  0  0  0  0  0  0  0
   62.2241   29.1961   52.2838 H   0  0  0  0  0  0  0  0  0  0  0  0
   61.2261   29.8834   50.9465 H   0  0  0  0  0  0  0  0  0  0  0  0
   63.5951   29.5172   50.2470 H   0  0  0  0  0  0  0  0  0  0  0  0
   63.1322   31.2587   50.2025 H   0  0  0  0  0  0  0  0  0  0  0  0
   59.4299   33.5244   53.3170 H   0  0  0  0  0  0  0  0  0  0  0  0
   58.3473   34.6797   52.4685 H   0  0  0  0  0  0  0  0  0  0  0  0
   57.9646   32.9247   52.4685 H   0  0  0  0  0  0  0  0  0  0  0  0
   57.8512   33.4167   49.8195 H   0  0  0  0  0  0  0  0  0  0  0  0
   61.4501   31.0395   47.0406 H   0  0  0  0  0  0  0  0  0  0  0  0
   61.3603   29.5643   45.0290 H   0  0  0  0  0  0  0  0  0  0  0  0
   59.7043   27.6932   44.9240 H   0  0  0  0  0  0  0  0  0  0  0  0
   58.0596   27.3762   46.7751 H   0  0  0  0  0  0  0  0  0  0  0  0
   58.1634   28.8288   48.8064 H   0  0  0  0  0  0  0  0  0  0  0  0
   58.1236   31.6302   47.6682 H   0  0  0  0  0  0  0  0  0  0  0  0
  1  2  1  0
  2  3  1  0
  3  4  2  0
  4  5  1  0
  5  6  2  0
  6  7  1  0
  7  8  1  0
  8  9  1  0
  9 10  2  0
 10 11  1  0
 11 12  1  0
 12 13  1  0
 13 14  1  0
 14 15  1  0
 15 16  1  0
 16 17  1  0
 17 18  1  0
 18 19  1  0
 19 20  1  0
 20 21  1  0
 12 22  2  0
 22 23  1  0
 23 24  2  0
 10 25  1  0
 25 26  2  0
 26 27  1  0
 26 28  1  0
 28 29  1  0
 29 30  2  0
 29 31  1  0
 31 32  1  0
 32 33  2  0
 33 34  1  0
 34 35  2  0
 35 36  1  0
 36 37  2  0
  7 38  2  0
 38  3  1  0
 28  8  1  0
 37 32  1  0
 23  9  1  0
 21 16  1  0
  1 39  1  0
  1 40  1  0
  1 41  1  0
  4 42  1  0
  5 43  1  0
  6 44  1  0
  8 45  1  1
 13 46  1  0
 13 47  1  0
 14 48  1  0
 14 49  1  0
 15 50  1  0
 15 51  1  0
 17 52  1  0
 17 53  1  0
 18 54  1  0
 18 55  1  0
 20 56  1  0
 20 57  1  0
 21 58  1  0
 21 59  1  0
 27 60  1  0
 27 61  1  0
 27 62  1  0
 28 63  1  1
 33 64  1  0
 34 65  1  0
 35 66  1  0
 36 67  1  0
 37 68  1  0
 38 69  1  0
M  CHG  2  11  -1  31  -1
M  END
>  <UniqueID>  (14) 
12

>  <SMILES>  (14) 
COc1cccc([C@@H]2c3c([n-]c(CCCN4CCOCC4)nc3=O)N=C(C)[C@@H]2C(=O)[N-]c2ccccc2)c1

>  <Energy>  (14) 
89.54430851616199

>  <Genealogy>  (14) 
COc1cccc(C2c3c([n-]c(CCCN4CCOCC4)nc3=O)N=C(C)C2C(=O)[N-]c2ccccc2)c1 (protonated)
COc1cccc([C@@H]2c3c([n-]c(CCCN4CCOCC4)nc3=O)N=C(C)[C@@H]2C(=O)[N-]c2ccccc2)c1 (chirality)
COc1cccc([C@@H]2c3c([n-]c(CCCN4CCOCC4)nc3=O)N=C(C)[C@@H]2C(=O)[N-]c2ccccc2)c1 (3D coordinates assigned)
COc1cccc([C@@H]2c3c([n-]c(CCCN4CCOCC4)nc3=O)N=C(C)[C@@H]2C(=O)[N-]c2ccccc2)c1 (nonaromatic ring conformer: 89.54430851616199 kcal/mol)

>  <smiles>  (14) 
COc1cccc(C2c3c([nH]c(CCCN4CCOCC4)nc3=O)N=C(C)C2C(=O)Nc2ccccc2)c1

>  <score_type>  (14) 
oracle

>  <origin>  (14) 
adg

>  <m_score__min__energy>  (14) 
-11.380000000000001

>  <m_primary>  (14) 
energy

$$$$
14:0
     RDKit          3D

 55 58  0  0  0  0  0  0  0  0999 V2000
   58.4320   29.6930   47.3410 C   0  0  0  0  0  0  0  0  0  0  0  0
   58.0250   29.5350   46.0720 C   0  0  0  0  0  0  0  0  0  0  0  0
   58.0170   28.3360   45.3520 C   0  0  0  0  0  0  0  0  0  0  0  0
   58.4600   27.1320   45.7630 C   0  0  0  0  0  0  0  0  0  0  0  0
   57.5810   26.0510   46.2460 C   0  0  0  0  0  0  0  0  0  0  0  0
   58.0300   24.9180   46.8100 N   0  0  0  0  0  0  0  0  0  0  0  0
   56.9170   24.2570   47.1840 C   0  0  0  0  0  0  0  0  0  0  0  0
   56.9450   23.1300   47.7450 O   0  0  0  0  0  0  0  0  0  0  0  0
   55.7690   24.9150   46.9170 N   0  0  0  0  0  0  0  0  0  0  0  0
   56.2030   26.0510   46.3370 C   0  0  0  0  0  0  0  0  0  0  0  0
   55.3580   27.0810   45.9460 O   0  0  0  0  0  0  0  0  0  0  0  0
   57.5090   28.6400   44.0970 C   0  0  0  0  0  0  0  0  0  0  0  0
   57.2270   29.9910   44.1000 C   0  0  0  0  0  0  0  0  0  0  0  0
   56.6400   30.7330   42.9360 C   0  0  0  0  0  0  0  0  0  0  0  0
   57.5380   30.5390   45.2980 N   0  0  0  0  0  0  0  0  0  0  0  0
   57.3990   31.9580   45.6670 C   0  0  0  0  0  0  0  0  0  0  0  0
   58.6180   32.4410   46.4130 C   0  0  0  0  0  0  0  0  0  0  0  0
   59.8990   31.9950   46.0510 C   0  0  0  0  0  0  0  0  0  0  0  0
   61.0270   32.4510   46.7370 C   0  0  0  0  0  0  0  0  0  0  0  0
   60.8980   33.3760   47.7870 C   0  0  0  0  0  0  0  0  0  0  0  0
   62.0600   33.8350   48.5050 N   0  0  0  0  0  0  0  0  0  0  0  0
   61.9460   34.2030   49.9250 C   0  0  0  0  0  0  0  0  0  0  0  0
   63.3210   34.2360   50.6120 C   0  0  0  0  0  0  0  0  0  0  0  0
   64.1810   33.0500   50.1330 C   0  0  0  0  0  0  0  0  0  0  0  0
   65.5100   33.0030   50.8960 C   0  0  0  0  0  0  0  0  0  0  0  0
   64.4180   33.0920   48.6000 C   0  0  0  0  0  0  0  0  0  0  0  0
   63.3690   33.9250   47.8440 C   0  0  0  0  0  0  0  0  0  0  0  0
   59.6160   33.8250   48.1440 C   0  0  0  0  0  0  0  0  0  0  0  0
   58.4880   33.3690   47.4580 C   0  0  0  0  0  0  0  0  0  0  0  0
   58.3947   30.6869   47.8108 H   0  0  0  0  0  0  0  0  0  0  0  0
   58.8029   28.8286   47.9113 H   0  0  0  0  0  0  0  0  0  0  0  0
   59.5435   26.9438   45.7367 H   0  0  0  0  0  0  0  0  0  0  0  0
   59.0220   24.6150   46.9320 H   0  0  0  0  0  0  0  0  0  0  0  0
   57.3600   27.9399   43.2617 H   0  0  0  0  0  0  0  0  0  0  0  0
   55.9972   31.5455   43.3056 H   0  0  0  0  0  0  0  0  0  0  0  0
   57.4505   31.1560   42.3244 H   0  0  0  0  0  0  0  0  0  0  0  0
   56.0418   30.0416   42.3244 H   0  0  0  0  0  0  0  0  0  0  0  0
   57.2748   32.5575   44.7531 H   0  0  0  0  0  0  0  0  0  0  0  0
   56.5205   32.0674   46.3199 H   0  0  0  0  0  0  0  0  0  0  0  0
   60.0151   31.2817   45.2217 H   0  0  0  0  0  0  0  0  0  0  0  0
   62.0241   32.0832   46.4531 H   0  0  0  0  0  0  0  0  0  0  0  0
   61.4852   35.1990   50.0000 H   0  0  0  0  0  0  0  0  0  0  0  0
   61.3273   33.4457   50.4286 H   0  0  0  0  0  0  0  0  0  0  0  0
   63.8299   35.1787   50.3623 H   0  0  0  0  0  0  0  0  0  0  0  0
   63.1814   34.1630   51.7007 H   0  0  0  0  0  0  0  0  0  0  0  0
   63.6243   32.1263   50.3494 H   0  0  0  0  0  0  0  0  0  0  0  0
   65.3120   33.0100   51.9780 H   0  0  0  0  0  0  0  0  0  0  0  0
   66.0540   32.0851   50.6287 H   0  0  0  0  0  0  0  0  0  0  0  0
   66.1175   33.8802   50.6287 H   0  0  0  0  0  0  0  0  0  0  0  0
   65.4107   33.5271   48.4121 H   0  0  0  0  0  0  0  0  0  0  0  0
   64.3412   32.0588   48.2304 H   0  0  0  0  0  0  0  0  0  0  0  0
   63.6907   34.9767   47.8216 H   0  0  0  0  0  0  0  0  0  0  0  0
   63.2762   33.5325   46.8206 H   0  0  0  0  0  0  0  0  0  0  0  0
   59.4993   34.5415   48.9705 H   0  0  0  0  0  0  0  0  0  0  0  0
   57.4911   33.7396   47.7386 H   0  0  0  0  0  0  0  0  0  0  0  0
  1  2  2  0
  2  3  1  0
  3  4  2  3
  4  5  1  0
  5  6  1  0
  6  7  1  0
  7  8  2  0
  7  9  1  0
  9 10  1  0
 10 11  1  0
  3 12  1  0
 12 13  2  0
 13 14  1  0
 13 15  1  0
 15 16  1  0
 16 17  1  0
 17 18  2  0
 18 19  1  0
 19 20  2  0
 20 21  1  0
 21 22  1  0
 22 23  1  0
 23 24  1  0
 24 25  1  0
 24 26  1  0
 26 27  1  0
 20 28  1  0
 28 29  2  0
 15  2  1  0
 29 17  1  0
 10  5  2  0
 27 21  1  0
  1 30  1  0
  1 31  1  0
  4 32  1  0
  6 33  1  0
 12 34  1  0
 14 35  1  0
 14 36  1  0
 14 37  1  0
 16 38  1  0
 16 39  1  0
 18 40  1  0
 19 41  1  0
 22 42  1  0
 22 43  1  0
 23 44  1  0
 23 45  1  0
 24 46  1  0
 25 47  1  0
 25 48  1  0
 25 49  1  0
 26 50  1  0
 26 51  1  0
 27 52  1  0
 27 53  1  0
 28 54  1  0
 29 55  1  0
M  CHG  2   9  -1  11  -1
M  END
>  <UniqueID>  (15) 
13

>  <SMILES>  (15) 
C=c1c(=Cc2[nH]c(=O)[n-]c2[O-])cc(C)n1Cc1ccc(N2CCC(C)CC2)cc1

>  <Energy>  (15) 
126.88992085715302

>  <Genealogy>  (15) 
C=c1c(=Cc2[nH]c(=O)[n-]c2[O-])cc(C)n1Cc1ccc(N2CCC(C)CC2)cc1 (protonated)
C=c1c(=Cc2[nH]c(=O)[n-]c2[O-])cc(C)n1Cc1ccc(N2CCC(C)CC2)cc1 (3D coordinates assigned)
C=c1c(=Cc2[nH]c(=O)[n-]c2[O-])cc(C)n1Cc1ccc(N2CCC(C)CC2)cc1 (nonaromatic ring conformer: 126.88992085715302 kcal/mol)

>  <smiles>  (15) 
C=c1c(=Cc2[nH]c(=O)[nH]c2O)cc(C)n1Cc1ccc(N2CCC(C)CC2)cc1

>  <score_type>  (15) 
oracle

>  <origin>  (15) 
adg

>  <m_score__min__energy>  (15) 
-14.289999999999999

>  <m_primary>  (15) 
energy

$$$$
15:0
     RDKit          3D

 64 68  0  0  0  0  0  0  0  0999 V2000
   55.1390   27.4820   45.3610 H   0  0  0  0  0  0  0  0  0  0  0  0
   55.0170   26.7100   46.0050 O   0  0  0  0  0  0  0  0  0  0  0  0
   56.0220   25.7690   46.2150 C   0  0  0  0  0  0  0  0  0  0  0  0
   55.8880   24.7190   47.0410 N   0  0  0  0  0  0  0  0  0  0  0  0
   57.0590   24.0660   46.8890 C   0  0  0  0  0  0  0  0  0  0  0  0
   57.3260   23.0020   47.5050 O   0  0  0  0  0  0  0  0  0  0  0  0
   57.9190   24.6380   46.0200 N   0  0  0  0  0  0  0  0  0  0  0  0
   57.2640   25.7390   45.6130 C   0  0  0  0  0  0  0  0  0  0  0  0
   57.7780   26.6530   44.5830 C   0  0  0  0  0  0  0  0  0  0  0  0
   57.9485   26.2335   43.5805 H   0  0  0  0  0  0  0  0  0  0  0  0
   58.0590   27.9600   44.7580 C   0  0  0  0  0  0  0  0  0  0  0  0
   57.2070   28.9650   44.3360 C   0  0  0  0  0  0  0  0  0  0  0  0
   56.2709   28.8367   43.7727 H   0  0  0  0  0  0  0  0  0  0  0  0
   57.7550   30.1570   44.7560 C   0  0  0  0  0  0  0  0  0  0  0  0
   57.0930   31.4910   44.5810 C   0  0  0  0  0  0  0  0  0  0  0  0
   56.8773   31.9256   45.5682 H   0  0  0  0  0  0  0  0  0  0  0  0
   57.7625   32.1622   44.0232 H   0  0  0  0  0  0  0  0  0  0  0  0
   56.1535   31.3637   44.0232 H   0  0  0  0  0  0  0  0  0  0  0  0
   58.9240   29.9430   45.4090 N   0  0  0  0  0  0  0  0  0  0  0  0
   59.7490   31.0000   46.0260 C   0  0  0  0  0  0  0  0  0  0  0  0
   60.6660   31.1340   45.4335 H   0  0  0  0  0  0  0  0  0  0  0  0
   59.1681   31.9339   46.0478 H   0  0  0  0  0  0  0  0  0  0  0  0
   60.1230   30.6290   47.4400 C   0  0  0  0  0  0  0  0  0  0  0  0
   59.1980   29.9680   48.2630 C   0  0  0  0  0  0  0  0  0  0  0  0
   58.1986   29.7242   47.8734 H   0  0  0  0  0  0  0  0  0  0  0  0
   59.5350   29.6170   49.5720 C   0  0  0  0  0  0  0  0  0  0  0  0
   58.8019   29.0930   50.2029 H   0  0  0  0  0  0  0  0  0  0  0  0
   60.8020   29.9280   50.0880 C   0  0  0  0  0  0  0  0  0  0  0  0
   61.1540   29.5580   51.4360 N   0  0  0  0  0  0  0  0  0  0  0  0
   60.2680   28.6610   52.1970 C   0  0  0  0  0  0  0  0  0  0  0  0
   59.3378   29.1972   52.4361 H   0  0  0  0  0  0  0  0  0  0  0  0
   60.0637   27.7746   51.5785 H   0  0  0  0  0  0  0  0  0  0  0  0
   60.9220   28.1930   53.5030 C   0  0  0  0  0  0  0  0  0  0  0  0
   60.8482   28.9937   54.2536 H   0  0  0  0  0  0  0  0  0  0  0  0
   60.4022   27.2925   53.8621 H   0  0  0  0  0  0  0  0  0  0  0  0
   62.3360   27.8710   53.2750 N   0  0  0  0  0  0  0  0  0  0  0  0
   62.9290   26.7650   53.9670 C   0  0  0  0  0  0  0  0  0  0  0  0
   63.5980   27.0030   55.1770 C   0  0  0  0  0  0  0  0  0  0  0  0
   63.6841   28.0309   55.5591 H   0  0  0  0  0  0  0  0  0  0  0  0
   64.1550   25.9480   55.9000 C   0  0  0  0  0  0  0  0  0  0  0  0
   64.6824   26.1463   56.8447 H   0  0  0  0  0  0  0  0  0  0  0  0
   64.0430   24.6430   55.4250 C   0  0  0  0  0  0  0  0  0  0  0  0
   64.4763   23.8111   55.9997 H   0  0  0  0  0  0  0  0  0  0  0  0
   63.3820   24.3880   54.2210 C   0  0  0  0  0  0  0  0  0  0  0  0
   63.2883   23.3531   53.8601 H   0  0  0  0  0  0  0  0  0  0  0  0
   62.8340   25.4430   53.4640 C   0  0  0  0  0  0  0  0  0  0  0  0
   62.0940   25.1380   52.1760 C   0  0  0  0  0  0  0  0  0  0  0  0
   62.5020   23.9100   51.6910 F   0  0  0  0  0  0  0  0  0  0  0  0
   60.7280   25.1120   52.3890 F   0  0  0  0  0  0  0  0  0  0  0  0
   62.3510   26.0990   51.2120 F   0  0  0  0  0  0  0  0  0  0  0  0
   63.2070   28.8110   52.5530 C   0  0  0  0  0  0  0  0  0  0  0  0
   63.9944   29.1659   53.2343 H   0  0  0  0  0  0  0  0  0  0  0  0
   63.6462   28.2867   51.6915 H   0  0  0  0  0  0  0  0  0  0  0  0
   62.4150   30.0150   52.0350 C   0  0  0  0  0  0  0  0  0  0  0  0
   62.1970   30.6962   52.8708 H   0  0  0  0  0  0  0  0  0  0  0  0
   63.0096   30.5419   51.2742 H   0  0  0  0  0  0  0  0  0  0  0  0
   61.7300   30.5880   49.2660 C   0  0  0  0  0  0  0  0  0  0  0  0
   62.7298   30.8287   49.6565 H   0  0  0  0  0  0  0  0  0  0  0  0
   61.3940   30.9420   47.9550 C   0  0  0  0  0  0  0  0  0  0  0  0
   62.3090   31.5910   47.1950 F   0  0  0  0  0  0  0  0  0  0  0  0
   59.1450   28.5980   45.3850 C   0  0  0  0  0  0  0  0  0  0  0  0
   60.2820   28.0120   45.8000 C   0  0  0  0  0  0  0  0  0  0  0  0
   61.0674   28.6139   46.2805 H   0  0  0  0  0  0  0  0  0  0  0  0
   60.4267   26.9307   45.6590 H   0  0  0  0  0  0  0  0  0  0  0  0
  1  2  1  0
  2  3  1  0
  3  4  1  0
  4  5  1  0
  5  6  2  0
  5  7  1  0
  7  8  1  0
  8  9  1  0
  9 10  1  0
  9 11  2  0
 11 12  1  0
 12 13  1  0
 12 14  2  0
 14 15  1  0
 15 16  1  0
 15 17  1  0
 15 18  1  0
 14 19  1  0
 19 20  1  0
 20 21  1  0
 20 22  1  0
 20 23  1  0
 23 24  2  0
 24 25  1  0
 24 26  1  0
 26 27  1  0
 26 28  2  0
 28 29  1  0
 29 30  1  0
 30 31  1  0
 30 32  1  0
 30 33  1  0
 33 34  1  0
 33 35  1  0
 33 36  1  0
 36 37  1  0
 37 38  2  0
 38 39  1  0
 38 40  1  0
 40 41  1  0
 40 42  2  0
 42 43  1  0
 42 44  1  0
 44 45  1  0
 44 46  2  0
 46 47  1  0
 47 48  1  0
 47 49  1  0
 47 50  1  0
 36 51  1  0
 51 52  1  0
 51 53  1  0
 51 54  1  0
 54 55  1  0
 54 56  1  0
 28 57  1  0
 57 58  1  0
 57 59  2  0
 59 60  1  0
 19 61  1  0
 61 62  2  0
 62 63  1  0
 62 64  1  0
  8  3  2  0
 61 11  1  0
 59 23  1  0
 54 29  1  0
 46 37  1  0
M  CHG  2   4  -1   7  -1
M  END
>  <UniqueID>  (16) 
14

>  <SMILES>  (16) 
C=c1/c(=C\c2[n-]c(=O)[n-]c2O)cc(C)n1Cc1ccc(N2CCN(c3ccccc3C(F)(F)F)CC2)cc1F

>  <Energy>  (16) 
150.2881300418339

>  <Genealogy>  (16) 
C=c1c(=Cc2[n-]c(=O)[n-]c2O)cc(C)n1Cc1ccc(N2CCN(c3ccccc3C(F)(F)F)CC2)cc1F (protonated)
C=c1/c(=C\c2[n-]c(=O)[n-]c2O)cc(C)n1Cc1ccc(N2CCN(c3ccccc3C(F)(F)F)CC2)cc1F (cis-trans isomerization)
C=c1/c(=C\c2[n-]c(=O)[n-]c2O)cc(C)n1Cc1ccc(N2CCN(c3ccccc3C(F)(F)F)CC2)cc1F (3D coordinates assigned)
C=c1/c(=C\c2[n-]c(=O)[n-]c2O)cc(C)n1Cc1ccc(N2CCN(c3ccccc3C(F)(F)F)CC2)cc1F (nonaromatic ring conformer: 150.2881300418339 kcal/mol)

>  <smiles>  (16) 
C=c1c(=Cc2[nH]c(=O)[nH]c2O)cc(C)n1Cc1ccc(N2CCN(c3ccccc3C(F)(F)F)CC2)cc1F

>  <score_type>  (16) 
oracle

>  <origin>  (16) 
adg

>  <m_score__min__energy>  (16) 
-14.56

>  <m_primary>  (16) 
energy

$$$$
16:0
     RDKit          3D

 56 59  0  0  0  0  0  0  0  0999 V2000
   53.9970   28.4810   52.9790 C   0  0  0  0  0  0  0  0  0  0  0  0
   54.7150   29.6100   52.8600 C   0  0  0  0  0  0  0  0  0  0  0  0
   54.4240   30.6990   52.0240 C   0  0  0  0  0  0  0  0  0  0  0  0
   53.3140   31.0090   51.3260 C   0  0  0  0  0  0  0  0  0  0  0  0
   52.0570   31.5190   51.8950 C   0  0  0  0  0  0  0  0  0  0  0  0
   51.7030   31.4170   53.1900 N   0  0  0  0  0  0  0  0  0  0  0  0
   50.5640   32.1400   53.2610 C   0  0  0  0  0  0  0  0  0  0  0  0
   49.9120   32.2740   54.3280 O   0  0  0  0  0  0  0  0  0  0  0  0
   50.1870   32.7170   52.1000 N   0  0  0  0  0  0  0  0  0  0  0  0
   51.1510   32.3270   51.2510 C   0  0  0  0  0  0  0  0  0  0  0  0
   51.2040   32.7040   49.9150 O   0  0  0  0  0  0  0  0  0  0  0  0
   55.5470   31.5040   52.0360 C   0  0  0  0  0  0  0  0  0  0  0  0
   56.4520   30.9320   52.9080 C   0  0  0  0  0  0  0  0  0  0  0  0
   57.7810   31.5210   53.1960 C   0  0  0  0  0  0  0  0  0  0  0  0
   58.0570   31.8560   54.3800 O   0  0  0  0  0  0  0  0  0  0  0  0
   58.7040   31.8010   52.1380 N   0  0  0  0  0  0  0  0  0  0  0  0
   58.7810   31.1400   50.8680 C   0  0  0  0  0  0  0  0  0  0  0  0
   58.9080   29.7440   50.7600 C   0  0  0  0  0  0  0  0  0  0  0  0
   58.9550   29.1360   49.5010 C   0  0  0  0  0  0  0  0  0  0  0  0
   58.8610   29.9090   48.3330 C   0  0  0  0  0  0  0  0  0  0  0  0
   58.8990   29.2740   47.0410 N   0  0  0  0  0  0  0  0  0  0  0  0
   59.0800   30.0830   45.8330 C   0  0  0  0  0  0  0  0  0  0  0  0
   59.9000   29.3050   44.7960 C   0  0  0  0  0  0  0  0  0  0  0  0
   59.3720   27.9450   44.5590 N   0  0  0  0  0  0  0  0  0  0  0  0
   58.1290   27.9480   43.7700 C   0  0  0  0  0  0  0  0  0  0  0  0
   59.2480   27.1720   45.8120 C   0  0  0  0  0  0  0  0  0  0  0  0
   58.4170   27.8990   46.8770 C   0  0  0  0  0  0  0  0  0  0  0  0
   58.7080   31.3010   48.4460 C   0  0  0  0  0  0  0  0  0  0  0  0
   58.6600   31.9080   49.7040 C   0  0  0  0  0  0  0  0  0  0  0  0
   55.9380   29.7880   53.4330 N   0  0  0  0  0  0  0  0  0  0  0  0
   56.5820   28.9020   54.4170 C   0  0  0  0  0  0  0  0  0  0  0  0
   57.7360   28.1330   53.7800 C   0  0  0  0  0  0  0  0  0  0  0  0
   54.3247   27.6911   53.6709 H   0  0  0  0  0  0  0  0  0  0  0  0
   53.0813   28.3463   52.3846 H   0  0  0  0  0  0  0  0  0  0  0  0
   53.3510   30.8685   50.2356 H   0  0  0  0  0  0  0  0  0  0  0  0
   55.6929   32.4286   51.4583 H   0  0  0  0  0  0  0  0  0  0  0  0
   58.9706   29.1275   51.6689 H   0  0  0  0  0  0  0  0  0  0  0  0
   59.0664   28.0443   49.4257 H   0  0  0  0  0  0  0  0  0  0  0  0
   58.0953   30.3285   45.4085 H   0  0  0  0  0  0  0  0  0  0  0  0
   59.6152   31.0075   46.0955 H   0  0  0  0  0  0  0  0  0  0  0  0
   59.8843   29.8596   43.8462 H   0  0  0  0  0  0  0  0  0  0  0  0
   60.9224   29.2020   45.1885 H   0  0  0  0  0  0  0  0  0  0  0  0
   57.2637   27.9501   44.4491 H   0  0  0  0  0  0  0  0  0  0  0  0
   58.0995   28.8462   43.1357 H   0  0  0  0  0  0  0  0  0  0  0  0
   58.0952   27.0499   43.1357 H   0  0  0  0  0  0  0  0  0  0  0  0
   58.7654   26.2098   45.5855 H   0  0  0  0  0  0  0  0  0  0  0  0
   60.2608   27.0337   46.2184 H   0  0  0  0  0  0  0  0  0  0  0  0
   57.3624   27.9181   46.5650 H   0  0  0  0  0  0  0  0  0  0  0  0
   58.5147   27.3669   47.8347 H   0  0  0  0  0  0  0  0  0  0  0  0
   58.6255   31.9171   47.5385 H   0  0  0  0  0  0  0  0  0  0  0  0
   58.5262   32.9972   49.7799 H   0  0  0  0  0  0  0  0  0  0  0  0
   56.9686   29.5082   55.2495 H   0  0  0  0  0  0  0  0  0  0  0  0
   55.8367   28.1804   54.7827 H   0  0  0  0  0  0  0  0  0  0  0  0
   58.3735   27.7082   54.5694 H   0  0  0  0  0  0  0  0  0  0  0  0
   57.3351   27.3209   53.1557 H   0  0  0  0  0  0  0  0  0  0  0  0
   58.3312   28.8157   53.1557 H   0  0  0  0  0  0  0  0  0  0  0  0
  1  2  2  0
  2  3  1  0
  3  4  2  3
  4  5  1  0
  5  6  1  0
  6  7  1  0
  7  8  2  0
  7  9  1  0
  9 10  1  0
 10 11  1  0
  3 12  1  0
 12 13  2  0
 13 14  1  0
 14 15  2  0
 14 16  1  0
 16 17  1  0
 17 18  2  0
 18 19  1  0
 19 20  2  0
 20 21  1  0
 21 22  1  0
 22 23  1  0
 23 24  1  0
 24 25  1  0
 24 26  1  0
 26 27  1  0
 20 28  1  0
 28 29  2  0
 13 30  1  0
 30 31  1  0
 31 32  1  0
 30  2  1  0
 10  5  2  0
 29 17  1  0
 27 21  1  0
  1 33  1  0
  1 34  1  0
  4 35  1  0
 12 36  1  0
 18 37  1  0
 19 38  1  0
 22 39  1  0
 22 40  1  0
 23 41  1  0
 23 42  1  0
 25 43  1  0
 25 44  1  0
 25 45  1  0
 26 46  1  0
 26 47  1  0
 27 48  1  0
 27 49  1  0
 28 50  1  0
 29 51  1  0
 31 52  1  0
 31 53  1  0
 32 54  1  0
 32 55  1  0
 32 56  1  0
M  CHG  4   6  -1   9  -1  11  -1  16  -1
M  END
>  <UniqueID>  (17) 
15

>  <SMILES>  (17) 
C=c1c(=Cc2[n-]c(=O)[n-]c2[O-])cc(C(=O)[N-]c2ccc(N3CCN(C)CC3)cc2)n1CC

>  <Energy>  (17) 
138.03243849248014

>  <Genealogy>  (17) 
C=c1c(=Cc2[n-]c(=O)[n-]c2[O-])cc(C(=O)[N-]c2ccc(N3CCN(C)CC3)cc2)n1CC (protonated)
C=c1c(=Cc2[n-]c(=O)[n-]c2[O-])cc(C(=O)[N-]c2ccc(N3CCN(C)CC3)cc2)n1CC (3D coordinates assigned)
C=c1c(=Cc2[n-]c(=O)[n-]c2[O-])cc(C(=O)[N-]c2ccc(N3CCN(C)CC3)cc2)n1CC (nonaromatic ring conformer: 138.03243849248014 kcal/mol)

>  <smiles>  (17) 
C=c1c(=Cc2[nH]c(=O)[nH]c2O)cc(C(=O)Nc2ccc(N3CCN(C)CC3)cc2)n1CC

>  <score_type>  (17) 
oracle

>  <origin>  (17) 
adg

>  <m_score__min__energy>  (17) 
-18.420000000000002

>  <m_primary>  (17) 
energy

$$$$
17:0
     RDKit          3D

 57 61  0  0  0  0  0  0  0  0999 V2000
   60.0309   26.5428   49.1379 H   0  0  0  0  0  0  0  0  0  0  0  0
   59.3370   26.7200   48.3030 C   0  0  0  0  0  0  0  0  0  0  0  0
   58.5726   25.9691   48.0543 H   0  0  0  0  0  0  0  0  0  0  0  0
   59.4230   27.8520   47.5880 C   0  0  0  0  0  0  0  0  0  0  0  0
   58.6180   28.2260   46.5000 C   0  0  0  0  0  0  0  0  0  0  0  0
   57.7310   27.5220   45.7700 C   0  0  0  0  0  0  0  0  0  0  0  0
   57.3697   27.9811   44.8380 H   0  0  0  0  0  0  0  0  0  0  0  0
   57.2040   26.1910   46.1130 C   0  0  0  0  0  0  0  0  0  0  0  0
   57.9620   25.0850   46.2870 N   0  0  0  0  0  0  0  0  0  0  0  0
   57.0540   24.0990   46.4620 C   0  0  0  0  0  0  0  0  0  0  0  0
   57.3780   22.9060   46.6980 O   0  0  0  0  0  0  0  0  0  0  0  0
   55.7740   24.5170   46.3610 N   0  0  0  0  0  0  0  0  0  0  0  0
   54.5560   23.7410   46.5900 C   0  0  0  0  0  0  0  0  0  0  0  0
   54.5187   23.8689   47.6819 H   0  0  0  0  0  0  0  0  0  0  0  0
   54.3790   22.5720   45.6330 C   0  0  0  0  0  0  0  0  0  0  0  0
   55.1702   22.3303   44.9080 H   0  0  0  0  0  0  0  0  0  0  0  0
   54.1558   21.5009   45.7469 H   0  0  0  0  0  0  0  0  0  0  0  0
   53.5450   23.8300   45.4560 C   0  0  0  0  0  0  0  0  0  0  0  0
   53.7327   24.4988   44.6031 H   0  0  0  0  0  0  0  0  0  0  0  0
   52.4686   24.0465   45.3889 H   0  0  0  0  0  0  0  0  0  0  0  0
   55.8740   25.8400   46.1480 C   0  0  0  0  0  0  0  0  0  0  0  0
   54.7930   26.7010   46.0000 O   0  0  0  0  0  0  0  0  0  0  0  0
   58.9090   29.5550   46.2430 C   0  0  0  0  0  0  0  0  0  0  0  0
   58.4239   30.1993   45.4950 H   0  0  0  0  0  0  0  0  0  0  0  0
   59.9230   29.9160   47.1040 C   0  0  0  0  0  0  0  0  0  0  0  0
   60.5590   31.2490   47.1070 C   0  0  0  0  0  0  0  0  0  0  0  0
   61.8180   31.3110   47.1340 O   0  0  0  0  0  0  0  0  0  0  0  0
   59.7820   32.4650   47.1070 N   0  0  0  0  0  0  0  0  0  0  0  0
   58.4590   32.5230   47.7430 C   0  0  0  0  0  0  0  0  0  0  0  0
   58.0467   31.5055   47.8118 H   0  0  0  0  0  0  0  0  0  0  0  0
   58.5684   32.9597   48.7467 H   0  0  0  0  0  0  0  0  0  0  0  0
   57.4970   33.4040   46.9220 C   0  0  0  0  0  0  0  0  0  0  0  0
   57.0747   32.7902   46.1127 H   0  0  0  0  0  0  0  0  0  0  0  0
   56.7344   33.7733   47.6235 H   0  0  0  0  0  0  0  0  0  0  0  0
   58.1310   34.6070   46.3120 N   0  0  0  0  0  0  0  0  0  0  0  0
   58.1350   34.5590   44.8330 C   0  0  0  0  0  0  0  0  0  0  0  0
   57.5631   35.4123   44.4395 H   0  0  0  0  0  0  0  0  0  0  0  0
   59.1735   34.6075   44.4736 H   0  0  0  0  0  0  0  0  0  0  0  0
   57.4950   33.2510   44.3470 C   0  0  0  0  0  0  0  0  0  0  0  0
   56.5008   33.4596   44.7690 H   0  0  0  0  0  0  0  0  0  0  0  0
   58.0150   32.7280   43.0170 C   0  0  0  0  0  0  0  0  0  0  0  0
   57.3304   32.2248   42.3183 H   0  0  0  0  0  0  0  0  0  0  0  0
   58.5590   33.1670   42.1677 H   0  0  0  0  0  0  0  0  0  0  0  0
   58.4180   32.0420   44.3140 C   0  0  0  0  0  0  0  0  0  0  0  0
   58.0247   31.0430   44.5531 H   0  0  0  0  0  0  0  0  0  0  0  0
   59.3739   31.7797   44.7910 H   0  0  0  0  0  0  0  0  0  0  0  0
   59.4680   34.9100   46.8600 C   0  0  0  0  0  0  0  0  0  0  0  0
   59.8842   35.7778   46.3274 H   0  0  0  0  0  0  0  0  0  0  0  0
   59.3602   35.1238   47.9336 H   0  0  0  0  0  0  0  0  0  0  0  0
   60.4250   33.7210   46.7000 C   0  0  0  0  0  0  0  0  0  0  0  0
   60.7285   33.6437   45.6455 H   0  0  0  0  0  0  0  0  0  0  0  0
   61.3010   33.8891   47.3437 H   0  0  0  0  0  0  0  0  0  0  0  0
   60.2320   28.8880   47.9290 N   0  0  0  0  0  0  0  0  0  0  0  0
   61.1410   28.9380   49.0810 C   0  0  0  0  0  0  0  0  0  0  0  0
   60.5555   28.9058   50.0117 H   0  0  0  0  0  0  0  0  0  0  0  0
   61.8236   28.0760   49.0472 H   0  0  0  0  0  0  0  0  0  0  0  0
   61.7249   29.8696   49.0472 H   0  0  0  0  0  0  0  0  0  0  0  0
  1  2  1  0
  2  3  1  0
  2  4  2  0
  4  5  1  0
  5  6  2  0
  6  7  1  0
  6  8  1  0
  8  9  1  0
  9 10  1  0
 10 11  2  0
 10 12  1  0
 12 13  1  0
 13 14  1  0
 13 15  1  0
 15 16  1  0
 15 17  1  0
 15 18  1  0
 18 19  1  0
 18 20  1  0
 12 21  1  0
 21 22  1  0
  5 23  1  0
 23 24  1  0
 23 25  2  0
 25 26  1  0
 26 27  2  0
 26 28  1  0
 28 29  1  0
 29 30  1  0
 29 31  1  0
 29 32  1  0
 32 33  1  0
 32 34  1  0
 32 35  1  0
 35 36  1  0
 36 37  1  0
 36 38  1  0
 36 39  1  0
 39 40  1  0
 39 41  1  0
 41 42  1  0
 41 43  1  0
 41 44  1  0
 44 45  1  0
 44 46  1  0
 35 47  1  0
 47 48  1  0
 47 49  1  0
 47 50  1  0
 50 51  1  0
 50 52  1  0
 25 53  1  0
 53 54  1  0
 54 55  1  0
 54 56  1  0
 54 57  1  0
 53  4  1  0
 21  8  2  0
 50 28  1  0
 18 13  1  0
 44 39  1  0
M  CHG  2   9  -1  22  -1
M  END
>  <UniqueID>  (18) 
16

>  <SMILES>  (18) 
C=c1/c(=C\c2[n-]c(=O)n(C3CC3)c2[O-])cc(C(=O)N2CCN(CC3CC3)CC2)n1C

>  <Energy>  (18) 
672.5979051366041

>  <Genealogy>  (18) 
C=c1c(=Cc2[n-]c(=O)n(C3CC3)c2[O-])cc(C(=O)N2CCN(CC3CC3)CC2)n1C (protonated)
C=c1/c(=C\c2[n-]c(=O)n(C3CC3)c2[O-])cc(C(=O)N2CCN(CC3CC3)CC2)n1C (cis-trans isomerization)
C=c1/c(=C\c2[n-]c(=O)n(C3CC3)c2[O-])cc(C(=O)N2CCN(CC3CC3)CC2)n1C (3D coordinates assigned)
C=c1/c(=C\c2[n-]c(=O)n(C3CC3)c2[O-])cc(C(=O)N2CCN(CC3CC3)CC2)n1C (nonaromatic ring conformer: 672.5979051366041 kcal/mol)

>  <smiles>  (18) 
C=c1c(=Cc2[nH]c(=O)n(C3CC3)c2O)cc(C(=O)N2CCN(CC3CC3)CC2)n1C

>  <score_type>  (18) 
oracle

>  <origin>  (18) 
adg

>  <m_score__min__energy>  (18) 
-13.619999999999999

>  <m_primary>  (18) 
energy

$$$$
18:0
     RDKit          3D

 36 37  0  0  0  0  0  0  0  0999 V2000
   60.0130   26.9690   46.1710 C   0  0  0  0  0  0  0  0  0  0  0  0
   58.7970   27.7480   46.6840 C   0  0  0  0  0  0  0  0  0  0  0  0
   59.1030   28.4610   48.0060 C   0  0  0  0  0  0  0  0  0  0  0  0
   57.6600   26.8410   46.8570 N   0  0  0  0  0  0  0  0  0  0  0  0
   56.6310   27.2810   45.9790 C   0  0  0  0  0  0  0  0  0  0  0  0
   55.4990   26.7330   45.9220 O   0  0  0  0  0  0  0  0  0  0  0  0
   56.9950   28.4050   45.1960 N   0  0  0  0  0  0  0  0  0  0  0  0
   56.0830   29.2980   44.4850 C   0  0  0  0  0  0  0  0  0  0  0  0
   56.6220   29.6040   43.0850 C   0  0  0  0  0  0  0  0  0  0  0  0
   57.0470   31.0380   42.9890 C   0  0  0  0  0  0  0  0  0  0  0  0
   57.0210   31.6200   41.8710 O   0  0  0  0  0  0  0  0  0  0  0  0
   57.4350   31.7530   44.1680 N   0  0  0  0  0  0  0  0  0  0  0  0
   57.8120   33.1630   44.1150 C   0  0  0  0  0  0  0  0  0  0  0  0
   58.4580   33.5850   45.3980 C   0  0  0  0  0  0  0  0  0  0  0  0
   59.3180   34.6640   45.5570 C   0  0  0  0  0  0  0  0  0  0  0  0
   59.7010   34.8680   46.8880 C   0  0  0  0  0  0  0  0  0  0  0  0
   59.1340   33.9650   47.7780 C   0  0  0  0  0  0  0  0  0  0  0  0
   58.1510   32.9130   46.9070 S   0  0  0  0  0  0  0  0  0  0  0  0
   58.3040   28.7210   45.6470 C   0  0  0  0  0  0  0  0  0  0  0  0
   58.9570   29.7150   45.2290 O   0  0  0  0  0  0  0  0  0  0  0  0
   60.5962   26.5954   47.0255 H   0  0  0  0  0  0  0  0  0  0  0  0
   59.6733   26.1200   45.5596 H   0  0  0  0  0  0  0  0  0  0  0  0
   60.6423   27.6325   45.5596 H   0  0  0  0  0  0  0  0  0  0  0  0
   58.8234   27.8096   48.8472 H   0  0  0  0  0  0  0  0  0  0  0  0
   60.1779   28.6883   48.0598 H   0  0  0  0  0  0  0  0  0  0  0  0
   58.5272   29.3967   48.0598 H   0  0  0  0  0  0  0  0  0  0  0  0
   55.0982   28.8159   44.3972 H   0  0  0  0  0  0  0  0  0  0  0  0
   55.9933   30.2392   45.0473 H   0  0  0  0  0  0  0  0  0  0  0  0
   57.4866   28.9555   42.8801 H   0  0  0  0  0  0  0  0  0  0  0  0
   55.8263   29.4183   42.3486 H   0  0  0  0  0  0  0  0  0  0  0  0
   57.4360   31.2450   45.0830 H   0  0  0  0  0  0  0  0  0  0  0  0
   58.5191   33.3171   43.2866 H   0  0  0  0  0  0  0  0  0  0  0  0
   56.9056   33.7665   43.9594 H   0  0  0  0  0  0  0  0  0  0  0  0
   59.6626   35.2933   44.7232 H   0  0  0  0  0  0  0  0  0  0  0  0
   60.3873   35.6691   47.2000 H   0  0  0  0  0  0  0  0  0  0  0  0
   59.2991   33.9415   48.8653 H   0  0  0  0  0  0  0  0  0  0  0  0
  1  2  1  0
  2  3  1  0
  2  4  1  0
  4  5  1  0
  5  6  2  0
  5  7  1  0
  7  8  1  0
  8  9  1  0
  9 10  1  0
 10 11  2  0
 10 12  1  0
 12 13  1  0
 13 14  1  0
 14 15  2  0
 15 16  1  0
 16 17  2  0
 17 18  1  0
  7 19  1  0
 19 20  2  0
 19  2  1  0
 18 14  1  0
  1 21  1  0
  1 22  1  0
  1 23  1  0
  3 24  1  0
  3 25  1  0
  3 26  1  0
  8 27  1  0
  8 28  1  0
  9 29  1  0
  9 30  1  0
 12 31  1  0
 13 32  1  0
 13 33  1  0
 15 34  1  0
 16 35  1  0
 17 36  1  0
M  CHG  1   4  -1
M  END
>  <UniqueID>  (19) 
17

>  <SMILES>  (19) 
CC1(C)[N-]C(=O)N(CCC(=O)NCc2cccs2)C1=O

>  <Energy>  (19) 
68.74181440751417

>  <Genealogy>  (19) 
CC1(C)[N-]C(=O)N(CCC(=O)NCc2cccs2)C1=O (protonated)
CC1(C)[N-]C(=O)N(CCC(=O)NCc2cccs2)C1=O (3D coordinates assigned)
CC1(C)[N-]C(=O)N(CCC(=O)NCc2cccs2)C1=O (nonaromatic ring conformer: 68.74181440751417 kcal/mol)

>  <smiles>  (19) 
CC1(C)NC(=O)N(CCC(=O)NCc2cccs2)C1=O

>  <score_type>  (19) 
oracle

>  <origin>  (19) 
adg

>  <m_score__min__energy>  (19) 
-9.3699999999999992

>  <m_primary>  (19) 
energy

$$$$
19:0
     RDKit          3D

 48 51  0  0  0  0  0  0  0  0999 V2000
   58.4460   31.5320   49.7520 O   0  0  0  0  0  0  0  0  0  0  0  0
   59.4190   30.7610   49.5240 C   0  0  0  0  0  0  0  0  0  0  0  0
   60.7310   31.0110   50.1980 C   0  0  0  0  0  0  0  0  0  0  0  0
   61.6450   31.7920   49.2930 C   0  0  0  0  0  0  0  0  0  0  0  0
   62.1440   33.0450   49.6960 C   0  0  0  0  0  0  0  0  0  0  0  0
   62.9680   33.7820   48.8380 C   0  0  0  0  0  0  0  0  0  0  0  0
   63.2900   33.2800   47.5730 C   0  0  0  0  0  0  0  0  0  0  0  0
   62.7860   32.0420   47.1590 C   0  0  0  0  0  0  0  0  0  0  0  0
   61.9610   31.3010   48.0130 C   0  0  0  0  0  0  0  0  0  0  0  0
   59.2840   29.6290   48.6480 N   0  0  0  0  0  0  0  0  0  0  0  0
   59.2120   29.6550   47.3500 C   0  0  0  0  0  0  0  0  0  0  0  0
   58.2700   30.3980   46.7060 N   0  0  0  0  0  0  0  0  0  0  0  0
   58.1780   30.4170   45.3460 C   0  0  0  0  0  0  0  0  0  0  0  0
   57.1500   31.2010   44.6870 N   0  0  2  0  0  0  0  0  0  0  0  0
   56.9230   30.6860   43.3690 C   0  0  0  0  0  0  0  0  0  0  0  0
   56.3670   29.6160   43.1750 O   0  0  0  0  0  0  0  0  0  0  0  0
   57.4000   31.5480   42.2580 C   0  0  0  0  0  0  0  0  0  0  0  0
   58.0830   32.6920   42.9950 C   0  0  0  0  0  0  0  0  0  0  0  0
   57.5340   32.6090   44.4340 C   0  0  2  0  0  0  0  0  0  0  0  0
   58.3960   33.2420   45.5280 C   0  0  0  0  0  0  0  0  0  0  0  0
   58.0160   33.2610   46.8860 C   0  0  0  0  0  0  0  0  0  0  0  0
   58.8170   33.8960   47.8390 C   0  0  0  0  0  0  0  0  0  0  0  0
   59.9960   34.5340   47.4520 C   0  0  0  0  0  0  0  0  0  0  0  0
   60.3800   34.5360   46.1120 C   0  0  0  0  0  0  0  0  0  0  0  0
   59.5810   33.9040   45.1530 C   0  0  0  0  0  0  0  0  0  0  0  0
   59.0640   29.6320   44.5940 C   0  0  0  0  0  0  0  0  0  0  0  0
   60.0290   28.8820   45.2660 C   0  0  0  0  0  0  0  0  0  0  0  0
   60.0880   28.9120   46.6230 N   0  0  0  0  0  0  0  0  0  0  0  0
   60.5606   31.5828   51.1221 H   0  0  0  0  0  0  0  0  0  0  0  0
   61.2015   30.0448   50.4328 H   0  0  0  0  0  0  0  0  0  0  0  0
   61.8857   33.4456   50.6874 H   0  0  0  0  0  0  0  0  0  0  0  0
   63.3629   34.7572   49.1589 H   0  0  0  0  0  0  0  0  0  0  0  0
   63.9409   33.8597   46.9020 H   0  0  0  0  0  0  0  0  0  0  0  0
   63.0382   31.6511   46.1622 H   0  0  0  0  0  0  0  0  0  0  0  0
   61.5586   30.3321   47.6825 H   0  0  0  0  0  0  0  0  0  0  0  0
   56.2490   31.1670   45.2230 H   0  0  0  0  0  0  0  0  0  0  0  0
   58.1113   31.0093   41.6147 H   0  0  0  0  0  0  0  0  0  0  0  0
   56.5955   31.8795   41.5850 H   0  0  0  0  0  0  0  0  0  0  0  0
   59.1752   32.5617   42.9877 H   0  0  0  0  0  0  0  0  0  0  0  0
   57.8839   33.6677   42.5277 H   0  0  0  0  0  0  0  0  0  0  0  0
   56.6477   33.2575   44.4972 H   0  0  0  0  0  0  0  0  0  0  0  0
   57.0813   32.7719   47.1977 H   0  0  0  0  0  0  0  0  0  0  0  0
   58.5171   33.8928   48.8973 H   0  0  0  0  0  0  0  0  0  0  0  0
   60.6225   35.0354   48.2044 H   0  0  0  0  0  0  0  0  0  0  0  0
   61.3121   35.0349   45.8083 H   0  0  0  0  0  0  0  0  0  0  0  0
   59.8816   33.9244   44.0951 H   0  0  0  0  0  0  0  0  0  0  0  0
   58.9992   29.6083   43.4962 H   0  0  0  0  0  0  0  0  0  0  0  0
   60.7419   28.2666   44.6976 H   0  0  0  0  0  0  0  0  0  0  0  0
  1  2  2  0
  2  3  1  0
  3  4  1  0
  4  5  2  0
  5  6  1  0
  6  7  2  0
  7  8  1  0
  8  9  2  0
  2 10  1  0
 10 11  2  3
 11 12  1  0
 12 13  2  0
 13 14  1  0
 14 15  1  0
 15 16  2  0
 15 17  1  0
 17 18  1  0
 18 19  1  0
 19 20  1  0
 20 21  2  0
 21 22  1  0
 22 23  2  0
 23 24  1  0
 24 25  2  0
 13 26  1  0
 26 27  2  0
 27 28  1  0
  9  4  1  0
 28 11  1  0
 19 14  1  0
 25 20  1  0
  3 29  1  0
  3 30  1  0
  5 31  1  0
  6 32  1  0
  7 33  1  0
  8 34  1  0
  9 35  1  0
 14 36  1  1
 17 37  1  0
 17 38  1  0
 18 39  1  0
 18 40  1  0
 19 41  1  6
 21 42  1  0
 22 43  1  0
 23 44  1  0
 24 45  1  0
 25 46  1  0
 26 47  1  0
 27 48  1  0
M  CHG  2  14   1  28  -1
M  END
>  <UniqueID>  (20) 
18

>  <SMILES>  (20) 
O=C(Cc1ccccc1)N=c1nc([N@@H+]2C(=O)CC[C@@H]2c2ccccc2)cc[n-]1

>  <Energy>  (20) 
63.69285673360684

>  <Genealogy>  (20) 
O=C(Cc1ccccc1)N=c1nc([NH+]2C(=O)CCC2c2ccccc2)cc[n-]1 (protonated)
O=C(Cc1ccccc1)N=c1nc([N@@H+]2C(=O)CC[C@@H]2c2ccccc2)cc[n-]1 (chirality)
O=C(Cc1ccccc1)N=c1nc([N@@H+]2C(=O)CC[C@@H]2c2ccccc2)cc[n-]1 (3D coordinates assigned)
O=C(Cc1ccccc1)N=c1nc([N@@H+]2C(=O)CC[C@@H]2c2ccccc2)cc[n-]1 (nonaromatic ring conformer: 63.69285673360684 kcal/mol)

>  <smiles>  (20) 
O=C(Cc1ccccc1)N=c1nc(N2C(=O)CCC2c2ccccc2)cc[nH]1

>  <score_type>  (20) 
oracle

>  <origin>  (20) 
adg

>  <m_score__min__energy>  (20) 
-8.8300000000000001

>  <m_primary>  (20) 
energy

$$$$
20:0
     RDKit          3D

 47 49  0  0  0  0  0  0  0  0999 V2000
   58.4690   34.1250   46.0800 C   0  0  0  0  0  0  0  0  0  0  0  0
   58.2630   32.8080   46.1180 C   0  0  0  0  0  0  0  0  0  0  0  0
   59.1520   31.8610   45.3590 C   0  0  0  0  0  0  0  0  0  0  0  0
   59.8740   30.9670   46.2900 N   0  0  0  0  0  0  0  0  0  0  0  0
   60.7190   31.5980   47.2820 C   0  0  0  0  0  0  0  0  0  0  0  0
   61.6910   32.5480   46.9300 C   0  0  0  0  0  0  0  0  0  0  0  0
   62.4640   33.1830   47.9180 C   0  0  0  0  0  0  0  0  0  0  0  0
   63.4890   34.2070   47.5090 C   0  0  0  0  0  0  0  0  0  0  0  0
   62.2460   32.8670   49.2820 C   0  0  0  0  0  0  0  0  0  0  0  0
   63.0440   33.5270   50.3760 C   0  0  0  0  0  0  0  0  0  0  0  0
   61.2980   31.8860   49.6190 C   0  0  0  0  0  0  0  0  0  0  0  0
   60.5560   31.2470   48.6240 C   0  0  0  0  0  0  0  0  0  0  0  0
   59.6350   30.2130   48.9690 N   0  0  0  0  0  0  0  0  0  0  0  0
   59.0640   29.3740   47.9610 C   0  0  0  0  0  0  0  0  0  0  0  0
   58.2970   28.4460   48.3210 O   0  0  0  0  0  0  0  0  0  0  0  0
   59.5090   29.5290   46.5070 C   0  0  2  0  0  0  0  0  0  0  0  0
   60.7890   28.6890   46.3160 C   0  0  0  0  0  0  0  0  0  0  0  0
   58.4050   29.0450   45.4910 C   0  0  0  0  0  0  0  0  0  0  0  0
   57.7160   27.7210   45.7910 C   0  0  0  0  0  0  0  0  0  0  0  0
   58.4640   26.6470   46.3130 C   0  0  0  0  0  0  0  0  0  0  0  0
   57.8490   25.4320   46.6180 C   0  0  0  0  0  0  0  0  0  0  0  0
   56.4750   25.2780   46.4330 C   0  0  0  0  0  0  0  0  0  0  0  0
   55.7070   26.3470   45.9650 C   0  0  0  0  0  0  0  0  0  0  0  0
   54.3340   26.1930   45.8120 O   0  0  0  0  0  0  0  0  0  0  0  0
   56.3170   27.5710   45.6600 C   0  0  0  0  0  0  0  0  0  0  0  0
   55.5230   28.6380   45.2500 O   0  0  0  0  0  0  0  0  0  0  0  0
   57.8081   34.8015   46.6418 H   0  0  0  0  0  0  0  0  0  0  0  0
   59.2998   34.5348   45.4869 H   0  0  0  0  0  0  0  0  0  0  0  0
   57.4296   32.4076   46.7139 H   0  0  0  0  0  0  0  0  0  0  0  0
   58.5366   31.2539   44.6788 H   0  0  0  0  0  0  0  0  0  0  0  0
   59.8871   32.4459   44.7866 H   0  0  0  0  0  0  0  0  0  0  0  0
   61.8494   32.7980   45.8706 H   0  0  0  0  0  0  0  0  0  0  0  0
   63.9380   34.6555   48.4075 H   0  0  0  0  0  0  0  0  0  0  0  0
   64.2738   33.7214   46.9103 H   0  0  0  0  0  0  0  0  0  0  0  0
   63.0042   34.9922   46.9103 H   0  0  0  0  0  0  0  0  0  0  0  0
   62.6578   33.2076   51.3552 H   0  0  0  0  0  0  0  0  0  0  0  0
   64.1008   33.2356   50.2858 H   0  0  0  0  0  0  0  0  0  0  0  0
   62.9560   34.6198   50.2858 H   0  0  0  0  0  0  0  0  0  0  0  0
   61.1394   31.6197   50.6744 H   0  0  0  0  0  0  0  0  0  0  0  0
   61.2005   28.4189   47.2997 H   0  0  0  0  0  0  0  0  0  0  0  0
   60.5468   27.7737   45.7561 H   0  0  0  0  0  0  0  0  0  0  0  0
   61.5323   29.2755   45.7561 H   0  0  0  0  0  0  0  0  0  0  0  0
   57.6270   29.8217   45.4528 H   0  0  0  0  0  0  0  0  0  0  0  0
   58.9430   28.8771   44.5464 H   0  0  0  0  0  0  0  0  0  0  0  0
   59.5442   26.7676   46.4819 H   0  0  0  0  0  0  0  0  0  0  0  0
   58.4485   24.5947   47.0048 H   0  0  0  0  0  0  0  0  0  0  0  0
   55.9955   24.3134   46.6559 H   0  0  0  0  0  0  0  0  0  0  0  0
  1  2  2  0
  2  3  1  0
  3  4  1  0
  4  5  1  0
  5  6  2  0
  6  7  1  0
  7  8  1  0
  7  9  2  0
  9 10  1  0
  9 11  1  0
 11 12  2  0
 12 13  1  0
 13 14  1  0
 14 15  2  0
 14 16  1  0
 16 17  1  1
 16 18  1  0
 18 19  1  0
 19 20  2  0
 20 21  1  0
 21 22  2  0
 22 23  1  0
 23 24  1  0
 23 25  2  0
 25 26  1  0
 16  4  1  0
 25 19  1  0
 12  5  1  0
  1 27  1  0
  1 28  1  0
  2 29  1  0
  3 30  1  0
  3 31  1  0
  6 32  1  0
  8 33  1  0
  8 34  1  0
  8 35  1  0
 10 36  1  0
 10 37  1  0
 10 38  1  0
 11 39  1  0
 17 40  1  0
 17 41  1  0
 17 42  1  0
 18 43  1  0
 18 44  1  0
 20 45  1  0
 21 46  1  0
 22 47  1  0
M  CHG  3  13  -1  24  -1  26  -1
M  END
>  <UniqueID>  (21) 
19

>  <SMILES>  (21) 
C=CCN1c2cc(C)c(C)cc2[N-]C(=O)[C@@]1(C)Cc1cccc([O-])c1[O-]

>  <Energy>  (21) 
61.71555701935488

>  <Genealogy>  (21) 
C=CCN1c2cc(C)c(C)cc2[N-]C(=O)C1(C)Cc1cccc([O-])c1[O-] (protonated)
C=CCN1c2cc(C)c(C)cc2[N-]C(=O)[C@@]1(C)Cc1cccc([O-])c1[O-] (chirality)
C=CCN1c2cc(C)c(C)cc2[N-]C(=O)[C@@]1(C)Cc1cccc([O-])c1[O-] (3D coordinates assigned)
C=CCN1c2cc(C)c(C)cc2[N-]C(=O)[C@@]1(C)Cc1cccc([O-])c1[O-] (nonaromatic ring conformer: 61.71555701935488 kcal/mol)

>  <smiles>  (21) 
C=CCN1c2cc(C)c(C)cc2NC(=O)C1(C)Cc1cccc(O)c1O

>  <score_type>  (21) 
oracle

>  <origin>  (21) 
adg

>  <m_score__min__energy>  (21) 
-15.84

>  <m_primary>  (21) 
energy

$$$$
21:0
     RDKit          3D

 42 44  0  0  1  0  0  0  0  0999 V2000
   57.2770   28.0400   45.7600 C   0  0  0  0  0  0  0  0  0  0  0  0
   57.1710   29.2300   44.8810 C   0  0  0  0  0  0  0  0  0  0  0  0
   57.3940   30.4870   45.2730 N   0  0  0  0  0  0  0  0  0  0  0  0
   57.2030   31.3210   44.1970 C   0  0  0  0  0  0  0  0  0  0  0  0
   57.3830   32.7610   44.3010 C   0  0  0  0  0  0  0  0  0  0  0  0
   58.5640   33.2750   45.0190 C   0  0  1  0  0  0  0  0  0  0  0  0
   58.9130   34.6970   44.8690 C   0  0  0  0  0  0  0  0  0  0  0  0
   59.6080   35.0690   46.1600 C   0  0  0  0  0  0  0  0  0  0  0  0
   59.3040   34.0730   47.0850 N   0  0  0  0  0  0  0  0  0  0  0  0
   60.2600   33.3920   47.8250 C   0  0  0  0  0  0  0  0  0  0  0  0
   61.6340   34.0490   47.8310 C   0  0  2  0  0  0  0  0  0  0  0  0
   62.5810   33.4580   46.8980 C   0  0  0  0  0  0  0  0  0  0  0  0
   63.7320   32.8800   47.1620 C   0  0  0  0  0  0  0  0  0  0  0  0
   64.1470   32.8120   48.5460 C   0  0  0  0  0  0  0  0  0  0  0  0
   63.3570   33.3360   49.4470 C   0  0  0  0  0  0  0  0  0  0  0  0
   62.0760   34.0070   49.2660 C   0  0  0  0  0  0  0  0  0  0  0  0
   58.2550   33.2290   46.5330 C   0  0  0  0  0  0  0  0  0  0  0  0
   56.8620   30.4790   43.1790 C   0  0  0  0  0  0  0  0  0  0  0  0
   56.8390   29.1910   43.5860 N   0  0  0  0  0  0  0  0  0  0  0  0
   57.2487   28.3580   46.8126 H   0  0  0  0  0  0  0  0  0  0  0  0
   56.4359   27.3600   45.5596 H   0  0  0  0  0  0  0  0  0  0  0  0
   58.2251   27.5194   45.5596 H   0  0  0  0  0  0  0  0  0  0  0  0
   57.4293   33.1568   43.2757 H   0  0  0  0  0  0  0  0  0  0  0  0
   56.5315   33.0941   44.9126 H   0  0  0  0  0  0  0  0  0  0  0  0
   59.3719   32.6532   44.6058 H   0  0  0  0  0  0  0  0  0  0  0  0
   59.5871   34.8411   44.0118 H   0  0  0  0  0  0  0  0  0  0  0  0
   58.0272   35.3219   44.6822 H   0  0  0  0  0  0  0  0  0  0  0  0
   60.6955   35.1201   46.0030 H   0  0  0  0  0  0  0  0  0  0  0  0
   59.2731   36.0539   46.5177 H   0  0  0  0  0  0  0  0  0  0  0  0
   59.9065   33.3235   48.8644 H   0  0  0  0  0  0  0  0  0  0  0  0
   60.3838   32.4079   47.3495 H   0  0  0  0  0  0  0  0  0  0  0  0
   61.5826   35.0834   47.4604 H   0  0  0  0  0  0  0  0  0  0  0  0
   62.2978   33.5001   45.8359 H   0  0  0  0  0  0  0  0  0  0  0  0
   64.3573   32.4629   46.3588 H   0  0  0  0  0  0  0  0  0  0  0  0
   65.0962   32.3350   48.8314 H   0  0  0  0  0  0  0  0  0  0  0  0
   63.7085   33.2596   50.4865 H   0  0  0  0  0  0  0  0  0  0  0  0
   61.3141   33.4722   49.8521 H   0  0  0  0  0  0  0  0  0  0  0  0
   62.1982   35.0468   49.6036 H   0  0  0  0  0  0  0  0  0  0  0  0
   58.3219   32.2026   46.9230 H   0  0  0  0  0  0  0  0  0  0  0  0
   57.2385   33.5638   46.7872 H   0  0  0  0  0  0  0  0  0  0  0  0
   56.6342   30.8080   42.1544 H   0  0  0  0  0  0  0  0  0  0  0  0
   56.6160   28.3430   43.0300 H   0  0  0  0  0  0  0  0  0  0  0  0
  1  2  1  0
  2  3  2  0
  3  4  1  0
  4  5  1  0
  5  6  1  0
  6  7  1  0
  7  8  1  0
  8  9  1  0
  9 10  1  0
 10 11  1  0
 11 12  1  0
 12 13  2  0
 13 14  1  0
 14 15  2  0
 15 16  1  0
  9 17  1  0
  4 18  2  0
 18 19  1  0
 19  2  1  0
 17  6  1  0
 16 11  1  0
  1 20  1  0
  1 21  1  0
  1 22  1  0
  5 23  1  0
  5 24  1  0
  6 25  1  1
  7 26  1  0
  7 27  1  0
  8 28  1  0
  8 29  1  0
 10 30  1  0
 10 31  1  0
 11 32  1  6
 12 33  1  0
 13 34  1  0
 14 35  1  0
 15 36  1  0
 16 37  1  0
 16 38  1  0
 17 39  1  0
 17 40  1  0
 18 41  1  0
 19 42  1  0
M  END
>  <smiles>  (22) 
Cc1nc(CC2CCN(CC3C=CC=CC3)C2)c[nH]1

>  <score_type>  (22) 
oracle

>  <origin>  (22) 
adg

>  <m_score__min__energy>  (22) 
-8.4000000000000004

>  <m_primary>  (22) 
energy

$$$$
22:0
     RDKit          3D

 60 64  0  0  0  0  0  0  0  0999 V2000
   66.9320   30.7960   51.6000 C   0  0  0  0  0  0  0  0  0  0  0  0
   66.4490   32.1340   51.6460 O   0  0  0  0  0  0  0  0  0  0  0  0
   65.2970   32.5890   50.9840 C   0  0  0  0  0  0  0  0  0  0  0  0
   65.2460   32.7280   49.5840 C   0  0  0  0  0  0  0  0  0  0  0  0
   64.0780   33.1820   48.9540 C   0  0  0  0  0  0  0  0  0  0  0  0
   64.0320   33.3110   47.6010 N   0  0  0  0  0  0  0  0  0  0  0  0
   62.9090   33.7460   46.9690 C   0  0  0  0  0  0  0  0  0  0  0  0
   62.9170   33.8450   45.7110 O   0  0  0  0  0  0  0  0  0  0  0  0
   61.7850   34.0720   47.6880 N   0  0  0  0  0  0  0  0  0  0  0  0
   60.5610   34.5050   46.9820 C   0  0  0  0  0  0  0  0  0  0  0  0
   59.7670   33.3080   46.5270 C   0  0  0  0  0  0  0  0  0  0  0  0
   60.0100   32.0410   47.0780 C   0  0  0  0  0  0  0  0  0  0  0  0
   59.2490   30.9380   46.6790 C   0  0  0  0  0  0  0  0  0  0  0  0
   58.2210   31.0880   45.7360 C   0  0  0  0  0  0  0  0  0  0  0  0
   57.4220   29.9150   45.3170 C   0  0  0  0  0  0  0  0  0  0  0  0
   56.2660   30.1020   44.8480 O   0  0  0  0  0  0  0  0  0  0  0  0
   57.9330   28.5710   45.4270 N   0  0  0  0  0  0  0  0  0  0  0  0
   58.1460   28.0160   46.7760 C   0  0  0  0  0  0  0  0  0  0  0  0
   58.8880   26.6730   46.7490 C   0  0  0  0  0  0  0  0  0  0  0  0
   58.2750   25.7620   45.7270 C   0  0  0  0  0  0  0  0  0  0  0  0
   58.1240   24.3890   45.9740 C   0  0  0  0  0  0  0  0  0  0  0  0
   57.5880   23.5560   44.9870 C   0  0  0  0  0  0  0  0  0  0  0  0
   57.2170   24.0850   43.7480 C   0  0  0  0  0  0  0  0  0  0  0  0
   57.3790   25.4500   43.4910 C   0  0  0  0  0  0  0  0  0  0  0  0
   57.8990   26.2960   44.4840 C   0  0  0  0  0  0  0  0  0  0  0  0
   58.1310   27.7580   44.2110 C   0  0  0  0  0  0  0  0  0  0  0  0
   57.9890   32.3520   45.1720 C   0  0  0  0  0  0  0  0  0  0  0  0
   58.7510   33.4540   45.5700 C   0  0  0  0  0  0  0  0  0  0  0  0
   61.7930   33.9530   49.0570 C   0  0  0  0  0  0  0  0  0  0  0  0
   60.7640   34.2490   49.7270 O   0  0  0  0  0  0  0  0  0  0  0  0
   62.9470   33.5030   49.7230 C   0  0  0  0  0  0  0  0  0  0  0  0
   62.9980   33.3660   51.1220 C   0  0  0  0  0  0  0  0  0  0  0  0
   64.1700   32.9100   51.7550 C   0  0  0  0  0  0  0  0  0  0  0  0
   64.2540   32.7610   53.1490 O   0  0  0  0  0  0  0  0  0  0  0  0
   63.2940   33.2590   54.0750 C   0  0  0  0  0  0  0  0  0  0  0  0
   67.0678   30.4198   52.6247 H   0  0  0  0  0  0  0  0  0  0  0  0
   66.2060   30.1621   51.0699 H   0  0  0  0  0  0  0  0  0  0  0  0
   67.8955   30.7720   51.0699 H   0  0  0  0  0  0  0  0  0  0  0  0
   66.1300   32.4783   48.9788 H   0  0  0  0  0  0  0  0  0  0  0  0
   64.8740   33.0720   47.0270 H   0  0  0  0  0  0  0  0  0  0  0  0
   59.9451   35.1113   47.6625 H   0  0  0  0  0  0  0  0  0  0  0  0
   60.8476   35.0992   46.1018 H   0  0  0  0  0  0  0  0  0  0  0  0
   60.8041   31.9145   47.8286 H   0  0  0  0  0  0  0  0  0  0  0  0
   59.4576   29.9464   47.1071 H   0  0  0  0  0  0  0  0  0  0  0  0
   58.7373   28.7339   47.3634 H   0  0  0  0  0  0  0  0  0  0  0  0
   57.1573   27.8424   47.2257 H   0  0  0  0  0  0  0  0  0  0  0  0
   59.9439   26.8465   46.4941 H   0  0  0  0  0  0  0  0  0  0  0  0
   58.8130   26.2019   47.7402 H   0  0  0  0  0  0  0  0  0  0  0  0
   58.4272   23.9680   46.9439 H   0  0  0  0  0  0  0  0  0  0  0  0
   57.4581   22.4820   45.1863 H   0  0  0  0  0  0  0  0  0  0  0  0
   56.7968   23.4266   42.9735 H   0  0  0  0  0  0  0  0  0  0  0  0
   57.0989   25.8615   42.5101 H   0  0  0  0  0  0  0  0  0  0  0  0
   59.1616   27.8959   43.8522 H   0  0  0  0  0  0  0  0  0  0  0  0
   57.4061   28.0878   43.4522 H   0  0  0  0  0  0  0  0  0  0  0  0
   57.2031   32.4761   44.4125 H   0  0  0  0  0  0  0  0  0  0  0  0
   58.5530   34.4426   45.1301 H   0  0  0  0  0  0  0  0  0  0  0  0
   62.1143   33.6174   51.7269 H   0  0  0  0  0  0  0  0  0  0  0  0
   63.6455   33.0766   55.1012 H   0  0  0  0  0  0  0  0  0  0  0  0
   63.1610   34.3398   53.9196 H   0  0  0  0  0  0  0  0  0  0  0  0
   62.3338   32.7453   53.9196 H   0  0  0  0  0  0  0  0  0  0  0  0
  1  2  1  0
  2  3  1  0
  3  4  2  0
  4  5  1  0
  5  6  1  0
  6  7  1  0
  7  8  2  0
  7  9  1  0
  9 10  1  0
 10 11  1  0
 11 12  2  0
 12 13  1  0
 13 14  2  0
 14 15  1  0
 15 16  2  0
 15 17  1  0
 17 18  1  0
 18 19  1  0
 19 20  1  0
 20 21  2  0
 21 22  1  0
 22 23  2  0
 23 24  1  0
 24 25  2  0
 25 26  1  0
 14 27  1  0
 27 28  2  0
  9 29  1  0
 29 30  2  0
 29 31  1  0
 31 32  1  0
 32 33  2  0
 33 34  1  0
 34 35  1  0
 33  3  1  0
 31  5  2  0
 28 11  1  0
 26 17  1  0
 25 20  1  0
  1 36  1  0
  1 37  1  0
  1 38  1  0
  4 39  1  0
  6 40  1  0
 10 41  1  0
 10 42  1  0
 12 43  1  0
 13 44  1  0
 18 45  1  0
 18 46  1  0
 19 47  1  0
 19 48  1  0
 21 49  1  0
 22 50  1  0
 23 51  1  0
 24 52  1  0
 26 53  1  0
 26 54  1  0
 27 55  1  0
 28 56  1  0
 32 57  1  0
 35 58  1  0
 35 59  1  0
 35 60  1  0
M  END
>  <UniqueID>  (23) 
20

>  <SMILES>  (23) 
COc1cc2[nH]c(=O)n(Cc3ccc(C(=O)N4CCc5ccccc5C4)cc3)c(=O)c2cc1OC

>  <Energy>  (23) 
79.97078560073138

>  <Genealogy>  (23) 
COc1cc2[nH]c(=O)n(Cc3ccc(C(=O)N4CCc5ccccc5C4)cc3)c(=O)c2cc1OC (3D coordinates assigned)
COc1cc2[nH]c(=O)n(Cc3ccc(C(=O)N4CCc5ccccc5C4)cc3)c(=O)c2cc1OC (nonaromatic ring conformer: 79.97078560073138 kcal/mol)

>  <smiles>  (23) 
COc1cc2[nH]c(=O)n(Cc3ccc(C(=O)N4CCc5ccccc5C4)cc3)c(=O)c2cc1OC

>  <score_type>  (23) 
oracle

>  <origin>  (23) 
adg

>  <m_score__min__energy>  (23) 
-9.3300000000000001

>  <m_primary>  (23) 
energy

$$$$
23:0
     RDKit          3D

 64 67  0  0  0  0  0  0  0  0999 V2000
   58.7520   33.5600   52.1400 C   0  0  0  0  0  0  0  0  0  0  0  0
   58.3910   32.2590   51.6830 O   0  0  0  0  0  0  0  0  0  0  0  0
   59.2610   31.3530   51.0510 C   0  0  0  0  0  0  0  0  0  0  0  0
   58.8890   30.7080   49.8560 C   0  0  0  0  0  0  0  0  0  0  0  0
   59.7550   29.8040   49.2240 C   0  0  0  0  0  0  0  0  0  0  0  0
   59.3530   29.1270   47.9730 C   0  0  0  0  0  0  0  0  0  0  0  0
   59.1390   29.7720   46.8050 N   0  0  0  0  0  0  0  0  0  0  0  0
   58.8140   28.7760   45.9610 C   0  0  0  0  0  0  0  0  0  0  0  0
   58.4990   28.9770   44.5130 C   0  0  0  0  0  0  0  0  0  0  0  0
   58.5080   30.4000   44.1860 N   0  0  0  0  0  0  0  0  0  0  0  0
   57.3600   31.2380   44.3710 C   0  0  0  0  0  0  0  0  0  0  0  0
   56.2990   30.7670   44.8660 O   0  0  0  0  0  0  0  0  0  0  0  0
   57.3970   32.6760   43.9370 C   0  0  0  0  0  0  0  0  0  0  0  0
   57.5670   33.5830   45.0940 N   0  0  0  0  0  0  0  0  0  0  0  0
   57.6380   32.8260   46.3760 C   0  0  0  0  0  0  0  0  0  0  0  0
   58.5010   33.5210   47.4350 C   0  0  0  0  0  0  0  0  0  0  0  0
   59.8520   33.7330   46.9060 N   0  0  0  0  0  0  0  0  0  0  0  0
   61.0090   33.6430   47.7650 C   0  0  0  0  0  0  0  0  0  0  0  0
   62.2250   33.1430   47.2620 C   0  0  0  0  0  0  0  0  0  0  0  0
   63.3460   33.0380   48.0910 C   0  0  0  0  0  0  0  0  0  0  0  0
   63.2690   33.4350   49.4280 C   0  0  0  0  0  0  0  0  0  0  0  0
   62.0710   33.9440   49.9370 C   0  0  0  0  0  0  0  0  0  0  0  0
   60.9450   34.0510   49.1150 C   0  0  0  0  0  0  0  0  0  0  0  0
   59.8070   34.5840   49.6300 F   0  0  0  0  0  0  0  0  0  0  0  0
   60.0150   34.0200   45.4740 C   0  0  0  0  0  0  0  0  0  0  0  0
   58.6940   34.5260   44.8770 C   0  0  0  0  0  0  0  0  0  0  0  0
   58.8320   27.5760   46.6330 C   0  0  0  0  0  0  0  0  0  0  0  0
   59.1710   27.8280   47.8720 O   0  0  0  0  0  0  0  0  0  0  0  0
   61.0090   29.5460   49.7890 C   0  0  0  0  0  0  0  0  0  0  0  0
   61.4050   30.1830   50.9780 C   0  0  0  0  0  0  0  0  0  0  0  0
   62.6590   29.9450   51.5660 O   0  0  0  0  0  0  0  0  0  0  0  0
   63.8320   30.7120   51.3110 C   0  0  0  0  0  0  0  0  0  0  0  0
   60.5350   31.0820   51.6180 C   0  0  0  0  0  0  0  0  0  0  0  0
   60.9980   31.6730   52.8100 O   0  0  0  0  0  0  0  0  0  0  0  0
   60.9620   31.1010   54.1090 C   0  0  0  0  0  0  0  0  0  0  0  0
   58.7560   33.5743   53.2399 H   0  0  0  0  0  0  0  0  0  0  0  0
   59.7548   33.8147   51.7664 H   0  0  0  0  0  0  0  0  0  0  0  0
   58.0239   34.2950   51.7664 H   0  0  0  0  0  0  0  0  0  0  0  0
   57.9046   30.9163   49.4116 H   0  0  0  0  0  0  0  0  0  0  0  0
   59.2533   28.4594   43.9022 H   0  0  0  0  0  0  0  0  0  0  0  0
   57.4997   28.5677   44.3037 H   0  0  0  0  0  0  0  0  0  0  0  0
   59.3890   30.8140   43.8040 H   0  0  0  0  0  0  0  0  0  0  0  0
   58.2382   32.8192   43.2429 H   0  0  0  0  0  0  0  0  0  0  0  0
   56.4421   32.9150   43.4460 H   0  0  0  0  0  0  0  0  0  0  0  0
   56.6185   32.7133   46.7734 H   0  0  0  0  0  0  0  0  0  0  0  0
   58.1038   31.8535   46.1585 H   0  0  0  0  0  0  0  0  0  0  0  0
   58.0525   34.4916   47.6935 H   0  0  0  0  0  0  0  0  0  0  0  0
   58.5554   32.8896   48.3341 H   0  0  0  0  0  0  0  0  0  0  0  0
   62.2938   32.8326   46.2089 H   0  0  0  0  0  0  0  0  0  0  0  0
   64.2904   32.6420   47.6895 H   0  0  0  0  0  0  0  0  0  0  0  0
   64.1507   33.3471   50.0799 H   0  0  0  0  0  0  0  0  0  0  0  0
   62.0137   34.2617   50.9886 H   0  0  0  0  0  0  0  0  0  0  0  0
   60.7900   34.7898   45.3443 H   0  0  0  0  0  0  0  0  0  0  0  0
   60.3105   33.0958   44.9557 H   0  0  0  0  0  0  0  0  0  0  0  0
   58.4422   35.4888   45.3457 H   0  0  0  0  0  0  0  0  0  0  0  0
   58.8378   34.6267   43.7911 H   0  0  0  0  0  0  0  0  0  0  0  0
   58.6038   26.5875   46.2079 H   0  0  0  0  0  0  0  0  0  0  0  0
   61.6920   28.8374   49.2977 H   0  0  0  0  0  0  0  0  0  0  0  0
   64.2893   31.0110   52.2657 H   0  0  0  0  0  0  0  0  0  0  0  0
   64.5478   30.1069   50.7352 H   0  0  0  0  0  0  0  0  0  0  0  0
   63.5647   31.6103   50.7352 H   0  0  0  0  0  0  0  0  0  0  0  0
   61.0123   31.9003   54.8631 H   0  0  0  0  0  0  0  0  0  0  0  0
   60.0265   30.5362   54.2351 H   0  0  0  0  0  0  0  0  0  0  0  0
   61.8193   30.4234   54.2351 H   0  0  0  0  0  0  0  0  0  0  0  0
  1  2  1  0
  2  3  1  0
  3  4  2  0
  4  5  1  0
  5  6  1  0
  6  7  2  0
  7  8  1  0
  8  9  1  0
  9 10  1  0
 10 11  1  0
 11 12  2  0
 11 13  1  0
 13 14  1  0
 14 15  1  0
 15 16  1  0
 16 17  1  0
 17 18  1  0
 18 19  2  0
 19 20  1  0
 20 21  2  0
 21 22  1  0
 22 23  2  0
 23 24  1  0
 17 25  1  0
 25 26  1  0
  8 27  2  0
 27 28  1  0
  5 29  2  0
 29 30  1  0
 30 31  1  0
 31 32  1  0
 30 33  2  0
 33 34  1  0
 34 35  1  0
 33  3  1  0
 28  6  1  0
 26 14  1  0
 23 18  1  0
  1 36  1  0
  1 37  1  0
  1 38  1  0
  4 39  1  0
  9 40  1  0
  9 41  1  0
 10 42  1  0
 13 43  1  0
 13 44  1  0
 15 45  1  0
 15 46  1  0
 16 47  1  0
 16 48  1  0
 19 49  1  0
 20 50  1  0
 21 51  1  0
 22 52  1  0
 25 53  1  0
 25 54  1  0
 26 55  1  0
 26 56  1  0
 27 57  1  0
 29 58  1  0
 32 59  1  0
 32 60  1  0
 32 61  1  0
 35 62  1  0
 35 63  1  0
 35 64  1  0
M  END
>  <UniqueID>  (24) 
21

>  <SMILES>  (24) 
COc1cc(-c2nc(CNC(=O)CN3CCN(c4ccccc4F)CC3)co2)cc(OC)c1OC

>  <Energy>  (24) 
106.71057341879016

>  <Genealogy>  (24) 
COc1cc(-c2nc(CNC(=O)CN3CCN(c4ccccc4F)CC3)co2)cc(OC)c1OC (3D coordinates assigned)
COc1cc(-c2nc(CNC(=O)CN3CCN(c4ccccc4F)CC3)co2)cc(OC)c1OC (nonaromatic ring conformer: 106.71057341879016 kcal/mol)

>  <smiles>  (24) 
COc1cc(-c2nc(CNC(=O)CN3CCN(c4ccccc4F)CC3)co2)cc(OC)c1OC

>  <score_type>  (24) 
oracle

>  <origin>  (24) 
adg

>  <m_score__min__energy>  (24) 
-7.5099999999999998

>  <m_primary>  (24) 
energy

$$$$
24:0
     RDKit          3D

 56 57  0  0  0  0  0  0  0  0999 V2000
   58.0680   27.6880   43.7730 C   0  0  0  0  0  0  0  0  0  0  0  0
   59.0300   28.4230   44.3230 C   0  0  0  0  0  0  0  0  0  0  0  0
   58.8310   29.1500   45.5920 C   0  0  0  0  0  0  0  0  0  0  0  0
   58.1460   30.3490   45.7900 C   0  0  0  0  0  0  0  0  0  0  0  0
   57.3800   31.1250   44.7990 C   0  0  0  0  0  0  0  0  0  0  0  0
   56.2050   30.7910   44.4880 O   0  0  0  0  0  0  0  0  0  0  0  0
   57.9590   32.2660   44.2360 O   0  0  0  0  0  0  0  0  0  0  0  0
   57.7990   33.5670   44.7920 C   0  0  0  0  0  0  0  0  0  0  0  0
   57.8470   33.4790   46.2900 C   0  0  0  0  0  0  0  0  0  0  0  0
   56.7540   33.4620   46.9200 O   0  0  0  0  0  0  0  0  0  0  0  0
   59.1310   33.4290   47.0410 C   0  0  0  0  0  0  0  0  0  0  0  0
   60.3450   33.2980   46.3490 C   0  0  0  0  0  0  0  0  0  0  0  0
   61.5600   33.2470   47.0360 C   0  0  0  0  0  0  0  0  0  0  0  0
   61.6080   33.3250   48.4440 C   0  0  0  0  0  0  0  0  0  0  0  0
   62.9700   33.2630   49.1650 C   0  0  0  0  0  0  0  0  0  0  0  0
   64.1730   33.4330   48.2070 C   0  0  0  0  0  0  0  0  0  0  0  0
   63.1200   31.8960   49.8680 C   0  0  0  0  0  0  0  0  0  0  0  0
   63.0470   34.3920   50.2180 C   0  0  0  0  0  0  0  0  0  0  0  0
   60.3810   33.4540   49.1340 C   0  0  0  0  0  0  0  0  0  0  0  0
   59.1670   33.5070   48.4440 C   0  0  0  0  0  0  0  0  0  0  0  0
   58.1900   30.6900   47.0930 N   0  0  0  0  0  0  0  0  0  0  0  0
   58.8740   29.7270   47.7390 C   0  0  0  0  0  0  0  0  0  0  0  0
   59.1250   29.7530   49.2150 C   0  0  0  0  0  0  0  0  0  0  0  0
   59.2850   28.7450   46.8450 C   0  0  0  0  0  0  0  0  0  0  0  0
   60.0860   27.5390   47.1530 C   0  0  0  0  0  0  0  0  0  0  0  0
   60.8050   27.5070   48.1880 O   0  0  0  0  0  0  0  0  0  0  0  0
   60.0590   26.4420   46.2850 O   0  0  0  0  0  0  0  0  0  0  0  0
   59.0780   25.4090   46.3510 C   0  0  0  0  0  0  0  0  0  0  0  0
   57.7690   25.9460   46.9170 C   0  0  0  0  0  0  0  0  0  0  0  0
   58.2527   27.1599   42.8259 H   0  0  0  0  0  0  0  0  0  0  0  0
   57.0875   27.6081   44.2651 H   0  0  0  0  0  0  0  0  0  0  0  0
   60.0041   28.4913   43.8166 H   0  0  0  0  0  0  0  0  0  0  0  0
   58.6097   34.2201   44.4367 H   0  0  0  0  0  0  0  0  0  0  0  0
   56.8300   33.9833   44.4795 H   0  0  0  0  0  0  0  0  0  0  0  0
   60.3395   33.2346   45.2508 H   0  0  0  0  0  0  0  0  0  0  0  0
   62.4969   33.1441   46.4688 H   0  0  0  0  0  0  0  0  0  0  0  0
   65.0939   33.5631   48.7943 H   0  0  0  0  0  0  0  0  0  0  0  0
   64.2658   32.5391   47.5728 H   0  0  0  0  0  0  0  0  0  0  0  0
   64.0145   34.3177   47.5728 H   0  0  0  0  0  0  0  0  0  0  0  0
   63.1041   32.0407   50.9583 H   0  0  0  0  0  0  0  0  0  0  0  0
   62.2886   31.2389   49.5732 H   0  0  0  0  0  0  0  0  0  0  0  0
   64.0741   31.4348   49.5732 H   0  0  0  0  0  0  0  0  0  0  0  0
   63.0172   33.9550   51.2270 H   0  0  0  0  0  0  0  0  0  0  0  0
   63.9854   34.9511   50.0882 H   0  0  0  0  0  0  0  0  0  0  0  0
   62.1932   35.0733   50.0882 H   0  0  0  0  0  0  0  0  0  0  0  0
   60.3819   33.5137   50.2324 H   0  0  0  0  0  0  0  0  0  0  0  0
   58.2272   33.6111   49.0061 H   0  0  0  0  0  0  0  0  0  0  0  0
   57.7460   31.5290   47.5300 H   0  0  0  0  0  0  0  0  0  0  0  0
   58.1696   29.6540   49.7512 H   0  0  0  0  0  0  0  0  0  0  0  0
   59.7874   28.9187   49.4890 H   0  0  0  0  0  0  0  0  0  0  0  0
   59.6023   30.7054   49.4890 H   0  0  0  0  0  0  0  0  0  0  0  0
   58.8996   25.0150   45.3396 H   0  0  0  0  0  0  0  0  0  0  0  0
   59.4482   24.6108   47.0112 H   0  0  0  0  0  0  0  0  0  0  0  0
   57.8104   25.9290   48.0161 H   0  0  0  0  0  0  0  0  0  0  0  0
   57.6167   26.9792   46.5717 H   0  0  0  0  0  0  0  0  0  0  0  0
   56.9350   25.3174   46.5717 H   0  0  0  0  0  0  0  0  0  0  0  0
  1  2  2  0
  2  3  1  0
  3  4  2  0
  4  5  1  0
  5  6  2  0
  5  7  1  0
  7  8  1  0
  8  9  1  0
  9 10  2  0
  9 11  1  0
 11 12  2  0
 12 13  1  0
 13 14  2  0
 14 15  1  0
 15 16  1  0
 15 17  1  0
 15 18  1  0
 14 19  1  0
 19 20  2  0
  4 21  1  0
 21 22  1  0
 22 23  1  0
 22 24  2  0
 24 25  1  0
 25 26  2  0
 25 27  1  0
 27 28  1  0
 28 29  1  0
 24  3  1  0
 20 11  1  0
  1 30  1  0
  1 31  1  0
  2 32  1  0
  8 33  1  0
  8 34  1  0
 12 35  1  0
 13 36  1  0
 16 37  1  0
 16 38  1  0
 16 39  1  0
 17 40  1  0
 17 41  1  0
 17 42  1  0
 18 43  1  0
 18 44  1  0
 18 45  1  0
 19 46  1  0
 20 47  1  0
 21 48  1  0
 23 49  1  0
 23 50  1  0
 23 51  1  0
 28 52  1  0
 28 53  1  0
 29 54  1  0
 29 55  1  0
 29 56  1  0
M  END
>  <UniqueID>  (25) 
22

>  <SMILES>  (25) 
C=Cc1c(C(=O)OCC(=O)c2ccc(C(C)(C)C)cc2)[nH]c(C)c1C(=O)OCC

>  <Energy>  (25) 
81.42614661052245

>  <Genealogy>  (25) 
C=Cc1c(C(=O)OCC(=O)c2ccc(C(C)(C)C)cc2)[nH]c(C)c1C(=O)OCC (3D coordinates assigned)
C=Cc1c(C(=O)OCC(=O)c2ccc(C(C)(C)C)cc2)[nH]c(C)c1C(=O)OCC (optimized conformer: 81.42614661052245 kcal/mol)

>  <smiles>  (25) 
C=Cc1c(C(=O)OCC(=O)c2ccc(C(C)(C)C)cc2)[nH]c(C)c1C(=O)OCC

>  <score_type>  (25) 
oracle

>  <origin>  (25) 
adg

>  <m_score__min__energy>  (25) 
-8.7899999999999991

>  <m_primary>  (25) 
energy

$$$$
25:0
     RDKit          3D

 53 55  0  0  0  0  0  0  0  0999 V2000
   60.8361   31.4743   46.0262 H   0  0  0  0  0  0  0  0  0  0  0  0
   60.3570   31.0460   46.9190 C   0  0  0  0  0  0  0  0  0  0  0  0
   60.9850   31.1410   48.1040 C   0  0  0  0  0  0  0  0  0  0  0  0
   62.2720   31.8770   48.2240 C   0  0  0  0  0  0  0  0  0  0  0  0
   62.9370   32.2410   49.3880 C   0  0  0  0  0  0  0  0  0  0  0  0
   62.6106   32.0484   50.4207 H   0  0  0  0  0  0  0  0  0  0  0  0
   64.0880   32.8920   48.9930 C   0  0  0  0  0  0  0  0  0  0  0  0
   64.8413   33.3101   49.6769 H   0  0  0  0  0  0  0  0  0  0  0  0
   64.1550   32.9410   47.6510 N   0  0  0  0  0  0  0  0  0  0  0  0
   64.9180   33.3730   47.0840 H   0  0  0  0  0  0  0  0  0  0  0  0
   63.0590   32.3250   47.1740 C   0  0  0  0  0  0  0  0  0  0  0  0
   62.8217   32.1956   46.1077 H   0  0  0  0  0  0  0  0  0  0  0  0
   60.4470   30.4230   49.3250 C   0  0  0  0  0  0  0  0  0  0  0  0
   61.1410   29.6089   49.5811 H   0  0  0  0  0  0  0  0  0  0  0  0
   60.3616   31.1745   50.1237 H   0  0  0  0  0  0  0  0  0  0  0  0
   59.0430   29.8190   49.1300 C   0  0  0  0  0  0  0  0  0  0  0  0
   58.9136   28.9934   49.8453 H   0  0  0  0  0  0  0  0  0  0  0  0
   58.3114   30.6233   49.2968 H   0  0  0  0  0  0  0  0  0  0  0  0
   58.8260   29.2980   47.7640 N   0  0  0  0  0  0  0  0  0  0  0  0
   59.6190   28.0840   47.4550 C   0  0  0  0  0  0  0  0  0  0  0  0
   59.6180   27.4220   48.3335 H   0  0  0  0  0  0  0  0  0  0  0  0
   60.6439   28.3934   47.2025 H   0  0  0  0  0  0  0  0  0  0  0  0
   59.0310   27.3240   46.2540 C   0  0  0  0  0  0  0  0  0  0  0  0
   58.8854   26.2737   46.5465 H   0  0  0  0  0  0  0  0  0  0  0  0
   59.7448   27.4367   45.4247 H   0  0  0  0  0  0  0  0  0  0  0  0
   57.6810   27.8820   45.7610 C   0  0  0  0  0  0  0  0  0  0  0  0
   57.5626   28.8996   46.1615 H   0  0  0  0  0  0  0  0  0  0  0  0
   56.9057   27.1877   46.1173 H   0  0  0  0  0  0  0  0  0  0  0  0
   57.5410   27.9480   44.2330 C   0  0  0  0  0  0  0  0  0  0  0  0
   56.4856   27.7971   43.9620 H   0  0  0  0  0  0  0  0  0  0  0  0
   58.1699   27.1617   43.7901 H   0  0  0  0  0  0  0  0  0  0  0  0
   57.9860   29.2440   43.7190 N   0  0  0  0  0  0  0  0  0  0  0  0
   58.9090   29.2960   43.2300 H   0  0  0  0  0  0  0  0  0  0  0  0
   57.2570   30.4580   43.9480 C   0  0  0  0  0  0  0  0  0  0  0  0
   56.2670   30.4640   44.7300 O   0  0  0  0  0  0  0  0  0  0  0  0
   57.6620   31.6920   43.2480 C   0  0  0  0  0  0  0  0  0  0  0  0
   58.1139   31.6118   42.2483 H   0  0  0  0  0  0  0  0  0  0  0  0
   57.4980   32.9080   43.7890 C   0  0  0  0  0  0  0  0  0  0  0  0
   56.8981   33.6457   43.2359 H   0  0  0  0  0  0  0  0  0  0  0  0
   58.0800   33.3140   45.0910 C   0  0  0  0  0  0  0  0  0  0  0  0
   59.3480   33.9190   45.1020 C   0  0  0  0  0  0  0  0  0  0  0  0
   59.8796   34.0880   44.1539 H   0  0  0  0  0  0  0  0  0  0  0  0
   59.9400   34.3080   46.3070 C   0  0  0  0  0  0  0  0  0  0  0  0
   60.9292   34.7891   46.3024 H   0  0  0  0  0  0  0  0  0  0  0  0
   59.2780   34.0870   47.5170 C   0  0  0  0  0  0  0  0  0  0  0  0
   60.0240   34.5730   49.0290 Cl  0  0  0  0  0  0  0  0  0  0  0  0
   58.0230   33.4700   47.5230 C   0  0  0  0  0  0  0  0  0  0  0  0
   57.5040   33.2905   48.4761 H   0  0  0  0  0  0  0  0  0  0  0  0
   57.4270   33.0810   46.3200 C   0  0  0  0  0  0  0  0  0  0  0  0
   56.4427   32.5901   46.3314 H   0  0  0  0  0  0  0  0  0  0  0  0
   59.0210   30.3730   46.7760 C   0  0  0  0  0  0  0  0  0  0  0  0
   58.9484   29.9425   45.7664 H   0  0  0  0  0  0  0  0  0  0  0  0
   58.2430   31.1315   46.9472 H   0  0  0  0  0  0  0  0  0  0  0  0
  1  2  1  0
  2  3  2  0
  3  4  1  0
  4  5  1  0
  5  6  1  0
  5  7  2  0
  7  8  1  0
  7  9  1  0
  9 10  1  0
  9 11  1  0
 11 12  1  0
  3 13  1  0
 13 14  1  0
 13 15  1  0
 13 16  1  0
 16 17  1  0
 16 18  1  0
 16 19  1  0
 19 20  1  0
 20 21  1  0
 20 22  1  0
 20 23  1  0
 23 24  1  0
 23 25  1  0
 23 26  1  0
 26 27  1  0
 26 28  1  0
 26 29  1  0
 29 30  1  0
 29 31  1  0
 29 32  1  0
 32 33  1  0
 32 34  1  0
 34 35  2  0
 34 36  1  0
 36 37  1  0
 36 38  2  0
 38 39  1  0
 38 40  1  0
 40 41  2  0
 41 42  1  0
 41 43  1  0
 43 44  1  0
 43 45  2  0
 45 46  1  0
 45 47  1  0
 47 48  1  0
 47 49  2  0
 49 50  1  0
 19 51  1  0
 51 52  1  0
 51 53  1  0
 51  2  1  0
 11  4  2  0
 49 40  1  0
M  END
>  <UniqueID>  (26) 
23

>  <SMILES>  (26) 
O=C(/C=C/c1ccc(Cl)cc1)NCCCCN1CC=C(c2cc[nH]c2)CC1

>  <Energy>  (26) 
81.55199531512474

>  <Genealogy>  (26) 
O=C(/C=C/c1ccc(Cl)cc1)NCCCCN1CC=C(c2cc[nH]c2)CC1 (cis-trans isomerization)
O=C(/C=C/c1ccc(Cl)cc1)NCCCCN1CC=C(c2cc[nH]c2)CC1 (3D coordinates assigned)
O=C(/C=C/c1ccc(Cl)cc1)NCCCCN1CC=C(c2cc[nH]c2)CC1 (nonaromatic ring conformer: 81.55199531512474 kcal/mol)

>  <smiles>  (26) 
O=C(C=Cc1ccc(Cl)cc1)NCCCCN1CC=C(c2cc[nH]c2)CC1

>  <score_type>  (26) 
oracle

>  <origin>  (26) 
adg

>  <m_score__min__energy>  (26) 
-9.3399999999999999

>  <m_primary>  (26) 
energy

$$$$
26:0
     RDKit          3D

 54 57  0  0  0  0  0  0  0  0999 V2000
   57.5330   29.2950   43.7400 C   0  0  0  0  0  0  0  0  0  0  0  0
   57.7900   29.7590   44.9720 C   0  0  0  0  0  0  0  0  0  0  0  0
   58.1740   29.0130   46.1010 C   0  0  0  0  0  0  0  0  0  0  0  0
   58.2300   27.6830   46.3060 C   0  0  0  0  0  0  0  0  0  0  0  0
   57.0900   26.7580   46.2160 C   0  0  0  0  0  0  0  0  0  0  0  0
   55.8800   27.0890   45.7320 N   0  0  0  0  0  0  0  0  0  0  0  0
   55.1400   25.9820   45.9600 C   0  0  0  0  0  0  0  0  0  0  0  0
   53.9310   25.8930   45.6250 O   0  0  0  0  0  0  0  0  0  0  0  0
   55.7970   24.9800   46.5790 N   0  0  0  0  0  0  0  0  0  0  0  0
   57.0280   25.4900   46.7460 C   0  0  0  0  0  0  0  0  0  0  0  0
   58.0690   24.8010   47.3600 O   0  0  0  0  0  0  0  0  0  0  0  0
   58.5230   29.9330   47.0720 C   0  0  0  0  0  0  0  0  0  0  0  0
   58.3060   31.1840   46.5380 C   0  0  0  0  0  0  0  0  0  0  0  0
   58.5690   32.4420   47.2570 C   0  0  0  0  0  0  0  0  0  0  0  0
   57.6380   32.9610   47.9280 O   0  0  0  0  0  0  0  0  0  0  0  0
   59.8790   33.0430   47.2480 N   0  0  0  0  0  0  0  0  0  0  0  0
   61.0690   32.1900   47.0930 C   0  0  0  0  0  0  0  0  0  0  0  0
   62.3500   32.8920   47.5740 C   0  0  0  0  0  0  0  0  0  0  0  0
   62.0940   33.6870   48.7850 N   0  0  0  0  0  0  0  0  0  0  0  0
   63.1220   33.8350   49.7810 C   0  0  0  0  0  0  0  0  0  0  0  0
   63.3860   34.9790   50.2400 O   0  0  0  0  0  0  0  0  0  0  0  0
   63.9160   32.6890   50.2600 C   0  0  0  0  0  0  0  0  0  0  0  0
   65.5830   32.7380   50.4860 S   0  0  0  0  0  0  0  0  0  0  0  0
   65.6650   31.1480   51.0210 C   0  0  0  0  0  0  0  0  0  0  0  0
   66.9070   30.4750   51.4950 C   0  0  0  0  0  0  0  0  0  0  0  0
   64.4420   30.5800   51.0800 N   0  0  0  0  0  0  0  0  0  0  0  0
   63.4610   31.4260   50.6630 C   0  0  0  0  0  0  0  0  0  0  0  0
   62.0280   30.9920   50.6910 C   0  0  0  0  0  0  0  0  0  0  0  0
   60.9160   34.5680   48.8530 C   0  0  0  0  0  0  0  0  0  0  0  0
   60.0560   34.4550   47.5920 C   0  0  0  0  0  0  0  0  0  0  0  0
   57.8430   31.0840   45.2720 N   0  0  0  0  0  0  0  0  0  0  0  0
   57.4830   32.1950   44.3840 C   0  0  0  0  0  0  0  0  0  0  0  0
   57.2397   29.9910   42.9402 H   0  0  0  0  0  0  0  0  0  0  0  0
   57.6155   28.2185   43.5294 H   0  0  0  0  0  0  0  0  0  0  0  0
   59.2095   27.2529   46.5620 H   0  0  0  0  0  0  0  0  0  0  0  0
   58.7430   25.2790   47.9450 H   0  0  0  0  0  0  0  0  0  0  0  0
   58.9021   29.7086   48.0799 H   0  0  0  0  0  0  0  0  0  0  0  0
   60.9259   31.2712   47.6807 H   0  0  0  0  0  0  0  0  0  0  0  0
   61.1874   31.9646   46.0229 H   0  0  0  0  0  0  0  0  0  0  0  0
   63.1139   32.1326   47.7973 H   0  0  0  0  0  0  0  0  0  0  0  0
   62.6983   33.5677   46.7790 H   0  0  0  0  0  0  0  0  0  0  0  0
   66.9226   30.4666   52.5949 H   0  0  0  0  0  0  0  0  0  0  0  0
   66.9298   29.4411   51.1200 H   0  0  0  0  0  0  0  0  0  0  0  0
   67.7856   31.0205   51.1200 H   0  0  0  0  0  0  0  0  0  0  0  0
   61.6957   30.8914   51.7348 H   0  0  0  0  0  0  0  0  0  0  0  0
   61.4075   31.7425   50.1794 H   0  0  0  0  0  0  0  0  0  0  0  0
   61.9282   30.0233   50.1794 H   0  0  0  0  0  0  0  0  0  0  0  0
   60.3089   34.2860   49.7259 H   0  0  0  0  0  0  0  0  0  0  0  0
   61.2672   35.6069   48.9387 H   0  0  0  0  0  0  0  0  0  0  0  0
   59.0733   34.9137   47.7759 H   0  0  0  0  0  0  0  0  0  0  0  0
   60.5535   34.9758   46.7606 H   0  0  0  0  0  0  0  0  0  0  0  0
   57.1995   33.0698   44.9876 H   0  0  0  0  0  0  0  0  0  0  0  0
   58.3442   32.4509   43.7493 H   0  0  0  0  0  0  0  0  0  0  0  0
   56.6354   31.8972   43.7493 H   0  0  0  0  0  0  0  0  0  0  0  0
  1  2  2  0
  2  3  1  0
  3  4  2  3
  4  5  1  0
  5  6  1  0
  6  7  1  0
  7  8  2  0
  7  9  1  0
  9 10  1  0
 10 11  1  0
  3 12  1  0
 12 13  2  0
 13 14  1  0
 14 15  2  0
 14 16  1  0
 16 17  1  0
 17 18  1  0
 18 19  1  0
 19 20  1  0
 20 21  2  0
 20 22  1  0
 22 23  1  0
 23 24  1  0
 24 25  1  0
 24 26  2  0
 26 27  1  0
 27 28  1  0
 19 29  1  0
 29 30  1  0
 13 31  1  0
 31 32  1  0
 31  2  1  0
 10  5  2  0
 30 16  1  0
 27 22  2  0
  1 33  1  0
  1 34  1  0
  4 35  1  0
 11 36  1  0
 12 37  1  0
 17 38  1  0
 17 39  1  0
 18 40  1  0
 18 41  1  0
 25 42  1  0
 25 43  1  0
 25 44  1  0
 28 45  1  0
 28 46  1  0
 28 47  1  0
 29 48  1  0
 29 49  1  0
 30 50  1  0
 30 51  1  0
 32 52  1  0
 32 53  1  0
 32 54  1  0
M  CHG  2   6  -1   9  -1
M  END
>  <UniqueID>  (27) 
24

>  <SMILES>  (27) 
C=c1c(=Cc2[n-]c(=O)[n-]c2O)cc(C(=O)N2CCN(C(=O)c3sc(C)nc3C)CC2)n1C

>  <Energy>  (27) 
164.53480026572825

>  <Genealogy>  (27) 
C=c1c(=Cc2[n-]c(=O)[n-]c2O)cc(C(=O)N2CCN(C(=O)c3sc(C)nc3C)CC2)n1C (protonated)
C=c1c(=Cc2[n-]c(=O)[n-]c2O)cc(C(=O)N2CCN(C(=O)c3sc(C)nc3C)CC2)n1C (3D coordinates assigned)
C=c1c(=Cc2[n-]c(=O)[n-]c2O)cc(C(=O)N2CCN(C(=O)c3sc(C)nc3C)CC2)n1C (nonaromatic ring conformer: 164.53480026572825 kcal/mol)

>  <smiles>  (27) 
C=c1c(=Cc2[nH]c(=O)[nH]c2O)cc(C(=O)N2CCN(C(=O)c3sc(C)nc3C)CC2)n1C

>  <score_type>  (27) 
oracle

>  <origin>  (27) 
adg

>  <m_score__min__energy>  (27) 
-13.699999999999999

>  <m_primary>  (27) 
energy

$$$$
27:0
     RDKit          3D

 39 40  0  0  0  0  0  0  0  0999 V2000
   62.6510   31.4540   47.4920 C   0  0  0  0  0  0  0  0  0  0  0  0
   61.5990   30.8270   48.2160 O   0  0  0  0  0  0  0  0  0  0  0  0
   60.4980   30.1900   47.6230 C   0  0  0  0  0  0  0  0  0  0  0  0
   59.5990   29.3950   48.3590 C   0  0  0  0  0  0  0  0  0  0  0  0
   58.5160   28.7810   47.7210 C   0  0  0  0  0  0  0  0  0  0  0  0
   58.3180   28.9490   46.3420 C   0  0  0  0  0  0  0  0  0  0  0  0
   57.1420   28.3100   45.6540 C   0  0  0  0  0  0  0  0  0  0  0  0
   56.1830   29.3290   45.2410 N   0  0  0  0  0  0  0  0  0  0  0  0
   56.2310   29.9990   43.9770 C   0  0  0  0  0  0  0  0  0  0  0  0
   55.7220   29.4620   42.9560 O   0  0  0  0  0  0  0  0  0  0  0  0
   56.8840   31.3120   43.8730 C   0  0  0  0  0  0  0  0  0  0  0  0
   57.3530   31.6820   42.7620 O   0  0  0  0  0  0  0  0  0  0  0  0
   56.9950   32.1680   45.0220 N   0  0  0  0  0  0  0  0  0  0  0  0
   57.5930   33.4990   44.9510 C   0  0  0  0  0  0  0  0  0  0  0  0
   58.5870   33.6820   46.0650 C   0  0  0  0  0  0  0  0  0  0  0  0
   59.8730   34.1710   45.7840 C   0  0  0  0  0  0  0  0  0  0  0  0
   60.8090   34.3250   46.8110 C   0  0  0  0  0  0  0  0  0  0  0  0
   60.4690   33.9890   48.1250 C   0  0  0  0  0  0  0  0  0  0  0  0
   61.6450   34.1820   49.4130 Cl  0  0  0  0  0  0  0  0  0  0  0  0
   59.1910   33.4980   48.4110 C   0  0  0  0  0  0  0  0  0  0  0  0
   58.2530   33.3430   47.3860 C   0  0  0  0  0  0  0  0  0  0  0  0
   59.2110   29.7450   45.6110 C   0  0  0  0  0  0  0  0  0  0  0  0
   60.2940   30.3580   46.2480 C   0  0  0  0  0  0  0  0  0  0  0  0
   63.3755   31.8858   48.1982 H   0  0  0  0  0  0  0  0  0  0  0  0
   63.1553   30.7090   46.8590 H   0  0  0  0  0  0  0  0  0  0  0  0
   62.2356   32.2520   46.8590 H   0  0  0  0  0  0  0  0  0  0  0  0
   59.7487   29.2561   49.4399 H   0  0  0  0  0  0  0  0  0  0  0  0
   57.8162   28.1635   48.3032 H   0  0  0  0  0  0  0  0  0  0  0  0
   57.4938   27.7620   44.7675 H   0  0  0  0  0  0  0  0  0  0  0  0
   56.6504   27.6180   46.3536 H   0  0  0  0  0  0  0  0  0  0  0  0
   56.6440   31.8350   45.9480 H   0  0  0  0  0  0  0  0  0  0  0  0
   58.1048   33.6163   43.9844 H   0  0  0  0  0  0  0  0  0  0  0  0
   56.7998   34.2546   45.0500 H   0  0  0  0  0  0  0  0  0  0  0  0
   60.1452   34.4341   44.7512 H   0  0  0  0  0  0  0  0  0  0  0  0
   61.8140   34.7109   46.5851 H   0  0  0  0  0  0  0  0  0  0  0  0
   58.9234   33.2332   49.4446 H   0  0  0  0  0  0  0  0  0  0  0  0
   57.2499   32.9541   47.6152 H   0  0  0  0  0  0  0  0  0  0  0  0
   59.0588   29.8879   44.5310 H   0  0  0  0  0  0  0  0  0  0  0  0
   60.9913   30.9771   45.6645 H   0  0  0  0  0  0  0  0  0  0  0  0
  1  2  1  0
  2  3  1  0
  3  4  2  0
  4  5  1  0
  5  6  2  0
  6  7  1  0
  7  8  1  0
  8  9  1  0
  9 10  2  0
  9 11  1  0
 11 12  2  0
 11 13  1  0
 13 14  1  0
 14 15  1  0
 15 16  2  0
 16 17  1  0
 17 18  2  0
 18 19  1  0
 18 20  1  0
 20 21  2  0
  6 22  1  0
 22 23  2  0
 23  3  1  0
 21 15  1  0
  1 24  1  0
  1 25  1  0
  1 26  1  0
  4 27  1  0
  5 28  1  0
  7 29  1  0
  7 30  1  0
 13 31  1  0
 14 32  1  0
 14 33  1  0
 16 34  1  0
 17 35  1  0
 20 36  1  0
 21 37  1  0
 22 38  1  0
 23 39  1  0
M  CHG  1   8  -1
M  END
>  <UniqueID>  (28) 
25

>  <SMILES>  (28) 
COc1ccc(C[N-]C(=O)C(=O)NCc2ccc(Cl)cc2)cc1

>  <Energy>  (28) 
32.513260035867816

>  <Genealogy>  (28) 
COc1ccc(C[N-]C(=O)C(=O)NCc2ccc(Cl)cc2)cc1 (protonated)
COc1ccc(C[N-]C(=O)C(=O)NCc2ccc(Cl)cc2)cc1 (3D coordinates assigned)
COc1ccc(C[N-]C(=O)C(=O)NCc2ccc(Cl)cc2)cc1 (optimized conformer: 32.513260035867816 kcal/mol)

>  <smiles>  (28) 
COc1ccc(CNC(=O)C(=O)NCc2ccc(Cl)cc2)cc1

>  <score_type>  (28) 
oracle

>  <origin>  (28) 
adg

>  <m_score__min__energy>  (28) 
-10.01

>  <m_primary>  (28) 
energy

$$$$
28:0
     RDKit          3D

 50 53  0  0  0  0  0  0  0  0999 V2000
   55.9400   29.0520   45.0770 N   0  0  0  0  0  0  0  0  0  0  0  0
   57.3360   28.1170   45.4810 S   0  0  0  0  0  0  0  0  0  0  0  0
   58.0100   27.6470   44.2230 O   0  0  0  0  0  0  0  0  0  0  0  0
   56.9220   26.9200   46.2900 O   0  0  0  0  0  0  0  0  0  0  0  0
   58.4520   29.0970   46.4110 C   0  0  0  0  0  0  0  0  0  0  0  0
   58.6510   29.0130   47.7810 C   0  0  0  0  0  0  0  0  0  0  0  0
   59.6240   29.9040   48.2470 C   0  0  0  0  0  0  0  0  0  0  0  0
   60.1770   30.6920   47.2410 C   0  0  0  0  0  0  0  0  0  0  0  0
   61.2580   31.6810   47.4140 C   0  0  0  0  0  0  0  0  0  0  0  0
   62.5800   31.2890   47.1440 C   0  0  0  0  0  0  0  0  0  0  0  0
   63.6430   32.1600   47.3880 C   0  0  0  0  0  0  0  0  0  0  0  0
   63.4010   33.4310   47.9060 C   0  0  0  0  0  0  0  0  0  0  0  0
   62.0920   33.8460   48.1600 C   0  0  0  0  0  0  0  0  0  0  0  0
   61.0100   32.9890   47.9010 C   0  0  0  0  0  0  0  0  0  0  0  0
   59.6400   33.5230   48.0710 C   0  0  0  0  0  0  0  0  0  0  0  0
   59.1110   33.4760   49.2170 O   0  0  0  0  0  0  0  0  0  0  0  0
   58.9910   34.2450   46.9930 N   0  0  0  0  0  0  0  0  0  0  0  0
   59.7790   34.1600   45.7360 C   0  0  0  0  0  0  0  0  0  0  0  0
   58.8870   34.3460   44.4990 C   0  0  0  0  0  0  0  0  0  0  0  0
   57.8370   33.2970   44.3920 N   0  0  0  0  0  0  0  0  0  0  0  0
   58.2560   32.2170   43.4700 C   0  0  0  0  0  0  0  0  0  0  0  0
   58.0440   32.5760   41.9970 C   0  0  0  0  0  0  0  0  0  0  0  0
   57.0450   31.4400   41.8550 C   0  0  0  0  0  0  0  0  0  0  0  0
   57.2190   31.0980   43.3260 C   0  0  0  0  0  0  0  0  0  0  0  0
   57.4490   32.7380   45.7150 C   0  0  0  0  0  0  0  0  0  0  0  0
   57.5890   33.7760   46.8380 C   0  0  0  0  0  0  0  0  0  0  0  0
   59.4820   30.2580   45.7680 S   0  0  0  0  0  0  0  0  0  0  0  0
   55.1410   28.6570   45.6200 H   0  0  0  0  0  0  0  0  0  0  0  0
   58.1013   28.3184   48.4332 H   0  0  0  0  0  0  0  0  0  0  0  0
   59.9225   29.9749   49.3034 H   0  0  0  0  0  0  0  0  0  0  0  0
   62.7790   30.2867   46.7367 H   0  0  0  0  0  0  0  0  0  0  0  0
   64.6737   31.8427   47.1711 H   0  0  0  0  0  0  0  0  0  0  0  0
   64.2422   34.1082   48.1151 H   0  0  0  0  0  0  0  0  0  0  0  0
   61.9071   34.8515   48.5659 H   0  0  0  0  0  0  0  0  0  0  0  0
   58.9460   35.2570   47.2590 H   0  0  0  0  0  0  0  0  0  0  0  0
   60.5490   34.9456   45.7429 H   0  0  0  0  0  0  0  0  0  0  0  0
   60.2385   33.1620   45.6834 H   0  0  0  0  0  0  0  0  0  0  0  0
   58.3983   35.3295   44.5609 H   0  0  0  0  0  0  0  0  0  0  0  0
   59.5288   34.2692   43.6089 H   0  0  0  0  0  0  0  0  0  0  0  0
   59.2597   32.0034   43.8661 H   0  0  0  0  0  0  0  0  0  0  0  0
   57.6119   33.5749   41.8372 H   0  0  0  0  0  0  0  0  0  0  0  0
   58.9039   32.6459   41.3146 H   0  0  0  0  0  0  0  0  0  0  0  0
   56.0293   31.7668   41.5876 H   0  0  0  0  0  0  0  0  0  0  0  0
   57.1876   30.6679   41.0846 H   0  0  0  0  0  0  0  0  0  0  0  0
   56.3124   31.2466   43.9309 H   0  0  0  0  0  0  0  0  0  0  0  0
   57.4659   30.0704   43.6311 H   0  0  0  0  0  0  0  0  0  0  0  0
   56.4018   32.4048   45.6671 H   0  0  0  0  0  0  0  0  0  0  0  0
   58.1222   31.8979   45.9411 H   0  0  0  0  0  0  0  0  0  0  0  0
   56.9495   34.6400   46.6044 H   0  0  0  0  0  0  0  0  0  0  0  0
   57.2849   33.2985   47.7811 H   0  0  0  0  0  0  0  0  0  0  0  0
  1  2  1  0
  2  3  2  0
  2  4  2  0
  2  5  1  0
  5  6  2  0
  6  7  1  0
  7  8  2  0
  8  9  1  0
  9 10  2  0
 10 11  1  0
 11 12  2  0
 12 13  1  0
 13 14  2  0
 14 15  1  0
 15 16  2  0
 15 17  1  0
 17 18  1  0
 18 19  1  0
 19 20  1  0
 20 21  1  0
 21 22  1  0
 22 23  1  0
 23 24  1  0
 20 25  1  0
 25 26  1  0
  8 27  1  0
 27  5  1  0
 14  9  1  0
 26 17  1  0
 24 21  1  0
  1 28  1  0
  6 29  1  0
  7 30  1  0
 10 31  1  0
 11 32  1  0
 12 33  1  0
 13 34  1  0
 17 35  1  0
 18 36  1  0
 18 37  1  0
 19 38  1  0
 19 39  1  0
 21 40  1  0
 22 41  1  0
 22 42  1  0
 23 43  1  0
 23 44  1  0
 24 45  1  0
 24 46  1  0
 25 47  1  0
 25 48  1  0
 26 49  1  0
 26 50  1  0
M  CHG  2   1  -1  17   1
M  END
>  <UniqueID>  (29) 
26

>  <SMILES>  (29) 
[NH-]S(=O)(=O)c1ccc(-c2ccccc2C(=O)[NH+]2CCN(C3CCC3)CC2)s1

>  <Energy>  (29) 
163.69376091148104

>  <Genealogy>  (29) 
[NH-]S(=O)(=O)c1ccc(-c2ccccc2C(=O)[NH+]2CCN(C3CCC3)CC2)s1 (protonated)
[NH-]S(=O)(=O)c1ccc(-c2ccccc2C(=O)[NH+]2CCN(C3CCC3)CC2)s1 (3D coordinates assigned)
[NH-]S(=O)(=O)c1ccc(-c2ccccc2C(=O)[NH+]2CCN(C3CCC3)CC2)s1 (nonaromatic ring conformer: 163.69376091148104 kcal/mol)

>  <smiles>  (29) 
NS(=O)(=O)c1ccc(-c2ccccc2C(=O)N2CCN(C3CCC3)CC2)s1

>  <score_type>  (29) 
oracle

>  <origin>  (29) 
adg

>  <m_score__min__energy>  (29) 
-10.44

>  <m_primary>  (29) 
energy

$$$$
29:0
     RDKit          3D

 44 46  0  0  0  0  0  0  0  0999 V2000
   61.3275   30.7128   45.6986 H   0  0  0  0  0  0  0  0  0  0  0  0
   61.2490   30.5820   46.7880 C   0  0  0  0  0  0  0  0  0  0  0  0
   60.3800   29.6930   47.2970 C   0  0  0  0  0  0  0  0  0  0  0  0
   59.5010   28.8890   46.4120 C   0  0  0  0  0  0  0  0  0  0  0  0
   59.7250   27.5110   46.2590 C   0  0  0  0  0  0  0  0  0  0  0  0
   60.5567   27.0291   46.7939 H   0  0  0  0  0  0  0  0  0  0  0  0
   58.8980   26.7500   45.4320 C   0  0  0  0  0  0  0  0  0  0  0  0
   59.0852   25.6727   45.3122 H   0  0  0  0  0  0  0  0  0  0  0  0
   57.8340   27.3500   44.7560 C   0  0  0  0  0  0  0  0  0  0  0  0
   57.1903   26.7427   44.1027 H   0  0  0  0  0  0  0  0  0  0  0  0
   57.5790   28.7250   44.9040 C   0  0  0  0  0  0  0  0  0  0  0  0
   56.4450   29.3470   44.1740 C   0  0  0  0  0  0  0  0  0  0  0  0
   55.4140   29.6960   44.8090 O   0  0  0  0  0  0  0  0  0  0  0  0
   56.4960   29.5730   42.7620 N   0  0  0  0  0  0  0  0  0  0  0  0
   57.3790   29.4740   42.2160 H   0  0  0  0  0  0  0  0  0  0  0  0
   55.6510   29.9360   42.2640 H   0  0  0  0  0  0  0  0  0  0  0  0
   58.4270   29.4890   45.7290 C   0  0  0  0  0  0  0  0  0  0  0  0
   58.2475   30.5685   45.8409 H   0  0  0  0  0  0  0  0  0  0  0  0
   60.3470   29.4960   48.7940 C   0  0  0  0  0  0  0  0  0  0  0  0
   59.4178   28.9750   49.0679 H   0  0  0  0  0  0  0  0  0  0  0  0
   61.2237   28.9006   49.0887 H   0  0  0  0  0  0  0  0  0  0  0  0
   60.4020   30.8470   49.5290 C   0  0  0  0  0  0  0  0  0  0  0  0
   59.3953   31.2903   49.5327 H   0  0  0  0  0  0  0  0  0  0  0  0
   60.7596   30.6622   50.5527 H   0  0  0  0  0  0  0  0  0  0  0  0
   61.3340   31.7890   48.8850 N   0  0  0  0  0  0  0  0  0  0  0  0
   61.5280   33.0880   49.4610 C   0  0  0  0  0  0  0  0  0  0  0  0
   62.3740   33.2400   50.3790 O   0  0  0  0  0  0  0  0  0  0  0  0
   60.7510   34.2170   49.0330 N   0  0  0  0  0  0  0  0  0  0  0  0
   59.8760   34.2130   48.0690 C   0  0  0  0  0  0  0  0  0  0  0  0
   58.7280   33.4810   48.1580 N   0  0  0  0  0  0  0  0  0  0  0  0
   57.8030   33.4600   47.1640 C   0  0  0  0  0  0  0  0  0  0  0  0
   56.8916   32.8541   47.2745 H   0  0  0  0  0  0  0  0  0  0  0  0
   58.0080   34.2090   45.9980 C   0  0  0  0  0  0  0  0  0  0  0  0
   57.0100   34.1670   44.8790 C   0  0  0  0  0  0  0  0  0  0  0  0
   55.9930   34.1242   45.2961 H   0  0  0  0  0  0  0  0  0  0  0  0
   57.1148   35.0703   44.2601 H   0  0  0  0  0  0  0  0  0  0  0  0
   57.1903   33.2756   44.2601 H   0  0  0  0  0  0  0  0  0  0  0  0
   59.1960   34.9420   45.8680 C   0  0  0  0  0  0  0  0  0  0  0  0
   59.3913   35.5131   44.9484 H   0  0  0  0  0  0  0  0  0  0  0  0
   60.1320   34.9480   46.9050 C   0  0  0  0  0  0  0  0  0  0  0  0
   61.0630   35.5257   46.8079 H   0  0  0  0  0  0  0  0  0  0  0  0
   62.1120   31.3960   47.7050 C   0  0  0  0  0  0  0  0  0  0  0  0
   62.4599   32.2968   47.1781 H   0  0  0  0  0  0  0  0  0  0  0  0
   62.9800   30.7981   48.0196 H   0  0  0  0  0  0  0  0  0  0  0  0
  1  2  1  0
  2  3  2  0
  3  4  1  0
  4  5  2  0
  5  6  1  0
  5  7  1  0
  7  8  1  0
  7  9  2  0
  9 10  1  0
  9 11  1  0
 11 12  1  0
 12 13  2  0
 12 14  1  0
 14 15  1  0
 14 16  1  0
 11 17  2  0
 17 18  1  0
  3 19  1  0
 19 20  1  0
 19 21  1  0
 19 22  1  0
 22 23  1  0
 22 24  1  0
 22 25  1  0
 25 26  1  0
 26 27  2  0
 26 28  1  0
 28 29  2  0
 29 30  1  0
 30 31  1  0
 31 32  1  0
 31 33  2  0
 33 34  1  0
 34 35  1  0
 34 36  1  0
 34 37  1  0
 33 38  1  0
 38 39  1  0
 38 40  2  0
 40 41  1  0
 25 42  1  0
 42 43  1  0
 42 44  1  0
 42  2  1  0
 17  4  1  0
 40 29  1  0
M  CHG  1  30  -1
M  END
>  <UniqueID>  (30) 
27

>  <SMILES>  (30) 
Cc1cc/c(=N/C(=O)N2CC=C(c3cccc(C(N)=O)c3)CC2)[n-]c1

>  <Energy>  (30) 
57.91932027471815

>  <Genealogy>  (30) 
Cc1ccc(=NC(=O)N2CC=C(c3cccc(C(N)=O)c3)CC2)[n-]c1 (protonated)
Cc1cc/c(=N/C(=O)N2CC=C(c3cccc(C(N)=O)c3)CC2)[n-]c1 (cis-trans isomerization)
Cc1cc/c(=N/C(=O)N2CC=C(c3cccc(C(N)=O)c3)CC2)[n-]c1 (3D coordinates assigned)
Cc1cc/c(=N/C(=O)N2CC=C(c3cccc(C(N)=O)c3)CC2)[n-]c1 (nonaromatic ring conformer: 57.91932027471815 kcal/mol)

>  <smiles>  (30) 
Cc1ccc(=NC(=O)N2CC=C(c3cccc(C(N)=O)c3)CC2)[nH]c1

>  <score_type>  (30) 
oracle

>  <origin>  (30) 
adg

>  <m_score__min__energy>  (30) 
-10.24

>  <m_primary>  (30) 
energy

$$$$
30:0
     RDKit          3D

 45 47  0  0  0  0  0  0  0  0999 V2000
   61.3720   30.5790   48.5400 C   0  0  0  0  0  0  0  0  0  0  0  0
   62.5050   31.5770   48.7410 C   0  0  0  0  0  0  0  0  0  0  0  0
   62.3150   32.3130   49.9920 N   0  0  0  0  0  0  0  0  0  0  0  0
   61.4580   33.8030   49.7270 S   0  0  0  0  0  0  0  0  0  0  0  0
   62.4490   34.9250   49.6010 O   0  0  0  0  0  0  0  0  0  0  0  0
   60.5650   34.0890   50.9020 O   0  0  0  0  0  0  0  0  0  0  0  0
   60.5030   33.7130   48.2490 C   0  0  0  0  0  0  0  0  0  0  0  0
   59.1470   33.3700   48.3140 C   0  0  0  0  0  0  0  0  0  0  0  0
   58.3760   33.3220   47.1490 C   0  0  0  0  0  0  0  0  0  0  0  0
   58.9590   33.6040   45.9020 C   0  0  0  0  0  0  0  0  0  0  0  0
   58.1890   33.5960   44.6930 N   0  0  0  0  0  0  0  0  0  0  0  0
   57.7140   32.4380   43.9930 C   0  0  0  0  0  0  0  0  0  0  0  0
   58.2450   32.1350   42.8910 O   0  0  0  0  0  0  0  0  0  0  0  0
   56.6360   31.5540   44.5560 C   0  0  0  0  0  0  0  0  0  0  0  0
   57.1940   30.2600   44.9470 N   0  0  0  0  0  0  0  0  0  0  0  0
   56.5150   29.1040   45.1060 C   0  0  0  0  0  0  0  0  0  0  0  0
   55.1530   28.9580   44.8690 O   0  0  0  0  0  0  0  0  0  0  0  0
   57.3610   28.1060   45.5470 C   0  0  0  0  0  0  0  0  0  0  0  0
   58.6040   28.6760   45.6760 C   0  0  0  0  0  0  0  0  0  0  0  0
   58.4700   30.0020   45.3090 C   0  0  0  0  0  0  0  0  0  0  0  0
   59.4860   30.9550   45.3150 O   0  0  0  0  0  0  0  0  0  0  0  0
   59.8110   27.9450   46.1680 C   0  0  0  0  0  0  0  0  0  0  0  0
   59.5140   26.4810   46.4310 C   0  0  0  0  0  0  0  0  0  0  0  0
   58.2910   25.9220   46.3040 C   0  0  0  0  0  0  0  0  0  0  0  0
   57.0500   26.6840   45.8810 C   0  0  0  0  0  0  0  0  0  0  0  0
   60.3070   33.9790   45.8450 C   0  0  0  0  0  0  0  0  0  0  0  0
   61.0780   34.0250   47.0090 C   0  0  0  0  0  0  0  0  0  0  0  0
   60.9966   30.2483   49.5196 H   0  0  0  0  0  0  0  0  0  0  0  0
   60.5569   31.0580   47.9776 H   0  0  0  0  0  0  0  0  0  0  0  0
   61.7443   29.7100   47.9776 H   0  0  0  0  0  0  0  0  0  0  0  0
   63.4624   31.0368   48.7792 H   0  0  0  0  0  0  0  0  0  0  0  0
   62.5086   32.2893   47.9027 H   0  0  0  0  0  0  0  0  0  0  0  0
   58.6867   33.1374   49.2856 H   0  0  0  0  0  0  0  0  0  0  0  0
   57.3087   33.0625   47.2087 H   0  0  0  0  0  0  0  0  0  0  0  0
   56.1924   32.0393   45.4378 H   0  0  0  0  0  0  0  0  0  0  0  0
   55.8661   31.3942   43.7868 H   0  0  0  0  0  0  0  0  0  0  0  0
   59.4350   31.7790   44.7280 H   0  0  0  0  0  0  0  0  0  0  0  0
   60.6045   28.0168   45.4096 H   0  0  0  0  0  0  0  0  0  0  0  0
   60.1272   28.4055   47.1156 H   0  0  0  0  0  0  0  0  0  0  0  0
   60.3466   25.8342   46.7447 H   0  0  0  0  0  0  0  0  0  0  0  0
   58.1889   24.8484   46.5206 H   0  0  0  0  0  0  0  0  0  0  0  0
   56.6171   26.1964   44.9951 H   0  0  0  0  0  0  0  0  0  0  0  0
   56.3405   26.6769   46.7216 H   0  0  0  0  0  0  0  0  0  0  0  0
   60.7616   34.2390   44.8776 H   0  0  0  0  0  0  0  0  0  0  0  0
   62.1397   34.3069   46.9525 H   0  0  0  0  0  0  0  0  0  0  0  0
  1  2  1  0
  2  3  1  0
  3  4  1  0
  4  5  2  0
  4  6  2  0
  4  7  1  0
  7  8  2  0
  8  9  1  0
  9 10  2  0
 10 11  1  0
 11 12  1  0
 12 13  2  0
 12 14  1  0
 14 15  1  0
 15 16  1  0
 16 17  1  0
 16 18  2  0
 18 19  1  0
 19 20  2  0
 20 21  1  0
 19 22  1  0
 22 23  1  0
 23 24  2  0
 24 25  1  0
 10 26  1  0
 26 27  2  0
 27  7  1  0
 20 15  1  0
 25 18  1  0
  1 28  1  0
  1 29  1  0
  1 30  1  0
  2 31  1  0
  2 32  1  0
  8 33  1  0
  9 34  1  0
 14 35  1  0
 14 36  1  0
 21 37  1  0
 22 38  1  0
 22 39  1  0
 23 40  1  0
 24 41  1  0
 25 42  1  0
 25 43  1  0
 26 44  1  0
 27 45  1  0
M  CHG  3   3  -1  11  -1  17  -1
M  END
>  <UniqueID>  (31) 
28

>  <SMILES>  (31) 
CC[N-]S(=O)(=O)c1ccc([N-]C(=O)Cn2c([O-])c3c(c2O)CC=CC3)cc1

>  <Energy>  (31) 
78.57144095245661

>  <Genealogy>  (31) 
CC[N-]S(=O)(=O)c1ccc([N-]C(=O)Cn2c([O-])c3c(c2O)CC=CC3)cc1 (protonated)
CC[N-]S(=O)(=O)c1ccc([N-]C(=O)Cn2c([O-])c3c(c2O)CC=CC3)cc1 (3D coordinates assigned)
CC[N-]S(=O)(=O)c1ccc([N-]C(=O)Cn2c([O-])c3c(c2O)CC=CC3)cc1 (nonaromatic ring conformer: 78.57144095245661 kcal/mol)

>  <smiles>  (31) 
CCNS(=O)(=O)c1ccc(NC(=O)Cn2c(O)c3c(c2O)CC=CC3)cc1

>  <score_type>  (31) 
oracle

>  <origin>  (31) 
adg

>  <m_score__min__energy>  (31) 
-13.41

>  <m_primary>  (31) 
energy

$$$$
31:0
     RDKit          3D

 35 36  0  0  0  0  0  0  0  0999 V2000
   61.1790   30.6460   47.1380 C   0  0  0  0  0  0  0  0  0  0  0  0
   60.7780   30.0630   48.4190 N   0  0  0  0  0  0  0  0  0  0  0  0
   61.1870   30.7140   49.6640 C   0  0  0  0  0  0  0  0  0  0  0  0
   60.0370   28.8300   48.4800 C   0  0  0  0  0  0  0  0  0  0  0  0
   60.2990   27.9930   49.3860 O   0  0  0  0  0  0  0  0  0  0  0  0
   59.0020   28.5330   47.5330 N   0  0  0  0  0  0  0  0  0  0  0  0
   58.3880   27.3470   47.3530 C   0  0  0  0  0  0  0  0  0  0  0  0
   57.4840   27.4760   46.3170 C   0  0  0  0  0  0  0  0  0  0  0  0
   56.5570   26.4260   45.8550 C   0  0  0  0  0  0  0  0  0  0  0  0
   55.1500   26.6230   45.9700 N   0  0  0  0  0  0  0  0  0  0  0  0
   56.9910   25.3670   45.3320 O   0  0  0  0  0  0  0  0  0  0  0  0
   57.6170   28.7970   45.8960 C   0  0  0  0  0  0  0  0  0  0  0  0
   56.9290   29.4730   44.7770 C   0  0  0  0  0  0  0  0  0  0  0  0
   56.7740   28.8720   43.6830 O   0  0  0  0  0  0  0  0  0  0  0  0
   56.5310   30.8470   44.8690 N   0  0  0  0  0  0  0  0  0  0  0  0
   57.4050   31.9720   45.0450 C   0  0  0  0  0  0  0  0  0  0  0  0
   57.8420   32.7460   43.9540 C   0  0  0  0  0  0  0  0  0  0  0  0
   58.7080   33.8230   44.1580 C   0  0  0  0  0  0  0  0  0  0  0  0
   59.1580   34.1260   45.4460 C   0  0  0  0  0  0  0  0  0  0  0  0
   58.7490   33.3450   46.5310 C   0  0  0  0  0  0  0  0  0  0  0  0
   59.3770   33.7500   48.2890 Br  0  0  0  0  0  0  0  0  0  0  0  0
   57.8820   32.2660   46.3290 C   0  0  0  0  0  0  0  0  0  0  0  0
   58.5550   29.4090   46.6480 N   0  0  0  0  0  0  0  0  0  0  0  0
   61.7939   31.5400   47.3185 H   0  0  0  0  0  0  0  0  0  0  0  0
   61.7622   29.9091   46.5663 H   0  0  0  0  0  0  0  0  0  0  0  0
   60.2822   30.9271   46.5663 H   0  0  0  0  0  0  0  0  0  0  0  0
   60.8201   30.1299   50.5209 H   0  0  0  0  0  0  0  0  0  0  0  0
   62.2847   30.7729   49.7035 H   0  0  0  0  0  0  0  0  0  0  0  0
   60.7637   31.7285   49.7035 H   0  0  0  0  0  0  0  0  0  0  0  0
   58.5752   26.4313   47.9330 H   0  0  0  0  0  0  0  0  0  0  0  0
   54.7410   27.0940   46.8070 H   0  0  0  0  0  0  0  0  0  0  0  0
   57.5005   32.5021   42.9372 H   0  0  0  0  0  0  0  0  0  0  0  0
   59.0362   34.4334   43.3038 H   0  0  0  0  0  0  0  0  0  0  0  0
   59.8339   34.9789   45.6060 H   0  0  0  0  0  0  0  0  0  0  0  0
   57.5731   31.6451   47.1828 H   0  0  0  0  0  0  0  0  0  0  0  0
  1  2  1  0
  2  3  1  0
  2  4  1  0
  4  5  2  0
  4  6  1  0
  6  7  1  0
  7  8  2  0
  8  9  1  0
  9 10  1  0
  9 11  2  0
  8 12  1  0
 12 13  1  0
 13 14  2  0
 13 15  1  0
 15 16  1  0
 16 17  2  0
 17 18  1  0
 18 19  2  0
 19 20  1  0
 20 21  1  0
 20 22  2  0
 12 23  2  0
 23  6  1  0
 22 16  1  0
  1 24  1  0
  1 25  1  0
  1 26  1  0
  3 27  1  0
  3 28  1  0
  3 29  1  0
  7 30  1  0
 10 31  1  0
 17 32  1  0
 18 33  1  0
 19 34  1  0
 22 35  1  0
M  CHG  2  10  -1  15  -1
M  END
>  <UniqueID>  (32) 
29

>  <SMILES>  (32) 
CN(C)C(=O)n1cc(C([NH-])=O)c(C(=O)[N-]c2cccc(Br)c2)n1

>  <Energy>  (32) 
72.95202014931242

>  <Genealogy>  (32) 
CN(C)C(=O)n1cc(C([NH-])=O)c(C(=O)[N-]c2cccc(Br)c2)n1 (protonated)
CN(C)C(=O)n1cc(C([NH-])=O)c(C(=O)[N-]c2cccc(Br)c2)n1 (3D coordinates assigned)
CN(C)C(=O)n1cc(C([NH-])=O)c(C(=O)[N-]c2cccc(Br)c2)n1 (optimized conformer: 72.95202014931242 kcal/mol)

>  <smiles>  (32) 
CN(C)C(=O)n1cc(C(N)=O)c(C(=O)Nc2cccc(Br)c2)n1

>  <score_type>  (32) 
oracle

>  <origin>  (32) 
adg

>  <m_score__min__energy>  (32) 
-12.199999999999999

>  <m_primary>  (32) 
energy

$$$$
32:0
     RDKit          3D

 41 43  0  0  0  0  0  0  0  0999 V2000
   55.4670   30.2780   44.1150 C   0  0  0  0  0  0  0  0  0  0  0  0
   56.3630   29.6730   44.8980 C   0  0  0  0  0  0  0  0  0  0  0  0
   56.2380   28.3780   45.2720 N   0  0  0  0  0  0  0  0  0  0  0  0
   57.3410   28.1350   46.0130 C   0  0  0  0  0  0  0  0  0  0  0  0
   57.6140   26.9700   46.6170 C   0  0  0  0  0  0  0  0  0  0  0  0
   57.1350   25.6720   46.1140 C   0  0  0  0  0  0  0  0  0  0  0  0
   57.9660   24.6460   45.8280 N   0  0  0  0  0  0  0  0  0  0  0  0
   57.1370   23.6670   45.4090 C   0  0  0  0  0  0  0  0  0  0  0  0
   57.5450   22.5230   45.0700 O   0  0  0  0  0  0  0  0  0  0  0  0
   55.8380   24.0280   45.3900 N   0  0  0  0  0  0  0  0  0  0  0  0
   54.6840   23.2010   45.0470 C   0  0  0  0  0  0  0  0  0  0  0  0
   55.8320   25.2950   45.8320 C   0  0  0  0  0  0  0  0  0  0  0  0
   54.6850   26.0820   45.9250 O   0  0  0  0  0  0  0  0  0  0  0  0
   58.0980   29.2830   46.0780 C   0  0  0  0  0  0  0  0  0  0  0  0
   59.1800   29.4280   46.7130 O   0  0  0  0  0  0  0  0  0  0  0  0
   57.4930   30.2560   45.3750 N   0  0  0  0  0  0  0  0  0  0  0  0
   57.9390   31.6150   45.2220 C   0  0  0  0  0  0  0  0  0  0  0  0
   58.3040   32.3590   46.3550 C   0  0  0  0  0  0  0  0  0  0  0  0
   58.7480   33.6820   46.2270 C   0  0  0  0  0  0  0  0  0  0  0  0
   59.1720   34.4570   47.4390 C   0  0  0  0  0  0  0  0  0  0  0  0
   58.8630   34.2480   44.9500 C   0  0  0  0  0  0  0  0  0  0  0  0
   58.5060   33.5140   43.8170 C   0  0  0  0  0  0  0  0  0  0  0  0
   58.0370   32.1920   43.9420 C   0  0  0  0  0  0  0  0  0  0  0  0
   57.6510   31.4320   42.8260 O   0  0  0  0  0  0  0  0  0  0  0  0
   57.3920   31.9700   41.5340 C   0  0  0  0  0  0  0  0  0  0  0  0
   55.6053   31.3324   43.8338 H   0  0  0  0  0  0  0  0  0  0  0  0
   54.5903   29.7221   43.7510 H   0  0  0  0  0  0  0  0  0  0  0  0
   58.2248   26.9845   47.5317 H   0  0  0  0  0  0  0  0  0  0  0  0
   54.1963   22.8515   45.9690 H   0  0  0  0  0  0  0  0  0  0  0  0
   53.9701   23.7944   44.4568 H   0  0  0  0  0  0  0  0  0  0  0  0
   55.0164   22.3343   44.4568 H   0  0  0  0  0  0  0  0  0  0  0  0
   54.7340   27.0920   45.9830 H   0  0  0  0  0  0  0  0  0  0  0  0
   58.2409   31.8994   47.3524 H   0  0  0  0  0  0  0  0  0  0  0  0
   58.8734   33.9112   48.3462 H   0  0  0  0  0  0  0  0  0  0  0  0
   60.2647   34.5830   47.4299 H   0  0  0  0  0  0  0  0  0  0  0  0
   58.6889   35.4452   47.4299 H   0  0  0  0  0  0  0  0  0  0  0  0
   59.2367   35.2767   44.8396 H   0  0  0  0  0  0  0  0  0  0  0  0
   58.5917   33.9714   42.8203 H   0  0  0  0  0  0  0  0  0  0  0  0
   56.9169   32.9568   41.6362 H   0  0  0  0  0  0  0  0  0  0  0  0
   58.3387   32.0741   40.9836 H   0  0  0  0  0  0  0  0  0  0  0  0
   56.7202   31.2949   40.9836 H   0  0  0  0  0  0  0  0  0  0  0  0
  1  2  2  0
  2  3  1  0
  3  4  1  0
  4  5  2  3
  5  6  1  0
  6  7  1  0
  7  8  1  0
  8  9  2  0
  8 10  1  0
 10 11  1  0
 10 12  1  0
 12 13  1  0
  4 14  1  0
 14 15  2  0
 14 16  1  0
 16 17  1  0
 17 18  2  0
 18 19  1  0
 19 20  1  0
 19 21  2  0
 21 22  1  0
 22 23  2  0
 23 24  1  0
 24 25  1  0
 16  2  1  0
 23 17  1  0
 12  6  2  0
  1 26  1  0
  1 27  1  0
  5 28  1  0
 11 29  1  0
 11 30  1  0
 11 31  1  0
 13 32  1  0
 18 33  1  0
 20 34  1  0
 20 35  1  0
 20 36  1  0
 21 37  1  0
 22 38  1  0
 25 39  1  0
 25 40  1  0
 25 41  1  0
M  CHG  2   3  -1   7  -1
M  END
>  <UniqueID>  (33) 
30

>  <SMILES>  (33) 
C=c1[n-]c(=Cc2[n-]c(=O)n(C)c2O)c(=O)n1-c1cc(C)ccc1OC

>  <Energy>  (33) 
117.62280153927003

>  <Genealogy>  (33) 
C=c1[n-]c(=Cc2[n-]c(=O)n(C)c2O)c(=O)n1-c1cc(C)ccc1OC (protonated)
C=c1[n-]c(=Cc2[n-]c(=O)n(C)c2O)c(=O)n1-c1cc(C)ccc1OC (3D coordinates assigned)
C=c1[n-]c(=Cc2[n-]c(=O)n(C)c2O)c(=O)n1-c1cc(C)ccc1OC (optimized conformer: 117.62280153927003 kcal/mol)

>  <smiles>  (33) 
C=c1[nH]c(=Cc2[nH]c(=O)n(C)c2O)c(=O)n1-c1cc(C)ccc1OC

>  <score_type>  (33) 
oracle

>  <origin>  (33) 
adg

>  <m_score__min__energy>  (33) 
-11.779999999999999

>  <m_primary>  (33) 
energy

$$$$
33:0
     RDKit          3D

 48 51  0  0  0  0  0  0  0  0999 V2000
   61.0049   27.5806   47.6508 H   0  0  0  0  0  0  0  0  0  0  0  0
   60.1380   27.8730   47.0400 C   0  0  0  0  0  0  0  0  0  0  0  0
   59.4050   26.7900   46.3530 C   0  0  0  0  0  0  0  0  0  0  0  0
   60.0030   25.7380   46.0000 O   0  0  0  0  0  0  0  0  0  0  0  0
   57.9950   26.9340   46.1290 N   0  0  0  0  0  0  0  0  0  0  0  0
   57.5870   27.8940   46.1990 H   0  0  0  0  0  0  0  0  0  0  0  0
   57.1360   25.8690   45.6870 C   0  0  0  0  0  0  0  0  0  0  0  0
   57.6070   24.9620   44.7030 C   0  0  0  0  0  0  0  0  0  0  0  0
   58.6272   25.0722   44.3067 H   0  0  0  0  0  0  0  0  0  0  0  0
   56.7860   23.9240   44.2280 C   0  0  0  0  0  0  0  0  0  0  0  0
   57.1502   23.2105   43.4742 H   0  0  0  0  0  0  0  0  0  0  0  0
   55.4970   23.8300   44.7440 C   0  0  0  0  0  0  0  0  0  0  0  0
   54.5500   22.9350   44.4260 N   0  0  0  0  0  0  0  0  0  0  0  0
   53.5150   23.3290   45.2100 C   0  0  0  0  0  0  0  0  0  0  0  0
   52.4060   22.7330   45.2120 O   0  0  0  0  0  0  0  0  0  0  0  0
   53.7580   24.4120   45.9910 N   0  0  0  0  0  0  0  0  0  0  0  0
   55.0280   24.7060   45.6730 C   0  0  0  0  0  0  0  0  0  0  0  0
   55.8100   25.7460   46.1690 C   0  0  0  0  0  0  0  0  0  0  0  0
   55.4099   26.4508   46.9128 H   0  0  0  0  0  0  0  0  0  0  0  0
   59.8430   29.1800   46.9870 C   0  0  0  0  0  0  0  0  0  0  0  0
   60.2950   29.8290   47.7515 H   0  0  0  0  0  0  0  0  0  0  0  0
   58.9640   29.8220   45.9910 C   0  0  0  0  0  0  0  0  0  0  0  0
   57.7590   29.4080   45.6630 O   0  0  0  0  0  0  0  0  0  0  0  0
   57.2540   30.2380   44.7790 C   0  0  0  0  0  0  0  0  0  0  0  0
   55.8750   30.0960   44.2180 C   0  0  0  0  0  0  0  0  0  0  0  0
   55.1499   30.0213   45.0418 H   0  0  0  0  0  0  0  0  0  0  0  0
   55.6384   30.9745   43.5998 H   0  0  0  0  0  0  0  0  0  0  0  0
   55.8224   29.1877   43.5998 H   0  0  0  0  0  0  0  0  0  0  0  0
   58.1750   31.2390   44.5090 C   0  0  0  0  0  0  0  0  0  0  0  0
   58.0180   32.3970   43.6160 C   0  0  0  0  0  0  0  0  0  0  0  0
   57.7630   32.2020   42.4000 O   0  0  0  0  0  0  0  0  0  0  0  0
   58.1100   33.7410   44.1000 N   0  0  0  0  0  0  0  0  0  0  0  0
   57.3720   34.2480   45.2500 C   0  0  0  0  0  0  0  0  0  0  0  0
   57.1932   35.3262   45.1252 H   0  0  0  0  0  0  0  0  0  0  0  0
   56.4078   33.7244   45.3282 H   0  0  0  0  0  0  0  0  0  0  0  0
   58.1730   34.0140   46.4980 C   0  0  0  0  0  0  0  0  0  0  0  0
   57.8070   32.9900   47.3880 C   0  0  0  0  0  0  0  0  0  0  0  0
   56.9174   32.3771   47.1807 H   0  0  0  0  0  0  0  0  0  0  0  0
   58.5670   32.7460   48.5350 C   0  0  0  0  0  0  0  0  0  0  0  0
   58.2701   31.9477   49.2311 H   0  0  0  0  0  0  0  0  0  0  0  0
   59.7040   33.5150   48.7990 C   0  0  0  0  0  0  0  0  0  0  0  0
   60.2986   33.3251   49.7048 H   0  0  0  0  0  0  0  0  0  0  0  0
   60.0850   34.5250   47.9120 C   0  0  0  0  0  0  0  0  0  0  0  0
   60.9823   35.1266   48.1191 H   0  0  0  0  0  0  0  0  0  0  0  0
   59.3290   34.7740   46.7610 C   0  0  0  0  0  0  0  0  0  0  0  0
   59.7240   35.7490   45.9040 F   0  0  0  0  0  0  0  0  0  0  0  0
   59.2670   30.9860   45.3120 C   0  0  0  0  0  0  0  0  0  0  0  0
   60.1859   31.5850   45.3945 H   0  0  0  0  0  0  0  0  0  0  0  0
  1  2  1  0
  2  3  1  0
  3  4  2  0
  3  5  1  0
  5  6  1  0
  5  7  1  0
  7  8  2  0
  8  9  1  0
  8 10  1  0
 10 11  1  0
 10 12  2  0
 12 13  1  0
 13 14  1  0
 14 15  2  0
 14 16  1  0
 16 17  1  0
 17 18  2  0
 18 19  1  0
  2 20  2  0
 20 21  1  0
 20 22  1  0
 22 23  1  0
 23 24  1  0
 24 25  1  0
 25 26  1  0
 25 27  1  0
 25 28  1  0
 24 29  2  0
 29 30  1  0
 30 31  2  0
 30 32  1  0
 32 33  1  0
 33 34  1  0
 33 35  1  0
 33 36  1  0
 36 37  2  0
 37 38  1  0
 37 39  1  0
 39 40  1  0
 39 41  2  0
 41 42  1  0
 41 43  1  0
 43 44  1  0
 43 45  2  0
 45 46  1  0
 29 47  1  0
 47 48  1  0
 18  7  1  0
 47 22  2  0
 17 12  1  0
 45 36  1  0
M  CHG  3  13  -1  16  -1  32  -1
M  END
>  <UniqueID>  (34) 
31

>  <SMILES>  (34) 
Cc1oc(/C=C\C(=O)Nc2ccc3[n-]c(=O)[n-]c3c2)cc1C(=O)[N-]Cc1ccccc1F

>  <Energy>  (34) 
125.18229869881291

>  <Genealogy>  (34) 
Cc1oc(C=CC(=O)Nc2ccc3[n-]c(=O)[n-]c3c2)cc1C(=O)[N-]Cc1ccccc1F (protonated)
Cc1oc(/C=C\C(=O)Nc2ccc3[n-]c(=O)[n-]c3c2)cc1C(=O)[N-]Cc1ccccc1F (cis-trans isomerization)
Cc1oc(/C=C\C(=O)Nc2ccc3[n-]c(=O)[n-]c3c2)cc1C(=O)[N-]Cc1ccccc1F (3D coordinates assigned)
Cc1oc(/C=C\C(=O)Nc2ccc3[n-]c(=O)[n-]c3c2)cc1C(=O)[N-]Cc1ccccc1F (optimized conformer: 125.18229869881291 kcal/mol)

>  <smiles>  (34) 
Cc1oc(C=CC(=O)Nc2ccc3[nH]c(=O)[nH]c3c2)cc1C(=O)NCc1ccccc1F

>  <score_type>  (34) 
oracle

>  <origin>  (34) 
adg

>  <m_score__min__energy>  (34) 
-13.109999999999999

>  <m_primary>  (34) 
energy

$$$$
34:0
     RDKit          3D

 64 67  0  0  0  0  0  0  0  0999 V2000
   63.0670   33.8640   46.9660 C   0  0  0  0  0  0  0  0  0  0  0  0
   62.2330   33.6580   48.2440 C   0  0  0  0  0  0  0  0  0  0  0  0
   62.0030   32.1540   48.4480 C   0  0  0  0  0  0  0  0  0  0  0  0
   62.9700   34.2220   49.4740 C   0  0  0  0  0  0  0  0  0  0  0  0
   60.9420   34.2670   48.1050 O   0  0  0  0  0  0  0  0  0  0  0  0
   60.0950   34.1780   46.9910 C   0  0  0  0  0  0  0  0  0  0  0  0
   60.2400   34.9380   45.9970 O   0  0  0  0  0  0  0  0  0  0  0  0
   59.0660   33.1870   46.9950 N   0  0  0  0  0  0  0  0  0  0  0  0
   59.2730   31.7670   46.7140 C   0  0  1  0  0  0  0  0  0  0  0  0
   58.5400   30.8810   47.7440 C   0  0  0  0  0  0  0  0  0  0  0  0
   58.9430   31.1640   49.1710 C   0  0  0  0  0  0  0  0  0  0  0  0
   59.7240   30.2400   49.8870 C   0  0  0  0  0  0  0  0  0  0  0  0
   60.0810   30.4980   51.2130 C   0  0  0  0  0  0  0  0  0  0  0  0
   59.6660   31.6780   51.8350 C   0  0  0  0  0  0  0  0  0  0  0  0
   58.8880   32.6010   51.1320 C   0  0  0  0  0  0  0  0  0  0  0  0
   58.5270   32.3470   49.8040 C   0  0  0  0  0  0  0  0  0  0  0  0
   58.8640   31.4390   45.2940 C   0  0  0  0  0  0  0  0  0  0  0  0
   58.4050   32.3640   44.5680 O   0  0  0  0  0  0  0  0  0  0  0  0
   58.8620   30.0900   44.7970 N   0  0  0  0  0  0  0  0  0  0  0  0
   60.0820   29.2660   44.7920 C   0  0  0  0  0  0  0  0  0  0  0  0
   59.8080   27.8980   45.4470 C   0  0  0  0  0  0  0  0  0  0  0  0
   58.4040   27.4960   45.2620 N   0  0  0  0  0  0  0  0  0  0  0  0
   57.6410   27.0380   46.3910 C   0  0  0  0  0  0  0  0  0  0  0  0
   57.7250   27.6440   47.4920 O   0  0  0  0  0  0  0  0  0  0  0  0
   56.7060   25.9140   46.2600 C   0  0  0  0  0  0  0  0  0  0  0  0
   55.3890   26.0910   45.9730 N   0  0  0  0  0  0  0  0  0  0  0  0
   54.9320   24.8330   45.9130 C   0  0  0  0  0  0  0  0  0  0  0  0
   53.6320   24.4080   45.6430 C   0  0  0  0  0  0  0  0  0  0  0  0
   53.3870   23.0230   45.6340 C   0  0  0  0  0  0  0  0  0  0  0  0
   54.4340   22.1100   45.9000 C   0  0  0  0  0  0  0  0  0  0  0  0
   55.7350   22.5770   46.1670 C   0  0  0  0  0  0  0  0  0  0  0  0
   55.9420   23.9530   46.1620 C   0  0  0  0  0  0  0  0  0  0  0  0
   57.0870   24.6150   46.3870 N   0  0  0  0  0  0  0  0  0  0  0  0
   57.6920   28.0240   44.0940 C   0  0  0  0  0  0  0  0  0  0  0  0
   57.6250   29.5520   44.2100 C   0  0  0  0  0  0  0  0  0  0  0  0
   64.1012   34.1194   47.2403 H   0  0  0  0  0  0  0  0  0  0  0  0
   63.0632   32.9379   46.3724 H   0  0  0  0  0  0  0  0  0  0  0  0
   62.6324   34.6818   46.3724 H   0  0  0  0  0  0  0  0  0  0  0  0
   61.9689   31.9310   49.5246 H   0  0  0  0  0  0  0  0  0  0  0  0
   61.0498   31.8624   47.9828 H   0  0  0  0  0  0  0  0  0  0  0  0
   62.8255   31.5909   47.9828 H   0  0  0  0  0  0  0  0  0  0  0  0
   62.4879   33.8531   50.3913 H   0  0  0  0  0  0  0  0  0  0  0  0
   64.0199   33.8945   49.4544 H   0  0  0  0  0  0  0  0  0  0  0  0
   62.9283   35.3210   49.4544 H   0  0  0  0  0  0  0  0  0  0  0  0
   60.3468   31.5484   46.8094 H   0  0  0  0  0  0  0  0  0  0  0  0
   57.4582   31.0542   47.6461 H   0  0  0  0  0  0  0  0  0  0  0  0
   58.8145   29.8376   47.5293 H   0  0  0  0  0  0  0  0  0  0  0  0
   60.0553   29.3103   49.4014 H   0  0  0  0  0  0  0  0  0  0  0  0
   60.6904   29.7700   51.7686 H   0  0  0  0  0  0  0  0  0  0  0  0
   59.9517   31.8802   52.8778 H   0  0  0  0  0  0  0  0  0  0  0  0
   58.5587   33.5287   51.6229 H   0  0  0  0  0  0  0  0  0  0  0  0
   57.9150   33.0767   49.2536 H   0  0  0  0  0  0  0  0  0  0  0  0
   60.4110   29.1115   43.7538 H   0  0  0  0  0  0  0  0  0  0  0  0
   60.8659   29.7849   45.3632 H   0  0  0  0  0  0  0  0  0  0  0  0
   60.4621   27.1420   44.9880 H   0  0  0  0  0  0  0  0  0  0  0  0
   60.0100   27.9791   46.5252 H   0  0  0  0  0  0  0  0  0  0  0  0
   52.8265   25.1302   45.4441 H   0  0  0  0  0  0  0  0  0  0  0  0
   52.3756   22.6478   45.4189 H   0  0  0  0  0  0  0  0  0  0  0  0
   54.2306   21.0290   45.8982 H   0  0  0  0  0  0  0  0  0  0  0  0
   56.5594   21.8783   46.3725 H   0  0  0  0  0  0  0  0  0  0  0  0
   58.2294   27.7455   43.1755 H   0  0  0  0  0  0  0  0  0  0  0  0
   56.6755   27.6057   44.0533 H   0  0  0  0  0  0  0  0  0  0  0  0
   57.4850   29.9832   43.2078 H   0  0  0  0  0  0  0  0  0  0  0  0
   56.7817   29.8175   44.8645 H   0  0  0  0  0  0  0  0  0  0  0  0
  1  2  1  0
  2  3  1  0
  2  4  1  0
  2  5  1  0
  5  6  1  0
  6  7  2  0
  6  8  1  0
  8  9  1  0
  9 10  1  0
 10 11  1  0
 11 12  2  0
 12 13  1  0
 13 14  2  0
 14 15  1  0
 15 16  2  0
  9 17  1  0
 17 18  2  0
 17 19  1  0
 19 20  1  0
 20 21  1  0
 21 22  1  0
 22 23  1  0
 23 24  2  0
 23 25  1  0
 25 26  2  0
 26 27  1  0
 27 28  2  0
 28 29  1  0
 29 30  2  0
 30 31  1  0
 31 32  2  0
 32 33  1  0
 22 34  1  0
 34 35  1  0
 16 11  1  0
 35 19  1  0
 33 25  1  0
 32 27  1  0
  1 36  1  0
  1 37  1  0
  1 38  1  0
  3 39  1  0
  3 40  1  0
  3 41  1  0
  4 42  1  0
  4 43  1  0
  4 44  1  0
  9 45  1  6
 10 46  1  0
 10 47  1  0
 12 48  1  0
 13 49  1  0
 14 50  1  0
 15 51  1  0
 16 52  1  0
 20 53  1  0
 20 54  1  0
 21 55  1  0
 21 56  1  0
 28 57  1  0
 29 58  1  0
 30 59  1  0
 31 60  1  0
 34 61  1  0
 34 62  1  0
 35 63  1  0
 35 64  1  0
M  CHG  2   8  -1  33  -1
M  END
>  <UniqueID>  (35) 
32

>  <SMILES>  (35) 
CC(C)(C)OC(=O)[N-][C@@H](Cc1ccccc1)C(=O)N1CCN(C(=O)c2nc3ccccc3[n-]2)CC1

>  <Energy>  (35) 
102.82509046657624

>  <Genealogy>  (35) 
CC(C)(C)OC(=O)[N-]C(Cc1ccccc1)C(=O)N1CCN(C(=O)c2nc3ccccc3[n-]2)CC1 (protonated)
CC(C)(C)OC(=O)[N-][C@@H](Cc1ccccc1)C(=O)N1CCN(C(=O)c2nc3ccccc3[n-]2)CC1 (chirality)
CC(C)(C)OC(=O)[N-][C@@H](Cc1ccccc1)C(=O)N1CCN(C(=O)c2nc3ccccc3[n-]2)CC1 (3D coordinates assigned)
CC(C)(C)OC(=O)[N-][C@@H](Cc1ccccc1)C(=O)N1CCN(C(=O)c2nc3ccccc3[n-]2)CC1 (nonaromatic ring conformer: 102.82509046657624 kcal/mol)

>  <smiles>  (35) 
CC(C)(C)OC(=O)NC(Cc1ccccc1)C(=O)N1CCN(C(=O)c2nc3ccccc3[nH]2)CC1

>  <score_type>  (35) 
oracle

>  <origin>  (35) 
adg

>  <m_score__min__energy>  (35) 
-11.27

>  <m_primary>  (35) 
energy

$$$$
35:0
     RDKit          3D

 51 54  0  0  0  0  0  0  0  0999 V2000
   52.8496   28.4984   52.7756 H   0  0  0  0  0  0  0  0  0  0  0  0
   53.9270   28.3440   52.9350 C   0  0  0  0  0  0  0  0  0  0  0  0
   54.3113   27.3379   53.1589 H   0  0  0  0  0  0  0  0  0  0  0  0
   54.7750   29.3860   52.8560 C   0  0  0  0  0  0  0  0  0  0  0  0
   54.3700   30.6990   52.4460 C   0  0  0  0  0  0  0  0  0  0  0  0
   53.0940   31.1590   52.4120 C   0  0  0  0  0  0  0  0  0  0  0  0
   52.6794   31.5413   53.3564 H   0  0  0  0  0  0  0  0  0  0  0  0
   52.2070   31.1970   51.2320 C   0  0  0  0  0  0  0  0  0  0  0  0
   52.2660   30.2970   50.2330 N   0  0  0  0  0  0  0  0  0  0  0  0
   51.3700   30.7660   49.3370 C   0  0  0  0  0  0  0  0  0  0  0  0
   51.1260   30.1760   48.2520 O   0  0  0  0  0  0  0  0  0  0  0  0
   50.7660   31.9230   49.6880 N   0  0  0  0  0  0  0  0  0  0  0  0
   51.3160   32.1900   50.8830 C   0  0  0  0  0  0  0  0  0  0  0  0
   51.0340   33.3340   51.6210 O   0  0  0  0  0  0  0  0  0  0  0  0
   55.3810   31.5990   52.0560 C   0  0  0  0  0  0  0  0  0  0  0  0
   55.1013   32.5739   51.6303 H   0  0  0  0  0  0  0  0  0  0  0  0
   56.7320   31.2760   52.2000 C   0  0  0  0  0  0  0  0  0  0  0  0
   57.7790   32.2430   51.8130 C   0  0  0  0  0  0  0  0  0  0  0  0
   57.7660   33.3930   52.3330 O   0  0  0  0  0  0  0  0  0  0  0  0
   58.7830   31.9130   50.8310 N   0  0  0  0  0  0  0  0  0  0  0  0
   60.0880   32.5850   50.8390 C   0  0  0  0  0  0  0  0  0  0  0  0
   60.1104   33.3213   51.6559 H   0  0  0  0  0  0  0  0  0  0  0  0
   60.8746   31.8302   50.9854 H   0  0  0  0  0  0  0  0  0  0  0  0
   60.3350   33.3070   49.4990 C   0  0  0  0  0  0  0  0  0  0  0  0
   60.0055   34.3518   49.5983 H   0  0  0  0  0  0  0  0  0  0  0  0
   61.4105   33.2335   49.2800 H   0  0  0  0  0  0  0  0  0  0  0  0
   59.6090   32.6890   48.3630 N   0  0  0  0  0  0  0  0  0  0  0  0
   60.1770   33.1000   47.0500 C   0  0  0  0  0  0  0  0  0  0  0  0
   61.0747   32.4731   46.9444 H   0  0  0  0  0  0  0  0  0  0  0  0
   60.5130   34.5970   47.0310 C   0  0  0  0  0  0  0  0  0  0  0  0
   60.3181   35.0390   48.0193 H   0  0  0  0  0  0  0  0  0  0  0  0
   61.5747   34.7545   46.7900 H   0  0  0  0  0  0  0  0  0  0  0  0
   59.6190   35.2500   45.9820 C   0  0  0  0  0  0  0  0  0  0  0  0
   59.0724   36.0946   46.4268 H   0  0  0  0  0  0  0  0  0  0  0  0
   60.2195   35.6345   45.1444 H   0  0  0  0  0  0  0  0  0  0  0  0
   58.6380   34.1920   45.4990 C   0  0  0  0  0  0  0  0  0  0  0  0
   57.6679   34.3140   46.0030 H   0  0  0  0  0  0  0  0  0  0  0  0
   58.4606   34.2764   44.4167 H   0  0  0  0  0  0  0  0  0  0  0  0
   59.2490   32.8490   45.8540 C   0  0  0  0  0  0  0  0  0  0  0  0
   58.4606   32.1324   46.1276 H   0  0  0  0  0  0  0  0  0  0  0  0
   59.8005   32.4234   45.0027 H   0  0  0  0  0  0  0  0  0  0  0  0
   59.4050   31.2340   48.5380 C   0  0  0  0  0  0  0  0  0  0  0  0
   58.9624   30.8109   47.6242 H   0  0  0  0  0  0  0  0  0  0  0  0
   60.3704   30.7435   48.7315 H   0  0  0  0  0  0  0  0  0  0  0  0
   58.4610   31.0030   49.7200 C   0  0  0  0  0  0  0  0  0  0  0  0
   57.4255   31.1826   49.3951 H   0  0  0  0  0  0  0  0  0  0  0  0
   58.5785   29.9661   50.0679 H   0  0  0  0  0  0  0  0  0  0  0  0
   57.0700   30.0420   52.7560 C   0  0  0  0  0  0  0  0  0  0  0  0
   58.1259   29.8002   52.9472 H   0  0  0  0  0  0  0  0  0  0  0  0
   56.1050   29.1370   53.0630 N   0  0  0  0  0  0  0  0  0  0  0  0
   56.4210   28.2050   53.4180 H   0  0  0  0  0  0  0  0  0  0  0  0
  1  2  1  0
  2  3  1  0
  2  4  2  0
  4  5  1  0
  5  6  2  0
  6  7  1  0
  6  8  1  0
  8  9  1  0
  9 10  1  0
 10 11  2  0
 10 12  1  0
 12 13  1  0
 13 14  1  0
  5 15  1  0
 15 16  1  0
 15 17  2  0
 17 18  1  0
 18 19  2  0
 18 20  1  0
 20 21  1  0
 21 22  1  0
 21 23  1  0
 21 24  1  0
 24 25  1  0
 24 26  1  0
 24 27  1  0
 27 28  1  0
 28 29  1  0
 28 30  1  0
 30 31  1  0
 30 32  1  0
 30 33  1  0
 33 34  1  0
 33 35  1  0
 33 36  1  0
 36 37  1  0
 36 38  1  0
 36 39  1  0
 39 40  1  0
 39 41  1  0
 27 42  1  0
 42 43  1  0
 42 44  1  0
 42 45  1  0
 45 46  1  0
 45 47  1  0
 17 48  1  0
 48 49  1  0
 48 50  2  0
 50 51  1  0
 50  4  1  0
 13  8  2  0
 45 20  1  0
 39 28  1  0
M  CHG  4   9  -1  12  -1  14  -1  50   1
M  END
>  <UniqueID>  (36) 
33

>  <SMILES>  (36) 
C=c1[nH+]cc(C(=O)N2CCN(C3CCCC3)CC2)c/c1=C/c1[n-]c(=O)[n-]c1[O-]

>  <Energy>  (36) 
120.55097885493511

>  <Genealogy>  (36) 
C=c1[nH+]cc(C(=O)N2CCN(C3CCCC3)CC2)cc1=Cc1[n-]c(=O)[n-]c1[O-] (protonated)
C=c1[nH+]cc(C(=O)N2CCN(C3CCCC3)CC2)c/c1=C/c1[n-]c(=O)[n-]c1[O-] (cis-trans isomerization)
C=c1[nH+]cc(C(=O)N2CCN(C3CCCC3)CC2)c/c1=C/c1[n-]c(=O)[n-]c1[O-] (3D coordinates assigned)
C=c1[nH+]cc(C(=O)N2CCN(C3CCCC3)CC2)c/c1=C/c1[n-]c(=O)[n-]c1[O-] (nonaromatic ring conformer: 120.55097885493511 kcal/mol)

>  <smiles>  (36) 
C=c1ncc(C(=O)N2CCN(C3CCCC3)CC2)cc1=Cc1[nH]c(=O)[nH]c1O

>  <score_type>  (36) 
oracle

>  <origin>  (36) 
adg

>  <m_score__min__energy>  (36) 
-17.260000000000002

>  <m_primary>  (36) 
energy

$$$$
36:0
     RDKit          3D

 36 37  0  0  0  0  0  0  0  0999 V2000
   59.2850   26.5850   47.6950 H   0  0  0  0  0  0  0  0  0  0  0  0
   58.4920   25.9640   47.5870 O   0  0  0  0  0  0  0  0  0  0  0  0
   57.3650   26.3400   46.8630 C   0  0  0  0  0  0  0  0  0  0  0  0
   56.2750   25.5640   46.7390 N   0  0  0  0  0  0  0  0  0  0  0  0
   55.4540   26.3220   45.9820 C   0  0  0  0  0  0  0  0  0  0  0  0
   54.3050   25.9400   45.6400 O   0  0  0  0  0  0  0  0  0  0  0  0
   55.9580   27.5230   45.6270 N   0  0  0  0  0  0  0  0  0  0  0  0
   57.1880   27.5230   46.1760 C   0  0  0  0  0  0  0  0  0  0  0  0
   58.1140   28.6770   46.1690 C   0  0  0  0  0  0  0  0  0  0  0  0
   59.0263   28.5938   46.7780 H   0  0  0  0  0  0  0  0  0  0  0  0
   57.9330   29.8330   45.4730 C   0  0  0  0  0  0  0  0  0  0  0  0
   58.0910   31.0820   46.1260 C   0  0  0  0  0  0  0  0  0  0  0  0
   58.4052   31.0984   47.1800 H   0  0  0  0  0  0  0  0  0  0  0  0
   57.8580   32.2950   45.4660 C   0  0  0  0  0  0  0  0  0  0  0  0
   58.0360   33.6040   46.1960 C   0  0  0  0  0  0  0  0  0  0  0  0
   57.3487   34.3480   45.7670 H   0  0  0  0  0  0  0  0  0  0  0  0
   57.8187   33.4357   47.2611 H   0  0  0  0  0  0  0  0  0  0  0  0
   59.4500   34.1190   46.0790 C   0  0  0  0  0  0  0  0  0  0  0  0
   59.7507   34.5806   45.1269 H   0  0  0  0  0  0  0  0  0  0  0  0
   60.3720   34.0510   47.0660 C   0  0  0  0  0  0  0  0  0  0  0  0
   61.8190   33.8080   46.7250 C   0  0  0  0  0  0  0  0  0  0  0  0
   62.4027   33.7100   47.6522 H   0  0  0  0  0  0  0  0  0  0  0  0
   61.9067   32.8825   46.1369 H   0  0  0  0  0  0  0  0  0  0  0  0
   62.2042   34.6540   46.1369 H   0  0  0  0  0  0  0  0  0  0  0  0
   60.0080   34.2450   48.5170 C   0  0  0  0  0  0  0  0  0  0  0  0
   60.7999   33.8230   49.1533 H   0  0  0  0  0  0  0  0  0  0  0  0
   59.9018   35.3194   48.7279 H   0  0  0  0  0  0  0  0  0  0  0  0
   59.0569   33.7341   48.7279 H   0  0  0  0  0  0  0  0  0  0  0  0
   57.4680   32.2830   44.1270 C   0  0  0  0  0  0  0  0  0  0  0  0
   57.2956   33.2325   43.5990 H   0  0  0  0  0  0  0  0  0  0  0  0
   57.2960   31.0780   43.4560 C   0  0  0  0  0  0  0  0  0  0  0  0
   56.9727   31.0886   42.4046 H   0  0  0  0  0  0  0  0  0  0  0  0
   57.5270   29.8430   44.0940 C   0  0  0  0  0  0  0  0  0  0  0  0
   57.3820   28.7320   43.3430 C   0  0  0  0  0  0  0  0  0  0  0  0
   57.5499   27.7407   43.7892 H   0  0  0  0  0  0  0  0  0  0  0  0
   57.0959   28.8173   42.2843 H   0  0  0  0  0  0  0  0  0  0  0  0
  1  2  1  0
  2  3  1  0
  3  4  1  0
  4  5  1  0
  5  6  2  0
  5  7  1  0
  7  8  1  0
  8  9  1  0
  9 10  1  0
  9 11  2  0
 11 12  1  0
 12 13  1  0
 12 14  2  0
 14 15  1  0
 15 16  1  0
 15 17  1  0
 15 18  1  0
 18 19  1  0
 18 20  2  3
 20 21  1  0
 21 22  1  0
 21 23  1  0
 21 24  1  0
 20 25  1  0
 25 26  1  0
 25 27  1  0
 25 28  1  0
 14 29  1  0
 29 30  1  0
 29 31  2  0
 31 32  1  0
 31 33  1  0
 33 34  2  0
 34 35  1  0
 34 36  1  0
  8  3  2  0
 33 11  1  0
M  CHG  2   4  -1   7  -1
M  END
>  <UniqueID>  (37) 
34

>  <SMILES>  (37) 
C=c1ccc(CC=C(C)C)c/c1=C\c1[n-]c(=O)[n-]c1O

>  <Energy>  (37) 
76.2972252869422

>  <Genealogy>  (37) 
C=c1ccc(CC=C(C)C)cc1=Cc1[n-]c(=O)[n-]c1O (protonated)
C=c1ccc(CC=C(C)C)c/c1=C\c1[n-]c(=O)[n-]c1O (cis-trans isomerization)
C=c1ccc(CC=C(C)C)c/c1=C\c1[n-]c(=O)[n-]c1O (3D coordinates assigned)
C=c1ccc(CC=C(C)C)c/c1=C\c1[n-]c(=O)[n-]c1O (optimized conformer: 76.2972252869422 kcal/mol)

>  <smiles>  (37) 
C=c1ccc(CC=C(C)C)cc1=Cc1[nH]c(=O)[nH]c1O

>  <score_type>  (37) 
oracle

>  <origin>  (37) 
adg

>  <m_score__min__energy>  (37) 
-11.890000000000001

>  <m_primary>  (37) 
energy

$$$$
37:0
     RDKit          3D

 43 45  0  0  0  0  0  0  0  0999 V2000
   58.0020   27.2850   43.0910 C   0  0  0  0  0  0  0  0  0  0  0  0
   58.2120   27.5310   44.3950 C   0  0  0  0  0  0  0  0  0  0  0  0
   58.5000   26.5860   45.3960 C   0  0  0  0  0  0  0  0  0  0  0  0
   58.4760   25.2380   45.3790 C   0  0  0  0  0  0  0  0  0  0  0  0
   57.6270   24.3810   46.2190 C   0  0  0  0  0  0  0  0  0  0  0  0
   58.0560   23.2390   46.7810 N   0  0  0  0  0  0  0  0  0  0  0  0
   57.0040   22.8440   47.5310 C   0  0  0  0  0  0  0  0  0  0  0  0
   57.0150   21.7860   48.2090 O   0  0  0  0  0  0  0  0  0  0  0  0
   55.9420   23.6790   47.5010 N   0  0  0  0  0  0  0  0  0  0  0  0
   56.3550   24.6570   46.6790 C   0  0  0  0  0  0  0  0  0  0  0  0
   55.5880   25.7820   46.3850 O   0  0  0  0  0  0  0  0  0  0  0  0
   58.8310   27.3100   46.5280 C   0  0  0  0  0  0  0  0  0  0  0  0
   58.6880   28.6430   46.2090 C   0  0  0  0  0  0  0  0  0  0  0  0
   58.9240   29.7730   47.1660 C   0  0  0  0  0  0  0  0  0  0  0  0
   58.2920   28.7840   44.9220 N   0  0  0  0  0  0  0  0  0  0  0  0
   58.1030   30.0680   44.2290 C   0  0  0  0  0  0  0  0  0  0  0  0
   56.7580   30.6390   44.5490 C   0  0  0  0  0  0  0  0  0  0  0  0
   55.7410   29.8950   44.5320 O   0  0  0  0  0  0  0  0  0  0  0  0
   56.6370   32.0220   44.8960 N   0  0  0  0  0  0  0  0  0  0  0  0
   57.5920   33.0440   44.4850 C   0  0  0  0  0  0  0  0  0  0  0  0
   58.3590   33.5500   45.6760 C   0  0  0  0  0  0  0  0  0  0  0  0
   59.2870   34.5960   45.5380 C   0  0  0  0  0  0  0  0  0  0  0  0
   60.0120   35.0430   46.6460 C   0  0  0  0  0  0  0  0  0  0  0  0
   59.8210   34.4480   47.8970 C   0  0  0  0  0  0  0  0  0  0  0  0
   60.5260   34.8820   48.9700 F   0  0  0  0  0  0  0  0  0  0  0  0
   58.9030   33.4030   48.0400 C   0  0  0  0  0  0  0  0  0  0  0  0
   58.1760   32.9520   46.9350 C   0  0  0  0  0  0  0  0  0  0  0  0
   57.7838   28.1150   42.4029 H   0  0  0  0  0  0  0  0  0  0  0  0
   58.0482   26.2536   42.7115 H   0  0  0  0  0  0  0  0  0  0  0  0
   59.1526   24.7342   44.6730 H   0  0  0  0  0  0  0  0  0  0  0  0
   55.1410   26.3230   47.1130 H   0  0  0  0  0  0  0  0  0  0  0  0
   59.1480   26.8995   47.4980 H   0  0  0  0  0  0  0  0  0  0  0  0
   58.8464   29.4014   48.1984 H   0  0  0  0  0  0  0  0  0  0  0  0
   59.9285   30.1897   47.0008 H   0  0  0  0  0  0  0  0  0  0  0  0
   58.1702   30.5569   47.0008 H   0  0  0  0  0  0  0  0  0  0  0  0
   58.8827   30.7731   44.5529 H   0  0  0  0  0  0  0  0  0  0  0  0
   58.1716   29.9018   43.1438 H   0  0  0  0  0  0  0  0  0  0  0  0
   58.2949   32.6123   43.7573 H   0  0  0  0  0  0  0  0  0  0  0  0
   57.0452   33.8823   44.0287 H   0  0  0  0  0  0  0  0  0  0  0  0
   59.4433   35.0644   44.5550 H   0  0  0  0  0  0  0  0  0  0  0  0
   60.7346   35.8648   46.5338 H   0  0  0  0  0  0  0  0  0  0  0  0
   58.7528   32.9350   49.0241 H   0  0  0  0  0  0  0  0  0  0  0  0
   57.4583   32.1265   47.0507 H   0  0  0  0  0  0  0  0  0  0  0  0
  1  2  2  0
  2  3  1  0
  3  4  2  3
  4  5  1  0
  5  6  1  0
  6  7  1  0
  7  8  2  0
  7  9  1  0
  9 10  1  0
 10 11  1  0
  3 12  1  0
 12 13  2  0
 13 14  1  0
 13 15  1  0
 15 16  1  0
 16 17  1  0
 17 18  2  0
 17 19  1  0
 19 20  1  0
 20 21  1  0
 21 22  2  0
 22 23  1  0
 23 24  2  0
 24 25  1  0
 24 26  1  0
 26 27  2  0
 15  2  1  0
 27 21  1  0
 10  5  2  0
  1 28  1  0
  1 29  1  0
  4 30  1  0
 11 31  1  0
 12 32  1  0
 14 33  1  0
 14 34  1  0
 14 35  1  0
 16 36  1  0
 16 37  1  0
 20 38  1  0
 20 39  1  0
 22 40  1  0
 23 41  1  0
 26 42  1  0
 27 43  1  0
M  CHG  3   6  -1   9  -1  19  -1
M  END
>  <UniqueID>  (38) 
35

>  <SMILES>  (38) 
C=c1c(=Cc2[n-]c(=O)[n-]c2O)cc(C)n1CC(=O)[N-]Cc1ccc(F)cc1

>  <Energy>  (38) 
110.13229515199843

>  <Genealogy>  (38) 
C=c1c(=Cc2[n-]c(=O)[n-]c2O)cc(C)n1CC(=O)[N-]Cc1ccc(F)cc1 (protonated)
C=c1c(=Cc2[n-]c(=O)[n-]c2O)cc(C)n1CC(=O)[N-]Cc1ccc(F)cc1 (3D coordinates assigned)
C=c1c(=Cc2[n-]c(=O)[n-]c2O)cc(C)n1CC(=O)[N-]Cc1ccc(F)cc1 (optimized conformer: 110.13229515199843 kcal/mol)

>  <smiles>  (38) 
C=c1c(=Cc2[nH]c(=O)[nH]c2O)cc(C)n1CC(=O)NCc1ccc(F)cc1

>  <score_type>  (38) 
oracle

>  <origin>  (38) 
adg

>  <m_score__min__energy>  (38) 
-14.09

>  <m_primary>  (38) 
energy

$$$$
38:0
     RDKit          3D

 46 49  0  0  0  0  0  0  0  0999 V2000
   66.9140   34.6760   53.3650 H   0  0  0  0  0  0  0  0  0  0  0  0
   67.2230   33.9350   52.6130 C   0  0  0  0  0  0  0  0  0  0  0  0
   68.2353   33.5060   52.6471 H   0  0  0  0  0  0  0  0  0  0  0  0
   66.3730   33.5580   51.6630 C   0  0  0  0  0  0  0  0  0  0  0  0
   64.8010   34.1270   51.4890 S   0  0  0  0  0  0  0  0  0  0  0  0
   64.4260   33.2040   50.1220 C   0  0  0  0  0  0  0  0  0  0  0  0
   63.2560   33.2050   49.4550 C   0  0  0  0  0  0  0  0  0  0  0  0
   62.3160   34.5770   49.1470 S   0  0  0  0  0  0  0  0  0  0  0  0
   61.1130   33.7350   48.3290 C   0  0  0  0  0  0  0  0  0  0  0  0
   60.0090   34.3130   47.8480 C   0  0  0  0  0  0  0  0  0  0  0  0
   59.2566   33.7081   47.3208 H   0  0  0  0  0  0  0  0  0  0  0  0
   59.8523   35.3939   47.9791 H   0  0  0  0  0  0  0  0  0  0  0  0
   61.4030   32.4040   48.2700 N   0  0  0  0  0  0  0  0  0  0  0  0
   60.5910   31.4080   47.6190 C   0  0  0  0  0  0  0  0  0  0  0  0
   59.2830   31.1620   48.0660 C   0  0  0  0  0  0  0  0  0  0  0  0
   58.8723   31.7429   48.9050 H   0  0  0  0  0  0  0  0  0  0  0  0
   58.5010   30.1820   47.4490 C   0  0  0  0  0  0  0  0  0  0  0  0
   57.4748   29.9987   47.8000 H   0  0  0  0  0  0  0  0  0  0  0  0
   59.0190   29.4320   46.3850 C   0  0  0  0  0  0  0  0  0  0  0  0
   58.0270   28.1900   45.6290 S   0  0  0  0  0  0  0  0  0  0  0  0
   58.5400   27.9310   44.2390 O   0  0  0  0  0  0  0  0  0  0  0  0
   58.0830   26.9090   46.4180 O   0  0  0  0  0  0  0  0  0  0  0  0
   56.3840   28.7290   45.5440 N   0  0  0  0  0  0  0  0  0  0  0  0
   55.9070   29.5860   44.5020 C   0  0  0  0  0  0  0  0  0  0  0  0
   54.7870   29.3560   43.9660 O   0  0  0  0  0  0  0  0  0  0  0  0
   56.7190   30.7420   44.0540 C   0  0  0  0  0  0  0  0  0  0  0  0
   57.1940   31.6870   44.9860 C   0  0  0  0  0  0  0  0  0  0  0  0
   56.9607   31.5656   46.0541 H   0  0  0  0  0  0  0  0  0  0  0  0
   57.9600   32.7780   44.5620 C   0  0  0  0  0  0  0  0  0  0  0  0
   58.3258   33.5108   45.2962 H   0  0  0  0  0  0  0  0  0  0  0  0
   58.2610   32.9380   43.2070 C   0  0  0  0  0  0  0  0  0  0  0  0
   58.8635   33.7965   42.8753 H   0  0  0  0  0  0  0  0  0  0  0  0
   57.7970   32.0080   42.2730 C   0  0  0  0  0  0  0  0  0  0  0  0
   58.0358   32.1351   41.2068 H   0  0  0  0  0  0  0  0  0  0  0  0
   57.0290   30.9150   42.6910 C   0  0  0  0  0  0  0  0  0  0  0  0
   56.6655   30.1870   41.9508 H   0  0  0  0  0  0  0  0  0  0  0  0
   60.3300   29.6710   45.9410 C   0  0  0  0  0  0  0  0  0  0  0  0
   60.7422   29.0847   45.1065 H   0  0  0  0  0  0  0  0  0  0  0  0
   61.1120   30.6520   46.5570 C   0  0  0  0  0  0  0  0  0  0  0  0
   62.1396   30.8324   46.2084 H   0  0  0  0  0  0  0  0  0  0  0  0
   62.5850   32.1090   48.8930 C   0  0  0  0  0  0  0  0  0  0  0  0
   63.0340   30.9280   48.9360 O   0  0  0  0  0  0  0  0  0  0  0  0
   65.5480   32.4370   49.7950 C   0  0  0  0  0  0  0  0  0  0  0  0
   65.5751   31.7435   48.9416 H   0  0  0  0  0  0  0  0  0  0  0  0
   66.6350   32.6350   50.6570 C   0  0  0  0  0  0  0  0  0  0  0  0
   67.5973   32.1133   50.5487 H   0  0  0  0  0  0  0  0  0  0  0  0
  1  2  1  0
  2  3  1  0
  2  4  2  0
  4  5  1  0
  5  6  1  0
  6  7  2  0
  7  8  1  0
  8  9  1  0
  9 10  2  0
 10 11  1  0
 10 12  1  0
  9 13  1  0
 13 14  1  0
 14 15  2  0
 15 16  1  0
 15 17  1  0
 17 18  1  0
 17 19  2  0
 19 20  1  0
 20 21  2  0
 20 22  2  0
 20 23  1  0
 23 24  1  0
 24 25  2  0
 24 26  1  0
 26 27  2  0
 27 28  1  0
 27 29  1  0
 29 30  1  0
 29 31  2  0
 31 32  1  0
 31 33  1  0
 33 34  1  0
 33 35  2  0
 35 36  1  0
 19 37  1  0
 37 38  1  0
 37 39  2  0
 39 40  1  0
 13 41  1  0
 41 42  2  0
  6 43  1  0
 43 44  1  0
 43 45  2  0
 45 46  1  0
 45  4  1  0
 41  7  1  0
 39 14  1  0
 35 26  1  0
M  CHG  1  23  -1
M  END
>  <UniqueID>  (39) 
36

>  <SMILES>  (39) 
C=c1cc/c(=c2\sc(=C)n(-c3ccc(S(=O)(=O)[N-]C(=O)c4ccccc4)cc3)c2=O)s1

>  <Energy>  (39) 
121.49430035089792

>  <Genealogy>  (39) 
C=c1ccc(=c2sc(=C)n(-c3ccc(S(=O)(=O)[N-]C(=O)c4ccccc4)cc3)c2=O)s1 (protonated)
C=c1cc/c(=c2\sc(=C)n(-c3ccc(S(=O)(=O)[N-]C(=O)c4ccccc4)cc3)c2=O)s1 (cis-trans isomerization)
C=c1cc/c(=c2\sc(=C)n(-c3ccc(S(=O)(=O)[N-]C(=O)c4ccccc4)cc3)c2=O)s1 (3D coordinates assigned)
C=c1cc/c(=c2\sc(=C)n(-c3ccc(S(=O)(=O)[N-]C(=O)c4ccccc4)cc3)c2=O)s1 (optimized conformer: 121.49430035089792 kcal/mol)

>  <smiles>  (39) 
C=c1ccc(=c2sc(=C)n(-c3ccc(S(=O)(=O)NC(=O)c4ccccc4)cc3)c2=O)s1

>  <score_type>  (39) 
oracle

>  <origin>  (39) 
adg

>  <m_score__min__energy>  (39) 
-11.140000000000001

>  <m_primary>  (39) 
energy

$$$$
39:0
     RDKit          3D

 54 56  0  0  0  0  0  0  0  0999 V2000
   57.5700   34.2030   44.5180 C   0  0  0  0  0  0  0  0  0  0  0  0
   58.1660   33.9700   45.8740 C   0  0  0  0  0  0  0  0  0  0  0  0
   59.3370   34.6430   46.2570 C   0  0  0  0  0  0  0  0  0  0  0  0
   59.9130   34.4000   47.5070 C   0  0  0  0  0  0  0  0  0  0  0  0
   59.3330   33.4720   48.3830 C   0  0  0  0  0  0  0  0  0  0  0  0
   60.0480   33.1530   49.9620 S   0  0  0  0  0  0  0  0  0  0  0  0
   59.4450   34.0700   50.9900 O   0  0  0  0  0  0  0  0  0  0  0  0
   59.7250   31.7290   50.3190 O   0  0  0  0  0  0  0  0  0  0  0  0
   61.7930   33.3950   49.8900 N   0  0  0  0  0  0  0  0  0  0  0  0
   62.3440   33.3690   51.2590 C   0  0  0  0  0  0  0  0  0  0  0  0
   62.9540   31.9920   51.5100 C   0  0  0  0  0  0  0  0  0  0  0  0
   62.8550   31.2500   50.1900 C   0  0  0  0  0  0  0  0  0  0  0  0
   62.5340   32.3410   49.1540 C   0  0  2  0  0  0  0  0  0  0  0  0
   63.8640   32.9490   48.6420 C   0  0  0  0  0  0  0  0  0  0  0  0
   61.7870   31.8070   47.9360 C   0  0  0  0  0  0  0  0  0  0  0  0
   62.1000   32.2200   46.7850 O   0  0  0  0  0  0  0  0  0  0  0  0
   60.7080   30.8760   48.0830 N   0  0  0  0  0  0  0  0  0  0  0  0
   60.8420   29.4390   47.8620 C   0  0  2  0  0  0  0  0  0  0  0  0
   60.6450   29.1410   46.3690 C   0  0  0  0  0  0  0  0  0  0  0  0
   59.1850   29.0980   45.9960 C   0  0  0  0  0  0  0  0  0  0  0  0
   58.4540   27.9040   46.1150 C   0  0  0  0  0  0  0  0  0  0  0  0
   57.1090   27.8610   45.7370 C   0  0  0  0  0  0  0  0  0  0  0  0
   56.4840   29.0070   45.2350 C   0  0  0  0  0  0  0  0  0  0  0  0
   55.1470   28.9610   44.8600 O   0  0  0  0  0  0  0  0  0  0  0  0
   57.2070   30.1960   45.1070 C   0  0  0  0  0  0  0  0  0  0  0  0
   58.5530   30.2430   45.4830 C   0  0  0  0  0  0  0  0  0  0  0  0
   59.8320   28.7030   48.6970 C   0  0  0  0  0  0  0  0  0  0  0  0
   60.0270   27.4980   49.0090 O   0  0  0  0  0  0  0  0  0  0  0  0
   58.6640   29.3360   49.1040 O   0  0  0  0  0  0  0  0  0  0  0  0
   58.1720   32.7900   47.9980 C   0  0  0  0  0  0  0  0  0  0  0  0
   57.5960   33.0310   46.7460 C   0  0  0  0  0  0  0  0  0  0  0  0
   56.5507   34.6015   44.6290 H   0  0  0  0  0  0  0  0  0  0  0  0
   58.1880   34.9257   43.9651 H   0  0  0  0  0  0  0  0  0  0  0  0
   57.5340   33.2527   43.9651 H   0  0  0  0  0  0  0  0  0  0  0  0
   59.8033   35.3648   45.5702 H   0  0  0  0  0  0  0  0  0  0  0  0
   60.8247   34.9389   47.8044 H   0  0  0  0  0  0  0  0  0  0  0  0
   63.1193   34.1425   51.3616 H   0  0  0  0  0  0  0  0  0  0  0  0
   61.5462   33.5666   51.9901 H   0  0  0  0  0  0  0  0  0  0  0  0
   64.0058   32.0890   51.8171 H   0  0  0  0  0  0  0  0  0  0  0  0
   62.4296   31.4573   52.3157 H   0  0  0  0  0  0  0  0  0  0  0  0
   63.8078   30.7553   49.9503 H   0  0  0  0  0  0  0  0  0  0  0  0
   62.0910   30.4589   50.2127 H   0  0  0  0  0  0  0  0  0  0  0  0
   64.4904   33.2354   49.4997 H   0  0  0  0  0  0  0  0  0  0  0  0
   64.3963   32.2048   48.0314 H   0  0  0  0  0  0  0  0  0  0  0  0
   63.6495   33.8385   48.0314 H   0  0  0  0  0  0  0  0  0  0  0  0
   61.8453   29.1011   48.1607 H   0  0  0  0  0  0  0  0  0  0  0  0
   61.1401   29.9273   45.7803 H   0  0  0  0  0  0  0  0  0  0  0  0
   61.0821   28.1543   46.1561 H   0  0  0  0  0  0  0  0  0  0  0  0
   58.9421   26.9996   46.5072 H   0  0  0  0  0  0  0  0  0  0  0  0
   56.5410   26.9240   45.8345 H   0  0  0  0  0  0  0  0  0  0  0  0
   56.7163   31.0967   44.7097 H   0  0  0  0  0  0  0  0  0  0  0  0
   59.1192   31.1801   45.3767 H   0  0  0  0  0  0  0  0  0  0  0  0
   57.7114   32.0623   48.6823 H   0  0  0  0  0  0  0  0  0  0  0  0
   56.6921   32.4816   46.4442 H   0  0  0  0  0  0  0  0  0  0  0  0
  1  2  1  0
  2  3  2  0
  3  4  1  0
  4  5  2  0
  5  6  1  0
  6  7  2  0
  6  8  2  0
  6  9  1  0
  9 10  1  0
 10 11  1  0
 11 12  1  0
 12 13  1  0
 13 14  1  6
 13 15  1  0
 15 16  2  0
 15 17  1  0
 17 18  1  0
 18 19  1  0
 19 20  1  0
 20 21  2  0
 21 22  1  0
 22 23  2  0
 23 24  1  0
 23 25  1  0
 25 26  2  0
 18 27  1  0
 27 28  2  0
 27 29  1  0
  5 30  1  0
 30 31  2  0
 31  2  1  0
 13  9  1  0
 26 20  1  0
  1 32  1  0
  1 33  1  0
  1 34  1  0
  3 35  1  0
  4 36  1  0
 10 37  1  0
 10 38  1  0
 11 39  1  0
 11 40  1  0
 12 41  1  0
 12 42  1  0
 14 43  1  0
 14 44  1  0
 14 45  1  0
 18 46  1  1
 19 47  1  0
 19 48  1  0
 21 49  1  0
 22 50  1  0
 25 51  1  0
 26 52  1  0
 30 53  1  0
 31 54  1  0
M  CHG  3  17  -1  24  -1  29  -1
M  END
>  <UniqueID>  (40) 
37

>  <SMILES>  (40) 
Cc1ccc(S(=O)(=O)N2CCC[C@@]2(C)C(=O)[N-][C@H](Cc2ccc([O-])cc2)C(=O)[O-])cc1

>  <Energy>  (40) 
58.899587589242735

>  <Genealogy>  (40) 
Cc1ccc(S(=O)(=O)N2CCCC2(C)C(=O)[N-]C(Cc2ccc([O-])cc2)C(=O)[O-])cc1 (protonated)
Cc1ccc(S(=O)(=O)N2CCC[C@@]2(C)C(=O)[N-][C@H](Cc2ccc([O-])cc2)C(=O)[O-])cc1 (chirality)
Cc1ccc(S(=O)(=O)N2CCC[C@@]2(C)C(=O)[N-][C@H](Cc2ccc([O-])cc2)C(=O)[O-])cc1 (3D coordinates assigned)
Cc1ccc(S(=O)(=O)N2CCC[C@@]2(C)C(=O)[N-][C@H](Cc2ccc([O-])cc2)C(=O)[O-])cc1 (nonaromatic ring conformer: 58.899587589242735 kcal/mol)

>  <smiles>  (40) 
Cc1ccc(S(=O)(=O)N2CCCC2(C)C(=O)NC(Cc2ccc(O)cc2)C(=O)O)cc1

>  <score_type>  (40) 
oracle

>  <origin>  (40) 
adg

>  <m_score__min__energy>  (40) 
-14.49

>  <m_primary>  (40) 
energy

$$$$
40:0
     RDKit          3D

 45 47  0  0  0  0  0  0  0  0999 V2000
   65.8860   31.8930   50.5360 N   0  0  0  0  0  0  0  0  0  0  0  0
   65.0220   32.1810   49.8230 C   0  0  0  0  0  0  0  0  0  0  0  0
   63.9460   32.5410   48.9350 C   0  0  0  0  0  0  0  0  0  0  0  0
   63.4190   33.8380   48.9600 C   0  0  0  0  0  0  0  0  0  0  0  0
   62.3750   34.1870   48.1000 C   0  0  0  0  0  0  0  0  0  0  0  0
   61.8480   33.2420   47.2050 C   0  0  0  0  0  0  0  0  0  0  0  0
   60.7150   33.6240   46.2890 C   0  0  0  0  0  0  0  0  0  0  0  0
   59.5020   33.9350   47.0770 N   0  0  0  0  0  0  0  0  0  0  0  0
   58.2650   33.5730   46.3510 C   0  0  0  0  0  0  0  0  0  0  0  0
   58.1430   32.0500   46.1690 C   0  0  0  0  0  0  0  0  0  0  0  0
   58.6220   31.3450   47.3650 N   0  0  0  0  0  0  0  0  0  0  0  0
   59.2190   30.0370   47.2510 C   0  0  0  0  0  0  0  0  0  0  0  0
   60.2280   29.7510   47.9510 O   0  0  0  0  0  0  0  0  0  0  0  0
   58.6870   29.0260   46.3090 C   0  0  0  0  0  0  0  0  0  0  0  0
   59.1680   28.9710   44.9920 C   0  0  0  0  0  0  0  0  0  0  0  0
   58.6740   28.0170   44.1020 C   0  0  0  0  0  0  0  0  0  0  0  0
   57.7040   27.1030   44.5180 C   0  0  0  0  0  0  0  0  0  0  0  0
   57.2200   27.1270   45.8370 C   0  0  0  0  0  0  0  0  0  0  0  0
   56.2000   26.1480   46.2820 C   0  0  0  0  0  0  0  0  0  0  0  0
   54.8570   26.2340   45.8080 N   0  0  0  0  0  0  0  0  0  0  0  0
   56.5100   25.2250   47.0820 O   0  0  0  0  0  0  0  0  0  0  0  0
   57.7240   28.0920   46.7310 C   0  0  0  0  0  0  0  0  0  0  0  0
   58.6980   32.0890   48.6260 C   0  0  0  0  0  0  0  0  0  0  0  0
   59.5520   33.3590   48.4490 C   0  0  0  0  0  0  0  0  0  0  0  0
   62.3800   31.9430   47.1840 C   0  0  0  0  0  0  0  0  0  0  0  0
   63.4240   31.5940   48.0450 C   0  0  0  0  0  0  0  0  0  0  0  0
   63.8278   34.5834   49.6581 H   0  0  0  0  0  0  0  0  0  0  0  0
   61.9638   35.2070   48.1240 H   0  0  0  0  0  0  0  0  0  0  0  0
   61.0042   34.5090   45.7032 H   0  0  0  0  0  0  0  0  0  0  0  0
   60.4988   32.7814   45.6157 H   0  0  0  0  0  0  0  0  0  0  0  0
   57.3969   33.9355   46.9211 H   0  0  0  0  0  0  0  0  0  0  0  0
   58.3011   34.0378   45.3547 H   0  0  0  0  0  0  0  0  0  0  0  0
   57.0884   31.7904   45.9947 H   0  0  0  0  0  0  0  0  0  0  0  0
   58.7577   31.7459   45.3089 H   0  0  0  0  0  0  0  0  0  0  0  0
   59.9378   29.6831   44.6599 H   0  0  0  0  0  0  0  0  0  0  0  0
   59.0501   27.9848   43.0688 H   0  0  0  0  0  0  0  0  0  0  0  0
   57.3156   26.3583   43.8077 H   0  0  0  0  0  0  0  0  0  0  0  0
   54.1190   26.7160   46.3700 H   0  0  0  0  0  0  0  0  0  0  0  0
   57.3609   28.1152   47.7691 H   0  0  0  0  0  0  0  0  0  0  0  0
   57.6833   32.3753   48.9398 H   0  0  0  0  0  0  0  0  0  0  0  0
   59.1634   31.4494   49.3904 H   0  0  0  0  0  0  0  0  0  0  0  0
   59.1917   34.1198   49.1571 H   0  0  0  0  0  0  0  0  0  0  0  0
   60.5967   33.0690   48.6349 H   0  0  0  0  0  0  0  0  0  0  0  0
   61.9731   31.1962   46.4864 H   0  0  0  0  0  0  0  0  0  0  0  0
   63.8362   30.5744   48.0236 H   0  0  0  0  0  0  0  0  0  0  0  0
  1  2  3  0
  2  3  1  0
  3  4  2  0
  4  5  1  0
  5  6  2  0
  6  7  1  0
  7  8  1  0
  8  9  1  0
  9 10  1  0
 10 11  1  0
 11 12  1  0
 12 13  2  0
 12 14  1  0
 14 15  2  0
 15 16  1  0
 16 17  2  0
 17 18  1  0
 18 19  1  0
 19 20  1  0
 19 21  2  0
 18 22  2  0
 11 23  1  0
 23 24  1  0
  6 25  1  0
 25 26  2  0
 26  3  1  0
 24  8  1  0
 22 14  1  0
  4 27  1  0
  5 28  1  0
  7 29  1  0
  7 30  1  0
  9 31  1  0
  9 32  1  0
 10 33  1  0
 10 34  1  0
 15 35  1  0
 16 36  1  0
 17 37  1  0
 20 38  1  0
 22 39  1  0
 23 40  1  0
 23 41  1  0
 24 42  1  0
 24 43  1  0
 25 44  1  0
 26 45  1  0
M  CHG  1  20  -1
M  END
>  <UniqueID>  (41) 
38

>  <SMILES>  (41) 
N#Cc1ccc(CN2CCN(C(=O)c3cccc(C([NH-])=O)c3)CC2)cc1

>  <Energy>  (41) 
59.143927106085044

>  <Genealogy>  (41) 
N#Cc1ccc(CN2CCN(C(=O)c3cccc(C([NH-])=O)c3)CC2)cc1 (protonated)
N#Cc1ccc(CN2CCN(C(=O)c3cccc(C([NH-])=O)c3)CC2)cc1 (3D coordinates assigned)
N#Cc1ccc(CN2CCN(C(=O)c3cccc(C([NH-])=O)c3)CC2)cc1 (nonaromatic ring conformer: 59.143927106085044 kcal/mol)

>  <smiles>  (41) 
N#Cc1ccc(CN2CCN(C(=O)c3cccc(C(N)=O)c3)CC2)cc1

>  <score_type>  (41) 
oracle

>  <origin>  (41) 
adg

>  <m_score__min__energy>  (41) 
-11.880000000000001

>  <m_primary>  (41) 
energy

$$$$
41:0
     RDKit          3D

 58 61  0  0  0  0  0  0  0  0999 V2000
   55.9990   30.4530   44.5000 O   0  0  0  0  0  0  0  0  0  0  0  0
   57.0440   31.1570   44.5820 C   0  0  0  0  0  0  0  0  0  0  0  0
   58.3320   30.6630   43.9970 C   0  0  0  0  0  0  0  0  0  0  0  0
   58.7720   29.3810   44.6540 C   0  0  0  0  0  0  0  0  0  0  0  0
   59.9500   29.3450   45.4130 C   0  0  0  0  0  0  0  0  0  0  0  0
   60.3730   28.1490   45.9960 C   0  0  0  0  0  0  0  0  0  0  0  0
   59.6250   26.9810   45.8280 C   0  0  0  0  0  0  0  0  0  0  0  0
   58.4390   26.9980   45.0770 C   0  0  0  0  0  0  0  0  0  0  0  0
   57.6770   25.7870   44.8970 N   0  0  0  0  0  0  0  0  0  0  0  0
   57.0300   25.0490   45.9710 C   0  0  0  0  0  0  0  0  0  0  0  0
   56.5790   23.7100   45.3560 C   0  0  0  0  0  0  0  0  0  0  0  0
   56.6940   23.8540   43.8310 C   0  0  0  0  0  0  0  0  0  0  0  0
   57.4400   25.1180   43.6670 C   0  0  0  0  0  0  0  0  0  0  0  0
   57.7550   25.5960   42.5420 O   0  0  0  0  0  0  0  0  0  0  0  0
   58.0280   28.2020   44.4780 C   0  0  0  0  0  0  0  0  0  0  0  0
   57.0210   32.4070   45.2750 N   0  0  0  0  0  0  0  0  0  0  0  0
   57.7530   32.6400   46.5130 C   0  0  0  0  0  0  0  0  0  0  0  0
   58.6820   33.8090   46.3390 C   0  0  0  0  0  0  0  0  0  0  0  0
   58.5020   34.6000   45.3750 O   0  0  0  0  0  0  0  0  0  0  0  0
   59.7490   34.0730   47.2580 N   0  0  0  0  0  0  0  0  0  0  0  0
   60.9910   33.3610   47.3570 C   0  0  0  0  0  0  0  0  0  0  0  0
   62.1520   33.8430   46.7300 C   0  0  0  0  0  0  0  0  0  0  0  0
   63.3550   33.1420   46.8350 C   0  0  0  0  0  0  0  0  0  0  0  0
   63.4150   31.9620   47.5750 C   0  0  0  0  0  0  0  0  0  0  0  0
   62.2750   31.4850   48.2230 C   0  0  0  0  0  0  0  0  0  0  0  0
   61.0630   32.1870   48.1360 C   0  0  0  0  0  0  0  0  0  0  0  0
   59.9130   31.6860   48.8380 N   0  0  0  0  0  0  0  0  0  0  0  0
   59.3530   30.3800   48.4930 C   0  0  0  0  0  0  0  0  0  0  0  0
   58.7910   29.7170   49.7540 C   0  0  0  0  0  0  0  0  0  0  0  0
   57.9000   30.5870   50.4300 O   0  0  0  0  0  0  0  0  0  0  0  0
   58.6010   31.7240   50.9000 C   0  0  0  0  0  0  0  0  0  0  0  0
   59.1390   32.5530   49.7300 C   0  0  0  0  0  0  0  0  0  0  0  0
   58.1923   30.4850   42.9205 H   0  0  0  0  0  0  0  0  0  0  0  0
   59.1068   31.4252   44.1666 H   0  0  0  0  0  0  0  0  0  0  0  0
   60.5427   30.2615   45.5496 H   0  0  0  0  0  0  0  0  0  0  0  0
   61.2987   28.1262   46.5898 H   0  0  0  0  0  0  0  0  0  0  0  0
   59.9676   26.0420   46.2872 H   0  0  0  0  0  0  0  0  0  0  0  0
   57.7384   24.8722   46.7937 H   0  0  0  0  0  0  0  0  0  0  0  0
   56.1788   25.6077   46.3873 H   0  0  0  0  0  0  0  0  0  0  0  0
   57.2282   22.8949   45.7084 H   0  0  0  0  0  0  0  0  0  0  0  0
   55.5465   23.4710   45.6507 H   0  0  0  0  0  0  0  0  0  0  0  0
   57.2483   23.0095   43.3957 H   0  0  0  0  0  0  0  0  0  0  0  0
   55.7182   23.8599   43.3233 H   0  0  0  0  0  0  0  0  0  0  0  0
   57.1146   28.2211   43.8653 H   0  0  0  0  0  0  0  0  0  0  0  0
   57.0414   32.8557   47.3236 H   0  0  0  0  0  0  0  0  0  0  0  0
   58.3384   31.7434   46.7648 H   0  0  0  0  0  0  0  0  0  0  0  0
   62.1132   34.7785   46.1527 H   0  0  0  0  0  0  0  0  0  0  0  0
   64.2571   33.5215   46.3329 H   0  0  0  0  0  0  0  0  0  0  0  0
   64.3617   31.4066   47.6481 H   0  0  0  0  0  0  0  0  0  0  0  0
   62.3266   30.5533   48.8054 H   0  0  0  0  0  0  0  0  0  0  0  0
   58.5465   30.5098   47.7563 H   0  0  0  0  0  0  0  0  0  0  0  0
   60.1417   29.7441   48.0645 H   0  0  0  0  0  0  0  0  0  0  0  0
   58.2529   28.8008   49.4695 H   0  0  0  0  0  0  0  0  0  0  0  0
   59.6274   29.4787   50.4276 H   0  0  0  0  0  0  0  0  0  0  0  0
   57.9195   32.3457   51.4992 H   0  0  0  0  0  0  0  0  0  0  0  0
   59.4498   31.3865   51.5129 H   0  0  0  0  0  0  0  0  0  0  0  0
   58.2981   32.9943   49.1750 H   0  0  0  0  0  0  0  0  0  0  0  0
   59.7843   33.3569   50.1139 H   0  0  0  0  0  0  0  0  0  0  0  0
  1  2  2  0
  2  3  1  0
  3  4  1  0
  4  5  2  0
  5  6  1  0
  6  7  2  0
  7  8  1  0
  8  9  1  0
  9 10  1  0
 10 11  1  0
 11 12  1  0
 12 13  1  0
 13 14  2  0
  8 15  2  0
  2 16  1  0
 16 17  1  0
 17 18  1  0
 18 19  2  0
 18 20  1  0
 20 21  1  0
 21 22  2  0
 22 23  1  0
 23 24  2  0
 24 25  1  0
 25 26  2  0
 26 27  1  0
 27 28  1  0
 28 29  1  0
 29 30  1  0
 30 31  1  0
 31 32  1  0
 15  4  1  0
 26 21  1  0
 32 27  1  0
 13  9  1  0
  3 33  1  0
  3 34  1  0
  5 35  1  0
  6 36  1  0
  7 37  1  0
 10 38  1  0
 10 39  1  0
 11 40  1  0
 11 41  1  0
 12 42  1  0
 12 43  1  0
 15 44  1  0
 17 45  1  0
 17 46  1  0
 22 47  1  0
 23 48  1  0
 24 49  1  0
 25 50  1  0
 28 51  1  0
 28 52  1  0
 29 53  1  0
 29 54  1  0
 31 55  1  0
 31 56  1  0
 32 57  1  0
 32 58  1  0
M  CHG  2  16  -1  20  -1
M  END
>  <UniqueID>  (42) 
39

>  <SMILES>  (42) 
O=C(Cc1cccc(N2CCCC2=O)c1)[N-]CC(=O)[N-]c1ccccc1N1CCOCC1

>  <Energy>  (42) 
77.71086959986907

>  <Genealogy>  (42) 
O=C(Cc1cccc(N2CCCC2=O)c1)[N-]CC(=O)[N-]c1ccccc1N1CCOCC1 (protonated)
O=C(Cc1cccc(N2CCCC2=O)c1)[N-]CC(=O)[N-]c1ccccc1N1CCOCC1 (3D coordinates assigned)
O=C(Cc1cccc(N2CCCC2=O)c1)[N-]CC(=O)[N-]c1ccccc1N1CCOCC1 (nonaromatic ring conformer: 77.71086959986907 kcal/mol)

>  <smiles>  (42) 
O=C(Cc1cccc(N2CCCC2=O)c1)NCC(=O)Nc1ccccc1N1CCOCC1

>  <score_type>  (42) 
oracle

>  <origin>  (42) 
adg

>  <m_score__min__energy>  (42) 
-12.24

>  <m_primary>  (42) 
energy

$$$$
42:0
     RDKit          3D

 59 61  0  0  0  0  0  0  0  0999 V2000
   60.6900   27.0960   46.6960 C   0  0  0  0  0  0  0  0  0  0  0  0
   59.6780   27.9530   46.4670 C   0  0  0  0  0  0  0  0  0  0  0  0
   59.8300   29.2700   46.9440 C   0  0  0  0  0  0  0  0  0  0  0  0
   58.9560   30.2830   46.5570 C   0  0  0  0  0  0  0  0  0  0  0  0
   57.9040   30.0090   45.6740 C   0  0  0  0  0  0  0  0  0  0  0  0
   57.0210   30.9990   45.2120 O   0  0  0  0  0  0  0  0  0  0  0  0
   57.3100   31.9660   44.2010 C   0  0  0  0  0  0  0  0  0  0  0  0
   57.2800   33.3840   44.7870 C   0  0  0  0  0  0  0  0  0  0  0  0
   58.3250   33.5870   45.8950 C   0  0  0  0  0  0  0  0  0  0  0  0
   59.6720   34.0930   45.3550 C   0  0  0  0  0  0  0  0  0  0  0  0
   60.5350   34.5420   46.4680 N   0  0  0  0  0  0  0  0  0  0  0  0
   59.8410   34.4830   47.7820 C   0  0  0  0  0  0  0  0  0  0  0  0
   60.2640   33.2620   48.6140 C   0  0  0  0  0  0  0  0  0  0  0  0
   61.7210   33.2650   48.8980 N   0  0  0  0  0  0  0  0  0  0  0  0
   62.2180   31.9030   49.2060 C   0  0  0  0  0  0  0  0  0  0  0  0
   63.6980   31.7230   48.8280 C   0  0  0  0  0  0  0  0  0  0  0  0
   64.6370   32.2930   49.8890 C   0  0  0  0  0  0  0  0  0  0  0  0
   62.5230   33.9010   47.8220 C   0  0  0  0  0  0  0  0  0  0  0  0
   61.8270   33.8170   46.4580 C   0  0  0  0  0  0  0  0  0  0  0  0
   57.7090   28.6990   45.2320 C   0  0  0  0  0  0  0  0  0  0  0  0
   58.5270   27.6340   45.6710 C   0  0  0  0  0  0  0  0  0  0  0  0
   58.1320   26.3830   45.3230 C   0  0  0  0  0  0  0  0  0  0  0  0
   57.4050   25.4210   46.1700 C   0  0  0  0  0  0  0  0  0  0  0  0
   57.9480   24.2740   46.6140 N   0  0  0  0  0  0  0  0  0  0  0  0
   56.9330   23.6820   47.2780 C   0  0  0  0  0  0  0  0  0  0  0  0
   57.0570   22.5730   47.8580 O   0  0  0  0  0  0  0  0  0  0  0  0
   55.7700   24.3690   47.2660 N   0  0  0  0  0  0  0  0  0  0  0  0
   56.0760   25.4620   46.5480 C   0  0  0  0  0  0  0  0  0  0  0  0
   55.1460   26.4460   46.2250 O   0  0  0  0  0  0  0  0  0  0  0  0
   60.6205   26.0562   46.3439 H   0  0  0  0  0  0  0  0  0  0  0  0
   61.5867   27.4353   47.2353 H   0  0  0  0  0  0  0  0  0  0  0  0
   60.6540   29.5024   47.6347 H   0  0  0  0  0  0  0  0  0  0  0  0
   59.0926   31.3026   46.9465 H   0  0  0  0  0  0  0  0  0  0  0  0
   58.3090   31.7674   43.7855 H   0  0  0  0  0  0  0  0  0  0  0  0
   56.5483   31.8921   43.4109 H   0  0  0  0  0  0  0  0  0  0  0  0
   57.4787   34.1035   43.9790 H   0  0  0  0  0  0  0  0  0  0  0  0
   56.2866   33.5395   45.2330 H   0  0  0  0  0  0  0  0  0  0  0  0
   57.9361   34.3221   46.6150 H   0  0  0  0  0  0  0  0  0  0  0  0
   58.5026   32.6095   46.3671 H   0  0  0  0  0  0  0  0  0  0  0  0
   60.1743   33.2787   44.8121 H   0  0  0  0  0  0  0  0  0  0  0  0
   59.4904   34.9411   44.6785 H   0  0  0  0  0  0  0  0  0  0  0  0
   60.0785   35.3957   48.3482 H   0  0  0  0  0  0  0  0  0  0  0  0
   58.7616   34.3986   47.5876 H   0  0  0  0  0  0  0  0  0  0  0  0
   59.7156   33.2738   49.5675 H   0  0  0  0  0  0  0  0  0  0  0  0
   60.0310   32.3566   48.0344 H   0  0  0  0  0  0  0  0  0  0  0  0
   62.1035   31.7201   50.2846 H   0  0  0  0  0  0  0  0  0  0  0  0
   61.6295   31.1876   48.6128 H   0  0  0  0  0  0  0  0  0  0  0  0
   63.9058   30.6492   48.7109 H   0  0  0  0  0  0  0  0  0  0  0  0
   63.8762   32.2695   47.8901 H   0  0  0  0  0  0  0  0  0  0  0  0
   64.2465   32.0560   50.8897 H   0  0  0  0  0  0  0  0  0  0  0  0
   65.6365   31.8490   49.7708 H   0  0  0  0  0  0  0  0  0  0  0  0
   64.7043   33.3846   49.7708 H   0  0  0  0  0  0  0  0  0  0  0  0
   62.6803   34.9598   48.0754 H   0  0  0  0  0  0  0  0  0  0  0  0
   63.4792   33.3622   47.7484 H   0  0  0  0  0  0  0  0  0  0  0  0
   62.4815   34.2614   45.6937 H   0  0  0  0  0  0  0  0  0  0  0  0
   61.6297   32.7584   46.2332 H   0  0  0  0  0  0  0  0  0  0  0  0
   56.8954   28.4902   44.5218 H   0  0  0  0  0  0  0  0  0  0  0  0
   58.3802   26.0532   44.3034 H   0  0  0  0  0  0  0  0  0  0  0  0
   54.4020   26.7040   46.8600 H   0  0  0  0  0  0  0  0  0  0  0  0
  1  2  2  0
  2  3  1  0
  3  4  2  0
  4  5  1  0
  5  6  1  0
  6  7  1  0
  7  8  1  0
  8  9  1  0
  9 10  1  0
 10 11  1  0
 11 12  1  0
 12 13  1  0
 13 14  1  0
 14 15  1  0
 15 16  1  0
 16 17  1  0
 14 18  1  0
 18 19  1  0
  5 20  2  0
 20 21  1  0
 21 22  2  3
 22 23  1  0
 23 24  1  0
 24 25  1  0
 25 26  2  0
 25 27  1  0
 27 28  1  0
 28 29  1  0
 21  2  1  0
 28 23  2  0
 19 11  1  0
  1 30  1  0
  1 31  1  0
  3 32  1  0
  4 33  1  0
  7 34  1  0
  7 35  1  0
  8 36  1  0
  8 37  1  0
  9 38  1  0
  9 39  1  0
 10 40  1  0
 10 41  1  0
 12 42  1  0
 12 43  1  0
 13 44  1  0
 13 45  1  0
 15 46  1  0
 15 47  1  0
 16 48  1  0
 16 49  1  0
 17 50  1  0
 17 51  1  0
 17 52  1  0
 18 53  1  0
 18 54  1  0
 19 55  1  0
 19 56  1  0
 20 57  1  0
 22 58  1  0
 29 59  1  0
M  CHG  2  24  -1  27  -1
M  END
>  <UniqueID>  (43) 
40

>  <SMILES>  (43) 
C=c1ccc(OCCCCN2CCN(CCC)CC2)cc1=Cc1[n-]c(=O)[n-]c1O

>  <Energy>  (43) 
115.68780812738632

>  <Genealogy>  (43) 
C=c1ccc(OCCCCN2CCN(CCC)CC2)cc1=Cc1[n-]c(=O)[n-]c1O (protonated)
C=c1ccc(OCCCCN2CCN(CCC)CC2)cc1=Cc1[n-]c(=O)[n-]c1O (3D coordinates assigned)
C=c1ccc(OCCCCN2CCN(CCC)CC2)cc1=Cc1[n-]c(=O)[n-]c1O (nonaromatic ring conformer: 115.68780812738632 kcal/mol)

>  <smiles>  (43) 
C=c1ccc(OCCCCN2CCN(CCC)CC2)cc1=Cc1[nH]c(=O)[nH]c1O

>  <score_type>  (43) 
oracle

>  <origin>  (43) 
adg

>  <m_score__min__energy>  (43) 
-13.66

>  <m_primary>  (43) 
energy

$$$$
43:0
     RDKit          3D

 39 42  0  0  0  0  0  0  0  0999 V2000
   54.4090   26.7190   46.7640 H   0  0  0  0  0  0  0  0  0  0  0  0
   54.7600   26.2750   45.9240 O   0  0  0  0  0  0  0  0  0  0  0  0
   54.3470   24.9940   45.5740 C   0  0  0  0  0  0  0  0  0  0  0  0
   53.0590   24.6200   45.4930 N   0  0  0  0  0  0  0  0  0  0  0  0
   53.1480   23.3430   45.0620 C   0  0  0  0  0  0  0  0  0  0  0  0
   52.1340   22.6280   44.8510 O   0  0  0  0  0  0  0  0  0  0  0  0
   54.4070   22.8980   44.8650 N   0  0  0  0  0  0  0  0  0  0  0  0
   55.1700   23.9470   45.2170 C   0  0  0  0  0  0  0  0  0  0  0  0
   56.6370   23.9600   45.0910 C   0  0  0  0  0  0  0  0  0  0  0  0
   57.1293   23.0540   44.7078 H   0  0  0  0  0  0  0  0  0  0  0  0
   57.4110   25.0070   45.4140 C   0  0  0  0  0  0  0  0  0  0  0  0
   57.7370   26.0320   44.5430 C   0  0  0  0  0  0  0  0  0  0  0  0
   57.4092   26.1386   43.4984 H   0  0  0  0  0  0  0  0  0  0  0  0
   58.5560   26.8950   45.2460 C   0  0  0  0  0  0  0  0  0  0  0  0
   59.1220   28.1470   44.7040 C   0  0  0  0  0  0  0  0  0  0  0  0
   60.3640   28.2200   44.5070 O   0  0  0  0  0  0  0  0  0  0  0  0
   58.2970   29.2810   44.4040 N   0  0  0  0  0  0  0  0  0  0  0  0
   58.3910   30.5880   44.9540 C   0  0  0  0  0  0  0  0  0  0  0  0
   59.2490   31.0290   45.9690 C   0  0  0  0  0  0  0  0  0  0  0  0
   59.9763   30.3440   46.4293 H   0  0  0  0  0  0  0  0  0  0  0  0
   59.1580   32.3680   46.3850 C   0  0  0  0  0  0  0  0  0  0  0  0
   59.8302   32.7448   47.1700 H   0  0  0  0  0  0  0  0  0  0  0  0
   58.2100   33.2290   45.8010 C   0  0  0  0  0  0  0  0  0  0  0  0
   58.1492   34.2783   46.1254 H   0  0  0  0  0  0  0  0  0  0  0  0
   57.3420   32.7530   44.8060 C   0  0  0  0  0  0  0  0  0  0  0  0
   56.5906   33.4152   44.3512 H   0  0  0  0  0  0  0  0  0  0  0  0
   57.4540   31.4210   44.4070 C   0  0  0  0  0  0  0  0  0  0  0  0
   56.6180   30.6900   43.4120 C   0  0  0  0  0  0  0  0  0  0  0  0
   56.7463   31.1120   42.4043 H   0  0  0  0  0  0  0  0  0  0  0  0
   55.5410   30.7539   43.6263 H   0  0  0  0  0  0  0  0  0  0  0  0
   57.1630   29.2430   43.4800 C   0  0  0  0  0  0  0  0  0  0  0  0
   57.4926   28.9117   42.4842 H   0  0  0  0  0  0  0  0  0  0  0  0
   56.3904   28.5375   43.8198 H   0  0  0  0  0  0  0  0  0  0  0  0
   58.7290   26.3330   46.5080 C   0  0  0  0  0  0  0  0  0  0  0  0
   59.5190   26.7840   47.4860 C   0  0  0  0  0  0  0  0  0  0  0  0
   60.0743   27.7244   47.3549 H   0  0  0  0  0  0  0  0  0  0  0  0
   59.6143   26.2150   48.4226 H   0  0  0  0  0  0  0  0  0  0  0  0
   58.0220   25.1890   46.6050 N   0  0  0  0  0  0  0  0  0  0  0  0
   58.0170   24.5430   47.4250 H   0  0  0  0  0  0  0  0  0  0  0  0
  1  2  1  0
  2  3  1  0
  3  4  1  0
  4  5  1  0
  5  6  2  0
  5  7  1  0
  7  8  1  0
  8  9  1  0
  9 10  1  0
  9 11  2  0
 11 12  1  0
 12 13  1  0
 12 14  2  0
 14 15  1  0
 15 16  2  0
 15 17  1  0
 17 18  1  0
 18 19  2  0
 19 20  1  0
 19 21  1  0
 21 22  1  0
 21 23  2  0
 23 24  1  0
 23 25  1  0
 25 26  1  0
 25 27  2  0
 27 28  1  0
 28 29  1  0
 28 30  1  0
 28 31  1  0
 31 32  1  0
 31 33  1  0
 14 34  1  0
 34 35  2  0
 35 36  1  0
 35 37  1  0
 34 38  1  0
 38 39  1  0
  8  3  2  0
 38 11  1  0
 31 17  1  0
 27 18  1  0
M  CHG  2   4  -1   7  -1
M  END
>  <UniqueID>  (44) 
41

>  <SMILES>  (44) 
C=c1[nH]/c(=C\c2[n-]c(=O)[n-]c2O)cc1C(=O)N1CCc2ccccc21

>  <Energy>  (44) 
123.55240297255678

>  <Genealogy>  (44) 
C=c1[nH]c(=Cc2[n-]c(=O)[n-]c2O)cc1C(=O)N1CCc2ccccc21 (protonated)
C=c1[nH]/c(=C\c2[n-]c(=O)[n-]c2O)cc1C(=O)N1CCc2ccccc21 (cis-trans isomerization)
C=c1[nH]/c(=C\c2[n-]c(=O)[n-]c2O)cc1C(=O)N1CCc2ccccc21 (3D coordinates assigned)
C=c1[nH]/c(=C\c2[n-]c(=O)[n-]c2O)cc1C(=O)N1CCc2ccccc21 (nonaromatic ring conformer: 123.55240297255678 kcal/mol)

>  <smiles>  (44) 
C=c1[nH]c(=Cc2[nH]c(=O)[nH]c2O)cc1C(=O)N1CCc2ccccc21

>  <score_type>  (44) 
oracle

>  <origin>  (44) 
adg

>  <m_score__min__energy>  (44) 
-13.449999999999999

>  <m_primary>  (44) 
energy

$$$$
44:0
     RDKit          3D

 61 64  0  0  0  0  0  0  0  0999 V2000
   66.1790   32.4430   52.2700 C   0  0  0  0  0  0  0  0  0  0  0  0
   65.1410   33.4840   51.9610 C   0  0  0  0  0  0  0  0  0  0  0  0
   64.8150   34.2920   52.8740 O   0  0  0  0  0  0  0  0  0  0  0  0
   64.4990   33.5700   50.6670 N   0  0  0  0  0  0  0  0  0  0  0  0
   64.9710   32.8020   49.5020 C   0  0  0  0  0  0  0  0  0  0  0  0
   63.7800   32.1650   48.7790 C   0  0  0  0  0  0  0  0  0  0  0  0
   62.6830   33.1270   48.5890 N   0  0  0  0  0  0  0  0  0  0  0  0
   61.6070   32.8050   47.6870 C   0  0  0  0  0  0  0  0  0  0  0  0
   61.2520   33.6510   46.8230 O   0  0  0  0  0  0  0  0  0  0  0  0
   60.9130   31.5000   47.7530 C   0  0  0  0  0  0  0  0  0  0  0  0
   60.4090   31.0280   48.9760 C   0  0  0  0  0  0  0  0  0  0  0  0
   59.7560   29.7940   49.0430 C   0  0  0  0  0  0  0  0  0  0  0  0
   59.6080   29.0150   47.8930 C   0  0  0  0  0  0  0  0  0  0  0  0
   60.1380   29.4560   46.6690 C   0  0  0  0  0  0  0  0  0  0  0  0
   60.0290   28.6980   45.4960 O   0  0  0  0  0  0  0  0  0  0  0  0
   59.5150   27.3970   45.4300 C   0  0  0  0  0  0  0  0  0  0  0  0
   60.2140   26.3960   46.0310 N   0  0  0  0  0  0  0  0  0  0  0  0
   59.7840   25.1080   46.0290 C   0  0  0  0  0  0  0  0  0  0  0  0
   58.5880   24.7740   45.3990 C   0  0  0  0  0  0  0  0  0  0  0  0
   57.8320   25.7750   44.7890 C   0  0  0  0  0  0  0  0  0  0  0  0
   58.2730   27.1090   44.8090 C   0  0  0  0  0  0  0  0  0  0  0  0
   57.4210   28.1800   44.1620 C   0  0  0  0  0  0  0  0  0  0  0  0
   57.9790   29.5170   44.3810 N   0  0  0  0  0  0  0  0  0  0  0  0
   57.1360   30.6410   44.6750 C   0  0  0  0  0  0  0  0  0  0  0  0
   55.8820   30.4990   44.6930 O   0  0  0  0  0  0  0  0  0  0  0  0
   57.7000   31.9910   44.8800 C   0  0  0  0  0  0  0  0  0  0  0  0
   57.8850   32.5660   46.1250 C   0  0  0  0  0  0  0  0  0  0  0  0
   58.4470   33.8070   45.9060 C   0  0  0  0  0  0  0  0  0  0  0  0
   58.5960   33.9380   44.5410 C   0  0  0  0  0  0  0  0  0  0  0  0
   58.1550   32.8270   43.9170 N   0  0  0  0  0  0  0  0  0  0  0  0
   58.2040   32.6090   42.4730 C   0  0  0  0  0  0  0  0  0  0  0  0
   60.7830   30.6960   46.6060 C   0  0  0  0  0  0  0  0  0  0  0  0
   62.8270   34.5060   49.0720 C   0  0  0  0  0  0  0  0  0  0  0  0
   63.3720   34.5050   50.5040 C   0  0  0  0  0  0  0  0  0  0  0  0
   66.2817   32.3400   53.3603 H   0  0  0  0  0  0  0  0  0  0  0  0
   65.8717   31.4792   51.8380 H   0  0  0  0  0  0  0  0  0  0  0  0
   67.1437   32.7475   51.8380 H   0  0  0  0  0  0  0  0  0  0  0  0
   65.4992   33.4755   48.8110 H   0  0  0  0  0  0  0  0  0  0  0  0
   65.6530   32.0094   49.8434 H   0  0  0  0  0  0  0  0  0  0  0  0
   64.1120   31.8034   47.7946 H   0  0  0  0  0  0  0  0  0  0  0  0
   63.4064   31.3354   49.3972 H   0  0  0  0  0  0  0  0  0  0  0  0
   60.5289   31.6332   49.8867 H   0  0  0  0  0  0  0  0  0  0  0  0
   59.3577   29.4354   50.0036 H   0  0  0  0  0  0  0  0  0  0  0  0
   59.0753   28.0541   47.9459 H   0  0  0  0  0  0  0  0  0  0  0  0
   60.3806   24.3283   46.5252 H   0  0  0  0  0  0  0  0  0  0  0  0
   58.2424   23.7298   45.3825 H   0  0  0  0  0  0  0  0  0  0  0  0
   56.8859   25.5188   44.2898 H   0  0  0  0  0  0  0  0  0  0  0  0
   57.3669   27.9883   43.0802 H   0  0  0  0  0  0  0  0  0  0  0  0
   56.4201   28.1456   44.6170 H   0  0  0  0  0  0  0  0  0  0  0  0
   59.0040   29.6680   44.2420 H   0  0  0  0  0  0  0  0  0  0  0  0
   57.6332   32.1208   47.0989 H   0  0  0  0  0  0  0  0  0  0  0  0
   58.7226   34.5477   46.6711 H   0  0  0  0  0  0  0  0  0  0  0  0
   59.0139   34.8207   44.0349 H   0  0  0  0  0  0  0  0  0  0  0  0
   58.4411   31.5544   42.2692 H   0  0  0  0  0  0  0  0  0  0  0  0
   57.2276   32.8573   42.0313 H   0  0  0  0  0  0  0  0  0  0  0  0
   58.9802   33.2512   42.0313 H   0  0  0  0  0  0  0  0  0  0  0  0
   61.1936   31.0466   45.6476 H   0  0  0  0  0  0  0  0  0  0  0  0
   63.5235   35.0505   48.4174 H   0  0  0  0  0  0  0  0  0  0  0  0
   61.8430   34.9975   49.0603 H   0  0  0  0  0  0  0  0  0  0  0  0
   63.7142   35.5201   50.7541 H   0  0  0  0  0  0  0  0  0  0  0  0
   62.5626   34.1804   51.1745 H   0  0  0  0  0  0  0  0  0  0  0  0
  1  2  1  0
  2  3  2  0
  2  4  1  0
  4  5  1  0
  5  6  1  0
  6  7  1  0
  7  8  1  0
  8  9  2  0
  8 10  1  0
 10 11  2  0
 11 12  1  0
 12 13  2  0
 13 14  1  0
 14 15  1  0
 15 16  1  0
 16 17  2  0
 17 18  1  0
 18 19  2  0
 19 20  1  0
 20 21  2  0
 21 22  1  0
 22 23  1  0
 23 24  1  0
 24 25  2  0
 24 26  1  0
 26 27  2  0
 27 28  1  0
 28 29  2  0
 29 30  1  0
 30 31  1  0
 14 32  2  0
  7 33  1  0
 33 34  1  0
 34  4  1  0
 32 10  1  0
 21 16  1  0
 30 26  1  0
  1 35  1  0
  1 36  1  0
  1 37  1  0
  5 38  1  0
  5 39  1  0
  6 40  1  0
  6 41  1  0
 11 42  1  0
 12 43  1  0
 13 44  1  0
 18 45  1  0
 19 46  1  0
 20 47  1  0
 22 48  1  0
 22 49  1  0
 23 50  1  0
 27 51  1  0
 28 52  1  0
 29 53  1  0
 31 54  1  0
 31 55  1  0
 31 56  1  0
 32 57  1  0
 33 58  1  0
 33 59  1  0
 34 60  1  0
 34 61  1  0
M  END
>  <UniqueID>  (45) 
42

>  <SMILES>  (45) 
CC(=O)N1CCN(C(=O)c2cccc(Oc3ncccc3CNC(=O)c3cccn3C)c2)CC1

>  <Energy>  (45) 
101.30955829008825

>  <Genealogy>  (45) 
CC(=O)N1CCN(C(=O)c2cccc(Oc3ncccc3CNC(=O)c3cccn3C)c2)CC1 (3D coordinates assigned)
CC(=O)N1CCN(C(=O)c2cccc(Oc3ncccc3CNC(=O)c3cccn3C)c2)CC1 (nonaromatic ring conformer: 101.30955829008825 kcal/mol)

>  <smiles>  (45) 
CC(=O)N1CCN(C(=O)c2cccc(Oc3ncccc3CNC(=O)c3cccn3C)c2)CC1

>  <score_type>  (45) 
oracle

>  <origin>  (45) 
adg

>  <m_score__min__energy>  (45) 
-8.1799999999999997

>  <m_primary>  (45) 
energy

$$$$
45:0
     RDKit          3D

 51 53  0  0  0  0  0  0  0  0999 V2000
   59.9907   32.9610   50.7334 H   0  0  0  0  0  0  0  0  0  0  0  0
   59.6910   33.2270   49.7090 C   0  0  0  0  0  0  0  0  0  0  0  0
   60.3860   34.2180   49.0120 C   0  0  0  0  0  0  0  0  0  0  0  0
   61.2325   34.7326   49.4902 H   0  0  0  0  0  0  0  0  0  0  0  0
   60.0100   34.5590   47.7080 C   0  0  0  0  0  0  0  0  0  0  0  0
   60.5619   35.3422   47.1676 H   0  0  0  0  0  0  0  0  0  0  0  0
   58.9290   33.9060   47.0820 C   0  0  0  0  0  0  0  0  0  0  0  0
   58.5160   34.2440   45.6920 C   0  0  0  0  0  0  0  0  0  0  0  0
   59.2710   34.9700   44.9840 O   0  0  0  0  0  0  0  0  0  0  0  0
   57.2130   33.7380   45.1120 C   0  0  0  0  0  0  0  0  0  0  0  0
   56.7938   34.5160   44.4570 H   0  0  0  0  0  0  0  0  0  0  0  0
   56.5419   33.5090   45.9530 H   0  0  0  0  0  0  0  0  0  0  0  0
   57.3850   32.4740   44.3100 C   0  0  0  0  0  0  0  0  0  0  0  0
   56.9450   31.3580   44.8250 N   0  0  0  0  0  0  0  0  0  0  0  0
   57.6960   30.1610   45.0700 C   0  0  0  0  0  0  0  0  0  0  0  0
   57.5040   29.0080   44.2930 C   0  0  0  0  0  0  0  0  0  0  0  0
   56.7776   29.0183   43.4670 H   0  0  0  0  0  0  0  0  0  0  0  0
   58.2320   27.8480   44.5650 C   0  0  0  0  0  0  0  0  0  0  0  0
   58.0961   26.9550   43.9373 H   0  0  0  0  0  0  0  0  0  0  0  0
   59.1330   27.8190   45.6330 C   0  0  0  0  0  0  0  0  0  0  0  0
   59.7186   26.9091   45.8309 H   0  0  0  0  0  0  0  0  0  0  0  0
   59.2940   28.9470   46.4550 C   0  0  0  0  0  0  0  0  0  0  0  0
   60.2430   28.9270   47.5920 C   0  0  0  0  0  0  0  0  0  0  0  0
   60.4720   27.8320   48.1740 O   0  0  0  0  0  0  0  0  0  0  0  0
   60.9170   30.1200   48.0400 N   0  0  0  0  0  0  0  0  0  0  0  0
   61.2870   31.1900   47.1070 C   0  0  0  0  0  0  0  0  0  0  0  0
   61.3083   30.7916   46.0819 H   0  0  0  0  0  0  0  0  0  0  0  0
   60.5482   32.0026   47.1692 H   0  0  0  0  0  0  0  0  0  0  0  0
   62.6740   31.7310   47.4740 C   0  0  0  0  0  0  0  0  0  0  0  0
   63.4274   30.9537   47.2786 H   0  0  0  0  0  0  0  0  0  0  0  0
   62.8767   32.6234   46.8637 H   0  0  0  0  0  0  0  0  0  0  0  0
   62.7270   32.0950   48.8400 O   0  0  0  0  0  0  0  0  0  0  0  0
   62.5650   30.9470   49.6510 C   0  0  0  0  0  0  0  0  0  0  0  0
   63.3214   30.1988   49.3716 H   0  0  0  0  0  0  0  0  0  0  0  0
   62.6861   31.2403   50.7042 H   0  0  0  0  0  0  0  0  0  0  0  0
   61.1690   30.3420   49.4680 C   0  0  0  0  0  0  0  0  0  0  0  0
   61.1115   29.3832   50.0041 H   0  0  0  0  0  0  0  0  0  0  0  0
   60.4137   31.0327   49.8711 H   0  0  0  0  0  0  0  0  0  0  0  0
   58.5730   30.1180   46.1620 C   0  0  0  0  0  0  0  0  0  0  0  0
   58.6985   31.0083   46.7957 H   0  0  0  0  0  0  0  0  0  0  0  0
   58.1570   32.5290   43.0070 C   0  0  0  0  0  0  0  0  0  0  0  0
   59.1030   31.9813   43.1300 H   0  0  0  0  0  0  0  0  0  0  0  0
   58.3415   33.5855   42.7626 H   0  0  0  0  0  0  0  0  0  0  0  0
   57.3700   31.9050   41.8560 C   0  0  0  0  0  0  0  0  0  0  0  0
   56.5688   31.2697   42.2616 H   0  0  0  0  0  0  0  0  0  0  0  0
   56.9292   32.7017   41.2388 H   0  0  0  0  0  0  0  0  0  0  0  0
   58.0453   31.2942   41.2388 H   0  0  0  0  0  0  0  0  0  0  0  0
   58.2350   32.9100   47.8000 C   0  0  0  0  0  0  0  0  0  0  0  0
   57.3861   32.3916   47.3303 H   0  0  0  0  0  0  0  0  0  0  0  0
   58.6160   32.5750   49.1040 C   0  0  0  0  0  0  0  0  0  0  0  0
   58.0669   31.7960   49.6533 H   0  0  0  0  0  0  0  0  0  0  0  0
  1  2  1  0
  2  3  2  0
  3  4  1  0
  3  5  1  0
  5  6  1  0
  5  7  2  0
  7  8  1  0
  8  9  2  0
  8 10  1  0
 10 11  1  0
 10 12  1  0
 10 13  1  0
 13 14  2  0
 14 15  1  0
 15 16  2  0
 16 17  1  0
 16 18  1  0
 18 19  1  0
 18 20  2  0
 20 21  1  0
 20 22  1  0
 22 23  1  0
 23 24  2  0
 23 25  1  0
 25 26  1  0
 26 27  1  0
 26 28  1  0
 26 29  1  0
 29 30  1  0
 29 31  1  0
 29 32  1  0
 32 33  1  0
 33 34  1  0
 33 35  1  0
 33 36  1  0
 36 37  1  0
 36 38  1  0
 22 39  2  0
 39 40  1  0
 13 41  1  0
 41 42  1  0
 41 43  1  0
 41 44  1  0
 44 45  1  0
 44 46  1  0
 44 47  1  0
  7 48  1  0
 48 49  1  0
 48 50  2  0
 50 51  1  0
 50  2  1  0
 39 15  1  0
 36 25  1  0
M  END
>  <UniqueID>  (46) 
43

>  <SMILES>  (46) 
CC/C(CC(=O)c1ccccc1)=N\c1cccc(C(=O)N2CCOCC2)c1

>  <Energy>  (46) 
65.64127840482702

>  <Genealogy>  (46) 
CC/C(CC(=O)c1ccccc1)=N\c1cccc(C(=O)N2CCOCC2)c1 (cis-trans isomerization)
CC/C(CC(=O)c1ccccc1)=N\c1cccc(C(=O)N2CCOCC2)c1 (3D coordinates assigned)
CC/C(CC(=O)c1ccccc1)=N\c1cccc(C(=O)N2CCOCC2)c1 (nonaromatic ring conformer: 65.64127840482702 kcal/mol)

>  <smiles>  (46) 
CCC(CC(=O)c1ccccc1)=Nc1cccc(C(=O)N2CCOCC2)c1

>  <score_type>  (46) 
oracle

>  <origin>  (46) 
adg

>  <m_score__min__energy>  (46) 
-9.6899999999999995

>  <m_primary>  (46) 
energy

$$$$
46:0
     RDKit          3D

 50 52  0  0  0  0  0  0  0  0999 V2000
   57.4030   32.2490   43.2590 O   0  0  0  0  0  0  0  0  0  0  0  0
   57.4090   32.1880   44.5180 C   0  0  0  0  0  0  0  0  0  0  0  0
   57.1120   30.9570   45.1900 N   0  0  0  0  0  0  0  0  0  0  0  0
   57.7410   29.6840   44.9680 C   0  0  0  0  0  0  0  0  0  0  0  0
   57.1850   28.7410   44.0840 C   0  0  0  0  0  0  0  0  0  0  0  0
   57.8090   27.5090   43.8790 C   0  0  0  0  0  0  0  0  0  0  0  0
   58.9830   27.1960   44.5630 C   0  0  0  0  0  0  0  0  0  0  0  0
   59.5320   28.1110   45.4630 C   0  0  0  0  0  0  0  0  0  0  0  0
   58.9200   29.3580   45.6750 C   0  0  0  0  0  0  0  0  0  0  0  0
   59.5140   30.3020   46.6510 C   0  0  0  0  0  0  0  0  0  0  0  0
   60.0960   31.3350   46.2220 O   0  0  0  0  0  0  0  0  0  0  0  0
   59.4350   30.0670   48.0720 N   0  0  0  0  0  0  0  0  0  0  0  0
   59.2860   28.7120   48.6140 C   0  0  0  0  0  0  0  0  0  0  0  0
   60.0400   28.6010   49.9430 C   0  0  0  0  0  0  0  0  0  0  0  0
   59.6520   29.6350   50.8280 O   0  0  0  0  0  0  0  0  0  0  0  0
   60.0510   30.8870   50.3020 C   0  0  0  0  0  0  0  0  0  0  0  0
   59.3030   31.1960   49.0010 C   0  0  0  0  0  0  0  0  0  0  0  0
   57.7760   33.3730   45.3080 C   0  0  0  0  0  0  0  0  0  0  0  0
   57.6190   34.5200   44.8090 O   0  0  0  0  0  0  0  0  0  0  0  0
   58.3030   33.2330   46.6370 N   0  0  0  0  0  0  0  0  0  0  0  0
   58.7080   34.3810   47.4460 C   0  0  0  0  0  0  0  0  0  0  0  0
   60.0300   34.9580   46.9330 C   0  0  0  0  0  0  0  0  0  0  0  0
   61.1960   34.1790   47.4810 C   0  0  0  0  0  0  0  0  0  0  0  0
   62.1410   33.6110   46.6110 C   0  0  0  0  0  0  0  0  0  0  0  0
   63.2050   32.8610   47.1220 C   0  0  0  0  0  0  0  0  0  0  0  0
   63.3260   32.6630   48.5000 C   0  0  0  0  0  0  0  0  0  0  0  0
   62.3810   33.2140   49.3710 C   0  0  0  0  0  0  0  0  0  0  0  0
   61.3150   33.9650   48.8640 C   0  0  0  0  0  0  0  0  0  0  0  0
   56.2521   28.9761   43.5507 H   0  0  0  0  0  0  0  0  0  0  0  0
   57.3734   26.7835   43.1762 H   0  0  0  0  0  0  0  0  0  0  0  0
   59.4767   26.2278   44.3934 H   0  0  0  0  0  0  0  0  0  0  0  0
   60.4508   27.8539   46.0105 H   0  0  0  0  0  0  0  0  0  0  0  0
   58.2195   28.4999   48.7800 H   0  0  0  0  0  0  0  0  0  0  0  0
   59.7003   27.9862   47.8987 H   0  0  0  0  0  0  0  0  0  0  0  0
   59.8160   27.6280   50.4047 H   0  0  0  0  0  0  0  0  0  0  0  0
   61.1183   28.6916   49.7456 H   0  0  0  0  0  0  0  0  0  0  0  0
   59.8321   31.6737   51.0390 H   0  0  0  0  0  0  0  0  0  0  0  0
   61.1293   30.8510   50.0878 H   0  0  0  0  0  0  0  0  0  0  0  0
   58.2388   31.3642   49.2226 H   0  0  0  0  0  0  0  0  0  0  0  0
   59.7324   32.0979   48.5403 H   0  0  0  0  0  0  0  0  0  0  0  0
   58.3550   32.2840   47.0720 H   0  0  0  0  0  0  0  0  0  0  0  0
   57.9291   35.1558   47.3908 H   0  0  0  0  0  0  0  0  0  0  0  0
   58.8429   34.0529   48.4872 H   0  0  0  0  0  0  0  0  0  0  0  0
   60.0449   34.9063   45.8343 H   0  0  0  0  0  0  0  0  0  0  0  0
   60.1138   36.0031   47.2658 H   0  0  0  0  0  0  0  0  0  0  0  0
   62.0440   33.7564   45.5250 H   0  0  0  0  0  0  0  0  0  0  0  0
   63.9483   32.4260   46.4377 H   0  0  0  0  0  0  0  0  0  0  0  0
   64.1646   32.0737   48.8995 H   0  0  0  0  0  0  0  0  0  0  0  0
   62.4758   33.0569   50.4556 H   0  0  0  0  0  0  0  0  0  0  0  0
   60.5677   34.3892   49.5507 H   0  0  0  0  0  0  0  0  0  0  0  0
  1  2  2  0
  2  3  1  0
  3  4  1  0
  4  5  2  0
  5  6  1  0
  6  7  2  0
  7  8  1  0
  8  9  2  0
  9 10  1  0
 10 11  2  0
 10 12  1  0
 12 13  1  0
 13 14  1  0
 14 15  1  0
 15 16  1  0
 16 17  1  0
  2 18  1  0
 18 19  2  0
 18 20  1  0
 20 21  1  0
 21 22  1  0
 22 23  1  0
 23 24  2  0
 24 25  1  0
 25 26  2  0
 26 27  1  0
 27 28  2  0
  9  4  1  0
 17 12  1  0
 28 23  1  0
  5 29  1  0
  6 30  1  0
  7 31  1  0
  8 32  1  0
 13 33  1  0
 13 34  1  0
 14 35  1  0
 14 36  1  0
 16 37  1  0
 16 38  1  0
 17 39  1  0
 17 40  1  0
 20 41  1  0
 21 42  1  0
 21 43  1  0
 22 44  1  0
 22 45  1  0
 24 46  1  0
 25 47  1  0
 26 48  1  0
 27 49  1  0
 28 50  1  0
M  CHG  1   3  -1
M  END
>  <UniqueID>  (47) 
44

>  <SMILES>  (47) 
O=C([N-]c1ccccc1C(=O)N1CCOCC1)C(=O)NCCc1ccccc1

>  <Energy>  (47) 
56.9823085381339

>  <Genealogy>  (47) 
O=C([N-]c1ccccc1C(=O)N1CCOCC1)C(=O)NCCc1ccccc1 (protonated)
O=C([N-]c1ccccc1C(=O)N1CCOCC1)C(=O)NCCc1ccccc1 (3D coordinates assigned)
O=C([N-]c1ccccc1C(=O)N1CCOCC1)C(=O)NCCc1ccccc1 (nonaromatic ring conformer: 56.9823085381339 kcal/mol)

>  <smiles>  (47) 
O=C(NCCc1ccccc1)C(=O)Nc1ccccc1C(=O)N1CCOCC1

>  <score_type>  (47) 
oracle

>  <origin>  (47) 
adg

>  <m_score__min__energy>  (47) 
-10.619999999999999

>  <m_primary>  (47) 
energy

$$$$
47:0
     RDKit          3D

 55 59  0  0  0  0  0  0  0  0999 V2000
   60.4040   29.4250   49.4700 O   0  0  0  0  0  0  0  0  0  0  0  0
   60.5710   29.5840   48.2320 C   0  0  0  0  0  0  0  0  0  0  0  0
   60.7160   30.9010   47.6790 N   0  0  0  0  0  0  0  0  0  0  0  0
   61.7360   31.8670   47.9740 C   0  0  0  0  0  0  0  0  0  0  0  0
   62.8770   31.9950   47.1590 C   0  0  0  0  0  0  0  0  0  0  0  0
   63.8190   32.9930   47.4140 C   0  0  0  0  0  0  0  0  0  0  0  0
   63.6280   33.8850   48.4690 C   0  0  0  0  0  0  0  0  0  0  0  0
   62.4950   33.7790   49.2770 C   0  0  0  0  0  0  0  0  0  0  0  0
   61.5400   32.7750   49.0410 C   0  0  0  0  0  0  0  0  0  0  0  0
   60.3490   32.6870   49.9230 C   0  0  0  0  0  0  0  0  0  0  0  0
   60.2590   33.4780   51.0830 C   0  0  0  0  0  0  0  0  0  0  0  0
   59.1320   33.3780   51.8990 C   0  0  0  0  0  0  0  0  0  0  0  0
   58.0990   32.5080   51.5520 C   0  0  0  0  0  0  0  0  0  0  0  0
   58.2080   31.7490   50.3850 C   0  0  0  0  0  0  0  0  0  0  0  0
   59.3150   31.8530   49.6000 N   0  0  0  0  0  0  0  0  0  0  0  0
   60.5900   28.3720   47.3300 C   0  0  1  0  0  0  0  0  0  0  0  0
   60.1490   27.0710   47.9960 C   0  0  0  0  0  0  0  0  0  0  0  0
   59.6520   26.2140   46.8450 C   0  0  0  0  0  0  0  0  0  0  0  0
   59.6330   27.1310   45.6230 C   0  0  0  0  0  0  0  0  0  0  0  0
   59.8130   28.5150   46.0840 N   0  0  0  0  0  0  0  0  0  0  0  0
   58.2430   29.2770   46.3040 S   0  0  0  0  0  0  0  0  0  0  0  0
   57.1420   28.2720   46.0970 O   0  0  0  0  0  0  0  0  0  0  0  0
   58.1270   29.8490   47.6890 O   0  0  0  0  0  0  0  0  0  0  0  0
   58.0630   30.6130   45.1600 C   0  0  0  0  0  0  0  0  0  0  0  0
   57.7510   30.3530   43.8170 C   0  0  0  0  0  0  0  0  0  0  0  0
   57.6180   31.4020   42.9030 C   0  0  0  0  0  0  0  0  0  0  0  0
   57.7970   32.7240   43.3170 C   0  0  0  0  0  0  0  0  0  0  0  0
   58.1070   33.0030   44.6540 C   0  0  0  0  0  0  0  0  0  0  0  0
   58.2930   34.3220   45.0920 C   0  0  0  0  0  0  0  0  0  0  0  0
   58.6010   34.5710   46.4310 C   0  0  0  0  0  0  0  0  0  0  0  0
   58.7200   33.5010   47.3190 C   0  0  0  0  0  0  0  0  0  0  0  0
   58.5400   32.2270   46.8830 N   0  0  0  0  0  0  0  0  0  0  0  0
   58.2390   31.9450   45.5830 C   0  0  0  0  0  0  0  0  0  0  0  0
   63.0270   31.3043   46.3161 H   0  0  0  0  0  0  0  0  0  0  0  0
   64.7147   33.0762   46.7809 H   0  0  0  0  0  0  0  0  0  0  0  0
   64.3708   34.6725   48.6643 H   0  0  0  0  0  0  0  0  0  0  0  0
   62.3481   34.4873   50.1057 H   0  0  0  0  0  0  0  0  0  0  0  0
   61.0722   34.1709   51.3449 H   0  0  0  0  0  0  0  0  0  0  0  0
   59.0584   33.9840   52.8140 H   0  0  0  0  0  0  0  0  0  0  0  0
   57.2077   32.4205   52.1908 H   0  0  0  0  0  0  0  0  0  0  0  0
   57.3960   31.0643   50.0990 H   0  0  0  0  0  0  0  0  0  0  0  0
   59.3700   31.2600   48.7400 H   0  0  0  0  0  0  0  0  0  0  0  0
   61.6609   28.3114   47.0860 H   0  0  0  0  0  0  0  0  0  0  0  0
   60.9952   26.5872   48.5058 H   0  0  0  0  0  0  0  0  0  0  0  0
   59.3794   27.2310   48.7655 H   0  0  0  0  0  0  0  0  0  0  0  0
   60.3320   25.3658   46.6772 H   0  0  0  0  0  0  0  0  0  0  0  0
   58.6566   25.7943   47.0524 H   0  0  0  0  0  0  0  0  0  0  0  0
   60.4500   26.8571   44.9393 H   0  0  0  0  0  0  0  0  0  0  0  0
   58.6774   27.0303   45.0875 H   0  0  0  0  0  0  0  0  0  0  0  0
   57.6099   29.3152   43.4807 H   0  0  0  0  0  0  0  0  0  0  0  0
   57.3713   31.1856   41.8531 H   0  0  0  0  0  0  0  0  0  0  0  0
   57.6945   33.5458   42.5930 H   0  0  0  0  0  0  0  0  0  0  0  0
   58.1966   35.1577   44.3832 H   0  0  0  0  0  0  0  0  0  0  0  0
   58.7487   35.6026   46.7832 H   0  0  0  0  0  0  0  0  0  0  0  0
   58.9604   33.6898   48.3757 H   0  0  0  0  0  0  0  0  0  0  0  0
  1  2  2  0
  2  3  1  0
  3  4  1  0
  4  5  2  0
  5  6  1  0
  6  7  2  0
  7  8  1  0
  8  9  2  0
  9 10  1  0
 10 11  2  0
 11 12  1  0
 12 13  2  0
 13 14  1  0
 14 15  2  0
  2 16  1  0
 16 17  1  0
 17 18  1  0
 18 19  1  0
 19 20  1  0
 20 21  1  0
 21 22  2  0
 21 23  2  0
 21 24  1  0
 24 25  2  0
 25 26  1  0
 26 27  2  0
 27 28  1  0
 28 29  2  0
 29 30  1  0
 30 31  2  0
 31 32  1  0
 32 33  2  0
  9  4  1  0
 15 10  1  0
 20 16  1  0
 33 24  1  0
 33 28  1  0
  5 34  1  0
  6 35  1  0
  7 36  1  0
  8 37  1  0
 11 38  1  0
 12 39  1  0
 13 40  1  0
 14 41  1  0
 15 42  1  0
 16 43  1  6
 17 44  1  0
 17 45  1  0
 18 46  1  0
 18 47  1  0
 19 48  1  0
 19 49  1  0
 25 50  1  0
 26 51  1  0
 27 52  1  0
 29 53  1  0
 30 54  1  0
 31 55  1  0
M  CHG  2   3  -1  15   1
M  END
>  <UniqueID>  (48) 
45

>  <SMILES>  (48) 
O=C([N-]c1ccccc1-c1cccc[nH+]1)[C@H]1CCCN1S(=O)(=O)c1cccc2cccnc12

>  <Energy>  (48) 
80.55766784056351

>  <Genealogy>  (48) 
O=C([N-]c1ccccc1-c1cccc[nH+]1)C1CCCN1S(=O)(=O)c1cccc2cccnc12 (protonated)
O=C([N-]c1ccccc1-c1cccc[nH+]1)[C@H]1CCCN1S(=O)(=O)c1cccc2cccnc12 (chirality)
O=C([N-]c1ccccc1-c1cccc[nH+]1)[C@H]1CCCN1S(=O)(=O)c1cccc2cccnc12 (3D coordinates assigned)
O=C([N-]c1ccccc1-c1cccc[nH+]1)[C@H]1CCCN1S(=O)(=O)c1cccc2cccnc12 (nonaromatic ring conformer: 80.55766784056351 kcal/mol)

>  <smiles>  (48) 
O=C(Nc1ccccc1-c1ccccn1)C1CCCN1S(=O)(=O)c1cccc2cccnc12

>  <score_type>  (48) 
oracle

>  <origin>  (48) 
adg

>  <m_score__min__energy>  (48) 
-8.7300000000000004

>  <m_primary>  (48) 
energy

$$$$
48:0
     RDKit          3D

 50 53  0  0  0  0  0  0  0  0999 V2000
   57.5120   22.0500   47.1190 N   0  0  0  0  0  0  0  0  0  0  0  0
   58.0970   22.7860   45.6680 S   0  0  0  0  0  0  0  0  0  0  0  0
   59.5950   22.6660   45.6170 O   0  0  0  0  0  0  0  0  0  0  0  0
   57.5150   22.0820   44.4760 O   0  0  0  0  0  0  0  0  0  0  0  0
   57.6250   24.4810   45.6400 C   0  0  0  0  0  0  0  0  0  0  0  0
   56.3180   24.8560   46.0340 C   0  0  0  0  0  0  0  0  0  0  0  0
   55.9280   26.2060   46.0330 C   0  0  0  0  0  0  0  0  0  0  0  0
   56.8690   27.1540   45.6350 C   0  0  0  0  0  0  0  0  0  0  0  0
   56.7780   28.5250   45.5470 C   0  0  0  0  0  0  0  0  0  0  0  0
   58.0290   28.9410   45.0950 C   0  0  0  0  0  0  0  0  0  0  0  0
   58.4200   30.3480   44.8820 C   0  0  0  0  0  0  0  0  0  0  0  0
   58.8110   30.7030   43.7360 O   0  0  0  0  0  0  0  0  0  0  0  0
   58.3600   31.3200   45.9430 N   0  0  0  0  0  0  0  0  0  0  0  0
   58.7210   30.9560   47.3220 C   0  0  0  0  0  0  0  0  0  0  0  0
   59.6030   32.0480   47.9290 C   0  0  0  0  0  0  0  0  0  0  0  0
   58.8930   33.4300   47.9470 C   0  0  0  0  0  0  0  0  0  0  0  0
   59.9130   34.5860   47.8320 C   0  0  0  0  0  0  0  0  0  0  0  0
   61.3360   34.0910   47.8930 C   0  0  0  0  0  0  0  0  0  0  0  0
   62.0400   33.8180   46.7070 C   0  0  0  0  0  0  0  0  0  0  0  0
   63.3680   33.3840   46.7600 C   0  0  0  0  0  0  0  0  0  0  0  0
   64.0030   33.2220   47.9940 C   0  0  0  0  0  0  0  0  0  0  0  0
   63.3120   33.4940   49.1780 C   0  0  0  0  0  0  0  0  0  0  0  0
   61.9830   33.9290   49.1290 C   0  0  0  0  0  0  0  0  0  0  0  0
   57.7920   33.5510   46.8600 C   0  0  0  0  0  0  0  0  0  0  0  0
   58.1100   32.7290   45.6030 C   0  0  0  0  0  0  0  0  0  0  0  0
   58.8590   27.8810   44.9260 N   0  0  0  0  0  0  0  0  0  0  0  0
   58.1360   26.7990   45.2540 C   0  0  0  0  0  0  0  0  0  0  0  0
   58.5540   25.4690   45.2490 C   0  0  0  0  0  0  0  0  0  0  0  0
   57.3890   22.8140   47.8200 H   0  0  0  0  0  0  0  0  0  0  0  0
   55.6001   24.0824   46.3442 H   0  0  0  0  0  0  0  0  0  0  0  0
   54.9137   26.5047   46.3363 H   0  0  0  0  0  0  0  0  0  0  0  0
   55.9074   29.1549   45.7822 H   0  0  0  0  0  0  0  0  0  0  0  0
   57.8062   30.8485   47.9233 H   0  0  0  0  0  0  0  0  0  0  0  0
   59.2723   30.0042   47.3152 H   0  0  0  0  0  0  0  0  0  0  0  0
   59.8565   31.7660   48.9616 H   0  0  0  0  0  0  0  0  0  0  0  0
   60.5057   32.1390   47.3070 H   0  0  0  0  0  0  0  0  0  0  0  0
   58.3884   33.5089   48.9213 H   0  0  0  0  0  0  0  0  0  0  0  0
   59.7575   35.1030   46.8736 H   0  0  0  0  0  0  0  0  0  0  0  0
   59.7530   35.2665   48.6813 H   0  0  0  0  0  0  0  0  0  0  0  0
   61.5440   33.9464   45.7336 H   0  0  0  0  0  0  0  0  0  0  0  0
   63.9135   33.1698   45.8291 H   0  0  0  0  0  0  0  0  0  0  0  0
   65.0478   32.8801   48.0337 H   0  0  0  0  0  0  0  0  0  0  0  0
   63.8131   33.3660   50.1488 H   0  0  0  0  0  0  0  0  0  0  0  0
   61.4427   34.1450   50.0625 H   0  0  0  0  0  0  0  0  0  0  0  0
   56.8402   33.1958   47.2817 H   0  0  0  0  0  0  0  0  0  0  0  0
   57.7341   34.6080   46.5609 H   0  0  0  0  0  0  0  0  0  0  0  0
   57.2570   32.7860   44.9108 H   0  0  0  0  0  0  0  0  0  0  0  0
   59.0154   33.1420   45.1343 H   0  0  0  0  0  0  0  0  0  0  0  0
   59.8630   27.8950   44.6420 H   0  0  0  0  0  0  0  0  0  0  0  0
   59.5771   25.1978   44.9493 H   0  0  0  0  0  0  0  0  0  0  0  0
  1  2  1  0
  2  3  2  0
  2  4  2  0
  2  5  1  0
  5  6  2  0
  6  7  1  0
  7  8  2  0
  8  9  1  0
  9 10  2  0
 10 11  1  0
 11 12  2  0
 11 13  1  0
 13 14  1  0
 14 15  1  0
 15 16  1  0
 16 17  1  0
 17 18  1  0
 18 19  2  0
 19 20  1  0
 20 21  2  0
 21 22  1  0
 22 23  2  0
 16 24  1  0
 24 25  1  0
 10 26  1  0
 26 27  1  0
 27 28  2  0
 28  5  1  0
 27  8  1  0
 25 13  1  0
 23 18  1  0
  1 29  1  0
  6 30  1  0
  7 31  1  0
  9 32  1  0
 14 33  1  0
 14 34  1  0
 15 35  1  0
 15 36  1  0
 16 37  1  0
 17 38  1  0
 17 39  1  0
 19 40  1  0
 20 41  1  0
 21 42  1  0
 22 43  1  0
 23 44  1  0
 24 45  1  0
 24 46  1  0
 25 47  1  0
 25 48  1  0
 26 49  1  0
 28 50  1  0
M  CHG  1   1  -1
M  END
>  <UniqueID>  (49) 
46

>  <SMILES>  (49) 
[NH-]S(=O)(=O)c1ccc2cc(C(=O)N3CCC(Cc4ccccc4)CC3)[nH]c2c1

>  <Energy>  (49) 
88.6968454629529

>  <Genealogy>  (49) 
[NH-]S(=O)(=O)c1ccc2cc(C(=O)N3CCC(Cc4ccccc4)CC3)[nH]c2c1 (protonated)
[NH-]S(=O)(=O)c1ccc2cc(C(=O)N3CCC(Cc4ccccc4)CC3)[nH]c2c1 (3D coordinates assigned)
[NH-]S(=O)(=O)c1ccc2cc(C(=O)N3CCC(Cc4ccccc4)CC3)[nH]c2c1 (nonaromatic ring conformer: 88.6968454629529 kcal/mol)

>  <smiles>  (49) 
NS(=O)(=O)c1ccc2cc(C(=O)N3CCC(Cc4ccccc4)CC3)[nH]c2c1

>  <score_type>  (49) 
oracle

>  <origin>  (49) 
adg

>  <m_score__min__energy>  (49) 
-11.199999999999999

>  <m_primary>  (49) 
energy

$$$$
49:0
     RDKit          3D

 34 36  0  0  0  0  0  0  0  0999 V2000
   56.0500   29.1050   45.1960 O   0  0  0  0  0  0  0  0  0  0  0  0
   56.9480   29.9220   44.8580 C   0  0  0  0  0  0  0  0  0  0  0  0
   58.3070   29.4170   44.4900 C   0  0  0  0  0  0  0  0  0  0  0  0
   59.3400   29.1950   45.9800 S   0  0  0  0  0  0  0  0  0  0  0  0
   59.2650   27.4050   45.9500 C   0  0  0  0  0  0  0  0  0  0  0  0
   60.4060   26.6750   46.0290 N   0  0  0  0  0  0  0  0  0  0  0  0
   60.3650   25.3190   46.0060 C   0  0  0  0  0  0  0  0  0  0  0  0
   59.1410   24.6590   45.9010 C   0  0  0  0  0  0  0  0  0  0  0  0
   57.9680   25.4240   45.8170 C   0  0  0  0  0  0  0  0  0  0  0  0
   56.6420   24.7700   45.7370 C   0  0  0  0  0  0  0  0  0  0  0  0
   56.4110   23.1100   45.5150 S   0  0  0  0  0  0  0  0  0  0  0  0
   54.7430   23.2240   45.6240 C   0  0  0  0  0  0  0  0  0  0  0  0
   53.9550   22.2460   45.5320 O   0  0  0  0  0  0  0  0  0  0  0  0
   54.3260   24.4890   45.8210 N   0  0  0  0  0  0  0  0  0  0  0  0
   55.3720   25.3570   45.8810 C   0  0  0  0  0  0  0  0  0  0  0  0
   55.1410   26.7220   46.0440 O   0  0  0  0  0  0  0  0  0  0  0  0
   58.0620   26.7800   45.8530 N   0  0  0  0  0  0  0  0  0  0  0  0
   56.7090   31.3330   44.9060 N   0  0  0  0  0  0  0  0  0  0  0  0
   57.7010   32.3370   45.1640 C   0  0  0  0  0  0  0  0  0  0  0  0
   58.1820   33.1860   44.1470 C   0  0  0  0  0  0  0  0  0  0  0  0
   57.7620   33.0480   42.8650 F   0  0  0  0  0  0  0  0  0  0  0  0
   59.1520   34.1500   44.4420 C   0  0  0  0  0  0  0  0  0  0  0  0
   59.6570   34.2650   45.7390 C   0  0  0  0  0  0  0  0  0  0  0  0
   59.2050   33.4060   46.7440 C   0  0  0  0  0  0  0  0  0  0  0  0
   58.2380   32.4390   46.4560 C   0  0  0  0  0  0  0  0  0  0  0  0
   57.8040   31.6140   47.4420 F   0  0  0  0  0  0  0  0  0  0  0  0
   58.2055   28.4508   43.9740 H   0  0  0  0  0  0  0  0  0  0  0  0
   58.7909   30.1531   43.8312 H   0  0  0  0  0  0  0  0  0  0  0  0
   61.2980   24.7398   46.0702 H   0  0  0  0  0  0  0  0  0  0  0  0
   59.0961   23.5600   45.8844 H   0  0  0  0  0  0  0  0  0  0  0  0
   55.8820   27.3900   46.1930 H   0  0  0  0  0  0  0  0  0  0  0  0
   59.5181   34.8196   43.6498 H   0  0  0  0  0  0  0  0  0  0  0  0
   60.4109   35.0322   45.9694 H   0  0  0  0  0  0  0  0  0  0  0  0
   59.6107   33.4909   47.7629 H   0  0  0  0  0  0  0  0  0  0  0  0
  1  2  2  0
  2  3  1  0
  3  4  1  0
  4  5  1  0
  5  6  2  0
  6  7  1  0
  7  8  2  0
  8  9  1  0
  9 10  1  0
 10 11  1  0
 11 12  1  0
 12 13  2  0
 12 14  1  0
 14 15  1  0
 15 16  1  0
  9 17  2  0
  2 18  1  0
 18 19  1  0
 19 20  2  0
 20 21  1  0
 20 22  1  0
 22 23  2  0
 23 24  1  0
 24 25  2  0
 25 26  1  0
 17  5  1  0
 25 19  1  0
 15 10  2  0
  3 27  1  0
  3 28  1  0
  7 29  1  0
  8 30  1  0
 16 31  1  0
 22 32  1  0
 23 33  1  0
 24 34  1  0
M  CHG  2  14  -1  18  -1
M  END
>  <UniqueID>  (50) 
47

>  <SMILES>  (50) 
O=C(CSc1nccc(-c2sc(=O)[n-]c2O)n1)[N-]c1c(F)cccc1F

>  <Energy>  (50) 
70.78206556442768

>  <Genealogy>  (50) 
O=C(CSc1nccc(-c2sc(=O)[n-]c2O)n1)[N-]c1c(F)cccc1F (protonated)
O=C(CSc1nccc(-c2sc(=O)[n-]c2O)n1)[N-]c1c(F)cccc1F (3D coordinates assigned)
O=C(CSc1nccc(-c2sc(=O)[n-]c2O)n1)[N-]c1c(F)cccc1F (optimized conformer: 70.78206556442768 kcal/mol)

>  <smiles>  (50) 
O=C(CSc1nccc(-c2sc(=O)[nH]c2O)n1)Nc1c(F)cccc1F

>  <score_type>  (50) 
oracle

>  <origin>  (50) 
adg

>  <m_score__min__energy>  (50) 
-11.99

>  <m_primary>  (50) 
energy

$$$$
50:0
     RDKit          3D

 59 64  0  0  0  0  0  0  0  0999 V2000
   60.5438   34.8338   45.6363 H   0  0  0  0  0  0  0  0  0  0  0  0
   59.8310   34.1420   46.1090 C   0  0  0  0  0  0  0  0  0  0  0  0
   59.0290   33.3620   45.3360 N   0  0  0  0  0  0  0  0  0  0  0  0
   58.1420   32.4790   45.8730 C   0  0  0  0  0  0  0  0  0  0  0  0
   57.3090   31.7150   44.9870 N   0  0  0  0  0  0  0  0  0  0  0  0
   57.4150   30.4440   44.7260 C   0  0  0  0  0  0  0  0  0  0  0  0
   57.8450   29.6000   45.7110 N   0  0  0  0  0  0  0  0  0  0  0  0
   57.9370   28.2710   45.4560 C   0  0  0  0  0  0  0  0  0  0  0  0
   57.5710   27.7640   44.2350 C   0  0  0  0  0  0  0  0  0  0  0  0
   57.1200   28.6060   43.2290 C   0  0  0  0  0  0  0  0  0  0  0  0
   56.8271   28.2103   42.2453 H   0  0  0  0  0  0  0  0  0  0  0  0
   57.0520   29.9390   43.5000 N   0  0  0  0  0  0  0  0  0  0  0  0
   57.6850   26.4020   44.3270 C   0  0  0  0  0  0  0  0  0  0  0  0
   57.3900   25.3920   43.4140 C   0  0  0  0  0  0  0  0  0  0  0  0
   57.0432   25.6272   42.3969 H   0  0  0  0  0  0  0  0  0  0  0  0
   57.5510   24.0630   43.8380 C   0  0  0  0  0  0  0  0  0  0  0  0
   57.3426   23.2385   43.1403 H   0  0  0  0  0  0  0  0  0  0  0  0
   57.9780   23.7770   45.1520 C   0  0  0  0  0  0  0  0  0  0  0  0
   58.0930   22.7310   45.4724 H   0  0  0  0  0  0  0  0  0  0  0  0
   58.2580   24.8180   46.0560 C   0  0  0  0  0  0  0  0  0  0  0  0
   58.5784   24.5991   47.0853 H   0  0  0  0  0  0  0  0  0  0  0  0
   58.1190   26.1400   45.6140 C   0  0  0  0  0  0  0  0  0  0  0  0
   58.3070   27.2880   46.3260 N   0  0  0  0  0  0  0  0  0  0  0  0
   58.7360   27.3680   47.7400 C   0  0  0  0  0  0  0  0  0  0  0  0
   57.9276   26.8235   48.2499 H   0  0  0  0  0  0  0  0  0  0  0  0
   58.8650   28.7810   48.3070 C   0  0  0  0  0  0  0  0  0  0  0  0
   59.3224   29.4576   47.5701 H   0  0  0  0  0  0  0  0  0  0  0  0
   57.8915   29.2241   48.5640 H   0  0  0  0  0  0  0  0  0  0  0  0
   59.7650   28.6120   49.5140 C   0  0  0  0  0  0  0  0  0  0  0  0
   60.2847   29.5539   49.7438 H   0  0  0  0  0  0  0  0  0  0  0  0
   59.1992   28.3365   50.4162 H   0  0  0  0  0  0  0  0  0  0  0  0
   60.7630   27.5340   49.1130 C   0  0  0  0  0  0  0  0  0  0  0  0
   61.7070   27.9936   48.7850 H   0  0  0  0  0  0  0  0  0  0  0  0
   60.9927   26.8707   49.9599 H   0  0  0  0  0  0  0  0  0  0  0  0
   60.1250   26.7560   47.9590 C   0  0  0  0  0  0  0  0  0  0  0  0
   60.7338   26.8585   47.0486 H   0  0  0  0  0  0  0  0  0  0  0  0
   60.0559   25.6831   48.1914 H   0  0  0  0  0  0  0  0  0  0  0  0
   58.0180   32.3890   47.2700 C   0  0  0  0  0  0  0  0  0  0  0  0
   57.2856   31.7017   47.7185 H   0  0  0  0  0  0  0  0  0  0  0  0
   58.8320   33.1790   48.0840 C   0  0  0  0  0  0  0  0  0  0  0  0
   58.7519   33.1050   49.1786 H   0  0  0  0  0  0  0  0  0  0  0  0
   59.7520   34.0670   47.5070 C   0  0  0  0  0  0  0  0  0  0  0  0
   60.6490   34.9230   48.3650 C   0  0  0  0  0  0  0  0  0  0  0  0
   60.8678   35.8611   47.8339 H   0  0  0  0  0  0  0  0  0  0  0  0
   60.1342   35.1313   49.3145 H   0  0  0  0  0  0  0  0  0  0  0  0
   61.9180   34.2250   48.6580 N   0  0  0  0  0  0  0  0  0  0  0  0
   62.5900   33.7990   47.4040 C   0  0  0  0  0  0  0  0  0  0  0  0
   61.8420   33.3323   46.7462 H   0  0  0  0  0  0  0  0  0  0  0  0
   63.0349   34.6954   46.9472 H   0  0  0  0  0  0  0  0  0  0  0  0
   63.7270   32.7920   47.6460 C   0  0  0  0  0  0  0  0  0  0  0  0
   63.3184   31.7716   47.6046 H   0  0  0  0  0  0  0  0  0  0  0  0
   64.4914   32.9334   46.8677 H   0  0  0  0  0  0  0  0  0  0  0  0
   64.5010   33.0580   49.2740 S   0  0  0  0  0  0  0  0  0  0  0  0
   62.9940   32.6610   50.2450 C   0  0  0  0  0  0  0  0  0  0  0  0
   62.9689   31.5751   50.4185 H   0  0  0  0  0  0  0  0  0  0  0  0
   63.0549   33.2346   51.1816 H   0  0  0  0  0  0  0  0  0  0  0  0
   61.6850   33.0720   49.5510 C   0  0  0  0  0  0  0  0  0  0  0  0
   61.3068   32.2254   48.9592 H   0  0  0  0  0  0  0  0  0  0  0  0
   60.9481   33.3559   50.3167 H   0  0  0  0  0  0  0  0  0  0  0  0
  1  2  1  0
  2  3  2  0
  3  4  1  0
  4  5  1  0
  5  6  2  0
  6  7  1  0
  7  8  2  0
  8  9  1  0
  9 10  2  0
 10 11  1  0
 10 12  1  0
  9 13  1  0
 13 14  2  0
 14 15  1  0
 14 16  1  0
 16 17  1  0
 16 18  2  0
 18 19  1  0
 18 20  1  0
 20 21  1  0
 20 22  2  0
 22 23  1  0
 23 24  1  0
 24 25  1  0
 24 26  1  0
 26 27  1  0
 26 28  1  0
 26 29  1  0
 29 30  1  0
 29 31  1  0
 29 32  1  0
 32 33  1  0
 32 34  1  0
 32 35  1  0
 35 36  1  0
 35 37  1  0
  4 38  2  0
 38 39  1  0
 38 40  1  0
 40 41  1  0
 40 42  2  0
 42 43  1  0
 43 44  1  0
 43 45  1  0
 43 46  1  0
 46 47  1  0
 47 48  1  0
 47 49  1  0
 47 50  1  0
 50 51  1  0
 50 52  1  0
 50 53  1  0
 53 54  1  0
 54 55  1  0
 54 56  1  0
 54 57  1  0
 57 58  1  0
 57 59  1  0
 42  2  1  0
 57 46  1  0
 12  6  1  0
 22 13  1  0
 35 24  1  0
 23  8  1  0
M  CHG  1  12  -1
M  END
>  <UniqueID>  (51) 
48

>  <SMILES>  (51) 
c1ccc2c(c1)c1c[n-]/c(=N\c3ccc(CN4CCSCC4)cn3)nc1n2C1CCCC1

>  <Energy>  (51) 
127.66261815633119

>  <Genealogy>  (51) 
c1ccc2c(c1)c1c[n-]c(=Nc3ccc(CN4CCSCC4)cn3)nc1n2C1CCCC1 (protonated)
c1ccc2c(c1)c1c[n-]/c(=N\c3ccc(CN4CCSCC4)cn3)nc1n2C1CCCC1 (cis-trans isomerization)
c1ccc2c(c1)c1c[n-]/c(=N\c3ccc(CN4CCSCC4)cn3)nc1n2C1CCCC1 (3D coordinates assigned)
c1ccc2c(c1)c1c[n-]/c(=N\c3ccc(CN4CCSCC4)cn3)nc1n2C1CCCC1 (nonaromatic ring conformer: 127.66261815633119 kcal/mol)

>  <smiles>  (51) 
c1ccc2c(c1)c1c[nH]c(=Nc3ccc(CN4CCSCC4)cn3)nc1n2C1CCCC1

>  <score_type>  (51) 
oracle

>  <origin>  (51) 
adg

>  <m_score__min__energy>  (51) 
-10.52

>  <m_primary>  (51) 
energy

$$$$
51:0
     RDKit          3D

 46 48  0  0  0  0  0  0  0  0999 V2000
   57.4400   31.7940   42.9140 O   0  0  0  0  0  0  0  0  0  0  0  0
   56.9200   31.1830   43.8870 C   0  0  0  0  0  0  0  0  0  0  0  0
   55.9590   30.0690   43.6220 C   0  0  0  0  0  0  0  0  0  0  0  0
   55.7250   29.3380   44.8610 N   0  0  0  0  0  0  0  0  0  0  0  0
   56.4090   28.1540   45.3000 C   0  0  0  0  0  0  0  0  0  0  0  0
   55.7120   27.1600   45.6390 O   0  0  0  0  0  0  0  0  0  0  0  0
   57.8810   28.0460   45.3880 C   0  0  0  0  0  0  0  0  0  0  0  0
   58.7730   28.6410   44.5000 C   0  0  0  0  0  0  0  0  0  0  0  0
   60.1200   28.4360   44.8330 C   0  0  0  0  0  0  0  0  0  0  0  0
   60.3010   27.6940   45.9930 C   0  0  0  0  0  0  0  0  0  0  0  0
   58.7860   27.2990   46.5990 S   0  0  0  0  0  0  0  0  0  0  0  0
   57.3080   31.4910   45.2360 N   0  0  0  0  0  0  0  0  0  0  0  0
   58.1460   32.6080   45.5830 C   0  0  0  0  0  0  0  0  0  0  0  0
   58.1570   33.7580   44.7730 C   0  0  0  0  0  0  0  0  0  0  0  0
   58.9170   34.8730   45.1320 C   0  0  0  0  0  0  0  0  0  0  0  0
   59.6720   34.8560   46.3050 C   0  0  0  0  0  0  0  0  0  0  0  0
   59.6660   33.7260   47.1260 C   0  0  0  0  0  0  0  0  0  0  0  0
   58.9000   32.5990   46.7830 C   0  0  0  0  0  0  0  0  0  0  0  0
   58.9540   31.3990   47.6550 C   0  0  0  0  0  0  0  0  0  0  0  0
   58.7770   30.2610   47.1400 O   0  0  0  0  0  0  0  0  0  0  0  0
   59.2400   31.5030   49.0640 N   0  0  0  0  0  0  0  0  0  0  0  0
   58.8930   32.7180   49.8200 C   0  0  0  0  0  0  0  0  0  0  0  0
   58.3330   32.3390   51.1960 C   0  0  0  0  0  0  0  0  0  0  0  0
   59.2790   31.4180   51.9950 C   0  0  0  0  0  0  0  0  0  0  0  0
   60.3720   30.7560   51.1380 C   0  0  0  0  0  0  0  0  0  0  0  0
   59.8450   30.3550   49.7570 C   0  0  0  0  0  0  0  0  0  0  0  0
   55.0087   30.4820   43.2526 H   0  0  0  0  0  0  0  0  0  0  0  0
   56.3772   29.3904   42.8640 H   0  0  0  0  0  0  0  0  0  0  0  0
   58.4517   29.2176   43.6201 H   0  0  0  0  0  0  0  0  0  0  0  0
   60.9545   28.8262   44.2319 H   0  0  0  0  0  0  0  0  0  0  0  0
   61.2677   27.4141   46.4369 H   0  0  0  0  0  0  0  0  0  0  0  0
   57.0080   30.8400   45.9950 H   0  0  0  0  0  0  0  0  0  0  0  0
   57.5615   33.7791   43.8484 H   0  0  0  0  0  0  0  0  0  0  0  0
   58.9204   35.7657   44.4893 H   0  0  0  0  0  0  0  0  0  0  0  0
   60.2731   35.7340   46.5838 H   0  0  0  0  0  0  0  0  0  0  0  0
   60.2656   33.7183   48.0482 H   0  0  0  0  0  0  0  0  0  0  0  0
   59.7942   33.3350   49.9511 H   0  0  0  0  0  0  0  0  0  0  0  0
   58.1307   33.2833   49.2638 H   0  0  0  0  0  0  0  0  0  0  0  0
   58.1686   33.2602   51.7742 H   0  0  0  0  0  0  0  0  0  0  0  0
   57.3958   31.7873   51.0310 H   0  0  0  0  0  0  0  0  0  0  0  0
   59.7674   32.0174   52.7774 H   0  0  0  0  0  0  0  0  0  0  0  0
   58.6619   30.6071   52.4093 H   0  0  0  0  0  0  0  0  0  0  0  0
   61.2029   31.4654   51.0101 H   0  0  0  0  0  0  0  0  0  0  0  0
   60.7072   29.8445   51.6546 H   0  0  0  0  0  0  0  0  0  0  0  0
   60.6795   29.9702   49.1525 H   0  0  0  0  0  0  0  0  0  0  0  0
   59.0733   29.5824   49.8898 H   0  0  0  0  0  0  0  0  0  0  0  0
  1  2  2  0
  2  3  1  0
  3  4  1  0
  4  5  1  0
  5  6  2  0
  5  7  1  0
  7  8  2  0
  8  9  1  0
  9 10  2  0
 10 11  1  0
  2 12  1  0
 12 13  1  0
 13 14  2  0
 14 15  1  0
 15 16  2  0
 16 17  1  0
 17 18  2  0
 18 19  1  0
 19 20  2  0
 19 21  1  0
 21 22  1  0
 22 23  1  0
 23 24  1  0
 24 25  1  0
 25 26  1  0
 11  7  1  0
 18 13  1  0
 26 21  1  0
  3 27  1  0
  3 28  1  0
  8 29  1  0
  9 30  1  0
 10 31  1  0
 12 32  1  0
 14 33  1  0
 15 34  1  0
 16 35  1  0
 17 36  1  0
 22 37  1  0
 22 38  1  0
 23 39  1  0
 23 40  1  0
 24 41  1  0
 24 42  1  0
 25 43  1  0
 25 44  1  0
 26 45  1  0
 26 46  1  0
M  CHG  1   4  -1
M  END
>  <UniqueID>  (52) 
49

>  <SMILES>  (52) 
O=C(C[N-]C(=O)c1cccs1)Nc1ccccc1C(=O)N1CCCCC1

>  <Energy>  (52) 
83.30609640081198

>  <Genealogy>  (52) 
O=C(C[N-]C(=O)c1cccs1)Nc1ccccc1C(=O)N1CCCCC1 (protonated)
O=C(C[N-]C(=O)c1cccs1)Nc1ccccc1C(=O)N1CCCCC1 (3D coordinates assigned)
O=C(C[N-]C(=O)c1cccs1)Nc1ccccc1C(=O)N1CCCCC1 (nonaromatic ring conformer: 83.30609640081198 kcal/mol)

>  <smiles>  (52) 
O=C(CNC(=O)c1cccs1)Nc1ccccc1C(=O)N1CCCCC1

>  <score_type>  (52) 
oracle

>  <origin>  (52) 
adg

>  <m_score__min__energy>  (52) 
-10.19

>  <m_primary>  (52) 
energy

$$$$
52:0
     RDKit          3D

 52 54  0  0  0  0  0  0  0  0999 V2000
   61.1620   33.4310   46.5970 C   0  0  0  0  0  0  0  0  0  0  0  0
   60.0920   34.2370   47.3390 C   0  0  0  0  0  0  0  0  0  0  0  0
   58.9290   34.5800   46.4020 C   0  0  0  0  0  0  0  0  0  0  0  0
   59.6090   33.4730   48.5510 C   0  0  0  0  0  0  0  0  0  0  0  0
   59.8710   33.8470   49.8220 N   0  0  0  0  0  0  0  0  0  0  0  0
   59.2620   33.0100   50.6460 N   0  0  0  0  0  0  0  0  0  0  0  0
   58.5940   32.0930   49.9190 C   0  0  0  0  0  0  0  0  0  0  0  0
   57.7910   31.0260   50.5390 C   0  0  0  0  0  0  0  0  0  0  0  0
   58.2570   29.8560   50.5820 O   0  0  0  0  0  0  0  0  0  0  0  0
   56.4930   31.2990   51.0800 N   0  0  0  0  0  0  0  0  0  0  0  0
   56.0050   30.7270   52.3300 C   0  0  0  0  0  0  0  0  0  0  0  0
   54.5200   30.4960   52.2480 C   0  0  0  0  0  0  0  0  0  0  0  0
   53.9870   29.2450   52.5890 C   0  0  0  0  0  0  0  0  0  0  0  0
   52.6200   28.9990   52.4480 C   0  0  0  0  0  0  0  0  0  0  0  0
   51.7700   30.0040   51.9720 C   0  0  0  0  0  0  0  0  0  0  0  0
   52.2840   31.2700   51.6380 C   0  0  0  0  0  0  0  0  0  0  0  0
   51.3820   32.3330   51.1340 C   0  0  0  0  0  0  0  0  0  0  0  0
   51.0320   32.3560   49.9230 O   0  0  0  0  0  0  0  0  0  0  0  0
   50.9090   33.3210   51.9910 O   0  0  0  0  0  0  0  0  0  0  0  0
   53.6650   31.5060   51.7750 C   0  0  0  0  0  0  0  0  0  0  0  0
   58.7790   32.3600   48.5660 C   0  0  0  0  0  0  0  0  0  0  0  0
   58.1450   31.6690   47.3800 C   0  0  0  0  0  0  0  0  0  0  0  0
   58.7470   30.3100   47.0450 C   0  0  0  0  0  0  0  0  0  0  0  0
   59.7380   29.7370   47.8770 C   0  0  0  0  0  0  0  0  0  0  0  0
   60.2690   28.4790   47.5960 C   0  0  0  0  0  0  0  0  0  0  0  0
   59.8090   27.7530   46.5010 C   0  0  0  0  0  0  0  0  0  0  0  0
   58.8050   28.2790   45.6880 C   0  0  0  0  0  0  0  0  0  0  0  0
   58.2580   29.5470   45.9490 C   0  0  0  0  0  0  0  0  0  0  0  0
   56.9750   30.1480   44.8780 S   0  0  0  0  0  0  0  0  0  0  0  0
   55.4980   29.3170   45.2340 N   0  0  0  0  0  0  0  0  0  0  0  0
   56.7640   31.6220   45.0870 O   0  0  0  0  0  0  0  0  0  0  0  0
   57.3550   29.9200   43.4420 O   0  0  0  0  0  0  0  0  0  0  0  0
   61.8196   32.9357   47.3266 H   0  0  0  0  0  0  0  0  0  0  0  0
   60.6771   32.6718   45.9657 H   0  0  0  0  0  0  0  0  0  0  0  0
   61.7579   34.1066   45.9657 H   0  0  0  0  0  0  0  0  0  0  0  0
   60.5364   35.1824   47.6835 H   0  0  0  0  0  0  0  0  0  0  0  0
   58.0425   34.8415   46.9984 H   0  0  0  0  0  0  0  0  0  0  0  0
   59.2089   35.4338   45.7675 H   0  0  0  0  0  0  0  0  0  0  0  0
   58.7008   33.7109   45.7675 H   0  0  0  0  0  0  0  0  0  0  0  0
   56.5127   29.7687   52.5143 H   0  0  0  0  0  0  0  0  0  0  0  0
   56.2157   31.4264   53.1525 H   0  0  0  0  0  0  0  0  0  0  0  0
   54.6491   28.4533   52.9695 H   0  0  0  0  0  0  0  0  0  0  0  0
   52.2099   28.0129   52.7116 H   0  0  0  0  0  0  0  0  0  0  0  0
   50.6945   29.8027   51.8585 H   0  0  0  0  0  0  0  0  0  0  0  0
   54.0787   32.4900   51.5094 H   0  0  0  0  0  0  0  0  0  0  0  0
   57.0758   31.5274   47.5960 H   0  0  0  0  0  0  0  0  0  0  0  0
   58.3256   32.3149   46.5081 H   0  0  0  0  0  0  0  0  0  0  0  0
   60.0942   30.2918   48.7575 H   0  0  0  0  0  0  0  0  0  0  0  0
   61.0541   28.0587   48.2417 H   0  0  0  0  0  0  0  0  0  0  0  0
   60.2371   26.7648   46.2769 H   0  0  0  0  0  0  0  0  0  0  0  0
   58.4369   27.6942   44.8321 H   0  0  0  0  0  0  0  0  0  0  0  0
   55.5830   28.3480   44.8490 H   0  0  0  0  0  0  0  0  0  0  0  0
  1  2  1  0
  2  3  1  0
  2  4  1  0
  4  5  1  0
  5  6  1  0
  6  7  2  0
  7  8  1  0
  8  9  2  0
  8 10  1  0
 10 11  1  0
 11 12  1  0
 12 13  2  0
 13 14  1  0
 14 15  2  0
 15 16  1  0
 16 17  1  0
 17 18  2  0
 17 19  1  0
 16 20  2  0
  7 21  1  0
 21 22  1  0
 22 23  1  0
 23 24  2  0
 24 25  1  0
 25 26  2  0
 26 27  1  0
 27 28  2  0
 28 29  1  0
 29 30  1  0
 29 31  2  0
 29 32  2  0
 21  4  2  0
 28 23  1  0
 20 12  1  0
  1 33  1  0
  1 34  1  0
  1 35  1  0
  2 36  1  0
  3 37  1  0
  3 38  1  0
  3 39  1  0
 11 40  1  0
 11 41  1  0
 13 42  1  0
 14 43  1  0
 15 44  1  0
 20 45  1  0
 22 46  1  0
 22 47  1  0
 24 48  1  0
 25 49  1  0
 26 50  1  0
 27 51  1  0
 30 52  1  0
M  CHG  4   5  -1  10  -1  19  -1  30  -1
M  END
>  <UniqueID>  (53) 
50

>  <SMILES>  (53) 
CC(C)c1[n-]nc(C(=O)[N-]Cc2cccc(C(=O)[O-])c2)c1Cc1ccccc1S([NH-])(=O)=O

>  <Energy>  (53) 
77.05700625863338

>  <Genealogy>  (53) 
CC(C)c1[n-]nc(C(=O)[N-]Cc2cccc(C(=O)[O-])c2)c1Cc1ccccc1S([NH-])(=O)=O (protonated)
CC(C)c1[n-]nc(C(=O)[N-]Cc2cccc(C(=O)[O-])c2)c1Cc1ccccc1S([NH-])(=O)=O (3D coordinates assigned)
CC(C)c1[n-]nc(C(=O)[N-]Cc2cccc(C(=O)[O-])c2)c1Cc1ccccc1S([NH-])(=O)=O (optimized conformer: 77.05700625863338 kcal/mol)

>  <smiles>  (53) 
CC(C)c1[nH]nc(C(=O)NCc2cccc(C(=O)O)c2)c1Cc1ccccc1S(N)(=O)=O

>  <score_type>  (53) 
oracle

>  <origin>  (53) 
adg

>  <m_score__min__energy>  (53) 
-17.940000000000001

>  <m_primary>  (53) 
energy

$$$$
53:0
     RDKit          3D

 71 76  0  0  0  0  0  0  0  0999 V2000
   66.7460   30.8370   51.0090 C   0  0  0  0  0  0  0  0  0  0  0  0
   66.3950   31.9500   50.1970 O   0  0  0  0  0  0  0  0  0  0  0  0
   65.3200   32.8140   50.4580 C   0  0  0  0  0  0  0  0  0  0  0  0
   65.4230   33.6960   51.5400 C   0  0  0  0  0  0  0  0  0  0  0  0
   64.3870   34.5850   51.8330 C   0  0  0  0  0  0  0  0  0  0  0  0
   63.2320   34.5980   51.0470 C   0  0  0  0  0  0  0  0  0  0  0  0
   63.1090   33.7210   49.9580 C   0  0  0  0  0  0  0  0  0  0  0  0
   61.8520   33.7120   49.1250 C   0  0  0  0  0  0  0  0  0  0  0  0
   62.1420   33.8740   47.6800 N   0  0  0  0  0  0  0  0  0  0  0  0
   62.8370   32.7140   47.0760 C   0  0  0  0  0  0  0  0  0  0  0  0
   61.9740   31.4450   47.1230 C   0  0  0  0  0  0  0  0  0  0  0  0
   60.5510   31.7750   46.9720 N   0  0  0  0  0  0  0  0  0  0  0  0
   59.5360   30.9300   47.5520 C   0  0  0  0  0  0  0  0  0  0  0  0
   58.3780   31.3830   47.7680 O   0  0  0  0  0  0  0  0  0  0  0  0
   59.8310   29.5380   47.9430 C   0  0  0  0  0  0  0  0  0  0  0  0
   59.7610   28.5320   46.9680 C   0  0  0  0  0  0  0  0  0  0  0  0
   59.9980   27.2000   47.3090 C   0  0  0  0  0  0  0  0  0  0  0  0
   60.3120   26.8610   48.6270 C   0  0  0  0  0  0  0  0  0  0  0  0
   60.3960   27.8550   49.6050 C   0  0  0  0  0  0  0  0  0  0  0  0
   60.1660   29.2000   49.2750 C   0  0  0  0  0  0  0  0  0  0  0  0
   60.3190   30.2150   50.2930 N   0  0  0  0  0  0  0  0  0  0  0  0
   61.5730   30.5820   50.7090 C   0  0  0  0  0  0  0  0  0  0  0  0
   62.6000   30.0350   50.2230 O   0  0  0  0  0  0  0  0  0  0  0  0
   61.7240   31.5320   51.6630 N   0  0  0  0  0  0  0  0  0  0  0  0
   60.6560   32.1330   52.2450 C   0  0  0  0  0  0  0  0  0  0  0  0
   60.8640   33.0970   53.2280 O   0  0  0  0  0  0  0  0  0  0  0  0
   59.3580   31.7650   51.8690 C   0  0  0  0  0  0  0  0  0  0  0  0
   58.1890   32.4100   52.5120 C   0  0  0  0  0  0  0  0  0  0  0  0
   57.8960   33.5990   52.1990 O   0  0  0  0  0  0  0  0  0  0  0  0
   57.4360   31.7230   53.6250 C   0  0  2  0  0  0  0  0  0  0  0  0
   58.2590   30.6440   54.2950 C   0  0  0  0  0  0  0  0  0  0  0  0
   57.7580   29.4510   54.1800 N   0  0  0  0  0  0  0  0  0  0  0  0
   56.5610   29.5860   53.4340 C   0  0  0  0  0  0  0  0  0  0  0  0
   55.6730   28.5680   53.0880 C   0  0  0  0  0  0  0  0  0  0  0  0
   54.5180   28.9130   52.3620 C   0  0  0  0  0  0  0  0  0  0  0  0
   54.2770   30.2570   52.0050 C   0  0  0  0  0  0  0  0  0  0  0  0
   55.1890   31.2610   52.3710 C   0  0  0  0  0  0  0  0  0  0  0  0
   56.3310   30.8880   53.0830 C   0  0  0  0  0  0  0  0  0  0  0  0
   59.2120   30.7860   50.8680 C   0  0  0  0  0  0  0  0  0  0  0  0
   58.0580   30.4510   50.4820 O   0  0  0  0  0  0  0  0  0  0  0  0
   60.1970   33.0210   46.2830 C   0  0  0  0  0  0  0  0  0  0  0  0
   60.9220   34.2320   46.9130 C   0  0  0  0  0  0  0  0  0  0  0  0
   64.1530   32.8290   49.6690 C   0  0  0  0  0  0  0  0  0  0  0  0
   66.6584   31.1149   52.0697 H   0  0  0  0  0  0  0  0  0  0  0  0
   66.0690   29.9974   50.7928 H   0  0  0  0  0  0  0  0  0  0  0  0
   67.7822   30.5376   50.7928 H   0  0  0  0  0  0  0  0  0  0  0  0
   66.3282   33.6887   52.1650 H   0  0  0  0  0  0  0  0  0  0  0  0
   64.4803   35.2760   52.6838 H   0  0  0  0  0  0  0  0  0  0  0  0
   62.4165   35.2977   51.2823 H   0  0  0  0  0  0  0  0  0  0  0  0
   61.3317   32.7550   49.2777 H   0  0  0  0  0  0  0  0  0  0  0  0
   61.2274   34.5597   49.4433 H   0  0  0  0  0  0  0  0  0  0  0  0
   63.0718   32.9463   46.0268 H   0  0  0  0  0  0  0  0  0  0  0  0
   63.7539   32.5257   47.6538 H   0  0  0  0  0  0  0  0  0  0  0  0
   62.2767   30.7728   46.3066 H   0  0  0  0  0  0  0  0  0  0  0  0
   62.1205   30.9554   48.0971 H   0  0  0  0  0  0  0  0  0  0  0  0
   59.5177   28.7949   45.9280 H   0  0  0  0  0  0  0  0  0  0  0  0
   59.9375   26.4164   46.5394 H   0  0  0  0  0  0  0  0  0  0  0  0
   60.4934   25.8098   48.8954 H   0  0  0  0  0  0  0  0  0  0  0  0
   60.6442   27.5818   50.6412 H   0  0  0  0  0  0  0  0  0  0  0  0
   60.1380   33.7620   53.4680 H   0  0  0  0  0  0  0  0  0  0  0  0
   57.1344   32.5471   54.2882 H   0  0  0  0  0  0  0  0  0  0  0  0
   59.1969   30.8513   54.8311 H   0  0  0  0  0  0  0  0  0  0  0  0
   55.8699   27.5244   53.3746 H   0  0  0  0  0  0  0  0  0  0  0  0
   53.8000   28.1319   52.0715 H   0  0  0  0  0  0  0  0  0  0  0  0
   53.3716   30.5194   51.4380 H   0  0  0  0  0  0  0  0  0  0  0  0
   55.0084   32.3127   52.1039 H   0  0  0  0  0  0  0  0  0  0  0  0
   60.4857   32.9405   45.2246 H   0  0  0  0  0  0  0  0  0  0  0  0
   59.1121   33.1759   46.3778 H   0  0  0  0  0  0  0  0  0  0  0  0
   61.2110   34.9206   46.1053 H   0  0  0  0  0  0  0  0  0  0  0  0
   60.2196   34.6871   47.6269 H   0  0  0  0  0  0  0  0  0  0  0  0
   64.0594   32.1361   48.8198 H   0  0  0  0  0  0  0  0  0  0  0  0
  1  2  1  0
  2  3  1  0
  3  4  2  0
  4  5  1  0
  5  6  2  0
  6  7  1  0
  7  8  1  0
  8  9  1  0
  9 10  1  0
 10 11  1  0
 11 12  1  0
 12 13  1  0
 13 14  2  0
 13 15  1  0
 15 16  2  0
 16 17  1  0
 17 18  2  0
 18 19  1  0
 19 20  2  0
 20 21  1  0
 21 22  1  0
 22 23  2  0
 22 24  1  0
 24 25  1  0
 25 26  1  0
 25 27  2  0
 27 28  1  0
 28 29  2  0
 28 30  1  0
 30 31  1  0
 31 32  2  0
 32 33  1  0
 33 34  2  0
 34 35  1  0
 35 36  2  0
 36 37  1  0
 37 38  2  0
 27 39  1  0
 39 40  2  0
 12 41  1  0
 41 42  1  0
  7 43  2  0
 43  3  1  0
 42  9  1  0
 20 15  1  0
 39 21  1  0
 38 30  1  0
 38 33  1  0
  1 44  1  0
  1 45  1  0
  1 46  1  0
  4 47  1  0
  5 48  1  0
  6 49  1  0
  8 50  1  0
  8 51  1  0
 10 52  1  0
 10 53  1  0
 11 54  1  0
 11 55  1  0
 16 56  1  0
 17 57  1  0
 18 58  1  0
 19 59  1  0
 26 60  1  0
 30 61  1  1
 31 62  1  0
 34 63  1  0
 35 64  1  0
 36 65  1  0
 37 66  1  0
 41 67  1  0
 41 68  1  0
 42 69  1  0
 42 70  1  0
 43 71  1  0
M  CHG  1  24  -1
M  END
>  <UniqueID>  (54) 
51

>  <SMILES>  (54) 
COc1cccc(CN2CCN(C(=O)c3ccccc3-n3c(=O)[n-]c(O)c(C(=O)[C@@H]4C=Nc5ccccc54)c3=O)CC2)c1

>  <Energy>  (54) 
130.02722776804842

>  <Genealogy>  (54) 
COc1cccc(CN2CCN(C(=O)c3ccccc3-n3c(=O)[n-]c(O)c(C(=O)C4C=Nc5ccccc54)c3=O)CC2)c1 (protonated)
COc1cccc(CN2CCN(C(=O)c3ccccc3-n3c(=O)[n-]c(O)c(C(=O)[C@@H]4C=Nc5ccccc54)c3=O)CC2)c1 (chirality)
COc1cccc(CN2CCN(C(=O)c3ccccc3-n3c(=O)[n-]c(O)c(C(=O)[C@@H]4C=Nc5ccccc54)c3=O)CC2)c1 (3D coordinates assigned)
COc1cccc(CN2CCN(C(=O)c3ccccc3-n3c(=O)[n-]c(O)c(C(=O)[C@@H]4C=Nc5ccccc54)c3=O)CC2)c1 (nonaromatic ring conformer: 130.02722776804842 kcal/mol)

>  <smiles>  (54) 
COc1cccc(CN2CCN(C(=O)c3ccccc3-n3c(=O)[nH]c(O)c(C(=O)C4C=Nc5ccccc54)c3=O)CC2)c1

>  <score_type>  (54) 
oracle

>  <origin>  (54) 
adg

>  <m_score__min__energy>  (54) 
-11.380000000000001

>  <m_primary>  (54) 
energy

$$$$
54:0
     RDKit          3D

 55 57  0  0  1  0  0  0  0  0999 V2000
   63.6490   32.7140   48.9790 C   0  0  0  0  0  0  0  0  0  0  0  0
   63.4110   32.4600   47.4780 C   0  0  0  0  0  0  0  0  0  0  0  0
   63.6940   33.7790   46.7430 C   0  0  0  0  0  0  0  0  0  0  0  0
   62.0080   32.0800   47.2140 C   0  0  0  0  0  0  0  0  0  0  0  0
   61.1210   32.0660   48.3720 C   0  0  2  0  0  0  0  0  0  0  0  0
   60.0620   30.9800   48.0190 C   0  0  0  0  0  0  0  0  0  0  0  0
   59.5860   30.3120   48.9830 O   0  0  0  0  0  0  0  0  0  0  0  0
   59.6720   30.7700   46.6830 N   0  0  0  0  0  0  0  0  0  0  0  0
   58.6980   29.7660   46.4060 C   0  0  0  0  0  0  0  0  0  0  0  0
   57.5160   29.8640   45.7020 C   0  0  0  0  0  0  0  0  0  0  0  0
   56.9500   28.6090   45.7300 C   0  0  0  0  0  0  0  0  0  0  0  0
   55.7420   28.2860   45.1280 O   0  0  0  0  0  0  0  0  0  0  0  0
   57.7390   27.7540   46.4220 N   0  0  0  0  0  0  0  0  0  0  0  0
   57.5150   26.3460   46.6870 C   0  0  0  0  0  0  0  0  0  0  0  0
   56.6120   25.7810   45.6540 C   0  0  0  0  0  0  0  0  0  0  0  0
   57.0510   25.7300   44.3410 O   0  0  0  0  0  0  0  0  0  0  0  0
   55.4390   25.3510   46.0010 N   0  0  0  0  0  0  0  0  0  0  0  0
   54.3840   26.1950   45.8820 O   0  0  0  0  0  0  0  0  0  0  0  0
   58.8220   28.4600   46.8430 C   0  0  0  0  0  0  0  0  0  0  0  0
   59.8650   27.9240   47.5910 O   0  0  0  0  0  0  0  0  0  0  0  0
   60.3680   33.1290   48.8450 N   0  0  0  0  0  0  0  0  0  0  0  0
   58.9680   33.2010   48.8740 C   0  0  0  0  0  0  0  0  0  0  0  0
   58.5630   33.5670   47.4620 C   0  0  0  0  0  0  0  0  0  0  0  0
   57.4470   33.3400   46.6940 C   0  0  0  0  0  0  0  0  0  0  0  0
   57.3990   33.8320   45.4010 C   0  0  0  0  0  0  0  0  0  0  0  0
   58.4790   34.5420   44.9120 C   0  0  0  0  0  0  0  0  0  0  0  0
   59.6080   34.7740   45.6840 C   0  0  0  0  0  0  0  0  0  0  0  0
   59.6680   34.2850   46.9840 C   0  0  0  0  0  0  0  0  0  0  0  0
   60.7160   34.3630   48.0440 C   0  0  0  0  0  0  0  0  0  0  0  0
   63.0149   32.0372   49.5705 H   0  0  0  0  0  0  0  0  0  0  0  0
   64.7064   32.5290   49.2190 H   0  0  0  0  0  0  0  0  0  0  0  0
   63.3956   33.7572   49.2190 H   0  0  0  0  0  0  0  0  0  0  0  0
   64.0635   31.6417   47.1394 H   0  0  0  0  0  0  0  0  0  0  0  0
   63.8656   34.5790   47.4783 H   0  0  0  0  0  0  0  0  0  0  0  0
   64.5877   33.6628   46.1122 H   0  0  0  0  0  0  0  0  0  0  0  0
   62.8313   34.0397   46.1122 H   0  0  0  0  0  0  0  0  0  0  0  0
   61.5976   32.7935   46.4842 H   0  0  0  0  0  0  0  0  0  0  0  0
   62.0445   31.0407   46.8555 H   0  0  0  0  0  0  0  0  0  0  0  0
   61.8567   31.9712   49.1842 H   0  0  0  0  0  0  0  0  0  0  0  0
   60.0700   31.3100   45.8900 H   0  0  0  0  0  0  0  0  0  0  0  0
   57.1080   30.7628   45.2164 H   0  0  0  0  0  0  0  0  0  0  0  0
   55.1720   27.4910   45.3590 H   0  0  0  0  0  0  0  0  0  0  0  0
   58.4764   25.8120   46.6641 H   0  0  0  0  0  0  0  0  0  0  0  0
   57.0524   26.2306   47.6783 H   0  0  0  0  0  0  0  0  0  0  0  0
   56.7650   26.4620   43.7060 H   0  0  0  0  0  0  0  0  0  0  0  0
   54.3610   27.1130   46.3310 H   0  0  0  0  0  0  0  0  0  0  0  0
   60.1700   28.4140   48.4000 H   0  0  0  0  0  0  0  0  0  0  0  0
   58.5372   32.2301   49.1600 H   0  0  0  0  0  0  0  0  0  0  0  0
   58.6081   33.9354   49.6096 H   0  0  0  0  0  0  0  0  0  0  0  0
   56.5985   32.7720   47.1031 H   0  0  0  0  0  0  0  0  0  0  0  0
   56.5134   33.6602   44.7715 H   0  0  0  0  0  0  0  0  0  0  0  0
   58.4425   34.9331   43.8845 H   0  0  0  0  0  0  0  0  0  0  0  0
   60.4530   35.3430   45.2689 H   0  0  0  0  0  0  0  0  0  0  0  0
   61.7298   34.3034   47.6214 H   0  0  0  0  0  0  0  0  0  0  0  0
   60.7268   35.3013   48.6180 H   0  0  0  0  0  0  0  0  0  0  0  0
  1  2  1  0
  2  3  1  0
  2  4  1  0
  4  5  1  0
  5  6  1  0
  6  7  2  0
  6  8  1  0
  8  9  1  0
  9 10  1  0
 10 11  2  0
 11 12  1  0
 11 13  1  0
 13 14  1  0
 14 15  1  0
 15 16  1  0
 15 17  2  0
 17 18  1  0
 13 19  1  0
 19 20  1  0
  5 21  1  0
 21 22  1  0
 22 23  1  0
 23 24  2  0
 24 25  1  0
 25 26  2  0
 26 27  1  0
 27 28  2  0
 28 29  1  0
 19  9  2  0
 29 21  1  0
 28 23  1  0
  1 30  1  0
  1 31  1  0
  1 32  1  0
  2 33  1  0
  3 34  1  0
  3 35  1  0
  3 36  1  0
  4 37  1  0
  4 38  1  0
  5 39  1  1
  8 40  1  0
 10 41  1  0
 12 42  1  0
 14 43  1  0
 14 44  1  0
 16 45  1  0
 18 46  1  0
 20 47  1  0
 22 48  1  0
 22 49  1  0
 24 50  1  0
 25 51  1  0
 26 52  1  0
 27 53  1  0
 29 54  1  0
 29 55  1  0
M  END
>  <smiles>  (55) 
CC(C)CC(C(=O)Nc1cc(O)n(CC(O)=NO)c1O)N1Cc2ccccc2C1

>  <score_type>  (55) 
oracle

>  <origin>  (55) 
adg

>  <m_score__min__energy>  (55) 
-9.9900000000000002

>  <m_primary>  (55) 
energy

$$$$
55:0
     RDKit          3D

 52 54  0  0  0  0  0  0  0  0999 V2000
   57.3230   25.5470   46.6370 O   0  0  0  0  0  0  0  0  0  0  0  0
   56.2040   25.9300   46.1980 C   0  0  0  0  0  0  0  0  0  0  0  0
   55.0730   25.0530   46.2310 N   0  0  0  0  0  0  0  0  0  0  0  0
   55.1750   23.6110   46.4240 C   0  0  0  0  0  0  0  0  0  0  0  0
   55.8460   22.9790   45.2360 C   0  0  0  0  0  0  0  0  0  0  0  0
   55.5600   23.4180   43.9330 C   0  0  0  0  0  0  0  0  0  0  0  0
   56.1690   22.8030   42.8330 C   0  0  0  0  0  0  0  0  0  0  0  0
   57.0570   21.7400   43.0280 C   0  0  0  0  0  0  0  0  0  0  0  0
   57.3380   21.2890   44.3210 C   0  0  0  0  0  0  0  0  0  0  0  0
   56.7330   21.9040   45.4230 C   0  0  0  0  0  0  0  0  0  0  0  0
   56.0450   27.2520   45.6760 N   0  0  0  0  0  0  0  0  0  0  0  0
   57.1060   28.2560   45.7780 C   0  0  0  0  0  0  0  0  0  0  0  0
   56.7290   29.4990   45.0180 C   0  0  0  0  0  0  0  0  0  0  0  0
   55.5940   29.5580   44.4720 O   0  0  0  0  0  0  0  0  0  0  0  0
   57.6100   30.6380   44.9520 N   0  0  0  0  0  0  0  0  0  0  0  0
   57.0310   31.9810   45.0530 C   0  0  0  0  0  0  0  0  0  0  0  0
   58.1090   33.0770   44.9800 C   0  0  0  0  0  0  0  0  0  0  0  0
   59.2980   32.8050   45.8220 N   0  0  0  0  0  0  0  0  0  0  0  0
   59.1970   33.5700   47.3920 S   0  0  0  0  0  0  0  0  0  0  0  0
   58.2320   32.8100   48.2580 O   0  0  0  0  0  0  0  0  0  0  0  0
   58.6670   34.9690   47.2290 O   0  0  0  0  0  0  0  0  0  0  0  0
   60.7680   33.6430   48.1970 C   0  0  0  0  0  0  0  0  0  0  0  0
   60.8460   33.8380   49.5840 C   0  0  0  0  0  0  0  0  0  0  0  0
   62.0930   33.9190   50.2150 C   0  0  0  0  0  0  0  0  0  0  0  0
   63.2660   33.7910   49.4670 C   0  0  0  0  0  0  0  0  0  0  0  0
   63.1940   33.5740   48.0880 C   0  0  0  0  0  0  0  0  0  0  0  0
   61.9490   33.4960   47.4530 C   0  0  0  0  0  0  0  0  0  0  0  0
   59.7090   31.3860   45.9350 C   0  0  0  0  0  0  0  0  0  0  0  0
   59.0670   30.4960   44.8710 C   0  0  0  0  0  0  0  0  0  0  0  0
   55.7665   23.4055   47.3284 H   0  0  0  0  0  0  0  0  0  0  0  0
   54.1651   23.1893   46.5347 H   0  0  0  0  0  0  0  0  0  0  0  0
   54.8551   24.2478   43.7764 H   0  0  0  0  0  0  0  0  0  0  0  0
   55.9491   23.1558   41.8146 H   0  0  0  0  0  0  0  0  0  0  0  0
   57.5350   21.2581   42.1624 H   0  0  0  0  0  0  0  0  0  0  0  0
   58.0344   20.4510   44.4722 H   0  0  0  0  0  0  0  0  0  0  0  0
   56.9522   21.5450   46.4394 H   0  0  0  0  0  0  0  0  0  0  0  0
   55.1460   27.4870   45.2020 H   0  0  0  0  0  0  0  0  0  0  0  0
   57.2619   28.5119   46.8364 H   0  0  0  0  0  0  0  0  0  0  0  0
   58.0302   27.8424   45.3482 H   0  0  0  0  0  0  0  0  0  0  0  0
   56.3205   32.1252   44.2257 H   0  0  0  0  0  0  0  0  0  0  0  0
   56.5268   32.0628   46.0272 H   0  0  0  0  0  0  0  0  0  0  0  0
   58.4385   33.1700   43.9346 H   0  0  0  0  0  0  0  0  0  0  0  0
   57.6515   34.0017   45.3617 H   0  0  0  0  0  0  0  0  0  0  0  0
   59.9243   33.9276   50.1777 H   0  0  0  0  0  0  0  0  0  0  0  0
   62.1494   34.0836   51.3011 H   0  0  0  0  0  0  0  0  0  0  0  0
   64.2454   33.8609   49.9628 H   0  0  0  0  0  0  0  0  0  0  0  0
   64.1176   33.4643   47.5007 H   0  0  0  0  0  0  0  0  0  0  0  0
   61.8961   33.3191   46.3686 H   0  0  0  0  0  0  0  0  0  0  0  0
   60.8023   31.3274   45.8290 H   0  0  0  0  0  0  0  0  0  0  0  0
   59.3737   31.0217   46.9173 H   0  0  0  0  0  0  0  0  0  0  0  0
   59.4135   30.8039   43.8734 H   0  0  0  0  0  0  0  0  0  0  0  0
   59.3501   29.4468   45.0412 H   0  0  0  0  0  0  0  0  0  0  0  0
  1  2  2  0
  2  3  1  0
  3  4  1  0
  4  5  1  0
  5  6  2  0
  6  7  1  0
  7  8  2  0
  8  9  1  0
  9 10  2  0
  2 11  1  0
 11 12  1  0
 12 13  1  0
 13 14  2  0
 13 15  1  0
 15 16  1  0
 16 17  1  0
 17 18  1  0
 18 19  1  0
 19 20  2  0
 19 21  2  0
 19 22  1  0
 22 23  2  0
 23 24  1  0
 24 25  2  0
 25 26  1  0
 26 27  2  0
 18 28  1  0
 28 29  1  0
 10  5  1  0
 29 15  1  0
 27 22  1  0
  4 30  1  0
  4 31  1  0
  6 32  1  0
  7 33  1  0
  8 34  1  0
  9 35  1  0
 10 36  1  0
 11 37  1  0
 12 38  1  0
 12 39  1  0
 16 40  1  0
 16 41  1  0
 17 42  1  0
 17 43  1  0
 23 44  1  0
 24 45  1  0
 25 46  1  0
 26 47  1  0
 27 48  1  0
 28 49  1  0
 28 50  1  0
 29 51  1  0
 29 52  1  0
M  CHG  1   3  -1
M  END
>  <UniqueID>  (56) 
52

>  <SMILES>  (56) 
O=C([N-]Cc1ccccc1)NCC(=O)N1CCN(S(=O)(=O)c2ccccc2)CC1

>  <Energy>  (56) 
53.87796893425891

>  <Genealogy>  (56) 
O=C([N-]Cc1ccccc1)NCC(=O)N1CCN(S(=O)(=O)c2ccccc2)CC1 (protonated)
O=C([N-]Cc1ccccc1)NCC(=O)N1CCN(S(=O)(=O)c2ccccc2)CC1 (3D coordinates assigned)
O=C([N-]Cc1ccccc1)NCC(=O)N1CCN(S(=O)(=O)c2ccccc2)CC1 (nonaromatic ring conformer: 53.87796893425891 kcal/mol)

>  <smiles>  (56) 
O=C(NCC(=O)N1CCN(S(=O)(=O)c2ccccc2)CC1)NCc1ccccc1

>  <score_type>  (56) 
oracle

>  <origin>  (56) 
adg

>  <m_score__min__energy>  (56) 
-11.26

>  <m_primary>  (56) 
energy

$$$$
56:0
     RDKit          3D

 53 55  0  0  0  0  0  0  0  0999 V2000
   56.0150   29.3620   53.8640 C   0  0  0  0  0  0  0  0  0  0  0  0
   56.6940   29.7780   52.6000 C   0  0  0  0  0  0  0  0  0  0  0  0
   56.0340   30.3790   51.7100 O   0  0  0  0  0  0  0  0  0  0  0  0
   58.0850   29.4770   52.4040 N   0  0  0  0  0  0  0  0  0  0  0  0
   58.8730   29.9980   51.3210 C   0  0  0  0  0  0  0  0  0  0  0  0
   58.5540   31.2510   50.7780 C   0  0  0  0  0  0  0  0  0  0  0  0
   59.3090   31.7800   49.7270 C   0  0  0  0  0  0  0  0  0  0  0  0
   60.3960   31.0620   49.2030 C   0  0  0  0  0  0  0  0  0  0  0  0
   61.2620   31.6470   48.1570 C   0  0  0  0  0  0  0  0  0  0  0  0
   62.4440   31.2220   48.0550 O   0  0  0  0  0  0  0  0  0  0  0  0
   60.8030   32.7300   47.3130 N   0  0  0  0  0  0  0  0  0  0  0  0
   60.9880   34.1320   47.7180 C   0  0  0  0  0  0  0  0  0  0  0  0
   59.6250   34.8110   47.9470 C   0  0  0  0  0  0  0  0  0  0  0  0
   58.5200   34.3160   46.9860 C   0  0  0  0  0  0  0  0  0  0  0  0
   59.1030   33.6540   45.7260 C   0  0  2  0  0  0  0  0  0  0  0  0
   58.0110   33.2160   44.7840 C   0  0  0  0  0  0  0  0  0  0  0  0
   56.9490   33.8880   44.6930 O   0  0  0  0  0  0  0  0  0  0  0  0
   58.1930   32.0640   43.9550 N   0  0  0  0  0  0  0  0  0  0  0  0
   57.9030   30.7240   44.3750 C   0  0  0  0  0  0  0  0  0  0  0  0
   58.9240   29.8190   44.7230 C   0  0  0  0  0  0  0  0  0  0  0  0
   58.6050   28.5430   45.1940 C   0  0  0  0  0  0  0  0  0  0  0  0
   57.2660   28.1540   45.3260 C   0  0  0  0  0  0  0  0  0  0  0  0
   56.8730   26.5400   45.9080 S   0  0  0  0  0  0  0  0  0  0  0  0
   55.1570   26.3520   45.9890 N   0  0  0  0  0  0  0  0  0  0  0  0
   57.4320   25.5070   44.9710 O   0  0  0  0  0  0  0  0  0  0  0  0
   57.4640   26.3460   47.2770 O   0  0  0  0  0  0  0  0  0  0  0  0
   56.2480   29.0490   44.9710 C   0  0  0  0  0  0  0  0  0  0  0  0
   56.5660   30.3270   44.5020 C   0  0  0  0  0  0  0  0  0  0  0  0
   59.9780   32.4480   46.1250 C   0  0  0  0  0  0  0  0  0  0  0  0
   60.6780   29.7830   49.7050 C   0  0  0  0  0  0  0  0  0  0  0  0
   59.9230   29.2530   50.7550 C   0  0  0  0  0  0  0  0  0  0  0  0
   56.5966   29.7183   54.7270 H   0  0  0  0  0  0  0  0  0  0  0  0
   55.0050   29.7965   53.8978 H   0  0  0  0  0  0  0  0  0  0  0  0
   55.9434   28.2649   53.8978 H   0  0  0  0  0  0  0  0  0  0  0  0
   58.5220   28.7680   53.0350 H   0  0  0  0  0  0  0  0  0  0  0  0
   57.7043   31.8212   51.1816 H   0  0  0  0  0  0  0  0  0  0  0  0
   59.0502   32.7638   49.3084 H   0  0  0  0  0  0  0  0  0  0  0  0
   61.5705   34.1657   48.6505 H   0  0  0  0  0  0  0  0  0  0  0  0
   61.5219   34.6661   46.9182 H   0  0  0  0  0  0  0  0  0  0  0  0
   59.3045   34.6088   48.9797 H   0  0  0  0  0  0  0  0  0  0  0  0
   59.7627   35.8854   47.7555 H   0  0  0  0  0  0  0  0  0  0  0  0
   57.8930   33.5826   47.5142 H   0  0  0  0  0  0  0  0  0  0  0  0
   57.9312   35.1892   46.6683 H   0  0  0  0  0  0  0  0  0  0  0  0
   59.7231   34.3964   45.2023 H   0  0  0  0  0  0  0  0  0  0  0  0
   59.9779   30.1181   44.6235 H   0  0  0  0  0  0  0  0  0  0  0  0
   59.4085   27.8412   45.4622 H   0  0  0  0  0  0  0  0  0  0  0  0
   54.7980   27.0920   46.6330 H   0  0  0  0  0  0  0  0  0  0  0  0
   55.1948   28.7449   45.0617 H   0  0  0  0  0  0  0  0  0  0  0  0
   55.7606   31.0255   44.2309 H   0  0  0  0  0  0  0  0  0  0  0  0
   59.3231   31.5915   46.3432 H   0  0  0  0  0  0  0  0  0  0  0  0
   60.6556   32.2292   45.2865 H   0  0  0  0  0  0  0  0  0  0  0  0
   61.4984   29.1935   49.2697 H   0  0  0  0  0  0  0  0  0  0  0  0
   60.1511   28.2484   51.1405 H   0  0  0  0  0  0  0  0  0  0  0  0
  1  2  1  0
  2  3  2  0
  2  4  1  0
  4  5  1  0
  5  6  2  0
  6  7  1  0
  7  8  2  0
  8  9  1  0
  9 10  2  0
  9 11  1  0
 11 12  1  0
 12 13  1  0
 13 14  1  0
 14 15  1  0
 15 16  1  0
 16 17  2  0
 16 18  1  0
 18 19  1  0
 19 20  2  0
 20 21  1  0
 21 22  2  0
 22 23  1  0
 23 24  1  0
 23 25  2  0
 23 26  2  0
 22 27  1  0
 27 28  2  0
 15 29  1  0
  8 30  1  0
 30 31  2  0
 31  5  1  0
 29 11  1  0
 28 19  1  0
  1 32  1  0
  1 33  1  0
  1 34  1  0
  4 35  1  0
  6 36  1  0
  7 37  1  0
 12 38  1  0
 12 39  1  0
 13 40  1  0
 13 41  1  0
 14 42  1  0
 14 43  1  0
 15 44  1  6
 20 45  1  0
 21 46  1  0
 24 47  1  0
 27 48  1  0
 28 49  1  0
 29 50  1  0
 29 51  1  0
 30 52  1  0
 31 53  1  0
M  CHG  2  18  -1  24  -1
M  END
>  <UniqueID>  (57) 
53

>  <SMILES>  (57) 
CC(=O)Nc1ccc(C(=O)N2CCC[C@H](C(=O)[N-]c3ccc(S([NH-])(=O)=O)cc3)C2)cc1

>  <Energy>  (57) 
67.5018119067543

>  <Genealogy>  (57) 
CC(=O)Nc1ccc(C(=O)N2CCCC(C(=O)[N-]c3ccc(S([NH-])(=O)=O)cc3)C2)cc1 (protonated)
CC(=O)Nc1ccc(C(=O)N2CCC[C@H](C(=O)[N-]c3ccc(S([NH-])(=O)=O)cc3)C2)cc1 (chirality)
CC(=O)Nc1ccc(C(=O)N2CCC[C@H](C(=O)[N-]c3ccc(S([NH-])(=O)=O)cc3)C2)cc1 (3D coordinates assigned)
CC(=O)Nc1ccc(C(=O)N2CCC[C@H](C(=O)[N-]c3ccc(S([NH-])(=O)=O)cc3)C2)cc1 (nonaromatic ring conformer: 67.5018119067543 kcal/mol)

>  <smiles>  (57) 
CC(=O)Nc1ccc(C(=O)N2CCCC(C(=O)Nc3ccc(S(N)(=O)=O)cc3)C2)cc1

>  <score_type>  (57) 
oracle

>  <origin>  (57) 
adg

>  <m_score__min__energy>  (57) 
-13.35

>  <m_primary>  (57) 
energy

$$$$
57:0
     RDKit          3D

 52 55  0  0  0  0  0  0  0  0999 V2000
   58.1930   30.7330   48.4370 O   0  0  0  0  0  0  0  0  0  0  0  0
   58.1440   31.0390   47.2150 C   0  0  0  0  0  0  0  0  0  0  0  0
   57.3950   30.2310   46.2970 N   0  0  0  0  0  0  0  0  0  0  0  0
   57.1870   30.4010   45.0200 C   0  0  0  0  0  0  0  0  0  0  0  0
   58.0220   31.2460   44.3540 N   0  0  0  0  0  0  0  0  0  0  0  0
   57.9170   31.4850   43.0210 C   0  0  0  0  0  0  0  0  0  0  0  0
   56.9210   30.8560   42.2780 C   0  0  0  0  0  0  0  0  0  0  0  0
   56.0240   30.0090   42.9240 C   0  0  0  0  0  0  0  0  0  0  0  0
   56.1280   29.7880   44.3010 C   0  0  0  0  0  0  0  0  0  0  0  0
   55.1480   29.0220   44.9200 O   0  0  0  0  0  0  0  0  0  0  0  0
   58.8850   32.2170   46.7120 C   0  0  0  0  0  0  0  0  0  0  0  0
   58.1120   33.3320   46.3460 C   0  0  0  0  0  0  0  0  0  0  0  0
   58.7000   34.5720   46.1270 C   0  0  0  0  0  0  0  0  0  0  0  0
   60.0690   34.7340   46.3000 C   0  0  0  0  0  0  0  0  0  0  0  0
   60.8780   33.6360   46.6170 C   0  0  0  0  0  0  0  0  0  0  0  0
   62.2520   33.8330   46.8120 C   0  0  0  0  0  0  0  0  0  0  0  0
   63.0840   32.7570   47.1000 C   0  0  0  0  0  0  0  0  0  0  0  0
   62.5690   31.4660   47.1290 C   0  0  0  0  0  0  0  0  0  0  0  0
   61.2030   31.2260   46.9030 C   0  0  0  0  0  0  0  0  0  0  0  0
   60.8160   29.8160   46.6680 C   0  0  0  0  0  0  0  0  0  0  0  0
   61.1370   28.9380   47.5150 O   0  0  0  0  0  0  0  0  0  0  0  0
   60.1600   29.4330   45.4510 N   0  0  0  0  0  0  0  0  0  0  0  0
   59.9490   28.0200   45.1190 C   0  0  0  0  0  0  0  0  0  0  0  0
   58.4610   27.6030   45.1420 C   0  0  0  0  0  0  0  0  0  0  0  0
   58.0680   26.6780   43.9630 C   0  0  0  0  0  0  0  0  0  0  0  0
   57.7490   25.2470   44.4220 C   0  0  0  0  0  0  0  0  0  0  0  0
   56.6720   25.2100   45.4290 N   0  0  0  0  0  0  0  0  0  0  0  0
   56.6690   26.3360   46.3850 C   0  0  0  0  0  0  0  0  0  0  0  0
   58.0330   27.0270   46.5090 C   0  0  0  0  0  0  0  0  0  0  0  0
   60.3100   32.3330   46.7460 C   0  0  0  0  0  0  0  0  0  0  0  0
   58.6182   32.1749   42.5287 H   0  0  0  0  0  0  0  0  0  0  0  0
   56.8438   31.0262   41.1940 H   0  0  0  0  0  0  0  0  0  0  0  0
   55.2297   29.5113   42.3483 H   0  0  0  0  0  0  0  0  0  0  0  0
   57.0236   33.2215   46.2310 H   0  0  0  0  0  0  0  0  0  0  0  0
   58.0807   35.4264   45.8163 H   0  0  0  0  0  0  0  0  0  0  0  0
   60.5201   35.7309   46.1872 H   0  0  0  0  0  0  0  0  0  0  0  0
   62.6748   34.8457   46.7367 H   0  0  0  0  0  0  0  0  0  0  0  0
   64.1512   32.9274   47.3052 H   0  0  0  0  0  0  0  0  0  0  0  0
   63.2412   30.6193   47.3320 H   0  0  0  0  0  0  0  0  0  0  0  0
   59.9050   30.1820   44.7720 H   0  0  0  0  0  0  0  0  0  0  0  0
   60.3481   27.8347   44.1108 H   0  0  0  0  0  0  0  0  0  0  0  0
   60.4665   27.4242   45.8852 H   0  0  0  0  0  0  0  0  0  0  0  0
   57.8886   28.5311   44.9969 H   0  0  0  0  0  0  0  0  0  0  0  0
   57.1797   27.0961   43.4670 H   0  0  0  0  0  0  0  0  0  0  0  0
   58.9262   26.6265   43.2768 H   0  0  0  0  0  0  0  0  0  0  0  0
   57.4368   24.6563   43.5481 H   0  0  0  0  0  0  0  0  0  0  0  0
   58.6566   24.8312   44.8840 H   0  0  0  0  0  0  0  0  0  0  0  0
   56.7680   24.3150   45.9660 H   0  0  0  0  0  0  0  0  0  0  0  0
   55.9303   27.0784   46.0485 H   0  0  0  0  0  0  0  0  0  0  0  0
   56.4199   25.9243   47.3742 H   0  0  0  0  0  0  0  0  0  0  0  0
   57.9619   27.8440   47.2421 H   0  0  0  0  0  0  0  0  0  0  0  0
   58.7809   26.2915   46.8404 H   0  0  0  0  0  0  0  0  0  0  0  0
  1  2  2  0
  2  3  1  0
  3  4  2  3
  4  5  1  0
  5  6  1  0
  6  7  2  0
  7  8  1  0
  8  9  2  0
  9 10  1  0
  2 11  1  0
 11 12  2  0
 12 13  1  0
 13 14  2  0
 14 15  1  0
 15 16  2  0
 16 17  1  0
 17 18  2  0
 18 19  1  0
 19 20  1  0
 20 21  2  0
 20 22  1  0
 22 23  1  0
 23 24  1  0
 24 25  1  0
 25 26  1  0
 26 27  1  0
 27 28  1  0
 28 29  1  0
 19 30  2  0
  9  4  1  0
 30 11  1  0
 30 15  1  0
 29 24  1  0
  6 31  1  0
  7 32  1  0
  8 33  1  0
 12 34  1  0
 13 35  1  0
 14 36  1  0
 16 37  1  0
 17 38  1  0
 18 39  1  0
 22 40  1  0
 23 41  1  0
 23 42  1  0
 24 43  1  0
 25 44  1  0
 25 45  1  0
 26 46  1  0
 26 47  1  0
 27 48  1  0
 28 49  1  0
 28 50  1  0
 29 51  1  0
 29 52  1  0
M  CHG  2   5  -1  10  -1
M  END
>  <UniqueID>  (58) 
54

>  <SMILES>  (58) 
O=C(N=c1[n-]cccc1[O-])c1cccc2cccc(C(=O)NCC3CCNCC3)c12

>  <Energy>  (58) 
92.5262251103295

>  <Genealogy>  (58) 
O=C(N=c1[n-]cccc1[O-])c1cccc2cccc(C(=O)NCC3CCNCC3)c12 (protonated)
O=C(N=c1[n-]cccc1[O-])c1cccc2cccc(C(=O)NCC3CCNCC3)c12 (3D coordinates assigned)
O=C(N=c1[n-]cccc1[O-])c1cccc2cccc(C(=O)NCC3CCNCC3)c12 (nonaromatic ring conformer: 92.5262251103295 kcal/mol)

>  <smiles>  (58) 
O=C(N=c1[nH]cccc1O)c1cccc2cccc(C(=O)NCC3CCNCC3)c12

>  <score_type>  (58) 
oracle

>  <origin>  (58) 
adg

>  <m_score__min__energy>  (58) 
-13.220000000000001

>  <m_primary>  (58) 
energy

$$$$
58:0
     RDKit          3D

 55 59  0  0  0  0  0  0  0  0999 V2000
   59.8997   29.2240   48.6920 H   0  0  0  0  0  0  0  0  0  0  0  0
   59.5250   28.7110   47.7940 C   0  0  0  0  0  0  0  0  0  0  0  0
   59.3945   27.6188   47.7987 H   0  0  0  0  0  0  0  0  0  0  0  0
   59.2270   29.4180   46.6920 C   0  0  0  0  0  0  0  0  0  0  0  0
   58.7440   28.9070   45.4820 C   0  0  0  0  0  0  0  0  0  0  0  0
   58.4680   27.6210   45.1910 C   0  0  0  0  0  0  0  0  0  0  0  0
   59.1901   27.0638   44.5762 H   0  0  0  0  0  0  0  0  0  0  0  0
   57.2560   26.9150   45.6470 C   0  0  0  0  0  0  0  0  0  0  0  0
   57.2600   25.6350   46.0560 N   0  0  0  0  0  0  0  0  0  0  0  0
   55.9560   25.3760   46.2930 C   0  0  0  0  0  0  0  0  0  0  0  0
   55.5500   24.2610   46.7120 O   0  0  0  0  0  0  0  0  0  0  0  0
   55.1190   26.4040   46.0350 N   0  0  0  0  0  0  0  0  0  0  0  0
   55.9550   27.3670   45.6150 C   0  0  0  0  0  0  0  0  0  0  0  0
   55.5290   28.6110   45.1690 O   0  0  0  0  0  0  0  0  0  0  0  0
   58.5390   30.0030   44.6510 C   0  0  0  0  0  0  0  0  0  0  0  0
   58.1500   29.9843   43.6223 H   0  0  0  0  0  0  0  0  0  0  0  0
   58.9190   31.1190   45.3690 C   0  0  0  0  0  0  0  0  0  0  0  0
   58.8240   32.5270   44.8650 C   0  0  0  0  0  0  0  0  0  0  0  0
   58.7773   33.2195   45.7184 H   0  0  0  0  0  0  0  0  0  0  0  0
   59.7086   32.7580   44.2533 H   0  0  0  0  0  0  0  0  0  0  0  0
   57.9164   32.6371   44.2533 H   0  0  0  0  0  0  0  0  0  0  0  0
   59.3330   30.7670   46.6070 N   0  0  0  0  0  0  0  0  0  0  0  0
   59.7810   31.6730   47.6290 C   0  0  0  0  0  0  0  0  0  0  0  0
   61.0750   31.5510   48.1560 C   0  0  0  0  0  0  0  0  0  0  0  0
   61.7461   30.7673   47.7746 H   0  0  0  0  0  0  0  0  0  0  0  0
   61.5240   32.4200   49.1670 C   0  0  0  0  0  0  0  0  0  0  0  0
   62.8550   32.2900   49.7120 N   0  0  0  0  0  0  0  0  0  0  0  0
   64.0350   32.4920   48.8620 C   0  0  0  0  0  0  0  0  0  0  0  0
   64.3664   31.5225   48.4617 H   0  0  0  0  0  0  0  0  0  0  0  0
   63.7733   33.1666   48.0335 H   0  0  0  0  0  0  0  0  0  0  0  0
   65.1700   33.1180   49.6840 C   0  0  0  0  0  0  0  0  0  0  0  0
   66.0716   33.1656   49.0556 H   0  0  0  0  0  0  0  0  0  0  0  0
   64.8329   34.1165   49.9994 H   0  0  0  0  0  0  0  0  0  0  0  0
   65.4940   32.3480   50.9210 N   0  0  0  0  0  0  0  0  0  0  0  0
   66.3300   31.7700   50.6620 H   0  0  0  0  0  0  0  0  0  0  0  0
   66.0300   33.2290   52.0060 C   0  0  0  0  0  0  0  0  0  0  0  0
   65.9844   32.4138   52.7431 H   0  0  0  0  0  0  0  0  0  0  0  0
   65.6570   34.7170   52.0410 C   0  0  0  0  0  0  0  0  0  0  0  0
   64.9387   35.1207   51.3122 H   0  0  0  0  0  0  0  0  0  0  0  0
   65.2652   35.4018   52.8076 H   0  0  0  0  0  0  0  0  0  0  0  0
   67.0420   34.2970   51.5870 C   0  0  0  0  0  0  0  0  0  0  0  0
   67.3268   34.3981   50.5293 H   0  0  0  0  0  0  0  0  0  0  0  0
   68.0679   34.5538   51.8898 H   0  0  0  0  0  0  0  0  0  0  0  0
   64.4810   31.3300   51.3090 C   0  0  0  0  0  0  0  0  0  0  0  0
   64.6456   30.4236   50.7078 H   0  0  0  0  0  0  0  0  0  0  0  0
   64.6035   31.1343   52.3845 H   0  0  0  0  0  0  0  0  0  0  0  0
   63.0400   31.8100   51.0880 C   0  0  0  0  0  0  0  0  0  0  0  0
   62.3491   30.9746   51.2744 H   0  0  0  0  0  0  0  0  0  0  0  0
   62.8344   32.6391   51.7811 H   0  0  0  0  0  0  0  0  0  0  0  0
   60.6490   33.4110   49.6480 C   0  0  0  0  0  0  0  0  0  0  0  0
   60.9836   34.0961   50.4409 H   0  0  0  0  0  0  0  0  0  0  0  0
   59.3590   33.5320   49.1270 C   0  0  0  0  0  0  0  0  0  0  0  0
   58.6845   34.3120   49.5100 H   0  0  0  0  0  0  0  0  0  0  0  0
   58.9220   32.6670   48.1220 C   0  0  0  0  0  0  0  0  0  0  0  0
   57.6610   32.7840   47.6380 F   0  0  0  0  0  0  0  0  0  0  0  0
  1  2  1  0
  2  3  1  0
  2  4  2  0
  4  5  1  0
  5  6  2  0
  6  7  1  0
  6  8  1  0
  8  9  1  0
  9 10  1  0
 10 11  2  0
 10 12  1  0
 12 13  1  0
 13 14  1  0
  5 15  1  0
 15 16  1  0
 15 17  2  0
 17 18  1  0
 18 19  1  0
 18 20  1  0
 18 21  1  0
 17 22  1  0
 22 23  1  0
 23 24  2  0
 24 25  1  0
 24 26  1  0
 26 27  1  0
 27 28  1  0
 28 29  1  0
 28 30  1  0
 28 31  1  0
 31 32  1  0
 31 33  1  0
 31 34  1  0
 34 35  1  0
 34 36  1  0
 36 37  1  0
 36 38  1  0
 38 39  1  0
 38 40  1  0
 38 41  1  0
 41 42  1  0
 41 43  1  0
 34 44  1  0
 44 45  1  0
 44 46  1  0
 44 47  1  0
 47 48  1  0
 47 49  1  0
 26 50  2  0
 50 51  1  0
 50 52  1  0
 52 53  1  0
 52 54  2  0
 54 55  1  0
 22  4  1  0
 54 23  1  0
 13  8  2  0
 47 27  1  0
 41 36  1  0
M  CHG  4   9  -1  12  -1  14  -1  34   1
M  END
>  <UniqueID>  (59) 
55

>  <SMILES>  (59) 
C=c1/c(=C/c2[n-]c(=O)[n-]c2[O-])cc(C)n1-c1cc(N2CC[NH+](C3CC3)CC2)ccc1F

>  <Energy>  (59) 
418.82245731435717

>  <Genealogy>  (59) 
C=c1c(=Cc2[n-]c(=O)[n-]c2[O-])cc(C)n1-c1cc(N2CC[NH+](C3CC3)CC2)ccc1F (protonated)
C=c1/c(=C/c2[n-]c(=O)[n-]c2[O-])cc(C)n1-c1cc(N2CC[NH+](C3CC3)CC2)ccc1F (cis-trans isomerization)
C=c1/c(=C/c2[n-]c(=O)[n-]c2[O-])cc(C)n1-c1cc(N2CC[NH+](C3CC3)CC2)ccc1F (3D coordinates assigned)
C=c1/c(=C/c2[n-]c(=O)[n-]c2[O-])cc(C)n1-c1cc(N2CC[NH+](C3CC3)CC2)ccc1F (nonaromatic ring conformer: 418.82245731435717 kcal/mol)

>  <smiles>  (59) 
C=c1c(=Cc2[nH]c(=O)[nH]c2O)cc(C)n1-c1cc(N2CCN(C3CC3)CC2)ccc1F

>  <score_type>  (59) 
oracle

>  <origin>  (59) 
adg

>  <m_score__min__energy>  (59) 
-15.59

>  <m_primary>  (59) 
energy

$$$$
59:0
     RDKit          3D

 44 46  0  0  0  0  0  0  0  0999 V2000
   57.5370   28.3290   43.9080 C   0  0  0  0  0  0  0  0  0  0  0  0
   56.5240   29.7720   44.1640 S   0  0  0  0  0  0  0  0  0  0  0  0
   56.1680   30.3810   42.8360 O   0  0  0  0  0  0  0  0  0  0  0  0
   55.2630   29.3570   44.8690 O   0  0  0  0  0  0  0  0  0  0  0  0
   57.3670   30.9290   45.1470 N   0  0  0  0  0  0  0  0  0  0  0  0
   58.1530   31.8320   44.2990 C   0  0  0  0  0  0  0  0  0  0  0  0
   57.7270   33.2840   44.5310 C   0  0  0  0  0  0  0  0  0  0  0  0
   58.6550   33.9750   45.4870 C   0  0  0  0  0  0  0  0  0  0  0  0
   59.3170   35.1760   45.2880 C   0  0  0  0  0  0  0  0  0  0  0  0
   59.9730   35.5220   46.4180 N   0  0  0  0  0  0  0  0  0  0  0  0
   59.7270   34.5840   47.3190 N   0  0  0  0  0  0  0  0  0  0  0  0
   58.9500   33.6280   46.7900 C   0  0  0  0  0  0  0  0  0  0  0  0
   58.4130   32.4920   47.6070 C   0  0  0  0  0  0  0  0  0  0  0  0
   59.2630   32.2440   48.7950 N   0  0  0  0  0  0  0  0  0  0  0  0
   60.4900   31.4970   48.4400 C   0  0  0  0  0  0  0  0  0  0  0  0
   60.1600   30.2540   47.6560 C   0  0  0  0  0  0  0  0  0  0  0  0
   60.7170   30.0530   46.3850 C   0  0  0  0  0  0  0  0  0  0  0  0
   60.3940   28.9000   45.6660 C   0  0  0  0  0  0  0  0  0  0  0  0
   59.5380   27.9840   46.1940 N   0  0  0  0  0  0  0  0  0  0  0  0
   58.9770   28.1570   47.4210 C   0  0  0  0  0  0  0  0  0  0  0  0
   59.2760   29.2950   48.1740 C   0  0  0  0  0  0  0  0  0  0  0  0
   59.5360   33.5050   49.5320 C   0  0  0  0  0  0  0  0  0  0  0  0
   60.2690   34.5600   48.6730 C   0  0  0  0  0  0  0  0  0  0  0  0
   57.8311   27.9100   44.8816 H   0  0  0  0  0  0  0  0  0  0  0  0
   56.9676   27.5770   43.3421 H   0  0  0  0  0  0  0  0  0  0  0  0
   58.4378   28.6090   43.3421 H   0  0  0  0  0  0  0  0  0  0  0  0
   56.6410   31.5010   45.6400 H   0  0  0  0  0  0  0  0  0  0  0  0
   59.2198   31.7232   44.5442 H   0  0  0  0  0  0  0  0  0  0  0  0
   57.9805   31.5727   43.2440 H   0  0  0  0  0  0  0  0  0  0  0  0
   57.7379   33.8192   43.5700 H   0  0  0  0  0  0  0  0  0  0  0  0
   56.7158   33.2857   44.9640 H   0  0  0  0  0  0  0  0  0  0  0  0
   59.3098   35.7579   44.3546 H   0  0  0  0  0  0  0  0  0  0  0  0
   57.3936   32.7381   47.9391 H   0  0  0  0  0  0  0  0  0  0  0  0
   58.4071   31.5849   46.9848 H   0  0  0  0  0  0  0  0  0  0  0  0
   61.1407   32.1429   47.8323 H   0  0  0  0  0  0  0  0  0  0  0  0
   60.9991   31.1996   49.3686 H   0  0  0  0  0  0  0  0  0  0  0  0
   61.4036   30.7983   45.9571 H   0  0  0  0  0  0  0  0  0  0  0  0
   60.8325   28.7323   44.6712 H   0  0  0  0  0  0  0  0  0  0  0  0
   58.2868   27.3996   47.8210 H   0  0  0  0  0  0  0  0  0  0  0  0
   58.8219   29.4383   49.1656 H   0  0  0  0  0  0  0  0  0  0  0  0
   58.5781   33.9297   49.8668 H   0  0  0  0  0  0  0  0  0  0  0  0
   60.1929   33.2558   50.3783 H   0  0  0  0  0  0  0  0  0  0  0  0
   60.1415   35.5518   49.1314 H   0  0  0  0  0  0  0  0  0  0  0  0
   61.3364   34.2988   48.6238 H   0  0  0  0  0  0  0  0  0  0  0  0
  1  2  1  0
  2  3  2  0
  2  4  2  0
  2  5  1  0
  5  6  1  0
  6  7  1  0
  7  8  1  0
  8  9  1  0
  9 10  2  0
 10 11  1  0
 11 12  1  0
 12 13  1  0
 13 14  1  0
 14 15  1  0
 15 16  1  0
 16 17  2  0
 17 18  1  0
 18 19  2  0
 19 20  1  0
 20 21  2  0
 14 22  1  0
 22 23  1  0
 12  8  2  0
 21 16  1  0
 23 11  1  0
  1 24  1  0
  1 25  1  0
  1 26  1  0
  5 27  1  0
  6 28  1  0
  6 29  1  0
  7 30  1  0
  7 31  1  0
  9 32  1  0
 13 33  1  0
 13 34  1  0
 15 35  1  0
 15 36  1  0
 17 37  1  0
 18 38  1  0
 20 39  1  0
 21 40  1  0
 22 41  1  0
 22 42  1  0
 23 43  1  0
 23 44  1  0
M  END
>  <UniqueID>  (60) 
56

>  <SMILES>  (60) 
CS(=O)(=O)NCCc1cnn2c1CN(Cc1ccncc1)CC2

>  <Energy>  (60) 
71.45796861376944

>  <Genealogy>  (60) 
CS(=O)(=O)NCCc1cnn2c1CN(Cc1ccncc1)CC2 (3D coordinates assigned)
CS(=O)(=O)NCCc1cnn2c1CN(Cc1ccncc1)CC2 (nonaromatic ring conformer: 71.45796861376944 kcal/mol)

>  <smiles>  (60) 
CS(=O)(=O)NCCc1cnn2c1CN(Cc1ccncc1)CC2

>  <score_type>  (60) 
oracle

>  <origin>  (60) 
adg

>  <m_score__min__energy>  (60) 
-7.9199999999999999

>  <m_primary>  (60) 
energy

$$$$
60:0
     RDKit          3D

 63 66  0  0  0  0  0  0  0  0999 V2000
   56.6220   29.5430   42.8180 C   0  0  0  0  0  0  0  0  0  0  0  0
   55.9770   29.8010   44.1460 C   0  0  0  0  0  0  0  0  0  0  0  0
   54.8140   29.3680   44.3530 O   0  0  0  0  0  0  0  0  0  0  0  0
   56.6590   30.4890   45.2030 N   0  0  0  0  0  0  0  0  0  0  0  0
   57.5450   31.6080   45.0640 C   0  0  0  0  0  0  0  0  0  0  0  0
   57.6170   32.3480   43.8720 C   0  0  0  0  0  0  0  0  0  0  0  0
   58.4720   33.4480   43.7780 C   0  0  0  0  0  0  0  0  0  0  0  0
   59.2450   33.8330   44.8760 C   0  0  0  0  0  0  0  0  0  0  0  0
   59.1550   33.1270   46.0880 C   0  0  0  0  0  0  0  0  0  0  0  0
   59.9550   33.5140   47.2230 N   0  0  0  0  0  0  0  0  0  0  0  0
   59.3490   34.2330   48.3470 C   0  0  0  0  0  0  0  0  0  0  0  0
   60.1200   33.9420   49.6480 C   0  0  0  0  0  0  0  0  0  0  0  0
   60.6120   32.5420   49.6950 N   0  0  0  0  0  0  0  0  0  0  0  0
   59.4790   31.5680   49.7130 C   0  0  0  0  0  0  0  0  0  0  0  0
   59.8520   30.1290   49.2520 C   0  0  2  0  0  0  0  0  0  0  0  0
   58.6930   29.3690   48.5590 C   0  0  0  0  0  0  0  0  0  0  0  0
   59.0390   28.9570   47.1500 C   0  0  0  0  0  0  0  0  0  0  0  0
   60.1900   29.4670   46.5250 C   0  0  0  0  0  0  0  0  0  0  0  0
   60.4960   29.1060   45.2090 C   0  0  0  0  0  0  0  0  0  0  0  0
   59.6580   28.2350   44.5080 C   0  0  0  0  0  0  0  0  0  0  0  0
   58.5110   27.7230   45.1230 C   0  0  0  0  0  0  0  0  0  0  0  0
   58.2020   28.0800   46.4390 C   0  0  0  0  0  0  0  0  0  0  0  0
   60.4630   29.3130   50.3700 C   0  0  0  0  0  0  0  0  0  0  0  0
   60.8090   29.8060   51.5780 N   0  0  0  0  0  0  0  0  0  0  0  0
   61.3990   28.8090   52.2610 C   0  0  0  0  0  0  0  0  0  0  0  0
   61.4470   27.6640   51.4900 C   0  0  0  0  0  0  0  0  0  0  0  0
   60.8530   27.9840   50.2850 C   0  0  0  0  0  0  0  0  0  0  0  0
   60.7340   27.0780   49.1000 C   0  0  0  0  0  0  0  0  0  0  0  0
   61.5810   32.2650   48.5900 C   0  0  0  0  0  0  0  0  0  0  0  0
   61.3640   33.1290   47.3320 C   0  0  0  0  0  0  0  0  0  0  0  0
   58.2990   32.0150   46.1710 C   0  0  0  0  0  0  0  0  0  0  0  0
   57.6330   29.1386   42.9738 H   0  0  0  0  0  0  0  0  0  0  0  0
   56.0196   28.8166   42.2527 H   0  0  0  0  0  0  0  0  0  0  0  0
   56.6868   30.4844   42.2527 H   0  0  0  0  0  0  0  0  0  0  0  0
   56.9977   32.0599   43.0098 H   0  0  0  0  0  0  0  0  0  0  0  0
   58.5370   34.0131   42.8365 H   0  0  0  0  0  0  0  0  0  0  0  0
   59.9268   34.6921   44.7917 H   0  0  0  0  0  0  0  0  0  0  0  0
   59.3765   35.3136   48.1433 H   0  0  0  0  0  0  0  0  0  0  0  0
   58.3082   33.8974   48.4661 H   0  0  0  0  0  0  0  0  0  0  0  0
   60.9804   34.6243   49.7124 H   0  0  0  0  0  0  0  0  0  0  0  0
   59.4329   34.0919   50.4939 H   0  0  0  0  0  0  0  0  0  0  0  0
   61.1420   32.4620   50.5930 H   0  0  0  0  0  0  0  0  0  0  0  0
   59.0937   31.5093   50.7417 H   0  0  0  0  0  0  0  0  0  0  0  0
   58.7357   31.9422   48.9936 H   0  0  0  0  0  0  0  0  0  0  0  0
   60.6209   30.2676   48.4777 H   0  0  0  0  0  0  0  0  0  0  0  0
   58.4618   28.4669   49.1444 H   0  0  0  0  0  0  0  0  0  0  0  0
   57.8290   30.0479   48.5080 H   0  0  0  0  0  0  0  0  0  0  0  0
   60.8527   30.1528   47.0731 H   0  0  0  0  0  0  0  0  0  0  0  0
   61.3980   29.5085   44.7249 H   0  0  0  0  0  0  0  0  0  0  0  0
   59.9003   27.9521   43.4730 H   0  0  0  0  0  0  0  0  0  0  0  0
   57.8509   27.0383   44.5704 H   0  0  0  0  0  0  0  0  0  0  0  0
   57.3003   27.6729   46.9198 H   0  0  0  0  0  0  0  0  0  0  0  0
   60.6760   30.7810   51.9250 H   0  0  0  0  0  0  0  0  0  0  0  0
   61.7876   28.8933   53.2866 H   0  0  0  0  0  0  0  0  0  0  0  0
   61.8731   26.6917   51.7781 H   0  0  0  0  0  0  0  0  0  0  0  0
   60.5979   26.0417   49.4429 H   0  0  0  0  0  0  0  0  0  0  0  0
   59.8678   27.3801   48.4930 H   0  0  0  0  0  0  0  0  0  0  0  0
   61.6488   27.1462   48.4930 H   0  0  0  0  0  0  0  0  0  0  0  0
   62.5974   32.4523   48.9667 H   0  0  0  0  0  0  0  0  0  0  0  0
   61.4265   31.2189   48.2871 H   0  0  0  0  0  0  0  0  0  0  0  0
   61.9844   34.0347   47.4012 H   0  0  0  0  0  0  0  0  0  0  0  0
   61.6484   32.5477   46.4425 H   0  0  0  0  0  0  0  0  0  0  0  0
   58.2208   31.4584   47.1165 H   0  0  0  0  0  0  0  0  0  0  0  0
  1  2  1  0
  2  3  2  0
  2  4  1  0
  4  5  1  0
  5  6  2  0
  6  7  1  0
  7  8  2  0
  8  9  1  0
  9 10  1  0
 10 11  1  0
 11 12  1  0
 12 13  1  0
 13 14  1  0
 14 15  1  0
 15 16  1  0
 16 17  1  0
 17 18  2  0
 18 19  1  0
 19 20  2  0
 20 21  1  0
 21 22  2  0
 15 23  1  0
 23 24  1  0
 24 25  1  0
 25 26  2  0
 26 27  1  0
 27 28  1  0
 13 29  1  0
 29 30  1  0
  9 31  2  0
 31  5  1  0
 30 10  1  0
 22 17  1  0
 27 23  2  0
  1 32  1  0
  1 33  1  0
  1 34  1  0
  6 35  1  0
  7 36  1  0
  8 37  1  0
 11 38  1  0
 11 39  1  0
 12 40  1  0
 12 41  1  0
 13 42  1  0
 14 43  1  0
 14 44  1  0
 15 45  1  6
 16 46  1  0
 16 47  1  0
 18 48  1  0
 19 49  1  0
 20 50  1  0
 21 51  1  0
 22 52  1  0
 24 53  1  0
 25 54  1  0
 26 55  1  0
 28 56  1  0
 28 57  1  0
 28 58  1  0
 29 59  1  0
 29 60  1  0
 30 61  1  0
 30 62  1  0
 31 63  1  0
M  CHG  2   4  -1  13   1
M  END
>  <UniqueID>  (61) 
57

>  <SMILES>  (61) 
CC(=O)[N-]c1cccc(N2CC[NH+](C[C@H](Cc3ccccc3)c3[nH]ccc3C)CC2)c1

>  <Energy>  (61) 
105.10639067792815

>  <Genealogy>  (61) 
CC(=O)[N-]c1cccc(N2CC[NH+](CC(Cc3ccccc3)c3[nH]ccc3C)CC2)c1 (protonated)
CC(=O)[N-]c1cccc(N2CC[NH+](C[C@H](Cc3ccccc3)c3[nH]ccc3C)CC2)c1 (chirality)
CC(=O)[N-]c1cccc(N2CC[NH+](C[C@H](Cc3ccccc3)c3[nH]ccc3C)CC2)c1 (3D coordinates assigned)
CC(=O)[N-]c1cccc(N2CC[NH+](C[C@H](Cc3ccccc3)c3[nH]ccc3C)CC2)c1 (nonaromatic ring conformer: 105.10639067792815 kcal/mol)

>  <smiles>  (61) 
CC(=O)Nc1cccc(N2CCN(CC(Cc3ccccc3)c3[nH]ccc3C)CC2)c1

>  <score_type>  (61) 
oracle

>  <origin>  (61) 
adg

>  <m_score__min__energy>  (61) 
-10.529999999999999

>  <m_primary>  (61) 
energy

$$$$
61:0
     RDKit          3D

 46 48  0  0  0  0  0  0  0  0999 V2000
   61.1210   25.7790   51.3080 C   0  0  0  0  0  0  0  0  0  0  0  0
   60.8190   26.9750   50.4610 C   0  0  0  0  0  0  0  0  0  0  0  0
   60.7360   26.8610   49.0750 C   0  0  0  0  0  0  0  0  0  0  0  0
   60.4350   27.9900   48.3080 C   0  0  0  0  0  0  0  0  0  0  0  0
   60.3810   27.8800   46.8030 C   0  0  0  0  0  0  0  0  0  0  0  0
   58.9910   28.1800   46.3080 C   0  0  0  0  0  0  0  0  0  0  0  0
   58.0040   27.1800   46.3230 C   0  0  0  0  0  0  0  0  0  0  0  0
   56.7230   27.4470   45.8310 C   0  0  0  0  0  0  0  0  0  0  0  0
   56.4200   28.7100   45.3140 C   0  0  0  0  0  0  0  0  0  0  0  0
   55.1450   28.9740   44.8260 O   0  0  0  0  0  0  0  0  0  0  0  0
   57.3990   29.7080   45.2880 C   0  0  0  0  0  0  0  0  0  0  0  0
   58.6810   29.4440   45.7790 C   0  0  0  0  0  0  0  0  0  0  0  0
   60.2430   29.2180   48.9640 C   0  0  0  0  0  0  0  0  0  0  0  0
   59.9730   30.2550   48.2960 O   0  0  0  0  0  0  0  0  0  0  0  0
   60.3440   29.2820   50.3300 N   0  0  0  0  0  0  0  0  0  0  0  0
   60.1230   30.5390   51.0560 C   0  0  0  0  0  0  0  0  0  0  0  0
   58.6780   30.9620   50.9910 C   0  0  0  0  0  0  0  0  0  0  0  0
   57.7670   30.1020   51.1260 O   0  0  0  0  0  0  0  0  0  0  0  0
   58.3040   32.3230   50.7370 N   0  0  0  0  0  0  0  0  0  0  0  0
   59.2260   33.4120   50.4310 C   0  0  0  0  0  0  0  0  0  0  0  0
   59.5700   33.4250   48.9650 C   0  0  0  0  0  0  0  0  0  0  0  0
   60.9130   33.4590   48.5570 C   0  0  0  0  0  0  0  0  0  0  0  0
   61.2360   33.4790   47.1960 C   0  0  0  0  0  0  0  0  0  0  0  0
   60.2220   33.4600   46.2360 C   0  0  0  0  0  0  0  0  0  0  0  0
   58.8830   33.4190   46.6320 C   0  0  0  0  0  0  0  0  0  0  0  0
   57.4970   33.3970   45.3180 Br  0  0  0  0  0  0  0  0  0  0  0  0
   58.5560   33.3980   47.9930 C   0  0  0  0  0  0  0  0  0  0  0  0
   60.6130   28.1850   51.0440 N   0  0  0  0  0  0  0  0  0  0  0  0
   61.0513   26.0551   52.3705 H   0  0  0  0  0  0  0  0  0  0  0  0
   60.3960   24.9815   51.0881 H   0  0  0  0  0  0  0  0  0  0  0  0
   62.1377   25.4212   51.0881 H   0  0  0  0  0  0  0  0  0  0  0  0
   60.9061   25.8895   48.5878 H   0  0  0  0  0  0  0  0  0  0  0  0
   61.0869   28.5985   46.3608 H   0  0  0  0  0  0  0  0  0  0  0  0
   60.6530   26.8556   46.5085 H   0  0  0  0  0  0  0  0  0  0  0  0
   58.2402   26.1831   46.7235 H   0  0  0  0  0  0  0  0  0  0  0  0
   55.9524   26.6622   45.8507 H   0  0  0  0  0  0  0  0  0  0  0  0
   57.1602   30.7016   44.8809 H   0  0  0  0  0  0  0  0  0  0  0  0
   59.4505   30.2295   45.7510 H   0  0  0  0  0  0  0  0  0  0  0  0
   60.4085   30.3995   52.1091 H   0  0  0  0  0  0  0  0  0  0  0  0
   60.7358   31.3231   50.5872 H   0  0  0  0  0  0  0  0  0  0  0  0
   58.7554   34.3693   50.6996 H   0  0  0  0  0  0  0  0  0  0  0  0
   60.1503   33.2645   51.0089 H   0  0  0  0  0  0  0  0  0  0  0  0
   61.7144   33.4700   49.3105 H   0  0  0  0  0  0  0  0  0  0  0  0
   62.2897   33.5097   46.8817 H   0  0  0  0  0  0  0  0  0  0  0  0
   60.4781   33.4773   45.1664 H   0  0  0  0  0  0  0  0  0  0  0  0
   57.5011   33.3602   48.3026 H   0  0  0  0  0  0  0  0  0  0  0  0
  1  2  1  0
  2  3  1  0
  3  4  2  0
  4  5  1  0
  5  6  1  0
  6  7  2  0
  7  8  1  0
  8  9  2  0
  9 10  1  0
  9 11  1  0
 11 12  2  0
  4 13  1  0
 13 14  2  0
 13 15  1  0
 15 16  1  0
 16 17  1  0
 17 18  2  0
 17 19  1  0
 19 20  1  0
 20 21  1  0
 21 22  2  0
 22 23  1  0
 23 24  2  0
 24 25  1  0
 25 26  1  0
 25 27  2  0
 15 28  1  0
 28  2  2  0
 12  6  1  0
 27 21  1  0
  1 29  1  0
  1 30  1  0
  1 31  1  0
  3 32  1  0
  5 33  1  0
  5 34  1  0
  7 35  1  0
  8 36  1  0
 11 37  1  0
 12 38  1  0
 16 39  1  0
 16 40  1  0
 20 41  1  0
 20 42  1  0
 22 43  1  0
 23 44  1  0
 24 45  1  0
 27 46  1  0
M  CHG  2  10  -1  19  -1
M  END
>  <UniqueID>  (62) 
58

>  <SMILES>  (62) 
Cc1cc(Cc2ccc([O-])cc2)c(=O)n(CC(=O)[N-]Cc2cccc(Br)c2)n1

>  <Energy>  (62) 
45.56610573371778

>  <Genealogy>  (62) 
Cc1cc(Cc2ccc([O-])cc2)c(=O)n(CC(=O)[N-]Cc2cccc(Br)c2)n1 (protonated)
Cc1cc(Cc2ccc([O-])cc2)c(=O)n(CC(=O)[N-]Cc2cccc(Br)c2)n1 (3D coordinates assigned)
Cc1cc(Cc2ccc([O-])cc2)c(=O)n(CC(=O)[N-]Cc2cccc(Br)c2)n1 (optimized conformer: 45.56610573371778 kcal/mol)

>  <smiles>  (62) 
Cc1cc(Cc2ccc(O)cc2)c(=O)n(CC(=O)NCc2cccc(Br)c2)n1

>  <score_type>  (62) 
oracle

>  <origin>  (62) 
adg

>  <m_score__min__energy>  (62) 
-13.039999999999999

>  <m_primary>  (62) 
energy

$$$$
62:0
     RDKit          3D

 29 31  0  0  0  0  0  0  0  0999 V2000
   60.7570   26.4100   47.2600 C   0  0  0  0  0  0  0  0  0  0  0  0
   60.3150   26.3800   46.0050 C   0  0  0  0  0  0  0  0  0  0  0  0
   59.4350   27.4280   45.4560 C   0  0  0  0  0  0  0  0  0  0  0  0
   60.0270   28.5880   44.9130 C   0  0  0  0  0  0  0  0  0  0  0  0
   59.2350   29.6750   44.4920 C   0  0  0  0  0  0  0  0  0  0  0  0
   57.8390   29.6230   44.6050 C   0  0  0  0  0  0  0  0  0  0  0  0
   57.2610   28.4600   45.1080 C   0  0  0  0  0  0  0  0  0  0  0  0
   55.9410   28.2390   45.2550 N   0  0  0  0  0  0  0  0  0  0  0  0
   55.8680   26.9770   45.7270 C   0  0  0  0  0  0  0  0  0  0  0  0
   54.6640   26.3400   45.9970 O   0  0  0  0  0  0  0  0  0  0  0  0
   57.1170   26.3930   45.8680 C   0  0  0  0  0  0  0  0  0  0  0  0
   57.3490   24.9810   46.2200 C   0  0  0  0  0  0  0  0  0  0  0  0
   56.7490   23.9690   45.5720 C   0  0  0  0  0  0  0  0  0  0  0  0
   57.1170   23.5430   44.3480 N   0  0  0  0  0  0  0  0  0  0  0  0
   56.2530   22.5430   44.0860 C   0  0  0  0  0  0  0  0  0  0  0  0
   56.2820   21.8830   43.0150 O   0  0  0  0  0  0  0  0  0  0  0  0
   55.3520   22.3060   45.0620 N   0  0  0  0  0  0  0  0  0  0  0  0
   55.6660   23.2130   46.0040 C   0  0  0  0  0  0  0  0  0  0  0  0
   55.0060   23.3130   47.1600 C   0  0  0  0  0  0  0  0  0  0  0  0
   58.0240   27.3760   45.4930 C   0  0  0  0  0  0  0  0  0  0  0  0
   61.4123   25.6085   47.6316 H   0  0  0  0  0  0  0  0  0  0  0  0
   60.4670   27.2363   47.9256 H   0  0  0  0  0  0  0  0  0  0  0  0
   60.6164   25.5451   45.3553 H   0  0  0  0  0  0  0  0  0  0  0  0
   61.1213   28.6446   44.8170 H   0  0  0  0  0  0  0  0  0  0  0  0
   59.7159   30.5706   44.0717 H   0  0  0  0  0  0  0  0  0  0  0  0
   57.2162   30.4784   44.3043 H   0  0  0  0  0  0  0  0  0  0  0  0
   58.0391   24.7471   47.0440 H   0  0  0  0  0  0  0  0  0  0  0  0
   55.3022   24.0725   47.8985 H   0  0  0  0  0  0  0  0  0  0  0  0
   54.1660   22.6359   47.3741 H   0  0  0  0  0  0  0  0  0  0  0  0
  1  2  2  0
  2  3  1  0
  3  4  2  0
  4  5  1  0
  5  6  2  0
  6  7  1  0
  7  8  1  0
  8  9  1  0
  9 10  1  0
  9 11  2  0
 11 12  1  0
 12 13  2  3
 13 14  1  0
 14 15  1  0
 15 16  2  0
 15 17  1  0
 17 18  1  0
 18 19  2  0
 11 20  1  0
 20  3  1  0
 20  7  2  0
 18 13  1  0
  1 21  1  0
  1 22  1  0
  2 23  1  0
  4 24  1  0
  5 25  1  0
  6 26  1  0
 12 27  1  0
 19 28  1  0
 19 29  1  0
M  CHG  4   8  -1  10  -1  14  -1  17  -1
M  END
>  <UniqueID>  (63) 
59

>  <SMILES>  (63) 
C=Cc1cccc2[n-]c([O-])c(C=c3[n-]c(=O)[n-]c3=C)c12

>  <Energy>  (63) 
105.64816773989793

>  <Genealogy>  (63) 
C=Cc1cccc2[n-]c([O-])c(C=c3[n-]c(=O)[n-]c3=C)c12 (protonated)
C=Cc1cccc2[n-]c([O-])c(C=c3[n-]c(=O)[n-]c3=C)c12 (3D coordinates assigned)
C=Cc1cccc2[n-]c([O-])c(C=c3[n-]c(=O)[n-]c3=C)c12 (optimized conformer: 105.64816773989793 kcal/mol)

>  <smiles>  (63) 
C=Cc1cccc2[nH]c(O)c(C=c3[nH]c(=O)[nH]c3=C)c12

>  <score_type>  (63) 
oracle

>  <origin>  (63) 
adg

>  <m_score__min__energy>  (63) 
-15.16

>  <m_primary>  (63) 
energy

$$$$
63:0
     RDKit          3D

 49 52  0  0  0  0  0  0  0  0999 V2000
   58.4827   33.6528   43.4396 H   0  0  0  0  0  0  0  0  0  0  0  0
   58.1940   32.6800   43.0150 C   0  0  0  0  0  0  0  0  0  0  0  0
   58.0973   32.5623   41.9256 H   0  0  0  0  0  0  0  0  0  0  0  0
   57.9610   31.6420   43.8220 C   0  0  0  0  0  0  0  0  0  0  0  0
   57.9910   31.6460   45.2120 C   0  0  0  0  0  0  0  0  0  0  0  0
   58.3240   32.7600   46.1210 C   0  0  0  0  0  0  0  0  0  0  0  0
   57.3920   33.4850   46.5620 O   0  0  0  0  0  0  0  0  0  0  0  0
   59.6760   33.0020   46.5440 N   0  0  0  0  0  0  0  0  0  0  0  0
   60.5220   31.8710   46.9580 C   0  0  0  0  0  0  0  0  0  0  0  0
   59.9912   31.2914   47.7277 H   0  0  0  0  0  0  0  0  0  0  0  0
   60.7270   31.2528   46.0716 H   0  0  0  0  0  0  0  0  0  0  0  0
   61.8620   32.3470   47.5300 C   0  0  0  0  0  0  0  0  0  0  0  0
   62.3835   31.4918   47.9846 H   0  0  0  0  0  0  0  0  0  0  0  0
   62.4617   32.7725   46.7119 H   0  0  0  0  0  0  0  0  0  0  0  0
   61.6480   33.4370   48.6030 C   0  0  0  0  0  0  0  0  0  0  0  0
   61.1194   32.9811   49.4531 H   0  0  0  0  0  0  0  0  0  0  0  0
   62.9590   33.9220   49.1030 N   0  0  0  0  0  0  0  0  0  0  0  0
   63.1000   33.9740   50.5700 C   0  0  0  0  0  0  0  0  0  0  0  0
   63.1884   35.0194   50.9007 H   0  0  0  0  0  0  0  0  0  0  0  0
   62.2193   33.5299   51.0569 H   0  0  0  0  0  0  0  0  0  0  0  0
   64.3580   33.2050   50.9430 C   0  0  0  0  0  0  0  0  0  0  0  0
   64.9277   33.7446   51.7139 H   0  0  0  0  0  0  0  0  0  0  0  0
   64.1298   32.2129   51.3596 H   0  0  0  0  0  0  0  0  0  0  0  0
   65.1510   33.1160   49.6600 C   0  0  0  0  0  0  0  0  0  0  0  0
   65.8477   33.9628   49.5731 H   0  0  0  0  0  0  0  0  0  0  0  0
   65.7659   32.2053   49.6086 H   0  0  0  0  0  0  0  0  0  0  0  0
   64.1030   33.1690   48.5670 C   0  0  0  0  0  0  0  0  0  0  0  0
   64.5079   33.6781   47.6800 H   0  0  0  0  0  0  0  0  0  0  0  0
   63.7990   32.1557   48.2657 H   0  0  0  0  0  0  0  0  0  0  0  0
   60.6880   34.5810   48.1360 C   0  0  0  0  0  0  0  0  0  0  0  0
   59.8311   34.6218   48.8245 H   0  0  0  0  0  0  0  0  0  0  0  0
   61.2660   35.5169   48.1417 H   0  0  0  0  0  0  0  0  0  0  0  0
   60.1600   34.3790   46.7120 C   0  0  0  0  0  0  0  0  0  0  0  0
   59.3330   35.0805   46.5276 H   0  0  0  0  0  0  0  0  0  0  0  0
   60.9744   34.5644   45.9962 H   0  0  0  0  0  0  0  0  0  0  0  0
   57.6090   30.3800   45.6160 C   0  0  0  0  0  0  0  0  0  0  0  0
   57.5079   30.0204   46.6506 H   0  0  0  0  0  0  0  0  0  0  0  0
   57.3790   29.6550   44.4590 C   0  0  0  0  0  0  0  0  0  0  0  0
   57.0240   28.3620   44.4380 C   0  0  0  0  0  0  0  0  0  0  0  0
   56.5397   27.9751   43.5293 H   0  0  0  0  0  0  0  0  0  0  0  0
   57.2420   27.4270   45.5560 C   0  0  0  0  0  0  0  0  0  0  0  0
   58.4360   27.2530   46.1490 N   0  0  0  0  0  0  0  0  0  0  0  0
   58.1650   26.3970   47.1570 C   0  0  0  0  0  0  0  0  0  0  0  0
   59.0490   25.9760   47.9460 O   0  0  0  0  0  0  0  0  0  0  0  0
   56.8680   26.0350   47.2590 N   0  0  0  0  0  0  0  0  0  0  0  0
   56.2940   26.7050   46.2470 C   0  0  0  0  0  0  0  0  0  0  0  0
   54.9280   26.6930   45.9940 O   0  0  0  0  0  0  0  0  0  0  0  0
   57.6040   30.4230   43.3690 N   0  0  0  0  0  0  0  0  0  0  0  0
   57.5430   30.1370   42.3670 H   0  0  0  0  0  0  0  0  0  0  0  0
  1  2  1  0
  2  3  1  0
  2  4  2  0
  4  5  1  0
  5  6  1  0
  6  7  2  0
  6  8  1  0
  8  9  1  0
  9 10  1  0
  9 11  1  0
  9 12  1  0
 12 13  1  0
 12 14  1  0
 12 15  1  0
 15 16  1  0
 15 17  1  0
 17 18  1  0
 18 19  1  0
 18 20  1  0
 18 21  1  0
 21 22  1  0
 21 23  1  0
 21 24  1  0
 24 25  1  0
 24 26  1  0
 24 27  1  0
 27 28  1  0
 27 29  1  0
 15 30  1  0
 30 31  1  0
 30 32  1  0
 30 33  1  0
 33 34  1  0
 33 35  1  0
  5 36  2  0
 36 37  1  0
 36 38  1  0
 38 39  2  0
 39 40  1  0
 39 41  1  0
 41 42  1  0
 42 43  1  0
 43 44  2  0
 43 45  1  0
 45 46  1  0
 46 47  1  0
 38 48  1  0
 48 49  1  0
 48  4  1  0
 33  8  1  0
 46 41  2  0
 27 17  1  0
M  CHG  3  42  -1  45  -1  47  -1
M  END
>  <UniqueID>  (64) 
60

>  <SMILES>  (64) 
C=c1[nH]/c(=C\c2[n-]c(=O)[n-]c2[O-])cc1C(=O)N1CCC(N2CCCC2)CC1

>  <Energy>  (64) 
126.44746711883624

>  <Genealogy>  (64) 
C=c1[nH]c(=Cc2[n-]c(=O)[n-]c2[O-])cc1C(=O)N1CCC(N2CCCC2)CC1 (protonated)
C=c1[nH]/c(=C\c2[n-]c(=O)[n-]c2[O-])cc1C(=O)N1CCC(N2CCCC2)CC1 (cis-trans isomerization)
C=c1[nH]/c(=C\c2[n-]c(=O)[n-]c2[O-])cc1C(=O)N1CCC(N2CCCC2)CC1 (3D coordinates assigned)
C=c1[nH]/c(=C\c2[n-]c(=O)[n-]c2[O-])cc1C(=O)N1CCC(N2CCCC2)CC1 (nonaromatic ring conformer: 126.44746711883624 kcal/mol)

>  <smiles>  (64) 
C=c1[nH]c(=Cc2[nH]c(=O)[nH]c2O)cc1C(=O)N1CCC(N2CCCC2)CC1

>  <score_type>  (64) 
oracle

>  <origin>  (64) 
adg

>  <m_score__min__energy>  (64) 
-17.25

>  <m_primary>  (64) 
energy

$$$$
64:0
     RDKit          3D

 46 48  0  0  0  0  0  0  0  0999 V2000
   52.0490   29.7380   49.7500 C   0  0  0  0  0  0  0  0  0  0  0  0
   51.8050   31.1070   50.8630 S   0  0  0  0  0  0  0  0  0  0  0  0
   50.9800   30.6360   52.0270 O   0  0  0  0  0  0  0  0  0  0  0  0
   51.0700   32.2210   50.1720 O   0  0  0  0  0  0  0  0  0  0  0  0
   53.3350   31.6760   51.4540 N   0  0  0  0  0  0  0  0  0  0  0  0
   54.3870   30.8300   51.9540 C   0  0  0  0  0  0  0  0  0  0  0  0
   54.1280   29.7070   52.7620 C   0  0  0  0  0  0  0  0  0  0  0  0
   55.1790   28.9150   53.2290 C   0  0  0  0  0  0  0  0  0  0  0  0
   56.4970   29.2200   52.8850 C   0  0  0  0  0  0  0  0  0  0  0  0
   56.7740   30.3150   52.0610 C   0  0  0  0  0  0  0  0  0  0  0  0
   58.1390   30.5940   51.7130 N   0  0  0  0  0  0  0  0  0  0  0  0
   58.6990   31.8880   51.4430 C   0  0  0  0  0  0  0  0  0  0  0  0
   58.6360   32.7700   52.3390 O   0  0  0  0  0  0  0  0  0  0  0  0
   59.3800   32.2080   50.1700 C   0  0  0  0  0  0  0  0  0  0  0  0
   58.7240   32.0850   48.9340 C   0  0  0  0  0  0  0  0  0  0  0  0
   59.3950   32.4290   47.7480 C   0  0  0  0  0  0  0  0  0  0  0  0
   58.7000   32.3470   46.4370 C   0  0  0  0  0  0  0  0  0  0  0  0
   58.5980   33.4810   45.6120 C   0  0  0  0  0  0  0  0  0  0  0  0
   57.9360   33.4050   44.3830 C   0  0  0  0  0  0  0  0  0  0  0  0
   57.3670   32.2010   43.9650 C   0  0  0  0  0  0  0  0  0  0  0  0
   57.4530   31.0640   44.7780 C   0  0  0  0  0  0  0  0  0  0  0  0
   56.7500   29.5380   44.2480 S   0  0  0  0  0  0  0  0  0  0  0  0
   55.1440   29.3980   44.8690 N   0  0  0  0  0  0  0  0  0  0  0  0
   56.7150   29.4900   42.7470 O   0  0  0  0  0  0  0  0  0  0  0  0
   57.5800   28.3890   44.7480 O   0  0  0  0  0  0  0  0  0  0  0  0
   58.1240   31.1370   46.0060 C   0  0  0  0  0  0  0  0  0  0  0  0
   60.7290   32.8590   47.8250 C   0  0  0  0  0  0  0  0  0  0  0  0
   61.3590   32.9360   49.0680 C   0  0  0  0  0  0  0  0  0  0  0  0
   60.6790   32.6140   50.1990 N   0  0  0  0  0  0  0  0  0  0  0  0
   55.7180   31.1320   51.6190 C   0  0  0  0  0  0  0  0  0  0  0  0
   52.2129   28.8182   50.3306 H   0  0  0  0  0  0  0  0  0  0  0  0
   51.1582   29.6176   49.1160 H   0  0  0  0  0  0  0  0  0  0  0  0
   52.9266   29.9328   49.1160 H   0  0  0  0  0  0  0  0  0  0  0  0
   53.4770   32.7110   51.4570 H   0  0  0  0  0  0  0  0  0  0  0  0
   53.0914   29.4517   53.0272 H   0  0  0  0  0  0  0  0  0  0  0  0
   54.9674   28.0470   53.8707 H   0  0  0  0  0  0  0  0  0  0  0  0
   57.3205   28.5967   53.2635 H   0  0  0  0  0  0  0  0  0  0  0  0
   57.6870   31.7201   48.8944 H   0  0  0  0  0  0  0  0  0  0  0  0
   59.0419   34.4340   45.9356 H   0  0  0  0  0  0  0  0  0  0  0  0
   57.8633   34.2970   43.7434 H   0  0  0  0  0  0  0  0  0  0  0  0
   56.8503   32.1451   42.9955 H   0  0  0  0  0  0  0  0  0  0  0  0
   55.1690   28.6680   45.6180 H   0  0  0  0  0  0  0  0  0  0  0  0
   58.2013   30.2407   46.6389 H   0  0  0  0  0  0  0  0  0  0  0  0
   61.2750   33.1338   46.9105 H   0  0  0  0  0  0  0  0  0  0  0  0
   62.4088   33.2582   49.1320 H   0  0  0  0  0  0  0  0  0  0  0  0
   55.9364   32.0175   51.0040 H   0  0  0  0  0  0  0  0  0  0  0  0
  1  2  1  0
  2  3  2  0
  2  4  2  0
  2  5  1  0
  5  6  1  0
  6  7  2  0
  7  8  1  0
  8  9  2  0
  9 10  1  0
 10 11  1  0
 11 12  1  0
 12 13  2  0
 12 14  1  0
 14 15  2  0
 15 16  1  0
 16 17  1  0
 17 18  2  0
 18 19  1  0
 19 20  2  0
 20 21  1  0
 21 22  1  0
 22 23  1  0
 22 24  2  0
 22 25  2  0
 21 26  2  0
 16 27  2  0
 27 28  1  0
 28 29  2  0
 10 30  2  0
 30  6  1  0
 29 14  1  0
 26 17  1  0
  1 31  1  0
  1 32  1  0
  1 33  1  0
  5 34  1  0
  7 35  1  0
  8 36  1  0
  9 37  1  0
 15 38  1  0
 18 39  1  0
 19 40  1  0
 20 41  1  0
 23 42  1  0
 26 43  1  0
 27 44  1  0
 28 45  1  0
 30 46  1  0
M  CHG  2  11  -1  23  -1
M  END
>  <UniqueID>  (65) 
61

>  <SMILES>  (65) 
CS(=O)(=O)Nc1cccc([N-]C(=O)c2cc(-c3cccc(S([NH-])(=O)=O)c3)ccn2)c1

>  <Energy>  (65) 
58.32930449536821

>  <Genealogy>  (65) 
CS(=O)(=O)Nc1cccc([N-]C(=O)c2cc(-c3cccc(S([NH-])(=O)=O)c3)ccn2)c1 (protonated)
CS(=O)(=O)Nc1cccc([N-]C(=O)c2cc(-c3cccc(S([NH-])(=O)=O)c3)ccn2)c1 (3D coordinates assigned)
CS(=O)(=O)Nc1cccc([N-]C(=O)c2cc(-c3cccc(S([NH-])(=O)=O)c3)ccn2)c1 (optimized conformer: 58.32930449536821 kcal/mol)

>  <smiles>  (65) 
CS(=O)(=O)Nc1cccc(NC(=O)c2cc(-c3cccc(S(N)(=O)=O)c3)ccn2)c1

>  <score_type>  (65) 
oracle

>  <origin>  (65) 
adg

>  <m_score__min__energy>  (65) 
-13.390000000000001

>  <m_primary>  (65) 
energy

$$$$
65:0
     RDKit          3D

 38 40  0  0  0  0  0  0  0  0999 V2000
   58.4532   33.1905   47.9894 H   0  0  0  0  0  0  0  0  0  0  0  0
   59.1680   33.3960   47.1790 C   0  0  0  0  0  0  0  0  0  0  0  0
   58.7560   34.1920   46.1710 C   0  0  0  0  0  0  0  0  0  0  0  0
   59.4520   35.4200   45.8560 C   0  0  0  0  0  0  0  0  0  0  0  0
   60.0110   36.4010   45.6040 N   0  0  0  0  0  0  0  0  0  0  0  0
   57.6440   33.7810   45.2770 C   0  0  0  0  0  0  0  0  0  0  0  0
   56.6870   34.5760   45.0760 O   0  0  0  0  0  0  0  0  0  0  0  0
   57.6080   32.4540   44.6380 C   0  0  0  0  0  0  0  0  0  0  0  0
   57.9950   32.2130   43.3680 N   0  0  0  0  0  0  0  0  0  0  0  0
   57.8220   30.9140   43.1880 N   0  0  0  0  0  0  0  0  0  0  0  0
   58.0440   30.3970   42.3080 H   0  0  0  0  0  0  0  0  0  0  0  0
   57.3370   30.4080   44.3350 C   0  0  0  0  0  0  0  0  0  0  0  0
   57.0490   28.9630   44.5850 C   0  0  0  0  0  0  0  0  0  0  0  0
   56.2595   28.8735   45.3457 H   0  0  0  0  0  0  0  0  0  0  0  0
   56.7149   28.4903   43.6496 H   0  0  0  0  0  0  0  0  0  0  0  0
   58.2980   28.2750   45.0750 C   0  0  0  0  0  0  0  0  0  0  0  0
   59.5420   28.9020   44.8820 C   0  0  0  0  0  0  0  0  0  0  0  0
   59.5924   29.8601   44.3439 H   0  0  0  0  0  0  0  0  0  0  0  0
   60.7140   28.3180   45.3680 C   0  0  0  0  0  0  0  0  0  0  0  0
   61.6827   28.8128   45.2046 H   0  0  0  0  0  0  0  0  0  0  0  0
   60.6580   27.1070   46.0610 C   0  0  0  0  0  0  0  0  0  0  0  0
   61.5825   26.6474   46.4406 H   0  0  0  0  0  0  0  0  0  0  0  0
   59.4300   26.4800   46.2720 C   0  0  0  0  0  0  0  0  0  0  0  0
   59.3903   25.5280   46.8216 H   0  0  0  0  0  0  0  0  0  0  0  0
   58.2470   27.0540   45.7890 C   0  0  0  0  0  0  0  0  0  0  0  0
   56.5990   26.1340   46.1410 Br  0  0  0  0  0  0  0  0  0  0  0  0
   57.1970   31.3540   45.2290 O   0  0  0  0  0  0  0  0  0  0  0  0
   60.5120   32.7770   47.2770 C   0  0  0  0  0  0  0  0  0  0  0  0
   61.6710   33.5480   47.0650 C   0  0  0  0  0  0  0  0  0  0  0  0
   61.5776   34.6079   46.7860 H   0  0  0  0  0  0  0  0  0  0  0  0
   62.9380   32.9780   47.2060 C   0  0  0  0  0  0  0  0  0  0  0  0
   63.8370   33.5856   47.0253 H   0  0  0  0  0  0  0  0  0  0  0  0
   63.0650   31.6380   47.5760 C   0  0  0  0  0  0  0  0  0  0  0  0
   64.0635   31.1882   47.6792 H   0  0  0  0  0  0  0  0  0  0  0  0
   61.9250   30.8690   47.8150 C   0  0  0  0  0  0  0  0  0  0  0  0
   62.0290   29.8150   48.1120 H   0  0  0  0  0  0  0  0  0  0  0  0
   60.6500   31.4310   47.6790 C   0  0  0  0  0  0  0  0  0  0  0  0
   59.2480   30.4140   47.9960 Cl  0  0  0  0  0  0  0  0  0  0  0  0
  1  2  1  0
  2  3  2  0
  3  4  1  0
  4  5  3  0
  3  6  1  0
  6  7  2  0
  6  8  1  0
  8  9  2  0
  9 10  1  0
 10 11  1  0
 10 12  2  0
 12 13  1  0
 13 14  1  0
 13 15  1  0
 13 16  1  0
 16 17  2  0
 17 18  1  0
 17 19  1  0
 19 20  1  0
 19 21  2  0
 21 22  1  0
 21 23  1  0
 23 24  1  0
 23 25  2  0
 25 26  1  0
 12 27  1  0
  2 28  1  0
 28 29  2  0
 29 30  1  0
 29 31  1  0
 31 32  1  0
 31 33  2  0
 33 34  1  0
 33 35  1  0
 35 36  1  0
 35 37  2  0
 37 38  1  0
 27  8  1  0
 37 28  1  0
 25 16  1  0
M  CHG  1  10   1
M  END
>  <UniqueID>  (66) 
62

>  <SMILES>  (66) 
N#C/C(=C\c1ccccc1Cl)C(=O)c1n[nH+]c(Cc2ccccc2Br)o1

>  <Energy>  (66) 
82.26133741701985

>  <Genealogy>  (66) 
N#CC(=Cc1ccccc1Cl)C(=O)c1n[nH+]c(Cc2ccccc2Br)o1 (protonated)
N#C/C(=C\c1ccccc1Cl)C(=O)c1n[nH+]c(Cc2ccccc2Br)o1 (cis-trans isomerization)
N#C/C(=C\c1ccccc1Cl)C(=O)c1n[nH+]c(Cc2ccccc2Br)o1 (3D coordinates assigned)
N#C/C(=C\c1ccccc1Cl)C(=O)c1n[nH+]c(Cc2ccccc2Br)o1 (optimized conformer: 82.26133741701985 kcal/mol)

>  <smiles>  (66) 
N#CC(=Cc1ccccc1Cl)C(=O)c1nnc(Cc2ccccc2Br)o1

>  <score_type>  (66) 
oracle

>  <origin>  (66) 
adg

>  <m_score__min__energy>  (66) 
-8.2699999999999996

>  <m_primary>  (66) 
energy

$$$$
66:0
     RDKit          3D

 53 55  0  0  0  0  0  0  0  0999 V2000
   57.8710   24.7030   45.4600 C   0  0  0  0  0  0  0  0  0  0  0  0
   57.4500   26.4230   45.6270 S   0  0  0  0  0  0  0  0  0  0  0  0
   57.3890   27.0660   44.2690 O   0  0  0  0  0  0  0  0  0  0  0  0
   56.1010   26.5440   46.2790 O   0  0  0  0  0  0  0  0  0  0  0  0
   58.6730   27.2270   46.6050 C   0  0  0  0  0  0  0  0  0  0  0  0
   59.1420   26.6160   47.7750 C   0  0  0  0  0  0  0  0  0  0  0  0
   60.0950   27.2590   48.5690 C   0  0  0  0  0  0  0  0  0  0  0  0
   60.5710   28.5220   48.2080 C   0  0  0  0  0  0  0  0  0  0  0  0
   60.0830   29.1610   47.0560 C   0  0  0  0  0  0  0  0  0  0  0  0
   60.6080   30.5200   46.6600 C   0  0  0  0  0  0  0  0  0  0  0  0
   60.3350   31.5490   47.7020 N   0  0  0  0  0  0  0  0  0  0  0  0
   59.0080   32.2000   47.4810 C   0  0  0  0  0  0  0  0  0  0  0  0
   58.5050   32.1400   46.0480 C   0  0  0  0  0  0  0  0  0  0  0  0
   58.8540   33.1280   45.1130 C   0  0  0  0  0  0  0  0  0  0  0  0
   58.3950   33.0500   43.7980 C   0  0  0  0  0  0  0  0  0  0  0  0
   57.5740   31.9940   43.3990 C   0  0  0  0  0  0  0  0  0  0  0  0
   57.1860   31.0090   44.3240 C   0  0  0  0  0  0  0  0  0  0  0  0
   56.3110   29.8860   43.9080 C   0  0  0  0  0  0  0  0  0  0  0  0
   55.5300   29.1800   44.8710 N   0  0  0  0  0  0  0  0  0  0  0  0
   56.2440   29.5470   42.6950 O   0  0  0  0  0  0  0  0  0  0  0  0
   57.6450   31.1010   45.6500 C   0  0  0  0  0  0  0  0  0  0  0  0
   61.4690   32.5090   47.8930 C   0  0  0  0  0  0  0  0  0  0  0  0
   62.7790   31.7900   48.3110 C   0  0  0  0  0  0  0  0  0  0  0  0
   63.9590   32.7810   48.4470 C   0  0  0  0  0  0  0  0  0  0  0  0
   63.7160   34.0370   47.8380 O   0  0  0  0  0  0  0  0  0  0  0  0
   63.2130   33.8440   46.5350 C   0  0  0  0  0  0  0  0  0  0  0  0
   61.7710   33.3110   46.5910 C   0  0  0  0  0  0  0  0  0  0  0  0
   59.1530   28.4930   46.2420 C   0  0  0  0  0  0  0  0  0  0  0  0
   57.9809   24.2538   46.4581 H   0  0  0  0  0  0  0  0  0  0  0  0
   57.0738   24.1822   44.9093 H   0  0  0  0  0  0  0  0  0  0  0  0
   58.8186   24.6092   44.9093 H   0  0  0  0  0  0  0  0  0  0  0  0
   58.7591   25.6277   48.0693 H   0  0  0  0  0  0  0  0  0  0  0  0
   60.4711   26.7701   49.4798 H   0  0  0  0  0  0  0  0  0  0  0  0
   61.3315   29.0184   48.8287 H   0  0  0  0  0  0  0  0  0  0  0  0
   61.6950   30.4499   46.5063 H   0  0  0  0  0  0  0  0  0  0  0  0
   60.0946   30.8268   45.7368 H   0  0  0  0  0  0  0  0  0  0  0  0
   58.2693   31.7007   48.1252 H   0  0  0  0  0  0  0  0  0  0  0  0
   59.1394   33.2654   47.7211 H   0  0  0  0  0  0  0  0  0  0  0  0
   59.4935   33.9689   45.4196 H   0  0  0  0  0  0  0  0  0  0  0  0
   58.6816   33.8248   43.0717 H   0  0  0  0  0  0  0  0  0  0  0  0
   57.2291   31.9323   42.3563 H   0  0  0  0  0  0  0  0  0  0  0  0
   55.5560   28.1380   44.9230 H   0  0  0  0  0  0  0  0  0  0  0  0
   57.3266   30.3490   46.3870 H   0  0  0  0  0  0  0  0  0  0  0  0
   61.1446   33.1899   48.6937 H   0  0  0  0  0  0  0  0  0  0  0  0
   62.6188   31.2919   49.2786 H   0  0  0  0  0  0  0  0  0  0  0  0
   63.0335   31.0601   47.5284 H   0  0  0  0  0  0  0  0  0  0  0  0
   64.1543   32.9450   49.5170 H   0  0  0  0  0  0  0  0  0  0  0  0
   64.8196   32.3319   47.9296 H   0  0  0  0  0  0  0  0  0  0  0  0
   63.2244   34.8030   45.9962 H   0  0  0  0  0  0  0  0  0  0  0  0
   63.8449   33.1102   46.0133 H   0  0  0  0  0  0  0  0  0  0  0  0
   61.0793   34.1646   46.5365 H   0  0  0  0  0  0  0  0  0  0  0  0
   61.6411   32.6229   45.7427 H   0  0  0  0  0  0  0  0  0  0  0  0
   58.7993   28.9663   45.3142 H   0  0  0  0  0  0  0  0  0  0  0  0
  1  2  1  0
  2  3  2  0
  2  4  2  0
  2  5  1  0
  5  6  2  0
  6  7  1  0
  7  8  2  0
  8  9  1  0
  9 10  1  0
 10 11  1  0
 11 12  1  0
 12 13  1  0
 13 14  2  0
 14 15  1  0
 15 16  2  0
 16 17  1  0
 17 18  1  0
 18 19  1  0
 18 20  2  0
 17 21  2  0
 11 22  1  0
 22 23  1  0
 23 24  1  0
 24 25  1  0
 25 26  1  0
 26 27  1  0
  9 28  2  0
 28  5  1  0
 21 13  1  0
 27 22  1  0
  1 29  1  0
  1 30  1  0
  1 31  1  0
  6 32  1  0
  7 33  1  0
  8 34  1  0
 10 35  1  0
 10 36  1  0
 12 37  1  0
 12 38  1  0
 14 39  1  0
 15 40  1  0
 16 41  1  0
 19 42  1  0
 21 43  1  0
 22 44  1  0
 23 45  1  0
 23 46  1  0
 24 47  1  0
 24 48  1  0
 26 49  1  0
 26 50  1  0
 27 51  1  0
 27 52  1  0
 28 53  1  0
M  CHG  1  19  -1
M  END
>  <UniqueID>  (67) 
63

>  <SMILES>  (67) 
CS(=O)(=O)c1cccc(CN(Cc2cccc(C([NH-])=O)c2)C2CCOCC2)c1

>  <Energy>  (67) 
68.80755669455745

>  <Genealogy>  (67) 
CS(=O)(=O)c1cccc(CN(Cc2cccc(C([NH-])=O)c2)C2CCOCC2)c1 (protonated)
CS(=O)(=O)c1cccc(CN(Cc2cccc(C([NH-])=O)c2)C2CCOCC2)c1 (3D coordinates assigned)
CS(=O)(=O)c1cccc(CN(Cc2cccc(C([NH-])=O)c2)C2CCOCC2)c1 (nonaromatic ring conformer: 68.80755669455745 kcal/mol)

>  <smiles>  (67) 
CS(=O)(=O)c1cccc(CN(Cc2cccc(C(N)=O)c2)C2CCOCC2)c1

>  <score_type>  (67) 
oracle

>  <origin>  (67) 
adg

>  <m_score__min__energy>  (67) 
-12.359999999999999

>  <m_primary>  (67) 
energy

$$$$
67:0
     RDKit          3D

 64 67  0  0  0  0  0  0  0  0999 V2000
   57.0780   33.7470   45.6410 C   0  0  0  0  0  0  0  0  0  0  0  0
   58.2620   32.4190   45.7370 S   0  0  0  0  0  0  0  0  0  0  0  0
   58.3650   31.9540   47.1630 O   0  0  0  0  0  0  0  0  0  0  0  0
   59.5900   32.9680   45.2960 O   0  0  0  0  0  0  0  0  0  0  0  0
   57.7850   31.0600   44.7050 C   0  0  0  0  0  0  0  0  0  0  0  0
   56.9430   31.3010   43.6060 C   0  0  0  0  0  0  0  0  0  0  0  0
   56.5650   30.2580   42.7580 C   0  0  0  0  0  0  0  0  0  0  0  0
   57.0180   28.9610   42.9970 C   0  0  0  0  0  0  0  0  0  0  0  0
   57.8430   28.7020   44.0930 C   0  0  0  0  0  0  0  0  0  0  0  0
   58.2260   29.7390   44.9580 C   0  0  0  0  0  0  0  0  0  0  0  0
   59.0420   29.4240   46.0960 N   0  0  0  0  0  0  0  0  0  0  0  0
   58.4980   28.5170   47.1180 C   0  0  0  0  0  0  0  0  0  0  0  0
   59.5960   28.0120   48.0540 C   0  0  0  0  0  0  0  0  0  0  0  0
   60.4460   29.1360   48.4680 N   0  0  0  0  0  0  0  0  0  0  0  0
   60.7920   29.3650   49.8490 C   0  0  0  0  0  0  0  0  0  0  0  0
   61.9390   29.8100   50.1290 O   0  0  0  0  0  0  0  0  0  0  0  0
   59.8030   29.1150   50.9710 C   0  0  0  0  0  0  0  0  0  0  0  0
   60.4800   29.2920   52.3490 C   0  0  0  0  0  0  0  0  0  0  0  0
   60.8080   30.7660   52.6410 C   0  0  0  0  0  0  0  0  0  0  0  0
   59.7320   31.6580   52.1900 N   0  0  0  0  0  0  0  0  0  0  0  0
   59.9890   33.0710   52.1000 C   0  0  0  0  0  0  0  0  0  0  0  0
   60.7770   33.6110   52.9250 O   0  0  0  0  0  0  0  0  0  0  0  0
   59.3380   33.9180   51.0370 C   0  0  0  0  0  0  0  0  0  0  0  0
   60.1440   33.8980   49.7650 C   0  0  0  0  0  0  0  0  0  0  0  0
   61.3340   33.1560   49.6860 C   0  0  0  0  0  0  0  0  0  0  0  0
   62.0570   33.1100   48.4900 C   0  0  0  0  0  0  0  0  0  0  0  0
   61.5920   33.7940   47.3640 C   0  0  0  0  0  0  0  0  0  0  0  0
   60.4030   34.5250   47.4310 C   0  0  0  0  0  0  0  0  0  0  0  0
   59.6780   34.5760   48.6260 C   0  0  0  0  0  0  0  0  0  0  0  0
   58.4110   31.0920   51.8900 C   0  0  0  0  0  0  0  0  0  0  0  0
   58.5300   30.0000   50.8170 C   0  0  0  0  0  0  0  0  0  0  0  0
   61.0260   30.0170   47.4430 C   0  0  0  0  0  0  0  0  0  0  0  0
   60.4820   29.7050   46.0410 C   0  0  0  0  0  0  0  0  0  0  0  0
   56.7972   34.0620   46.6568 H   0  0  0  0  0  0  0  0  0  0  0  0
   57.5233   34.5971   45.1035 H   0  0  0  0  0  0  0  0  0  0  0  0
   56.1825   33.4017   45.1035 H   0  0  0  0  0  0  0  0  0  0  0  0
   56.5784   32.3205   43.4120 H   0  0  0  0  0  0  0  0  0  0  0  0
   55.9081   30.4600   41.8991 H   0  0  0  0  0  0  0  0  0  0  0  0
   56.7256   28.1427   42.3226 H   0  0  0  0  0  0  0  0  0  0  0  0
   58.1957   27.6770   44.2802 H   0  0  0  0  0  0  0  0  0  0  0  0
   57.7427   29.0554   47.7094 H   0  0  0  0  0  0  0  0  0  0  0  0
   58.0495   27.6506   46.6098 H   0  0  0  0  0  0  0  0  0  0  0  0
   59.1374   27.5532   48.9424 H   0  0  0  0  0  0  0  0  0  0  0  0
   60.2088   27.2648   47.5286 H   0  0  0  0  0  0  0  0  0  0  0  0
   59.4661   28.0699   50.9058 H   0  0  0  0  0  0  0  0  0  0  0  0
   59.8015   28.9172   53.1295 H   0  0  0  0  0  0  0  0  0  0  0  0
   61.4241   28.7276   52.3403 H   0  0  0  0  0  0  0  0  0  0  0  0
   60.9466   30.8931   53.7248 H   0  0  0  0  0  0  0  0  0  0  0  0
   61.7256   31.0295   52.0945 H   0  0  0  0  0  0  0  0  0  0  0  0
   58.3309   33.5264   50.8313 H   0  0  0  0  0  0  0  0  0  0  0  0
   59.2806   34.9547   51.4002 H   0  0  0  0  0  0  0  0  0  0  0  0
   61.6985   32.6092   50.5681 H   0  0  0  0  0  0  0  0  0  0  0  0
   62.9929   32.5346   48.4356 H   0  0  0  0  0  0  0  0  0  0  0  0
   62.1623   33.7571   46.4241 H   0  0  0  0  0  0  0  0  0  0  0  0
   60.0368   35.0609   46.5429 H   0  0  0  0  0  0  0  0  0  0  0  0
   58.7401   35.1487   48.6743 H   0  0  0  0  0  0  0  0  0  0  0  0
   57.9866   30.6557   52.8063 H   0  0  0  0  0  0  0  0  0  0  0  0
   57.7558   31.8921   51.5150 H   0  0  0  0  0  0  0  0  0  0  0  0
   57.6444   29.3506   50.8811 H   0  0  0  0  0  0  0  0  0  0  0  0
   58.6044   30.5083   49.8443 H   0  0  0  0  0  0  0  0  0  0  0  0
   60.7843   31.0604   47.6936 H   0  0  0  0  0  0  0  0  0  0  0  0
   62.1136   29.8525   47.4297 H   0  0  0  0  0  0  0  0  0  0  0  0
   60.6566   30.5703   45.3847 H   0  0  0  0  0  0  0  0  0  0  0  0
   61.0015   28.8185   45.6483 H   0  0  0  0  0  0  0  0  0  0  0  0
  1  2  1  0
  2  3  2  0
  2  4  2  0
  2  5  1  0
  5  6  2  0
  6  7  1  0
  7  8  2  0
  8  9  1  0
  9 10  2  0
 10 11  1  0
 11 12  1  0
 12 13  1  0
 13 14  1  0
 14 15  1  0
 15 16  2  0
 15 17  1  0
 17 18  1  0
 18 19  1  0
 19 20  1  0
 20 21  1  0
 21 22  2  0
 21 23  1  0
 23 24  1  0
 24 25  2  0
 25 26  1  0
 26 27  2  0
 27 28  1  0
 28 29  2  0
 20 30  1  0
 30 31  1  0
 14 32  1  0
 32 33  1  0
 10  5  1  0
 33 11  1  0
 31 17  1  0
 29 24  1  0
  1 34  1  0
  1 35  1  0
  1 36  1  0
  6 37  1  0
  7 38  1  0
  8 39  1  0
  9 40  1  0
 12 41  1  0
 12 42  1  0
 13 43  1  0
 13 44  1  0
 17 45  1  0
 18 46  1  0
 18 47  1  0
 19 48  1  0
 19 49  1  0
 23 50  1  0
 23 51  1  0
 25 52  1  0
 26 53  1  0
 27 54  1  0
 28 55  1  0
 29 56  1  0
 30 57  1  0
 30 58  1  0
 31 59  1  0
 31 60  1  0
 32 61  1  0
 32 62  1  0
 33 63  1  0
 33 64  1  0
M  END
>  <UniqueID>  (68) 
64

>  <SMILES>  (68) 
CS(=O)(=O)c1ccccc1N1CCN(C(=O)C2CCN(C(=O)Cc3ccccc3)CC2)CC1

>  <Energy>  (68) 
76.28664155836472

>  <Genealogy>  (68) 
CS(=O)(=O)c1ccccc1N1CCN(C(=O)C2CCN(C(=O)Cc3ccccc3)CC2)CC1 (3D coordinates assigned)
CS(=O)(=O)c1ccccc1N1CCN(C(=O)C2CCN(C(=O)Cc3ccccc3)CC2)CC1 (nonaromatic ring conformer: 76.28664155836472 kcal/mol)

>  <smiles>  (68) 
CS(=O)(=O)c1ccccc1N1CCN(C(=O)C2CCN(C(=O)Cc3ccccc3)CC2)CC1

>  <score_type>  (68) 
oracle

>  <origin>  (68) 
adg

>  <m_score__min__energy>  (68) 
-8.9800000000000004

>  <m_primary>  (68) 
energy

$$$$
68:0
     RDKit          3D

 49 50  0  0  0  0  0  0  0  0999 V2000
   60.3660   28.1520   49.4340 C   0  0  0  0  0  0  0  0  0  0  0  0
   60.3510   27.9440   47.9240 C   0  0  0  0  0  0  0  0  0  0  0  0
   60.2100   29.2480   47.2350 N   0  0  0  0  0  0  0  0  0  0  0  0
   60.7980   30.3750   48.0000 C   0  0  0  0  0  0  0  0  0  0  0  0
   61.7810   31.2410   47.1940 C   0  0  0  0  0  0  0  0  0  0  0  0
   60.6550   29.2120   45.8250 C   0  0  0  0  0  0  0  0  0  0  0  0
   59.5520   28.6510   44.9130 C   0  0  0  0  0  0  0  0  0  0  0  0
   58.2810   29.3660   45.1260 N   0  0  0  0  0  0  0  0  0  0  0  0
   57.0620   28.7010   45.5400 C   0  0  0  0  0  0  0  0  0  0  0  0
   55.9590   29.0820   45.0590 O   0  0  0  0  0  0  0  0  0  0  0  0
   57.0370   27.5680   46.5390 C   0  0  0  0  0  0  0  0  0  0  0  0
   56.9010   26.2230   45.8690 C   0  0  0  0  0  0  0  0  0  0  0  0
   58.0530   25.5030   45.5030 C   0  0  0  0  0  0  0  0  0  0  0  0
   57.9410   24.2670   44.8580 C   0  0  0  0  0  0  0  0  0  0  0  0
   56.6810   23.7310   44.5870 C   0  0  0  0  0  0  0  0  0  0  0  0
   55.5300   24.4230   44.9680 C   0  0  0  0  0  0  0  0  0  0  0  0
   55.6310   25.6600   45.6140 C   0  0  0  0  0  0  0  0  0  0  0  0
   54.4710   26.3230   45.9970 O   0  0  0  0  0  0  0  0  0  0  0  0
   58.2370   30.7740   44.8330 C   0  0  0  0  0  0  0  0  0  0  0  0
   58.1040   31.2200   43.5090 C   0  0  0  0  0  0  0  0  0  0  0  0
   58.0340   32.5890   43.2330 C   0  0  0  0  0  0  0  0  0  0  0  0
   58.0970   33.5180   44.2760 C   0  0  0  0  0  0  0  0  0  0  0  0
   58.2360   33.0800   45.5950 C   0  0  0  0  0  0  0  0  0  0  0  0
   58.3100   31.7120   45.8750 C   0  0  0  0  0  0  0  0  0  0  0  0
   60.2957   27.1774   49.9391 H   0  0  0  0  0  0  0  0  0  0  0  0
   61.3024   28.6498   49.7263 H   0  0  0  0  0  0  0  0  0  0  0  0
   59.5107   28.7790   49.7263 H   0  0  0  0  0  0  0  0  0  0  0  0
   61.2920   27.4671   47.6125 H   0  0  0  0  0  0  0  0  0  0  0  0
   59.5004   27.3000   47.6563 H   0  0  0  0  0  0  0  0  0  0  0  0
   59.9779   31.0192   48.3498 H   0  0  0  0  0  0  0  0  0  0  0  0
   61.3731   29.9300   48.8254 H   0  0  0  0  0  0  0  0  0  0  0  0
   62.4231   31.8067   47.8852 H   0  0  0  0  0  0  0  0  0  0  0  0
   62.4052   30.5939   46.5602 H   0  0  0  0  0  0  0  0  0  0  0  0
   61.2177   31.9417   46.5602 H   0  0  0  0  0  0  0  0  0  0  0  0
   60.9052   30.2329   45.5006 H   0  0  0  0  0  0  0  0  0  0  0  0
   61.5361   28.5575   45.7524 H   0  0  0  0  0  0  0  0  0  0  0  0
   59.8590   28.7667   43.8631 H   0  0  0  0  0  0  0  0  0  0  0  0
   59.4027   27.5882   45.1541 H   0  0  0  0  0  0  0  0  0  0  0  0
   57.9732   27.5835   47.1163 H   0  0  0  0  0  0  0  0  0  0  0  0
   56.1631   27.7111   47.1915 H   0  0  0  0  0  0  0  0  0  0  0  0
   59.0484   25.9149   45.7256 H   0  0  0  0  0  0  0  0  0  0  0  0
   58.8469   23.7167   44.5640 H   0  0  0  0  0  0  0  0  0  0  0  0
   56.5949   22.7624   44.0727 H   0  0  0  0  0  0  0  0  0  0  0  0
   54.5389   23.9937   44.7593 H   0  0  0  0  0  0  0  0  0  0  0  0
   58.0547   30.4911   42.6866 H   0  0  0  0  0  0  0  0  0  0  0  0
   57.9293   32.9354   42.1942 H   0  0  0  0  0  0  0  0  0  0  0  0
   58.0371   34.5945   44.0577 H   0  0  0  0  0  0  0  0  0  0  0  0
   58.2873   33.8120   46.4144 H   0  0  0  0  0  0  0  0  0  0  0  0
   58.4257   31.3700   46.9141 H   0  0  0  0  0  0  0  0  0  0  0  0
  1  2  1  0
  2  3  1  0
  3  4  1  0
  4  5  1  0
  3  6  1  0
  6  7  1  0
  7  8  1  0
  8  9  1  0
  9 10  2  0
  9 11  1  0
 11 12  1  0
 12 13  2  0
 13 14  1  0
 14 15  2  0
 15 16  1  0
 16 17  2  0
 17 18  1  0
  8 19  1  0
 19 20  2  0
 20 21  1  0
 21 22  2  0
 22 23  1  0
 23 24  2  0
 17 12  1  0
 24 19  1  0
  1 25  1  0
  1 26  1  0
  1 27  1  0
  2 28  1  0
  2 29  1  0
  4 30  1  0
  4 31  1  0
  5 32  1  0
  5 33  1  0
  5 34  1  0
  6 35  1  0
  6 36  1  0
  7 37  1  0
  7 38  1  0
 11 39  1  0
 11 40  1  0
 13 41  1  0
 14 42  1  0
 15 43  1  0
 16 44  1  0
 20 45  1  0
 21 46  1  0
 22 47  1  0
 23 48  1  0
 24 49  1  0
M  CHG  1  18  -1
M  END
>  <UniqueID>  (69) 
65

>  <SMILES>  (69) 
CCN(CC)CCN(C(=O)Cc1ccccc1[O-])c1ccccc1

>  <Energy>  (69) 
52.10102620888833

>  <Genealogy>  (69) 
CCN(CC)CCN(C(=O)Cc1ccccc1[O-])c1ccccc1 (protonated)
CCN(CC)CCN(C(=O)Cc1ccccc1[O-])c1ccccc1 (3D coordinates assigned)
CCN(CC)CCN(C(=O)Cc1ccccc1[O-])c1ccccc1 (optimized conformer: 52.10102620888833 kcal/mol)

>  <smiles>  (69) 
CCN(CC)CCN(C(=O)Cc1ccccc1O)c1ccccc1

>  <score_type>  (69) 
oracle

>  <origin>  (69) 
adg

>  <m_score__min__energy>  (69) 
-10.56

>  <m_primary>  (69) 
energy

$$$$
69:0
     RDKit          3D

 58 61  0  0  0  0  0  0  0  0999 V2000
   64.5240   34.9990   52.8180 C   0  0  0  0  0  0  0  0  0  0  0  0
   63.9380   34.9160   51.4860 N   0  0  0  0  0  0  0  0  0  0  0  0
   63.7460   33.6540   50.8280 C   0  0  0  0  0  0  0  0  0  0  0  0
   63.9630   32.5840   51.4600 O   0  0  0  0  0  0  0  0  0  0  0  0
   63.2840   33.5850   49.4210 C   0  0  0  0  0  0  0  0  0  0  0  0
   64.1450   33.1640   48.3920 C   0  0  0  0  0  0  0  0  0  0  0  0
   63.6950   33.1130   47.0700 C   0  0  0  0  0  0  0  0  0  0  0  0
   62.3780   33.4600   46.7620 C   0  0  0  0  0  0  0  0  0  0  0  0
   61.4910   33.8390   47.7750 C   0  0  0  0  0  0  0  0  0  0  0  0
   60.1460   34.2000   47.4120 N   0  0  0  0  0  0  0  0  0  0  0  0
   59.3950   33.6120   46.5250 C   0  0  0  0  0  0  0  0  0  0  0  0
   59.0880   32.2900   46.6250 N   0  0  0  0  0  0  0  0  0  0  0  0
   58.3200   31.6570   45.6970 C   0  0  0  0  0  0  0  0  0  0  0  0
   58.0120   30.2140   45.8750 C   0  0  0  0  0  0  0  0  0  0  0  0
   57.0870   29.5480   45.0480 C   0  0  0  0  0  0  0  0  0  0  0  0
   56.8030   28.1940   45.2440 C   0  0  0  0  0  0  0  0  0  0  0  0
   57.4340   27.4820   46.2720 C   0  0  0  0  0  0  0  0  0  0  0  0
   57.1030   25.7700   46.5230 S   0  0  0  0  0  0  0  0  0  0  0  0
   57.8080   25.3230   47.7730 O   0  0  0  0  0  0  0  0  0  0  0  0
   55.6250   25.5460   46.6910 O   0  0  0  0  0  0  0  0  0  0  0  0
   57.6860   24.8590   45.1510 N   0  0  0  0  0  0  0  0  0  0  0  0
   56.6200   24.6770   44.1370 C   0  0  0  0  0  0  0  0  0  0  0  0
   55.9830   23.2760   44.1910 C   0  0  0  0  0  0  0  0  0  0  0  0
   56.9830   22.1910   44.0320 N   0  0  0  0  0  0  0  0  0  0  0  0
   57.0110   21.6820   42.6520 C   0  0  0  0  0  0  0  0  0  0  0  0
   58.3450   22.5680   44.4750 C   0  0  0  0  0  0  0  0  0  0  0  0
   58.2970   23.5940   45.6100 C   0  0  0  0  0  0  0  0  0  0  0  0
   58.3480   28.1370   47.1050 C   0  0  0  0  0  0  0  0  0  0  0  0
   58.6320   29.4920   46.9130 C   0  0  0  0  0  0  0  0  0  0  0  0
   57.8550   32.3900   44.5930 C   0  0  0  0  0  0  0  0  0  0  0  0
   58.1870   33.7400   44.4970 C   0  0  0  0  0  0  0  0  0  0  0  0
   58.9480   34.3250   45.4590 N   0  0  0  0  0  0  0  0  0  0  0  0
   61.9560   33.9260   49.1010 C   0  0  0  0  0  0  0  0  0  0  0  0
   63.7330   34.8870   53.5742 H   0  0  0  0  0  0  0  0  0  0  0  0
   65.2666   34.1971   52.9425 H   0  0  0  0  0  0  0  0  0  0  0  0
   65.0147   35.9756   52.9425 H   0  0  0  0  0  0  0  0  0  0  0  0
   63.6150   35.8000   51.0340 H   0  0  0  0  0  0  0  0  0  0  0  0
   65.1790   32.8731   48.6291 H   0  0  0  0  0  0  0  0  0  0  0  0
   64.3806   32.7984   46.2693 H   0  0  0  0  0  0  0  0  0  0  0  0
   62.0361   33.4352   45.7168 H   0  0  0  0  0  0  0  0  0  0  0  0
   56.5833   30.0989   44.2401 H   0  0  0  0  0  0  0  0  0  0  0  0
   56.0810   27.6852   44.5884 H   0  0  0  0  0  0  0  0  0  0  0  0
   55.8353   25.4276   44.3124 H   0  0  0  0  0  0  0  0  0  0  0  0
   57.0806   24.7951   43.1451 H   0  0  0  0  0  0  0  0  0  0  0  0
   55.4811   23.1538   45.1622 H   0  0  0  0  0  0  0  0  0  0  0  0
   55.2712   23.1998   43.3558 H   0  0  0  0  0  0  0  0  0  0  0  0
   57.0714   20.5838   42.6674 H   0  0  0  0  0  0  0  0  0  0  0  0
   56.0945   21.9915   42.1284 H   0  0  0  0  0  0  0  0  0  0  0  0
   57.8881   22.0902   42.1284 H   0  0  0  0  0  0  0  0  0  0  0  0
   58.8690   21.6675   44.8280 H   0  0  0  0  0  0  0  0  0  0  0  0
   58.8751   23.0180   43.6226 H   0  0  0  0  0  0  0  0  0  0  0  0
   57.7007   23.1860   46.4395 H   0  0  0  0  0  0  0  0  0  0  0  0
   59.3254   23.8001   45.9416 H   0  0  0  0  0  0  0  0  0  0  0  0
   58.8453   27.5829   47.9147 H   0  0  0  0  0  0  0  0  0  0  0  0
   59.3461   29.9989   47.5786 H   0  0  0  0  0  0  0  0  0  0  0  0
   57.2404   31.9076   43.8187 H   0  0  0  0  0  0  0  0  0  0  0  0
   57.8325   34.3331   43.6411 H   0  0  0  0  0  0  0  0  0  0  0  0
   61.2745   34.2640   49.8955 H   0  0  0  0  0  0  0  0  0  0  0  0
  1  2  1  0
  2  3  1  0
  3  4  2  0
  3  5  1  0
  5  6  2  0
  6  7  1  0
  7  8  2  0
  8  9  1  0
  9 10  1  0
 10 11  2  3
 11 12  1  0
 12 13  2  0
 13 14  1  0
 14 15  2  0
 15 16  1  0
 16 17  2  0
 17 18  1  0
 18 19  2  0
 18 20  2  0
 18 21  1  0
 21 22  1  0
 22 23  1  0
 23 24  1  0
 24 25  1  0
 24 26  1  0
 26 27  1  0
 17 28  1  0
 28 29  2  0
 13 30  1  0
 30 31  2  0
 31 32  1  0
  9 33  2  0
 33  5  1  0
 32 11  1  0
 29 14  1  0
 27 21  1  0
  1 34  1  0
  1 35  1  0
  1 36  1  0
  2 37  1  0
  6 38  1  0
  7 39  1  0
  8 40  1  0
 15 41  1  0
 16 42  1  0
 22 43  1  0
 22 44  1  0
 23 45  1  0
 23 46  1  0
 25 47  1  0
 25 48  1  0
 25 49  1  0
 26 50  1  0
 26 51  1  0
 27 52  1  0
 27 53  1  0
 28 54  1  0
 29 55  1  0
 30 56  1  0
 31 57  1  0
 33 58  1  0
M  CHG  1  32  -1
M  END
>  <UniqueID>  (70) 
66

>  <SMILES>  (70) 
CNC(=O)c1cccc(N=c2nc(-c3ccc(S(=O)(=O)N4CCN(C)CC4)cc3)cc[n-]2)c1

>  <Energy>  (70) 
81.47222585259043

>  <Genealogy>  (70) 
CNC(=O)c1cccc(N=c2nc(-c3ccc(S(=O)(=O)N4CCN(C)CC4)cc3)cc[n-]2)c1 (protonated)
CNC(=O)c1cccc(N=c2nc(-c3ccc(S(=O)(=O)N4CCN(C)CC4)cc3)cc[n-]2)c1 (3D coordinates assigned)
CNC(=O)c1cccc(N=c2nc(-c3ccc(S(=O)(=O)N4CCN(C)CC4)cc3)cc[n-]2)c1 (nonaromatic ring conformer: 81.47222585259043 kcal/mol)

>  <smiles>  (70) 
CNC(=O)c1cccc(N=c2nc(-c3ccc(S(=O)(=O)N4CCN(C)CC4)cc3)cc[nH]2)c1

>  <score_type>  (70) 
oracle

>  <origin>  (70) 
adg

>  <m_score__min__energy>  (70) 
-10.73

>  <m_primary>  (70) 
energy

$$$$
70:0
     RDKit          3D

 38 40  0  0  0  0  0  0  0  0999 V2000
   64.4560   34.2550   51.3240 H   0  0  0  0  0  0  0  0  0  0  0  0
   63.5040   34.4140   51.0150 O   0  0  0  0  0  0  0  0  0  0  0  0
   63.0590   33.9700   49.7710 C   0  0  0  0  0  0  0  0  0  0  0  0
   61.7350   34.1940   49.3680 C   0  0  0  0  0  0  0  0  0  0  0  0
   61.0409   34.7223   50.0382 H   0  0  0  0  0  0  0  0  0  0  0  0
   61.2900   33.7470   48.1120 C   0  0  0  0  0  0  0  0  0  0  0  0
   59.8640   33.9610   47.6830 C   0  0  0  0  0  0  0  0  0  0  0  0
   59.7819   34.9282   47.1655 H   0  0  0  0  0  0  0  0  0  0  0  0
   59.2174   33.9541   48.5729 H   0  0  0  0  0  0  0  0  0  0  0  0
   59.4420   32.8950   46.7810 N   0  0  0  0  0  0  0  0  0  0  0  0
   58.6960   31.7480   47.2040 C   0  0  0  0  0  0  0  0  0  0  0  0
   58.5690   31.4860   48.4290 O   0  0  0  0  0  0  0  0  0  0  0  0
   58.0710   30.8710   46.2080 C   0  0  0  0  0  0  0  0  0  0  0  0
   57.3870   31.3080   45.1760 O   0  0  0  0  0  0  0  0  0  0  0  0
   56.9610   30.2780   44.4790 C   0  0  0  0  0  0  0  0  0  0  0  0
   56.2900   30.4380   43.3360 C   0  0  0  0  0  0  0  0  0  0  0  0
   55.9451   29.5582   42.7729 H   0  0  0  0  0  0  0  0  0  0  0  0
   56.0820   31.4496   42.9573 H   0  0  0  0  0  0  0  0  0  0  0  0
   57.3680   29.0910   45.1060 C   0  0  0  0  0  0  0  0  0  0  0  0
   57.1420   27.8000   44.8000 C   0  0  0  0  0  0  0  0  0  0  0  0
   56.8887   27.5658   43.7555 H   0  0  0  0  0  0  0  0  0  0  0  0
   57.2060   26.6730   45.7500 C   0  0  0  0  0  0  0  0  0  0  0  0
   56.0310   26.1510   46.3070 C   0  0  0  0  0  0  0  0  0  0  0  0
   54.7950   26.7160   46.0130 O   0  0  0  0  0  0  0  0  0  0  0  0
   56.0940   25.0860   47.1470 N   0  0  0  0  0  0  0  0  0  0  0  0
   57.2840   24.5030   47.4510 C   0  0  0  0  0  0  0  0  0  0  0  0
   57.3190   23.5200   48.2350 O   0  0  0  0  0  0  0  0  0  0  0  0
   58.4330   24.9760   46.9040 N   0  0  0  0  0  0  0  0  0  0  0  0
   58.4210   26.0370   46.0580 C   0  0  0  0  0  0  0  0  0  0  0  0
   59.5040   26.4400   45.5550 O   0  0  0  0  0  0  0  0  0  0  0  0
   58.1070   29.4910   46.2060 C   0  0  0  0  0  0  0  0  0  0  0  0
   58.6189   28.8413   46.9312 H   0  0  0  0  0  0  0  0  0  0  0  0
   62.1810   33.0640   47.2690 C   0  0  0  0  0  0  0  0  0  0  0  0
   61.8388   32.7021   46.2882 H   0  0  0  0  0  0  0  0  0  0  0  0
   63.5010   32.8420   47.6710 C   0  0  0  0  0  0  0  0  0  0  0  0
   64.1956   32.3104   47.0040 H   0  0  0  0  0  0  0  0  0  0  0  0
   63.9410   33.2940   48.9190 C   0  0  0  0  0  0  0  0  0  0  0  0
   65.2550   33.0670   49.3110 O   0  0  0  0  0  0  0  0  0  0  0  0
  1  2  1  0
  2  3  1  0
  3  4  2  0
  4  5  1  0
  4  6  1  0
  6  7  1  0
  7  8  1  0
  7  9  1  0
  7 10  1  0
 10 11  1  0
 11 12  2  0
 11 13  1  0
 13 14  1  0
 14 15  1  0
 15 16  2  0
 16 17  1  0
 16 18  1  0
 15 19  1  0
 19 20  2  0
 20 21  1  0
 20 22  1  0
 22 23  2  0
 23 24  1  0
 23 25  1  0
 25 26  1  0
 26 27  2  0
 26 28  1  0
 28 29  1  0
 29 30  2  0
 19 31  1  0
 31 32  1  0
  6 33  2  0
 33 34  1  0
 33 35  1  0
 35 36  1  0
 35 37  2  0
 37 38  1  0
 37  3  1  0
 31 13  2  0
 29 22  1  0
M  CHG  5  10  -1  24  -1  25  -1  28  -1  38  -1
M  END
>  <UniqueID>  (71) 
67

>  <SMILES>  (71) 
C=c1oc(C(=O)[N-]Cc2ccc([O-])c(O)c2)c/c1=C/c1c([O-])[n-]c(=O)[n-]c1=O

>  <Energy>  (71) 
78.97276572647651

>  <Genealogy>  (71) 
C=c1oc(C(=O)[N-]Cc2ccc([O-])c(O)c2)cc1=Cc1c([O-])[n-]c(=O)[n-]c1=O (protonated)
C=c1oc(C(=O)[N-]Cc2ccc([O-])c(O)c2)c/c1=C/c1c([O-])[n-]c(=O)[n-]c1=O (cis-trans isomerization)
C=c1oc(C(=O)[N-]Cc2ccc([O-])c(O)c2)c/c1=C/c1c([O-])[n-]c(=O)[n-]c1=O (3D coordinates assigned)
C=c1oc(C(=O)[N-]Cc2ccc([O-])c(O)c2)c/c1=C/c1c([O-])[n-]c(=O)[n-]c1=O (optimized conformer: 78.97276572647651 kcal/mol)

>  <smiles>  (71) 
C=c1oc(C(=O)NCc2ccc(O)c(O)c2)cc1=Cc1c(O)[nH]c(=O)[nH]c1=O

>  <score_type>  (71) 
oracle

>  <origin>  (71) 
adg

>  <m_score__min__energy>  (71) 
-17.539999999999999

>  <m_primary>  (71) 
energy

$$$$
71:0
     RDKit          3D

 62 65  0  0  0  0  0  0  0  0999 V2000
   56.6420   23.2990   43.4460 C   0  0  0  0  0  0  0  0  0  0  0  0
   57.5100   24.0060   44.1710 C   0  0  0  0  0  0  0  0  0  0  0  0
   57.4530   25.4790   44.3680 C   0  0  0  0  0  0  0  0  0  0  0  0
   57.8100   26.3080   43.2920 C   0  0  0  0  0  0  0  0  0  0  0  0
   57.7650   27.6990   43.4130 C   0  0  0  0  0  0  0  0  0  0  0  0
   57.3540   28.2970   44.6160 C   0  0  0  0  0  0  0  0  0  0  0  0
   57.2900   29.7730   44.7520 C   0  0  0  0  0  0  0  0  0  0  0  0
   56.1680   30.3460   44.7350 O   0  0  0  0  0  0  0  0  0  0  0  0
   58.4930   30.5550   44.8460 N   0  0  0  0  0  0  0  0  0  0  0  0
   58.5250   31.9340   45.2530 C   0  0  0  0  0  0  0  0  0  0  0  0
   57.9710   32.9500   44.4530 C   0  0  0  0  0  0  0  0  0  0  0  0
   58.0140   34.2820   44.8750 C   0  0  0  0  0  0  0  0  0  0  0  0
   58.5930   34.6110   46.1020 C   0  0  0  0  0  0  0  0  0  0  0  0
   59.1200   33.6070   46.9270 C   0  0  0  0  0  0  0  0  0  0  0  0
   59.7530   33.9700   48.2450 C   0  0  0  0  0  0  0  0  0  0  0  0
   61.0670   33.3070   48.3900 N   0  0  0  0  0  0  0  0  0  0  0  0
   60.9140   31.9950   49.0460 C   0  0  0  0  0  0  0  0  0  0  0  0
   62.2350   31.2130   49.0570 C   0  0  0  0  0  0  0  0  0  0  0  0
   63.5340   32.0600   49.1950 C   0  0  0  0  0  0  0  0  0  0  0  0
   64.4140   31.5900   50.3430 C   0  0  0  0  0  0  0  0  0  0  0  0
   63.9470   30.7170   51.1240 O   0  0  0  0  0  0  0  0  0  0  0  0
   65.7370   32.1070   50.5960 N   0  0  0  0  0  0  0  0  0  0  0  0
   66.5180   31.6920   51.7500 C   0  0  0  0  0  0  0  0  0  0  0  0
   67.8920   32.3230   51.5740 C   0  0  0  0  0  0  0  0  0  0  0  0
   67.7060   33.4310   50.5430 C   0  0  0  0  0  0  0  0  0  0  0  0
   66.4490   33.0660   49.7670 C   0  0  0  0  0  0  0  0  0  0  0  0
   63.3950   33.6060   49.1290 C   0  0  0  0  0  0  0  0  0  0  0  0
   61.9620   34.1320   49.2140 C   0  0  0  0  0  0  0  0  0  0  0  0
   59.0770   32.2700   46.5000 C   0  0  0  0  0  0  0  0  0  0  0  0
   57.0090   27.4720   45.6990 C   0  0  0  0  0  0  0  0  0  0  0  0
   57.0520   26.0800   45.5780 C   0  0  0  0  0  0  0  0  0  0  0  0
   56.7610   22.2093   43.3544 H   0  0  0  0  0  0  0  0  0  0  0  0
   55.8071   23.8056   42.9397 H   0  0  0  0  0  0  0  0  0  0  0  0
   58.3294   23.4586   44.6598 H   0  0  0  0  0  0  0  0  0  0  0  0
   58.1293   25.8560   42.3413 H   0  0  0  0  0  0  0  0  0  0  0  0
   58.0535   28.3308   42.5600 H   0  0  0  0  0  0  0  0  0  0  0  0
   59.3760   30.1420   44.4670 H   0  0  0  0  0  0  0  0  0  0  0  0
   57.5019   32.6952   43.4912 H   0  0  0  0  0  0  0  0  0  0  0  0
   57.5905   35.0730   44.2386 H   0  0  0  0  0  0  0  0  0  0  0  0
   58.6360   35.6622   46.4230 H   0  0  0  0  0  0  0  0  0  0  0  0
   59.8908   35.0603   48.2920 H   0  0  0  0  0  0  0  0  0  0  0  0
   59.0942   33.6349   49.0597 H   0  0  0  0  0  0  0  0  0  0  0  0
   60.5823   32.1507   50.0832 H   0  0  0  0  0  0  0  0  0  0  0  0
   60.1725   31.4113   48.4807 H   0  0  0  0  0  0  0  0  0  0  0  0
   62.2016   30.5096   49.9021 H   0  0  0  0  0  0  0  0  0  0  0  0
   62.3006   30.7321   48.0699 H   0  0  0  0  0  0  0  0  0  0  0  0
   64.0565   31.8451   48.2512 H   0  0  0  0  0  0  0  0  0  0  0  0
   66.0487   32.0501   52.6782 H   0  0  0  0  0  0  0  0  0  0  0  0
   66.5833   30.5962   51.8200 H   0  0  0  0  0  0  0  0  0  0  0  0
   68.2472   32.7414   52.5273 H   0  0  0  0  0  0  0  0  0  0  0  0
   68.6397   31.5851   51.2478 H   0  0  0  0  0  0  0  0  0  0  0  0
   67.5793   34.4026   51.0430 H   0  0  0  0  0  0  0  0  0  0  0  0
   68.5799   33.5198   49.8809 H   0  0  0  0  0  0  0  0  0  0  0  0
   65.8304   33.9596   49.5974 H   0  0  0  0  0  0  0  0  0  0  0  0
   66.6902   32.6470   48.7789 H   0  0  0  0  0  0  0  0  0  0  0  0
   63.9660   34.0356   49.9653 H   0  0  0  0  0  0  0  0  0  0  0  0
   63.7735   33.9059   48.1407 H   0  0  0  0  0  0  0  0  0  0  0  0
   61.6248   34.0994   50.2605 H   0  0  0  0  0  0  0  0  0  0  0  0
   61.9378   35.1672   48.8428 H   0  0  0  0  0  0  0  0  0  0  0  0
   59.4796   31.4780   47.1485 H   0  0  0  0  0  0  0  0  0  0  0  0
   56.7017   27.9260   46.6526 H   0  0  0  0  0  0  0  0  0  0  0  0
   56.7707   25.4489   46.4339 H   0  0  0  0  0  0  0  0  0  0  0  0
  1  2  2  0
  2  3  1  0
  3  4  2  0
  4  5  1  0
  5  6  2  0
  6  7  1  0
  7  8  2  0
  7  9  1  0
  9 10  1  0
 10 11  2  0
 11 12  1  0
 12 13  2  0
 13 14  1  0
 14 15  1  0
 15 16  1  0
 16 17  1  0
 17 18  1  0
 18 19  1  0
 19 20  1  0
 20 21  2  0
 20 22  1  0
 22 23  1  0
 23 24  1  0
 24 25  1  0
 25 26  1  0
 19 27  1  0
 27 28  1  0
 14 29  2  0
  6 30  1  0
 30 31  2  0
 31  3  1  0
 29 10  1  0
 28 16  1  0
 26 22  1  0
  1 32  1  0
  1 33  1  0
  2 34  1  0
  4 35  1  0
  5 36  1  0
  9 37  1  0
 11 38  1  0
 12 39  1  0
 13 40  1  0
 15 41  1  0
 15 42  1  0
 17 43  1  0
 17 44  1  0
 18 45  1  0
 18 46  1  0
 19 47  1  0
 23 48  1  0
 23 49  1  0
 24 50  1  0
 24 51  1  0
 25 52  1  0
 25 53  1  0
 26 54  1  0
 26 55  1  0
 27 56  1  0
 27 57  1  0
 28 58  1  0
 28 59  1  0
 29 60  1  0
 30 61  1  0
 31 62  1  0
M  END
>  <UniqueID>  (72) 
68

>  <SMILES>  (72) 
C=Cc1ccc(C(=O)Nc2cccc(CN3CCC(C(=O)N4CCCC4)CC3)c2)cc1

>  <Energy>  (72) 
82.08472209879852

>  <Genealogy>  (72) 
C=Cc1ccc(C(=O)Nc2cccc(CN3CCC(C(=O)N4CCCC4)CC3)c2)cc1 (3D coordinates assigned)
C=Cc1ccc(C(=O)Nc2cccc(CN3CCC(C(=O)N4CCCC4)CC3)c2)cc1 (nonaromatic ring conformer: 82.08472209879852 kcal/mol)

>  <smiles>  (72) 
C=Cc1ccc(C(=O)Nc2cccc(CN3CCC(C(=O)N4CCCC4)CC3)c2)cc1

>  <score_type>  (72) 
oracle

>  <origin>  (72) 
adg

>  <m_score__min__energy>  (72) 
-9.6699999999999999

>  <m_primary>  (72) 
energy

$$$$
72:0
     RDKit          3D

 46 49  0  0  0  0  0  0  0  0999 V2000
   57.4881   24.1066   47.4140 H   0  0  0  0  0  0  0  0  0  0  0  0
   57.7640   25.1170   47.7500 C   0  0  0  0  0  0  0  0  0  0  0  0
   58.1529   25.2712   48.7673 H   0  0  0  0  0  0  0  0  0  0  0  0
   57.6270   26.1550   46.9240 C   0  0  0  0  0  0  0  0  0  0  0  0
   57.9470   27.3750   47.2930 O   0  0  0  0  0  0  0  0  0  0  0  0
   57.7780   28.1910   46.2780 C   0  0  0  0  0  0  0  0  0  0  0  0
   58.0680   29.6340   46.3440 C   0  0  0  0  0  0  0  0  0  0  0  0
   57.3810   30.4190   45.6360 O   0  0  0  0  0  0  0  0  0  0  0  0
   59.0960   30.1700   47.1980 N   0  0  0  0  0  0  0  0  0  0  0  0
   60.3860   29.4810   47.3540 C   0  0  0  0  0  0  0  0  0  0  0  0
   60.4283   29.0099   48.3471 H   0  0  0  0  0  0  0  0  0  0  0  0
   60.4804   28.7151   46.5701 H   0  0  0  0  0  0  0  0  0  0  0  0
   61.5420   30.4810   47.2180 C   0  0  0  0  0  0  0  0  0  0  0  0
   62.4643   30.0093   47.5879 H   0  0  0  0  0  0  0  0  0  0  0  0
   61.6309   30.7533   46.1559 H   0  0  0  0  0  0  0  0  0  0  0  0
   61.3000   31.7160   47.9840 N   0  0  0  0  0  0  0  0  0  0  0  0
   62.3310   32.7270   48.0140 C   0  0  0  0  0  0  0  0  0  0  0  0
   63.4940   32.4460   47.6130 O   0  0  0  0  0  0  0  0  0  0  0  0
   62.0670   34.1110   48.5360 C   0  0  0  0  0  0  0  0  0  0  0  0
   61.7903   34.5505   47.5663 H   0  0  0  0  0  0  0  0  0  0  0  0
   62.9540   34.5230   49.7030 C   0  0  0  0  0  0  0  0  0  0  0  0
   63.7479   33.8479   50.0551 H   0  0  0  0  0  0  0  0  0  0  0  0
   63.5926   35.3906   49.9253 H   0  0  0  0  0  0  0  0  0  0  0  0
   61.4970   34.1730   49.9470 C   0  0  0  0  0  0  0  0  0  0  0  0
   61.2358   33.2444   50.4757 H   0  0  0  0  0  0  0  0  0  0  0  0
   60.6438   34.6822   50.4190 H   0  0  0  0  0  0  0  0  0  0  0  0
   60.0500   31.8560   48.7470 C   0  0  0  0  0  0  0  0  0  0  0  0
   60.0872   31.2037   49.6319 H   0  0  0  0  0  0  0  0  0  0  0  0
   59.9326   32.9030   49.0633 H   0  0  0  0  0  0  0  0  0  0  0  0
   58.8600   31.4560   47.8700 C   0  0  0  0  0  0  0  0  0  0  0  0
   57.9632   31.3705   48.5012 H   0  0  0  0  0  0  0  0  0  0  0  0
   58.7232   32.2289   47.0993 H   0  0  0  0  0  0  0  0  0  0  0  0
   57.3340   27.4860   45.1750 C   0  0  0  0  0  0  0  0  0  0  0  0
   57.1267   27.8886   44.1725 H   0  0  0  0  0  0  0  0  0  0  0  0
   57.2030   26.1710   45.5870 C   0  0  0  0  0  0  0  0  0  0  0  0
   56.7520   25.1880   44.7840 C   0  0  0  0  0  0  0  0  0  0  0  0
   57.3500   24.9503   43.8919 H   0  0  0  0  0  0  0  0  0  0  0  0
   55.5230   24.4050   45.0030 C   0  0  0  0  0  0  0  0  0  0  0  0
   54.4060   24.9940   45.6120 C   0  0  0  0  0  0  0  0  0  0  0  0
   54.4210   26.3360   45.9710 O   0  0  0  0  0  0  0  0  0  0  0  0
   53.2930   24.2520   45.8490 N   0  0  0  0  0  0  0  0  0  0  0  0
   53.2450   22.9350   45.5180 C   0  0  0  0  0  0  0  0  0  0  0  0
   52.2010   22.2690   45.7430 O   0  0  0  0  0  0  0  0  0  0  0  0
   54.3230   22.3370   44.9500 N   0  0  0  0  0  0  0  0  0  0  0  0
   55.4590   23.0350   44.6940 C   0  0  0  0  0  0  0  0  0  0  0  0
   56.4480   22.4430   44.1830 O   0  0  0  0  0  0  0  0  0  0  0  0
  1  2  1  0
  2  3  1  0
  2  4  2  0
  4  5  1  0
  5  6  1  0
  6  7  1  0
  7  8  2  0
  7  9  1  0
  9 10  1  0
 10 11  1  0
 10 12  1  0
 10 13  1  0
 13 14  1  0
 13 15  1  0
 13 16  1  0
 16 17  1  0
 17 18  2  0
 17 19  1  0
 19 20  1  0
 19 21  1  0
 21 22  1  0
 21 23  1  0
 21 24  1  0
 24 25  1  0
 24 26  1  0
 16 27  1  0
 27 28  1  0
 27 29  1  0
 27 30  1  0
 30 31  1  0
 30 32  1  0
  6 33  2  0
 33 34  1  0
 33 35  1  0
 35 36  2  0
 36 37  1  0
 36 38  1  0
 38 39  2  0
 39 40  1  0
 39 41  1  0
 41 42  1  0
 42 43  2  0
 42 44  1  0
 44 45  1  0
 45 46  2  0
 35  4  1  0
 45 38  1  0
 30  9  1  0
 24 19  1  0
M  CHG  3  40  -1  41  -1  44  -1
M  END
>  <UniqueID>  (73) 
69

>  <SMILES>  (73) 
C=c1oc(C(=O)N2CCN(C(=O)C3CC3)CC2)c/c1=C/c1c([O-])[n-]c(=O)[n-]c1=O

>  <Energy>  (73) 
356.48737471579176

>  <Genealogy>  (73) 
C=c1oc(C(=O)N2CCN(C(=O)C3CC3)CC2)cc1=Cc1c([O-])[n-]c(=O)[n-]c1=O (protonated)
C=c1oc(C(=O)N2CCN(C(=O)C3CC3)CC2)c/c1=C/c1c([O-])[n-]c(=O)[n-]c1=O (cis-trans isomerization)
C=c1oc(C(=O)N2CCN(C(=O)C3CC3)CC2)c/c1=C/c1c([O-])[n-]c(=O)[n-]c1=O (3D coordinates assigned)
C=c1oc(C(=O)N2CCN(C(=O)C3CC3)CC2)c/c1=C/c1c([O-])[n-]c(=O)[n-]c1=O (nonaromatic ring conformer: 356.48737471579176 kcal/mol)

>  <smiles>  (73) 
C=c1oc(C(=O)N2CCN(C(=O)C3CC3)CC2)cc1=Cc1c(O)[nH]c(=O)[nH]c1=O

>  <score_type>  (73) 
oracle

>  <origin>  (73) 
adg

>  <m_score__min__energy>  (73) 
-15.390000000000001

>  <m_primary>  (73) 
energy

$$$$
73:0
     RDKit          3D

 50 52  0  0  0  0  0  0  0  0999 V2000
   55.0350   30.4790   53.2340 C   0  0  0  0  0  0  0  0  0  0  0  0
   56.2810   29.9590   52.5830 C   0  0  0  0  0  0  0  0  0  0  0  0
   56.5120   28.7200   52.6280 O   0  0  0  0  0  0  0  0  0  0  0  0
   57.2170   30.8470   51.9320 N   0  0  0  0  0  0  0  0  0  0  0  0
   58.3300   30.2950   51.1460 C   0  0  0  0  0  0  0  0  0  0  0  0
   58.5830   31.1550   49.9040 C   0  0  0  0  0  0  0  0  0  0  0  0
   58.6600   32.5860   50.2390 N   0  0  0  0  0  0  0  0  0  0  0  0
   59.3120   33.4910   49.3300 C   0  0  0  0  0  0  0  0  0  0  0  0
   60.1110   34.3560   49.7820 O   0  0  0  0  0  0  0  0  0  0  0  0
   59.0730   33.4260   47.8720 C   0  0  0  0  0  0  0  0  0  0  0  0
   57.7670   33.4330   47.3640 C   0  0  0  0  0  0  0  0  0  0  0  0
   57.5460   33.3590   45.9880 C   0  0  0  0  0  0  0  0  0  0  0  0
   58.6450   33.2630   45.1130 C   0  0  0  0  0  0  0  0  0  0  0  0
   58.5080   33.1890   43.8190 N   0  0  0  0  0  0  0  0  0  0  0  0
   57.6020   32.3150   43.0710 C   0  0  0  0  0  0  0  0  0  0  0  0
   57.4040   31.0050   43.7900 C   0  0  0  0  0  0  0  0  0  0  0  0
   58.5160   30.2330   44.1640 C   0  0  0  0  0  0  0  0  0  0  0  0
   58.3390   29.0150   44.8280 C   0  0  0  0  0  0  0  0  0  0  0  0
   57.0490   28.5490   45.1120 C   0  0  0  0  0  0  0  0  0  0  0  0
   56.8290   27.0240   45.9640 S   0  0  0  0  0  0  0  0  0  0  0  0
   55.1500   26.6200   46.0010 N   0  0  0  0  0  0  0  0  0  0  0  0
   57.5930   25.9330   45.2670 O   0  0  0  0  0  0  0  0  0  0  0  0
   57.3440   27.1490   47.3700 O   0  0  0  0  0  0  0  0  0  0  0  0
   55.9380   29.3140   44.7350 C   0  0  0  0  0  0  0  0  0  0  0  0
   56.1130   30.5310   44.0720 C   0  0  0  0  0  0  0  0  0  0  0  0
   59.9020   33.2400   45.6330 N   0  0  0  0  0  0  0  0  0  0  0  0
   60.1400   33.3140   46.9690 C   0  0  0  0  0  0  0  0  0  0  0  0
   58.3510   33.0390   51.6010 C   0  0  0  0  0  0  0  0  0  0  0  0
   57.1230   32.3010   52.1440 C   0  0  0  0  0  0  0  0  0  0  0  0
   55.1459   30.4327   54.3274 H   0  0  0  0  0  0  0  0  0  0  0  0
   54.8683   31.5218   52.9262 H   0  0  0  0  0  0  0  0  0  0  0  0
   54.1764   29.8641   52.9262 H   0  0  0  0  0  0  0  0  0  0  0  0
   59.2383   30.2775   51.7662 H   0  0  0  0  0  0  0  0  0  0  0  0
   58.0709   29.2745   50.8274 H   0  0  0  0  0  0  0  0  0  0  0  0
   59.5326   30.8452   49.4433 H   0  0  0  0  0  0  0  0  0  0  0  0
   57.7422   31.0102   49.2097 H   0  0  0  0  0  0  0  0  0  0  0  0
   56.9120   33.4971   48.0531 H   0  0  0  0  0  0  0  0  0  0  0  0
   56.5207   33.3756   45.5899 H   0  0  0  0  0  0  0  0  0  0  0  0
   56.6288   32.8155   42.9596 H   0  0  0  0  0  0  0  0  0  0  0  0
   58.0441   32.1115   42.0845 H   0  0  0  0  0  0  0  0  0  0  0  0
   59.5313   30.5882   43.9335 H   0  0  0  0  0  0  0  0  0  0  0  0
   59.2151   28.4214   45.1280 H   0  0  0  0  0  0  0  0  0  0  0  0
   54.7440   27.0840   46.8450 H   0  0  0  0  0  0  0  0  0  0  0  0
   54.9233   28.9549   44.9620 H   0  0  0  0  0  0  0  0  0  0  0  0
   55.2351   31.1207   43.7694 H   0  0  0  0  0  0  0  0  0  0  0  0
   61.1739   33.2859   47.3436 H   0  0  0  0  0  0  0  0  0  0  0  0
   59.2129   32.8377   52.2541 H   0  0  0  0  0  0  0  0  0  0  0  0
   58.1376   34.1179   51.5782 H   0  0  0  0  0  0  0  0  0  0  0  0
   57.0381   32.4982   53.2228 H   0  0  0  0  0  0  0  0  0  0  0  0
   56.2384   32.6676   51.6026 H   0  0  0  0  0  0  0  0  0  0  0  0
  1  2  1  0
  2  3  2  0
  2  4  1  0
  4  5  1  0
  5  6  1  0
  6  7  1  0
  7  8  1  0
  8  9  2  0
  8 10  1  0
 10 11  1  0
 11 12  2  0
 12 13  1  0
 13 14  2  3
 14 15  1  0
 15 16  1  0
 16 17  2  0
 17 18  1  0
 18 19  2  0
 19 20  1  0
 20 21  1  0
 20 22  2  0
 20 23  2  0
 19 24  1  0
 24 25  2  0
 13 26  1  0
 26 27  1  0
  7 28  1  0
 28 29  1  0
 29  4  1  0
 27 10  2  0
 25 16  1  0
  1 30  1  0
  1 31  1  0
  1 32  1  0
  5 33  1  0
  5 34  1  0
  6 35  1  0
  6 36  1  0
 11 37  1  0
 12 38  1  0
 15 39  1  0
 15 40  1  0
 17 41  1  0
 18 42  1  0
 21 43  1  0
 24 44  1  0
 25 45  1  0
 27 46  1  0
 28 47  1  0
 28 48  1  0
 29 49  1  0
 29 50  1  0
M  CHG  2  21  -1  26  -1
M  END
>  <UniqueID>  (74) 
70

>  <SMILES>  (74) 
CC(=O)N1CCN(C(=O)c2ccc(=NCc3ccc(S([NH-])(=O)=O)cc3)[n-]c2)CC1

>  <Energy>  (74) 
57.17297494346628

>  <Genealogy>  (74) 
CC(=O)N1CCN(C(=O)c2ccc(=NCc3ccc(S([NH-])(=O)=O)cc3)[n-]c2)CC1 (protonated)
CC(=O)N1CCN(C(=O)c2ccc(=NCc3ccc(S([NH-])(=O)=O)cc3)[n-]c2)CC1 (3D coordinates assigned)
CC(=O)N1CCN(C(=O)c2ccc(=NCc3ccc(S([NH-])(=O)=O)cc3)[n-]c2)CC1 (nonaromatic ring conformer: 57.17297494346628 kcal/mol)

>  <smiles>  (74) 
CC(=O)N1CCN(C(=O)c2ccc(=NCc3ccc(S(N)(=O)=O)cc3)[nH]c2)CC1

>  <score_type>  (74) 
oracle

>  <origin>  (74) 
adg

>  <m_score__min__energy>  (74) 
-12.93

>  <m_primary>  (74) 
energy

$$$$
74:0
     RDKit          3D

 35 37  0  0  0  0  0  0  0  0999 V2000
   58.3660   26.0470   47.4990 C   0  0  0  0  0  0  0  0  0  0  0  0
   58.1100   26.9720   46.5690 C   0  0  0  0  0  0  0  0  0  0  0  0
   58.2790   28.2910   46.7870 N   0  0  0  0  0  0  0  0  0  0  0  0
   57.9250   28.9330   45.6540 C   0  0  0  0  0  0  0  0  0  0  0  0
   57.9720   30.4060   45.4760 C   0  0  0  0  0  0  0  0  0  0  0  0
   57.6120   30.9860   44.2490 C   0  0  0  0  0  0  0  0  0  0  0  0
   57.6660   32.3690   44.0780 C   0  0  0  0  0  0  0  0  0  0  0  0
   58.0800   33.2040   45.1200 C   0  0  0  0  0  0  0  0  0  0  0  0
   58.1870   34.5710   44.8490 O   0  0  0  0  0  0  0  0  0  0  0  0
   58.4040   32.6410   46.3800 C   0  0  0  0  0  0  0  0  0  0  0  0
   58.7580   33.4500   47.5660 C   0  0  0  0  0  0  0  0  0  0  0  0
   58.9030   34.6980   47.4970 O   0  0  0  0  0  0  0  0  0  0  0  0
   58.3680   31.2440   46.5330 C   0  0  0  0  0  0  0  0  0  0  0  0
   57.5230   28.0150   44.6950 C   0  0  0  0  0  0  0  0  0  0  0  0
   57.6360   26.7590   45.2740 C   0  0  0  0  0  0  0  0  0  0  0  0
   57.3770   25.5780   44.6820 C   0  0  0  0  0  0  0  0  0  0  0  0
   56.1590   24.7800   44.9520 C   0  0  0  0  0  0  0  0  0  0  0  0
   55.0560   25.3740   45.5830 C   0  0  0  0  0  0  0  0  0  0  0  0
   55.1050   26.7030   45.9920 O   0  0  0  0  0  0  0  0  0  0  0  0
   53.9310   24.6490   45.8110 N   0  0  0  0  0  0  0  0  0  0  0  0
   53.8430   23.3510   45.4240 C   0  0  0  0  0  0  0  0  0  0  0  0
   52.7930   22.6970   45.6500 O   0  0  0  0  0  0  0  0  0  0  0  0
   54.8860   22.7600   44.7860 N   0  0  0  0  0  0  0  0  0  0  0  0
   56.0340   23.4420   44.5340 C   0  0  0  0  0  0  0  0  0  0  0  0
   56.9660   22.8710   43.9090 O   0  0  0  0  0  0  0  0  0  0  0  0
   58.2120   24.9817   47.2722 H   0  0  0  0  0  0  0  0  0  0  0  0
   58.7307   26.3509   48.4913 H   0  0  0  0  0  0  0  0  0  0  0  0
   58.6010   28.7290   47.6800 H   0  0  0  0  0  0  0  0  0  0  0  0
   57.2851   30.3451   43.4169 H   0  0  0  0  0  0  0  0  0  0  0  0
   57.3793   32.8083   43.1112 H   0  0  0  0  0  0  0  0  0  0  0  0
   58.5270   35.2490   45.5150 H   0  0  0  0  0  0  0  0  0  0  0  0
   58.8983   32.9475   48.5344 H   0  0  0  0  0  0  0  0  0  0  0  0
   58.6548   30.7986   47.4970 H   0  0  0  0  0  0  0  0  0  0  0  0
   57.1810   28.2391   43.6738 H   0  0  0  0  0  0  0  0  0  0  0  0
   58.1082   25.1853   43.9601 H   0  0  0  0  0  0  0  0  0  0  0  0
  1  2  2  0
  2  3  1  0
  3  4  1  0
  4  5  1  0
  5  6  2  0
  6  7  1  0
  7  8  2  0
  8  9  1  0
  8 10  1  0
 10 11  1  0
 11 12  2  0
 10 13  2  0
  4 14  2  0
 14 15  1  0
 15 16  2  3
 16 17  1  0
 17 18  2  0
 18 19  1  0
 18 20  1  0
 20 21  1  0
 21 22  2  0
 21 23  1  0
 23 24  1  0
 24 25  2  0
 15  2  1  0
 24 17  1  0
 13  5  1  0
  1 26  1  0
  1 27  1  0
  3 28  1  0
  6 29  1  0
  7 30  1  0
  9 31  1  0
 11 32  1  0
 13 33  1  0
 14 34  1  0
 16 35  1  0
M  CHG  3  19  -1  20  -1  23  -1
M  END
>  <UniqueID>  (75) 
71

>  <SMILES>  (75) 
C=c1[nH]c(-c2ccc(O)c(C=O)c2)cc1=Cc1c([O-])[n-]c(=O)[n-]c1=O

>  <Energy>  (75) 
82.79179945311732

>  <Genealogy>  (75) 
C=c1[nH]c(-c2ccc(O)c(C=O)c2)cc1=Cc1c([O-])[n-]c(=O)[n-]c1=O (protonated)
C=c1[nH]c(-c2ccc(O)c(C=O)c2)cc1=Cc1c([O-])[n-]c(=O)[n-]c1=O (3D coordinates assigned)
C=c1[nH]c(-c2ccc(O)c(C=O)c2)cc1=Cc1c([O-])[n-]c(=O)[n-]c1=O (optimized conformer: 82.79179945311732 kcal/mol)

>  <smiles>  (75) 
C=c1[nH]c(-c2ccc(O)c(C=O)c2)cc1=Cc1c(O)[nH]c(=O)[nH]c1=O

>  <score_type>  (75) 
oracle

>  <origin>  (75) 
adg

>  <m_score__min__energy>  (75) 
-15.23

>  <m_primary>  (75) 
energy

$$$$
75:0
     RDKit          3D

 40 41  0  0  0  0  0  0  0  0999 V2000
   56.7270   33.4390   46.4750 N   0  0  0  0  0  0  0  0  0  0  0  0
   58.1650   33.4140   46.1670 C   0  0  2  0  0  0  0  0  0  0  0  0
   58.8900   34.6330   46.7740 C   0  0  0  0  0  0  0  0  0  0  0  0
   60.2510   34.2570   47.3000 C   0  0  0  0  0  0  0  0  0  0  0  0
   60.5120   34.2700   48.6810 C   0  0  0  0  0  0  0  0  0  0  0  0
   61.7670   33.8900   49.1630 C   0  0  0  0  0  0  0  0  0  0  0  0
   62.7690   33.4880   48.2730 C   0  0  0  0  0  0  0  0  0  0  0  0
   62.5140   33.4660   46.8990 C   0  0  0  0  0  0  0  0  0  0  0  0
   61.2590   33.8450   46.4120 C   0  0  0  0  0  0  0  0  0  0  0  0
   58.4010   33.3620   44.6720 C   0  0  0  0  0  0  0  0  0  0  0  0
   59.2660   34.0570   44.1580 O   0  0  0  0  0  0  0  0  0  0  0  0
   57.6260   32.3970   43.8160 C   0  0  0  0  0  0  0  0  0  0  0  0
   56.6230   31.6780   44.6030 N   0  0  0  0  0  0  0  0  0  0  0  0
   56.7560   29.9520   44.3930 S   0  0  0  0  0  0  0  0  0  0  0  0
   55.4870   29.3040   44.8710 O   0  0  0  0  0  0  0  0  0  0  0  0
   56.9180   29.6500   42.9290 O   0  0  0  0  0  0  0  0  0  0  0  0
   58.1490   29.2880   45.2630 C   0  0  0  0  0  0  0  0  0  0  0  0
   58.6580   29.9720   46.3800 C   0  0  0  0  0  0  0  0  0  0  0  0
   59.7830   29.4920   47.0540 C   0  0  0  0  0  0  0  0  0  0  0  0
   60.4780   30.4490   48.5520 Br  0  0  0  0  0  0  0  0  0  0  0  0
   60.4020   28.3140   46.6270 C   0  0  0  0  0  0  0  0  0  0  0  0
   59.8950   27.6160   45.5300 C   0  0  0  0  0  0  0  0  0  0  0  0
   58.7710   28.0930   44.8450 C   0  0  0  0  0  0  0  0  0  0  0  0
   58.1820   27.1710   43.4660 Cl  0  0  0  0  0  0  0  0  0  0  0  0
   56.5840   33.6390   47.4920 H   0  0  0  0  0  0  0  0  0  0  0  0
   56.2380   34.1700   45.9110 H   0  0  0  0  0  0  0  0  0  0  0  0
   56.3040   32.5050   46.2700 H   0  0  0  0  0  0  0  0  0  0  0  0
   58.5803   32.5020   46.6206 H   0  0  0  0  0  0  0  0  0  0  0  0
   59.0066   35.4033   45.9975 H   0  0  0  0  0  0  0  0  0  0  0  0
   58.2873   35.0123   47.6124 H   0  0  0  0  0  0  0  0  0  0  0  0
   59.7255   34.5804   49.3846 H   0  0  0  0  0  0  0  0  0  0  0  0
   61.9678   33.9069   50.2444 H   0  0  0  0  0  0  0  0  0  0  0  0
   63.7566   33.1895   48.6544 H   0  0  0  0  0  0  0  0  0  0  0  0
   63.3018   33.1500   46.1994 H   0  0  0  0  0  0  0  0  0  0  0  0
   61.0604   33.8205   45.3304 H   0  0  0  0  0  0  0  0  0  0  0  0
   57.1203   32.9550   43.0142 H   0  0  0  0  0  0  0  0  0  0  0  0
   58.3291   31.6634   43.3946 H   0  0  0  0  0  0  0  0  0  0  0  0
   58.1663   30.8930   46.7263 H   0  0  0  0  0  0  0  0  0  0  0  0
   61.2896   27.9367   47.1560 H   0  0  0  0  0  0  0  0  0  0  0  0
   60.3813   26.6856   45.2016 H   0  0  0  0  0  0  0  0  0  0  0  0
  1  2  1  0
  2  3  1  0
  3  4  1  0
  4  5  2  0
  5  6  1  0
  6  7  2  0
  7  8  1  0
  8  9  2  0
  2 10  1  0
 10 11  2  0
 10 12  1  0
 12 13  1  0
 13 14  1  0
 14 15  2  0
 14 16  2  0
 14 17  1  0
 17 18  2  0
 18 19  1  0
 19 20  1  0
 19 21  2  0
 21 22  1  0
 22 23  2  0
 23 24  1  0
  9  4  1  0
 23 17  1  0
  1 25  1  0
  1 26  1  0
  1 27  1  0
  2 28  1  1
  3 29  1  0
  3 30  1  0
  5 31  1  0
  6 32  1  0
  7 33  1  0
  8 34  1  0
  9 35  1  0
 12 36  1  0
 12 37  1  0
 18 38  1  0
 21 39  1  0
 22 40  1  0
M  CHG  2   1   1  13  -1
M  END
>  <UniqueID>  (76) 
72

>  <SMILES>  (76) 
[NH3+][C@H](Cc1ccccc1)C(=O)C[N-]S(=O)(=O)c1cc(Br)ccc1Cl

>  <Energy>  (76) 
33.88255878543699

>  <Genealogy>  (76) 
[NH3+]C(Cc1ccccc1)C(=O)C[N-]S(=O)(=O)c1cc(Br)ccc1Cl (protonated)
[NH3+][C@H](Cc1ccccc1)C(=O)C[N-]S(=O)(=O)c1cc(Br)ccc1Cl (chirality)
[NH3+][C@H](Cc1ccccc1)C(=O)C[N-]S(=O)(=O)c1cc(Br)ccc1Cl (3D coordinates assigned)
[NH3+][C@H](Cc1ccccc1)C(=O)C[N-]S(=O)(=O)c1cc(Br)ccc1Cl (optimized conformer: 33.88255878543699 kcal/mol)

>  <smiles>  (76) 
NC(Cc1ccccc1)C(=O)CNS(=O)(=O)c1cc(Br)ccc1Cl

>  <score_type>  (76) 
oracle

>  <origin>  (76) 
adg

>  <m_score__min__energy>  (76) 
-8.9000000000000004

>  <m_primary>  (76) 
energy

$$$$
76:0
     RDKit          3D

 55 58  0  0  0  0  0  0  0  0999 V2000
   62.9520   32.0150   48.7460 O   0  0  0  0  0  0  0  0  0  0  0  0
   61.7620   31.8350   48.3640 C   0  0  0  0  0  0  0  0  0  0  0  0
   61.0040   32.9900   47.8240 C   0  0  0  0  0  0  0  0  0  0  0  0
   61.2200   33.4170   46.5020 C   0  0  0  0  0  0  0  0  0  0  0  0
   60.4970   34.4940   45.9790 C   0  0  0  0  0  0  0  0  0  0  0  0
   59.5430   35.1460   46.7650 C   0  0  0  0  0  0  0  0  0  0  0  0
   59.3090   34.7200   48.0750 C   0  0  0  0  0  0  0  0  0  0  0  0
   60.0300   33.6440   48.6030 C   0  0  0  0  0  0  0  0  0  0  0  0
   61.1740   30.4780   48.4710 C   0  0  0  0  0  0  0  0  0  0  0  0
   60.9440   29.8870   49.7260 C   0  0  0  0  0  0  0  0  0  0  0  0
   60.3870   28.6100   49.8130 C   0  0  0  0  0  0  0  0  0  0  0  0
   60.0780   27.8980   48.6520 C   0  0  0  0  0  0  0  0  0  0  0  0
   60.3400   28.4500   47.3930 C   0  0  0  0  0  0  0  0  0  0  0  0
   59.9970   27.6870   46.2260 N   0  0  0  0  0  0  0  0  0  0  0  0
   59.4320   28.1900   45.0070 C   0  0  0  0  0  0  0  0  0  0  0  0
   60.0790   29.0090   44.3010 O   0  0  0  0  0  0  0  0  0  0  0  0
   58.0260   27.7800   44.6150 C   0  0  2  0  0  0  0  0  0  0  0  0
   57.3430   28.7790   43.6400 C   0  0  0  0  0  0  0  0  0  0  0  0
   56.5370   29.8740   44.3020 C   0  0  0  0  0  0  0  0  0  0  0  0
   55.4320   29.6040   44.8460 O   0  0  0  0  0  0  0  0  0  0  0  0
   57.0520   31.2510   44.3740 C   0  0  0  0  0  0  0  0  0  0  0  0
   58.0200   31.7950   43.5510 C   0  0  0  0  0  0  0  0  0  0  0  0
   58.1990   33.0870   43.9920 C   0  0  0  0  0  0  0  0  0  0  0  0
   57.3310   33.2560   45.0510 C   0  0  0  0  0  0  0  0  0  0  0  0
   56.6610   32.1450   45.2550 O   0  0  0  0  0  0  0  0  0  0  0  0
   57.1240   27.3460   45.8080 C   0  0  0  0  0  0  0  0  0  0  0  0
   56.7960   25.8680   45.8680 C   0  0  0  0  0  0  0  0  0  0  0  0
   57.8270   24.9120   45.8370 C   0  0  0  0  0  0  0  0  0  0  0  0
   57.5330   23.5480   45.9160 C   0  0  0  0  0  0  0  0  0  0  0  0
   56.2090   23.1200   46.0140 C   0  0  0  0  0  0  0  0  0  0  0  0
   55.1730   24.0560   46.0250 C   0  0  0  0  0  0  0  0  0  0  0  0
   55.4570   25.4240   45.9520 C   0  0  0  0  0  0  0  0  0  0  0  0
   54.4030   26.3320   45.9740 O   0  0  0  0  0  0  0  0  0  0  0  0
   60.8740   29.7480   47.3060 C   0  0  0  0  0  0  0  0  0  0  0  0
   61.9621   32.9009   45.8752 H   0  0  0  0  0  0  0  0  0  0  0  0
   60.6796   34.8284   44.9471 H   0  0  0  0  0  0  0  0  0  0  0  0
   58.9767   35.9941   46.3526 H   0  0  0  0  0  0  0  0  0  0  0  0
   58.5562   35.2319   48.6924 H   0  0  0  0  0  0  0  0  0  0  0  0
   59.8353   33.3070   49.6318 H   0  0  0  0  0  0  0  0  0  0  0  0
   61.2044   30.4339   50.6442 H   0  0  0  0  0  0  0  0  0  0  0  0
   60.1909   28.1632   50.7989 H   0  0  0  0  0  0  0  0  0  0  0  0
   59.6262   26.8979   48.7276 H   0  0  0  0  0  0  0  0  0  0  0  0
   58.1592   26.8545   44.0356 H   0  0  0  0  0  0  0  0  0  0  0  0
   58.1283   29.2536   43.0334 H   0  0  0  0  0  0  0  0  0  0  0  0
   56.6282   28.1884   43.0482 H   0  0  0  0  0  0  0  0  0  0  0  0
   58.5391   31.2992   42.7175 H   0  0  0  0  0  0  0  0  0  0  0  0
   58.8944   33.8344   43.5823 H   0  0  0  0  0  0  0  0  0  0  0  0
   57.2174   34.1808   45.6357 H   0  0  0  0  0  0  0  0  0  0  0  0
   57.6402   27.6176   46.7406 H   0  0  0  0  0  0  0  0  0  0  0  0
   56.1643   27.8650   45.6680 H   0  0  0  0  0  0  0  0  0  0  0  0
   58.8732   25.2405   45.7499 H   0  0  0  0  0  0  0  0  0  0  0  0
   58.3482   22.8096   45.9009 H   0  0  0  0  0  0  0  0  0  0  0  0
   55.9813   22.0460   46.0826 H   0  0  0  0  0  0  0  0  0  0  0  0
   54.1289   23.7163   46.0914 H   0  0  0  0  0  0  0  0  0  0  0  0
   61.0588   30.1965   46.3187 H   0  0  0  0  0  0  0  0  0  0  0  0
  1  2  2  0
  2  3  1  0
  3  4  2  0
  4  5  1  0
  5  6  2  0
  6  7  1  0
  7  8  2  0
  2  9  1  0
  9 10  2  0
 10 11  1  0
 11 12  2  0
 12 13  1  0
 13 14  1  0
 14 15  1  0
 15 16  2  0
 15 17  1  0
 17 18  1  0
 18 19  1  0
 19 20  2  0
 19 21  1  0
 21 22  2  0
 22 23  1  0
 23 24  2  0
 24 25  1  0
 17 26  1  0
 26 27  1  0
 27 28  2  0
 28 29  1  0
 29 30  2  0
 30 31  1  0
 31 32  2  0
 32 33  1  0
 13 34  2  0
  8  3  1  0
 34  9  1  0
 25 21  1  0
 32 27  1  0
  4 35  1  0
  5 36  1  0
  6 37  1  0
  7 38  1  0
  8 39  1  0
 10 40  1  0
 11 41  1  0
 12 42  1  0
 17 43  1  6
 18 44  1  0
 18 45  1  0
 22 46  1  0
 23 47  1  0
 24 48  1  0
 26 49  1  0
 26 50  1  0
 28 51  1  0
 29 52  1  0
 30 53  1  0
 31 54  1  0
 34 55  1  0
M  CHG  2  14  -1  33  -1
M  END
>  <UniqueID>  (77) 
73

>  <SMILES>  (77) 
O=C(c1ccccc1)c1cccc([N-]C(=O)[C@H](CC(=O)c2ccco2)Cc2ccccc2[O-])c1

>  <Energy>  (77) 
96.88065009603109

>  <Genealogy>  (77) 
O=C(c1ccccc1)c1cccc([N-]C(=O)C(CC(=O)c2ccco2)Cc2ccccc2[O-])c1 (protonated)
O=C(c1ccccc1)c1cccc([N-]C(=O)[C@H](CC(=O)c2ccco2)Cc2ccccc2[O-])c1 (chirality)
O=C(c1ccccc1)c1cccc([N-]C(=O)[C@H](CC(=O)c2ccco2)Cc2ccccc2[O-])c1 (3D coordinates assigned)
O=C(c1ccccc1)c1cccc([N-]C(=O)[C@H](CC(=O)c2ccco2)Cc2ccccc2[O-])c1 (optimized conformer: 96.88065009603109 kcal/mol)

>  <smiles>  (77) 
O=C(c1ccccc1)c1cccc(NC(=O)C(CC(=O)c2ccco2)Cc2ccccc2O)c1

>  <score_type>  (77) 
oracle

>  <origin>  (77) 
adg

>  <m_score__min__energy>  (77) 
-15.44

>  <m_primary>  (77) 
energy

$$$$
77:0
     RDKit          3D

 73 76  0  0  0  0  0  0  0  0999 V2000
   60.9610   28.5640   50.9660 C   0  0  0  0  0  0  0  0  0  0  0  0
   59.5620   29.0640   50.7110 C   0  0  0  0  0  0  0  0  0  0  0  0
   59.0870   29.1900   49.5070 N   0  0  0  0  0  0  0  0  0  0  0  0
   59.7680   28.5500   48.0420 S   0  0  0  0  0  0  0  0  0  0  0  0
   61.1630   29.0870   47.8780 O   0  0  0  0  0  0  0  0  0  0  0  0
   59.8590   27.0550   48.1600 O   0  0  0  0  0  0  0  0  0  0  0  0
   58.7850   28.9610   46.6270 C   0  0  0  0  0  0  0  0  0  0  0  0
   57.6210   28.2290   46.3180 C   0  0  0  0  0  0  0  0  0  0  0  0
   56.8780   28.5510   45.1830 C   0  0  0  0  0  0  0  0  0  0  0  0
   57.2410   29.6220   44.3710 C   0  0  0  0  0  0  0  0  0  0  0  0
   56.2720   30.0470   42.9660 Cl  0  0  0  0  0  0  0  0  0  0  0  0
   58.4020   30.3520   44.6630 C   0  0  0  0  0  0  0  0  0  0  0  0
   59.1670   30.0220   45.7890 C   0  0  0  0  0  0  0  0  0  0  0  0
   58.7430   29.5020   51.8740 C   0  0  0  0  0  0  0  0  0  0  0  0
   59.2970   29.8350   52.9610 O   0  0  0  0  0  0  0  0  0  0  0  0
   57.3220   29.5720   51.7210 N   0  0  0  0  0  0  0  0  0  0  0  0
   56.4220   30.6990   51.9590 C   0  0  1  0  0  0  0  0  0  0  0  0
   56.1880   30.8410   53.4650 C   0  0  0  0  0  0  0  0  0  0  0  0
   57.4170   31.5840   53.9640 C   0  0  0  0  0  0  0  0  0  0  0  0
   57.9190   32.3360   52.8140 N   0  0  0  0  0  0  0  0  0  0  0  0
   58.9680   33.3280   52.9200 C   0  0  0  0  0  0  0  0  0  0  0  0
   58.7870   34.4680   52.4340 O   0  0  0  0  0  0  0  0  0  0  0  0
   60.2420   33.0640   53.6800 C   0  0  0  0  0  0  0  0  0  0  0  0
   61.1020   32.1600   52.9170 N   0  0  0  0  0  0  0  0  0  0  0  0
   61.9090   32.5770   51.8010 C   0  0  0  0  0  0  0  0  0  0  0  0
   61.7860   33.7430   51.3340 O   0  0  0  0  0  0  0  0  0  0  0  0
   62.8940   31.6990   51.2320 N   0  0  0  0  0  0  0  0  0  0  0  0
   62.7260   30.9820   49.9690 C   0  0  0  0  0  0  0  0  0  0  0  0
   62.7980   31.9350   48.8130 C   0  0  0  0  0  0  0  0  0  0  0  0
   61.8290   31.8750   47.7880 C   0  0  0  0  0  0  0  0  0  0  0  0
   61.8390   32.8100   46.7530 C   0  0  0  0  0  0  0  0  0  0  0  0
   62.8160   33.8130   46.7270 C   0  0  0  0  0  0  0  0  0  0  0  0
   63.7700   33.8880   47.7450 C   0  0  0  0  0  0  0  0  0  0  0  0
   63.7760   32.9340   48.7620 C   0  0  0  0  0  0  0  0  0  0  0  0
   57.1560   32.0160   51.5970 C   0  0  1  0  0  0  0  0  0  0  0  0
   58.0560   31.8600   50.3690 C   0  0  0  0  0  0  0  0  0  0  0  0
   58.8580   32.7850   49.7940 C   0  0  0  0  0  0  0  0  0  0  0  0
   58.9080   33.2650   48.3770 C   0  0  0  0  0  0  0  0  0  0  0  0
   59.5700   34.4950   48.1450 C   0  0  0  0  0  0  0  0  0  0  0  0
   59.4920   35.1540   46.9120 C   0  0  0  0  0  0  0  0  0  0  0  0
   58.7310   34.6030   45.8810 C   0  0  0  0  0  0  0  0  0  0  0  0
   58.0420   33.4080   46.0830 C   0  0  0  0  0  0  0  0  0  0  0  0
   58.1290   32.7430   47.3150 C   0  0  0  0  0  0  0  0  0  0  0  0
   61.1361   28.5014   52.0502 H   0  0  0  0  0  0  0  0  0  0  0  0
   61.0816   27.5671   50.5170 H   0  0  0  0  0  0  0  0  0  0  0  0
   61.6862   29.2586   50.5170 H   0  0  0  0  0  0  0  0  0  0  0  0
   57.2991   27.4047   46.9714 H   0  0  0  0  0  0  0  0  0  0  0  0
   55.9929   27.9506   44.9256 H   0  0  0  0  0  0  0  0  0  0  0  0
   58.7111   31.1813   44.0098 H   0  0  0  0  0  0  0  0  0  0  0  0
   60.0750   30.5987   46.0192 H   0  0  0  0  0  0  0  0  0  0  0  0
   55.5013   30.5307   51.3811 H   0  0  0  0  0  0  0  0  0  0  0  0
   55.2741   31.4196   53.6651 H   0  0  0  0  0  0  0  0  0  0  0  0
   56.0507   29.8703   53.9638 H   0  0  0  0  0  0  0  0  0  0  0  0
   57.1458   32.2686   54.7812 H   0  0  0  0  0  0  0  0  0  0  0  0
   58.1760   30.8933   54.3601 H   0  0  0  0  0  0  0  0  0  0  0  0
   60.7700   34.0144   53.8471 H   0  0  0  0  0  0  0  0  0  0  0  0
   59.9962   32.5987   54.6459 H   0  0  0  0  0  0  0  0  0  0  0  0
   61.0160   31.1390   53.1200 H   0  0  0  0  0  0  0  0  0  0  0  0
   63.5235   30.2310   49.8698 H   0  0  0  0  0  0  0  0  0  0  0  0
   61.7417   30.4909   49.9657 H   0  0  0  0  0  0  0  0  0  0  0  0
   61.0620   31.0867   47.8057 H   0  0  0  0  0  0  0  0  0  0  0  0
   61.0803   32.7596   45.9581 H   0  0  0  0  0  0  0  0  0  0  0  0
   62.8323   34.5427   45.9040 H   0  0  0  0  0  0  0  0  0  0  0  0
   64.5146   34.6977   47.7442 H   0  0  0  0  0  0  0  0  0  0  0  0
   64.5593   32.9674   49.5336 H   0  0  0  0  0  0  0  0  0  0  0  0
   56.4616   32.8208   51.3140 H   0  0  0  0  0  0  0  0  0  0  0  0
   58.0498   30.8684   49.8929 H   0  0  0  0  0  0  0  0  0  0  0  0
   59.5849   33.2569   50.4715 H   0  0  0  0  0  0  0  0  0  0  0  0
   60.1618   34.9452   48.9556 H   0  0  0  0  0  0  0  0  0  0  0  0
   60.0284   36.1018   46.7571 H   0  0  0  0  0  0  0  0  0  0  0  0
   58.6745   35.1120   44.9075 H   0  0  0  0  0  0  0  0  0  0  0  0
   57.4283   32.9853   45.2738 H   0  0  0  0  0  0  0  0  0  0  0  0
   57.5826   31.7993   47.4591 H   0  0  0  0  0  0  0  0  0  0  0  0
  1  2  1  0
  2  3  2  3
  3  4  1  0
  4  5  2  0
  4  6  2  0
  4  7  1  0
  7  8  2  0
  8  9  1  0
  9 10  2  0
 10 11  1  0
 10 12  1  0
 12 13  2  0
  2 14  1  0
 14 15  2  0
 14 16  1  0
 16 17  1  0
 17 18  1  0
 18 19  1  0
 19 20  1  0
 20 21  1  0
 21 22  2  0
 21 23  1  0
 23 24  1  0
 24 25  1  0
 25 26  2  0
 25 27  1  0
 27 28  1  0
 28 29  1  0
 29 30  2  0
 30 31  1  0
 31 32  2  0
 32 33  1  0
 33 34  2  0
 20 35  1  0
 35 36  1  0
 36 37  2  3
 37 38  1  0
 38 39  2  0
 39 40  1  0
 40 41  2  0
 41 42  1  0
 42 43  2  0
 13  7  1  0
 35 17  1  0
 43 38  1  0
 34 29  1  0
  1 44  1  0
  1 45  1  0
  1 46  1  0
  8 47  1  0
  9 48  1  0
 12 49  1  0
 13 50  1  0
 17 51  1  6
 18 52  1  0
 18 53  1  0
 19 54  1  0
 19 55  1  0
 23 56  1  0
 23 57  1  0
 24 58  1  0
 28 59  1  0
 28 60  1  0
 30 61  1  0
 31 62  1  0
 32 63  1  0
 33 64  1  0
 34 65  1  0
 35 66  1  6
 36 67  1  0
 37 68  1  0
 39 69  1  0
 40 70  1  0
 41 71  1  0
 42 72  1  0
 43 73  1  0
M  CHG  2  16  -1  27  -1
M  END
>  <UniqueID>  (78) 
74

>  <SMILES>  (78) 
CC(=NS(=O)(=O)c1ccc(Cl)cc1)C(=O)[N-][C@H]1CCN(C(=O)CNC(=O)[N-]Cc2ccccc2)[C@H]1C=Cc1ccccc1

>  <Energy>  (78) 
94.77204473849389

>  <Genealogy>  (78) 
CC(=NS(=O)(=O)c1ccc(Cl)cc1)C(=O)[N-]C1CCN(C(=O)CNC(=O)[N-]Cc2ccccc2)C1C=Cc1ccccc1 (protonated)
CC(=NS(=O)(=O)c1ccc(Cl)cc1)C(=O)[N-][C@H]1CCN(C(=O)CNC(=O)[N-]Cc2ccccc2)[C@H]1C=Cc1ccccc1 (chirality)
CC(=NS(=O)(=O)c1ccc(Cl)cc1)C(=O)[N-][C@H]1CCN(C(=O)CNC(=O)[N-]Cc2ccccc2)[C@H]1C=Cc1ccccc1 (3D coordinates assigned)
CC(=NS(=O)(=O)c1ccc(Cl)cc1)C(=O)[N-][C@H]1CCN(C(=O)CNC(=O)[N-]Cc2ccccc2)[C@H]1C=Cc1ccccc1 (nonaromatic ring conformer: 94.77204473849389 kcal/mol)

>  <smiles>  (78) 
CC(=NS(=O)(=O)c1ccc(Cl)cc1)C(=O)NC1CCN(C(=O)CNC(=O)NCc2ccccc2)C1C=Cc1ccccc1

>  <score_type>  (78) 
oracle

>  <origin>  (78) 
adg

>  <m_score__min__energy>  (78) 
-13.74

>  <m_primary>  (78) 
energy

$$$$
78:0
     RDKit          3D

 45 48  0  0  0  0  0  0  0  0999 V2000
   56.6934   27.7415   44.7826 H   0  0  0  0  0  0  0  0  0  0  0  0
   57.0670   28.7580   44.5900 C   0  0  0  0  0  0  0  0  0  0  0  0
   56.4090   29.5820   43.6720 C   0  0  0  0  0  0  0  0  0  0  0  0
   55.5184   29.2131   43.1422 H   0  0  0  0  0  0  0  0  0  0  0  0
   56.8820   30.8740   43.4270 C   0  0  0  0  0  0  0  0  0  0  0  0
   56.3600   31.5205   42.7062 H   0  0  0  0  0  0  0  0  0  0  0  0
   58.0210   31.3510   44.0970 C   0  0  0  0  0  0  0  0  0  0  0  0
   58.5160   32.7490   43.8370 C   0  0  0  0  0  0  0  0  0  0  0  0
   59.5644   32.8292   44.1602 H   0  0  0  0  0  0  0  0  0  0  0  0
   58.4372   32.9633   42.7609 H   0  0  0  0  0  0  0  0  0  0  0  0
   57.6980   33.7280   44.5850 N   0  0  0  0  0  0  0  0  0  0  0  0
   58.4440   34.9660   44.8890 C   0  0  0  0  0  0  0  0  0  0  0  0
   58.9232   35.3239   43.9658 H   0  0  0  0  0  0  0  0  0  0  0  0
   57.7251   35.6987   45.2843 H   0  0  0  0  0  0  0  0  0  0  0  0
   59.5340   34.7560   45.9620 C   0  0  0  0  0  0  0  0  0  0  0  0
   60.4561   34.4227   45.4634 H   0  0  0  0  0  0  0  0  0  0  0  0
   59.6701   35.7154   46.4826 H   0  0  0  0  0  0  0  0  0  0  0  0
   59.1440   33.7060   47.0270 C   0  0  0  0  0  0  0  0  0  0  0  0
   59.5453   32.7225   46.7412 H   0  0  0  0  0  0  0  0  0  0  0  0
   59.7060   34.1010   48.3170 N   0  0  0  0  0  0  0  0  0  0  0  0
   60.8780   33.8710   48.8500 C   0  0  0  0  0  0  0  0  0  0  0  0
   62.0700   33.6070   48.1240 C   0  0  0  0  0  0  0  0  0  0  0  0
   62.3910   33.5010   46.7740 C   0  0  0  0  0  0  0  0  0  0  0  0
   61.7053   33.6129   45.9212 H   0  0  0  0  0  0  0  0  0  0  0  0
   63.7490   33.2260   46.7200 C   0  0  0  0  0  0  0  0  0  0  0  0
   64.3216   33.0809   45.7921 H   0  0  0  0  0  0  0  0  0  0  0  0
   64.2700   33.1610   47.9590 N   0  0  0  0  0  0  0  0  0  0  0  0
   65.2660   32.9680   48.2100 H   0  0  0  0  0  0  0  0  0  0  0  0
   63.2500   33.3920   48.8010 C   0  0  0  0  0  0  0  0  0  0  0  0
   63.3250   33.4210   50.1860 C   0  0  0  0  0  0  0  0  0  0  0  0
   64.2753   33.2459   50.7115 H   0  0  0  0  0  0  0  0  0  0  0  0
   62.1430   33.6820   50.8870 C   0  0  0  0  0  0  0  0  0  0  0  0
   62.1572   33.7128   51.9865 H   0  0  0  0  0  0  0  0  0  0  0  0
   60.9710   33.8990   50.2190 N   0  0  0  0  0  0  0  0  0  0  0  0
   60.1130   34.0930   50.7850 H   0  0  0  0  0  0  0  0  0  0  0  0
   57.6160   33.5980   47.1220 C   0  0  0  0  0  0  0  0  0  0  0  0
   57.3524   32.8678   47.9013 H   0  0  0  0  0  0  0  0  0  0  0  0
   57.2042   34.5864   47.3740 H   0  0  0  0  0  0  0  0  0  0  0  0
   57.0230   33.1390   45.7750 C   0  0  0  0  0  0  0  0  0  0  0  0
   57.1081   32.0440   45.7145 H   0  0  0  0  0  0  0  0  0  0  0  0
   55.9787   33.4839   45.7524 H   0  0  0  0  0  0  0  0  0  0  0  0
   58.6760   30.5170   45.0190 C   0  0  0  0  0  0  0  0  0  0  0  0
   59.5672   30.8816   45.5508 H   0  0  0  0  0  0  0  0  0  0  0  0
   58.1990   29.2250   45.2630 C   0  0  0  0  0  0  0  0  0  0  0  0
   58.7155   28.5759   45.9854 H   0  0  0  0  0  0  0  0  0  0  0  0
  1  2  1  0
  2  3  2  0
  3  4  1  0
  3  5  1  0
  5  6  1  0
  5  7  2  0
  7  8  1  0
  8  9  1  0
  8 10  1  0
  8 11  1  0
 11 12  1  0
 12 13  1  0
 12 14  1  0
 12 15  1  0
 15 16  1  0
 15 17  1  0
 15 18  1  0
 18 19  1  0
 18 20  1  0
 20 21  2  0
 21 22  1  0
 22 23  1  0
 23 24  1  0
 23 25  2  0
 25 26  1  0
 25 27  1  0
 27 28  1  0
 27 29  1  0
 29 30  1  0
 30 31  1  0
 30 32  2  0
 32 33  1  0
 32 34  1  0
 34 35  1  0
 18 36  1  0
 36 37  1  0
 36 38  1  0
 36 39  1  0
 39 40  1  0
 39 41  1  0
  7 42  1  0
 42 43  1  0
 42 44  2  0
 44 45  1  0
 44  2  1  0
 39 11  1  0
 34 21  1  0
 29 22  2  0
M  END
>  <UniqueID>  (79) 
75

>  <SMILES>  (79) 
c1ccc(CN2CCC(/N=c3/[nH]ccc4[nH]ccc34)CC2)cc1

>  <Energy>  (79) 
98.12445292849657

>  <Genealogy>  (79) 
c1ccc(CN2CCC(/N=c3/[nH]ccc4[nH]ccc34)CC2)cc1 (cis-trans isomerization)
c1ccc(CN2CCC(/N=c3/[nH]ccc4[nH]ccc34)CC2)cc1 (3D coordinates assigned)
c1ccc(CN2CCC(/N=c3/[nH]ccc4[nH]ccc34)CC2)cc1 (nonaromatic ring conformer: 98.12445292849657 kcal/mol)

>  <smiles>  (79) 
c1ccc(CN2CCC(N=c3[nH]ccc4[nH]ccc34)CC2)cc1

>  <score_type>  (79) 
oracle

>  <origin>  (79) 
adg

>  <m_score__min__energy>  (79) 
-8.1099999999999994

>  <m_primary>  (79) 
energy

$$$$
79:0
     RDKit          3D

 61 64  0  0  0  0  0  0  0  0999 V2000
   54.6410   28.5570   44.4960 H   0  0  0  0  0  0  0  0  0  0  0  0
   55.5450   28.6200   44.9520 O   0  0  0  0  0  0  0  0  0  0  0  0
   56.0540   27.5450   45.6800 C   0  0  0  0  0  0  0  0  0  0  0  0
   55.3460   26.4400   45.9860 N   0  0  0  0  0  0  0  0  0  0  0  0
   56.2340   25.6990   46.6850 C   0  0  0  0  0  0  0  0  0  0  0  0
   55.9450   24.5730   47.1720 O   0  0  0  0  0  0  0  0  0  0  0  0
   57.4450   26.2680   46.8340 N   0  0  0  0  0  0  0  0  0  0  0  0
   57.3270   27.4390   46.1720 C   0  0  0  0  0  0  0  0  0  0  0  0
   58.3600   28.4940   46.1310 C   0  0  0  0  0  0  0  0  0  0  0  0
   59.3895   28.2152   46.3998 H   0  0  0  0  0  0  0  0  0  0  0  0
   58.1250   29.7760   45.7860 C   0  0  0  0  0  0  0  0  0  0  0  0
   58.1760   30.8790   46.6280 C   0  0  0  0  0  0  0  0  0  0  0  0
   58.3275   30.8691   47.7175 H   0  0  0  0  0  0  0  0  0  0  0  0
   57.9990   31.9910   45.8280 C   0  0  0  0  0  0  0  0  0  0  0  0
   58.1730   33.3730   46.3020 C   0  0  0  0  0  0  0  0  0  0  0  0
   57.1480   34.1090   46.4170 O   0  0  0  0  0  0  0  0  0  0  0  0
   59.4750   33.8720   46.6660 N   0  0  0  0  0  0  0  0  0  0  0  0
   59.5860   34.8780   47.7380 C   0  0  0  0  0  0  0  0  0  0  0  0
   60.0568   35.7876   47.3369 H   0  0  0  0  0  0  0  0  0  0  0  0
   58.5809   35.1149   48.1170 H   0  0  0  0  0  0  0  0  0  0  0  0
   60.4460   34.3240   48.8930 C   0  0  0  0  0  0  0  0  0  0  0  0
   61.4767   34.6948   48.7917 H   0  0  0  0  0  0  0  0  0  0  0  0
   60.0253   34.6585   49.8528 H   0  0  0  0  0  0  0  0  0  0  0  0
   60.4490   32.8530   48.8490 N   0  0  0  0  0  0  0  0  0  0  0  0
   59.6010   32.1080   49.7450 C   0  0  0  0  0  0  0  0  0  0  0  0
   58.5310   32.6260   50.1670 O   0  0  0  0  0  0  0  0  0  0  0  0
   59.9510   30.6900   50.1170 C   0  0  0  0  0  0  0  0  0  0  0  0
   60.6100   30.2733   49.3411 H   0  0  0  0  0  0  0  0  0  0  0  0
   60.4488   30.7128   51.0976 H   0  0  0  0  0  0  0  0  0  0  0  0
   58.7090   29.7960   50.2420 C   0  0  0  0  0  0  0  0  0  0  0  0
   57.9717   30.1003   49.4845 H   0  0  0  0  0  0  0  0  0  0  0  0
   59.0184   28.7515   50.0894 H   0  0  0  0  0  0  0  0  0  0  0  0
   58.0690   29.9120   51.6390 C   0  0  0  0  0  0  0  0  0  0  0  0
   57.8555   28.8690   51.9158 H   0  0  0  0  0  0  0  0  0  0  0  0
   58.9840   30.5800   52.6620 C   0  0  0  0  0  0  0  0  0  0  0  0
   59.6518   29.8375   53.1233 H   0  0  0  0  0  0  0  0  0  0  0  0
   59.6259   31.3437   52.1985 H   0  0  0  0  0  0  0  0  0  0  0  0
   58.0550   31.1810   53.7060 C   0  0  0  0  0  0  0  0  0  0  0  0
   57.9731   30.5089   54.5729 H   0  0  0  0  0  0  0  0  0  0  0  0
   58.4374   32.1467   54.0681 H   0  0  0  0  0  0  0  0  0  0  0  0
   56.6910   31.3450   53.0350 C   0  0  0  0  0  0  0  0  0  0  0  0
   55.9242   30.7950   53.6003 H   0  0  0  0  0  0  0  0  0  0  0  0
   56.3956   32.4041   53.0041 H   0  0  0  0  0  0  0  0  0  0  0  0
   56.8110   30.7740   51.6240 C   0  0  0  0  0  0  0  0  0  0  0  0
   55.9293   30.1632   51.3802 H   0  0  0  0  0  0  0  0  0  0  0  0
   56.8698   31.5687   50.8658 H   0  0  0  0  0  0  0  0  0  0  0  0
   60.9920   32.2130   47.6370 C   0  0  0  0  0  0  0  0  0  0  0  0
   62.0813   32.1007   47.7413 H   0  0  0  0  0  0  0  0  0  0  0  0
   60.5253   31.2250   47.5107 H   0  0  0  0  0  0  0  0  0  0  0  0
   60.6850   33.0780   46.4020 C   0  0  0  0  0  0  0  0  0  0  0  0
   61.5321   33.7508   46.2025 H   0  0  0  0  0  0  0  0  0  0  0  0
   60.5240   32.4330   45.5256 H   0  0  0  0  0  0  0  0  0  0  0  0
   57.8230   31.6300   44.5360 N   0  0  0  0  0  0  0  0  0  0  0  0
   57.6620   32.5350   43.3930 C   0  0  0  0  0  0  0  0  0  0  0  0
   57.4802   33.5569   43.7572 H   0  0  0  0  0  0  0  0  0  0  0  0
   58.5768   32.5207   42.7823 H   0  0  0  0  0  0  0  0  0  0  0  0
   56.8083   32.2061   42.7823 H   0  0  0  0  0  0  0  0  0  0  0  0
   57.8890   30.2740   44.5000 C   0  0  0  0  0  0  0  0  0  0  0  0
   57.7510   29.5480   43.3780 C   0  0  0  0  0  0  0  0  0  0  0  0
   57.5670   30.0505   42.4169 H   0  0  0  0  0  0  0  0  0  0  0  0
   57.8220   28.4511   43.4204 H   0  0  0  0  0  0  0  0  0  0  0  0
  1  2  1  0
  2  3  1  0
  3  4  1  0
  4  5  1  0
  5  6  2  0
  5  7  1  0
  7  8  1  0
  8  9  1  0
  9 10  1  0
  9 11  2  0
 11 12  1  0
 12 13  1  0
 12 14  2  0
 14 15  1  0
 15 16  2  0
 15 17  1  0
 17 18  1  0
 18 19  1  0
 18 20  1  0
 18 21  1  0
 21 22  1  0
 21 23  1  0
 21 24  1  0
 24 25  1  0
 25 26  2  0
 25 27  1  0
 27 28  1  0
 27 29  1  0
 27 30  1  0
 30 31  1  0
 30 32  1  0
 30 33  1  0
 33 34  1  0
 33 35  1  0
 35 36  1  0
 35 37  1  0
 35 38  1  0
 38 39  1  0
 38 40  1  0
 38 41  1  0
 41 42  1  0
 41 43  1  0
 41 44  1  0
 44 45  1  0
 44 46  1  0
 24 47  1  0
 47 48  1  0
 47 49  1  0
 47 50  1  0
 50 51  1  0
 50 52  1  0
 14 53  1  0
 53 54  1  0
 54 55  1  0
 54 56  1  0
 54 57  1  0
 53 58  1  0
 58 59  2  0
 59 60  1  0
 59 61  1  0
  8  3  2  0
 58 11  1  0
 50 17  1  0
 44 33  1  0
M  CHG  2   4  -1   7  -1
M  END
>  <UniqueID>  (80) 
76

>  <SMILES>  (80) 
C=c1/c(=C/c2[n-]c(=O)[n-]c2O)cc(C(=O)N2CCN(C(=O)CCC3CCCC3)CC2)n1C

>  <Energy>  (80) 
134.8888249768241

>  <Genealogy>  (80) 
C=c1c(=Cc2[n-]c(=O)[n-]c2O)cc(C(=O)N2CCN(C(=O)CCC3CCCC3)CC2)n1C (protonated)
C=c1/c(=C/c2[n-]c(=O)[n-]c2O)cc(C(=O)N2CCN(C(=O)CCC3CCCC3)CC2)n1C (cis-trans isomerization)
C=c1/c(=C/c2[n-]c(=O)[n-]c2O)cc(C(=O)N2CCN(C(=O)CCC3CCCC3)CC2)n1C (3D coordinates assigned)
C=c1/c(=C/c2[n-]c(=O)[n-]c2O)cc(C(=O)N2CCN(C(=O)CCC3CCCC3)CC2)n1C (nonaromatic ring conformer: 134.8888249768241 kcal/mol)

>  <smiles>  (80) 
C=c1c(=Cc2[nH]c(=O)[nH]c2O)cc(C(=O)N2CCN(C(=O)CCC3CCCC3)CC2)n1C

>  <score_type>  (80) 
oracle

>  <origin>  (80) 
adg

>  <m_score__min__energy>  (80) 
-13.630000000000001

>  <m_primary>  (80) 
energy

$$$$
80:0
     RDKit          3D

 45 47  0  0  0  0  0  0  0  0999 V2000
   55.1990   28.9570   44.7040 O   0  0  0  0  0  0  0  0  0  0  0  0
   56.3190   29.4820   44.4660 C   0  0  0  0  0  0  0  0  0  0  0  0
   56.3920   30.9170   44.5190 N   0  0  0  0  0  0  0  0  0  0  0  0
   57.3690   31.7970   43.9020 C   0  0  0  0  0  0  0  0  0  0  0  0
   57.8730   32.7840   44.9130 C   0  0  0  0  0  0  0  0  0  0  0  0
   58.8440   33.7310   44.5520 C   0  0  0  0  0  0  0  0  0  0  0  0
   59.2930   34.6490   45.5020 C   0  0  0  0  0  0  0  0  0  0  0  0
   58.7830   34.6100   46.7990 C   0  0  0  0  0  0  0  0  0  0  0  0
   57.8290   33.6450   47.1310 C   0  0  0  0  0  0  0  0  0  0  0  0
   57.3990   32.7560   46.1930 N   0  0  0  0  0  0  0  0  0  0  0  0
   57.4950   28.5330   44.2450 C   0  0  2  0  0  0  0  0  0  0  0  0
   57.2750   27.1740   44.9240 C   0  0  0  0  0  0  0  0  0  0  0  0
   57.5470   27.2370   46.4190 C   0  0  0  0  0  0  0  0  0  0  0  0
   58.9160   27.7860   46.6770 C   0  0  0  0  0  0  0  0  0  0  0  0
   59.5440   27.3840   47.6930 O   0  0  0  0  0  0  0  0  0  0  0  0
   59.4810   28.8040   45.8200 N   0  0  0  0  0  0  0  0  0  0  0  0
   60.7650   29.4320   46.1750 C   0  0  0  0  0  0  0  0  0  0  0  0
   60.5490   30.5680   47.1400 C   0  0  0  0  0  0  0  0  0  0  0  0
   61.4320   31.6600   47.1610 C   0  0  0  0  0  0  0  0  0  0  0  0
   61.2850   32.6680   48.1180 C   0  0  0  0  0  0  0  0  0  0  0  0
   60.2530   32.5990   49.0570 C   0  0  0  0  0  0  0  0  0  0  0  0
   60.0900   33.8490   50.2770 Cl  0  0  0  0  0  0  0  0  0  0  0  0
   59.3570   31.5250   49.0320 C   0  0  0  0  0  0  0  0  0  0  0  0
   59.5020   30.5140   48.0770 C   0  0  0  0  0  0  0  0  0  0  0  0
   58.9210   29.0880   44.4830 C   0  0  0  0  0  0  0  0  0  0  0  0
   58.2114   31.1993   43.5235 H   0  0  0  0  0  0  0  0  0  0  0  0
   56.8958   32.3387   43.0698 H   0  0  0  0  0  0  0  0  0  0  0  0
   59.2476   33.7493   43.5289 H   0  0  0  0  0  0  0  0  0  0  0  0
   60.0473   35.4014   45.2284 H   0  0  0  0  0  0  0  0  0  0  0  0
   59.1284   35.3320   47.5535 H   0  0  0  0  0  0  0  0  0  0  0  0
   57.4240   33.6030   48.1528 H   0  0  0  0  0  0  0  0  0  0  0  0
   56.6840   32.0460   46.4700 H   0  0  0  0  0  0  0  0  0  0  0  0
   57.4840   28.3939   43.1539 H   0  0  0  0  0  0  0  0  0  0  0  0
   56.2324   26.8615   44.7650 H   0  0  0  0  0  0  0  0  0  0  0  0
   57.9769   26.4530   44.4796 H   0  0  0  0  0  0  0  0  0  0  0  0
   56.7995   27.8876   46.8964 H   0  0  0  0  0  0  0  0  0  0  0  0
   57.4851   26.2212   46.8364 H   0  0  0  0  0  0  0  0  0  0  0  0
   61.4186   28.6803   46.6416 H   0  0  0  0  0  0  0  0  0  0  0  0
   61.2323   29.8266   45.2607 H   0  0  0  0  0  0  0  0  0  0  0  0
   62.2432   31.7222   46.4207 H   0  0  0  0  0  0  0  0  0  0  0  0
   61.9835   33.5176   48.1318 H   0  0  0  0  0  0  0  0  0  0  0  0
   58.5376   31.4758   49.7643 H   0  0  0  0  0  0  0  0  0  0  0  0
   58.7937   29.6726   48.0587 H   0  0  0  0  0  0  0  0  0  0  0  0
   58.8901   30.1795   44.3497 H   0  0  0  0  0  0  0  0  0  0  0  0
   59.5756   28.5808   43.7590 H   0  0  0  0  0  0  0  0  0  0  0  0
  1  2  2  0
  2  3  1  0
  3  4  1  0
  4  5  1  0
  5  6  2  0
  6  7  1  0
  7  8  2  0
  8  9  1  0
  9 10  2  0
  2 11  1  0
 11 12  1  0
 12 13  1  0
 13 14  1  0
 14 15  2  0
 14 16  1  0
 16 17  1  0
 17 18  1  0
 18 19  2  0
 19 20  1  0
 20 21  2  0
 21 22  1  0
 21 23  1  0
 23 24  2  0
 16 25  1  0
 10  5  1  0
 25 11  1  0
 24 18  1  0
  4 26  1  0
  4 27  1  0
  6 28  1  0
  7 29  1  0
  8 30  1  0
  9 31  1  0
 10 32  1  0
 11 33  1  6
 12 34  1  0
 12 35  1  0
 13 36  1  0
 13 37  1  0
 17 38  1  0
 17 39  1  0
 19 40  1  0
 20 41  1  0
 23 42  1  0
 24 43  1  0
 25 44  1  0
 25 45  1  0
M  CHG  2   3  -1  10   1
M  END
>  <UniqueID>  (81) 
77

>  <SMILES>  (81) 
O=C([N-]Cc1cccc[nH+]1)[C@@H]1CCC(=O)N(Cc2ccc(Cl)cc2)C1

>  <Energy>  (81) 
46.425019969935384

>  <Genealogy>  (81) 
O=C([N-]Cc1cccc[nH+]1)C1CCC(=O)N(Cc2ccc(Cl)cc2)C1 (protonated)
O=C([N-]Cc1cccc[nH+]1)[C@@H]1CCC(=O)N(Cc2ccc(Cl)cc2)C1 (chirality)
O=C([N-]Cc1cccc[nH+]1)[C@@H]1CCC(=O)N(Cc2ccc(Cl)cc2)C1 (3D coordinates assigned)
O=C([N-]Cc1cccc[nH+]1)[C@@H]1CCC(=O)N(Cc2ccc(Cl)cc2)C1 (nonaromatic ring conformer: 46.425019969935384 kcal/mol)

>  <smiles>  (81) 
O=C(NCc1ccccn1)C1CCC(=O)N(Cc2ccc(Cl)cc2)C1

>  <score_type>  (81) 
oracle

>  <origin>  (81) 
adg

>  <m_score__min__energy>  (81) 
-8.3100000000000005

>  <m_primary>  (81) 
energy

$$$$
81:0
     RDKit          3D

 43 46  0  0  1  0  0  0  0  0999 V2000
   56.4380   26.4750   45.6190 C   0  0  0  0  0  0  0  0  0  0  0  0
   57.7340   26.6500   45.6790 C   0  0  0  0  0  0  0  0  0  0  0  0
   57.4790   31.2880   45.2720 C   0  0  0  0  0  0  0  0  0  0  0  0
   58.4160   24.4500   46.4640 C   0  0  0  0  0  0  0  0  0  0  0  0
   58.2200   23.3290   45.5510 C   0  0  0  0  0  0  0  0  0  0  0  0
   57.0370   23.1030   44.9190 N   0  0  0  0  0  0  0  0  0  0  0  0
   57.1500   22.0070   44.1460 C   0  0  0  0  0  0  0  0  0  0  0  0
   56.2420   21.5130   43.4220 O   0  0  0  0  0  0  0  0  0  0  0  0
   58.4110   21.5480   44.2980 N   0  0  0  0  0  0  0  0  0  0  0  0
   59.0810   22.3560   45.1630 C   0  0  0  0  0  0  0  0  0  0  0  0
   60.3900   22.2430   45.5930 O   0  0  0  0  0  0  0  0  0  0  0  0
   56.6330   31.3350   44.1850 C   0  0  0  0  0  0  0  0  0  0  0  0
   59.7420   27.5510   45.5630 C   0  0  0  0  0  0  0  0  0  0  0  0
   60.7810   28.5910   45.3140 C   0  0  0  0  0  0  0  0  0  0  0  0
   58.4290   27.7820   45.3690 N   0  0  0  0  0  0  0  0  0  0  0  0
   57.7860   28.9720   44.9190 C   0  0  0  0  0  0  0  0  0  0  0  0
   58.0270   30.1050   45.6020 N   0  0  0  0  0  0  0  0  0  0  0  0
   58.6540   25.6810   46.0800 C   0  0  0  0  0  0  0  0  0  0  0  0
   57.7760   32.3090   45.9950 N   0  0  0  0  0  0  0  0  0  0  0  0
   57.7730   33.6130   45.3940 C   0  0  0  0  0  0  0  0  0  0  0  0
   58.8410   34.5780   45.9040 C   0  0  0  0  0  0  0  0  0  0  0  0
   58.8970   34.0430   44.5190 C   0  0  0  0  0  0  0  0  0  0  0  0
   59.8970   26.2530   46.0040 C   0  0  0  0  0  0  0  0  0  0  0  0
   56.3950   30.1650   43.4930 C   0  0  0  0  0  0  0  0  0  0  0  0
   56.9640   28.9880   43.8510 N   0  0  0  0  0  0  0  0  0  0  0  0
   55.7865   27.2981   45.2902 H   0  0  0  0  0  0  0  0  0  0  0  0
   56.0005   25.5049   45.8974 H   0  0  0  0  0  0  0  0  0  0  0  0
   58.3605   24.2496   47.5442 H   0  0  0  0  0  0  0  0  0  0  0  0
   56.1550   23.6590   44.9870 H   0  0  0  0  0  0  0  0  0  0  0  0
   58.8060   20.7040   43.8240 H   0  0  0  0  0  0  0  0  0  0  0  0
   61.1250   21.9840   44.9220 H   0  0  0  0  0  0  0  0  0  0  0  0
   56.1603   32.2794   43.8774 H   0  0  0  0  0  0  0  0  0  0  0  0
   61.1589   28.9693   46.2753 H   0  0  0  0  0  0  0  0  0  0  0  0
   61.6107   28.1507   44.7415 H   0  0  0  0  0  0  0  0  0  0  0  0
   60.3399   29.4203   44.7415 H   0  0  0  0  0  0  0  0  0  0  0  0
   56.6800   33.6034   45.2706 H   0  0  0  0  0  0  0  0  0  0  0  0
   58.5923   35.6353   46.0780 H   0  0  0  0  0  0  0  0  0  0  0  0
   59.5287   34.6019   46.7622 H   0  0  0  0  0  0  0  0  0  0  0  0
   58.7002   34.7117   43.6681 H   0  0  0  0  0  0  0  0  0  0  0  0
   59.6601   33.5099   43.9328 H   0  0  0  0  0  0  0  0  0  0  0  0
   60.8505   25.7634   46.2511 H   0  0  0  0  0  0  0  0  0  0  0  0
   55.7221   30.1883   42.6232 H   0  0  0  0  0  0  0  0  0  0  0  0
   56.8090   28.1040   43.3590 H   0  0  0  0  0  0  0  0  0  0  0  0
  1  2  2  0
  2  3  1  0
  3  4  2  0
  4  5  1  0
  5  6  1  0
  6  7  1  0
  7  8  2  0
  7  9  1  0
  9 10  1  0
 10 11  1  0
  3 12  1  0
 12 13  2  0
 13 14  1  0
 13 15  1  0
 15 16  1  0
 16 17  2  0
 17 18  1  0
 18 19  2  0
 19 20  1  0
 20 21  1  0
 21 22  1  0
 18 23  1  0
 23 24  2  0
 24 25  1  0
 15  2  1  0
 25 16  1  0
 10  5  2  0
 22 20  1  0
  1 26  1  0
  1 27  1  0
  4 28  1  0
  6 29  1  0
  9 30  1  0
 11 31  1  0
 12 32  1  0
 14 33  1  0
 14 34  1  0
 14 35  1  0
 20 36  1  0
 21 37  1  0
 21 38  1  0
 22 39  1  0
 22 40  1  0
 23 41  1  0
 24 42  1  0
 25 43  1  0
M  END
>  <smiles>  (82) 
C=c1c(=Cc2[nH]c(=O)[nH]c2O)cc(C)n1-c1nc(=NC2CC2)cc[nH]1

>  <score_type>  (82) 
oracle

>  <origin>  (82) 
adg

>  <m_score__min__energy>  (82) 
-9

>  <m_primary>  (82) 
energy

$$$$
82:0
     RDKit          3D

 46 48  0  0  0  0  0  0  0  0999 V2000
   55.1590   27.3500   46.0600 H   0  0  0  0  0  0  0  0  0  0  0  0
   54.8980   26.3420   45.9900 N   0  0  0  0  0  0  0  0  0  0  0  0
   55.8980   25.3260   45.9970 C   0  0  0  0  0  0  0  0  0  0  0  0
   56.0100   24.5810   47.0080 O   0  0  0  0  0  0  0  0  0  0  0  0
   56.8460   25.1820   44.8700 C   0  0  0  0  0  0  0  0  0  0  0  0
   56.6580   24.0680   43.9720 C   0  0  0  0  0  0  0  0  0  0  0  0
   56.5080   23.1740   43.2530 N   0  0  0  0  0  0  0  0  0  0  0  0
   57.9030   25.9900   44.6680 C   0  0  0  0  0  0  0  0  0  0  0  0
   58.6857   25.6374   43.9802 H   0  0  0  0  0  0  0  0  0  0  0  0
   58.0960   27.3140   45.2970 C   0  0  0  0  0  0  0  0  0  0  0  0
   58.8930   27.4670   46.4450 C   0  0  0  0  0  0  0  0  0  0  0  0
   59.4359   26.6024   46.8545 H   0  0  0  0  0  0  0  0  0  0  0  0
   58.9980   28.7140   47.0680 C   0  0  0  0  0  0  0  0  0  0  0  0
   59.6282   28.8298   47.9621 H   0  0  0  0  0  0  0  0  0  0  0  0
   58.3040   29.8130   46.5570 C   0  0  0  0  0  0  0  0  0  0  0  0
   58.3779   30.7890   47.0590 H   0  0  0  0  0  0  0  0  0  0  0  0
   57.5150   29.6780   45.4090 C   0  0  0  0  0  0  0  0  0  0  0  0
   56.8010   30.8140   44.9110 N   0  0  0  0  0  0  0  0  0  0  0  0
   57.3560   31.8410   44.0780 C   0  0  0  0  0  0  0  0  0  0  0  0
   57.6540   31.5630   42.8860 O   0  0  0  0  0  0  0  0  0  0  0  0
   57.4480   33.2710   44.5370 C   0  0  0  0  0  0  0  0  0  0  0  0
   57.8872   33.8837   43.7359 H   0  0  0  0  0  0  0  0  0  0  0  0
   56.4399   33.6399   44.7770 H   0  0  0  0  0  0  0  0  0  0  0  0
   58.3130   33.3600   45.7640 C   0  0  0  0  0  0  0  0  0  0  0  0
   57.7980   33.0210   47.0250 C   0  0  0  0  0  0  0  0  0  0  0  0
   56.7426   32.7275   47.1252 H   0  0  0  0  0  0  0  0  0  0  0  0
   58.6210   33.0550   48.1530 C   0  0  0  0  0  0  0  0  0  0  0  0
   58.2108   32.7938   49.1397 H   0  0  0  0  0  0  0  0  0  0  0  0
   59.9640   33.4200   48.0310 C   0  0  0  0  0  0  0  0  0  0  0  0
   60.6106   33.4300   48.9209 H   0  0  0  0  0  0  0  0  0  0  0  0
   60.4920   33.7730   46.7840 C   0  0  0  0  0  0  0  0  0  0  0  0
   61.8890   34.0900   46.6910 N   0  0  0  0  0  0  0  0  0  0  0  0
   62.9920   33.2970   47.1530 C   0  0  0  0  0  0  0  0  0  0  0  0
   63.9440   33.0630   46.3630 O   0  0  0  0  0  0  0  0  0  0  0  0
   63.0340   32.7070   48.5350 C   0  0  0  0  0  0  0  0  0  0  0  0
   62.4017   31.8349   48.3121 H   0  0  0  0  0  0  0  0  0  0  0  0
   63.1150   33.7500   49.6420 C   0  0  0  0  0  0  0  0  0  0  0  0
   63.0953   34.8208   49.3910 H   0  0  0  0  0  0  0  0  0  0  0  0
   62.5453   33.9545   50.5605 H   0  0  0  0  0  0  0  0  0  0  0  0
   64.3340   32.9130   49.3000 C   0  0  0  0  0  0  0  0  0  0  0  0
   65.1974   33.3776   48.8014 H   0  0  0  0  0  0  0  0  0  0  0  0
   65.0128   32.2603   49.8685 H   0  0  0  0  0  0  0  0  0  0  0  0
   59.6660   33.7240   45.6480 C   0  0  0  0  0  0  0  0  0  0  0  0
   60.0814   33.9724   44.6602 H   0  0  0  0  0  0  0  0  0  0  0  0
   57.3870   28.4180   44.8020 C   0  0  0  0  0  0  0  0  0  0  0  0
   56.7255   28.2962   43.9316 H   0  0  0  0  0  0  0  0  0  0  0  0
  1  2  1  0
  2  3  1  0
  3  4  2  0
  3  5  1  0
  5  6  1  0
  6  7  3  0
  5  8  2  0
  8  9  1  0
  8 10  1  0
 10 11  2  0
 11 12  1  0
 11 13  1  0
 13 14  1  0
 13 15  2  0
 15 16  1  0
 15 17  1  0
 17 18  1  0
 18 19  1  0
 19 20  2  0
 19 21  1  0
 21 22  1  0
 21 23  1  0
 21 24  1  0
 24 25  2  0
 25 26  1  0
 25 27  1  0
 27 28  1  0
 27 29  2  0
 29 30  1  0
 29 31  1  0
 31 32  1  0
 32 33  1  0
 33 34  2  0
 33 35  1  0
 35 36  1  0
 35 37  1  0
 37 38  1  0
 37 39  1  0
 37 40  1  0
 40 41  1  0
 40 42  1  0
 31 43  2  0
 43 44  1  0
 17 45  2  0
 45 46  1  0
 45 10  1  0
 43 24  1  0
 40 35  1  0
M  CHG  3   2  -1  18  -1  32  -1
M  END
>  <UniqueID>  (83) 
78

>  <SMILES>  (83) 
N#C/C(=C/c1cccc([N-]C(=O)Cc2cccc([N-]C(=O)C3CC3)c2)c1)C([NH-])=O

>  <Energy>  (83) 
322.6933614545134

>  <Genealogy>  (83) 
N#CC(=Cc1cccc([N-]C(=O)Cc2cccc([N-]C(=O)C3CC3)c2)c1)C([NH-])=O (protonated)
N#C/C(=C/c1cccc([N-]C(=O)Cc2cccc([N-]C(=O)C3CC3)c2)c1)C([NH-])=O (cis-trans isomerization)
N#C/C(=C/c1cccc([N-]C(=O)Cc2cccc([N-]C(=O)C3CC3)c2)c1)C([NH-])=O (3D coordinates assigned)
N#C/C(=C/c1cccc([N-]C(=O)Cc2cccc([N-]C(=O)C3CC3)c2)c1)C([NH-])=O (nonaromatic ring conformer: 322.6933614545134 kcal/mol)

>  <smiles>  (83) 
N#CC(=Cc1cccc(NC(=O)Cc2cccc(NC(=O)C3CC3)c2)c1)C(N)=O

>  <score_type>  (83) 
oracle

>  <origin>  (83) 
adg

>  <m_score__min__energy>  (83) 
-14.859999999999999

>  <m_primary>  (83) 
energy

$$$$
83:0
     RDKit          3D

 65 68  0  0  0  0  0  0  0  0999 V2000
   57.1490   31.6900   43.1290 O   0  0  0  0  0  0  0  0  0  0  0  0
   57.0520   30.8060   44.0220 C   0  0  0  0  0  0  0  0  0  0  0  0
   56.2620   29.5690   43.7250 C   0  0  0  0  0  0  0  0  0  0  0  0
   55.7350   29.0000   44.9600 N   0  0  0  0  0  0  0  0  0  0  0  0
   56.2820   27.8410   45.6030 C   0  0  0  0  0  0  0  0  0  0  0  0
   55.5380   26.8500   45.8460 O   0  0  0  0  0  0  0  0  0  0  0  0
   57.7080   27.8120   46.0020 C   0  0  0  0  0  0  0  0  0  0  0  0
   58.6680   27.2080   45.1710 C   0  0  0  0  0  0  0  0  0  0  0  0
   60.0130   27.1860   45.5440 C   0  0  0  0  0  0  0  0  0  0  0  0
   60.4190   27.7600   46.7490 C   0  0  0  0  0  0  0  0  0  0  0  0
   59.4810   28.3800   47.5840 C   0  0  0  0  0  0  0  0  0  0  0  0
   60.0000   29.1410   49.0870 S   0  0  0  0  0  0  0  0  0  0  0  0
   61.2010   30.0080   48.8200 O   0  0  0  0  0  0  0  0  0  0  0  0
   60.3960   28.0720   50.0710 O   0  0  0  0  0  0  0  0  0  0  0  0
   58.6890   30.0850   49.7550 N   0  0  0  0  0  0  0  0  0  0  0  0
   58.7140   31.4640   49.2650 C   0  0  0  0  0  0  0  0  0  0  0  0
   58.0620   32.3210   50.3390 C   0  0  0  0  0  0  0  0  0  0  0  0
   58.1300   31.4920   51.6120 C   0  0  0  0  0  0  0  0  0  0  0  0
   58.7980   30.1850   51.2090 C   0  0  0  0  0  0  0  0  0  0  0  0
   58.1290   28.4010   47.2130 C   0  0  0  0  0  0  0  0  0  0  0  0
   57.5860   31.0230   45.3370 N   0  0  0  0  0  0  0  0  0  0  0  0
   58.2380   32.2290   45.7690 C   0  0  0  0  0  0  0  0  0  0  0  0
   57.5330   33.4360   45.9470 C   0  0  0  0  0  0  0  0  0  0  0  0
   58.1820   34.5600   46.4650 C   0  0  0  0  0  0  0  0  0  0  0  0
   59.5370   34.4970   46.8060 C   0  0  0  0  0  0  0  0  0  0  0  0
   60.2600   33.3140   46.5960 C   0  0  0  0  0  0  0  0  0  0  0  0
   61.9530   33.2060   47.0840 S   0  0  0  0  0  0  0  0  0  0  0  0
   62.3350   31.7570   47.1840 O   0  0  0  0  0  0  0  0  0  0  0  0
   62.8210   33.8450   46.0380 O   0  0  0  0  0  0  0  0  0  0  0  0
   62.2310   34.0020   48.6180 N   0  0  0  0  0  0  0  0  0  0  0  0
   63.6120   33.7650   49.1000 C   0  0  0  0  0  0  0  0  0  0  0  0
   63.7180   33.8280   50.6240 C   0  0  0  0  0  0  0  0  0  0  0  0
   62.8630   32.7230   51.2540 C   0  0  0  0  0  0  0  0  0  0  0  0
   61.4930   32.5570   50.5590 C   0  0  0  0  0  0  0  0  0  0  0  0
   61.1560   33.7140   49.5980 C   0  0  0  0  0  0  0  0  0  0  0  0
   59.6120   32.1970   46.0460 C   0  0  0  0  0  0  0  0  0  0  0  0
   55.4264   29.8232   43.0564 H   0  0  0  0  0  0  0  0  0  0  0  0
   56.9187   28.8310   43.2411 H   0  0  0  0  0  0  0  0  0  0  0  0
   58.3571   26.7497   44.2206 H   0  0  0  0  0  0  0  0  0  0  0  0
   60.7563   26.7139   44.8847 H   0  0  0  0  0  0  0  0  0  0  0  0
   61.4782   27.7255   47.0439 H   0  0  0  0  0  0  0  0  0  0  0  0
   59.7518   31.7887   49.0991 H   0  0  0  0  0  0  0  0  0  0  0  0
   58.1790   31.5538   48.3081 H   0  0  0  0  0  0  0  0  0  0  0  0
   58.6120   33.2653   50.4646 H   0  0  0  0  0  0  0  0  0  0  0  0
   57.0270   32.5870   50.0783 H   0  0  0  0  0  0  0  0  0  0  0  0
   58.7276   32.0097   52.3768 H   0  0  0  0  0  0  0  0  0  0  0  0
   57.1326   31.3248   52.0447 H   0  0  0  0  0  0  0  0  0  0  0  0
   59.8561   30.1922   51.5097 H   0  0  0  0  0  0  0  0  0  0  0  0
   58.3154   29.3274   51.7006 H   0  0  0  0  0  0  0  0  0  0  0  0
   57.3902   28.8808   47.8718 H   0  0  0  0  0  0  0  0  0  0  0  0
   57.3560   30.3160   46.0680 H   0  0  0  0  0  0  0  0  0  0  0  0
   56.4681   33.4937   45.6773 H   0  0  0  0  0  0  0  0  0  0  0  0
   57.6249   35.4981   46.6051 H   0  0  0  0  0  0  0  0  0  0  0  0
   60.0360   35.3763   47.2393 H   0  0  0  0  0  0  0  0  0  0  0  0
   63.9369   32.7691   48.7645 H   0  0  0  0  0  0  0  0  0  0  0  0
   64.2515   34.5589   48.6869 H   0  0  0  0  0  0  0  0  0  0  0  0
   64.7679   33.6912   50.9223 H   0  0  0  0  0  0  0  0  0  0  0  0
   63.3566   34.8071   50.9714 H   0  0  0  0  0  0  0  0  0  0  0  0
   63.4105   31.7716   51.1835 H   0  0  0  0  0  0  0  0  0  0  0  0
   62.6720   33.0071   52.2994 H   0  0  0  0  0  0  0  0  0  0  0  0
   61.5031   31.6181   49.9859 H   0  0  0  0  0  0  0  0  0  0  0  0
   60.7252   32.5518   51.3466 H   0  0  0  0  0  0  0  0  0  0  0  0
   60.2419   33.4521   49.0450 H   0  0  0  0  0  0  0  0  0  0  0  0
   61.0280   34.6175   50.2122 H   0  0  0  0  0  0  0  0  0  0  0  0
   60.1890   31.2858   45.8298 H   0  0  0  0  0  0  0  0  0  0  0  0
  1  2  2  0
  2  3  1  0
  3  4  1  0
  4  5  1  0
  5  6  2  0
  5  7  1  0
  7  8  2  0
  8  9  1  0
  9 10  2  0
 10 11  1  0
 11 12  1  0
 12 13  2  0
 12 14  2  0
 12 15  1  0
 15 16  1  0
 16 17  1  0
 17 18  1  0
 18 19  1  0
 11 20  2  0
  2 21  1  0
 21 22  1  0
 22 23  2  0
 23 24  1  0
 24 25  2  0
 25 26  1  0
 26 27  1  0
 27 28  2  0
 27 29  2  0
 27 30  1  0
 30 31  1  0
 31 32  1  0
 32 33  1  0
 33 34  1  0
 34 35  1  0
 26 36  2  0
 20  7  1  0
 36 22  1  0
 19 15  1  0
 35 30  1  0
  3 37  1  0
  3 38  1  0
  8 39  1  0
  9 40  1  0
 10 41  1  0
 16 42  1  0
 16 43  1  0
 17 44  1  0
 17 45  1  0
 18 46  1  0
 18 47  1  0
 19 48  1  0
 19 49  1  0
 20 50  1  0
 21 51  1  0
 23 52  1  0
 24 53  1  0
 25 54  1  0
 31 55  1  0
 31 56  1  0
 32 57  1  0
 32 58  1  0
 33 59  1  0
 33 60  1  0
 34 61  1  0
 34 62  1  0
 35 63  1  0
 35 64  1  0
 36 65  1  0
M  CHG  1   4  -1
M  END
>  <UniqueID>  (84) 
79

>  <SMILES>  (84) 
O=C(C[N-]C(=O)c1cccc(S(=O)(=O)N2CCCC2)c1)Nc1cccc(S(=O)(=O)N2CCCCC2)c1

>  <Energy>  (84) 
71.92884944817628

>  <Genealogy>  (84) 
O=C(C[N-]C(=O)c1cccc(S(=O)(=O)N2CCCC2)c1)Nc1cccc(S(=O)(=O)N2CCCCC2)c1 (protonated)
O=C(C[N-]C(=O)c1cccc(S(=O)(=O)N2CCCC2)c1)Nc1cccc(S(=O)(=O)N2CCCCC2)c1 (3D coordinates assigned)
O=C(C[N-]C(=O)c1cccc(S(=O)(=O)N2CCCC2)c1)Nc1cccc(S(=O)(=O)N2CCCCC2)c1 (nonaromatic ring conformer: 71.92884944817628 kcal/mol)

>  <smiles>  (84) 
O=C(CNC(=O)c1cccc(S(=O)(=O)N2CCCC2)c1)Nc1cccc(S(=O)(=O)N2CCCCC2)c1

>  <score_type>  (84) 
oracle

>  <origin>  (84) 
adg

>  <m_score__min__energy>  (84) 
-12.69

>  <m_primary>  (84) 
energy

$$$$
84:0
     RDKit          3D

 43 45  0  0  0  0  0  0  0  0999 V2000
   56.6920   30.6760   45.2450 O   0  0  0  0  0  0  0  0  0  0  0  0
   57.7420   31.2990   45.3170 C   0  0  0  0  0  0  0  0  0  0  0  0
   59.0470   30.5540   45.2490 C   0  0  0  0  0  0  0  0  0  0  0  0
   59.5970   30.3550   46.6340 C   0  0  0  0  0  0  0  0  0  0  0  0
   58.7990   29.7870   47.6410 C   0  0  0  0  0  0  0  0  0  0  0  0
   59.3240   29.5690   48.9180 C   0  0  0  0  0  0  0  0  0  0  0  0
   60.6500   29.9120   49.1980 C   0  0  0  0  0  0  0  0  0  0  0  0
   61.4550   30.4670   48.1980 C   0  0  0  0  0  0  0  0  0  0  0  0
   60.9340   30.6830   46.9190 C   0  0  0  0  0  0  0  0  0  0  0  0
   57.7170   32.7980   45.5090 C   0  0  2  0  0  0  0  0  0  0  0  0
   58.5180   33.4940   44.3940 C   0  0  0  0  0  0  0  0  0  0  0  0
   58.7580   34.9630   44.7450 C   0  0  0  0  0  0  0  0  0  0  0  0
   59.6870   35.0810   45.9600 C   0  0  0  0  0  0  0  0  0  0  0  0
   59.3290   34.1280   47.0830 C   0  0  0  0  0  0  0  0  0  0  0  0
   60.0510   34.2030   48.2200 C   0  0  0  0  0  0  0  0  0  0  0  0
   61.4610   33.7800   48.3620 C   0  0  0  0  0  0  0  0  0  0  0  0
   62.3150   33.7870   47.2430 C   0  0  0  0  0  0  0  0  0  0  0  0
   63.6570   33.4260   47.3770 C   0  0  0  0  0  0  0  0  0  0  0  0
   64.1660   33.0740   48.6280 C   0  0  0  0  0  0  0  0  0  0  0  0
   63.3340   33.0870   49.7510 C   0  0  0  0  0  0  0  0  0  0  0  0
   61.9870   33.4470   49.6270 C   0  0  0  0  0  0  0  0  0  0  0  0
   60.8910   33.4370   51.2020 Br  0  0  0  0  0  0  0  0  0  0  0  0
   58.2130   33.1560   46.8910 C   0  0  0  0  0  0  0  0  0  0  0  0
   57.5990   32.6860   47.8870 O   0  0  0  0  0  0  0  0  0  0  0  0
   58.8829   29.5737   44.7777 H   0  0  0  0  0  0  0  0  0  0  0  0
   59.7658   31.1374   44.6549 H   0  0  0  0  0  0  0  0  0  0  0  0
   57.7562   29.5125   47.4236 H   0  0  0  0  0  0  0  0  0  0  0  0
   58.6932   29.1271   49.7034 H   0  0  0  0  0  0  0  0  0  0  0  0
   61.0603   29.7454   50.2049 H   0  0  0  0  0  0  0  0  0  0  0  0
   62.4992   30.7338   48.4182 H   0  0  0  0  0  0  0  0  0  0  0  0
   61.5726   31.1113   46.1324 H   0  0  0  0  0  0  0  0  0  0  0  0
   56.6812   33.1604   45.4335 H   0  0  0  0  0  0  0  0  0  0  0  0
   59.4870   32.9874   44.2740 H   0  0  0  0  0  0  0  0  0  0  0  0
   57.9441   33.4409   43.4571 H   0  0  0  0  0  0  0  0  0  0  0  0
   59.2207   35.4696   43.8852 H   0  0  0  0  0  0  0  0  0  0  0  0
   57.7934   35.4325   44.9882 H   0  0  0  0  0  0  0  0  0  0  0  0
   60.7158   34.8669   45.6350 H   0  0  0  0  0  0  0  0  0  0  0  0
   59.5809   36.1028   46.3534 H   0  0  0  0  0  0  0  0  0  0  0  0
   59.5519   34.6107   49.1114 H   0  0  0  0  0  0  0  0  0  0  0  0
   61.9228   34.0785   46.2575 H   0  0  0  0  0  0  0  0  0  0  0  0
   64.3143   33.4190   46.4950 H   0  0  0  0  0  0  0  0  0  0  0  0
   65.2227   32.7861   48.7302 H   0  0  0  0  0  0  0  0  0  0  0  0
   63.7394   32.8132   50.7363 H   0  0  0  0  0  0  0  0  0  0  0  0
  1  2  2  0
  2  3  1  0
  3  4  1  0
  4  5  2  0
  5  6  1  0
  6  7  2  0
  7  8  1  0
  8  9  2  0
  2 10  1  0
 10 11  1  0
 11 12  1  0
 12 13  1  0
 13 14  1  0
 14 15  2  3
 15 16  1  0
 16 17  2  0
 17 18  1  0
 18 19  2  0
 19 20  1  0
 20 21  2  0
 21 22  1  0
 14 23  1  0
 23 24  2  0
  9  4  1  0
 23 10  1  0
 21 16  1  0
  3 25  1  0
  3 26  1  0
  5 27  1  0
  6 28  1  0
  7 29  1  0
  8 30  1  0
  9 31  1  0
 10 32  1  1
 11 33  1  0
 11 34  1  0
 12 35  1  0
 12 36  1  0
 13 37  1  0
 13 38  1  0
 15 39  1  0
 17 40  1  0
 18 41  1  0
 19 42  1  0
 20 43  1  0
M  END
>  <UniqueID>  (85) 
80

>  <SMILES>  (85) 
O=C(Cc1ccccc1)[C@@H]1CCCC(=Cc2ccccc2Br)C1=O

>  <Energy>  (85) 
50.35578808853569

>  <Genealogy>  (85) 
O=C(Cc1ccccc1)[C@@H]1CCCC(=Cc2ccccc2Br)C1=O (chirality)
O=C(Cc1ccccc1)[C@@H]1CCCC(=Cc2ccccc2Br)C1=O (3D coordinates assigned)
O=C(Cc1ccccc1)[C@@H]1CCCC(=Cc2ccccc2Br)C1=O (nonaromatic ring conformer: 50.35578808853569 kcal/mol)

>  <smiles>  (85) 
O=C(Cc1ccccc1)C1CCCC(=Cc2ccccc2Br)C1=O

>  <score_type>  (85) 
oracle

>  <origin>  (85) 
adg

>  <m_score__min__energy>  (85) 
-8.9600000000000009

>  <m_primary>  (85) 
energy

$$$$
85:0
     RDKit          3D

 53 56  0  0  0  0  0  0  0  0999 V2000
   55.1410   27.8370   53.7310 C   0  0  0  0  0  0  0  0  0  0  0  0
   55.4310   29.0780   53.3080 C   0  0  0  0  0  0  0  0  0  0  0  0
   54.5430   29.9770   52.6940 C   0  0  0  0  0  0  0  0  0  0  0  0
   53.2000   29.9570   52.5780 C   0  0  0  0  0  0  0  0  0  0  0  0
   52.3630   31.0590   52.0750 C   0  0  0  0  0  0  0  0  0  0  0  0
   51.8120   31.9930   52.8710 N   0  0  0  0  0  0  0  0  0  0  0  0
   51.0280   32.7020   52.0290 C   0  0  0  0  0  0  0  0  0  0  0  0
   50.3440   33.6890   52.4080 O   0  0  0  0  0  0  0  0  0  0  0  0
   51.0210   32.2600   50.7540 N   0  0  0  0  0  0  0  0  0  0  0  0
   51.8580   31.2080   50.8010 C   0  0  0  0  0  0  0  0  0  0  0  0
   52.1360   30.3890   49.7130 O   0  0  0  0  0  0  0  0  0  0  0  0
   55.3220   30.9940   52.1760 C   0  0  0  0  0  0  0  0  0  0  0  0
   56.6280   30.7350   52.5460 C   0  0  0  0  0  0  0  0  0  0  0  0
   57.7820   31.5730   52.1430 C   0  0  0  0  0  0  0  0  0  0  0  0
   57.9460   32.7070   52.6640 O   0  0  0  0  0  0  0  0  0  0  0  0
   58.7470   31.0860   51.1910 N   0  0  0  0  0  0  0  0  0  0  0  0
   60.1590   31.4390   51.3390 C   0  0  0  0  0  0  0  0  0  0  0  0
   61.0430   30.2670   50.8850 C   0  0  0  0  0  0  0  0  0  0  0  0
   60.6550   29.7280   49.5620 N   0  0  0  0  0  0  0  0  0  0  0  0
   61.0680   30.5900   48.4330 C   0  0  0  0  0  0  0  0  0  0  0  0
   59.9570   30.7320   47.4180 C   0  0  0  0  0  0  0  0  0  0  0  0
   59.6100   29.6430   46.5930 C   0  0  0  0  0  0  0  0  0  0  0  0
   58.5630   29.7570   45.6730 C   0  0  0  0  0  0  0  0  0  0  0  0
   57.8380   30.9520   45.5810 C   0  0  0  0  0  0  0  0  0  0  0  0
   56.7950   31.0580   44.6710 O   0  0  0  0  0  0  0  0  0  0  0  0
   58.1600   32.0310   46.4080 C   0  0  0  0  0  0  0  0  0  0  0  0
   59.2130   31.9260   47.3240 C   0  0  0  0  0  0  0  0  0  0  0  0
   59.5040   32.9930   48.1150 F   0  0  0  0  0  0  0  0  0  0  0  0
   59.2220   29.3680   49.5130 C   0  0  0  0  0  0  0  0  0  0  0  0
   58.3170   30.5420   49.9020 C   0  0  0  0  0  0  0  0  0  0  0  0
   56.6940   29.5860   53.2610 N   0  0  0  0  0  0  0  0  0  0  0  0
   57.9160   28.9820   53.8030 C   0  0  0  0  0  0  0  0  0  0  0  0
   55.9211   27.2196   54.2004 H   0  0  0  0  0  0  0  0  0  0  0  0
   54.1234   27.4378   53.6082 H   0  0  0  0  0  0  0  0  0  0  0  0
   52.6838   29.0359   52.8864 H   0  0  0  0  0  0  0  0  0  0  0  0
   53.0040   30.4880   49.2010 H   0  0  0  0  0  0  0  0  0  0  0  0
   54.9689   31.8491   51.5809 H   0  0  0  0  0  0  0  0  0  0  0  0
   60.3803   32.3226   50.7224 H   0  0  0  0  0  0  0  0  0  0  0  0
   60.3674   31.6607   52.3961 H   0  0  0  0  0  0  0  0  0  0  0  0
   62.0851   30.6149   50.8298 H   0  0  0  0  0  0  0  0  0  0  0  0
   60.9185   29.4575   51.6193 H   0  0  0  0  0  0  0  0  0  0  0  0
   61.3303   31.5859   48.8194 H   0  0  0  0  0  0  0  0  0  0  0  0
   61.9337   30.1251   47.9387 H   0  0  0  0  0  0  0  0  0  0  0  0
   60.1663   28.6975   46.6734 H   0  0  0  0  0  0  0  0  0  0  0  0
   58.3087   28.9080   45.0214 H   0  0  0  0  0  0  0  0  0  0  0  0
   57.5843   32.9658   46.3390 H   0  0  0  0  0  0  0  0  0  0  0  0
   58.9711   29.0510   48.4900 H   0  0  0  0  0  0  0  0  0  0  0  0
   59.0525   28.5567   50.2362 H   0  0  0  0  0  0  0  0  0  0  0  0
   58.3832   31.3259   49.1332 H   0  0  0  0  0  0  0  0  0  0  0  0
   57.2773   30.1917   49.9814 H   0  0  0  0  0  0  0  0  0  0  0  0
   57.8779   29.0008   54.9022 H   0  0  0  0  0  0  0  0  0  0  0  0
   57.9952   27.9410   53.4566 H   0  0  0  0  0  0  0  0  0  0  0  0
   58.7912   29.5513   53.4566 H   0  0  0  0  0  0  0  0  0  0  0  0
  1  2  2  0
  2  3  1  0
  3  4  2  3
  4  5  1  0
  5  6  1  0
  6  7  1  0
  7  8  2  0
  7  9  1  0
  9 10  1  0
 10 11  1  0
  3 12  1  0
 12 13  2  0
 13 14  1  0
 14 15  2  0
 14 16  1  0
 16 17  1  0
 17 18  1  0
 18 19  1  0
 19 20  1  0
 20 21  1  0
 21 22  2  0
 22 23  1  0
 23 24  2  0
 24 25  1  0
 24 26  1  0
 26 27  2  0
 27 28  1  0
 19 29  1  0
 29 30  1  0
 13 31  1  0
 31 32  1  0
 31  2  1  0
 10  5  2  0
 30 16  1  0
 27 21  1  0
  1 33  1  0
  1 34  1  0
  4 35  1  0
 11 36  1  0
 12 37  1  0
 17 38  1  0
 17 39  1  0
 18 40  1  0
 18 41  1  0
 20 42  1  0
 20 43  1  0
 22 44  1  0
 23 45  1  0
 26 46  1  0
 29 47  1  0
 29 48  1  0
 30 49  1  0
 30 50  1  0
 32 51  1  0
 32 52  1  0
 32 53  1  0
M  CHG  3   6  -1   9  -1  25  -1
M  END
>  <UniqueID>  (86) 
81

>  <SMILES>  (86) 
C=c1c(=Cc2[n-]c(=O)[n-]c2O)cc(C(=O)N2CCN(Cc3ccc([O-])cc3F)CC2)n1C

>  <Energy>  (86) 
135.1337535615277

>  <Genealogy>  (86) 
C=c1c(=Cc2[n-]c(=O)[n-]c2O)cc(C(=O)N2CCN(Cc3ccc([O-])cc3F)CC2)n1C (protonated)
C=c1c(=Cc2[n-]c(=O)[n-]c2O)cc(C(=O)N2CCN(Cc3ccc([O-])cc3F)CC2)n1C (3D coordinates assigned)
C=c1c(=Cc2[n-]c(=O)[n-]c2O)cc(C(=O)N2CCN(Cc3ccc([O-])cc3F)CC2)n1C (nonaromatic ring conformer: 135.1337535615277 kcal/mol)

>  <smiles>  (86) 
C=c1c(=Cc2[nH]c(=O)[nH]c2O)cc(C(=O)N2CCN(Cc3ccc(O)cc3F)CC2)n1C

>  <score_type>  (86) 
oracle

>  <origin>  (86) 
adg

>  <m_score__min__energy>  (86) 
-14.18

>  <m_primary>  (86) 
energy

$$$$
86:0
     RDKit          3D

 66 70  0  0  0  0  0  0  0  0999 V2000
   56.6610   29.7510   53.3290 O   0  0  0  0  0  0  0  0  0  0  0  0
   55.9090   30.2070   52.4230 C   0  0  0  0  0  0  0  0  0  0  0  0
   54.6350   29.4900   52.0750 C   0  0  0  0  0  0  0  0  0  0  0  0
   53.4570   30.4280   52.0510 C   0  0  0  0  0  0  0  0  0  0  0  0
   52.7190   30.6720   53.2220 C   0  0  0  0  0  0  0  0  0  0  0  0
   51.6410   31.5610   53.2020 C   0  0  0  0  0  0  0  0  0  0  0  0
   51.2960   32.2200   52.0190 C   0  0  0  0  0  0  0  0  0  0  0  0
   50.2230   33.1020   52.0010 O   0  0  0  0  0  0  0  0  0  0  0  0
   52.0330   31.9920   50.8530 C   0  0  0  0  0  0  0  0  0  0  0  0
   53.1140   31.1030   50.8680 C   0  0  0  0  0  0  0  0  0  0  0  0
   56.3210   31.3430   51.6500 N   0  0  0  0  0  0  0  0  0  0  0  0
   57.5390   32.0580   51.9140 C   0  0  0  0  0  0  0  0  0  0  0  0
   57.6710   32.7690   53.1190 C   0  0  0  0  0  0  0  0  0  0  0  0
   58.8310   33.4960   53.3920 C   0  0  0  0  0  0  0  0  0  0  0  0
   59.8720   33.5250   52.4640 C   0  0  0  0  0  0  0  0  0  0  0  0
   59.7570   32.8210   51.2630 C   0  0  0  0  0  0  0  0  0  0  0  0
   58.5950   32.0820   50.9690 C   0  0  0  0  0  0  0  0  0  0  0  0
   58.5530   31.2730   49.6880 C   0  0  0  0  0  0  0  0  0  0  0  0
   58.9940   32.1060   48.5000 C   0  0  0  0  0  0  0  0  0  0  0  0
   58.8370   33.5020   48.5790 C   0  0  0  0  0  0  0  0  0  0  0  0
   59.2770   34.3330   47.5510 C   0  0  0  0  0  0  0  0  0  0  0  0
   59.9020   33.7880   46.4320 C   0  0  0  0  0  0  0  0  0  0  0  0
   60.0790   32.4070   46.3350 C   0  0  0  0  0  0  0  0  0  0  0  0
   59.6280   31.5490   47.3540 C   0  0  0  0  0  0  0  0  0  0  0  0
   59.8460   30.0920   47.1870 C   0  0  0  0  0  0  0  0  0  0  0  0
   60.2590   29.4140   48.1650 O   0  0  0  0  0  0  0  0  0  0  0  0
   59.4950   29.4020   45.9770 N   0  0  0  0  0  0  0  0  0  0  0  0
   58.9870   28.0620   45.8570 C   0  0  0  0  0  0  0  0  0  0  0  0
   59.7480   26.9610   46.2930 C   0  0  0  0  0  0  0  0  0  0  0  0
   59.2250   25.6670   46.2330 C   0  0  0  0  0  0  0  0  0  0  0  0
   57.9270   25.4580   45.7730 C   0  0  0  0  0  0  0  0  0  0  0  0
   57.1450   26.5420   45.3720 C   0  0  0  0  0  0  0  0  0  0  0  0
   57.6630   27.8490   45.4050 C   0  0  0  0  0  0  0  0  0  0  0  0
   56.7830   28.9650   44.9990 C   0  0  0  0  0  0  0  0  0  0  0  0
   55.5390   28.8620   45.1690 O   0  0  0  0  0  0  0  0  0  0  0  0
   57.2980   30.1230   44.3410 N   0  0  0  0  0  0  0  0  0  0  0  0
   58.5670   30.6090   43.7640 C   0  0  0  0  0  0  0  0  0  0  0  0
   57.9940   31.8270   43.1230 C   0  0  0  0  0  0  0  0  0  0  0  0
   56.7240   31.3310   43.7240 C   0  0  0  0  0  0  0  0  0  0  0  0
   54.7447   29.0299   51.0819 H   0  0  0  0  0  0  0  0  0  0  0  0
   54.4498   28.7264   52.8448 H   0  0  0  0  0  0  0  0  0  0  0  0
   52.9909   30.1614   54.1576 H   0  0  0  0  0  0  0  0  0  0  0  0
   51.0625   31.7425   54.1198 H   0  0  0  0  0  0  0  0  0  0  0  0
   51.7628   32.5122   49.9222 H   0  0  0  0  0  0  0  0  0  0  0  0
   53.6966   30.9325   49.9507 H   0  0  0  0  0  0  0  0  0  0  0  0
   55.7340   31.6350   50.8370 H   0  0  0  0  0  0  0  0  0  0  0  0
   56.8527   32.7525   53.8539 H   0  0  0  0  0  0  0  0  0  0  0  0
   58.9242   34.0465   54.3398 H   0  0  0  0  0  0  0  0  0  0  0  0
   60.7836   34.1023   52.6780 H   0  0  0  0  0  0  0  0  0  0  0  0
   60.5841   32.8442   50.5382 H   0  0  0  0  0  0  0  0  0  0  0  0
   59.2239   30.4070   49.7881 H   0  0  0  0  0  0  0  0  0  0  0  0
   57.5176   30.9431   49.5176 H   0  0  0  0  0  0  0  0  0  0  0  0
   58.3596   33.9440   49.4660 H   0  0  0  0  0  0  0  0  0  0  0  0
   59.1306   35.4208   47.6232 H   0  0  0  0  0  0  0  0  0  0  0  0
   60.2561   34.4460   45.6247 H   0  0  0  0  0  0  0  0  0  0  0  0
   60.5776   31.9843   45.4503 H   0  0  0  0  0  0  0  0  0  0  0  0
   60.7635   27.1209   46.6844 H   0  0  0  0  0  0  0  0  0  0  0  0
   59.8395   24.8114   46.5497 H   0  0  0  0  0  0  0  0  0  0  0  0
   57.5181   24.4379   45.7258 H   0  0  0  0  0  0  0  0  0  0  0  0
   56.1143   26.3726   45.0271 H   0  0  0  0  0  0  0  0  0  0  0  0
   59.3186   30.8468   44.5312 H   0  0  0  0  0  0  0  0  0  0  0  0
   59.1201   29.9146   43.1145 H   0  0  0  0  0  0  0  0  0  0  0  0
   58.3614   32.7871   43.5146 H   0  0  0  0  0  0  0  0  0  0  0  0
   58.1140   32.0751   42.0581 H   0  0  0  0  0  0  0  0  0  0  0  0
   56.3057   32.0276   44.4655 H   0  0  0  0  0  0  0  0  0  0  0  0
   55.8725   31.1868   43.0427 H   0  0  0  0  0  0  0  0  0  0  0  0
  1  2  2  0
  2  3  1  0
  3  4  1  0
  4  5  2  0
  5  6  1  0
  6  7  2  0
  7  8  1  0
  7  9  1  0
  9 10  2  0
  2 11  1  0
 11 12  1  0
 12 13  2  0
 13 14  1  0
 14 15  2  0
 15 16  1  0
 16 17  2  0
 17 18  1  0
 18 19  1  0
 19 20  2  0
 20 21  1  0
 21 22  2  0
 22 23  1  0
 23 24  2  0
 24 25  1  0
 25 26  2  0
 25 27  1  0
 27 28  1  0
 28 29  2  0
 29 30  1  0
 30 31  2  0
 31 32  1  0
 32 33  2  0
 33 34  1  0
 34 35  2  0
 34 36  1  0
 36 37  1  0
 37 38  1  0
 38 39  1  0
 10  4  1  0
 17 12  1  0
 24 19  1  0
 33 28  1  0
 39 36  1  0
  3 40  1  0
  3 41  1  0
  5 42  1  0
  6 43  1  0
  9 44  1  0
 10 45  1  0
 11 46  1  0
 13 47  1  0
 14 48  1  0
 15 49  1  0
 16 50  1  0
 18 51  1  0
 18 52  1  0
 20 53  1  0
 21 54  1  0
 22 55  1  0
 23 56  1  0
 29 57  1  0
 30 58  1  0
 31 59  1  0
 32 60  1  0
 37 61  1  0
 37 62  1  0
 38 63  1  0
 38 64  1  0
 39 65  1  0
 39 66  1  0
M  CHG  2   8  -1  27  -1
M  END
>  <UniqueID>  (87) 
82

>  <SMILES>  (87) 
O=C(Cc1ccc([O-])cc1)Nc1ccccc1Cc1ccccc1C(=O)[N-]c1ccccc1C(=O)N1CCC1

>  <Energy>  (87) 
134.83844956650074

>  <Genealogy>  (87) 
O=C(Cc1ccc([O-])cc1)Nc1ccccc1Cc1ccccc1C(=O)[N-]c1ccccc1C(=O)N1CCC1 (protonated)
O=C(Cc1ccc([O-])cc1)Nc1ccccc1Cc1ccccc1C(=O)[N-]c1ccccc1C(=O)N1CCC1 (3D coordinates assigned)
O=C(Cc1ccc([O-])cc1)Nc1ccccc1Cc1ccccc1C(=O)[N-]c1ccccc1C(=O)N1CCC1 (nonaromatic ring conformer: 134.83844956650074 kcal/mol)

>  <smiles>  (87) 
O=C(Cc1ccc(O)cc1)Nc1ccccc1Cc1ccccc1C(=O)Nc1ccccc1C(=O)N1CCC1

>  <score_type>  (87) 
oracle

>  <origin>  (87) 
adg

>  <m_score__min__energy>  (87) 
-17.059999999999999

>  <m_primary>  (87) 
energy

$$$$
87:0
     RDKit          3D

 51 54  0  0  0  0  0  0  0  0999 V2000
   55.7740   29.6490   44.9730 N   0  0  0  0  0  0  0  0  0  0  0  0
   56.8800   28.9040   44.4480 C   0  0  0  0  0  0  0  0  0  0  0  0
   57.0720   28.8640   43.1630 N   0  0  0  0  0  0  0  0  0  0  0  0
   57.7870   28.1770   45.3730 C   0  0  0  0  0  0  0  0  0  0  0  0
   58.1050   26.8310   45.1340 C   0  0  0  0  0  0  0  0  0  0  0  0
   58.9630   26.1450   45.9950 C   0  0  0  0  0  0  0  0  0  0  0  0
   59.5090   26.7910   47.1060 C   0  0  0  0  0  0  0  0  0  0  0  0
   59.1990   28.1360   47.3720 C   0  0  0  0  0  0  0  0  0  0  0  0
   59.7700   28.8210   48.5550 C   0  0  0  0  0  0  0  0  0  0  0  0
   60.9690   29.2120   48.5380 O   0  0  0  0  0  0  0  0  0  0  0  0
   58.9820   28.9820   49.7450 N   0  0  0  0  0  0  0  0  0  0  0  0
   58.5040   30.2240   50.2820 C   0  0  0  0  0  0  0  0  0  0  0  0
   59.1520   31.4080   49.9140 C   0  0  0  0  0  0  0  0  0  0  0  0
   58.7340   32.6340   50.4370 C   0  0  0  0  0  0  0  0  0  0  0  0
   57.6690   32.6850   51.3400 C   0  0  0  0  0  0  0  0  0  0  0  0
   57.0090   31.5060   51.7260 C   0  0  0  0  0  0  0  0  0  0  0  0
   55.8880   31.5580   52.7330 C   0  0  0  0  0  0  0  0  0  0  0  0
   55.3350   30.2240   52.9840 N   0  0  0  0  0  0  0  0  0  0  0  0
   55.8750   29.2780   53.7790 C   0  0  0  0  0  0  0  0  0  0  0  0
   55.0830   28.1930   53.9140 N   0  0  0  0  0  0  0  0  0  0  0  0
   53.9950   28.4760   53.1700 C   0  0  0  0  0  0  0  0  0  0  0  0
   54.1470   29.7170   52.5920 C   0  0  0  0  0  0  0  0  0  0  0  0
   53.1430   30.4020   51.7570 C   0  0  0  0  0  0  0  0  0  0  0  0
   52.7880   29.8700   50.5070 C   0  0  0  0  0  0  0  0  0  0  0  0
   51.8280   30.5100   49.7180 C   0  0  0  0  0  0  0  0  0  0  0  0
   51.2300   31.6940   50.1610 C   0  0  0  0  0  0  0  0  0  0  0  0
   50.2750   32.3250   49.3720 O   0  0  0  0  0  0  0  0  0  0  0  0
   51.5990   32.2440   51.3950 C   0  0  0  0  0  0  0  0  0  0  0  0
   51.0240   33.4310   51.8320 O   0  0  0  0  0  0  0  0  0  0  0  0
   52.5560   31.6010   52.1880 C   0  0  0  0  0  0  0  0  0  0  0  0
   57.4500   30.2750   51.2120 C   0  0  0  0  0  0  0  0  0  0  0  0
   58.3340   28.8210   46.4980 C   0  0  0  0  0  0  0  0  0  0  0  0
   55.6460   29.7700   46.0020 H   0  0  0  0  0  0  0  0  0  0  0  0
   55.1040   30.1310   44.3330 H   0  0  0  0  0  0  0  0  0  0  0  0
   57.7390   29.5210   42.7010 H   0  0  0  0  0  0  0  0  0  0  0  0
   56.5510   28.1980   42.5490 H   0  0  0  0  0  0  0  0  0  0  0  0
   57.6756   26.3139   44.2633 H   0  0  0  0  0  0  0  0  0  0  0  0
   59.2100   25.0914   45.7976 H   0  0  0  0  0  0  0  0  0  0  0  0
   60.1865   26.2435   47.7778 H   0  0  0  0  0  0  0  0  0  0  0  0
   59.9955   31.3733   49.2088 H   0  0  0  0  0  0  0  0  0  0  0  0
   59.2444   33.5612   50.1373 H   0  0  0  0  0  0  0  0  0  0  0  0
   57.3456   33.6528   51.7508 H   0  0  0  0  0  0  0  0  0  0  0  0
   56.2736   31.9695   53.6774 H   0  0  0  0  0  0  0  0  0  0  0  0
   55.0876   32.1951   52.3288 H   0  0  0  0  0  0  0  0  0  0  0  0
   56.8563   29.3796   54.2656 H   0  0  0  0  0  0  0  0  0  0  0  0
   53.1221   27.8185   53.0442 H   0  0  0  0  0  0  0  0  0  0  0  0
   53.2667   28.9471   50.1477 H   0  0  0  0  0  0  0  0  0  0  0  0
   51.5421   30.0813   48.7462 H   0  0  0  0  0  0  0  0  0  0  0  0
   52.8494   32.0378   53.1540 H   0  0  0  0  0  0  0  0  0  0  0  0
   56.9667   29.3428   51.5398 H   0  0  0  0  0  0  0  0  0  0  0  0
   58.0825   29.8732   46.6971 H   0  0  0  0  0  0  0  0  0  0  0  0
  1  2  1  0
  2  3  2  0
  2  4  1  0
  4  5  2  0
  5  6  1  0
  6  7  2  0
  7  8  1  0
  8  9  1  0
  9 10  2  0
  9 11  1  0
 11 12  1  0
 12 13  2  0
 13 14  1  0
 14 15  2  0
 15 16  1  0
 16 17  1  0
 17 18  1  0
 18 19  1  0
 19 20  2  0
 20 21  1  0
 21 22  2  0
 22 23  1  0
 23 24  2  0
 24 25  1  0
 25 26  2  0
 26 27  1  0
 26 28  1  0
 28 29  1  0
 28 30  2  0
 16 31  2  0
  8 32  2  0
 32  4  1  0
 31 12  1  0
 22 18  1  0
 30 23  1  0
  1 33  1  0
  1 34  1  0
  3 35  1  0
  3 36  1  0
  5 37  1  0
  6 38  1  0
  7 39  1  0
 13 40  1  0
 14 41  1  0
 15 42  1  0
 17 43  1  0
 17 44  1  0
 19 45  1  0
 21 46  1  0
 24 47  1  0
 25 48  1  0
 30 49  1  0
 31 50  1  0
 32 51  1  0
M  CHG  4   3   1  11  -1  27  -1  29  -1
M  END
>  <UniqueID>  (88) 
83

>  <SMILES>  (88) 
NC(=[NH2+])c1cccc(C(=O)[N-]c2cccc(Cn3cncc3-c3ccc([O-])c([O-])c3)c2)c1

>  <Energy>  (88) 
96.66510680566023

>  <Genealogy>  (88) 
NC(=[NH2+])c1cccc(C(=O)[N-]c2cccc(Cn3cncc3-c3ccc([O-])c([O-])c3)c2)c1 (protonated)
NC(=[NH2+])c1cccc(C(=O)[N-]c2cccc(Cn3cncc3-c3ccc([O-])c([O-])c3)c2)c1 (3D coordinates assigned)
NC(=[NH2+])c1cccc(C(=O)[N-]c2cccc(Cn3cncc3-c3ccc([O-])c([O-])c3)c2)c1 (optimized conformer: 96.66510680566023 kcal/mol)

>  <smiles>  (88) 
N=C(N)c1cccc(C(=O)Nc2cccc(Cn3cncc3-c3ccc(O)c(O)c3)c2)c1

>  <score_type>  (88) 
oracle

>  <origin>  (88) 
adg

>  <m_score__min__energy>  (88) 
-17.09

>  <m_primary>  (88) 
energy

$$$$
