0:0
     RDKit          3D

 54 57  0  0  0  0  0  0  0  0999 V2000
   54.0730   26.7170   46.3730 H   0  0  0  0  0  0  0  0  0  0  0  0
   54.7520   26.1750   45.7950 N   0  0  0  0  0  0  0  0  0  0  0  0
   56.1550   26.2560   46.0410 C   0  0  0  0  0  0  0  0  0  0  0  0
   56.6990   25.3900   46.7780 O   0  0  0  0  0  0  0  0  0  0  0  0
   56.9640   27.3400   45.4370 C   0  0  0  0  0  0  0  0  0  0  0  0
   58.2820   27.0960   45.0180 C   0  0  0  0  0  0  0  0  0  0  0  0
   58.7214   26.0939   45.1308 H   0  0  0  0  0  0  0  0  0  0  0  0
   59.0310   28.1310   44.4580 C   0  0  0  0  0  0  0  0  0  0  0  0
   60.0664   27.9461   44.1360 H   0  0  0  0  0  0  0  0  0  0  0  0
   58.4870   29.3650   44.3090 N   0  0  0  0  0  0  0  0  0  0  0  0
   57.2110   29.6480   44.6860 C   0  0  0  0  0  0  0  0  0  0  0  0
   56.7680   30.8620   44.5080 N   0  0  0  0  0  0  0  0  0  0  0  0
   57.5300   32.0790   44.5440 C   0  0  0  0  0  0  0  0  0  0  0  0
   57.4010   32.8970   43.5940 O   0  0  0  0  0  0  0  0  0  0  0  0
   58.3970   32.4270   45.6970 C   0  0  0  0  0  0  0  0  0  0  0  0
   58.1750   33.6000   46.4370 C   0  0  0  0  0  0  0  0  0  0  0  0
   57.3539   34.2753   46.1546 H   0  0  0  0  0  0  0  0  0  0  0  0
   58.9880   33.9170   47.5290 C   0  0  0  0  0  0  0  0  0  0  0  0
   58.7943   34.8334   48.1058 H   0  0  0  0  0  0  0  0  0  0  0  0
   60.0520   33.0730   47.8960 C   0  0  0  0  0  0  0  0  0  0  0  0
   60.9210   33.3850   49.0610 C   0  0  0  0  0  0  0  0  0  0  0  0
   60.6260   32.8440   50.2760 N   0  0  0  0  0  0  0  0  0  0  0  0
   61.3850   33.0950   51.3760 C   0  0  0  0  0  0  0  0  0  0  0  0
   61.0670   32.5330   52.5050 N   0  0  0  0  0  0  0  0  0  0  0  0
   59.7840   31.9930   52.8700 C   0  0  0  0  0  0  0  0  0  0  0  0
   59.0590   32.4730   53.9750 C   0  0  0  0  0  0  0  0  0  0  0  0
   59.4856   33.2647   54.6085 H   0  0  0  0  0  0  0  0  0  0  0  0
   57.7990   31.9480   54.2710 C   0  0  0  0  0  0  0  0  0  0  0  0
   57.2482   32.3123   55.1507 H   0  0  0  0  0  0  0  0  0  0  0  0
   57.2330   30.9620   53.4560 C   0  0  0  0  0  0  0  0  0  0  0  0
   55.9260   30.4740   53.7710 N   0  0  0  0  0  0  0  0  0  0  0  0
   54.7580   30.0890   52.5490 S   0  0  0  0  0  0  0  0  0  0  0  0
   55.1340   30.7630   51.2600 O   0  0  0  0  0  0  0  0  0  0  0  0
   54.7350   28.6000   52.3470 O   0  0  0  0  0  0  0  0  0  0  0  0
   53.1290   30.6200   53.0380 C   0  0  0  0  0  0  0  0  0  0  0  0
   53.0644   30.6411   54.1359 H   0  0  0  0  0  0  0  0  0  0  0  0
   52.9368   31.6273   52.6400 H   0  0  0  0  0  0  0  0  0  0  0  0
   52.3801   29.9195   52.6400 H   0  0  0  0  0  0  0  0  0  0  0  0
   57.9540   30.4770   52.3460 C   0  0  0  0  0  0  0  0  0  0  0  0
   57.4550   29.4560   51.5360 O   0  0  0  0  0  0  0  0  0  0  0  0
   56.5030   29.1220   51.6080 H   0  0  0  0  0  0  0  0  0  0  0  0
   59.2110   31.0140   52.0500 C   0  0  0  0  0  0  0  0  0  0  0  0
   59.7562   30.6626   51.1616 H   0  0  0  0  0  0  0  0  0  0  0  0
   62.4850   33.8890   51.2640 N   0  0  0  0  0  0  0  0  0  0  0  0
   62.8280   34.4480   50.0760 C   0  0  0  0  0  0  0  0  0  0  0  0
   63.7182   35.0904   50.0070 H   0  0  0  0  0  0  0  0  0  0  0  0
   62.0520   34.2080   48.9430 C   0  0  0  0  0  0  0  0  0  0  0  0
   62.3210   34.6552   47.9747 H   0  0  0  0  0  0  0  0  0  0  0  0
   60.2720   31.9000   47.1540 C   0  0  0  0  0  0  0  0  0  0  0  0
   61.0922   31.2235   47.4360 H   0  0  0  0  0  0  0  0  0  0  0  0
   59.4600   31.5840   46.0620 C   0  0  0  0  0  0  0  0  0  0  0  0
   59.6543   30.6686   45.4838 H   0  0  0  0  0  0  0  0  0  0  0  0
   56.4310   28.6310   45.2780 C   0  0  0  0  0  0  0  0  0  0  0  0
   55.4067   28.8487   45.6147 H   0  0  0  0  0  0  0  0  0  0  0  0
  1  2  1  0
  2  3  1  0
  3  4  2  0
  3  5  1  0
  5  6  1  0
  6  7  1  0
  6  8  2  0
  8  9  1  0
  8 10  1  0
 10 11  1  0
 11 12  2  0
 12 13  1  0
 13 14  2  0
 13 15  1  0
 15 16  2  0
 16 17  1  0
 16 18  1  0
 18 19  1  0
 18 20  2  0
 20 21  1  0
 21 22  2  0
 22 23  1  0
 23 24  2  3
 24 25  1  0
 25 26  2  0
 26 27  1  0
 26 28  1  0
 28 29  1  0
 28 30  2  0
 30 31  1  0
 31 32  1  0
 32 33  2  0
 32 34  2  0
 32 35  1  0
 35 36  1  0
 35 37  1  0
 35 38  1  0
 30 39  1  0
 39 40  1  0
 40 41  1  0
 39 42  2  0
 42 43  1  0
 23 44  1  0
 44 45  1  0
 45 46  1  0
 45 47  2  0
 47 48  1  0
 20 49  1  0
 49 50  1  0
 49 51  2  0
 51 52  1  0
 11 53  1  0
 53 54  1  0
 53  5  2  0
 51 15  1  0
 47 21  1  0
 42 25  1  0
M  CHG  4   2  -1  10  -1  31  -1  44  -1
M  END
>  <UniqueID>  (1) 
1

>  <SMILES>  (1) 
CS(=O)(=O)[N-]c1ccc(N=c2nc(-c3ccc(C(=O)/N=c4\cc(C([NH-])=O)cc[n-]4)cc3)cc[n-]2)cc1O

>  <Energy>  (1) 
87.07146158856385

>  <Genealogy>  (1) 
CS(=O)(=O)[N-]c1ccc(N=c2nc(-c3ccc(C(=O)N=c4cc(C([NH-])=O)cc[n-]4)cc3)cc[n-]2)cc1O (protonated)
CS(=O)(=O)[N-]c1ccc(N=c2nc(-c3ccc(C(=O)/N=c4\cc(C([NH-])=O)cc[n-]4)cc3)cc[n-]2)cc1O (cis-trans isomerization)
CS(=O)(=O)[N-]c1ccc(N=c2nc(-c3ccc(C(=O)/N=c4\cc(C([NH-])=O)cc[n-]4)cc3)cc[n-]2)cc1O (3D coordinates assigned)
CS(=O)(=O)[N-]c1ccc(N=c2nc(-c3ccc(C(=O)/N=c4\cc(C([NH-])=O)cc[n-]4)cc3)cc[n-]2)cc1O (optimized conformer: 87.07146158856385 kcal/mol)

>  <smiles>  (1) 
CS(=O)(=O)Nc1ccc(N=c2nc(-c3ccc(C(=O)N=c4cc(C(N)=O)cc[nH]4)cc3)cc[nH]2)cc1O

>  <score_type>  (1) 
oracle

>  <origin>  (1) 
adg

>  <m_score__min__energy>  (1) 
-17.010000000000002

>  <m_primary>  (1) 
energy

$$$$
1:0
     RDKit          3D

 46 49  0  0  0  0  0  0  0  0999 V2000
   57.0310   31.6030   43.1610 O   0  0  0  0  0  0  0  0  0  0  0  0
   56.7910   31.4070   44.3810 C   0  0  0  0  0  0  0  0  0  0  0  0
   56.6550   30.0760   44.8990 N   0  0  0  0  0  0  0  0  0  0  0  0
   57.7020   29.1820   45.3090 C   0  0  0  0  0  0  0  0  0  0  0  0
   59.0570   29.4180   45.0110 C   0  0  0  0  0  0  0  0  0  0  0  0
   60.0340   28.5070   45.4210 C   0  0  0  0  0  0  0  0  0  0  0  0
   59.6720   27.3520   46.1190 C   0  0  0  0  0  0  0  0  0  0  0  0
   58.3220   27.0930   46.4080 C   0  0  0  0  0  0  0  0  0  0  0  0
   57.9310   25.8340   47.1380 C   0  0  0  0  0  0  0  0  0  0  0  0
   56.8190   25.1060   46.4200 C   0  0  0  0  0  0  0  0  0  0  0  0
   55.5550   25.5880   46.5560 N   0  0  0  0  0  0  0  0  0  0  0  0
   54.5100   25.0160   45.9630 N   0  0  0  0  0  0  0  0  0  0  0  0
   54.6470   23.9080   45.1960 C   0  0  0  0  0  0  0  0  0  0  0  0
   53.6280   23.4070   44.6490 O   0  0  0  0  0  0  0  0  0  0  0  0
   55.9180   23.3350   45.0170 C   0  0  0  0  0  0  0  0  0  0  0  0
   57.0390   23.9680   45.6060 C   0  0  0  0  0  0  0  0  0  0  0  0
   58.4300   23.3780   45.4580 C   0  0  0  0  0  0  0  0  0  0  0  0
   58.5470   22.3710   44.3100 C   0  0  0  0  0  0  0  0  0  0  0  0
   57.3880   21.3820   44.3520 C   0  0  0  0  0  0  0  0  0  0  0  0
   56.0680   22.1180   44.1260 C   0  0  0  0  0  0  0  0  0  0  0  0
   57.3440   28.0060   45.9810 C   0  0  0  0  0  0  0  0  0  0  0  0
   56.6460   32.5370   45.2470 N   0  0  0  0  0  0  0  0  0  0  0  0
   57.7120   33.3740   45.7210 C   0  0  0  0  0  0  0  0  0  0  0  0
   58.4070   34.2470   44.8680 C   0  0  0  0  0  0  0  0  0  0  0  0
   59.4150   35.0590   45.3900 C   0  0  0  0  0  0  0  0  0  0  0  0
   59.7110   35.0140   46.7160 N   0  0  0  0  0  0  0  0  0  0  0  0
   59.0410   34.1920   47.5660 C   0  0  0  0  0  0  0  0  0  0  0  0
   59.3440   34.1760   48.7880 O   0  0  0  0  0  0  0  0  0  0  0  0
   58.0220   33.3650   47.0860 C   0  0  0  0  0  0  0  0  0  0  0  0
   59.3475   30.3212   44.4544 H   0  0  0  0  0  0  0  0  0  0  0  0
   61.0927   28.7000   45.1933 H   0  0  0  0  0  0  0  0  0  0  0  0
   60.4475   26.6425   46.4436 H   0  0  0  0  0  0  0  0  0  0  0  0
   58.8071   25.1724   47.2058 H   0  0  0  0  0  0  0  0  0  0  0  0
   57.5738   26.1109   48.1409 H   0  0  0  0  0  0  0  0  0  0  0  0
   59.1388   24.1990   45.2747 H   0  0  0  0  0  0  0  0  0  0  0  0
   58.6522   22.8353   46.3886 H   0  0  0  0  0  0  0  0  0  0  0  0
   58.5291   22.9102   43.3514 H   0  0  0  0  0  0  0  0  0  0  0  0
   59.4923   21.8183   44.4145 H   0  0  0  0  0  0  0  0  0  0  0  0
   57.5241   20.6268   43.5639 H   0  0  0  0  0  0  0  0  0  0  0  0
   57.3655   20.8919   45.3365 H   0  0  0  0  0  0  0  0  0  0  0  0
   56.0211   22.4424   43.0760 H   0  0  0  0  0  0  0  0  0  0  0  0
   55.2526   21.4222   44.3731 H   0  0  0  0  0  0  0  0  0  0  0  0
   56.2824   27.7949   46.1769 H   0  0  0  0  0  0  0  0  0  0  0  0
   58.1589   34.2904   43.7972 H   0  0  0  0  0  0  0  0  0  0  0  0
   59.9715   35.7373   44.7265 H   0  0  0  0  0  0  0  0  0  0  0  0
   57.4675   32.7117   47.7758 H   0  0  0  0  0  0  0  0  0  0  0  0
  1  2  2  0
  2  3  1  0
  3  4  1  0
  4  5  2  0
  5  6  1  0
  6  7  2  0
  7  8  1  0
  8  9  1  0
  9 10  1  0
 10 11  2  0
 11 12  1  0
 12 13  1  0
 13 14  2  0
 13 15  1  0
 15 16  2  0
 16 17  1  0
 17 18  1  0
 18 19  1  0
 19 20  1  0
  8 21  2  0
  2 22  1  0
 22 23  1  0
 23 24  1  0
 24 25  2  0
 25 26  1  0
 26 27  1  0
 27 28  2  0
 27 29  1  0
 21  4  1  0
 29 23  2  0
 16 10  1  0
 20 15  1  0
  5 30  1  0
  6 31  1  0
  7 32  1  0
  9 33  1  0
  9 34  1  0
 17 35  1  0
 17 36  1  0
 18 37  1  0
 18 38  1  0
 19 39  1  0
 19 40  1  0
 20 41  1  0
 20 42  1  0
 21 43  1  0
 24 44  1  0
 25 45  1  0
 29 46  1  0
M  CHG  4   3  -1  12  -1  22  -1  26  -1
M  END
>  <UniqueID>  (2) 
2

>  <SMILES>  (2) 
O=C([N-]c1cccc(Cc2n[n-]c(=O)c3c2CCCC3)c1)[N-]c1cc[n-]c(=O)c1

>  <Energy>  (2) 
59.88916780749608

>  <Genealogy>  (2) 
O=C([N-]c1cccc(Cc2n[n-]c(=O)c3c2CCCC3)c1)[N-]c1cc[n-]c(=O)c1 (protonated)
O=C([N-]c1cccc(Cc2n[n-]c(=O)c3c2CCCC3)c1)[N-]c1cc[n-]c(=O)c1 (3D coordinates assigned)
O=C([N-]c1cccc(Cc2n[n-]c(=O)c3c2CCCC3)c1)[N-]c1cc[n-]c(=O)c1 (nonaromatic ring conformer: 59.88916780749608 kcal/mol)

>  <smiles>  (2) 
O=C(Nc1cccc(Cc2n[nH]c(=O)c3c2CCCC3)c1)Nc1cc[nH]c(=O)c1

>  <score_type>  (2) 
oracle

>  <origin>  (2) 
adg

>  <m_score__min__energy>  (2) 
-16.079999999999998

>  <m_primary>  (2) 
energy

$$$$
2:0
     RDKit          3D

 59 62  0  0  0  0  0  0  0  0999 V2000
   55.8810   27.2630   45.0940 H   0  0  0  0  0  0  0  0  0  0  0  0
   55.3590   26.6490   45.6720 O   0  0  0  0  0  0  0  0  0  0  0  0
   55.9950   25.3980   45.6090 C   0  0  2  0  0  0  0  0  0  0  0  0
   55.2691   24.6271   45.3110 H   0  0  0  0  0  0  0  0  0  0  0  0
   56.5450   25.0150   46.9950 C   0  0  0  0  0  0  0  0  0  0  0  0
   56.9942   24.0128   46.9331 H   0  0  0  0  0  0  0  0  0  0  0  0
   55.7074   25.0354   47.7077 H   0  0  0  0  0  0  0  0  0  0  0  0
   57.6160   26.0100   47.4940 C   0  0  0  0  0  0  0  0  0  0  0  0
   58.3110   25.4706   48.1543 H   0  0  0  0  0  0  0  0  0  0  0  0
   57.0855   26.8196   48.0167 H   0  0  0  0  0  0  0  0  0  0  0  0
   58.4320   26.6640   46.3550 C   0  0  1  0  0  0  0  0  0  0  0  0
   57.9242   27.5886   46.0432 H   0  0  0  0  0  0  0  0  0  0  0  0
   59.7790   26.9810   46.8410 N   0  0  0  0  0  0  0  0  0  0  0  0
   60.0520   27.5310   47.9880 C   0  0  0  0  0  0  0  0  0  0  0  0
   60.5080   26.7850   49.0330 N   0  0  0  0  0  0  0  0  0  0  0  0
   60.8130   27.3420   50.2340 C   0  0  0  0  0  0  0  0  0  0  0  0
   61.1819   26.7087   51.0543 H   0  0  0  0  0  0  0  0  0  0  0  0
   60.6590   28.7210   50.4310 C   0  0  0  0  0  0  0  0  0  0  0  0
   61.0070   29.3850   52.0250 Cl  0  0  0  0  0  0  0  0  0  0  0  0
   60.1840   29.5210   49.3710 C   0  0  0  0  0  0  0  0  0  0  0  0
   60.0160   30.9830   49.5140 C   0  0  0  0  0  0  0  0  0  0  0  0
   60.6650   31.8270   48.6650 N   0  0  0  0  0  0  0  0  0  0  0  0
   60.5050   33.1780   48.7080 C   0  0  0  0  0  0  0  0  0  0  0  0
   61.1540   33.9060   47.8390 N   0  0  0  0  0  0  0  0  0  0  0  0
   61.0930   33.8160   46.3790 C   0  0  0  0  0  0  0  0  0  0  0  0
   61.7740   33.0244   46.0332 H   0  0  0  0  0  0  0  0  0  0  0  0
   61.3935   34.7801   45.9429 H   0  0  0  0  0  0  0  0  0  0  0  0
   59.6880   33.4910   45.9460 C   0  0  0  0  0  0  0  0  0  0  0  0
   58.7990   34.5070   45.5550 C   0  0  0  0  0  0  0  0  0  0  0  0
   59.1556   35.5440   45.4693 H   0  0  0  0  0  0  0  0  0  0  0  0
   57.4650   34.2050   45.2750 C   0  0  0  0  0  0  0  0  0  0  0  0
   56.7705   35.0062   44.9822 H   0  0  0  0  0  0  0  0  0  0  0  0
   57.0110   32.8880   45.3660 C   0  0  0  0  0  0  0  0  0  0  0  0
   55.9535   32.6594   45.1676 H   0  0  0  0  0  0  0  0  0  0  0  0
   57.8930   31.8570   45.7080 C   0  0  0  0  0  0  0  0  0  0  0  0
   57.3960   30.5150   45.7590 N   0  0  0  0  0  0  0  0  0  0  0  0
   56.6540   29.6830   44.4330 S   0  0  0  0  0  0  0  0  0  0  0  0
   57.4090   28.4200   44.1310 O   0  0  0  0  0  0  0  0  0  0  0  0
   55.2430   29.3330   44.8080 O   0  0  0  0  0  0  0  0  0  0  0  0
   56.6150   30.7380   42.9990 C   0  0  0  0  0  0  0  0  0  0  0  0
   56.5761   31.7898   43.3186 H   0  0  0  0  0  0  0  0  0  0  0  0
   57.5199   30.5711   42.3963 H   0  0  0  0  0  0  0  0  0  0  0  0
   55.7249   30.5048   42.3963 H   0  0  0  0  0  0  0  0  0  0  0  0
   59.2310   32.1650   46.0080 C   0  0  0  0  0  0  0  0  0  0  0  0
   59.9254   31.3611   46.2935 H   0  0  0  0  0  0  0  0  0  0  0  0
   59.6460   33.7330   49.6760 C   0  0  0  0  0  0  0  0  0  0  0  0
   59.5034   34.8223   49.7315 H   0  0  0  0  0  0  0  0  0  0  0  0
   58.9780   32.8910   50.5630 C   0  0  0  0  0  0  0  0  0  0  0  0
   58.3101   33.3163   51.3266 H   0  0  0  0  0  0  0  0  0  0  0  0
   59.1550   31.5110   50.4840 C   0  0  0  0  0  0  0  0  0  0  0  0
   58.6233   30.8426   51.1772 H   0  0  0  0  0  0  0  0  0  0  0  0
   59.8840   28.9100   48.1410 C   0  0  0  0  0  0  0  0  0  0  0  0
   59.5174   29.5167   47.2998 H   0  0  0  0  0  0  0  0  0  0  0  0
   58.5170   25.7330   45.1330 C   0  0  0  0  0  0  0  0  0  0  0  0
   58.9813   24.7836   45.4381 H   0  0  0  0  0  0  0  0  0  0  0  0
   59.1195   26.2315   44.3594 H   0  0  0  0  0  0  0  0  0  0  0  0
   57.1200   25.4430   44.5480 C   0  0  0  0  0  0  0  0  0  0  0  0
   57.1535   24.4696   44.0367 H   0  0  0  0  0  0  0  0  0  0  0  0
   56.8815   26.2705   43.8636 H   0  0  0  0  0  0  0  0  0  0  0  0
  1  2  1  0
  2  3  1  0
  3  4  1  6
  3  5  1  0
  5  6  1  0
  5  7  1  0
  5  8  1  0
  8  9  1  0
  8 10  1  0
  8 11  1  0
 11 12  1  6
 11 13  1  0
 13 14  2  0
 14 15  1  0
 15 16  1  0
 16 17  1  0
 16 18  2  0
 18 19  1  0
 18 20  1  0
 20 21  1  0
 21 22  1  0
 22 23  1  0
 23 24  2  3
 24 25  1  0
 25 26  1  0
 25 27  1  0
 25 28  1  0
 28 29  2  0
 29 30  1  0
 29 31  1  0
 31 32  1  0
 31 33  2  0
 33 34  1  0
 33 35  1  0
 35 36  1  0
 36 37  1  0
 37 38  2  0
 37 39  2  0
 37 40  1  0
 40 41  1  0
 40 42  1  0
 40 43  1  0
 35 44  2  0
 44 45  1  0
 23 46  1  0
 46 47  1  0
 46 48  2  0
 48 49  1  0
 48 50  1  0
 50 51  1  0
 20 52  2  0
 52 53  1  0
 11 54  1  0
 54 55  1  0
 54 56  1  0
 54 57  1  0
 57 58  1  0
 57 59  1  0
 57  3  1  0
 52 14  1  0
 50 21  2  0
 44 28  1  0
M  CHG  3  15  -1  22  -1  36  -1
M  END
>  <UniqueID>  (3) 
3

>  <SMILES>  (3) 
CS(=O)(=O)[N-]c1cccc(CN=c2cccc(-c3c/c(=N/C4CCC(O)CC4)[n-]cc3Cl)[n-]2)c1

>  <Energy>  (3) 
74.54598457345821

>  <Genealogy>  (3) 
CS(=O)(=O)[N-]c1cccc(CN=c2cccc(-c3cc(=NC4CCC(O)CC4)[n-]cc3Cl)[n-]2)c1 (protonated)
CS(=O)(=O)[N-]c1cccc(CN=c2cccc(-c3c/c(=N/C4CCC(O)CC4)[n-]cc3Cl)[n-]2)c1 (cis-trans isomerization)
CS(=O)(=O)[N-]c1cccc(CN=c2cccc(-c3c/c(=N/C4CCC(O)CC4)[n-]cc3Cl)[n-]2)c1 (3D coordinates assigned)
CS(=O)(=O)[N-]c1cccc(CN=c2cccc(-c3c/c(=N/C4CCC(O)CC4)[n-]cc3Cl)[n-]2)c1 (nonaromatic ring conformer: 74.54598457345821 kcal/mol)

>  <smiles>  (3) 
CS(=O)(=O)Nc1cccc(CN=c2cccc(-c3cc(=NC4CCC(O)CC4)[nH]cc3Cl)[nH]2)c1

>  <score_type>  (3) 
oracle

>  <origin>  (3) 
adg

>  <m_score__min__energy>  (3) 
-14.81

>  <m_primary>  (3) 
energy

$$$$
3:0
     RDKit          3D

 49 52  0  0  0  0  0  0  0  0999 V2000
   54.7940   26.3720   45.9940 O   0  0  0  0  0  0  0  0  0  0  0  0
   55.9770   25.9780   46.1730 C   0  0  0  0  0  0  0  0  0  0  0  0
   56.2480   25.0760   47.1950 O   0  0  0  0  0  0  0  0  0  0  0  0
   57.0240   26.3760   45.2250 C   0  0  0  0  0  0  0  0  0  0  0  0
   57.7280   27.5140   45.2930 C   0  0  0  0  0  0  0  0  0  0  0  0
   59.0500   27.6220   45.9250 C   0  0  0  0  0  0  0  0  0  0  0  0
   59.4430   28.8960   45.9220 C   0  0  0  0  0  0  0  0  0  0  0  0
   60.7790   29.3770   46.4090 C   0  0  0  0  0  0  0  0  0  0  0  0
   60.7080   29.7160   47.8740 C   0  0  0  0  0  0  0  0  0  0  0  0
   61.5790   30.6650   48.4290 C   0  0  0  0  0  0  0  0  0  0  0  0
   61.5360   30.9490   49.7980 C   0  0  0  0  0  0  0  0  0  0  0  0
   60.6250   30.2820   50.6370 C   0  0  0  0  0  0  0  0  0  0  0  0
   60.5820   30.5830   52.0870 C   0  0  0  0  0  0  0  0  0  0  0  0
   61.5180   30.1980   52.8400 O   0  0  0  0  0  0  0  0  0  0  0  0
   59.4820   31.3110   52.6400 N   0  0  0  0  0  0  0  0  0  0  0  0
   58.1270   31.8130   51.6880 S   0  0  0  0  0  0  0  0  0  0  0  0
   57.3330   30.6060   51.2760 O   0  0  0  0  0  0  0  0  0  0  0  0
   57.2510   32.7110   52.5160 O   0  0  0  0  0  0  0  0  0  0  0  0
   58.6940   32.6480   50.2430 C   0  0  0  0  0  0  0  0  0  0  0  0
   58.1940   32.2980   48.9790 C   0  0  0  0  0  0  0  0  0  0  0  0
   58.6400   32.9690   47.8360 C   0  0  0  0  0  0  0  0  0  0  0  0
   59.5870   33.9910   47.9480 C   0  0  0  0  0  0  0  0  0  0  0  0
   60.0890   34.3440   49.2030 C   0  0  0  0  0  0  0  0  0  0  0  0
   59.6460   33.6760   50.3500 C   0  0  0  0  0  0  0  0  0  0  0  0
   60.1460   34.0290   51.5610 F   0  0  0  0  0  0  0  0  0  0  0  0
   59.7600   29.3250   50.0770 C   0  0  0  0  0  0  0  0  0  0  0  0
   59.8030   29.0430   48.7100 C   0  0  0  0  0  0  0  0  0  0  0  0
   58.4320   29.6980   45.2300 C   0  0  0  0  0  0  0  0  0  0  0  0
   58.4570   31.0520   44.8890 C   0  0  0  0  0  0  0  0  0  0  0  0
   57.4180   31.5600   44.0960 C   0  0  0  0  0  0  0  0  0  0  0  0
   57.4150   32.8690   43.7430 F   0  0  0  0  0  0  0  0  0  0  0  0
   56.3990   30.7060   43.6300 C   0  0  0  0  0  0  0  0  0  0  0  0
   56.3970   29.3450   43.9770 C   0  0  0  0  0  0  0  0  0  0  0  0
   57.4020   28.8710   44.8280 C   0  0  0  0  0  0  0  0  0  0  0  0
   57.2477   25.6883   44.3961 H   0  0  0  0  0  0  0  0  0  0  0  0
   59.6268   26.7810   46.3373 H   0  0  0  0  0  0  0  0  0  0  0  0
   61.5279   28.5862   46.2551 H   0  0  0  0  0  0  0  0  0  0  0  0
   61.0627   30.2783   45.8458 H   0  0  0  0  0  0  0  0  0  0  0  0
   62.2999   31.1888   47.7841 H   0  0  0  0  0  0  0  0  0  0  0  0
   62.2196   31.6995   50.2216 H   0  0  0  0  0  0  0  0  0  0  0  0
   57.4493   31.4937   48.8873 H   0  0  0  0  0  0  0  0  0  0  0  0
   58.2450   32.6922   46.8474 H   0  0  0  0  0  0  0  0  0  0  0  0
   59.9370   34.5174   47.0478 H   0  0  0  0  0  0  0  0  0  0  0  0
   60.8340   35.1487   49.2897 H   0  0  0  0  0  0  0  0  0  0  0  0
   59.0436   28.7942   50.7211 H   0  0  0  0  0  0  0  0  0  0  0  0
   59.1237   28.2890   48.2857 H   0  0  0  0  0  0  0  0  0  0  0  0
   59.2724   31.7046   45.2343 H   0  0  0  0  0  0  0  0  0  0  0  0
   55.5996   31.1078   42.9901 H   0  0  0  0  0  0  0  0  0  0  0  0
   55.6229   28.6668   43.5886 H   0  0  0  0  0  0  0  0  0  0  0  0
  1  2  2  0
  2  3  1  0
  2  4  1  0
  4  5  2  3
  5  6  1  0
  6  7  2  0
  7  8  1  0
  8  9  1  0
  9 10  2  0
 10 11  1  0
 11 12  2  0
 12 13  1  0
 13 14  2  0
 13 15  1  0
 15 16  1  0
 16 17  2  0
 16 18  2  0
 16 19  1  0
 19 20  2  0
 20 21  1  0
 21 22  2  0
 22 23  1  0
 23 24  2  0
 24 25  1  0
 12 26  1  0
 26 27  2  0
  7 28  1  0
 28 29  2  0
 29 30  1  0
 30 31  1  0
 30 32  2  0
 32 33  1  0
 33 34  2  0
 34  5  1  0
 27  9  1  0
 34 28  1  0
 24 19  1  0
  4 35  1  0
  6 36  1  0
  8 37  1  0
  8 38  1  0
 10 39  1  0
 11 40  1  0
 20 41  1  0
 21 42  1  0
 22 43  1  0
 23 44  1  0
 26 45  1  0
 27 46  1  0
 29 47  1  0
 32 48  1  0
 33 49  1  0
M  CHG  2   3  -1  15  -1
M  END
>  <UniqueID>  (4) 
4

>  <SMILES>  (4) 
O=C([O-])C=C1C=C(Cc2ccc(C(=O)[N-]S(=O)(=O)c3ccccc3F)cc2)c2cc(F)ccc21

>  <Energy>  (4) 
88.6390084476356

>  <Genealogy>  (4) 
O=C([O-])C=C1C=C(Cc2ccc(C(=O)[N-]S(=O)(=O)c3ccccc3F)cc2)c2cc(F)ccc21 (protonated)
O=C([O-])C=C1C=C(Cc2ccc(C(=O)[N-]S(=O)(=O)c3ccccc3F)cc2)c2cc(F)ccc21 (3D coordinates assigned)
O=C([O-])C=C1C=C(Cc2ccc(C(=O)[N-]S(=O)(=O)c3ccccc3F)cc2)c2cc(F)ccc21 (nonaromatic ring conformer: 88.6390084476356 kcal/mol)

>  <smiles>  (4) 
O=C(O)C=C1C=C(Cc2ccc(C(=O)NS(=O)(=O)c3ccccc3F)cc2)c2cc(F)ccc21

>  <score_type>  (4) 
oracle

>  <origin>  (4) 
adg

>  <m_score__min__energy>  (4) 
-14.18

>  <m_primary>  (4) 
energy

$$$$
4:0
     RDKit          3D

 42 44  0  0  0  0  0  0  0  0999 V2000
   59.7430   29.5240   47.3500 C   0  0  0  0  0  0  0  0  0  0  0  0
   59.0050   30.2290   46.4760 C   0  0  0  0  0  0  0  0  0  0  0  0
   58.3810   29.7320   45.3280 C   0  0  0  0  0  0  0  0  0  0  0  0
   58.3980   28.4670   44.8670 C   0  0  0  0  0  0  0  0  0  0  0  0
   57.6080   27.3690   45.4690 C   0  0  0  0  0  0  0  0  0  0  0  0
   56.2140   27.4570   45.6160 C   0  0  0  0  0  0  0  0  0  0  0  0
   55.5230   28.5890   45.1970 O   0  0  0  0  0  0  0  0  0  0  0  0
   55.5260   26.4380   46.1930 N   0  0  0  0  0  0  0  0  0  0  0  0
   56.1660   25.3310   46.6510 C   0  0  0  0  0  0  0  0  0  0  0  0
   55.5100   24.3980   47.1800 O   0  0  0  0  0  0  0  0  0  0  0  0
   57.5160   25.2360   46.5470 N   0  0  0  0  0  0  0  0  0  0  0  0
   58.2490   26.2260   45.9760 C   0  0  0  0  0  0  0  0  0  0  0  0
   59.5010   26.1040   45.9000 O   0  0  0  0  0  0  0  0  0  0  0  0
   57.7700   30.8190   44.7140 C   0  0  0  0  0  0  0  0  0  0  0  0
   58.0250   31.9180   45.5110 C   0  0  0  0  0  0  0  0  0  0  0  0
   57.5620   33.3110   45.2110 C   0  0  0  0  0  0  0  0  0  0  0  0
   58.7800   31.5640   46.5750 N   0  0  0  0  0  0  0  0  0  0  0  0
   59.2320   32.4480   47.6150 C   0  0  0  0  0  0  0  0  0  0  0  0
   60.1280   33.4860   47.3210 C   0  0  0  0  0  0  0  0  0  0  0  0
   60.5700   34.3410   48.3340 C   0  0  0  0  0  0  0  0  0  0  0  0
   60.1190   34.1670   49.6440 C   0  0  0  0  0  0  0  0  0  0  0  0
   59.2150   33.1400   49.9480 C   0  0  0  0  0  0  0  0  0  0  0  0
   58.6700   32.9060   51.6080 S   0  0  0  0  0  0  0  0  0  0  0  0
   58.7080   34.2130   52.3500 O   0  0  0  0  0  0  0  0  0  0  0  0
   59.5950   31.9430   52.2980 O   0  0  0  0  0  0  0  0  0  0  0  0
   57.0580   32.2600   51.6300 N   0  0  0  0  0  0  0  0  0  0  0  0
   57.1010   30.8360   51.9470 C   0  0  0  0  0  0  0  0  0  0  0  0
   58.7750   32.2820   48.9310 C   0  0  0  0  0  0  0  0  0  0  0  0
   60.1880   30.0238   48.2230 H   0  0  0  0  0  0  0  0  0  0  0  0
   59.9022   28.4470   47.1924 H   0  0  0  0  0  0  0  0  0  0  0  0
   59.0319   28.2374   43.9978 H   0  0  0  0  0  0  0  0  0  0  0  0
   57.1953   30.8065   43.7761 H   0  0  0  0  0  0  0  0  0  0  0  0
   57.3832   33.8490   46.1537 H   0  0  0  0  0  0  0  0  0  0  0  0
   58.3337   33.8367   44.6295 H   0  0  0  0  0  0  0  0  0  0  0  0
   56.6291   33.2701   44.6295 H   0  0  0  0  0  0  0  0  0  0  0  0
   60.4839   33.6275   46.2898 H   0  0  0  0  0  0  0  0  0  0  0  0
   61.2744   35.1525   48.0991 H   0  0  0  0  0  0  0  0  0  0  0  0
   60.4743   34.8381   50.4399 H   0  0  0  0  0  0  0  0  0  0  0  0
   57.1050   30.7034   53.0390 H   0  0  0  0  0  0  0  0  0  0  0  0
   56.2175   30.3386   51.5205 H   0  0  0  0  0  0  0  0  0  0  0  0
   58.0129   30.3928   51.5205 H   0  0  0  0  0  0  0  0  0  0  0  0
   58.0671   31.4735   49.1660 H   0  0  0  0  0  0  0  0  0  0  0  0
  1  2  2  0
  2  3  1  0
  3  4  2  3
  4  5  1  0
  5  6  2  0
  6  7  1  0
  6  8  1  0
  8  9  1  0
  9 10  2  0
  9 11  1  0
 11 12  1  0
 12 13  2  0
  3 14  1  0
 14 15  2  0
 15 16  1  0
 15 17  1  0
 17 18  1  0
 18 19  2  0
 19 20  1  0
 20 21  2  0
 21 22  1  0
 22 23  1  0
 23 24  2  0
 23 25  2  0
 23 26  1  0
 26 27  1  0
 22 28  2  0
 17  2  1  0
 28 18  1  0
 12  5  1  0
  1 29  1  0
  1 30  1  0
  4 31  1  0
 14 32  1  0
 16 33  1  0
 16 34  1  0
 16 35  1  0
 19 36  1  0
 20 37  1  0
 21 38  1  0
 27 39  1  0
 27 40  1  0
 27 41  1  0
 28 42  1  0
M  CHG  4   7  -1   8  -1  11  -1  26  -1
M  END
>  <UniqueID>  (5) 
5

>  <SMILES>  (5) 
C=c1c(=Cc2c([O-])[n-]c(=O)[n-]c2=O)cc(C)n1-c1cccc(S(=O)(=O)[N-]C)c1

>  <Energy>  (5) 
86.97202935270776

>  <Genealogy>  (5) 
C=c1c(=Cc2c([O-])[n-]c(=O)[n-]c2=O)cc(C)n1-c1cccc(S(=O)(=O)[N-]C)c1 (protonated)
C=c1c(=Cc2c([O-])[n-]c(=O)[n-]c2=O)cc(C)n1-c1cccc(S(=O)(=O)[N-]C)c1 (3D coordinates assigned)
C=c1c(=Cc2c([O-])[n-]c(=O)[n-]c2=O)cc(C)n1-c1cccc(S(=O)(=O)[N-]C)c1 (optimized conformer: 86.97202935270776 kcal/mol)

>  <smiles>  (5) 
C=c1c(=Cc2c(O)[nH]c(=O)[nH]c2=O)cc(C)n1-c1cccc(S(=O)(=O)NC)c1

>  <score_type>  (5) 
oracle

>  <origin>  (5) 
adg

>  <m_score__min__energy>  (5) 
-16.75

>  <m_primary>  (5) 
energy

$$$$
5:0
     RDKit          3D

 48 50  0  0  0  0  0  0  0  0999 V2000
   54.7930   26.2840   45.9560 N   0  0  0  0  0  0  0  0  0  0  0  0
   56.4390   25.7620   45.8960 S   0  0  0  0  0  0  0  0  0  0  0  0
   56.5900   24.6900   44.8540 O   0  0  0  0  0  0  0  0  0  0  0  0
   56.8350   25.1960   47.2310 O   0  0  0  0  0  0  0  0  0  0  0  0
   57.4710   27.1300   45.4940 C   0  0  0  0  0  0  0  0  0  0  0  0
   58.8650   26.9840   45.4850 C   0  0  0  0  0  0  0  0  0  0  0  0
   59.6810   28.0740   45.1670 C   0  0  0  0  0  0  0  0  0  0  0  0
   59.1100   29.3110   44.8570 C   0  0  0  0  0  0  0  0  0  0  0  0
   57.7160   29.4670   44.8640 C   0  0  0  0  0  0  0  0  0  0  0  0
   56.9920   31.0190   44.4380 S   0  0  0  0  0  0  0  0  0  0  0  0
   55.5080   30.8450   44.2690 O   0  0  0  0  0  0  0  0  0  0  0  0
   57.5580   31.4860   43.1250 O   0  0  0  0  0  0  0  0  0  0  0  0
   57.3010   32.2270   45.6640 N   0  0  0  0  0  0  0  0  0  0  0  0
   57.7430   33.5120   45.0680 C   0  0  0  0  0  0  0  0  0  0  0  0
   59.2590   33.7320   45.1780 C   0  0  0  0  0  0  0  0  0  0  0  0
   59.7120   33.7320   46.6540 C   0  0  0  0  0  0  0  0  0  0  0  0
   61.1770   33.3790   46.7400 C   0  0  0  0  0  0  0  0  0  0  0  0
   62.0490   34.2650   46.5240 O   0  0  0  0  0  0  0  0  0  0  0  0
   61.5780   32.0550   47.1170 N   0  0  0  0  0  0  0  0  0  0  0  0
   62.9890   31.6910   47.2280 C   0  0  0  0  0  0  0  0  0  0  0  0
   63.5620   32.1850   48.5190 C   0  0  0  0  0  0  0  0  0  0  0  0
   63.2180   31.7350   49.7780 C   0  0  0  0  0  0  0  0  0  0  0  0
   63.9680   32.4900   50.6550 C   0  0  0  0  0  0  0  0  0  0  0  0
   64.7140   33.3530   49.8790 C   0  0  0  0  0  0  0  0  0  0  0  0
   64.4480   33.1480   48.6090 O   0  0  0  0  0  0  0  0  0  0  0  0
   58.8440   32.7990   47.5350 C   0  0  0  0  0  0  0  0  0  0  0  0
   58.2050   31.6820   46.7020 C   0  0  0  0  0  0  0  0  0  0  0  0
   56.9010   28.3740   45.1950 C   0  0  0  0  0  0  0  0  0  0  0  0
   54.7540   27.0920   46.6180 H   0  0  0  0  0  0  0  0  0  0  0  0
   59.3173   26.0113   45.7283 H   0  0  0  0  0  0  0  0  0  0  0  0
   60.7748   27.9574   45.1609 H   0  0  0  0  0  0  0  0  0  0  0  0
   59.7559   30.1655   44.6066 H   0  0  0  0  0  0  0  0  0  0  0  0
   57.4635   33.5199   44.0041 H   0  0  0  0  0  0  0  0  0  0  0  0
   57.2507   34.3216   45.6268 H   0  0  0  0  0  0  0  0  0  0  0  0
   59.7795   32.9248   44.6419 H   0  0  0  0  0  0  0  0  0  0  0  0
   59.5045   34.7088   44.7359 H   0  0  0  0  0  0  0  0  0  0  0  0
   59.5701   34.7465   47.0548 H   0  0  0  0  0  0  0  0  0  0  0  0
   60.8400   31.3440   47.3240 H   0  0  0  0  0  0  0  0  0  0  0  0
   63.0839   30.5959   47.1863 H   0  0  0  0  0  0  0  0  0  0  0  0
   63.5403   32.1535   46.3961 H   0  0  0  0  0  0  0  0  0  0  0  0
   62.4980   30.9420   50.0286 H   0  0  0  0  0  0  0  0  0  0  0  0
   63.9709   32.4185   51.7527 H   0  0  0  0  0  0  0  0  0  0  0  0
   65.4238   34.0994   50.2651 H   0  0  0  0  0  0  0  0  0  0  0  0
   59.4782   32.3481   48.3125 H   0  0  0  0  0  0  0  0  0  0  0  0
   58.0400   33.3979   47.9876 H   0  0  0  0  0  0  0  0  0  0  0  0
   59.0009   31.1010   46.2132 H   0  0  0  0  0  0  0  0  0  0  0  0
   57.6122   31.0458   47.3757 H   0  0  0  0  0  0  0  0  0  0  0  0
   55.8079   28.4947   45.2198 H   0  0  0  0  0  0  0  0  0  0  0  0
  1  2  1  0
  2  3  2  0
  2  4  2  0
  2  5  1  0
  5  6  2  0
  6  7  1  0
  7  8  2  0
  8  9  1  0
  9 10  1  0
 10 11  2  0
 10 12  2  0
 10 13  1  0
 13 14  1  0
 14 15  1  0
 15 16  1  0
 16 17  1  0
 17 18  2  0
 17 19  1  0
 19 20  1  0
 20 21  1  0
 21 22  2  0
 22 23  1  0
 23 24  2  0
 24 25  1  0
 16 26  1  0
 26 27  1  0
  9 28  2  0
 28  5  1  0
 27 13  1  0
 25 21  1  0
  1 29  1  0
  6 30  1  0
  7 31  1  0
  8 32  1  0
 14 33  1  0
 14 34  1  0
 15 35  1  0
 15 36  1  0
 16 37  1  0
 19 38  1  0
 20 39  1  0
 20 40  1  0
 22 41  1  0
 23 42  1  0
 24 43  1  0
 26 44  1  0
 26 45  1  0
 27 46  1  0
 27 47  1  0
 28 48  1  0
M  CHG  1   1  -1
M  END
>  <UniqueID>  (6) 
6

>  <SMILES>  (6) 
[NH-]S(=O)(=O)c1cccc(S(=O)(=O)N2CCC(C(=O)NCc3ccco3)CC2)c1

>  <Energy>  (6) 
76.5469391554116

>  <Genealogy>  (6) 
[NH-]S(=O)(=O)c1cccc(S(=O)(=O)N2CCC(C(=O)NCc3ccco3)CC2)c1 (protonated)
[NH-]S(=O)(=O)c1cccc(S(=O)(=O)N2CCC(C(=O)NCc3ccco3)CC2)c1 (3D coordinates assigned)
[NH-]S(=O)(=O)c1cccc(S(=O)(=O)N2CCC(C(=O)NCc3ccco3)CC2)c1 (nonaromatic ring conformer: 76.5469391554116 kcal/mol)

>  <smiles>  (6) 
NS(=O)(=O)c1cccc(S(=O)(=O)N2CCC(C(=O)NCc3ccco3)CC2)c1

>  <score_type>  (6) 
oracle

>  <origin>  (6) 
adg

>  <m_score__min__energy>  (6) 
-13.140000000000001

>  <m_primary>  (6) 
energy

$$$$
6:0
     RDKit          3D

 51 53  0  0  0  0  0  0  0  0999 V2000
   58.5230   32.6670   49.2500 C   0  0  0  0  0  0  0  0  0  0  0  0
   59.3560   33.0290   48.1520 O   0  0  0  0  0  0  0  0  0  0  0  0
   58.9320   33.0640   46.8150 C   0  0  0  0  0  0  0  0  0  0  0  0
   59.5700   33.8570   45.8410 C   0  0  0  0  0  0  0  0  0  0  0  0
   59.1210   33.8420   44.5190 C   0  0  0  0  0  0  0  0  0  0  0  0
   58.0280   33.0490   44.1570 C   0  0  0  0  0  0  0  0  0  0  0  0
   57.3650   32.2800   45.1190 C   0  0  0  0  0  0  0  0  0  0  0  0
   56.2640   31.4560   44.7090 N   0  0  0  0  0  0  0  0  0  0  0  0
   56.2980   30.0410   44.4840 C   0  0  0  0  0  0  0  0  0  0  0  0
   55.3360   29.3380   44.8950 O   0  0  0  0  0  0  0  0  0  0  0  0
   57.4650   29.3680   43.8140 C   0  0  0  0  0  0  0  0  0  0  0  0
   58.5460   29.1540   44.7730 N   0  0  0  0  0  0  0  0  0  0  0  0
   59.7680   28.6530   44.4930 C   0  0  0  0  0  0  0  0  0  0  0  0
   60.5550   28.6770   45.6280 C   0  0  0  0  0  0  0  0  0  0  0  0
   59.7690   29.2260   46.6230 C   0  0  0  0  0  0  0  0  0  0  0  0
   60.2640   29.5550   48.2770 S   0  0  0  0  0  0  0  0  0  0  0  0
   61.1070   28.4140   48.7730 O   0  0  0  0  0  0  0  0  0  0  0  0
   59.0370   29.6500   49.1420 O   0  0  0  0  0  0  0  0  0  0  0  0
   61.1720   31.0450   48.3850 N   0  0  0  0  0  0  0  0  0  0  0  0
   61.9690   31.0800   49.6360 C   0  0  0  0  0  0  0  0  0  0  0  0
   63.2690   31.9070   49.5050 C   0  0  0  0  0  0  0  0  0  0  0  0
   63.1390   33.0260   48.5520 N   0  0  0  0  0  0  0  0  0  0  0  0
   62.3260   34.1240   49.1000 C   0  0  0  0  0  0  0  0  0  0  0  0
   62.6890   32.6000   47.2030 C   0  0  0  0  0  0  0  0  0  0  0  0
   62.0130   31.2160   47.1900 C   0  0  0  0  0  0  0  0  0  0  0  0
   58.5400   29.5130   46.0700 C   0  0  0  0  0  0  0  0  0  0  0  0
   57.8380   32.2740   46.4440 C   0  0  0  0  0  0  0  0  0  0  0  0
   59.0416   32.8924   50.1936 H   0  0  0  0  0  0  0  0  0  0  0  0
   57.5842   33.2383   49.2020 H   0  0  0  0  0  0  0  0  0  0  0  0
   58.3002   31.5909   49.2020 H   0  0  0  0  0  0  0  0  0  0  0  0
   60.4244   34.4899   46.1228 H   0  0  0  0  0  0  0  0  0  0  0  0
   59.6286   34.4558   43.7603 H   0  0  0  0  0  0  0  0  0  0  0  0
   57.6879   33.0298   43.1111 H   0  0  0  0  0  0  0  0  0  0  0  0
   57.1411   28.3976   43.4098 H   0  0  0  0  0  0  0  0  0  0  0  0
   57.8306   30.0120   43.0006 H   0  0  0  0  0  0  0  0  0  0  0  0
   60.0889   28.2814   43.5086 H   0  0  0  0  0  0  0  0  0  0  0  0
   61.5947   28.3300   45.7207 H   0  0  0  0  0  0  0  0  0  0  0  0
   60.4660   31.8170   48.4060 H   0  0  0  0  0  0  0  0  0  0  0  0
   61.3517   31.5221   50.4319 H   0  0  0  0  0  0  0  0  0  0  0  0
   62.2610   30.0450   49.8675 H   0  0  0  0  0  0  0  0  0  0  0  0
   63.5276   32.3148   50.4933 H   0  0  0  0  0  0  0  0  0  0  0  0
   64.0526   31.2357   49.1239 H   0  0  0  0  0  0  0  0  0  0  0  0
   62.3532   34.0872   50.1990 H   0  0  0  0  0  0  0  0  0  0  0  0
   62.7304   35.0871   48.7552 H   0  0  0  0  0  0  0  0  0  0  0  0
   61.2868   34.0182   48.7552 H   0  0  0  0  0  0  0  0  0  0  0  0
   61.9704   33.3422   46.8251 H   0  0  0  0  0  0  0  0  0  0  0  0
   63.5859   32.5282   46.5702 H   0  0  0  0  0  0  0  0  0  0  0  0
   61.3866   31.1270   46.2902 H   0  0  0  0  0  0  0  0  0  0  0  0
   62.7913   30.4387   47.1871 H   0  0  0  0  0  0  0  0  0  0  0  0
   57.6899   29.9635   46.6033 H   0  0  0  0  0  0  0  0  0  0  0  0
   57.3429   31.6420   47.1960 H   0  0  0  0  0  0  0  0  0  0  0  0
  1  2  1  0
  2  3  1  0
  3  4  2  0
  4  5  1  0
  5  6  2  0
  6  7  1  0
  7  8  1  0
  8  9  1  0
  9 10  2  0
  9 11  1  0
 11 12  1  0
 12 13  1  0
 13 14  2  0
 14 15  1  0
 15 16  1  0
 16 17  2  0
 16 18  2  0
 16 19  1  0
 19 20  1  0
 20 21  1  0
 21 22  1  0
 22 23  1  0
 22 24  1  0
 24 25  1  0
 15 26  2  0
  7 27  2  0
 27  3  1  0
 26 12  1  0
 25 19  1  0
  1 28  1  0
  1 29  1  0
  1 30  1  0
  4 31  1  0
  5 32  1  0
  6 33  1  0
 11 34  1  0
 11 35  1  0
 13 36  1  0
 14 37  1  0
 19 38  1  0
 20 39  1  0
 20 40  1  0
 21 41  1  0
 21 42  1  0
 23 43  1  0
 23 44  1  0
 23 45  1  0
 24 46  1  0
 24 47  1  0
 25 48  1  0
 25 49  1  0
 26 50  1  0
 27 51  1  0
M  CHG  2   8  -1  19   1
M  END
>  <UniqueID>  (7) 
7

>  <SMILES>  (7) 
COc1cccc([N-]C(=O)Cn2ccc(S(=O)(=O)[NH+]3CCN(C)CC3)c2)c1

>  <Energy>  (7) 
89.6212100709742

>  <Genealogy>  (7) 
COc1cccc([N-]C(=O)Cn2ccc(S(=O)(=O)[NH+]3CCN(C)CC3)c2)c1 (protonated)
COc1cccc([N-]C(=O)Cn2ccc(S(=O)(=O)[NH+]3CCN(C)CC3)c2)c1 (3D coordinates assigned)
COc1cccc([N-]C(=O)Cn2ccc(S(=O)(=O)[NH+]3CCN(C)CC3)c2)c1 (nonaromatic ring conformer: 89.6212100709742 kcal/mol)

>  <smiles>  (7) 
COc1cccc(NC(=O)Cn2ccc(S(=O)(=O)N3CCN(C)CC3)c2)c1

>  <score_type>  (7) 
oracle

>  <origin>  (7) 
adg

>  <m_score__min__energy>  (7) 
-8.8499999999999996

>  <m_primary>  (7) 
energy

$$$$
7:0
     RDKit          3D

 54 57  0  0  1  0  0  0  0  0999 V2000
   62.8580   34.5830   50.0050 C   0  0  0  0  0  0  0  0  0  0  0  0
   62.0890   33.3340   49.9240 C   0  0  0  0  0  0  0  0  0  0  0  0
   62.6670   32.2090   50.3850 N   0  0  0  0  0  0  0  0  0  0  0  0
   62.0190   31.0310   50.3510 C   0  0  0  0  0  0  0  0  0  0  0  0
   62.3030   29.7720   50.7140 N   0  0  0  0  0  0  0  0  0  0  0  0
   61.2890   28.9430   50.4590 C   0  0  0  0  0  0  0  0  0  0  0  0
   56.7860   29.5300   44.6540 C   0  0  0  0  0  0  0  0  0  0  0  0
   57.6320   28.4450   44.1390 C   0  0  0  0  0  0  0  0  0  0  0  0
   59.3080   27.8910   45.8400 C   0  0  0  0  0  0  0  0  0  0  0  0
   58.6320   28.2070   46.9950 C   0  0  0  0  0  0  0  0  0  0  0  0
   59.0600   27.7810   48.2180 C   0  0  0  0  0  0  0  0  0  0  0  0
   60.2110   26.9950   48.3810 C   0  0  0  0  0  0  0  0  0  0  0  0
   60.5910   26.7070   49.7320 C   0  0  0  0  0  0  0  0  0  0  0  0
   58.8880   28.3260   44.5140 C   0  0  0  0  0  0  0  0  0  0  0  0
   61.0720   27.5260   50.6210 C   0  0  0  0  0  0  0  0  0  0  0  0
   55.5620   29.2980   45.2460 O   0  0  0  0  0  0  0  0  0  0  0  0
   57.1940   30.7620   44.5520 N   0  0  0  0  0  0  0  0  0  0  0  0
   56.2910   31.7790   44.8430 O   0  0  0  0  0  0  0  0  0  0  0  0
   60.8740   26.6900   47.2300 C   0  0  0  0  0  0  0  0  0  0  0  0
   60.4350   27.1270   45.9660 C   0  0  0  0  0  0  0  0  0  0  0  0
   60.3450   29.7460   49.9130 N   0  0  0  0  0  0  0  0  0  0  0  0
   60.7760   30.9850   49.8480 N   0  0  0  0  0  0  0  0  0  0  0  0
   60.1720   32.0920   49.3790 C   0  0  0  0  0  0  0  0  0  0  0  0
   59.0110   31.9710   48.9240 O   0  0  0  0  0  0  0  0  0  0  0  0
   60.8200   33.3330   49.4010 C   0  0  0  0  0  0  0  0  0  0  0  0
   60.1260   34.5260   48.8660 C   0  0  0  0  0  0  0  0  0  0  0  0
   59.5560   34.3350   47.5130 C   0  0  0  0  0  0  0  0  0  0  0  0
   60.2740   34.4220   46.3450 C   0  0  0  0  0  0  0  0  0  0  0  0
   59.6360   34.2160   45.1430 C   0  0  0  0  0  0  0  0  0  0  0  0
   58.2850   33.9240   45.0980 C   0  0  0  0  0  0  0  0  0  0  0  0
   57.6030   33.7100   43.9070 O   0  0  0  0  0  0  0  0  0  0  0  0
   57.5440   33.8320   46.2580 C   0  0  0  0  0  0  0  0  0  0  0  0
   58.1900   34.0400   47.4550 C   0  0  0  0  0  0  0  0  0  0  0  0
   63.0200   34.8461   51.0607 H   0  0  0  0  0  0  0  0  0  0  0  0
   63.8297   34.4482   49.5075 H   0  0  0  0  0  0  0  0  0  0  0  0
   62.3001   35.3900   49.5075 H   0  0  0  0  0  0  0  0  0  0  0  0
   63.6340   32.2340   50.7790 H   0  0  0  0  0  0  0  0  0  0  0  0
   57.2087   27.7200   43.4282 H   0  0  0  0  0  0  0  0  0  0  0  0
   61.3408   27.0938   51.5961 H   0  0  0  0  0  0  0  0  0  0  0  0
   57.7210   28.8202   46.9309 H   0  0  0  0  0  0  0  0  0  0  0  0
   58.4814   28.0641   49.1097 H   0  0  0  0  0  0  0  0  0  0  0  0
   60.4599   25.6646   50.0579 H   0  0  0  0  0  0  0  0  0  0  0  0
   59.6702   28.5703   43.7802 H   0  0  0  0  0  0  0  0  0  0  0  0
   55.1190   30.0760   45.7250 H   0  0  0  0  0  0  0  0  0  0  0  0
   55.4130   31.4930   45.2310 H   0  0  0  0  0  0  0  0  0  0  0  0
   61.7868   26.0792   47.2911 H   0  0  0  0  0  0  0  0  0  0  0  0
   61.0062   26.8502   45.0676 H   0  0  0  0  0  0  0  0  0  0  0  0
   59.3071   34.7867   49.5526 H   0  0  0  0  0  0  0  0  0  0  0  0
   60.8800   35.3227   48.7841 H   0  0  0  0  0  0  0  0  0  0  0  0
   61.3489   34.6542   46.3702 H   0  0  0  0  0  0  0  0  0  0  0  0
   60.2081   34.2845   44.2060 H   0  0  0  0  0  0  0  0  0  0  0  0
   57.1340   32.7990   43.8350 H   0  0  0  0  0  0  0  0  0  0  0  0
   56.4693   33.5994   46.2270 H   0  0  0  0  0  0  0  0  0  0  0  0
   57.6168   33.9725   48.3914 H   0  0  0  0  0  0  0  0  0  0  0  0
  1  2  1  0
  2  3  1  0
  3  4  1  0
  4  5  2  0
  5  6  1  0
  6  7  1  0
  7  8  2  0
  8  9  1  0
  9 10  2  0
 10 11  1  0
 11 12  2  0
 12 13  1  0
 13 14  2  0
 14 15  1  0
 15 16  1  0
 15 17  2  0
 17 18  1  0
 12 19  1  0
 19 20  2  0
  6 21  2  0
 21 22  1  0
 22 23  1  0
 23 24  2  0
 23 25  1  0
 25 26  1  0
 26 27  1  0
 27 28  2  0
 28 29  1  0
 29 30  2  0
 30 31  1  0
 30 32  1  0
 32 33  2  0
 25  2  2  0
 33 27  1  0
 22  4  1  0
 20  9  1  0
  1 34  1  0
  1 35  1  0
  1 36  1  0
  3 37  1  0
  7 38  1  0
  8 39  1  0
 10 40  1  0
 11 41  1  0
 13 42  1  0
 14 43  1  0
 16 44  1  0
 18 45  1  0
 19 46  1  0
 20 47  1  0
 26 48  1  0
 26 49  1  0
 28 50  1  0
 29 51  1  0
 31 52  1  0
 32 53  1  0
 33 54  1  0
M  END
>  <smiles>  (8) 
Cc1[nH]c2nc(C=Cc3ccc(C=CC(O)=NO)cc3)nn2c(=O)c1Cc1ccc(O)cc1

>  <score_type>  (8) 
oracle

>  <origin>  (8) 
adg

>  <m_score__min__energy>  (8) 
-11.27

>  <m_primary>  (8) 
energy

$$$$
8:0
     RDKit          3D

 17 18  0  0  0  0  0  0  0  0999 V2000
   57.7340   22.2510   47.1260 H   0  0  0  0  0  0  0  0  0  0  0  0
   57.3480   23.0330   47.7000 N   0  0  0  0  0  0  0  0  0  0  0  0
   57.2040   24.2220   47.2120 C   0  0  0  0  0  0  0  0  0  0  0  0
   55.9710   24.6530   46.8420 N   0  0  0  0  0  0  0  0  0  0  0  0
   55.7780   25.8950   46.3240 C   0  0  0  0  0  0  0  0  0  0  0  0
   54.6130   26.2430   45.9960 O   0  0  0  0  0  0  0  0  0  0  0  0
   56.8760   26.7660   46.1640 C   0  0  0  0  0  0  0  0  0  0  0  0
   56.7620   28.0720   45.6350 C   0  0  0  0  0  0  0  0  0  0  0  0
   55.5330   28.5860   45.2320 O   0  0  0  0  0  0  0  0  0  0  0  0
   57.9010   28.8740   45.5090 C   0  0  0  0  0  0  0  0  0  0  0  0
   57.8099   29.8902   45.0978 H   0  0  0  0  0  0  0  0  0  0  0  0
   59.1530   28.3950   45.9010 C   0  0  0  0  0  0  0  0  0  0  0  0
   60.0427   29.0333   45.7960 H   0  0  0  0  0  0  0  0  0  0  0  0
   59.2770   27.1070   46.4260 C   0  0  0  0  0  0  0  0  0  0  0  0
   60.2642   26.7333   46.7357 H   0  0  0  0  0  0  0  0  0  0  0  0
   58.1490   26.2910   46.5590 C   0  0  0  0  0  0  0  0  0  0  0  0
   58.2800   25.0390   47.0700 N   0  0  0  0  0  0  0  0  0  0  0  0
  1  2  1  0
  2  3  2  0
  3  4  1  0
  4  5  1  0
  5  6  2  0
  5  7  1  0
  7  8  2  0
  8  9  1  0
  8 10  1  0
 10 11  1  0
 10 12  2  0
 12 13  1  0
 12 14  1  0
 14 15  1  0
 14 16  2  0
 16 17  1  0
 17  3  1  0
 16  7  1  0
M  CHG  3   4  -1   9  -1  17  -1
M  END
>  <UniqueID>  (9) 
8

>  <SMILES>  (9) 
[H]/N=c1/[n-]c(=O)c2c([O-])cccc2[n-]1

>  <Energy>  (9) 
23.919907446325034

>  <Genealogy>  (9) 
N=c1[n-]c(=O)c2c([O-])cccc2[n-]1 (protonated)
[H]/N=c1/[n-]c(=O)c2c([O-])cccc2[n-]1 (cis-trans isomerization)
[H]/N=c1/[n-]c(=O)c2c([O-])cccc2[n-]1 (3D coordinates assigned)
[H]/N=c1/[n-]c(=O)c2c([O-])cccc2[n-]1 (optimized conformer: 23.919907446325034 kcal/mol)

>  <smiles>  (9) 
N=c1[nH]c(=O)c2c(O)cccc2[nH]1

>  <score_type>  (9) 
oracle

>  <origin>  (9) 
adg

>  <m_score__min__energy>  (9) 
-12.15

>  <m_primary>  (9) 
energy

$$$$
9:0
     RDKit          3D

 47 49  0  0  0  0  0  0  0  0999 V2000
   60.9590   26.7110   46.0910 C   0  0  0  0  0  0  0  0  0  0  0  0
   59.7480   27.5190   45.7450 C   0  0  0  0  0  0  0  0  0  0  0  0
   59.6580   28.2050   44.5290 C   0  0  0  0  0  0  0  0  0  0  0  0
   58.5520   28.9480   44.2570 N   0  0  0  0  0  0  0  0  0  0  0  0
   57.5210   29.0410   45.1490 C   0  0  0  0  0  0  0  0  0  0  0  0
   56.3010   29.8160   44.8190 C   0  0  0  0  0  0  0  0  0  0  0  0
   55.1780   29.2470   44.8490 O   0  0  0  0  0  0  0  0  0  0  0  0
   56.3620   31.2120   44.4960 N   0  0  0  0  0  0  0  0  0  0  0  0
   57.3380   32.1270   45.0140 C   0  0  0  0  0  0  0  0  0  0  0  0
   58.4940   31.6630   45.6640 C   0  0  0  0  0  0  0  0  0  0  0  0
   59.3820   32.5660   46.2490 C   0  0  0  0  0  0  0  0  0  0  0  0
   59.1240   33.9460   46.1990 C   0  0  0  0  0  0  0  0  0  0  0  0
   60.0110   34.9120   46.9370 C   0  0  0  0  0  0  0  0  0  0  0  0
   60.4060   34.3690   48.2880 C   0  0  0  0  0  0  0  0  0  0  0  0
   59.6100   34.5330   49.2520 O   0  0  0  0  0  0  0  0  0  0  0  0
   61.6530   33.6680   48.4980 N   0  0  0  0  0  0  0  0  0  0  0  0
   62.1610   33.4750   49.8650 C   0  0  0  0  0  0  0  0  0  0  0  0
   63.6780   33.7110   49.9250 C   0  0  0  0  0  0  0  0  0  0  0  0
   64.4500   33.1270   48.7220 C   0  0  0  0  0  0  0  0  0  0  0  0
   63.5810   32.2370   47.8300 C   0  0  0  0  0  0  0  0  0  0  0  0
   62.3300   32.9960   47.3750 C   0  0  0  0  0  0  0  0  0  0  0  0
   58.0100   34.4090   45.4790 C   0  0  0  0  0  0  0  0  0  0  0  0
   57.1260   33.5040   44.8860 C   0  0  0  0  0  0  0  0  0  0  0  0
   57.6320   28.3800   46.3810 C   0  0  0  0  0  0  0  0  0  0  0  0
   58.7390   27.6400   46.6480 N   0  0  0  0  0  0  0  0  0  0  0  0
   61.0563   26.6461   47.1848 H   0  0  0  0  0  0  0  0  0  0  0  0
   60.8570   25.6993   45.6713 H   0  0  0  0  0  0  0  0  0  0  0  0
   61.8540   27.1936   45.6713 H   0  0  0  0  0  0  0  0  0  0  0  0
   60.4770   28.1437   43.7973 H   0  0  0  0  0  0  0  0  0  0  0  0
   58.5170   29.4660   43.3500 H   0  0  0  0  0  0  0  0  0  0  0  0
   58.6997   30.5835   45.7118 H   0  0  0  0  0  0  0  0  0  0  0  0
   60.2879   32.1959   46.7515 H   0  0  0  0  0  0  0  0  0  0  0  0
   60.9193   35.0905   46.3428 H   0  0  0  0  0  0  0  0  0  0  0  0
   59.4550   35.8491   47.0878 H   0  0  0  0  0  0  0  0  0  0  0  0
   61.6592   34.1848   50.5392 H   0  0  0  0  0  0  0  0  0  0  0  0
   61.9541   32.4397   50.1737 H   0  0  0  0  0  0  0  0  0  0  0  0
   63.8587   34.7955   49.9591 H   0  0  0  0  0  0  0  0  0  0  0  0
   64.0465   33.1931   50.8228 H   0  0  0  0  0  0  0  0  0  0  0  0
   64.8371   33.9595   48.1161 H   0  0  0  0  0  0  0  0  0  0  0  0
   65.2602   32.5004   49.1232 H   0  0  0  0  0  0  0  0  0  0  0  0
   64.1614   31.9323   46.9467 H   0  0  0  0  0  0  0  0  0  0  0  0
   63.2718   31.3506   48.4033 H   0  0  0  0  0  0  0  0  0  0  0  0
   62.6242   33.7532   46.6333 H   0  0  0  0  0  0  0  0  0  0  0  0
   61.6288   32.2670   46.9428 H   0  0  0  0  0  0  0  0  0  0  0  0
   57.8327   35.4902   45.3816 H   0  0  0  0  0  0  0  0  0  0  0  0
   56.2609   33.8752   44.3169 H   0  0  0  0  0  0  0  0  0  0  0  0
   56.8272   28.4605   47.1265 H   0  0  0  0  0  0  0  0  0  0  0  0
  1  2  1  0
  2  3  2  0
  3  4  1  0
  4  5  2  0
  5  6  1  0
  6  7  2  0
  6  8  1  0
  8  9  1  0
  9 10  2  0
 10 11  1  0
 11 12  2  0
 12 13  1  0
 13 14  1  0
 14 15  2  0
 14 16  1  0
 16 17  1  0
 17 18  1  0
 18 19  1  0
 19 20  1  0
 20 21  1  0
 12 22  1  0
 22 23  2  0
  5 24  1  0
 24 25  2  0
 25  2  1  0
 23  9  1  0
 21 16  1  0
  1 26  1  0
  1 27  1  0
  1 28  1  0
  3 29  1  0
  4 30  1  0
 10 31  1  0
 11 32  1  0
 13 33  1  0
 13 34  1  0
 17 35  1  0
 17 36  1  0
 18 37  1  0
 18 38  1  0
 19 39  1  0
 19 40  1  0
 20 41  1  0
 20 42  1  0
 21 43  1  0
 21 44  1  0
 22 45  1  0
 23 46  1  0
 24 47  1  0
M  CHG  2   4   1   8  -1
M  END
>  <UniqueID>  (10) 
9

>  <SMILES>  (10) 
Cc1c[nH+]c(C(=O)[N-]c2ccc(CC(=O)N3CCCCC3)cc2)cn1

>  <Energy>  (10) 
53.773897975318384

>  <Genealogy>  (10) 
Cc1c[nH+]c(C(=O)[N-]c2ccc(CC(=O)N3CCCCC3)cc2)cn1 (protonated)
Cc1c[nH+]c(C(=O)[N-]c2ccc(CC(=O)N3CCCCC3)cc2)cn1 (3D coordinates assigned)
Cc1c[nH+]c(C(=O)[N-]c2ccc(CC(=O)N3CCCCC3)cc2)cn1 (nonaromatic ring conformer: 53.773897975318384 kcal/mol)

>  <smiles>  (10) 
Cc1cnc(C(=O)Nc2ccc(CC(=O)N3CCCCC3)cc2)cn1

>  <score_type>  (10) 
oracle

>  <origin>  (10) 
adg

>  <m_score__min__energy>  (10) 
-8.9000000000000004

>  <m_primary>  (10) 
energy

$$$$
10:0
     RDKit          3D

 33 35  0  0  0  0  0  0  0  0999 V2000
   51.2810   29.8380   48.3320 O   0  0  0  0  0  0  0  0  0  0  0  0
   51.5040   30.4750   49.3950 C   0  0  0  0  0  0  0  0  0  0  0  0
   52.4300   30.0910   50.3000 N   0  0  0  0  0  0  0  0  0  0  0  0
   52.3390   31.0320   51.2630 C   0  0  0  0  0  0  0  0  0  0  0  0
   53.2290   31.0930   52.4650 C   0  0  0  0  0  0  0  0  0  0  0  0
   53.6660   29.7060   52.8580 C   0  0  0  0  0  0  0  0  0  0  0  0
   52.7350   28.6530   52.8570 C   0  0  0  0  0  0  0  0  0  0  0  0
   53.1170   27.3710   53.2590 C   0  0  0  0  0  0  0  0  0  0  0  0
   54.4270   27.1280   53.6710 C   0  0  0  0  0  0  0  0  0  0  0  0
   55.3600   28.1680   53.6880 C   0  0  0  0  0  0  0  0  0  0  0  0
   54.9840   29.4660   53.2990 C   0  0  0  0  0  0  0  0  0  0  0  0
   55.9120   30.5180   53.3070 O   0  0  0  0  0  0  0  0  0  0  0  0
   56.9160   30.7160   52.3490 C   0  0  0  0  0  0  0  0  0  0  0  0
   57.0600   31.9370   51.6620 C   0  0  0  0  0  0  0  0  0  0  0  0
   58.0620   32.0880   50.6990 C   0  0  0  0  0  0  0  0  0  0  0  0
   58.9190   31.0220   50.4060 C   0  0  0  0  0  0  0  0  0  0  0  0
   58.7690   29.8030   51.0720 C   0  0  0  0  0  0  0  0  0  0  0  0
   57.7680   29.6490   52.0360 C   0  0  0  0  0  0  0  0  0  0  0  0
   51.3820   31.9560   50.9030 C   0  0  0  0  0  0  0  0  0  0  0  0
   51.0190   33.0880   51.6220 O   0  0  0  0  0  0  0  0  0  0  0  0
   50.8460   31.6040   49.7270 N   0  0  0  0  0  0  0  0  0  0  0  0
   54.1154   31.7008   52.2306 H   0  0  0  0  0  0  0  0  0  0  0  0
   52.6744   31.5454   53.3003 H   0  0  0  0  0  0  0  0  0  0  0  0
   51.6991   28.8397   52.5376 H   0  0  0  0  0  0  0  0  0  0  0  0
   52.3832   26.5516   53.2506 H   0  0  0  0  0  0  0  0  0  0  0  0
   54.7261   26.1165   53.9829 H   0  0  0  0  0  0  0  0  0  0  0  0
   56.3939   27.9704   54.0073 H   0  0  0  0  0  0  0  0  0  0  0  0
   56.3820   32.7743   51.8839 H   0  0  0  0  0  0  0  0  0  0  0  0
   58.1767   33.0462   50.1711 H   0  0  0  0  0  0  0  0  0  0  0  0
   59.7105   31.1434   49.6518 H   0  0  0  0  0  0  0  0  0  0  0  0
   59.4395   28.9631   50.8376 H   0  0  0  0  0  0  0  0  0  0  0  0
   57.6489   28.6846   52.5515 H   0  0  0  0  0  0  0  0  0  0  0  0
   50.0990   32.0970   49.1890 H   0  0  0  0  0  0  0  0  0  0  0  0
  1  2  2  0
  2  3  1  0
  3  4  1  0
  4  5  1  0
  5  6  1  0
  6  7  2  0
  7  8  1  0
  8  9  2  0
  9 10  1  0
 10 11  2  0
 11 12  1  0
 12 13  1  0
 13 14  2  0
 14 15  1  0
 15 16  2  0
 16 17  1  0
 17 18  2  0
  4 19  2  0
 19 20  1  0
 19 21  1  0
 21  2  1  0
 11  6  1  0
 18 13  1  0
  5 22  1  0
  5 23  1  0
  7 24  1  0
  8 25  1  0
  9 26  1  0
 10 27  1  0
 14 28  1  0
 15 29  1  0
 16 30  1  0
 17 31  1  0
 18 32  1  0
 21 33  1  0
M  CHG  2   3  -1  20  -1
M  END
>  <UniqueID>  (11) 
10

>  <SMILES>  (11) 
O=c1[n-]c(Cc2ccccc2Oc2ccccc2)c([O-])[nH]1

>  <Energy>  (11) 
71.08179476440621

>  <Genealogy>  (11) 
O=c1[n-]c(Cc2ccccc2Oc2ccccc2)c([O-])[nH]1 (protonated)
O=c1[n-]c(Cc2ccccc2Oc2ccccc2)c([O-])[nH]1 (3D coordinates assigned)
O=c1[n-]c(Cc2ccccc2Oc2ccccc2)c([O-])[nH]1 (optimized conformer: 71.08179476440621 kcal/mol)

>  <smiles>  (11) 
O=c1[nH]c(O)c(Cc2ccccc2Oc2ccccc2)[nH]1

>  <score_type>  (11) 
oracle

>  <origin>  (11) 
adg

>  <m_score__min__energy>  (11) 
-13.619999999999999

>  <m_primary>  (11) 
energy

$$$$
11:0
     RDKit          3D

 46 49  0  0  0  0  0  0  0  0999 V2000
   49.9460   22.0400   48.2070 C   0  0  0  0  0  0  0  0  0  0  0  0
   51.0170   22.1600   47.2260 N   0  0  0  0  0  0  0  0  0  0  0  0
   50.8750   22.3100   45.8940 C   0  0  0  0  0  0  0  0  0  0  0  0
   52.0550   22.5120   45.2680 N   0  0  0  0  0  0  0  0  0  0  0  0
   52.9590   22.4890   46.2680 C   0  0  0  0  0  0  0  0  0  0  0  0
   54.6730   22.7770   46.0420 S   0  0  0  0  0  0  0  0  0  0  0  0
   55.4490   21.5400   46.3950 O   0  0  0  0  0  0  0  0  0  0  0  0
   54.9290   23.1040   44.5990 O   0  0  0  0  0  0  0  0  0  0  0  0
   55.2070   24.0960   47.0290 N   0  0  0  0  0  0  0  0  0  0  0  0
   56.2980   24.9260   46.6290 C   0  0  0  0  0  0  0  0  0  0  0  0
   57.6000   24.4150   46.6660 C   0  0  0  0  0  0  0  0  0  0  0  0
   58.6800   25.2130   46.2810 C   0  0  0  0  0  0  0  0  0  0  0  0
   58.4650   26.5300   45.8670 C   0  0  0  0  0  0  0  0  0  0  0  0
   57.1670   27.0600   45.8340 C   0  0  0  0  0  0  0  0  0  0  0  0
   56.9710   28.4220   45.4220 N   0  0  0  0  0  0  0  0  0  0  0  0
   57.5680   28.9550   44.2300 C   0  0  0  0  0  0  0  0  0  0  0  0
   57.9600   28.1670   43.3270 O   0  0  0  0  0  0  0  0  0  0  0  0
   57.7060   30.4190   44.0290 C   0  0  0  0  0  0  0  0  0  0  0  0
   57.3740   31.0140   42.8000 C   0  0  0  0  0  0  0  0  0  0  0  0
   57.4910   32.3950   42.6290 C   0  0  0  0  0  0  0  0  0  0  0  0
   57.9310   33.2000   43.6820 C   0  0  0  0  0  0  0  0  0  0  0  0
   58.2590   32.6310   44.9230 C   0  0  0  0  0  0  0  0  0  0  0  0
   58.7150   33.4760   46.0520 C   0  0  0  0  0  0  0  0  0  0  0  0
   59.3290   34.6700   45.8910 N   0  0  0  0  0  0  0  0  0  0  0  0
   59.6540   35.2490   47.0780 C   0  0  0  0  0  0  0  0  0  0  0  0
   59.3020   34.5210   48.2070 C   0  0  0  0  0  0  0  0  0  0  0  0
   58.5600   33.1050   47.6890 S   0  0  0  0  0  0  0  0  0  0  0  0
   58.1430   31.2390   45.0870 C   0  0  0  0  0  0  0  0  0  0  0  0
   56.0750   26.2350   46.1750 C   0  0  0  0  0  0  0  0  0  0  0  0
   54.7740   26.7020   46.0210 O   0  0  0  0  0  0  0  0  0  0  0  0
   52.3310   22.2830   47.4750 C   0  0  0  0  0  0  0  0  0  0  0  0
   50.3703   22.0875   49.2208 H   0  0  0  0  0  0  0  0  0  0  0  0
   49.2296   22.8635   48.0704 H   0  0  0  0  0  0  0  0  0  0  0  0
   49.4296   21.0784   48.0704 H   0  0  0  0  0  0  0  0  0  0  0  0
   49.9061   22.2721   45.3745 H   0  0  0  0  0  0  0  0  0  0  0  0
   57.7738   23.3813   46.9994 H   0  0  0  0  0  0  0  0  0  0  0  0
   59.7009   24.8040   46.3038 H   0  0  0  0  0  0  0  0  0  0  0  0
   59.3186   27.1547   45.5652 H   0  0  0  0  0  0  0  0  0  0  0  0
   56.2260   28.9780   45.8980 H   0  0  0  0  0  0  0  0  0  0  0  0
   57.0198   30.3881   41.9676 H   0  0  0  0  0  0  0  0  0  0  0  0
   57.2356   32.8506   41.6609 H   0  0  0  0  0  0  0  0  0  0  0  0
   58.0212   34.2868   43.5382 H   0  0  0  0  0  0  0  0  0  0  0  0
   60.1595   36.2241   47.1393 H   0  0  0  0  0  0  0  0  0  0  0  0
   59.4772   34.8177   49.2516 H   0  0  0  0  0  0  0  0  0  0  0  0
   58.3973   30.7843   46.0558 H   0  0  0  0  0  0  0  0  0  0  0  0
   52.8155   22.2291   48.4611 H   0  0  0  0  0  0  0  0  0  0  0  0
  1  2  1  0
  2  3  1  0
  3  4  2  0
  4  5  1  0
  5  6  1  0
  6  7  2  0
  6  8  2  0
  6  9  1  0
  9 10  1  0
 10 11  2  0
 11 12  1  0
 12 13  2  0
 13 14  1  0
 14 15  1  0
 15 16  1  0
 16 17  2  0
 16 18  1  0
 18 19  2  0
 19 20  1  0
 20 21  2  0
 21 22  1  0
 22 23  1  0
 23 24  2  0
 24 25  1  0
 25 26  2  0
 26 27  1  0
 22 28  2  0
 14 29  2  0
 29 30  1  0
  5 31  2  0
 31  2  1  0
 29 10  1  0
 28 18  1  0
 27 23  1  0
  1 32  1  0
  1 33  1  0
  1 34  1  0
  3 35  1  0
 11 36  1  0
 12 37  1  0
 13 38  1  0
 15 39  1  0
 19 40  1  0
 20 41  1  0
 21 42  1  0
 25 43  1  0
 26 44  1  0
 28 45  1  0
 31 46  1  0
M  CHG  2   9  -1  30  -1
M  END
>  <UniqueID>  (12) 
11

>  <SMILES>  (12) 
Cn1cnc(S(=O)(=O)[N-]c2cccc(NC(=O)c3cccc(-c4nccs4)c3)c2[O-])c1

>  <Energy>  (12) 
124.84041533679722

>  <Genealogy>  (12) 
Cn1cnc(S(=O)(=O)[N-]c2cccc(NC(=O)c3cccc(-c4nccs4)c3)c2[O-])c1 (protonated)
Cn1cnc(S(=O)(=O)[N-]c2cccc(NC(=O)c3cccc(-c4nccs4)c3)c2[O-])c1 (3D coordinates assigned)
Cn1cnc(S(=O)(=O)[N-]c2cccc(NC(=O)c3cccc(-c4nccs4)c3)c2[O-])c1 (optimized conformer: 124.84041533679722 kcal/mol)

>  <smiles>  (12) 
Cn1cnc(S(=O)(=O)Nc2cccc(NC(=O)c3cccc(-c4nccs4)c3)c2O)c1

>  <score_type>  (12) 
oracle

>  <origin>  (12) 
adg

>  <m_score__min__energy>  (12) 
-14.720000000000001

>  <m_primary>  (12) 
energy

$$$$
12:0
     RDKit          3D

 40 42  0  0  0  0  0  0  0  0999 V2000
   56.4419   20.1629   45.0072 H   0  0  0  0  0  0  0  0  0  0  0  0
   56.3760   21.1850   44.6060 C   0  0  0  0  0  0  0  0  0  0  0  0
   55.9750   22.2050   45.4090 N   0  0  0  0  0  0  0  0  0  0  0  0
   55.8800   23.4900   44.9690 C   0  0  0  0  0  0  0  0  0  0  0  0
   55.4770   24.4000   45.8130 N   0  0  0  0  0  0  0  0  0  0  0  0
   56.2530   25.2510   46.6730 C   0  0  0  0  0  0  0  0  0  0  0  0
   56.4980   24.9260   47.8660 O   0  0  0  0  0  0  0  0  0  0  0  0
   56.6900   26.5620   46.1760 C   0  0  0  0  0  0  0  0  0  0  0  0
   55.8610   27.4670   45.6200 N   0  0  0  0  0  0  0  0  0  0  0  0
   56.5800   28.5270   45.2780 N   0  0  0  0  0  0  0  0  0  0  0  0
   55.9910   29.6480   44.5510 C   0  0  0  0  0  0  0  0  0  0  0  0
   55.6029   30.3866   45.2678 H   0  0  0  0  0  0  0  0  0  0  0  0
   56.7583   30.1187   43.9187 H   0  0  0  0  0  0  0  0  0  0  0  0
   55.1681   29.2832   43.9187 H   0  0  0  0  0  0  0  0  0  0  0  0
   57.8730   28.3010   45.6290 C   0  0  0  0  0  0  0  0  0  0  0  0
   58.8980   29.0880   45.4450 N   0  0  0  0  0  0  0  0  0  0  0  0
   59.2750   30.2550   46.1810 C   0  0  0  0  0  0  0  0  0  0  0  0
   60.4900   30.5490   46.3320 O   0  0  0  0  0  0  0  0  0  0  0  0
   58.2220   31.2250   46.6130 C   0  0  0  0  0  0  0  0  0  0  0  0
   57.3049   31.0473   46.0321 H   0  0  0  0  0  0  0  0  0  0  0  0
   58.0229   31.0823   47.6854 H   0  0  0  0  0  0  0  0  0  0  0  0
   58.6890   32.6430   46.3850 C   0  0  0  0  0  0  0  0  0  0  0  0
   59.2940   33.3540   47.4420 C   0  0  0  0  0  0  0  0  0  0  0  0
   59.4390   32.7840   48.6660 F   0  0  0  0  0  0  0  0  0  0  0  0
   59.7590   34.6570   47.2440 C   0  0  0  0  0  0  0  0  0  0  0  0
   60.2225   35.2064   48.0767 H   0  0  0  0  0  0  0  0  0  0  0  0
   59.6370   35.2630   45.9930 C   0  0  0  0  0  0  0  0  0  0  0  0
   60.0007   36.2901   45.8419 H   0  0  0  0  0  0  0  0  0  0  0  0
   59.0540   34.5670   44.9340 C   0  0  0  0  0  0  0  0  0  0  0  0
   58.9629   35.0478   43.9488 H   0  0  0  0  0  0  0  0  0  0  0  0
   58.5840   33.2610   45.1160 C   0  0  0  0  0  0  0  0  0  0  0  0
   57.8770   32.4360   43.7300 Cl  0  0  0  0  0  0  0  0  0  0  0  0
   57.9850   27.0460   46.1850 C   0  0  0  0  0  0  0  0  0  0  0  0
   58.8934   26.5452   46.5511 H   0  0  0  0  0  0  0  0  0  0  0  0
   56.1850   23.7700   43.6180 C   0  0  0  0  0  0  0  0  0  0  0  0
   56.0949   24.7952   43.2297 H   0  0  0  0  0  0  0  0  0  0  0  0
   56.6020   22.7330   42.7800 C   0  0  0  0  0  0  0  0  0  0  0  0
   56.8502   22.9422   41.7290 H   0  0  0  0  0  0  0  0  0  0  0  0
   56.7040   21.4330   43.2740 C   0  0  0  0  0  0  0  0  0  0  0  0
   57.0390   20.6136   42.6210 H   0  0  0  0  0  0  0  0  0  0  0  0
  1  2  1  0
  2  3  1  0
  3  4  1  0
  4  5  2  3
  5  6  1  0
  6  7  2  0
  6  8  1  0
  8  9  1  0
  9 10  1  0
 10 11  1  0
 11 12  1  0
 11 13  1  0
 11 14  1  0
 10 15  1  0
 15 16  2  0
 16 17  1  0
 17 18  2  0
 17 19  1  0
 19 20  1  0
 19 21  1  0
 19 22  1  0
 22 23  2  0
 23 24  1  0
 23 25  1  0
 25 26  1  0
 25 27  2  0
 27 28  1  0
 27 29  1  0
 29 30  1  0
 29 31  2  0
 31 32  1  0
 15 33  1  0
 33 34  1  0
  4 35  1  0
 35 36  1  0
 35 37  2  0
 37 38  1  0
 37 39  1  0
 39 40  1  0
 39  2  2  0
 33  8  2  0
 31 22  1  0
M  CHG  2   3  -1   9  -1
M  END
>  <UniqueID>  (13) 
12

>  <SMILES>  (13) 
Cn1[n-]c(C(=O)N=c2cccc[n-]2)c/c1=N/C(=O)Cc1c(F)cccc1Cl

>  <Energy>  (13) 
91.76454216606726

>  <Genealogy>  (13) 
Cn1[n-]c(C(=O)N=c2cccc[n-]2)cc1=NC(=O)Cc1c(F)cccc1Cl (protonated)
Cn1[n-]c(C(=O)N=c2cccc[n-]2)c/c1=N/C(=O)Cc1c(F)cccc1Cl (cis-trans isomerization)
Cn1[n-]c(C(=O)N=c2cccc[n-]2)c/c1=N/C(=O)Cc1c(F)cccc1Cl (3D coordinates assigned)
Cn1[n-]c(C(=O)N=c2cccc[n-]2)c/c1=N/C(=O)Cc1c(F)cccc1Cl (optimized conformer: 91.76454216606726 kcal/mol)

>  <smiles>  (13) 
Cn1[nH]c(C(=O)N=c2cccc[nH]2)cc1=NC(=O)Cc1c(F)cccc1Cl

>  <score_type>  (13) 
oracle

>  <origin>  (13) 
adg

>  <m_score__min__energy>  (13) 
-11.529999999999999

>  <m_primary>  (13) 
energy

$$$$
13:0
     RDKit          3D

 55 58  0  0  0  0  0  0  0  0999 V2000
   60.5800   26.7180   49.5680 C   0  0  0  0  0  0  0  0  0  0  0  0
   60.1500   27.9370   48.8500 N   0  0  0  0  0  0  0  0  0  0  0  0
   59.7140   29.0170   49.5690 C   0  0  0  0  0  0  0  0  0  0  0  0
   59.6930   28.9760   50.9630 O   0  0  0  0  0  0  0  0  0  0  0  0
   59.2860   30.1770   48.9180 C   0  0  0  0  0  0  0  0  0  0  0  0
   58.8090   31.3790   49.7090 C   0  0  0  0  0  0  0  0  0  0  0  0
   59.7480   31.7010   50.8330 C   0  0  0  0  0  0  0  0  0  0  0  0
   59.4260   31.4350   52.0230 O   0  0  0  0  0  0  0  0  0  0  0  0
   61.0090   32.3110   50.5270 N   0  0  0  0  0  0  0  0  0  0  0  0
   61.6570   32.4180   49.2490 C   0  0  0  0  0  0  0  0  0  0  0  0
   62.7140   31.5650   48.8720 C   0  0  0  0  0  0  0  0  0  0  0  0
   63.3350   31.7160   47.6290 C   0  0  0  0  0  0  0  0  0  0  0  0
   62.9220   32.7250   46.7550 C   0  0  0  0  0  0  0  0  0  0  0  0
   61.8970   33.5950   47.1300 C   0  0  0  0  0  0  0  0  0  0  0  0
   61.2690   33.4530   48.3750 C   0  0  0  0  0  0  0  0  0  0  0  0
   59.9700   34.6120   48.8290 S   0  0  0  0  0  0  0  0  0  0  0  0
   59.1230   34.4300   47.2580 C   0  0  0  0  0  0  0  0  0  0  0  0
   57.9410   33.6820   47.1780 C   0  0  0  0  0  0  0  0  0  0  0  0
   57.2890   33.5320   45.9480 C   0  0  0  0  0  0  0  0  0  0  0  0
   57.8140   34.1320   44.8000 C   0  0  0  0  0  0  0  0  0  0  0  0
   58.9890   34.8870   44.8800 C   0  0  0  0  0  0  0  0  0  0  0  0
   59.6410   35.0400   46.1080 C   0  0  0  0  0  0  0  0  0  0  0  0
   59.3670   30.2270   47.5220 C   0  0  0  0  0  0  0  0  0  0  0  0
   58.9990   31.2800   46.9270 O   0  0  0  0  0  0  0  0  0  0  0  0
   59.8450   29.1550   46.8090 N   0  0  0  0  0  0  0  0  0  0  0  0
   59.9250   29.2510   45.3300 C   0  0  0  0  0  0  0  0  0  0  0  0
   58.5990   29.6610   44.7360 C   0  0  0  0  0  0  0  0  0  0  0  0
   58.5120   30.7880   43.9000 C   0  0  0  0  0  0  0  0  0  0  0  0
   57.2820   31.1680   43.3550 C   0  0  0  0  0  0  0  0  0  0  0  0
   56.1290   30.4340   43.6470 C   0  0  0  0  0  0  0  0  0  0  0  0
   56.2040   29.3190   44.4870 C   0  0  0  0  0  0  0  0  0  0  0  0
   57.4320   28.9340   45.0320 C   0  0  0  0  0  0  0  0  0  0  0  0
   60.2290   28.0050   47.4730 C   0  0  0  0  0  0  0  0  0  0  0  0
   60.8080   26.7030   46.6210 S   0  0  0  0  0  0  0  0  0  0  0  0
   60.5191   26.8906   50.6527 H   0  0  0  0  0  0  0  0  0  0  0  0
   59.9234   25.8795   49.2927 H   0  0  0  0  0  0  0  0  0  0  0  0
   61.6174   26.4770   49.2927 H   0  0  0  0  0  0  0  0  0  0  0  0
   58.7442   32.2472   49.0367 H   0  0  0  0  0  0  0  0  0  0  0  0
   57.8237   31.1431   50.1374 H   0  0  0  0  0  0  0  0  0  0  0  0
   63.0520   30.7760   49.5600 H   0  0  0  0  0  0  0  0  0  0  0  0
   64.1513   31.0385   47.3379 H   0  0  0  0  0  0  0  0  0  0  0  0
   63.4042   32.8336   45.7723 H   0  0  0  0  0  0  0  0  0  0  0  0
   61.5806   34.3957   46.4454 H   0  0  0  0  0  0  0  0  0  0  0  0
   57.5251   33.2125   48.0817 H   0  0  0  0  0  0  0  0  0  0  0  0
   56.3630   32.9416   45.8852 H   0  0  0  0  0  0  0  0  0  0  0  0
   57.3032   34.0105   43.8334 H   0  0  0  0  0  0  0  0  0  0  0  0
   59.4005   35.3607   43.9765 H   0  0  0  0  0  0  0  0  0  0  0  0
   60.5610   35.6396   46.1709 H   0  0  0  0  0  0  0  0  0  0  0  0
   60.6855   29.9984   45.0598 H   0  0  0  0  0  0  0  0  0  0  0  0
   60.1938   28.2617   44.9312 H   0  0  0  0  0  0  0  0  0  0  0  0
   59.4155   31.3732   43.6738 H   0  0  0  0  0  0  0  0  0  0  0  0
   57.2215   32.0461   42.6953 H   0  0  0  0  0  0  0  0  0  0  0  0
   55.1624   30.7337   43.2158 H   0  0  0  0  0  0  0  0  0  0  0  0
   55.2954   28.7440   44.7192 H   0  0  0  0  0  0  0  0  0  0  0  0
   57.4860   28.0583   45.6955 H   0  0  0  0  0  0  0  0  0  0  0  0
  1  2  1  0
  2  3  1  0
  3  4  1  0
  3  5  2  0
  5  6  1  0
  6  7  1  0
  7  8  2  0
  7  9  1  0
  9 10  1  0
 10 11  2  0
 11 12  1  0
 12 13  2  0
 13 14  1  0
 14 15  2  0
 15 16  1  0
 16 17  1  0
 17 18  2  0
 18 19  1  0
 19 20  2  0
 20 21  1  0
 21 22  2  0
  5 23  1  0
 23 24  2  0
 23 25  1  0
 25 26  1  0
 26 27  1  0
 27 28  2  0
 28 29  1  0
 29 30  2  0
 30 31  1  0
 31 32  2  0
 25 33  1  0
 33 34  2  0
 33  2  1  0
 15 10  1  0
 22 17  1  0
 32 27  1  0
  1 35  1  0
  1 36  1  0
  1 37  1  0
  6 38  1  0
  6 39  1  0
 11 40  1  0
 12 41  1  0
 13 42  1  0
 14 43  1  0
 18 44  1  0
 19 45  1  0
 20 46  1  0
 21 47  1  0
 22 48  1  0
 26 49  1  0
 26 50  1  0
 28 51  1  0
 29 52  1  0
 30 53  1  0
 31 54  1  0
 32 55  1  0
M  CHG  2   4  -1   9  -1
M  END
>  <UniqueID>  (14) 
13

>  <SMILES>  (14) 
Cn1c([O-])c(CC(=O)[N-]c2ccccc2Sc2ccccc2)c(=O)n(Cc2ccccc2)c1=S

>  <Energy>  (14) 
72.75406130119654

>  <Genealogy>  (14) 
Cn1c([O-])c(CC(=O)[N-]c2ccccc2Sc2ccccc2)c(=O)n(Cc2ccccc2)c1=S (protonated)
Cn1c([O-])c(CC(=O)[N-]c2ccccc2Sc2ccccc2)c(=O)n(Cc2ccccc2)c1=S (3D coordinates assigned)
Cn1c([O-])c(CC(=O)[N-]c2ccccc2Sc2ccccc2)c(=O)n(Cc2ccccc2)c1=S (optimized conformer: 72.75406130119654 kcal/mol)

>  <smiles>  (14) 
Cn1c(O)c(CC(=O)Nc2ccccc2Sc2ccccc2)c(=O)n(Cc2ccccc2)c1=S

>  <score_type>  (14) 
oracle

>  <origin>  (14) 
adg

>  <m_score__min__energy>  (14) 
-12.890000000000001

>  <m_primary>  (14) 
energy

$$$$
14:0
     RDKit          3D

 66 70  0  0  1  0  0  0  0  0999 V2000
   54.6170   27.9450   53.4200 O   0  0  0  0  0  0  0  0  0  0  0  0
   54.0870   28.9990   52.7350 C   0  0  0  0  0  0  0  0  0  0  0  0
   52.7430   29.2700   52.6950 C   0  0  0  0  0  0  0  0  0  0  0  0
   52.2050   30.3360   52.0030 C   0  0  0  0  0  0  0  0  0  0  0  0
   58.0370   30.8230   50.9370 C   0  0  0  0  0  0  0  0  0  0  0  0
   58.1550   32.0130   50.3130 N   0  0  0  0  0  0  0  0  0  0  0  0
   59.5070   29.9270   49.2410 C   0  0  0  0  0  0  0  0  0  0  0  0
   60.1750   29.0090   48.6640 N   0  0  0  0  0  0  0  0  0  0  0  0
   57.1960   30.6450   52.1630 C   0  0  0  0  0  0  0  0  0  0  0  0
   53.0970   31.1530   51.3230 C   0  0  0  0  0  0  0  0  0  0  0  0
   58.7390   29.7740   50.3670 C   0  0  0  0  0  0  0  0  0  0  0  0
   58.8940   32.2150   49.2090 C   0  0  0  0  0  0  0  0  0  0  0  0
   58.9170   33.3910   48.7210 N   0  0  0  0  0  0  0  0  0  0  0  0
   60.5940   29.1350   47.2990 C   0  0  0  0  0  0  0  0  0  0  0  0
   59.3690   28.8850   46.4550 C   0  0  0  0  0  0  0  0  0  0  0  0
   58.9870   27.6230   46.0690 C   0  0  0  0  0  0  0  0  0  0  0  0
   57.8600   27.4630   45.2990 C   0  0  0  0  0  0  0  0  0  0  0  0
   57.0800   28.5080   44.8860 C   0  0  0  0  0  0  0  0  0  0  0  0
   57.4540   29.7830   45.2680 C   0  0  0  0  0  0  0  0  0  0  0  0
   56.7260   30.9170   44.8990 O   0  0  0  0  0  0  0  0  0  0  0  0
   57.3880   32.1450   44.9620 C   0  0  0  0  0  0  0  0  0  0  0  0
   57.1590   32.9890   46.0260 C   0  0  0  0  0  0  0  0  0  0  0  0
   57.7780   34.2160   46.1510 C   0  0  0  0  0  0  0  0  0  0  0  0
   58.6650   34.6290   45.1850 C   0  0  0  0  0  0  0  0  0  0  0  0
   58.8960   33.7920   44.1250 C   0  0  0  0  0  0  0  0  0  0  0  0
   58.2800   32.5560   43.9850 C   0  0  0  0  0  0  0  0  0  0  0  0
   58.5840   29.9680   46.0430 C   0  0  0  0  0  0  0  0  0  0  0  0
   59.5540   31.1620   48.6990 N   0  0  0  0  0  0  0  0  0  0  0  0
   54.9290   29.8340   52.0480 C   0  0  0  0  0  0  0  0  0  0  0  0
   56.1880   29.6690   52.0210 N   0  0  0  0  0  0  0  0  0  0  0  0
   59.9910   34.2850   49.0130 C   0  0  0  0  0  0  0  0  0  0  0  0
   61.2770   33.8670   48.3790 C   0  0  0  0  0  0  0  0  0  0  0  0
   61.4470   33.8720   46.9920 C   0  0  0  0  0  0  0  0  0  0  0  0
   62.6290   33.4890   46.3960 C   0  0  0  0  0  0  0  0  0  0  0  0
   63.6950   33.0820   47.1480 C   0  0  0  0  0  0  0  0  0  0  0  0
   63.5650   33.0630   48.5210 C   0  0  0  0  0  0  0  0  0  0  0  0
   62.3700   33.4520   49.1090 C   0  0  0  0  0  0  0  0  0  0  0  0
   54.4130   30.8730   51.3710 N   0  0  0  0  0  0  0  0  0  0  0  0
   55.6290   27.8270   53.3870 H   0  0  0  0  0  0  0  0  0  0  0  0
   52.0595   28.6041   53.2421 H   0  0  0  0  0  0  0  0  0  0  0  0
   51.1221   30.5286   51.9911 H   0  0  0  0  0  0  0  0  0  0  0  0
   52.7331   32.0194   50.7513 H   0  0  0  0  0  0  0  0  0  0  0  0
   57.6340   32.8050   50.7300 H   0  0  0  0  0  0  0  0  0  0  0  0
   56.7175   31.6070   52.3988 H   0  0  0  0  0  0  0  0  0  0  0  0
   57.8655   30.3020   52.9656 H   0  0  0  0  0  0  0  0  0  0  0  0
   58.6783   28.7804   50.8351 H   0  0  0  0  0  0  0  0  0  0  0  0
   60.9851   30.1461   47.1125 H   0  0  0  0  0  0  0  0  0  0  0  0
   61.3965   28.4218   47.0598 H   0  0  0  0  0  0  0  0  0  0  0  0
   59.5787   26.7473   46.3740 H   0  0  0  0  0  0  0  0  0  0  0  0
   57.5710   26.4446   45.0001 H   0  0  0  0  0  0  0  0  0  0  0  0
   56.1844   28.3394   44.2700 H   0  0  0  0  0  0  0  0  0  0  0  0
   56.4537   32.6720   46.8083 H   0  0  0  0  0  0  0  0  0  0  0  0
   57.5633   34.8590   47.0173 H   0  0  0  0  0  0  0  0  0  0  0  0
   59.1735   35.6014   45.2608 H   0  0  0  0  0  0  0  0  0  0  0  0
   59.6038   34.1152   43.3474 H   0  0  0  0  0  0  0  0  0  0  0  0
   58.4956   31.9163   43.1165 H   0  0  0  0  0  0  0  0  0  0  0  0
   58.8718   30.9868   46.3417 H   0  0  0  0  0  0  0  0  0  0  0  0
   60.1270   31.3150   47.8430 H   0  0  0  0  0  0  0  0  0  0  0  0
   59.7256   35.2865   48.6435 H   0  0  0  0  0  0  0  0  0  0  0  0
   60.1406   34.2801   50.1028 H   0  0  0  0  0  0  0  0  0  0  0  0
   60.6095   34.1923   46.3548 H   0  0  0  0  0  0  0  0  0  0  0  0
   62.7157   33.5112   45.2996 H   0  0  0  0  0  0  0  0  0  0  0  0
   64.6366   32.7761   46.6686 H   0  0  0  0  0  0  0  0  0  0  0  0
   64.4080   32.7397   49.1493 H   0  0  0  0  0  0  0  0  0  0  0  0
   62.2914   33.4282   50.2059 H   0  0  0  0  0  0  0  0  0  0  0  0
   55.0440   31.5300   50.8350 H   0  0  0  0  0  0  0  0  0  0  0  0
  1  2  1  0
  2  3  2  0
  3  4  1  0
  4  5  2  0
  5  6  1  0
  6  7  1  0
  7  8  2  0
  8  9  1  0
  9 10  1  0
 10 11  2  0
 11 12  1  0
 12 13  2  0
 13 14  1  0
 14 15  1  0
 15 16  2  0
 16 17  1  0
 17 18  2  0
 18 19  1  0
 19 20  1  0
 20 21  1  0
 21 22  2  0
 22 23  1  0
 23 24  2  0
 24 25  1  0
 25 26  2  0
 19 27  2  0
 12 28  1  0
 28 29  1  0
 29 30  2  0
 30 31  1  0
 31 32  1  0
 32 33  2  0
 33 34  1  0
 34 35  2  0
 35 36  1  0
 36 37  2  0
 29 38  1  0
  7  2  1  0
 38 10  1  0
 27 15  1  0
 37 32  1  0
 26 21  1  0
  1 39  1  0
  3 40  1  0
  4 41  1  0
  5 42  1  0
  6 43  1  0
  9 44  1  0
  9 45  1  0
 11 46  1  0
 14 47  1  0
 14 48  1  0
 16 49  1  0
 17 50  1  0
 18 51  1  0
 22 52  1  0
 23 53  1  0
 24 54  1  0
 25 55  1  0
 26 56  1  0
 27 57  1  0
 28 58  1  0
 31 59  1  0
 31 60  1  0
 33 61  1  0
 34 62  1  0
 35 63  1  0
 36 64  1  0
 37 65  1  0
 38 66  1  0
M  END
>  <smiles>  (15) 
Oc1ccc[nH]c1=NCc1cc(=NCc2cccc(Oc3ccccc3)c2)[nH]c(=NCc2ccccc2)[nH]1

>  <score_type>  (15) 
oracle

>  <origin>  (15) 
adg

>  <m_score__min__energy>  (15) 
-10.98

>  <m_primary>  (15) 
energy

$$$$
15:0
     RDKit          3D

 45 47  0  0  0  0  0  0  0  0999 V2000
   59.6450   31.6770   49.0330 O   0  0  0  0  0  0  0  0  0  0  0  0
   59.8020   30.5180   48.5640 C   0  0  0  0  0  0  0  0  0  0  0  0
   58.7180   29.6520   48.4970 O   0  0  0  0  0  0  0  0  0  0  0  0
   61.1390   30.0910   48.0510 C   0  0  0  0  0  0  0  0  0  0  0  0
   61.2180   30.3000   46.6110 N   0  0  0  0  0  0  0  0  0  0  0  0
   60.8180   29.3210   45.6430 C   0  0  0  0  0  0  0  0  0  0  0  0
   61.6500   28.9120   44.7880 O   0  0  0  0  0  0  0  0  0  0  0  0
   59.4340   28.7910   45.6450 C   0  0  0  0  0  0  0  0  0  0  0  0
   59.1550   27.5310   46.2030 C   0  0  0  0  0  0  0  0  0  0  0  0
   57.8530   27.0300   46.2020 C   0  0  0  0  0  0  0  0  0  0  0  0
   56.8070   27.7760   45.6520 C   0  0  0  0  0  0  0  0  0  0  0  0
   55.5290   27.2310   45.6290 O   0  0  0  0  0  0  0  0  0  0  0  0
   57.0610   29.0520   45.1120 C   0  0  0  0  0  0  0  0  0  0  0  0
   55.9710   29.8800   44.5450 C   0  0  0  0  0  0  0  0  0  0  0  0
   55.0190   29.3150   43.9450 O   0  0  0  0  0  0  0  0  0  0  0  0
   55.9480   31.3070   44.6830 N   0  0  0  0  0  0  0  0  0  0  0  0
   57.0680   32.1490   44.9910 C   0  0  0  0  0  0  0  0  0  0  0  0
   57.4320   32.3270   46.3310 C   0  0  0  0  0  0  0  0  0  0  0  0
   58.5120   33.1470   46.6680 C   0  0  0  0  0  0  0  0  0  0  0  0
   59.2260   33.8270   45.6720 C   0  0  0  0  0  0  0  0  0  0  0  0
   60.3540   34.6420   46.0410 N   0  0  0  0  0  0  0  0  0  0  0  0
   61.4130   34.2180   46.9150 C   0  0  0  0  0  0  0  0  0  0  0  0
   61.2290   34.1570   48.3090 C   0  0  0  0  0  0  0  0  0  0  0  0
   62.2650   33.7150   49.1370 C   0  0  0  0  0  0  0  0  0  0  0  0
   63.4850   33.3160   48.5830 C   0  0  0  0  0  0  0  0  0  0  0  0
   63.6670   33.3510   47.1980 C   0  0  0  0  0  0  0  0  0  0  0  0
   62.6320   33.7930   46.3670 C   0  0  0  0  0  0  0  0  0  0  0  0
   58.8610   33.6510   44.3260 C   0  0  0  0  0  0  0  0  0  0  0  0
   57.7790   32.8320   43.9890 C   0  0  0  0  0  0  0  0  0  0  0  0
   58.3790   29.5410   45.0960 C   0  0  0  0  0  0  0  0  0  0  0  0
   61.9235   30.6813   48.5470 H   0  0  0  0  0  0  0  0  0  0  0  0
   61.2800   29.0214   48.2658 H   0  0  0  0  0  0  0  0  0  0  0  0
   59.9688   26.9362   46.6433 H   0  0  0  0  0  0  0  0  0  0  0  0
   57.6482   26.0407   46.6372 H   0  0  0  0  0  0  0  0  0  0  0  0
   56.8641   31.8180   47.1237 H   0  0  0  0  0  0  0  0  0  0  0  0
   58.8039   33.2596   47.7226 H   0  0  0  0  0  0  0  0  0  0  0  0
   60.4040   35.6090   45.6470 H   0  0  0  0  0  0  0  0  0  0  0  0
   60.2666   34.4582   48.7485 H   0  0  0  0  0  0  0  0  0  0  0  0
   62.1200   33.6811   50.2269 H   0  0  0  0  0  0  0  0  0  0  0  0
   64.3011   32.9748   49.2369 H   0  0  0  0  0  0  0  0  0  0  0  0
   64.6244   33.0309   46.7610 H   0  0  0  0  0  0  0  0  0  0  0  0
   62.7753   33.8073   45.2765 H   0  0  0  0  0  0  0  0  0  0  0  0
   59.4295   34.1602   43.5338 H   0  0  0  0  0  0  0  0  0  0  0  0
   57.4829   32.7217   42.9354 H   0  0  0  0  0  0  0  0  0  0  0  0
   58.5877   30.5237   44.6479 H   0  0  0  0  0  0  0  0  0  0  0  0
  1  2  2  0
  2  3  1  0
  2  4  1  0
  4  5  1  0
  5  6  1  0
  6  7  2  0
  6  8  1  0
  8  9  2  0
  9 10  1  0
 10 11  2  0
 11 12  1  0
 11 13  1  0
 13 14  1  0
 14 15  2  0
 14 16  1  0
 16 17  1  0
 17 18  2  0
 18 19  1  0
 19 20  2  0
 20 21  1  0
 21 22  1  0
 22 23  2  0
 23 24  1  0
 24 25  2  0
 25 26  1  0
 26 27  2  0
 20 28  1  0
 28 29  2  0
 13 30  2  0
 30  8  1  0
 29 17  1  0
 27 22  1  0
  4 31  1  0
  4 32  1  0
  9 33  1  0
 10 34  1  0
 18 35  1  0
 19 36  1  0
 21 37  1  0
 23 38  1  0
 24 39  1  0
 25 40  1  0
 26 41  1  0
 27 42  1  0
 28 43  1  0
 29 44  1  0
 30 45  1  0
M  CHG  4   3  -1   5  -1  12  -1  16  -1
M  END
>  <UniqueID>  (16) 
14

>  <SMILES>  (16) 
O=C([O-])C[N-]C(=O)c1ccc([O-])c(C(=O)[N-]c2ccc(Nc3ccccc3)cc2)c1

>  <Energy>  (16) 
59.6291073783467

>  <Genealogy>  (16) 
O=C([O-])C[N-]C(=O)c1ccc([O-])c(C(=O)[N-]c2ccc(Nc3ccccc3)cc2)c1 (protonated)
O=C([O-])C[N-]C(=O)c1ccc([O-])c(C(=O)[N-]c2ccc(Nc3ccccc3)cc2)c1 (3D coordinates assigned)
O=C([O-])C[N-]C(=O)c1ccc([O-])c(C(=O)[N-]c2ccc(Nc3ccccc3)cc2)c1 (optimized conformer: 59.6291073783467 kcal/mol)

>  <smiles>  (16) 
O=C(O)CNC(=O)c1ccc(O)c(C(=O)Nc2ccc(Nc3ccccc3)cc2)c1

>  <score_type>  (16) 
oracle

>  <origin>  (16) 
adg

>  <m_score__min__energy>  (16) 
-16.07

>  <m_primary>  (16) 
energy

$$$$
16:0
     RDKit          3D

 54 57  0  0  0  0  0  0  0  0999 V2000
   56.9759   32.3603   44.3109 H   0  0  0  0  0  0  0  0  0  0  0  0
   57.7370   32.8840   44.9080 C   0  0  0  0  0  0  0  0  0  0  0  0
   58.1280   34.1590   44.7320 N   0  0  0  0  0  0  0  0  0  0  0  0
   59.0650   34.4340   45.6270 N   0  0  0  0  0  0  0  0  0  0  0  0
   59.6510   35.7640   45.7550 C   0  0  0  0  0  0  0  0  0  0  0  0
   59.7616   36.0150   46.8203 H   0  0  0  0  0  0  0  0  0  0  0  0
   60.6385   35.7777   45.2706 H   0  0  0  0  0  0  0  0  0  0  0  0
   58.9947   36.5020   45.2706 H   0  0  0  0  0  0  0  0  0  0  0  0
   59.2850   33.3510   46.4150 C   0  0  0  0  0  0  0  0  0  0  0  0
   60.2840   33.2610   47.5600 C   0  0  1  0  0  0  0  0  0  0  0  0
   59.8445   33.6570   48.4874 H   0  0  0  0  0  0  0  0  0  0  0  0
   60.5700   31.7810   47.9570 C   0  0  0  0  0  0  0  0  0  0  0  0
   60.1196   31.6093   48.9458 H   0  0  0  0  0  0  0  0  0  0  0  0
   60.1419   31.1780   47.1427 H   0  0  0  0  0  0  0  0  0  0  0  0
   62.0410   31.3560   48.0380 C   0  0  0  0  0  0  0  0  0  0  0  0
   62.1295   30.5236   48.7517 H   0  0  0  0  0  0  0  0  0  0  0  0
   62.3599   31.0570   47.0286 H   0  0  0  0  0  0  0  0  0  0  0  0
   62.9530   32.4960   48.4970 C   0  0  1  0  0  0  0  0  0  0  0  0
   62.6141   32.8769   49.4717 H   0  0  0  0  0  0  0  0  0  0  0  0
   64.3270   32.0050   48.6370 N   0  0  0  0  0  0  0  0  0  0  0  0
   64.4920   31.2710   47.9110 H   0  0  0  0  0  0  0  0  0  0  0  0
   64.9840   32.7840   48.4020 H   0  0  0  0  0  0  0  0  0  0  0  0
   62.8990   33.6240   47.4600 C   0  0  0  0  0  0  0  0  0  0  0  0
   63.7760   34.6310   47.8270 F   0  0  0  0  0  0  0  0  0  0  0  0
   63.3000   33.1460   46.2230 F   0  0  0  0  0  0  0  0  0  0  0  0
   61.4890   34.2280   47.3490 C   0  0  0  0  0  0  0  0  0  0  0  0
   61.4098   35.0256   48.1024 H   0  0  0  0  0  0  0  0  0  0  0  0
   61.4047   34.5646   46.3052 H   0  0  0  0  0  0  0  0  0  0  0  0
   58.4470   32.3390   45.9610 C   0  0  0  0  0  0  0  0  0  0  0  0
   58.2540   31.0370   46.5370 N   0  0  0  0  0  0  0  0  0  0  0  0
   57.7480   30.9490   47.4430 H   0  0  0  0  0  0  0  0  0  0  0  0
   58.7310   29.8340   45.9190 C   0  0  0  0  0  0  0  0  0  0  0  0
   59.7580   29.8690   45.1880 O   0  0  0  0  0  0  0  0  0  0  0  0
   58.0810   28.5360   46.1760 C   0  0  0  0  0  0  0  0  0  0  0  0
   56.6870   28.0120   45.3840 S   0  0  0  0  0  0  0  0  0  0  0  0
   56.6170   26.5730   46.2400 C   0  0  0  0  0  0  0  0  0  0  0  0
   55.7150   25.6590   46.0350 N   0  0  0  0  0  0  0  0  0  0  0  0
   55.8930   24.4250   45.3180 C   0  0  0  0  0  0  0  0  0  0  0  0
   56.6150   24.3560   44.1100 C   0  0  0  0  0  0  0  0  0  0  0  0
   57.0408   25.2712   43.6729 H   0  0  0  0  0  0  0  0  0  0  0  0
   56.7920   23.1280   43.4650 C   0  0  0  0  0  0  0  0  0  0  0  0
   57.3431   23.0821   42.5141 H   0  0  0  0  0  0  0  0  0  0  0  0
   56.2710   21.9600   44.0250 C   0  0  0  0  0  0  0  0  0  0  0  0
   56.4056   20.9960   43.5125 H   0  0  0  0  0  0  0  0  0  0  0  0
   55.5780   22.0170   45.2380 C   0  0  0  0  0  0  0  0  0  0  0  0
   55.1724   21.0964   45.6829 H   0  0  0  0  0  0  0  0  0  0  0  0
   55.4000   23.2430   45.8860 C   0  0  0  0  0  0  0  0  0  0  0  0
   54.8691   23.2798   46.8487 H   0  0  0  0  0  0  0  0  0  0  0  0
   57.6290   26.4610   47.1280 N   0  0  0  0  0  0  0  0  0  0  0  0
   58.4400   27.5540   47.1140 C   0  0  0  0  0  0  0  0  0  0  0  0
   59.5990   27.6520   48.0570 C   0  0  0  0  0  0  0  0  0  0  0  0
   59.2320   27.6210   49.0935 H   0  0  0  0  0  0  0  0  0  0  0  0
   60.2839   26.8086   47.8851 H   0  0  0  0  0  0  0  0  0  0  0  0
   60.1325   28.5985   47.8851 H   0  0  0  0  0  0  0  0  0  0  0  0
  1  2  1  0
  2  3  2  0
  3  4  1  0
  4  5  1  0
  5  6  1  0
  5  7  1  0
  5  8  1  0
  4  9  1  0
  9 10  1  0
 10 11  1  1
 10 12  1  0
 12 13  1  0
 12 14  1  0
 12 15  1  0
 15 16  1  0
 15 17  1  0
 15 18  1  0
 18 19  1  1
 18 20  1  0
 20 21  1  0
 20 22  1  0
 18 23  1  0
 23 24  1  0
 23 25  1  0
 23 26  1  0
 26 27  1  0
 26 28  1  0
  9 29  2  0
 29 30  1  0
 30 31  1  0
 30 32  1  0
 32 33  2  0
 32 34  1  0
 34 35  1  0
 35 36  1  0
 36 37  2  0
 37 38  1  0
 38 39  2  0
 39 40  1  0
 39 41  1  0
 41 42  1  0
 41 43  2  0
 43 44  1  0
 43 45  1  0
 45 46  1  0
 45 47  2  0
 47 48  1  0
 36 49  1  0
 49 50  1  0
 50 51  1  0
 51 52  1  0
 51 53  1  0
 51 54  1  0
 29  2  1  0
 50 34  2  0
 26 10  1  0
 47 38  1  0
M  CHG  1  49  -1
M  END
>  <UniqueID>  (17) 
15

>  <SMILES>  (17) 
Cc1[n-]/c(=N\c2ccccc2)sc1C(=O)Nc1cnn(C)c1[C@H]1CC[C@@H](N)C(F)(F)C1

>  <Energy>  (17) 
138.07232072237156

>  <Genealogy>  (17) 
Cc1[n-]c(=Nc2ccccc2)sc1C(=O)Nc1cnn(C)c1C1CCC(N)C(F)(F)C1 (protonated)
Cc1[n-]c(=Nc2ccccc2)sc1C(=O)Nc1cnn(C)c1[C@H]1CC[C@@H](N)C(F)(F)C1 (chirality)
Cc1[n-]/c(=N\c2ccccc2)sc1C(=O)Nc1cnn(C)c1[C@H]1CC[C@@H](N)C(F)(F)C1 (cis-trans isomerization)
Cc1[n-]/c(=N\c2ccccc2)sc1C(=O)Nc1cnn(C)c1[C@H]1CC[C@@H](N)C(F)(F)C1 (3D coordinates assigned)
Cc1[n-]/c(=N\c2ccccc2)sc1C(=O)Nc1cnn(C)c1[C@H]1CC[C@@H](N)C(F)(F)C1 (nonaromatic ring conformer: 138.07232072237156 kcal/mol)

>  <smiles>  (17) 
Cc1[nH]c(=Nc2ccccc2)sc1C(=O)Nc1cnn(C)c1C1CCC(N)C(F)(F)C1

>  <score_type>  (17) 
oracle

>  <origin>  (17) 
adg

>  <m_score__min__energy>  (17) 
-10.109999999999999

>  <m_primary>  (17) 
energy

$$$$
17:0
     RDKit          3D

 48 50  0  0  0  0  0  0  0  0999 V2000
   57.7820   26.1080   44.0510 C   0  0  0  0  0  0  0  0  0  0  0  0
   58.1370   27.5560   43.6880 C   0  0  0  0  0  0  0  0  0  0  0  0
   57.6900   28.5590   44.6860 N   0  0  0  0  0  0  0  0  0  0  0  0
   56.4770   29.3180   44.3050 C   0  0  0  0  0  0  0  0  0  0  0  0
   56.5200   29.7670   42.8430 C   0  0  0  0  0  0  0  0  0  0  0  0
   57.5970   28.0010   46.0560 C   0  0  0  0  0  0  0  0  0  0  0  0
   58.9720   28.0240   46.7260 C   0  0  0  0  0  0  0  0  0  0  0  0
   59.6900   29.2680   46.4070 N   0  0  0  0  0  0  0  0  0  0  0  0
   59.9380   30.1300   47.5760 C   0  0  0  0  0  0  0  0  0  0  0  0
   60.3640   31.5460   47.1860 C   0  0  0  0  0  0  0  0  0  0  0  0
   61.6160   32.1190   47.5750 C   0  0  0  0  0  0  0  0  0  0  0  0
   62.5730   31.4190   48.3480 C   0  0  0  0  0  0  0  0  0  0  0  0
   63.7830   32.0160   48.7100 C   0  0  0  0  0  0  0  0  0  0  0  0
   64.0750   33.3150   48.3050 C   0  0  0  0  0  0  0  0  0  0  0  0
   63.1580   34.0280   47.5380 C   0  0  0  0  0  0  0  0  0  0  0  0
   61.9320   33.4470   47.1710 C   0  0  0  0  0  0  0  0  0  0  0  0
   61.0290   34.1870   46.3990 C   0  0  0  0  0  0  0  0  0  0  0  0
   59.8090   33.6340   46.0110 C   0  0  0  0  0  0  0  0  0  0  0  0
   58.9330   34.3530   45.2530 N   0  0  0  0  0  0  0  0  0  0  0  0
   57.7440   33.8230   44.8580 C   0  0  0  0  0  0  0  0  0  0  0  0
   57.4120   32.5240   45.2380 C   0  0  0  0  0  0  0  0  0  0  0  0
   56.3160   32.0160   44.8830 O   0  0  0  0  0  0  0  0  0  0  0  0
   58.2790   31.8070   45.9950 N   0  0  0  0  0  0  0  0  0  0  0  0
   59.4750   32.3190   46.4010 C   0  0  0  0  0  0  0  0  0  0  0  0
   57.7556   26.0003   45.1454 H   0  0  0  0  0  0  0  0  0  0  0  0
   56.7956   25.8567   43.6339 H   0  0  0  0  0  0  0  0  0  0  0  0
   58.5403   25.4290   43.6339 H   0  0  0  0  0  0  0  0  0  0  0  0
   59.2302   27.6294   43.5906 H   0  0  0  0  0  0  0  0  0  0  0  0
   57.6099   27.7857   42.7502 H   0  0  0  0  0  0  0  0  0  0  0  0
   55.5953   28.6775   44.4544 H   0  0  0  0  0  0  0  0  0  0  0  0
   56.4257   30.2174   44.9362 H   0  0  0  0  0  0  0  0  0  0  0  0
   56.6248   30.8611   42.7984 H   0  0  0  0  0  0  0  0  0  0  0  0
   57.3771   29.2957   42.3398 H   0  0  0  0  0  0  0  0  0  0  0  0
   55.5890   29.4670   42.3398 H   0  0  0  0  0  0  0  0  0  0  0  0
   56.8934   28.6047   46.6480 H   0  0  0  0  0  0  0  0  0  0  0  0
   57.2412   26.9617   45.9987 H   0  0  0  0  0  0  0  0  0  0  0  0
   58.8429   27.9519   47.8160 H   0  0  0  0  0  0  0  0  0  0  0  0
   59.5598   27.1728   46.3520 H   0  0  0  0  0  0  0  0  0  0  0  0
   59.1420   29.8030   45.6930 H   0  0  0  0  0  0  0  0  0  0  0  0
   59.0142   30.1916   48.1700 H   0  0  0  0  0  0  0  0  0  0  0  0
   60.7621   29.6816   48.1503 H   0  0  0  0  0  0  0  0  0  0  0  0
   62.3606   30.3885   48.6688 H   0  0  0  0  0  0  0  0  0  0  0  0
   64.5088   31.4564   49.3184 H   0  0  0  0  0  0  0  0  0  0  0  0
   65.0307   33.7784   48.5911 H   0  0  0  0  0  0  0  0  0  0  0  0
   63.3945   35.0532   47.2169 H   0  0  0  0  0  0  0  0  0  0  0  0
   61.2837   35.2132   46.0958 H   0  0  0  0  0  0  0  0  0  0  0  0
   59.1660   35.3290   44.9560 H   0  0  0  0  0  0  0  0  0  0  0  0
   57.0500   34.4152   44.2434 H   0  0  0  0  0  0  0  0  0  0  0  0
  1  2  1  0
  2  3  1  0
  3  4  1  0
  4  5  1  0
  3  6  1  0
  6  7  1  0
  7  8  1  0
  8  9  1  0
  9 10  1  0
 10 11  2  0
 11 12  1  0
 12 13  2  0
 13 14  1  0
 14 15  2  0
 15 16  1  0
 16 17  2  0
 17 18  1  0
 18 19  1  0
 19 20  2  0
 20 21  1  0
 21 22  2  0
 21 23  1  0
 23 24  1  0
 24 10  1  0
 16 11  1  0
 24 18  2  0
  1 25  1  0
  1 26  1  0
  1 27  1  0
  2 28  1  0
  2 29  1  0
  4 30  1  0
  4 31  1  0
  5 32  1  0
  5 33  1  0
  5 34  1  0
  6 35  1  0
  6 36  1  0
  7 37  1  0
  7 38  1  0
  8 39  1  0
  9 40  1  0
  9 41  1  0
 12 42  1  0
 13 43  1  0
 14 44  1  0
 15 45  1  0
 17 46  1  0
 19 47  1  0
 20 48  1  0
M  CHG  2  19   1  23  -1
M  END
>  <UniqueID>  (18) 
16

>  <SMILES>  (18) 
CCN(CC)CCNCc1c2ccccc2cc2[nH+]cc(=O)[n-]c12

>  <Energy>  (18) 
64.02544811121511

>  <Genealogy>  (18) 
CCN(CC)CCNCc1c2ccccc2cc2[nH+]cc(=O)[n-]c12 (protonated)
CCN(CC)CCNCc1c2ccccc2cc2[nH+]cc(=O)[n-]c12 (3D coordinates assigned)
CCN(CC)CCNCc1c2ccccc2cc2[nH+]cc(=O)[n-]c12 (optimized conformer: 64.02544811121511 kcal/mol)

>  <smiles>  (18) 
CCN(CC)CCNCc1c2ccccc2cc2ncc(=O)[nH]c12

>  <score_type>  (18) 
oracle

>  <origin>  (18) 
adg

>  <m_score__min__energy>  (18) 
-6.75

>  <m_primary>  (18) 
energy

$$$$
18:0
     RDKit          3D

 25 26  0  0  0  0  0  0  0  0999 V2000
   55.6260   22.2290   42.5930 N   0  0  0  0  0  0  0  0  0  0  0  0
   56.6780   21.4100   43.6940 S   0  0  0  0  0  0  0  0  0  0  0  0
   57.9760   21.0860   43.0090 O   0  0  0  0  0  0  0  0  0  0  0  0
   56.0280   20.1250   44.1250 O   0  0  0  0  0  0  0  0  0  0  0  0
   56.9840   22.4400   45.0960 C   0  0  0  0  0  0  0  0  0  0  0  0
   57.1520   21.8670   46.3630 C   0  0  0  0  0  0  0  0  0  0  0  0
   57.3880   22.6530   47.4440 N   0  0  0  0  0  0  0  0  0  0  0  0
   57.4630   24.0060   47.3450 C   0  0  0  0  0  0  0  0  0  0  0  0
   57.2880   24.6390   46.1040 C   0  0  0  0  0  0  0  0  0  0  0  0
   57.3580   26.1190   46.0170 C   0  0  0  0  0  0  0  0  0  0  0  0
   58.5560   26.7980   46.2990 C   0  0  0  0  0  0  0  0  0  0  0  0
   58.6180   28.1910   46.2050 C   0  0  0  0  0  0  0  0  0  0  0  0
   57.4880   28.9210   45.8250 C   0  0  0  0  0  0  0  0  0  0  0  0
   57.5570   30.3060   45.7350 O   0  0  0  0  0  0  0  0  0  0  0  0
   56.2920   28.2550   45.5350 C   0  0  0  0  0  0  0  0  0  0  0  0
   55.1650   28.9750   45.1580 O   0  0  0  0  0  0  0  0  0  0  0  0
   56.2270   26.8600   45.6280 C   0  0  0  0  0  0  0  0  0  0  0  0
   57.0540   23.8380   44.9670 C   0  0  0  0  0  0  0  0  0  0  0  0
   56.9240   24.3710   43.8310 O   0  0  0  0  0  0  0  0  0  0  0  0
   56.1330   23.0800   42.2610 H   0  0  0  0  0  0  0  0  0  0  0  0
   57.0924   20.7751   46.4824 H   0  0  0  0  0  0  0  0  0  0  0  0
   57.6621   24.6094   48.2429 H   0  0  0  0  0  0  0  0  0  0  0  0
   59.4499   26.2296   46.5954 H   0  0  0  0  0  0  0  0  0  0  0  0
   59.5587   28.7145   46.4307 H   0  0  0  0  0  0  0  0  0  0  0  0
   55.2860   26.3398   45.3956 H   0  0  0  0  0  0  0  0  0  0  0  0
  1  2  1  0
  2  3  2  0
  2  4  2  0
  2  5  1  0
  5  6  2  0
  6  7  1  0
  7  8  1  0
  8  9  2  0
  9 10  1  0
 10 11  2  0
 11 12  1  0
 12 13  2  0
 13 14  1  0
 13 15  1  0
 15 16  1  0
 15 17  2  0
  9 18  1  0
 18 19  2  0
 18  5  1  0
 17 10  1  0
  1 20  1  0
  6 21  1  0
  8 22  1  0
 11 23  1  0
 12 24  1  0
 17 25  1  0
M  CHG  4   1  -1   7  -1  14  -1  16  -1
M  END
>  <UniqueID>  (19) 
17

>  <SMILES>  (19) 
[NH-]S(=O)(=O)c1c[n-]cc(-c2ccc([O-])c([O-])c2)c1=O

>  <Energy>  (19) 
35.06818892656008

>  <Genealogy>  (19) 
[NH-]S(=O)(=O)c1c[n-]cc(-c2ccc([O-])c([O-])c2)c1=O (protonated)
[NH-]S(=O)(=O)c1c[n-]cc(-c2ccc([O-])c([O-])c2)c1=O (3D coordinates assigned)
[NH-]S(=O)(=O)c1c[n-]cc(-c2ccc([O-])c([O-])c2)c1=O (optimized conformer: 35.06818892656008 kcal/mol)

>  <smiles>  (19) 
NS(=O)(=O)c1c[nH]cc(-c2ccc(O)c(O)c2)c1=O

>  <score_type>  (19) 
oracle

>  <origin>  (19) 
adg

>  <m_score__min__energy>  (19) 
-16.079999999999998

>  <m_primary>  (19) 
energy

$$$$
19:0
     RDKit          3D

 44 47  0  0  0  0  0  0  0  0999 V2000
   60.3910   27.7010   46.6280 C   0  0  0  0  0  0  0  0  0  0  0  0
   59.4220   28.5870   46.3510 C   0  0  0  0  0  0  0  0  0  0  0  0
   58.2560   28.3600   45.6000 C   0  0  0  0  0  0  0  0  0  0  0  0
   57.7040   27.2170   45.1470 C   0  0  0  0  0  0  0  0  0  0  0  0
   57.1820   26.1250   45.9830 C   0  0  0  0  0  0  0  0  0  0  0  0
   57.9280   25.0870   46.3990 N   0  0  0  0  0  0  0  0  0  0  0  0
   57.0300   24.2850   47.0120 C   0  0  0  0  0  0  0  0  0  0  0  0
   57.3540   23.1970   47.5560 O   0  0  0  0  0  0  0  0  0  0  0  0
   55.7560   24.7330   46.9850 N   0  0  0  0  0  0  0  0  0  0  0  0
   55.8670   25.8920   46.3160 C   0  0  0  0  0  0  0  0  0  0  0  0
   54.7860   26.7040   45.9960 O   0  0  0  0  0  0  0  0  0  0  0  0
   57.6920   29.6040   45.3740 C   0  0  0  0  0  0  0  0  0  0  0  0
   58.4730   30.5250   46.0420 C   0  0  0  0  0  0  0  0  0  0  0  0
   58.2060   31.9990   46.0750 C   0  0  0  0  0  0  0  0  0  0  0  0
   59.5220   29.9110   46.6340 N   0  0  0  0  0  0  0  0  0  0  0  0
   60.5590   30.5630   47.3910 C   0  0  0  0  0  0  0  0  0  0  0  0
   60.7250   30.2830   48.7520 C   0  0  0  0  0  0  0  0  0  0  0  0
   61.7350   30.9130   49.4840 C   0  0  0  0  0  0  0  0  0  0  0  0
   62.6030   31.8290   48.8620 C   0  0  0  0  0  0  0  0  0  0  0  0
   63.6670   32.4950   49.6510 C   0  0  0  0  0  0  0  0  0  0  0  0
   63.7420   33.7550   49.6520 O   0  0  0  0  0  0  0  0  0  0  0  0
   64.6060   31.7320   50.4230 N   0  0  0  0  0  0  0  0  0  0  0  0
   65.7250   32.3740   51.1070 C   0  0  0  0  0  0  0  0  0  0  0  0
   66.7030   33.0430   50.1560 C   0  0  0  0  0  0  0  0  0  0  0  0
   67.0700   31.7280   50.8250 C   0  0  0  0  0  0  0  0  0  0  0  0
   62.4230   32.1140   47.4960 C   0  0  0  0  0  0  0  0  0  0  0  0
   61.4110   31.4840   46.7680 C   0  0  0  0  0  0  0  0  0  0  0  0
   61.2590   28.0059   47.2310 H   0  0  0  0  0  0  0  0  0  0  0  0
   60.3173   26.6699   46.2521 H   0  0  0  0  0  0  0  0  0  0  0  0
   57.6380   27.0895   44.0564 H   0  0  0  0  0  0  0  0  0  0  0  0
   56.7935   29.8174   44.7764 H   0  0  0  0  0  0  0  0  0  0  0  0
   58.1447   32.3372   47.1199 H   0  0  0  0  0  0  0  0  0  0  0  0
   59.0224   32.5310   45.5647 H   0  0  0  0  0  0  0  0  0  0  0  0
   57.2549   32.2109   45.5647 H   0  0  0  0  0  0  0  0  0  0  0  0
   60.0571   29.5634   49.2481 H   0  0  0  0  0  0  0  0  0  0  0  0
   61.8523   30.6910   50.5550 H   0  0  0  0  0  0  0  0  0  0  0  0
   64.4160   30.7260   50.6290 H   0  0  0  0  0  0  0  0  0  0  0  0
   65.1833   32.6755   52.0157 H   0  0  0  0  0  0  0  0  0  0  0  0
   66.4897   33.0707   49.0772 H   0  0  0  0  0  0  0  0  0  0  0  0
   67.1666   34.0383   50.0897 H   0  0  0  0  0  0  0  0  0  0  0  0
   67.1225   30.8042   50.2302 H   0  0  0  0  0  0  0  0  0  0  0  0
   67.9095   31.3776   51.4434 H   0  0  0  0  0  0  0  0  0  0  0  0
   63.0841   32.8383   46.9977 H   0  0  0  0  0  0  0  0  0  0  0  0
   61.2824   31.7123   45.6997 H   0  0  0  0  0  0  0  0  0  0  0  0
  1  2  2  0
  2  3  1  0
  3  4  2  3
  4  5  1  0
  5  6  1  0
  6  7  1  0
  7  8  2  0
  7  9  1  0
  9 10  1  0
 10 11  1  0
  3 12  1  0
 12 13  2  0
 13 14  1  0
 13 15  1  0
 15 16  1  0
 16 17  2  0
 17 18  1  0
 18 19  2  0
 19 20  1  0
 20 21  2  0
 20 22  1  0
 22 23  1  0
 23 24  1  0
 24 25  1  0
 19 26  1  0
 26 27  2  0
 15  2  1  0
 27 16  1  0
 10  5  2  0
 25 23  1  0
  1 28  1  0
  1 29  1  0
  4 30  1  0
 12 31  1  0
 14 32  1  0
 14 33  1  0
 14 34  1  0
 17 35  1  0
 18 36  1  0
 22 37  1  0
 23 38  1  0
 24 39  1  0
 24 40  1  0
 25 41  1  0
 25 42  1  0
 26 43  1  0
 27 44  1  0
M  CHG  3   6  -1   9  -1  11  -1
M  END
>  <UniqueID>  (20) 
18

>  <SMILES>  (20) 
C=c1c(=Cc2[n-]c(=O)[n-]c2[O-])cc(C)n1-c1ccc(C(=O)NC2CC2)cc1

>  <Energy>  (20) 
387.75210491297395

>  <Genealogy>  (20) 
C=c1c(=Cc2[n-]c(=O)[n-]c2[O-])cc(C)n1-c1ccc(C(=O)NC2CC2)cc1 (protonated)
C=c1c(=Cc2[n-]c(=O)[n-]c2[O-])cc(C)n1-c1ccc(C(=O)NC2CC2)cc1 (3D coordinates assigned)
C=c1c(=Cc2[n-]c(=O)[n-]c2[O-])cc(C)n1-c1ccc(C(=O)NC2CC2)cc1 (nonaromatic ring conformer: 387.75210491297395 kcal/mol)

>  <smiles>  (20) 
C=c1c(=Cc2[nH]c(=O)[nH]c2O)cc(C)n1-c1ccc(C(=O)NC2CC2)cc1

>  <score_type>  (20) 
oracle

>  <origin>  (20) 
adg

>  <m_score__min__energy>  (20) 
-15.27

>  <m_primary>  (20) 
energy

$$$$
20:0
     RDKit          3D

 38 40  0  0  0  0  0  0  0  0999 V2000
   57.9930   33.4820   46.6340 O   0  0  0  0  0  0  0  0  0  0  0  0
   58.7070   34.0690   45.7790 C   0  0  0  0  0  0  0  0  0  0  0  0
   59.7960   35.0100   46.2350 C   0  0  0  0  0  0  0  0  0  0  0  0
   60.8690   34.3100   47.0350 C   0  0  0  0  0  0  0  0  0  0  0  0
   60.7300   34.1430   48.4250 C   0  0  0  0  0  0  0  0  0  0  0  0
   61.7260   33.4940   49.1620 C   0  0  0  0  0  0  0  0  0  0  0  0
   62.8750   33.0210   48.5240 C   0  0  0  0  0  0  0  0  0  0  0  0
   64.1220   32.2070   49.4500 Cl  0  0  0  0  0  0  0  0  0  0  0  0
   63.0330   33.2030   47.1460 C   0  0  0  0  0  0  0  0  0  0  0  0
   62.0380   33.8470   46.4060 C   0  0  0  0  0  0  0  0  0  0  0  0
   58.5880   33.6950   44.4010 N   0  0  0  0  0  0  0  0  0  0  0  0
   57.9830   32.6320   43.9610 C   0  0  0  0  0  0  0  0  0  0  0  0
   57.4650   31.6610   44.7460 N   0  0  0  0  0  0  0  0  0  0  0  0
   56.8760   30.6700   44.0210 C   0  0  0  0  0  0  0  0  0  0  0  0
   56.2000   29.5300   44.6630 C   0  0  0  0  0  0  0  0  0  0  0  0
   54.9760   29.3160   44.4460 O   0  0  0  0  0  0  0  0  0  0  0  0
   56.9370   28.6760   45.5450 N   0  0  0  0  0  0  0  0  0  0  0  0
   58.3710   28.4470   45.4380 C   0  0  0  0  0  0  0  0  0  0  0  0
   59.1070   29.4640   46.2470 C   0  0  0  0  0  0  0  0  0  0  0  0
   60.4720   29.6670   46.2500 C   0  0  0  0  0  0  0  0  0  0  0  0
   60.6950   30.6740   47.1630 C   0  0  0  0  0  0  0  0  0  0  0  0
   59.4540   31.0200   47.6620 C   0  0  0  0  0  0  0  0  0  0  0  0
   58.5290   30.2800   47.0980 O   0  0  0  0  0  0  0  0  0  0  0  0
   56.9490   30.8440   42.6380 C   0  0  0  0  0  0  0  0  0  0  0  0
   57.7760   32.2810   42.3330 S   0  0  0  0  0  0  0  0  0  0  0  0
   60.2594   35.4687   45.3491 H   0  0  0  0  0  0  0  0  0  0  0  0
   59.3330   35.7655   46.8868 H   0  0  0  0  0  0  0  0  0  0  0  0
   59.8332   34.5249   48.9349 H   0  0  0  0  0  0  0  0  0  0  0  0
   61.6042   33.3558   50.2465 H   0  0  0  0  0  0  0  0  0  0  0  0
   63.9417   32.8387   46.6444 H   0  0  0  0  0  0  0  0  0  0  0  0
   62.1702   33.9927   45.3237 H   0  0  0  0  0  0  0  0  0  0  0  0
   57.5420   31.6440   45.7850 H   0  0  0  0  0  0  0  0  0  0  0  0
   58.6091   27.4405   45.8124 H   0  0  0  0  0  0  0  0  0  0  0  0
   58.6749   28.5317   44.3842 H   0  0  0  0  0  0  0  0  0  0  0  0
   61.2246   29.1357   45.6489 H   0  0  0  0  0  0  0  0  0  0  0  0
   61.6648   31.1137   47.4389 H   0  0  0  0  0  0  0  0  0  0  0  0
   59.2695   31.7979   48.4175 H   0  0  0  0  0  0  0  0  0  0  0  0
   56.5383   30.1620   41.8790 H   0  0  0  0  0  0  0  0  0  0  0  0
  1  2  2  0
  2  3  1  0
  3  4  1  0
  4  5  2  0
  5  6  1  0
  6  7  2  0
  7  8  1  0
  7  9  1  0
  9 10  2  0
  2 11  1  0
 11 12  2  3
 12 13  1  0
 13 14  1  0
 14 15  1  0
 15 16  2  0
 15 17  1  0
 17 18  1  0
 18 19  1  0
 19 20  2  0
 20 21  1  0
 21 22  2  0
 22 23  1  0
 14 24  2  0
 24 25  1  0
 10  4  1  0
 25 12  1  0
 23 19  1  0
  3 26  1  0
  3 27  1  0
  5 28  1  0
  6 29  1  0
  9 30  1  0
 10 31  1  0
 13 32  1  0
 18 33  1  0
 18 34  1  0
 20 35  1  0
 21 36  1  0
 22 37  1  0
 24 38  1  0
M  CHG  1  17  -1
M  END
>  <UniqueID>  (21) 
19

>  <SMILES>  (21) 
O=C(Cc1ccc(Cl)cc1)N=c1[nH]c(C(=O)[N-]Cc2ccco2)cs1

>  <Energy>  (21) 
97.75758971824224

>  <Genealogy>  (21) 
O=C(Cc1ccc(Cl)cc1)N=c1[nH]c(C(=O)[N-]Cc2ccco2)cs1 (protonated)
O=C(Cc1ccc(Cl)cc1)N=c1[nH]c(C(=O)[N-]Cc2ccco2)cs1 (3D coordinates assigned)
O=C(Cc1ccc(Cl)cc1)N=c1[nH]c(C(=O)[N-]Cc2ccco2)cs1 (optimized conformer: 97.75758971824224 kcal/mol)

>  <smiles>  (21) 
O=C(Cc1ccc(Cl)cc1)N=c1[nH]c(C(=O)NCc2ccco2)cs1

>  <score_type>  (21) 
oracle

>  <origin>  (21) 
adg

>  <m_score__min__energy>  (21) 
-10.890000000000001

>  <m_primary>  (21) 
energy

$$$$
21:0
     RDKit          3D

 47 49  0  0  0  0  0  0  0  0999 V2000
   63.0930   33.0740   47.0030 C   0  0  0  0  0  0  0  0  0  0  0  0
   61.7940   32.5410   47.2480 O   0  0  0  0  0  0  0  0  0  0  0  0
   60.5980   33.0620   46.7130 C   0  0  0  0  0  0  0  0  0  0  0  0
   60.4550   34.4330   46.4090 C   0  0  0  0  0  0  0  0  0  0  0  0
   59.2490   34.9220   45.8930 C   0  0  0  0  0  0  0  0  0  0  0  0
   58.1790   34.0540   45.6650 C   0  0  0  0  0  0  0  0  0  0  0  0
   58.3070   32.6940   45.9680 C   0  0  0  0  0  0  0  0  0  0  0  0
   59.5110   32.1880   46.4900 C   0  0  0  0  0  0  0  0  0  0  0  0
   59.5980   30.7250   46.8600 C   0  0  0  0  0  0  0  0  0  0  0  0
   59.0180   30.5170   48.2270 C   0  0  0  0  0  0  0  0  0  0  0  0
   58.7470   29.3470   48.6260 O   0  0  0  0  0  0  0  0  0  0  0  0
   58.8870   31.6340   49.1140 N   0  0  0  0  0  0  0  0  0  0  0  0
   59.2520   31.4690   50.7990 S   0  0  0  0  0  0  0  0  0  0  0  0
   59.7040   32.7960   51.3500 O   0  0  0  0  0  0  0  0  0  0  0  0
   60.3430   30.4460   50.9840 O   0  0  0  0  0  0  0  0  0  0  0  0
   57.8000   30.9040   51.6170 C   0  0  0  0  0  0  0  0  0  0  0  0
   56.6750   31.7280   51.7490 C   0  0  0  0  0  0  0  0  0  0  0  0
   55.5200   31.2410   52.3690 C   0  0  0  0  0  0  0  0  0  0  0  0
   55.4770   29.9250   52.8690 C   0  0  0  0  0  0  0  0  0  0  0  0
   54.2530   29.4100   53.5340 C   0  0  0  0  0  0  0  0  0  0  0  0
   54.1230   28.1690   53.7340 O   0  0  0  0  0  0  0  0  0  0  0  0
   53.1920   30.3250   53.8750 N   0  0  0  0  0  0  0  0  0  0  0  0
   52.3790   30.9940   53.0980 C   0  0  0  0  0  0  0  0  0  0  0  0
   52.5300   30.8490   51.7110 C   0  0  0  0  0  0  0  0  0  0  0  0
   51.6660   31.5220   50.8440 C   0  0  0  0  0  0  0  0  0  0  0  0
   50.6900   32.3320   51.3400 N   0  0  0  0  0  0  0  0  0  0  0  0
   50.5340   32.5210   52.6750 C   0  0  0  0  0  0  0  0  0  0  0  0
   51.3730   31.8640   53.5820 C   0  0  0  0  0  0  0  0  0  0  0  0
   56.6130   29.1080   52.7290 C   0  0  0  0  0  0  0  0  0  0  0  0
   57.7590   29.5910   52.1010 C   0  0  0  0  0  0  0  0  0  0  0  0
   63.5921   33.2788   47.9616 H   0  0  0  0  0  0  0  0  0  0  0  0
   63.6856   32.3464   46.4291 H   0  0  0  0  0  0  0  0  0  0  0  0
   63.0038   34.0082   46.4291 H   0  0  0  0  0  0  0  0  0  0  0  0
   61.2962   35.1212   46.5786 H   0  0  0  0  0  0  0  0  0  0  0  0
   59.1439   35.9933   45.6664 H   0  0  0  0  0  0  0  0  0  0  0  0
   57.2368   34.4390   45.2478 H   0  0  0  0  0  0  0  0  0  0  0  0
   57.4588   32.0149   45.7965 H   0  0  0  0  0  0  0  0  0  0  0  0
   59.0340   30.1281   46.1282 H   0  0  0  0  0  0  0  0  0  0  0  0
   60.6518   30.4096   46.8582 H   0  0  0  0  0  0  0  0  0  0  0  0
   56.7001   32.7584   51.3649 H   0  0  0  0  0  0  0  0  0  0  0  0
   54.6380   31.8909   52.4670 H   0  0  0  0  0  0  0  0  0  0  0  0
   53.3267   30.2070   51.3071 H   0  0  0  0  0  0  0  0  0  0  0  0
   51.7743   31.3973   49.7565 H   0  0  0  0  0  0  0  0  0  0  0  0
   49.7455   33.1928   53.0451 H   0  0  0  0  0  0  0  0  0  0  0  0
   51.2515   32.0226   54.6637 H   0  0  0  0  0  0  0  0  0  0  0  0
   56.5966   28.0794   53.1184 H   0  0  0  0  0  0  0  0  0  0  0  0
   58.6361   28.9374   51.9849 H   0  0  0  0  0  0  0  0  0  0  0  0
  1  2  1  0
  2  3  1  0
  3  4  2  0
  4  5  1  0
  5  6  2  0
  6  7  1  0
  7  8  2  0
  8  9  1  0
  9 10  1  0
 10 11  2  0
 10 12  1  0
 12 13  1  0
 13 14  2  0
 13 15  2  0
 13 16  1  0
 16 17  2  0
 17 18  1  0
 18 19  2  0
 19 20  1  0
 20 21  2  0
 20 22  1  0
 22 23  2  3
 23 24  1  0
 24 25  2  0
 25 26  1  0
 26 27  1  0
 27 28  2  0
 19 29  1  0
 29 30  2  0
  8  3  1  0
 30 16  1  0
 28 23  1  0
  1 31  1  0
  1 32  1  0
  1 33  1  0
  4 34  1  0
  5 35  1  0
  6 36  1  0
  7 37  1  0
  9 38  1  0
  9 39  1  0
 17 40  1  0
 18 41  1  0
 24 42  1  0
 25 43  1  0
 27 44  1  0
 28 45  1  0
 29 46  1  0
 30 47  1  0
M  CHG  2  12  -1  26  -1
M  END
>  <UniqueID>  (22) 
20

>  <SMILES>  (22) 
COc1ccccc1CC(=O)[N-]S(=O)(=O)c1ccc(C(=O)N=c2cc[n-]cc2)cc1

>  <Energy>  (22) 
57.24095093724029

>  <Genealogy>  (22) 
COc1ccccc1CC(=O)[N-]S(=O)(=O)c1ccc(C(=O)N=c2cc[n-]cc2)cc1 (protonated)
COc1ccccc1CC(=O)[N-]S(=O)(=O)c1ccc(C(=O)N=c2cc[n-]cc2)cc1 (3D coordinates assigned)
COc1ccccc1CC(=O)[N-]S(=O)(=O)c1ccc(C(=O)N=c2cc[n-]cc2)cc1 (optimized conformer: 57.24095093724029 kcal/mol)

>  <smiles>  (22) 
COc1ccccc1CC(=O)NS(=O)(=O)c1ccc(C(=O)N=c2cc[nH]cc2)cc1

>  <score_type>  (22) 
oracle

>  <origin>  (22) 
adg

>  <m_score__min__energy>  (22) 
-11.630000000000001

>  <m_primary>  (22) 
energy

$$$$
22:0
     RDKit          3D

 39 42  0  0  0  0  0  0  0  0999 V2000
   54.0370   26.3320   46.3920 H   0  0  0  0  0  0  0  0  0  0  0  0
   54.9470   26.4440   45.9630 O   0  0  0  0  0  0  0  0  0  0  0  0
   55.9660   25.5140   46.1560 C   0  0  0  0  0  0  0  0  0  0  0  0
   55.8410   24.5120   47.0670 N   0  0  0  0  0  0  0  0  0  0  0  0
   56.9520   23.7490   47.1070 C   0  0  0  0  0  0  0  0  0  0  0  0
   57.0780   22.7610   47.8760 O   0  0  0  0  0  0  0  0  0  0  0  0
   58.1360   24.2720   46.0360 S   0  0  0  0  0  0  0  0  0  0  0  0
   57.1690   25.5250   45.4490 C   0  0  0  0  0  0  0  0  0  0  0  0
   57.6180   26.5830   44.5320 C   0  0  0  0  0  0  0  0  0  0  0  0
   57.6735   26.3326   43.4623 H   0  0  0  0  0  0  0  0  0  0  0  0
   57.9670   27.8330   44.8920 C   0  0  0  0  0  0  0  0  0  0  0  0
   57.4500   28.9630   44.2790 C   0  0  0  0  0  0  0  0  0  0  0  0
   56.7630   28.9865   43.4203 H   0  0  0  0  0  0  0  0  0  0  0  0
   57.9620   30.0530   44.9520 C   0  0  0  0  0  0  0  0  0  0  0  0
   57.6430   31.4800   44.6230 C   0  0  0  0  0  0  0  0  0  0  0  0
   57.5153   32.0513   45.5543 H   0  0  0  0  0  0  0  0  0  0  0  0
   58.4663   31.9140   44.0366 H   0  0  0  0  0  0  0  0  0  0  0  0
   56.7133   31.5221   44.0366 H   0  0  0  0  0  0  0  0  0  0  0  0
   58.8090   29.6500   45.9250 N   0  0  0  0  0  0  0  0  0  0  0  0
   59.5500   30.5140   46.8060 C   0  0  0  0  0  0  0  0  0  0  0  0
   58.8750   31.3320   47.7220 C   0  0  0  0  0  0  0  0  0  0  0  0
   57.7763   31.3088   47.7698 H   0  0  0  0  0  0  0  0  0  0  0  0
   59.5900   32.1770   48.5750 C   0  0  0  0  0  0  0  0  0  0  0  0
   59.0511   32.8158   49.2902 H   0  0  0  0  0  0  0  0  0  0  0  0
   60.9950   32.2150   48.5240 C   0  0  0  0  0  0  0  0  0  0  0  0
   61.7530   33.1090   49.4270 C   0  0  0  0  0  0  0  0  0  0  0  0
   61.7100   33.0330   50.7700 N   0  0  0  0  0  0  0  0  0  0  0  0
   62.5080   33.9800   51.2290 N   0  0  0  0  0  0  0  0  0  0  0  0
   63.0180   34.6130   50.1580 C   0  0  0  0  0  0  0  0  0  0  0  0
   63.7209   35.4567   50.2215 H   0  0  0  0  0  0  0  0  0  0  0  0
   62.5690   34.0950   48.9980 N   0  0  0  0  0  0  0  0  0  0  0  0
   61.6680   31.3920   47.6050 C   0  0  0  0  0  0  0  0  0  0  0  0
   62.7668   31.4116   47.5568 H   0  0  0  0  0  0  0  0  0  0  0  0
   60.9510   30.5490   46.7520 C   0  0  0  0  0  0  0  0  0  0  0  0
   61.4876   29.9101   46.0351 H   0  0  0  0  0  0  0  0  0  0  0  0
   58.8470   28.2930   45.8850 C   0  0  0  0  0  0  0  0  0  0  0  0
   59.7240   27.5600   46.5890 C   0  0  0  0  0  0  0  0  0  0  0  0
   60.3620   28.0418   47.3445 H   0  0  0  0  0  0  0  0  0  0  0  0
   59.8046   26.4776   46.4104 H   0  0  0  0  0  0  0  0  0  0  0  0
  1  2  1  0
  2  3  1  0
  3  4  1  0
  4  5  1  0
  5  6  2  0
  5  7  1  0
  7  8  1  0
  8  9  1  0
  9 10  1  0
  9 11  2  0
 11 12  1  0
 12 13  1  0
 12 14  2  0
 14 15  1  0
 15 16  1  0
 15 17  1  0
 15 18  1  0
 14 19  1  0
 19 20  1  0
 20 21  2  0
 21 22  1  0
 21 23  1  0
 23 24  1  0
 23 25  2  0
 25 26  1  0
 26 27  2  0
 27 28  1  0
 28 29  1  0
 29 30  1  0
 29 31  2  0
 25 32  1  0
 32 33  1  0
 32 34  2  0
 34 35  1  0
 19 36  1  0
 36 37  2  0
 37 38  1  0
 37 39  1  0
  8  3  2  0
 36 11  1  0
 34 20  1  0
 31 26  1  0
M  CHG  2   4  -1  28  -1
M  END
>  <UniqueID>  (23) 
21

>  <SMILES>  (23) 
C=c1/c(=C\c2sc(=O)[n-]c2O)cc(C)n1-c1ccc(-c2nc[n-]n2)cc1

>  <Energy>  (23) 
152.35182213230823

>  <Genealogy>  (23) 
C=c1c(=Cc2sc(=O)[n-]c2O)cc(C)n1-c1ccc(-c2nc[n-]n2)cc1 (protonated)
C=c1/c(=C\c2sc(=O)[n-]c2O)cc(C)n1-c1ccc(-c2nc[n-]n2)cc1 (cis-trans isomerization)
C=c1/c(=C\c2sc(=O)[n-]c2O)cc(C)n1-c1ccc(-c2nc[n-]n2)cc1 (3D coordinates assigned)
C=c1/c(=C\c2sc(=O)[n-]c2O)cc(C)n1-c1ccc(-c2nc[n-]n2)cc1 (optimized conformer: 152.35182213230823 kcal/mol)

>  <smiles>  (23) 
C=c1c(=Cc2sc(=O)[nH]c2O)cc(C)n1-c1ccc(-c2nc[nH]n2)cc1

>  <score_type>  (23) 
oracle

>  <origin>  (23) 
adg

>  <m_score__min__energy>  (23) 
-11.74

>  <m_primary>  (23) 
energy

$$$$
23:0
     RDKit          3D

 40 42  0  0  0  0  0  0  0  0999 V2000
   55.5600   23.7840   46.4700 C   0  0  0  0  0  0  0  0  0  0  0  0
   56.3050   24.7350   47.2220 O   0  0  0  0  0  0  0  0  0  0  0  0
   56.9350   25.8380   46.6350 C   0  0  0  0  0  0  0  0  0  0  0  0
   58.2900   25.9580   46.6630 N   0  0  0  0  0  0  0  0  0  0  0  0
   58.9260   27.0230   46.1110 C   0  0  0  0  0  0  0  0  0  0  0  0
   58.1930   28.0350   45.4890 C   0  0  0  0  0  0  0  0  0  0  0  0
   56.7870   27.9370   45.4220 C   0  0  0  0  0  0  0  0  0  0  0  0
   56.0330   28.8450   44.8600 N   0  0  0  0  0  0  0  0  0  0  0  0
   56.3300   29.7230   43.7620 C   0  0  0  0  0  0  0  0  0  0  0  0
   55.9690   29.4460   42.5860 O   0  0  0  0  0  0  0  0  0  0  0  0
   56.9820   31.0080   44.0360 C   0  0  0  0  0  0  0  0  0  0  0  0
   57.7800   31.7220   43.1600 C   0  0  0  0  0  0  0  0  0  0  0  0
   58.1660   32.8550   43.8430 C   0  0  0  0  0  0  0  0  0  0  0  0
   57.5810   32.7570   45.0910 C   0  0  0  0  0  0  0  0  0  0  0  0
   57.6700   33.7740   46.1810 C   0  0  0  0  0  0  0  0  0  0  0  0
   59.2690   34.5640   46.1480 S   0  0  0  0  0  0  0  0  0  0  0  0
   59.5460   35.0900   44.7670 O   0  0  0  0  0  0  0  0  0  0  0  0
   59.2750   35.7160   47.1140 O   0  0  0  0  0  0  0  0  0  0  0  0
   60.5110   33.4120   46.6100 C   0  0  0  0  0  0  0  0  0  0  0  0
   61.8440   33.8220   46.7550 C   0  0  0  0  0  0  0  0  0  0  0  0
   62.8150   32.8770   47.0920 C   0  0  0  0  0  0  0  0  0  0  0  0
   62.4500   31.5420   47.2780 C   0  0  0  0  0  0  0  0  0  0  0  0
   61.1120   31.1710   47.1210 C   0  0  0  0  0  0  0  0  0  0  0  0
   60.1820   32.1050   46.7900 N   0  0  0  0  0  0  0  0  0  0  0  0
   56.8800   31.6490   45.1780 O   0  0  0  0  0  0  0  0  0  0  0  0
   56.1620   26.8290   46.0190 C   0  0  0  0  0  0  0  0  0  0  0  0
   54.7760   26.7070   45.9980 O   0  0  0  0  0  0  0  0  0  0  0  0
   55.0301   23.1075   47.1567 H   0  0  0  0  0  0  0  0  0  0  0  0
   54.8300   24.3085   45.8360 H   0  0  0  0  0  0  0  0  0  0  0  0
   56.2441   23.2008   45.8360 H   0  0  0  0  0  0  0  0  0  0  0  0
   60.0232   27.0886   46.1541 H   0  0  0  0  0  0  0  0  0  0  0  0
   58.7084   28.9038   45.0536 H   0  0  0  0  0  0  0  0  0  0  0  0
   58.0505   31.4430   42.1309 H   0  0  0  0  0  0  0  0  0  0  0  0
   58.8067   33.6684   43.4718 H   0  0  0  0  0  0  0  0  0  0  0  0
   56.8860   34.5320   46.0370 H   0  0  0  0  0  0  0  0  0  0  0  0
   57.5330   33.2759   47.1521 H   0  0  0  0  0  0  0  0  0  0  0  0
   62.1215   34.8758   46.6050 H   0  0  0  0  0  0  0  0  0  0  0  0
   63.8648   33.1833   47.2107 H   0  0  0  0  0  0  0  0  0  0  0  0
   63.2076   30.7906   47.5452 H   0  0  0  0  0  0  0  0  0  0  0  0
   60.8114   30.1228   47.2653 H   0  0  0  0  0  0  0  0  0  0  0  0
  1  2  1  0
  2  3  1  0
  3  4  1  0
  4  5  1  0
  5  6  2  0
  6  7  1  0
  7  8  2  3
  8  9  1  0
  9 10  2  0
  9 11  1  0
 11 12  2  0
 12 13  1  0
 13 14  2  0
 14 15  1  0
 15 16  1  0
 16 17  2  0
 16 18  2  0
 16 19  1  0
 19 20  2  0
 20 21  1  0
 21 22  2  0
 22 23  1  0
 23 24  2  0
 14 25  1  0
  7 26  1  0
 26 27  1  0
 26  3  2  0
 25 11  1  0
 24 19  1  0
  1 28  1  0
  1 29  1  0
  1 30  1  0
  5 31  1  0
  6 32  1  0
 12 33  1  0
 13 34  1  0
 15 35  1  0
 15 36  1  0
 20 37  1  0
 21 38  1  0
 22 39  1  0
 23 40  1  0
M  CHG  2   4  -1  27  -1
M  END
>  <UniqueID>  (24) 
22

>  <SMILES>  (24) 
COc1[n-]ccc(=NC(=O)c2ccc(CS(=O)(=O)c3ccccn3)o2)c1[O-]

>  <Energy>  (24) 
69.96697302782252

>  <Genealogy>  (24) 
COc1[n-]ccc(=NC(=O)c2ccc(CS(=O)(=O)c3ccccn3)o2)c1[O-] (protonated)
COc1[n-]ccc(=NC(=O)c2ccc(CS(=O)(=O)c3ccccn3)o2)c1[O-] (3D coordinates assigned)
COc1[n-]ccc(=NC(=O)c2ccc(CS(=O)(=O)c3ccccn3)o2)c1[O-] (optimized conformer: 69.96697302782252 kcal/mol)

>  <smiles>  (24) 
COc1[nH]ccc(=NC(=O)c2ccc(CS(=O)(=O)c3ccccn3)o2)c1O

>  <score_type>  (24) 
oracle

>  <origin>  (24) 
adg

>  <m_score__min__energy>  (24) 
-14.48

>  <m_primary>  (24) 
energy

$$$$
24:0
     RDKit          3D

 54 56  0  0  0  0  0  0  0  0999 V2000
   64.9350   31.9540   49.6570 C   0  0  0  0  0  0  0  0  0  0  0  0
   63.6160   32.5840   49.4990 N   0  0  0  0  0  0  0  0  0  0  0  0
   63.4550   33.0980   48.1230 C   0  0  0  0  0  0  0  0  0  0  0  0
   62.2040   33.9910   47.9930 C   0  0  0  0  0  0  0  0  0  0  0  0
   61.3210   33.8180   49.1640 N   0  0  0  0  0  0  0  0  0  0  0  0
   60.0590   34.5670   48.9980 C   0  0  0  0  0  0  0  0  0  0  0  0
   59.3900   34.1910   47.7020 C   0  0  0  0  0  0  0  0  0  0  0  0
   59.6450   34.9180   46.5290 C   0  0  0  0  0  0  0  0  0  0  0  0
   59.0310   34.5540   45.3270 C   0  0  0  0  0  0  0  0  0  0  0  0
   58.1560   33.4550   45.2790 C   0  0  0  0  0  0  0  0  0  0  0  0
   57.4850   33.1080   44.0480 N   0  0  0  0  0  0  0  0  0  0  0  0
   58.1440   31.9740   43.3780 C   0  0  0  0  0  0  0  0  0  0  0  0
   57.8050   30.6590   44.0390 C   0  0  0  0  0  0  0  0  0  0  0  0
   58.8280   29.8080   44.4830 C   0  0  0  0  0  0  0  0  0  0  0  0
   58.5180   28.5640   45.0410 C   0  0  0  0  0  0  0  0  0  0  0  0
   57.1830   28.1580   45.1620 C   0  0  0  0  0  0  0  0  0  0  0  0
   56.7940   26.5790   45.8340 S   0  0  0  0  0  0  0  0  0  0  0  0
   57.3950   25.3110   44.7410 C   0  0  0  0  0  0  0  0  0  0  0  0
   55.3040   26.4460   45.9900 O   0  0  0  0  0  0  0  0  0  0  0  0
   57.4360   26.4260   47.1850 O   0  0  0  0  0  0  0  0  0  0  0  0
   56.1600   29.0020   44.7100 C   0  0  0  0  0  0  0  0  0  0  0  0
   56.4680   30.2460   44.1520 C   0  0  0  0  0  0  0  0  0  0  0  0
   57.9020   32.7310   46.4560 C   0  0  0  0  0  0  0  0  0  0  0  0
   58.5180   33.0930   47.6570 C   0  0  0  0  0  0  0  0  0  0  0  0
   62.0180   34.2520   50.3940 C   0  0  0  0  0  0  0  0  0  0  0  0
   63.4460   33.6730   50.4780 C   0  0  0  0  0  0  0  0  0  0  0  0
   65.1634   31.8449   50.7275 H   0  0  0  0  0  0  0  0  0  0  0  0
   64.9271   30.9624   49.1809 H   0  0  0  0  0  0  0  0  0  0  0  0
   65.7013   32.5833   49.1809 H   0  0  0  0  0  0  0  0  0  0  0  0
   64.3441   33.6881   47.8561 H   0  0  0  0  0  0  0  0  0  0  0  0
   63.3361   32.2388   47.4466 H   0  0  0  0  0  0  0  0  0  0  0  0
   62.5160   35.0438   47.9273 H   0  0  0  0  0  0  0  0  0  0  0  0
   61.6529   33.7015   47.0861 H   0  0  0  0  0  0  0  0  0  0  0  0
   59.3853   34.3314   49.8350 H   0  0  0  0  0  0  0  0  0  0  0  0
   60.2832   35.6438   48.9837 H   0  0  0  0  0  0  0  0  0  0  0  0
   60.3307   35.7777   46.5555 H   0  0  0  0  0  0  0  0  0  0  0  0
   59.2339   35.1313   44.4129 H   0  0  0  0  0  0  0  0  0  0  0  0
   56.4790   32.8800   44.2290 H   0  0  0  0  0  0  0  0  0  0  0  0
   57.5030   33.9330   43.4040 H   0  0  0  0  0  0  0  0  0  0  0  0
   57.8155   31.9404   42.3287 H   0  0  0  0  0  0  0  0  0  0  0  0
   59.2319   32.1211   43.4467 H   0  0  0  0  0  0  0  0  0  0  0  0
   59.8787   30.1207   44.3918 H   0  0  0  0  0  0  0  0  0  0  0  0
   59.3256   27.9017   45.3862 H   0  0  0  0  0  0  0  0  0  0  0  0
   57.7918   24.4737   45.3339 H   0  0  0  0  0  0  0  0  0  0  0  0
   56.5708   24.9529   44.1066 H   0  0  0  0  0  0  0  0  0  0  0  0
   58.1940   25.7222   44.1066 H   0  0  0  0  0  0  0  0  0  0  0  0
   55.1103   28.6843   44.7946 H   0  0  0  0  0  0  0  0  0  0  0  0
   55.6597   30.9039   43.8001 H   0  0  0  0  0  0  0  0  0  0  0  0
   57.2136   31.8734   46.4320 H   0  0  0  0  0  0  0  0  0  0  0  0
   58.3183   32.5145   48.5710 H   0  0  0  0  0  0  0  0  0  0  0  0
   62.0781   35.3503   50.4005 H   0  0  0  0  0  0  0  0  0  0  0  0
   61.4476   33.8822   51.2588 H   0  0  0  0  0  0  0  0  0  0  0  0
   64.1736   34.4698   50.2642 H   0  0  0  0  0  0  0  0  0  0  0  0
   63.6106   33.2732   51.4895 H   0  0  0  0  0  0  0  0  0  0  0  0
  1  2  1  0
  2  3  1  0
  3  4  1  0
  4  5  1  0
  5  6  1  0
  6  7  1  0
  7  8  2  0
  8  9  1  0
  9 10  2  0
 10 11  1  0
 11 12  1  0
 12 13  1  0
 13 14  2  0
 14 15  1  0
 15 16  2  0
 16 17  1  0
 17 18  1  0
 17 19  2  0
 17 20  2  0
 16 21  1  0
 21 22  2  0
 10 23  1  0
 23 24  2  0
  5 25  1  0
 25 26  1  0
 26  2  1  0
 24  7  1  0
 22 13  1  0
  1 27  1  0
  1 28  1  0
  1 29  1  0
  3 30  1  0
  3 31  1  0
  4 32  1  0
  4 33  1  0
  6 34  1  0
  6 35  1  0
  8 36  1  0
  9 37  1  0
 11 38  1  0
 11 39  1  0
 12 40  1  0
 12 41  1  0
 14 42  1  0
 15 43  1  0
 18 44  1  0
 18 45  1  0
 18 46  1  0
 21 47  1  0
 22 48  1  0
 23 49  1  0
 24 50  1  0
 25 51  1  0
 25 52  1  0
 26 53  1  0
 26 54  1  0
M  CHG  1  11   1
M  END
>  <UniqueID>  (25) 
23

>  <SMILES>  (25) 
CN1CCN(Cc2ccc([NH2+]Cc3ccc(S(C)(=O)=O)cc3)cc2)CC1

>  <Energy>  (25) 
58.889330053293705

>  <Genealogy>  (25) 
CN1CCN(Cc2ccc([NH2+]Cc3ccc(S(C)(=O)=O)cc3)cc2)CC1 (protonated)
CN1CCN(Cc2ccc([NH2+]Cc3ccc(S(C)(=O)=O)cc3)cc2)CC1 (3D coordinates assigned)
CN1CCN(Cc2ccc([NH2+]Cc3ccc(S(C)(=O)=O)cc3)cc2)CC1 (nonaromatic ring conformer: 58.889330053293705 kcal/mol)

>  <smiles>  (25) 
CN1CCN(Cc2ccc(NCc3ccc(S(C)(=O)=O)cc3)cc2)CC1

>  <score_type>  (25) 
oracle

>  <origin>  (25) 
adg

>  <m_score__min__energy>  (25) 
-7.4000000000000004

>  <m_primary>  (25) 
energy

$$$$
25:0
     RDKit          3D

 50 53  0  0  0  0  0  0  0  0999 V2000
   56.2810   29.3610   42.7120 S   0  0  0  0  0  0  0  0  0  0  0  0
   57.2190   29.7970   43.9850 C   0  0  0  0  0  0  0  0  0  0  0  0
   57.6160   31.2110   44.1220 C   0  0  0  0  0  0  0  0  0  0  0  0
   58.1190   31.9750   43.1340 N   0  0  0  0  0  0  0  0  0  0  0  0
   58.3640   33.1720   43.6410 N   0  0  0  0  0  0  0  0  0  0  0  0
   58.0020   33.0920   44.9360 C   0  0  0  0  0  0  0  0  0  0  0  0
   58.0750   34.2320   45.8980 C   0  0  0  0  0  0  0  0  0  0  0  0
   59.3330   34.1310   46.7150 C   0  0  0  0  0  0  0  0  0  0  0  0
   59.2830   34.2650   48.1120 C   0  0  0  0  0  0  0  0  0  0  0  0
   60.4490   34.1370   48.8740 C   0  0  0  0  0  0  0  0  0  0  0  0
   61.6700   33.8660   48.2470 C   0  0  0  0  0  0  0  0  0  0  0  0
   63.2610   33.6910   49.2890 Br  0  0  0  0  0  0  0  0  0  0  0  0
   61.7230   33.7170   46.8570 C   0  0  0  0  0  0  0  0  0  0  0  0
   60.5590   33.8440   46.0930 C   0  0  0  0  0  0  0  0  0  0  0  0
   57.5430   31.8980   45.2380 O   0  0  0  0  0  0  0  0  0  0  0  0
   57.6780   28.8000   44.9180 N   0  0  0  0  0  0  0  0  0  0  0  0
   56.7660   27.7370   45.3620 C   0  0  0  0  0  0  0  0  0  0  0  0
   57.3600   26.9740   46.5550 C   0  0  0  0  0  0  0  0  0  0  0  0
   58.7340   26.4800   46.2940 N   0  0  0  0  0  0  0  0  0  0  0  0
   58.8350   25.0220   46.0590 C   0  0  0  0  0  0  0  0  0  0  0  0
   57.6170   24.4250   45.3820 C   0  0  0  0  0  0  0  0  0  0  0  0
   56.6010   23.8210   46.1470 C   0  0  0  0  0  0  0  0  0  0  0  0
   55.4820   23.2640   45.5230 C   0  0  0  0  0  0  0  0  0  0  0  0
   55.3530   23.3190   44.1330 C   0  0  0  0  0  0  0  0  0  0  0  0
   56.3410   23.9430   43.3660 C   0  0  0  0  0  0  0  0  0  0  0  0
   57.4630   24.5010   43.9860 C   0  0  0  0  0  0  0  0  0  0  0  0
   59.5500   27.2970   45.3630 C   0  0  0  0  0  0  0  0  0  0  0  0
   59.0870   28.7540   45.3270 C   0  0  0  0  0  0  0  0  0  0  0  0
   58.3210   31.6980   42.1500 H   0  0  0  0  0  0  0  0  0  0  0  0
   58.0770   35.1803   45.3406 H   0  0  0  0  0  0  0  0  0  0  0  0
   57.2035   34.1971   46.5683 H   0  0  0  0  0  0  0  0  0  0  0  0
   58.3235   34.4713   48.6088 H   0  0  0  0  0  0  0  0  0  0  0  0
   60.4059   34.2495   49.9674 H   0  0  0  0  0  0  0  0  0  0  0  0
   62.6821   33.4995   46.3643 H   0  0  0  0  0  0  0  0  0  0  0  0
   60.6036   33.7187   45.0011 H   0  0  0  0  0  0  0  0  0  0  0  0
   55.8074   28.1857   45.6617 H   0  0  0  0  0  0  0  0  0  0  0  0
   56.6147   27.0317   44.5315 H   0  0  0  0  0  0  0  0  0  0  0  0
   57.3877   27.6473   47.4244 H   0  0  0  0  0  0  0  0  0  0  0  0
   56.7218   26.0971   46.7386 H   0  0  0  0  0  0  0  0  0  0  0  0
   59.7125   24.8333   45.4231 H   0  0  0  0  0  0  0  0  0  0  0  0
   58.9193   24.5437   47.0460 H   0  0  0  0  0  0  0  0  0  0  0  0
   56.6888   23.7875   47.2430 H   0  0  0  0  0  0  0  0  0  0  0  0
   54.7004   22.7808   46.1277 H   0  0  0  0  0  0  0  0  0  0  0  0
   54.4754   22.8720   43.6430 H   0  0  0  0  0  0  0  0  0  0  0  0
   56.2355   23.9951   42.2723 H   0  0  0  0  0  0  0  0  0  0  0  0
   58.2303   25.0027   43.3781 H   0  0  0  0  0  0  0  0  0  0  0  0
   60.6000   27.2655   45.6892 H   0  0  0  0  0  0  0  0  0  0  0  0
   59.4359   26.8780   44.3523 H   0  0  0  0  0  0  0  0  0  0  0  0
   59.1951   29.1997   46.3268 H   0  0  0  0  0  0  0  0  0  0  0  0
   59.6998   29.3201   44.6100 H   0  0  0  0  0  0  0  0  0  0  0  0
  1  2  2  0
  2  3  1  0
  3  4  2  0
  4  5  1  0
  5  6  2  0
  6  7  1  0
  7  8  1  0
  8  9  2  0
  9 10  1  0
 10 11  2  0
 11 12  1  0
 11 13  1  0
 13 14  2  0
  6 15  1  0
  2 16  1  0
 16 17  1  0
 17 18  1  0
 18 19  1  0
 19 20  1  0
 20 21  1  0
 21 22  2  0
 22 23  1  0
 23 24  2  0
 24 25  1  0
 25 26  2  0
 19 27  1  0
 27 28  1  0
 15  3  1  0
 28 16  1  0
 14  8  1  0
 26 21  1  0
  4 29  1  0
  7 30  1  0
  7 31  1  0
  9 32  1  0
 10 33  1  0
 13 34  1  0
 14 35  1  0
 17 36  1  0
 17 37  1  0
 18 38  1  0
 18 39  1  0
 20 40  1  0
 20 41  1  0
 22 42  1  0
 23 43  1  0
 24 44  1  0
 25 45  1  0
 26 46  1  0
 27 47  1  0
 27 48  1  0
 28 49  1  0
 28 50  1  0
M  CHG  1   4   1
M  END
>  <UniqueID>  (26) 
24

>  <SMILES>  (26) 
S=C(c1[nH+]nc(Cc2ccc(Br)cc2)o1)N1CCN(Cc2ccccc2)CC1

>  <Energy>  (26) 
99.2352991199022

>  <Genealogy>  (26) 
S=C(c1[nH+]nc(Cc2ccc(Br)cc2)o1)N1CCN(Cc2ccccc2)CC1 (protonated)
S=C(c1[nH+]nc(Cc2ccc(Br)cc2)o1)N1CCN(Cc2ccccc2)CC1 (3D coordinates assigned)
S=C(c1[nH+]nc(Cc2ccc(Br)cc2)o1)N1CCN(Cc2ccccc2)CC1 (nonaromatic ring conformer: 99.2352991199022 kcal/mol)

>  <smiles>  (26) 
S=C(c1nnc(Cc2ccc(Br)cc2)o1)N1CCN(Cc2ccccc2)CC1

>  <score_type>  (26) 
oracle

>  <origin>  (26) 
adg

>  <m_score__min__energy>  (26) 
-7.75

>  <m_primary>  (26) 
energy

$$$$
26:0
     RDKit          3D

 58 60  0  0  0  0  0  0  0  0999 V2000
   60.6950   26.8410   48.5940 C   0  0  0  0  0  0  0  0  0  0  0  0
   60.4040   27.6960   49.8240 C   0  0  0  0  0  0  0  0  0  0  0  0
   60.8730   29.1190   49.6320 C   0  0  0  0  0  0  0  0  0  0  0  0
   61.5660   29.6380   50.4940 O   0  0  0  0  0  0  0  0  0  0  0  0
   60.5050   29.9240   48.4030 C   0  0  2  0  0  0  0  0  0  0  0  0
   60.3850   31.4190   48.7400 C   0  0  0  0  0  0  0  0  0  0  0  0
   61.4400   32.2350   48.0330 C   0  0  0  0  0  0  0  0  0  0  0  0
   61.0890   33.1180   46.9980 C   0  0  0  0  0  0  0  0  0  0  0  0
   62.0690   33.8940   46.3720 C   0  0  0  0  0  0  0  0  0  0  0  0
   63.4030   33.7990   46.7750 C   0  0  0  0  0  0  0  0  0  0  0  0
   63.7610   32.9250   47.8050 C   0  0  0  0  0  0  0  0  0  0  0  0
   62.7840   32.1460   48.4330 C   0  0  0  0  0  0  0  0  0  0  0  0
   59.2390   29.4530   47.8390 N   0  0  0  0  0  0  0  0  0  0  0  0
   59.0170   29.0470   46.4800 C   0  0  0  0  0  0  0  0  0  0  0  0
   59.8770   29.3660   45.6200 O   0  0  0  0  0  0  0  0  0  0  0  0
   57.8010   28.2350   46.0790 C   0  0  2  0  0  0  0  0  0  0  0  0
   57.8590   26.7840   46.6190 C   0  0  0  0  0  0  0  0  0  0  0  0
   57.0420   25.8230   45.8040 C   0  0  0  0  0  0  0  0  0  0  0  0
   57.5570   24.7500   45.1780 N   0  0  0  0  0  0  0  0  0  0  0  0
   56.4750   24.1210   44.6650 C   0  0  0  0  0  0  0  0  0  0  0  0
   56.5640   22.8720   43.9010 C   0  0  0  0  0  0  0  0  0  0  0  0
   55.5520   22.5400   42.9540 N   0  0  0  0  0  0  0  0  0  0  0  0
   57.5330   22.0870   44.0840 O   0  0  0  0  0  0  0  0  0  0  0  0
   55.3000   24.7230   44.9520 N   0  0  0  0  0  0  0  0  0  0  0  0
   55.6720   25.7880   45.6800 C   0  0  0  0  0  0  0  0  0  0  0  0
   54.7750   26.6860   46.2430 O   0  0  0  0  0  0  0  0  0  0  0  0
   57.5110   28.3350   44.6360 N   0  0  0  0  0  0  0  0  0  0  0  0
   56.4500   29.6290   44.1270 S   0  0  0  0  0  0  0  0  0  0  0  0
   55.1540   29.6330   44.8890 O   0  0  0  0  0  0  0  0  0  0  0  0
   56.1450   29.4540   42.6670 O   0  0  0  0  0  0  0  0  0  0  0  0
   57.2770   31.1680   44.3350 C   0  0  0  0  0  0  0  0  0  0  0  0
   57.4200   31.7370   45.6100 C   0  0  0  0  0  0  0  0  0  0  0  0
   58.0580   32.9730   45.7580 C   0  0  0  0  0  0  0  0  0  0  0  0
   58.5500   33.6470   44.6370 C   0  0  0  0  0  0  0  0  0  0  0  0
   58.4130   33.0830   43.3660 C   0  0  0  0  0  0  0  0  0  0  0  0
   57.7760   31.8470   43.2140 C   0  0  0  0  0  0  0  0  0  0  0  0
   61.0343   25.8442   48.9123 H   0  0  0  0  0  0  0  0  0  0  0  0
   59.7800   26.7419   47.9915 H   0  0  0  0  0  0  0  0  0  0  0  0
   61.4805   27.3206   47.9915 H   0  0  0  0  0  0  0  0  0  0  0  0
   59.3197   27.6988   50.0091 H   0  0  0  0  0  0  0  0  0  0  0  0
   60.9459   27.2662   50.6794 H   0  0  0  0  0  0  0  0  0  0  0  0
   61.3074   29.7873   47.6631 H   0  0  0  0  0  0  0  0  0  0  0  0
   59.3914   31.7758   48.4311 H   0  0  0  0  0  0  0  0  0  0  0  0
   60.5264   31.5395   49.8242 H   0  0  0  0  0  0  0  0  0  0  0  0
   60.0394   33.1990   46.6791 H   0  0  0  0  0  0  0  0  0  0  0  0
   61.7888   34.5811   45.5600 H   0  0  0  0  0  0  0  0  0  0  0  0
   64.1717   34.4120   46.2817 H   0  0  0  0  0  0  0  0  0  0  0  0
   64.8117   32.8498   48.1219 H   0  0  0  0  0  0  0  0  0  0  0  0
   63.0692   31.4601   49.2443 H   0  0  0  0  0  0  0  0  0  0  0  0
   56.9290   28.6870   46.5743 H   0  0  0  0  0  0  0  0  0  0  0  0
   58.9065   26.4484   46.6111 H   0  0  0  0  0  0  0  0  0  0  0  0
   57.4394   26.7936   47.6358 H   0  0  0  0  0  0  0  0  0  0  0  0
   55.7420   22.5900   41.9280 H   0  0  0  0  0  0  0  0  0  0  0  0
   57.0300   31.2105   46.4936 H   0  0  0  0  0  0  0  0  0  0  0  0
   58.1727   33.4153   46.7586 H   0  0  0  0  0  0  0  0  0  0  0  0
   59.0454   34.6220   44.7553 H   0  0  0  0  0  0  0  0  0  0  0  0
   58.8061   33.6111   42.4848 H   0  0  0  0  0  0  0  0  0  0  0  0
   57.6661   31.4063   42.2122 H   0  0  0  0  0  0  0  0  0  0  0  0
  1  2  1  0
  2  3  1  0
  3  4  2  0
  3  5  1  0
  5  6  1  0
  6  7  1  0
  7  8  2  0
  8  9  1  0
  9 10  2  0
 10 11  1  0
 11 12  2  0
  5 13  1  0
 13 14  1  0
 14 15  2  0
 14 16  1  0
 16 17  1  0
 17 18  1  0
 18 19  1  0
 19 20  2  0
 20 21  1  0
 21 22  1  0
 21 23  2  0
 20 24  1  0
 24 25  1  0
 25 26  1  0
 16 27  1  0
 27 28  1  0
 28 29  2  0
 28 30  2  0
 28 31  1  0
 31 32  2  0
 32 33  1  0
 33 34  2  0
 34 35  1  0
 35 36  2  0
 12  7  1  0
 25 18  2  0
 36 31  1  0
  1 37  1  0
  1 38  1  0
  1 39  1  0
  2 40  1  0
  2 41  1  0
  5 42  1  6
  6 43  1  0
  6 44  1  0
  8 45  1  0
  9 46  1  0
 10 47  1  0
 11 48  1  0
 12 49  1  0
 16 50  1  1
 17 51  1  0
 17 52  1  0
 22 53  1  0
 32 54  1  0
 33 55  1  0
 34 56  1  0
 35 57  1  0
 36 58  1  0
M  CHG  5  13  -1  22  -1  24  -1  26  -1  27  -1
M  END
>  <UniqueID>  (27) 
25

>  <SMILES>  (27) 
CCC(=O)[C@H](Cc1ccccc1)[N-]C(=O)[C@H](Cc1nc(C([NH-])=O)[n-]c1[O-])[N-]S(=O)(=O)c1ccccc1

>  <Energy>  (27) 
81.42778930953848

>  <Genealogy>  (27) 
CCC(=O)C(Cc1ccccc1)[N-]C(=O)C(Cc1nc(C([NH-])=O)[n-]c1[O-])[N-]S(=O)(=O)c1ccccc1 (protonated)
CCC(=O)[C@H](Cc1ccccc1)[N-]C(=O)[C@H](Cc1nc(C([NH-])=O)[n-]c1[O-])[N-]S(=O)(=O)c1ccccc1 (chirality)
CCC(=O)[C@H](Cc1ccccc1)[N-]C(=O)[C@H](Cc1nc(C([NH-])=O)[n-]c1[O-])[N-]S(=O)(=O)c1ccccc1 (3D coordinates assigned)
CCC(=O)[C@H](Cc1ccccc1)[N-]C(=O)[C@H](Cc1nc(C([NH-])=O)[n-]c1[O-])[N-]S(=O)(=O)c1ccccc1 (optimized conformer: 81.42778930953848 kcal/mol)

>  <smiles>  (27) 
CCC(=O)C(Cc1ccccc1)NC(=O)C(Cc1nc(C(N)=O)[nH]c1O)NS(=O)(=O)c1ccccc1

>  <score_type>  (27) 
oracle

>  <origin>  (27) 
adg

>  <m_score__min__energy>  (27) 
-18.93

>  <m_primary>  (27) 
energy

$$$$
27:0
     RDKit          3D

 41 44  0  0  0  0  0  0  0  0999 V2000
   56.2420   32.3940   44.8790 O   0  0  0  0  0  0  0  0  0  0  0  0
   57.0110   31.3980   44.9220 C   0  0  0  0  0  0  0  0  0  0  0  0
   56.5100   30.1270   44.4820 N   0  0  0  0  0  0  0  0  0  0  0  0
   56.8280   28.9680   44.9780 C   0  0  0  0  0  0  0  0  0  0  0  0
   58.1110   28.6570   45.2930 N   0  0  0  0  0  0  0  0  0  0  0  0
   57.9910   27.4190   45.7950 C   0  0  0  0  0  0  0  0  0  0  0  0
   59.0020   26.5950   46.2840 C   0  0  0  0  0  0  0  0  0  0  0  0
   58.6330   25.3270   46.7720 C   0  0  0  0  0  0  0  0  0  0  0  0
   57.2780   24.9220   46.7580 C   0  0  0  0  0  0  0  0  0  0  0  0
   56.2840   25.7830   46.2580 C   0  0  0  0  0  0  0  0  0  0  0  0
   56.6870   27.0290   45.7830 C   0  0  0  0  0  0  0  0  0  0  0  0
   55.9170   28.0010   45.2710 N   0  0  0  0  0  0  0  0  0  0  0  0
   58.3490   31.5320   45.4390 N   0  0  0  0  0  0  0  0  0  0  0  0
   58.9350   32.7870   45.8220 C   0  0  0  0  0  0  0  0  0  0  0  0
   59.6120   32.9300   47.0470 C   0  0  0  0  0  0  0  0  0  0  0  0
   60.1970   34.1560   47.4000 C   0  0  0  0  0  0  0  0  0  0  0  0
   60.8780   34.3070   48.7310 C   0  0  0  0  0  0  0  0  0  0  0  0
   62.1170   33.5320   48.7510 N   0  0  0  0  0  0  0  0  0  0  0  0
   62.5310   32.6120   49.7990 C   0  0  0  0  0  0  0  0  0  0  0  0
   63.9090   32.0730   49.3390 C   0  0  0  0  0  0  0  0  0  0  0  0
   64.1700   32.7010   48.0870 O   0  0  0  0  0  0  0  0  0  0  0  0
   63.1280   33.5370   47.7670 C   0  0  0  0  0  0  0  0  0  0  0  0
   63.0820   34.2220   46.7120 O   0  0  0  0  0  0  0  0  0  0  0  0
   60.1060   35.2440   46.5180 C   0  0  0  0  0  0  0  0  0  0  0  0
   59.4600   35.0980   45.2880 C   0  0  0  0  0  0  0  0  0  0  0  0
   58.8840   33.8750   44.9370 C   0  0  0  0  0  0  0  0  0  0  0  0
   58.2540   33.7540   43.7400 F   0  0  0  0  0  0  0  0  0  0  0  0
   60.0518   26.9234   46.2887 H   0  0  0  0  0  0  0  0  0  0  0  0
   59.4029   24.6475   47.1664 H   0  0  0  0  0  0  0  0  0  0  0  0
   56.9999   23.9287   47.1400 H   0  0  0  0  0  0  0  0  0  0  0  0
   55.2259   25.4829   46.2427 H   0  0  0  0  0  0  0  0  0  0  0  0
   58.9550   30.6860   45.4960 H   0  0  0  0  0  0  0  0  0  0  0  0
   59.6834   32.0738   47.7339 H   0  0  0  0  0  0  0  0  0  0  0  0
   61.1098   35.3685   48.9029 H   0  0  0  0  0  0  0  0  0  0  0  0
   60.2090   33.9376   49.5221 H   0  0  0  0  0  0  0  0  0  0  0  0
   62.6231   33.1379   50.7608 H   0  0  0  0  0  0  0  0  0  0  0  0
   61.8010   31.8033   49.9506 H   0  0  0  0  0  0  0  0  0  0  0  0
   64.6875   32.3367   50.0701 H   0  0  0  0  0  0  0  0  0  0  0  0
   63.9073   30.9765   49.2508 H   0  0  0  0  0  0  0  0  0  0  0  0
   60.5443   36.2139   46.7959 H   0  0  0  0  0  0  0  0  0  0  0  0
   59.4048   35.9492   44.5935 H   0  0  0  0  0  0  0  0  0  0  0  0
  1  2  2  0
  2  3  1  0
  3  4  2  3
  4  5  1  0
  5  6  1  0
  6  7  2  0
  7  8  1  0
  8  9  2  0
  9 10  1  0
 10 11  2  0
 11 12  1  0
  2 13  1  0
 13 14  1  0
 14 15  2  0
 15 16  1  0
 16 17  1  0
 17 18  1  0
 18 19  1  0
 19 20  1  0
 20 21  1  0
 21 22  1  0
 22 23  2  0
 16 24  2  0
 24 25  1  0
 25 26  2  0
 26 27  1  0
 12  4  1  0
 26 14  1  0
 11  6  1  0
 22 18  1  0
  7 28  1  0
  8 29  1  0
  9 30  1  0
 10 31  1  0
 13 32  1  0
 15 33  1  0
 17 34  1  0
 17 35  1  0
 19 36  1  0
 19 37  1  0
 20 38  1  0
 20 39  1  0
 24 40  1  0
 25 41  1  0
M  CHG  2   5  -1  12  -1
M  END
>  <UniqueID>  (28) 
26

>  <SMILES>  (28) 
O=C(N=c1[n-]c2ccccc2[n-]1)Nc1cc(CN2CCOC2=O)ccc1F

>  <Energy>  (28) 
100.68362661622857

>  <Genealogy>  (28) 
O=C(N=c1[n-]c2ccccc2[n-]1)Nc1cc(CN2CCOC2=O)ccc1F (protonated)
O=C(N=c1[n-]c2ccccc2[n-]1)Nc1cc(CN2CCOC2=O)ccc1F (3D coordinates assigned)
O=C(N=c1[n-]c2ccccc2[n-]1)Nc1cc(CN2CCOC2=O)ccc1F (nonaromatic ring conformer: 100.68362661622857 kcal/mol)

>  <smiles>  (28) 
O=C(N=c1[nH]c2ccccc2[nH]1)Nc1cc(CN2CCOC2=O)ccc1F

>  <score_type>  (28) 
oracle

>  <origin>  (28) 
adg

>  <m_score__min__energy>  (28) 
-10.210000000000001

>  <m_primary>  (28) 
energy

$$$$
28:0
     RDKit          3D

 31 33  0  0  0  0  0  0  0  0999 V2000
   59.0800   28.0640   44.9300 O   0  0  0  0  0  0  0  0  0  0  0  0
   57.8380   27.8760   45.0540 C   0  0  0  0  0  0  0  0  0  0  0  0
   56.9150   28.7670   44.4040 N   0  0  0  0  0  0  0  0  0  0  0  0
   57.2500   30.1040   43.9960 C   0  0  0  0  0  0  0  0  0  0  0  0
   57.0150   30.4980   42.6720 C   0  0  0  0  0  0  0  0  0  0  0  0
   57.3130   31.7960   42.2590 C   0  0  0  0  0  0  0  0  0  0  0  0
   57.8390   32.7210   43.1630 C   0  0  0  0  0  0  0  0  0  0  0  0
   58.0690   32.3560   44.5040 C   0  0  0  0  0  0  0  0  0  0  0  0
   58.6110   33.3290   45.4910 C   0  0  0  0  0  0  0  0  0  0  0  0
   59.1470   34.5790   45.1570 C   0  0  0  0  0  0  0  0  0  0  0  0
   59.6480   35.3390   46.5730 S   0  0  0  0  0  0  0  0  0  0  0  0
   59.1680   34.0580   47.5390 C   0  0  0  0  0  0  0  0  0  0  0  0
   59.2900   34.0260   48.7910 O   0  0  0  0  0  0  0  0  0  0  0  0
   58.6320   33.0490   46.8250 N   0  0  0  0  0  0  0  0  0  0  0  0
   57.7590   31.0440   44.9120 C   0  0  0  0  0  0  0  0  0  0  0  0
   57.3530   26.7090   45.8290 C   0  0  0  0  0  0  0  0  0  0  0  0
   58.2490   25.7890   46.4010 C   0  0  0  0  0  0  0  0  0  0  0  0
   57.7670   24.6940   47.1210 C   0  0  0  0  0  0  0  0  0  0  0  0
   56.3900   24.5190   47.2620 C   0  0  0  0  0  0  0  0  0  0  0  0
   55.9390   23.5380   47.9090 O   0  0  0  0  0  0  0  0  0  0  0  0
   55.5310   25.4100   46.6980 N   0  0  0  0  0  0  0  0  0  0  0  0
   55.9740   26.4850   45.9920 C   0  0  0  0  0  0  0  0  0  0  0  0
   55.9900   28.3830   44.1080 H   0  0  0  0  0  0  0  0  0  0  0  0
   56.5930   29.7791   41.9543 H   0  0  0  0  0  0  0  0  0  0  0  0
   57.1327   32.0929   41.2153 H   0  0  0  0  0  0  0  0  0  0  0  0
   58.0753   33.7411   42.8260 H   0  0  0  0  0  0  0  0  0  0  0  0
   59.2271   34.9939   44.1414 H   0  0  0  0  0  0  0  0  0  0  0  0
   57.9167   30.7500   45.9602 H   0  0  0  0  0  0  0  0  0  0  0  0
   59.3330   25.9322   46.2810 H   0  0  0  0  0  0  0  0  0  0  0  0
   58.4668   23.9757   47.5730 H   0  0  0  0  0  0  0  0  0  0  0  0
   55.2499   27.1828   45.5462 H   0  0  0  0  0  0  0  0  0  0  0  0
  1  2  2  0
  2  3  1  0
  3  4  1  0
  4  5  2  0
  5  6  1  0
  6  7  2  0
  7  8  1  0
  8  9  1  0
  9 10  2  0
 10 11  1  0
 11 12  1  0
 12 13  2  0
 12 14  1  0
  8 15  2  0
  2 16  1  0
 16 17  1  0
 17 18  2  0
 18 19  1  0
 19 20  2  0
 19 21  1  0
 21 22  1  0
 15  4  1  0
 22 16  2  0
 14  9  1  0
  3 23  1  0
  5 24  1  0
  6 25  1  0
  7 26  1  0
 10 27  1  0
 15 28  1  0
 17 29  1  0
 18 30  1  0
 22 31  1  0
M  CHG  2  14  -1  21  -1
M  END
>  <UniqueID>  (29) 
27

>  <SMILES>  (29) 
O=C(Nc1cccc(-c2csc(=O)[n-]2)c1)c1ccc(=O)[n-]c1

>  <Energy>  (29) 
73.26774598871216

>  <Genealogy>  (29) 
O=C(Nc1cccc(-c2csc(=O)[n-]2)c1)c1ccc(=O)[n-]c1 (protonated)
O=C(Nc1cccc(-c2csc(=O)[n-]2)c1)c1ccc(=O)[n-]c1 (3D coordinates assigned)
O=C(Nc1cccc(-c2csc(=O)[n-]2)c1)c1ccc(=O)[n-]c1 (optimized conformer: 73.26774598871216 kcal/mol)

>  <smiles>  (29) 
O=C(Nc1cccc(-c2csc(=O)[nH]2)c1)c1ccc(=O)[nH]c1

>  <score_type>  (29) 
oracle

>  <origin>  (29) 
adg

>  <m_score__min__energy>  (29) 
-10.460000000000001

>  <m_primary>  (29) 
energy

$$$$
29:0
     RDKit          3D

 52 55  0  0  0  0  0  0  0  0999 V2000
   54.2330   28.9570   44.4980 H   0  0  0  0  0  0  0  0  0  0  0  0
   55.1070   29.4650   44.4670 O   0  0  0  0  0  0  0  0  0  0  0  0
   56.2350   29.0150   45.1500 C   0  0  0  0  0  0  0  0  0  0  0  0
   56.3090   27.8140   45.7440 N   0  0  0  0  0  0  0  0  0  0  0  0
   57.5360   27.8330   46.3050 C   0  0  0  0  0  0  0  0  0  0  0  0
   57.9910   26.8690   46.9740 O   0  0  0  0  0  0  0  0  0  0  0  0
   58.2350   28.9710   46.1040 N   0  0  0  0  0  0  0  0  0  0  0  0
   57.4110   29.7100   45.3430 C   0  0  0  0  0  0  0  0  0  0  0  0
   57.6960   31.0970   44.9510 C   0  0  0  0  0  0  0  0  0  0  0  0
   57.1937   31.4742   44.0480 H   0  0  0  0  0  0  0  0  0  0  0  0
   58.5160   31.9490   45.5960 C   0  0  0  0  0  0  0  0  0  0  0  0
   58.2960   33.3160   45.6190 C   0  0  0  0  0  0  0  0  0  0  0  0
   57.4434   33.8487   45.1725 H   0  0  0  0  0  0  0  0  0  0  0  0
   59.3470   33.8830   46.3070 C   0  0  0  0  0  0  0  0  0  0  0  0
   59.5540   35.3610   46.4510 C   0  0  0  0  0  0  0  0  0  0  0  0
   59.5908   35.6238   47.5185 H   0  0  0  0  0  0  0  0  0  0  0  0
   60.5010   35.6472   45.9701 H   0  0  0  0  0  0  0  0  0  0  0  0
   58.7221   35.8963   45.9701 H   0  0  0  0  0  0  0  0  0  0  0  0
   60.1960   32.9250   46.7420 N   0  0  0  0  0  0  0  0  0  0  0  0
   61.3990   33.1550   47.5030 C   0  0  0  0  0  0  0  0  0  0  0  0
   62.6430   32.9590   46.8810 C   0  0  0  0  0  0  0  0  0  0  0  0
   62.6826   32.6720   45.8198 H   0  0  0  0  0  0  0  0  0  0  0  0
   63.8290   33.1250   47.5970 C   0  0  0  0  0  0  0  0  0  0  0  0
   64.7976   32.9749   47.0977 H   0  0  0  0  0  0  0  0  0  0  0  0
   63.7880   33.4810   48.9450 C   0  0  0  0  0  0  0  0  0  0  0  0
   64.9700   33.6380   49.6580 O   0  0  0  0  0  0  0  0  0  0  0  0
   62.5580   33.6810   49.5790 C   0  0  0  0  0  0  0  0  0  0  0  0
   62.5316   33.9519   50.6448 H   0  0  0  0  0  0  0  0  0  0  0  0
   61.3560   33.5390   48.8670 C   0  0  0  0  0  0  0  0  0  0  0  0
   60.0770   33.7640   49.5780 C   0  0  0  0  0  0  0  0  0  0  0  0
   59.4370   34.8290   49.3640 O   0  0  0  0  0  0  0  0  0  0  0  0
   59.5430   32.7880   50.4910 N   0  0  0  0  0  0  0  0  0  0  0  0
   58.9030   33.2210   51.7420 C   0  0  0  0  0  0  0  0  0  0  0  0
   59.5954   33.0583   52.5811 H   0  0  0  0  0  0  0  0  0  0  0  0
   58.6514   34.2894   51.6689 H   0  0  0  0  0  0  0  0  0  0  0  0
   57.6220   32.4170   51.9780 C   0  0  0  0  0  0  0  0  0  0  0  0
   57.1773   32.7323   52.9334 H   0  0  0  0  0  0  0  0  0  0  0  0
   56.9422   32.6115   51.1353 H   0  0  0  0  0  0  0  0  0  0  0  0
   57.8870   30.8940   52.0310 C   0  0  0  0  0  0  0  0  0  0  0  0
   58.0430   30.6223   53.0854 H   0  0  0  0  0  0  0  0  0  0  0  0
   56.7760   30.2200   51.5000 O   0  0  0  0  0  0  0  0  0  0  0  0
   57.0780   29.7730   50.6660 H   0  0  0  0  0  0  0  0  0  0  0  0
   59.1710   30.4720   51.2770 C   0  0  0  0  0  0  0  0  0  0  0  0
   60.0213   30.5183   51.9734 H   0  0  0  0  0  0  0  0  0  0  0  0
   59.0174   29.4512   50.8969 H   0  0  0  0  0  0  0  0  0  0  0  0
   59.4670   31.3790   50.0770 C   0  0  0  0  0  0  0  0  0  0  0  0
   60.4272   31.0827   49.6297 H   0  0  0  0  0  0  0  0  0  0  0  0
   58.6529   31.2709   49.3452 H   0  0  0  0  0  0  0  0  0  0  0  0
   59.7050   31.7310   46.3170 C   0  0  0  0  0  0  0  0  0  0  0  0
   60.2750   30.5520   46.6120 C   0  0  0  0  0  0  0  0  0  0  0  0
   61.2123   30.5228   47.1871 H   0  0  0  0  0  0  0  0  0  0  0  0
   59.8048   29.6151   46.2787 H   0  0  0  0  0  0  0  0  0  0  0  0
  1  2  1  0
  2  3  1  0
  3  4  1  0
  4  5  1  0
  5  6  2  0
  5  7  1  0
  7  8  1  0
  8  9  1  0
  9 10  1  0
  9 11  2  0
 11 12  1  0
 12 13  1  0
 12 14  2  0
 14 15  1  0
 15 16  1  0
 15 17  1  0
 15 18  1  0
 14 19  1  0
 19 20  1  0
 20 21  2  0
 21 22  1  0
 21 23  1  0
 23 24  1  0
 23 25  2  0
 25 26  1  0
 25 27  1  0
 27 28  1  0
 27 29  2  0
 29 30  1  0
 30 31  2  0
 30 32  1  0
 32 33  1  0
 33 34  1  0
 33 35  1  0
 33 36  1  0
 36 37  1  0
 36 38  1  0
 36 39  1  0
 39 40  1  0
 39 41  1  0
 41 42  1  0
 39 43  1  0
 43 44  1  0
 43 45  1  0
 43 46  1  0
 46 47  1  0
 46 48  1  0
 19 49  1  0
 49 50  2  0
 50 51  1  0
 50 52  1  0
  8  3  2  0
 49 11  1  0
 29 20  1  0
 46 32  1  0
M  CHG  3   4  -1   7  -1  26  -1
M  END
>  <UniqueID>  (30) 
28

>  <SMILES>  (30) 
C=c1/c(=C\c2[n-]c(=O)[n-]c2O)cc(C)n1-c1ccc([O-])cc1C(=O)N1CCC(O)CC1

>  <Energy>  (30) 
136.69753576967415

>  <Genealogy>  (30) 
C=c1c(=Cc2[n-]c(=O)[n-]c2O)cc(C)n1-c1ccc([O-])cc1C(=O)N1CCC(O)CC1 (protonated)
C=c1/c(=C\c2[n-]c(=O)[n-]c2O)cc(C)n1-c1ccc([O-])cc1C(=O)N1CCC(O)CC1 (cis-trans isomerization)
C=c1/c(=C\c2[n-]c(=O)[n-]c2O)cc(C)n1-c1ccc([O-])cc1C(=O)N1CCC(O)CC1 (3D coordinates assigned)
C=c1/c(=C\c2[n-]c(=O)[n-]c2O)cc(C)n1-c1ccc([O-])cc1C(=O)N1CCC(O)CC1 (nonaromatic ring conformer: 136.69753576967415 kcal/mol)

>  <smiles>  (30) 
C=c1c(=Cc2[nH]c(=O)[nH]c2O)cc(C)n1-c1ccc(O)cc1C(=O)N1CCC(O)CC1

>  <score_type>  (30) 
oracle

>  <origin>  (30) 
adg

>  <m_score__min__energy>  (30) 
-13.91

>  <m_primary>  (30) 
energy

$$$$
30:0
     RDKit          3D

 48 51  0  0  1  0  0  0  0  0999 V2000
   56.4080   21.7290   42.7190 C   0  0  0  0  0  0  0  0  0  0  0  0
   56.8430   22.8900   43.5440 C   0  0  0  0  0  0  0  0  0  0  0  0
   56.9760   22.8310   44.8680 N   0  0  0  0  0  0  0  0  0  0  0  0
   57.3710   23.8880   45.6190 C   0  0  0  0  0  0  0  0  0  0  0  0
   57.4890   23.7950   46.8840 O   0  0  0  0  0  0  0  0  0  0  0  0
   57.6380   25.0650   44.9510 C   0  0  0  0  0  0  0  0  0  0  0  0
   58.0420   26.1820   45.6380 C   0  0  0  0  0  0  0  0  0  0  0  0
   58.3230   27.3850   45.0150 C   0  0  0  0  0  0  0  0  0  0  0  0
   58.7460   28.5160   45.8450 C   0  0  0  0  0  0  0  0  0  0  0  0
   58.3260   29.8100   45.3800 N   0  0  0  0  0  0  0  0  0  0  0  0
   57.0070   30.1300   44.9690 C   0  0  0  0  0  0  0  0  0  0  0  0
   56.0850   29.2510   44.9910 O   0  0  0  0  0  0  0  0  0  0  0  0
   56.6140   31.4170   44.5130 N   0  0  0  0  0  0  0  0  0  0  0  0
   57.4010   32.4080   44.8450 C   0  0  0  0  0  0  0  0  0  0  0  0
   57.9990   33.3420   44.1690 N   0  0  0  0  0  0  0  0  0  0  0  0
   58.7460   34.2280   44.7640 C   0  0  0  0  0  0  0  0  0  0  0  0
   58.9050   34.1770   46.1110 C   0  0  0  0  0  0  0  0  0  0  0  0
   59.6360   34.9640   47.0890 C   0  0  0  0  0  0  0  0  0  0  0  0
   60.8480   34.2080   47.5000 C   0  0  0  0  0  0  0  0  0  0  0  0
   61.7410   33.8630   46.4810 C   0  0  0  0  0  0  0  0  0  0  0  0
   62.8740   33.1670   46.7750 C   0  0  0  0  0  0  0  0  0  0  0  0
   63.1280   32.8090   48.1020 C   0  0  0  0  0  0  0  0  0  0  0  0
   62.2410   33.1550   49.0930 C   0  0  0  0  0  0  0  0  0  0  0  0
   61.0750   33.8660   48.8150 C   0  0  0  0  0  0  0  0  0  0  0  0
   60.2200   34.1990   49.7810 F   0  0  0  0  0  0  0  0  0  0  0  0
   57.8670   32.6820   46.6330 S   0  0  0  0  0  0  0  0  0  0  0  0
   58.1760   27.4190   43.6450 C   0  0  0  0  0  0  0  0  0  0  0  0
   57.7700   26.3090   42.9290 C   0  0  0  0  0  0  0  0  0  0  0  0
   57.4970   25.1270   43.5620 C   0  0  0  0  0  0  0  0  0  0  0  0
   57.1020   24.0350   42.9010 N   0  0  0  0  0  0  0  0  0  0  0  0
   56.0993   20.9051   43.3793 H   0  0  0  0  0  0  0  0  0  0  0  0
   55.5606   22.0273   42.0842 H   0  0  0  0  0  0  0  0  0  0  0  0
   57.2427   21.3970   42.0842 H   0  0  0  0  0  0  0  0  0  0  0  0
   58.1470   26.1183   46.7311 H   0  0  0  0  0  0  0  0  0  0  0  0
   58.3362   28.3683   46.8551 H   0  0  0  0  0  0  0  0  0  0  0  0
   59.8455   28.5230   45.8123 H   0  0  0  0  0  0  0  0  0  0  0  0
   59.0230   30.6130   45.3240 H   0  0  0  0  0  0  0  0  0  0  0  0
   57.8670   33.3770   43.0830 H   0  0  0  0  0  0  0  0  0  0  0  0
   59.2454   35.0135   44.1778 H   0  0  0  0  0  0  0  0  0  0  0  0
   59.9327   35.9250   46.6436 H   0  0  0  0  0  0  0  0  0  0  0  0
   58.9999   35.1572   47.9654 H   0  0  0  0  0  0  0  0  0  0  0  0
   61.5284   34.1538   45.4417 H   0  0  0  0  0  0  0  0  0  0  0  0
   63.5802   32.8901   45.9784 H   0  0  0  0  0  0  0  0  0  0  0  0
   64.0405   32.2487   48.3538 H   0  0  0  0  0  0  0  0  0  0  0  0
   62.4567   32.8635   50.1315 H   0  0  0  0  0  0  0  0  0  0  0  0
   58.3875   28.3549   43.1071 H   0  0  0  0  0  0  0  0  0  0  0  0
   57.6649   26.3765   41.8361 H   0  0  0  0  0  0  0  0  0  0  0  0
   57.0040   24.1080   41.8530 H   0  0  0  0  0  0  0  0  0  0  0  0
  1  2  1  0
  2  3  2  0
  3  4  1  0
  4  5  2  0
  4  6  1  0
  6  7  2  0
  7  8  1  0
  8  9  1  0
  9 10  1  0
 10 11  1  0
 11 12  2  0
 11 13  1  0
 13 14  2  0
 14 15  1  0
 15 16  1  0
 16 17  2  0
 17 18  1  0
 18 19  1  0
 19 20  2  0
 20 21  1  0
 21 22  2  0
 22 23  1  0
 23 24  2  0
 24 25  1  0
 17 26  1  0
  8 27  2  0
 27 28  1  0
 28 29  2  0
 29 30  1  0
 30  2  1  0
 29  6  1  0
 26 14  1  0
 24 19  1  0
  1 31  1  0
  1 32  1  0
  1 33  1  0
  7 34  1  0
  9 35  1  0
  9 36  1  0
 10 37  1  0
 15 38  1  0
 16 39  1  0
 18 40  1  0
 18 41  1  0
 20 42  1  0
 21 43  1  0
 22 44  1  0
 23 45  1  0
 27 46  1  0
 28 47  1  0
 30 48  1  0
M  END
>  <smiles>  (31) 
Cc1nc(=O)c2cc(CNC(=O)N=c3[nH]cc(Cc4ccccc4F)s3)ccc2[nH]1

>  <score_type>  (31) 
oracle

>  <origin>  (31) 
adg

>  <m_score__min__energy>  (31) 
-9.5399999999999991

>  <m_primary>  (31) 
energy

$$$$
31:0
     RDKit          3D

 51 54  0  0  0  0  0  0  0  0999 V2000
   59.2390   27.4380   47.3630 C   0  0  0  0  0  0  0  0  0  0  0  0
   58.5590   27.6790   46.2310 C   0  0  0  0  0  0  0  0  0  0  0  0
   57.9180   26.7430   45.3980 C   0  0  0  0  0  0  0  0  0  0  0  0
   57.7300   25.4160   45.5300 C   0  0  0  0  0  0  0  0  0  0  0  0
   56.4390   24.7140   45.3960 C   0  0  0  0  0  0  0  0  0  0  0  0
   55.2240   25.3690   45.6680 C   0  0  0  0  0  0  0  0  0  0  0  0
   55.1780   26.7180   46.0190 O   0  0  0  0  0  0  0  0  0  0  0  0
   54.0560   24.6780   45.5790 N   0  0  0  0  0  0  0  0  0  0  0  0
   54.0360   23.3630   45.2440 C   0  0  0  0  0  0  0  0  0  0  0  0
   52.9400   22.7510   45.1670 O   0  0  0  0  0  0  0  0  0  0  0  0
   55.1980   22.7070   44.9960 N   0  0  0  0  0  0  0  0  0  0  0  0
   56.3940   23.3460   45.0720 C   0  0  0  0  0  0  0  0  0  0  0  0
   57.4530   22.7000   44.8510 O   0  0  0  0  0  0  0  0  0  0  0  0
   57.4360   27.4580   44.3120 C   0  0  0  0  0  0  0  0  0  0  0  0
   57.7630   28.7810   44.5250 C   0  0  0  0  0  0  0  0  0  0  0  0
   57.4050   29.9060   43.6020 C   0  0  0  0  0  0  0  0  0  0  0  0
   58.4340   28.9180   45.6880 N   0  0  0  0  0  0  0  0  0  0  0  0
   58.9580   30.1550   46.2030 C   0  0  0  0  0  0  0  0  0  0  0  0
   60.3140   30.2610   46.5420 C   0  0  0  0  0  0  0  0  0  0  0  0
   60.8260   31.4670   47.0280 C   0  0  0  0  0  0  0  0  0  0  0  0
   59.9910   32.5900   47.1690 C   0  0  0  0  0  0  0  0  0  0  0  0
   60.5280   33.8670   47.6930 C   0  0  0  0  0  0  0  0  0  0  0  0
   60.0000   34.9560   47.3390 O   0  0  0  0  0  0  0  0  0  0  0  0
   61.6440   33.8820   48.6040 N   0  0  0  0  0  0  0  0  0  0  0  0
   61.3640   33.7300   50.0330 C   0  0  0  0  0  0  0  0  0  0  0  0
   63.0500   33.8990   48.1500 C   0  0  0  0  0  0  0  0  0  0  0  0
   63.7010   32.5360   48.1550 C   0  0  0  0  0  0  0  0  0  0  0  0
   63.8300   32.5190   46.7510 O   0  0  0  0  0  0  0  0  0  0  0  0
   63.2500   33.7990   46.6520 C   0  0  0  0  0  0  0  0  0  0  0  0
   58.6310   32.4750   46.8340 C   0  0  0  0  0  0  0  0  0  0  0  0
   58.1210   31.2680   46.3490 C   0  0  0  0  0  0  0  0  0  0  0  0
   59.6935   28.2709   47.9195 H   0  0  0  0  0  0  0  0  0  0  0  0
   59.3418   26.4076   47.7341 H   0  0  0  0  0  0  0  0  0  0  0  0
   58.6146   24.8029   45.7572 H   0  0  0  0  0  0  0  0  0  0  0  0
   55.1460   27.4620   45.3320 H   0  0  0  0  0  0  0  0  0  0  0  0
   56.8958   27.0482   43.4458 H   0  0  0  0  0  0  0  0  0  0  0  0
   57.1237   30.7899   44.1932 H   0  0  0  0  0  0  0  0  0  0  0  0
   58.2701   30.1493   42.9676 H   0  0  0  0  0  0  0  0  0  0  0  0
   56.5584   29.6046   42.9676 H   0  0  0  0  0  0  0  0  0  0  0  0
   60.9776   29.3915   46.4250 H   0  0  0  0  0  0  0  0  0  0  0  0
   61.8889   31.5385   47.3021 H   0  0  0  0  0  0  0  0  0  0  0  0
   62.1835   34.1749   50.6166 H   0  0  0  0  0  0  0  0  0  0  0  0
   60.4206   34.2398   50.2780 H   0  0  0  0  0  0  0  0  0  0  0  0
   61.2776   32.6611   50.2780 H   0  0  0  0  0  0  0  0  0  0  0  0
   63.3909   34.7588   48.7454 H   0  0  0  0  0  0  0  0  0  0  0  0
   64.6651   32.5126   48.6841 H   0  0  0  0  0  0  0  0  0  0  0  0
   63.1853   31.7014   48.6525 H   0  0  0  0  0  0  0  0  0  0  0  0
   63.9336   34.5606   46.2487 H   0  0  0  0  0  0  0  0  0  0  0  0
   62.3854   33.9431   45.9874 H   0  0  0  0  0  0  0  0  0  0  0  0
   57.9636   33.3410   46.9544 H   0  0  0  0  0  0  0  0  0  0  0  0
   57.0570   31.1917   46.0806 H   0  0  0  0  0  0  0  0  0  0  0  0
  1  2  2  0
  2  3  1  0
  3  4  2  3
  4  5  1  0
  5  6  2  0
  6  7  1  0
  6  8  1  0
  8  9  1  0
  9 10  2  0
  9 11  1  0
 11 12  1  0
 12 13  2  0
  3 14  1  0
 14 15  2  0
 15 16  1  0
 15 17  1  0
 17 18  1  0
 18 19  2  0
 19 20  1  0
 20 21  2  0
 21 22  1  0
 22 23  2  0
 22 24  1  0
 24 25  1  0
 24 26  1  0
 26 27  1  0
 27 28  1  0
 28 29  1  0
 21 30  1  0
 30 31  2  0
 17  2  1  0
 31 18  1  0
 12  5  1  0
 29 26  1  0
  1 32  1  0
  1 33  1  0
  4 34  1  0
  7 35  1  0
 14 36  1  0
 16 37  1  0
 16 38  1  0
 16 39  1  0
 19 40  1  0
 20 41  1  0
 25 42  1  0
 25 43  1  0
 25 44  1  0
 26 45  1  0
 27 46  1  0
 27 47  1  0
 29 48  1  0
 29 49  1  0
 30 50  1  0
 31 51  1  0
M  CHG  2   8  -1  11  -1
M  END
>  <UniqueID>  (32) 
29

>  <SMILES>  (32) 
C=c1c(=Cc2c(O)[n-]c(=O)[n-]c2=O)cc(C)n1-c1ccc(C(=O)N(C)C2COC2)cc1

>  <Energy>  (32) 
175.048600386706

>  <Genealogy>  (32) 
C=c1c(=Cc2c(O)[n-]c(=O)[n-]c2=O)cc(C)n1-c1ccc(C(=O)N(C)C2COC2)cc1 (protonated)
C=c1c(=Cc2c(O)[n-]c(=O)[n-]c2=O)cc(C)n1-c1ccc(C(=O)N(C)C2COC2)cc1 (3D coordinates assigned)
C=c1c(=Cc2c(O)[n-]c(=O)[n-]c2=O)cc(C)n1-c1ccc(C(=O)N(C)C2COC2)cc1 (nonaromatic ring conformer: 175.048600386706 kcal/mol)

>  <smiles>  (32) 
C=c1c(=Cc2c(O)[nH]c(=O)[nH]c2=O)cc(C)n1-c1ccc(C(=O)N(C)C2COC2)cc1

>  <score_type>  (32) 
oracle

>  <origin>  (32) 
adg

>  <m_score__min__energy>  (32) 
-13.57

>  <m_primary>  (32) 
energy

$$$$
32:0
     RDKit          3D

 52 54  0  0  0  0  0  0  0  0999 V2000
   60.5540   30.6060   49.5070 C   0  0  0  0  0  0  0  0  0  0  0  0
   60.1310   29.6540   48.4340 C   0  0  0  0  0  0  0  0  0  0  0  0
   59.6620   28.3820   48.7580 C   0  0  0  0  0  0  0  0  0  0  0  0
   59.2670   27.5270   47.7280 C   0  0  0  0  0  0  0  0  0  0  0  0
   58.8530   26.3700   48.0200 O   0  0  0  0  0  0  0  0  0  0  0  0
   59.3280   27.9400   46.4200 N   0  0  0  0  0  0  0  0  0  0  0  0
   58.9640   27.0080   45.3320 C   0  0  0  0  0  0  0  0  0  0  0  0
   57.8500   27.5850   44.4480 C   0  0  0  0  0  0  0  0  0  0  0  0
   56.6540   27.9770   45.2580 C   0  0  0  0  0  0  0  0  0  0  0  0
   56.0720   27.1150   45.9720 O   0  0  0  0  0  0  0  0  0  0  0  0
   56.1870   29.3320   45.2100 N   0  0  0  0  0  0  0  0  0  0  0  0
   56.7880   30.4140   44.4850 C   0  0  0  0  0  0  0  0  0  0  0  0
   56.7250   30.5000   43.0810 C   0  0  0  0  0  0  0  0  0  0  0  0
   57.2990   31.5870   42.4180 C   0  0  0  0  0  0  0  0  0  0  0  0
   57.9330   32.5980   43.1440 C   0  0  0  0  0  0  0  0  0  0  0  0
   57.9810   32.5340   44.5420 C   0  0  0  0  0  0  0  0  0  0  0  0
   58.8300   33.7740   45.4650 S   0  0  0  0  0  0  0  0  0  0  0  0
   57.8210   34.5950   46.2190 O   0  0  0  0  0  0  0  0  0  0  0  0
   59.5780   34.6810   44.5270 O   0  0  0  0  0  0  0  0  0  0  0  0
   59.9380   33.0210   46.5880 N   0  0  0  0  0  0  0  0  0  0  0  0
   61.3020   33.5650   46.3810 C   0  0  0  0  0  0  0  0  0  0  0  0
   62.2060   33.2990   47.5890 C   0  0  0  0  0  0  0  0  0  0  0  0
   61.6620   33.9880   48.8530 C   0  0  0  0  0  0  0  0  0  0  0  0
   60.1460   34.2370   48.7890 C   0  0  0  0  0  0  0  0  0  0  0  0
   59.4360   33.1360   47.9880 C   0  0  0  0  0  0  0  0  0  0  0  0
   57.4050   31.4420   45.2070 C   0  0  0  0  0  0  0  0  0  0  0  0
   59.7740   29.2090   46.1350 C   0  0  0  0  0  0  0  0  0  0  0  0
   59.8360   29.6200   44.9440 O   0  0  0  0  0  0  0  0  0  0  0  0
   60.1620   30.0410   47.1350 N   0  0  0  0  0  0  0  0  0  0  0  0
   60.3556   30.1594   50.4925 H   0  0  0  0  0  0  0  0  0  0  0  0
   61.6296   30.8147   49.4089 H   0  0  0  0  0  0  0  0  0  0  0  0
   59.9880   31.5441   49.4089 H   0  0  0  0  0  0  0  0  0  0  0  0
   59.6042   28.0576   49.8075 H   0  0  0  0  0  0  0  0  0  0  0  0
   59.8519   26.8192   44.7108 H   0  0  0  0  0  0  0  0  0  0  0  0
   58.5977   26.0746   45.7844 H   0  0  0  0  0  0  0  0  0  0  0  0
   58.2334   28.4730   43.9240 H   0  0  0  0  0  0  0  0  0  0  0  0
   57.5420   26.8096   43.7311 H   0  0  0  0  0  0  0  0  0  0  0  0
   56.2224   29.7091   42.5049 H   0  0  0  0  0  0  0  0  0  0  0  0
   57.2517   31.6472   41.3207 H   0  0  0  0  0  0  0  0  0  0  0  0
   58.3952   33.4456   42.6168 H   0  0  0  0  0  0  0  0  0  0  0  0
   59.9600   32.0030   46.3400 H   0  0  0  0  0  0  0  0  0  0  0  0
   61.7445   33.0901   45.4929 H   0  0  0  0  0  0  0  0  0  0  0  0
   61.2208   34.6536   46.2459 H   0  0  0  0  0  0  0  0  0  0  0  0
   62.2588   32.2146   47.7659 H   0  0  0  0  0  0  0  0  0  0  0  0
   63.2050   33.7056   47.3730 H   0  0  0  0  0  0  0  0  0  0  0  0
   61.8770   33.3489   49.7221 H   0  0  0  0  0  0  0  0  0  0  0  0
   62.1558   34.9675   48.9354 H   0  0  0  0  0  0  0  0  0  0  0  0
   59.7417   34.2541   49.8118 H   0  0  0  0  0  0  0  0  0  0  0  0
   59.9720   35.2003   48.2871 H   0  0  0  0  0  0  0  0  0  0  0  0
   59.5938   32.1740   48.4976 H   0  0  0  0  0  0  0  0  0  0  0  0
   58.3698   33.4014   47.9355 H   0  0  0  0  0  0  0  0  0  0  0  0
   57.4384   31.3930   46.3054 H   0  0  0  0  0  0  0  0  0  0  0  0
  1  2  1  0
  2  3  2  0
  3  4  1  0
  4  5  2  0
  4  6  1  0
  6  7  1  0
  7  8  1  0
  8  9  1  0
  9 10  2  0
  9 11  1  0
 11 12  1  0
 12 13  2  0
 13 14  1  0
 14 15  2  0
 15 16  1  0
 16 17  1  0
 17 18  2  0
 17 19  2  0
 17 20  1  0
 20 21  1  0
 21 22  1  0
 22 23  1  0
 23 24  1  0
 24 25  1  0
 16 26  2  0
  6 27  1  0
 27 28  2  0
 27 29  1  0
 29  2  1  0
 26 12  1  0
 25 20  1  0
  1 30  1  0
  1 31  1  0
  1 32  1  0
  3 33  1  0
  7 34  1  0
  7 35  1  0
  8 36  1  0
  8 37  1  0
 13 38  1  0
 14 39  1  0
 15 40  1  0
 20 41  1  0
 21 42  1  0
 21 43  1  0
 22 44  1  0
 22 45  1  0
 23 46  1  0
 23 47  1  0
 24 48  1  0
 24 49  1  0
 25 50  1  0
 25 51  1  0
 26 52  1  0
M  CHG  3  11  -1  20   1  29  -1
M  END
>  <UniqueID>  (33) 
30

>  <SMILES>  (33) 
Cc1cc(=O)n(CCC(=O)[N-]c2cccc(S(=O)(=O)[NH+]3CCCCC3)c2)c(=O)[n-]1

>  <Energy>  (33) 
59.80018025036187

>  <Genealogy>  (33) 
Cc1cc(=O)n(CCC(=O)[N-]c2cccc(S(=O)(=O)[NH+]3CCCCC3)c2)c(=O)[n-]1 (protonated)
Cc1cc(=O)n(CCC(=O)[N-]c2cccc(S(=O)(=O)[NH+]3CCCCC3)c2)c(=O)[n-]1 (3D coordinates assigned)
Cc1cc(=O)n(CCC(=O)[N-]c2cccc(S(=O)(=O)[NH+]3CCCCC3)c2)c(=O)[n-]1 (nonaromatic ring conformer: 59.80018025036187 kcal/mol)

>  <smiles>  (33) 
Cc1cc(=O)n(CCC(=O)Nc2cccc(S(=O)(=O)N3CCCCC3)c2)c(=O)[nH]1

>  <score_type>  (33) 
oracle

>  <origin>  (33) 
adg

>  <m_score__min__energy>  (33) 
-11.539999999999999

>  <m_primary>  (33) 
energy

$$$$
33:0
     RDKit          3D

 53 55  0  0  0  0  0  0  0  0999 V2000
   54.0850   24.4580   47.1340 H   0  0  0  0  0  0  0  0  0  0  0  0
   54.9790   24.0000   47.0010 O   0  0  0  0  0  0  0  0  0  0  0  0
   56.1330   24.7270   46.7170 C   0  0  0  0  0  0  0  0  0  0  0  0
   57.3970   24.1380   46.8550 C   0  0  0  0  0  0  0  0  0  0  0  0
   57.4805   23.0896   47.1772 H   0  0  0  0  0  0  0  0  0  0  0  0
   58.5520   24.8770   46.5850 C   0  0  0  0  0  0  0  0  0  0  0  0
   59.5409   24.4090   46.6987 H   0  0  0  0  0  0  0  0  0  0  0  0
   58.4550   26.2150   46.1690 C   0  0  0  0  0  0  0  0  0  0  0  0
   59.6980   27.0410   45.9570 C   0  0  0  0  0  0  0  0  0  0  0  0
   59.4172   28.1043   45.9326 H   0  0  0  0  0  0  0  0  0  0  0  0
   60.1553   26.7266   45.0072 H   0  0  0  0  0  0  0  0  0  0  0  0
   60.7340   26.8270   47.0750 C   0  0  0  0  0  0  0  0  0  0  0  0
   61.6801   27.2973   46.7687 H   0  0  0  0  0  0  0  0  0  0  0  0
   60.8377   25.7414   47.2190 H   0  0  0  0  0  0  0  0  0  0  0  0
   60.3140   27.4150   48.4000 C   0  0  0  0  0  0  0  0  0  0  0  0
   60.8040   26.9580   49.4670 O   0  0  0  0  0  0  0  0  0  0  0  0
   59.5560   28.6300   48.4570 N   0  0  0  0  0  0  0  0  0  0  0  0
   60.0080   29.8390   48.6570 C   0  0  0  0  0  0  0  0  0  0  0  0
   59.3120   30.9600   47.9960 C   0  0  0  0  0  0  0  0  0  0  0  0
   59.1220   32.0420   48.6170 O   0  0  0  0  0  0  0  0  0  0  0  0
   58.8320   30.8110   46.6580 N   0  0  0  0  0  0  0  0  0  0  0  0
   57.5790   30.1570   46.3160 C   0  0  0  0  0  0  0  0  0  0  0  0
   57.6607   29.0770   46.5083 H   0  0  0  0  0  0  0  0  0  0  0  0
   56.7625   30.5684   46.9276 H   0  0  0  0  0  0  0  0  0  0  0  0
   57.2950   30.3910   44.8590 C   0  0  0  0  0  0  0  0  0  0  0  0
   58.1130   31.2700   44.1290 C   0  0  0  0  0  0  0  0  0  0  0  0
   58.9824   31.7376   44.6143 H   0  0  0  0  0  0  0  0  0  0  0  0
   57.8290   31.5540   42.7900 C   0  0  0  0  0  0  0  0  0  0  0  0
   58.4776   32.2385   42.2236 H   0  0  0  0  0  0  0  0  0  0  0  0
   56.7220   30.9690   42.1710 C   0  0  0  0  0  0  0  0  0  0  0  0
   56.5037   31.1875   41.1152 H   0  0  0  0  0  0  0  0  0  0  0  0
   55.8920   30.1070   42.8910 C   0  0  0  0  0  0  0  0  0  0  0  0
   55.0193   29.6502   42.4013 H   0  0  0  0  0  0  0  0  0  0  0  0
   56.1670   29.8220   44.2350 C   0  0  0  0  0  0  0  0  0  0  0  0
   55.3130   28.9800   44.9380 O   0  0  0  0  0  0  0  0  0  0  0  0
   61.2780   30.1210   49.4330 C   0  0  0  0  0  0  0  0  0  0  0  0
   61.0227   30.2919   50.4892 H   0  0  0  0  0  0  0  0  0  0  0  0
   61.9481   29.2546   49.3315 H   0  0  0  0  0  0  0  0  0  0  0  0
   61.9860   31.3380   48.8950 C   0  0  0  0  0  0  0  0  0  0  0  0
   62.0460   32.5220   49.6500 C   0  0  0  0  0  0  0  0  0  0  0  0
   61.5754   32.5625   50.6434 H   0  0  0  0  0  0  0  0  0  0  0  0
   62.7010   33.6480   49.1440 C   0  0  0  0  0  0  0  0  0  0  0  0
   62.7379   34.5742   49.7362 H   0  0  0  0  0  0  0  0  0  0  0  0
   63.3090   33.5990   47.8870 C   0  0  0  0  0  0  0  0  0  0  0  0
   63.8278   34.4849   47.4921 H   0  0  0  0  0  0  0  0  0  0  0  0
   63.2580   32.4240   47.1310 C   0  0  0  0  0  0  0  0  0  0  0  0
   63.7385   32.3859   46.1422 H   0  0  0  0  0  0  0  0  0  0  0  0
   62.5970   31.2970   47.6300 C   0  0  0  0  0  0  0  0  0  0  0  0
   62.5552   30.3757   47.0305 H   0  0  0  0  0  0  0  0  0  0  0  0
   57.1860   26.7980   46.0180 C   0  0  0  0  0  0  0  0  0  0  0  0
   57.0998   27.8416   45.6811 H   0  0  0  0  0  0  0  0  0  0  0  0
   56.0310   26.0580   46.2940 C   0  0  0  0  0  0  0  0  0  0  0  0
   54.7820   26.6520   46.1540 O   0  0  0  0  0  0  0  0  0  0  0  0
  1  2  1  0
  2  3  1  0
  3  4  2  0
  4  5  1  0
  4  6  1  0
  6  7  1  0
  6  8  2  0
  8  9  1  0
  9 10  1  0
  9 11  1  0
  9 12  1  0
 12 13  1  0
 12 14  1  0
 12 15  1  0
 15 16  2  0
 15 17  1  0
 17 18  2  0
 18 19  1  0
 19 20  2  0
 19 21  1  0
 21 22  1  0
 22 23  1  0
 22 24  1  0
 22 25  1  0
 25 26  2  0
 26 27  1  0
 26 28  1  0
 28 29  1  0
 28 30  2  0
 30 31  1  0
 30 32  1  0
 32 33  1  0
 32 34  2  0
 34 35  1  0
 18 36  1  0
 36 37  1  0
 36 38  1  0
 36 39  1  0
 39 40  2  0
 40 41  1  0
 40 42  1  0
 42 43  1  0
 42 44  2  0
 44 45  1  0
 44 46  1  0
 46 47  1  0
 46 48  2  0
 48 49  1  0
  8 50  1  0
 50 51  1  0
 50 52  2  0
 52 53  1  0
 52  3  1  0
 34 25  1  0
 48 39  1  0
M  CHG  3  21  -1  35  -1  53  -1
M  END
>  <UniqueID>  (34) 
31

>  <SMILES>  (34) 
O=C(CCc1ccc(O)c([O-])c1)/N=C(\Cc1ccccc1)C(=O)[N-]Cc1ccccc1[O-]

>  <Energy>  (34) 
53.24454428544147

>  <Genealogy>  (34) 
O=C(CCc1ccc(O)c([O-])c1)N=C(Cc1ccccc1)C(=O)[N-]Cc1ccccc1[O-] (protonated)
O=C(CCc1ccc(O)c([O-])c1)/N=C(\Cc1ccccc1)C(=O)[N-]Cc1ccccc1[O-] (cis-trans isomerization)
O=C(CCc1ccc(O)c([O-])c1)/N=C(\Cc1ccccc1)C(=O)[N-]Cc1ccccc1[O-] (3D coordinates assigned)
O=C(CCc1ccc(O)c([O-])c1)/N=C(\Cc1ccccc1)C(=O)[N-]Cc1ccccc1[O-] (optimized conformer: 53.24454428544147 kcal/mol)

>  <smiles>  (34) 
O=C(CCc1ccc(O)c(O)c1)N=C(Cc1ccccc1)C(=O)NCc1ccccc1O

>  <score_type>  (34) 
oracle

>  <origin>  (34) 
adg

>  <m_score__min__energy>  (34) 
-16.579999999999998

>  <m_primary>  (34) 
energy

$$$$
34:0
     RDKit          3D

 46 49  0  0  0  0  0  0  0  0999 V2000
   59.6809   29.2604   47.9321 H   0  0  0  0  0  0  0  0  0  0  0  0
   59.0150   28.7910   47.1930 C   0  0  0  0  0  0  0  0  0  0  0  0
   58.8508   27.7035   47.2130 H   0  0  0  0  0  0  0  0  0  0  0  0
   58.4030   29.5450   46.2670 C   0  0  0  0  0  0  0  0  0  0  0  0
   57.5260   29.1170   45.2540 C   0  0  0  0  0  0  0  0  0  0  0  0
   57.1490   27.8820   44.8680 C   0  0  0  0  0  0  0  0  0  0  0  0
   56.7831   27.7685   43.8369 H   0  0  0  0  0  0  0  0  0  0  0  0
   57.1840   26.6690   45.7070 C   0  0  0  0  0  0  0  0  0  0  0  0
   56.0070   26.1350   46.2590 C   0  0  0  0  0  0  0  0  0  0  0  0
   54.7710   26.7140   45.9920 O   0  0  0  0  0  0  0  0  0  0  0  0
   56.0720   25.0440   47.0640 N   0  0  0  0  0  0  0  0  0  0  0  0
   57.2630   24.4640   47.3620 C   0  0  0  0  0  0  0  0  0  0  0  0
   57.2990   23.4510   48.1080 O   0  0  0  0  0  0  0  0  0  0  0  0
   58.4150   24.9790   46.8620 N   0  0  0  0  0  0  0  0  0  0  0  0
   58.4030   26.0680   46.0520 C   0  0  0  0  0  0  0  0  0  0  0  0
   59.4920   26.5260   45.6120 O   0  0  0  0  0  0  0  0  0  0  0  0
   57.0710   30.2650   44.6250 C   0  0  0  0  0  0  0  0  0  0  0  0
   56.3492   30.3152   43.7965 H   0  0  0  0  0  0  0  0  0  0  0  0
   57.6950   31.3320   45.2350 C   0  0  0  0  0  0  0  0  0  0  0  0
   57.5120   32.7660   44.8420 C   0  0  0  0  0  0  0  0  0  0  0  0
   57.4328   33.3868   45.7466 H   0  0  0  0  0  0  0  0  0  0  0  0
   58.3754   33.0957   44.2454 H   0  0  0  0  0  0  0  0  0  0  0  0
   56.5935   32.8683   44.2454 H   0  0  0  0  0  0  0  0  0  0  0  0
   58.5100   30.8990   46.2210 N   0  0  0  0  0  0  0  0  0  0  0  0
   59.2860   31.7440   47.0890 C   0  0  0  0  0  0  0  0  0  0  0  0
   60.4120   32.4190   46.5970 C   0  0  0  0  0  0  0  0  0  0  0  0
   60.6966   32.3122   45.5398 H   0  0  0  0  0  0  0  0  0  0  0  0
   61.1740   33.2270   47.4450 C   0  0  0  0  0  0  0  0  0  0  0  0
   62.0594   33.7487   47.0526 H   0  0  0  0  0  0  0  0  0  0  0  0
   60.8180   33.3770   48.7910 C   0  0  0  0  0  0  0  0  0  0  0  0
   61.6160   34.1850   49.6130 O   0  0  0  0  0  0  0  0  0  0  0  0
   62.9430   33.9150   49.9770 C   0  0  0  0  0  0  0  0  0  0  0  0
   63.7700   33.0730   49.2080 C   0  0  0  0  0  0  0  0  0  0  0  0
   63.3822   32.6166   48.2853 H   0  0  0  0  0  0  0  0  0  0  0  0
   65.0830   32.8160   49.6150 C   0  0  0  0  0  0  0  0  0  0  0  0
   65.7288   32.1653   49.0071 H   0  0  0  0  0  0  0  0  0  0  0  0
   65.5760   33.3840   50.7920 C   0  0  0  0  0  0  0  0  0  0  0  0
   66.6111   33.1854   51.1069 H   0  0  0  0  0  0  0  0  0  0  0  0
   64.7550   34.2040   51.5690 C   0  0  0  0  0  0  0  0  0  0  0  0
   65.1422   34.6467   52.4986 H   0  0  0  0  0  0  0  0  0  0  0  0
   63.4400   34.4630   51.1660 C   0  0  0  0  0  0  0  0  0  0  0  0
   62.7933   35.1006   51.7867 H   0  0  0  0  0  0  0  0  0  0  0  0
   59.7030   32.6780   49.2900 C   0  0  0  0  0  0  0  0  0  0  0  0
   59.4304   32.7672   50.3520 H   0  0  0  0  0  0  0  0  0  0  0  0
   58.9410   31.8710   48.4410 C   0  0  0  0  0  0  0  0  0  0  0  0
   58.0665   31.3331   48.8359 H   0  0  0  0  0  0  0  0  0  0  0  0
  1  2  1  0
  2  3  1  0
  2  4  2  0
  4  5  1  0
  5  6  2  0
  6  7  1  0
  6  8  1  0
  8  9  2  0
  9 10  1  0
  9 11  1  0
 11 12  1  0
 12 13  2  0
 12 14  1  0
 14 15  1  0
 15 16  2  0
  5 17  1  0
 17 18  1  0
 17 19  2  0
 19 20  1  0
 20 21  1  0
 20 22  1  0
 20 23  1  0
 19 24  1  0
 24 25  1  0
 25 26  2  0
 26 27  1  0
 26 28  1  0
 28 29  1  0
 28 30  2  0
 30 31  1  0
 31 32  1  0
 32 33  2  0
 33 34  1  0
 33 35  1  0
 35 36  1  0
 35 37  2  0
 37 38  1  0
 37 39  1  0
 39 40  1  0
 39 41  2  0
 41 42  1  0
 30 43  1  0
 43 44  1  0
 43 45  2  0
 45 46  1  0
 24  4  1  0
 45 25  1  0
 15  8  1  0
 41 32  1  0
M  CHG  3  10  -1  11  -1  14  -1
M  END
>  <UniqueID>  (35) 
32

>  <SMILES>  (35) 
C=c1/c(=C\c2c([O-])[n-]c(=O)[n-]c2=O)cc(C)n1-c1ccc(Oc2ccccc2)cc1

>  <Energy>  (35) 
106.72312720011114

>  <Genealogy>  (35) 
C=c1c(=Cc2c([O-])[n-]c(=O)[n-]c2=O)cc(C)n1-c1ccc(Oc2ccccc2)cc1 (protonated)
C=c1/c(=C\c2c([O-])[n-]c(=O)[n-]c2=O)cc(C)n1-c1ccc(Oc2ccccc2)cc1 (cis-trans isomerization)
C=c1/c(=C\c2c([O-])[n-]c(=O)[n-]c2=O)cc(C)n1-c1ccc(Oc2ccccc2)cc1 (3D coordinates assigned)
C=c1/c(=C\c2c([O-])[n-]c(=O)[n-]c2=O)cc(C)n1-c1ccc(Oc2ccccc2)cc1 (optimized conformer: 106.72312720011114 kcal/mol)

>  <smiles>  (35) 
C=c1c(=Cc2c(O)[nH]c(=O)[nH]c2=O)cc(C)n1-c1ccc(Oc2ccccc2)cc1

>  <score_type>  (35) 
oracle

>  <origin>  (35) 
adg

>  <m_score__min__energy>  (35) 
-15.98

>  <m_primary>  (35) 
energy

$$$$
35:0
     RDKit          3D

 64 67  0  0  0  0  0  0  0  0999 V2000
   59.2350   28.0200   46.9770 C   0  0  0  0  0  0  0  0  0  0  0  0
   58.5930   28.5890   45.9450 C   0  0  0  0  0  0  0  0  0  0  0  0
   57.7950   27.9480   44.9820 C   0  0  0  0  0  0  0  0  0  0  0  0
   57.5870   26.6410   44.7280 C   0  0  0  0  0  0  0  0  0  0  0  0
   57.0290   25.6570   45.6690 C   0  0  0  0  0  0  0  0  0  0  0  0
   57.6250   24.4990   46.0130 N   0  0  0  0  0  0  0  0  0  0  0  0
   56.6900   23.8820   46.7700 C   0  0  0  0  0  0  0  0  0  0  0  0
   56.8840   22.7580   47.3030 O   0  0  0  0  0  0  0  0  0  0  0  0
   55.5310   24.5600   46.9050 N   0  0  0  0  0  0  0  0  0  0  0  0
   55.7570   25.6730   46.1880 C   0  0  0  0  0  0  0  0  0  0  0  0
   54.8190   26.6810   46.0080 O   0  0  0  0  0  0  0  0  0  0  0  0
   57.2040   28.9560   44.2370 C   0  0  0  0  0  0  0  0  0  0  0  0
   57.6890   30.1520   44.7220 C   0  0  0  0  0  0  0  0  0  0  0  0
   57.3340   31.5010   44.1750 C   0  0  0  0  0  0  0  0  0  0  0  0
   58.5420   29.9320   45.7480 N   0  0  0  0  0  0  0  0  0  0  0  0
   59.1760   30.9600   46.5320 C   0  0  0  0  0  0  0  0  0  0  0  0
   58.4350   31.6820   47.4770 C   0  0  0  0  0  0  0  0  0  0  0  0
   59.0540   32.6580   48.2620 C   0  0  0  0  0  0  0  0  0  0  0  0
   60.4280   32.9180   48.1210 C   0  0  0  0  0  0  0  0  0  0  0  0
   61.0860   33.9570   48.9450 C   0  0  0  0  0  0  0  0  0  0  0  0
   60.4190   34.9560   49.3290 O   0  0  0  0  0  0  0  0  0  0  0  0
   62.4650   33.8370   49.3370 N   0  0  0  0  0  0  0  0  0  0  0  0
   63.4950   33.5380   48.3320 C   0  0  0  0  0  0  0  0  0  0  0  0
   64.5310   32.5330   48.8710 C   0  0  0  0  0  0  0  0  0  0  0  0
   64.7310   32.6140   50.4040 C   0  0  0  0  0  0  0  0  0  0  0  0
   66.1460   32.2400   50.7710 C   0  0  0  0  0  0  0  0  0  0  0  0
   66.4580   31.0280   50.9260 O   0  0  0  0  0  0  0  0  0  0  0  0
   67.1170   33.2690   51.0080 N   0  0  0  0  0  0  0  0  0  0  0  0
   68.4760   32.9810   51.4680 C   0  0  0  0  0  0  0  0  0  0  0  0
   69.3610   34.2290   51.3780 C   0  0  0  0  0  0  0  0  0  0  0  0
   68.6600   35.2960   50.7630 O   0  0  0  0  0  0  0  0  0  0  0  0
   68.6160   36.4150   51.6210 C   0  0  0  0  0  0  0  0  0  0  0  0
   64.3460   33.9990   50.9550 C   0  0  0  0  0  0  0  0  0  0  0  0
   62.8620   34.2780   50.6830 C   0  0  0  0  0  0  0  0  0  0  0  0
   61.1660   32.1990   47.1670 C   0  0  0  0  0  0  0  0  0  0  0  0
   60.5460   31.2190   46.3850 C   0  0  0  0  0  0  0  0  0  0  0  0
   59.8311   28.6397   47.6630 H   0  0  0  0  0  0  0  0  0  0  0  0
   59.1651   26.9339   47.1369 H   0  0  0  0  0  0  0  0  0  0  0  0
   57.8590   26.2767   43.7264 H   0  0  0  0  0  0  0  0  0  0  0  0
   56.4847   28.8265   43.4149 H   0  0  0  0  0  0  0  0  0  0  0  0
   57.1508   32.1973   45.0067 H   0  0  0  0  0  0  0  0  0  0  0  0
   58.1639   31.8766   43.5584 H   0  0  0  0  0  0  0  0  0  0  0  0
   56.4267   31.4195   43.5584 H   0  0  0  0  0  0  0  0  0  0  0  0
   57.3610   31.4794   47.6014 H   0  0  0  0  0  0  0  0  0  0  0  0
   58.4624   33.2264   48.9948 H   0  0  0  0  0  0  0  0  0  0  0  0
   63.0121   33.1109   47.4407 H   0  0  0  0  0  0  0  0  0  0  0  0
   64.0172   34.4734   48.0825 H   0  0  0  0  0  0  0  0  0  0  0  0
   64.1951   31.5168   48.6170 H   0  0  0  0  0  0  0  0  0  0  0  0
   65.4959   32.7822   48.4054 H   0  0  0  0  0  0  0  0  0  0  0  0
   64.0537   31.8870   50.8759 H   0  0  0  0  0  0  0  0  0  0  0  0
   66.8580   34.2640   50.8220 H   0  0  0  0  0  0  0  0  0  0  0  0
   68.4377   32.6415   52.5136 H   0  0  0  0  0  0  0  0  0  0  0  0
   68.9058   32.1988   50.8250 H   0  0  0  0  0  0  0  0  0  0  0  0
   69.6628   34.5317   52.3916 H   0  0  0  0  0  0  0  0  0  0  0  0
   70.2473   33.9915   50.7713 H   0  0  0  0  0  0  0  0  0  0  0  0
   68.6293   36.0756   52.6672 H   0  0  0  0  0  0  0  0  0  0  0  0
   69.4896   37.0563   51.4324 H   0  0  0  0  0  0  0  0  0  0  0  0
   67.6947   36.9857   51.4324 H   0  0  0  0  0  0  0  0  0  0  0  0
   64.5284   34.0231   52.0395 H   0  0  0  0  0  0  0  0  0  0  0  0
   64.9551   34.7678   50.4570 H   0  0  0  0  0  0  0  0  0  0  0  0
   62.2557   33.7413   51.4276 H   0  0  0  0  0  0  0  0  0  0  0  0
   62.6983   35.3636   50.7511 H   0  0  0  0  0  0  0  0  0  0  0  0
   62.2378   32.4077   47.0339 H   0  0  0  0  0  0  0  0  0  0  0  0
   61.1356   30.6492   45.6517 H   0  0  0  0  0  0  0  0  0  0  0  0
  1  2  2  0
  2  3  1  0
  3  4  2  3
  4  5  1  0
  5  6  1  0
  6  7  1  0
  7  8  2  0
  7  9  1  0
  9 10  1  0
 10 11  1  0
  3 12  1  0
 12 13  2  0
 13 14  1  0
 13 15  1  0
 15 16  1  0
 16 17  2  0
 17 18  1  0
 18 19  2  0
 19 20  1  0
 20 21  2  0
 20 22  1  0
 22 23  1  0
 23 24  1  0
 24 25  1  0
 25 26  1  0
 26 27  2  0
 26 28  1  0
 28 29  1  0
 29 30  1  0
 30 31  1  0
 31 32  1  0
 25 33  1  0
 33 34  1  0
 19 35  1  0
 35 36  2  0
 15  2  1  0
 36 16  1  0
 10  5  2  0
 34 22  1  0
  1 37  1  0
  1 38  1  0
  4 39  1  0
 12 40  1  0
 14 41  1  0
 14 42  1  0
 14 43  1  0
 17 44  1  0
 18 45  1  0
 23 46  1  0
 23 47  1  0
 24 48  1  0
 24 49  1  0
 25 50  1  0
 28 51  1  0
 29 52  1  0
 29 53  1  0
 30 54  1  0
 30 55  1  0
 32 56  1  0
 32 57  1  0
 32 58  1  0
 33 59  1  0
 33 60  1  0
 34 61  1  0
 34 62  1  0
 35 63  1  0
 36 64  1  0
M  CHG  3   6  -1   9  -1  11  -1
M  END
>  <UniqueID>  (36) 
33

>  <SMILES>  (36) 
C=c1c(=Cc2[n-]c(=O)[n-]c2[O-])cc(C)n1-c1ccc(C(=O)N2CCC(C(=O)NCCOC)CC2)cc1

>  <Energy>  (36) 
145.6401882730548

>  <Genealogy>  (36) 
C=c1c(=Cc2[n-]c(=O)[n-]c2[O-])cc(C)n1-c1ccc(C(=O)N2CCC(C(=O)NCCOC)CC2)cc1 (protonated)
C=c1c(=Cc2[n-]c(=O)[n-]c2[O-])cc(C)n1-c1ccc(C(=O)N2CCC(C(=O)NCCOC)CC2)cc1 (3D coordinates assigned)
C=c1c(=Cc2[n-]c(=O)[n-]c2[O-])cc(C)n1-c1ccc(C(=O)N2CCC(C(=O)NCCOC)CC2)cc1 (nonaromatic ring conformer: 145.6401882730548 kcal/mol)

>  <smiles>  (36) 
C=c1c(=Cc2[nH]c(=O)[nH]c2O)cc(C)n1-c1ccc(C(=O)N2CCC(C(=O)NCCOC)CC2)cc1

>  <score_type>  (36) 
oracle

>  <origin>  (36) 
adg

>  <m_score__min__energy>  (36) 
-16.390000000000001

>  <m_primary>  (36) 
energy

$$$$
36:0
     RDKit          3D

 38 39  0  0  0  0  0  0  0  0999 V2000
   58.7150   29.0810   49.0250 O   0  0  0  0  0  0  0  0  0  0  0  0
   58.6430   30.0680   49.8060 C   0  0  0  0  0  0  0  0  0  0  0  0
   59.4200   31.3100   49.5100 C   0  0  0  0  0  0  0  0  0  0  0  0
   60.2300   31.1190   48.3140 N   0  0  0  0  0  0  0  0  0  0  0  0
   60.6040   32.1820   47.4290 C   0  0  0  0  0  0  0  0  0  0  0  0
   61.8040   32.5680   47.3950 O   0  0  0  0  0  0  0  0  0  0  0  0
   59.5900   32.8450   46.5680 C   0  0  0  0  0  0  0  0  0  0  0  0
   59.8360   34.1490   46.0920 C   0  0  0  0  0  0  0  0  0  0  0  0
   58.9040   34.8010   45.2830 C   0  0  0  0  0  0  0  0  0  0  0  0
   57.7140   34.1650   44.9330 C   0  0  0  0  0  0  0  0  0  0  0  0
   57.4550   32.8710   45.3870 C   0  0  0  0  0  0  0  0  0  0  0  0
   58.3840   32.2030   46.1990 C   0  0  0  0  0  0  0  0  0  0  0  0
   58.1090   30.9000   46.6200 O   0  0  0  0  0  0  0  0  0  0  0  0
   57.8010   30.0210   50.9620 N   0  0  0  0  0  0  0  0  0  0  0  0
   56.9410   31.1230   51.3760 C   0  0  0  0  0  0  0  0  0  0  0  0
   55.6660   30.5980   51.9540 C   0  0  0  0  0  0  0  0  0  0  0  0
   55.6840   30.0110   53.0690 O   0  0  0  0  0  0  0  0  0  0  0  0
   54.4360   30.8000   51.2500 N   0  0  0  0  0  0  0  0  0  0  0  0
   53.1260   30.8660   51.8330 C   0  0  0  0  0  0  0  0  0  0  0  0
   52.7180   29.8370   52.6920 C   0  0  0  0  0  0  0  0  0  0  0  0
   51.4600   29.8800   53.3000 C   0  0  0  0  0  0  0  0  0  0  0  0
   50.6050   30.9600   53.0650 C   0  0  0  0  0  0  0  0  0  0  0  0
   51.0110   32.0040   52.2310 C   0  0  0  0  0  0  0  0  0  0  0  0
   50.1680   33.0870   52.0130 O   0  0  0  0  0  0  0  0  0  0  0  0
   52.2690   31.9620   51.6190 C   0  0  0  0  0  0  0  0  0  0  0  0
   58.7231   32.1456   49.3482 H   0  0  0  0  0  0  0  0  0  0  0  0
   60.0803   31.5337   50.3609 H   0  0  0  0  0  0  0  0  0  0  0  0
   60.7730   34.6584   46.3612 H   0  0  0  0  0  0  0  0  0  0  0  0
   59.1091   35.8192   44.9208 H   0  0  0  0  0  0  0  0  0  0  0  0
   56.9792   34.6830   44.2991 H   0  0  0  0  0  0  0  0  0  0  0  0
   56.5161   32.3713   45.1063 H   0  0  0  0  0  0  0  0  0  0  0  0
   58.6200   30.4680   47.3800 H   0  0  0  0  0  0  0  0  0  0  0  0
   57.4625   31.7249   52.1348 H   0  0  0  0  0  0  0  0  0  0  0  0
   56.7070   31.7432   50.4982 H   0  0  0  0  0  0  0  0  0  0  0  0
   53.3917   28.9901   52.8892 H   0  0  0  0  0  0  0  0  0  0  0  0
   51.1427   29.0626   53.9643 H   0  0  0  0  0  0  0  0  0  0  0  0
   49.6118   30.9879   53.5371 H   0  0  0  0  0  0  0  0  0  0  0  0
   52.5893   32.7889   50.9681 H   0  0  0  0  0  0  0  0  0  0  0  0
  1  2  2  0
  2  3  1  0
  3  4  1  0
  4  5  1  0
  5  6  2  0
  5  7  1  0
  7  8  2  0
  8  9  1  0
  9 10  2  0
 10 11  1  0
 11 12  2  0
 12 13  1  0
  2 14  1  0
 14 15  1  0
 15 16  1  0
 16 17  2  0
 16 18  1  0
 18 19  1  0
 19 20  2  0
 20 21  1  0
 21 22  2  0
 22 23  1  0
 23 24  1  0
 23 25  2  0
 12  7  1  0
 25 19  1  0
  3 26  1  0
  3 27  1  0
  8 28  1  0
  9 29  1  0
 10 30  1  0
 11 31  1  0
 13 32  1  0
 15 33  1  0
 15 34  1  0
 20 35  1  0
 21 36  1  0
 22 37  1  0
 25 38  1  0
M  CHG  4   4  -1  14  -1  18  -1  24  -1
M  END
>  <UniqueID>  (37) 
34

>  <SMILES>  (37) 
O=C(C[N-]C(=O)c1ccccc1O)[N-]CC(=O)[N-]c1cccc([O-])c1

>  <Energy>  (37) 
38.32182129173795

>  <Genealogy>  (37) 
O=C(C[N-]C(=O)c1ccccc1O)[N-]CC(=O)[N-]c1cccc([O-])c1 (protonated)
O=C(C[N-]C(=O)c1ccccc1O)[N-]CC(=O)[N-]c1cccc([O-])c1 (3D coordinates assigned)
O=C(C[N-]C(=O)c1ccccc1O)[N-]CC(=O)[N-]c1cccc([O-])c1 (optimized conformer: 38.32182129173795 kcal/mol)

>  <smiles>  (37) 
O=C(CNC(=O)c1ccccc1O)NCC(=O)Nc1cccc(O)c1

>  <score_type>  (37) 
oracle

>  <origin>  (37) 
adg

>  <m_score__min__energy>  (37) 
-14.18

>  <m_primary>  (37) 
energy

$$$$
37:0
     RDKit          3D

 40 42  0  0  0  0  0  0  0  0999 V2000
   61.7710   33.7190   46.3460 C   0  0  0  0  0  0  0  0  0  0  0  0
   60.2860   33.5750   46.6890 C   0  0  0  0  0  0  0  0  0  0  0  0
   59.4600   34.7510   46.1550 C   0  0  0  0  0  0  0  0  0  0  0  0
   59.7800   32.3470   46.1720 O   0  0  0  0  0  0  0  0  0  0  0  0
   59.3090   31.5190   47.1930 C   0  0  0  0  0  0  0  0  0  0  0  0
   58.7010   30.2030   46.9070 C   0  0  0  0  0  0  0  0  0  0  0  0
   59.1020   29.0460   47.5950 C   0  0  0  0  0  0  0  0  0  0  0  0
   58.5050   27.8140   47.3160 C   0  0  0  0  0  0  0  0  0  0  0  0
   57.4900   27.7220   46.3530 C   0  0  0  0  0  0  0  0  0  0  0  0
   56.7350   26.1670   46.0060 S   0  0  0  0  0  0  0  0  0  0  0  0
   55.0130   26.3190   46.0000 N   0  0  0  0  0  0  0  0  0  0  0  0
   57.1920   25.6810   44.6600 O   0  0  0  0  0  0  0  0  0  0  0  0
   57.1250   25.1680   47.0590 O   0  0  0  0  0  0  0  0  0  0  0  0
   57.0600   28.8840   45.6910 C   0  0  0  0  0  0  0  0  0  0  0  0
   56.0580   28.8270   44.7770 F   0  0  0  0  0  0  0  0  0  0  0  0
   57.6600   30.1150   45.9710 C   0  0  0  0  0  0  0  0  0  0  0  0
   59.4770   32.0850   48.3910 C   0  0  0  0  0  0  0  0  0  0  0  0
   59.2240   31.4890   49.7220 C   0  0  0  0  0  0  0  0  0  0  0  0
   58.0350   31.7670   50.4190 C   0  0  0  0  0  0  0  0  0  0  0  0
   57.8050   31.2010   51.6770 C   0  0  0  0  0  0  0  0  0  0  0  0
   56.3250   31.5650   52.5440 Cl  0  0  0  0  0  0  0  0  0  0  0  0
   58.7540   30.3410   52.2410 C   0  0  0  0  0  0  0  0  0  0  0  0
   59.9310   30.0470   51.5470 C   0  0  0  0  0  0  0  0  0  0  0  0
   61.1180   28.9670   52.2550 Cl  0  0  0  0  0  0  0  0  0  0  0  0
   60.1640   30.6160   50.2900 C   0  0  0  0  0  0  0  0  0  0  0  0
   60.0800   33.3880   48.1560 C   0  0  0  0  0  0  0  0  0  0  0  0
   60.4080   34.2140   49.0520 O   0  0  0  0  0  0  0  0  0  0  0  0
   62.3580   33.7759   47.2746 H   0  0  0  0  0  0  0  0  0  0  0  0
   62.0977   32.8483   45.7585 H   0  0  0  0  0  0  0  0  0  0  0  0
   61.9244   34.6362   45.7585 H   0  0  0  0  0  0  0  0  0  0  0  0
   59.0548   35.3279   46.9994 H   0  0  0  0  0  0  0  0  0  0  0  0
   60.1012   35.4007   45.5412 H   0  0  0  0  0  0  0  0  0  0  0  0
   58.6313   34.3682   45.5412 H   0  0  0  0  0  0  0  0  0  0  0  0
   59.8913   29.1103   48.3585 H   0  0  0  0  0  0  0  0  0  0  0  0
   58.8327   26.9123   47.8541 H   0  0  0  0  0  0  0  0  0  0  0  0
   54.7720   27.0910   46.6610 H   0  0  0  0  0  0  0  0  0  0  0  0
   57.3132   31.0216   45.4534 H   0  0  0  0  0  0  0  0  0  0  0  0
   57.2819   32.4330   49.9726 H   0  0  0  0  0  0  0  0  0  0  0  0
   58.5736   29.8963   53.2308 H   0  0  0  0  0  0  0  0  0  0  0  0
   61.0889   30.3776   49.7444 H   0  0  0  0  0  0  0  0  0  0  0  0
  1  2  1  0
  2  3  1  0
  2  4  1  0
  4  5  1  0
  5  6  1  0
  6  7  2  0
  7  8  1  0
  8  9  2  0
  9 10  1  0
 10 11  1  0
 10 12  2  0
 10 13  2  0
  9 14  1  0
 14 15  1  0
 14 16  2  0
  5 17  2  0
 17 18  1  0
 18 19  2  0
 19 20  1  0
 20 21  1  0
 20 22  2  0
 22 23  1  0
 23 24  1  0
 23 25  2  0
 17 26  1  0
 26 27  2  0
 26  2  1  0
 16  6  1  0
 25 18  1  0
  1 28  1  0
  1 29  1  0
  1 30  1  0
  3 31  1  0
  3 32  1  0
  3 33  1  0
  7 34  1  0
  8 35  1  0
 11 36  1  0
 16 37  1  0
 19 38  1  0
 22 39  1  0
 25 40  1  0
M  CHG  1  11  -1
M  END
>  <UniqueID>  (38) 
35

>  <SMILES>  (38) 
CC1(C)OC(c2ccc(S([NH-])(=O)=O)c(F)c2)=C(c2cc(Cl)cc(Cl)c2)C1=O

>  <Energy>  (38) 
64.56362162365346

>  <Genealogy>  (38) 
CC1(C)OC(c2ccc(S([NH-])(=O)=O)c(F)c2)=C(c2cc(Cl)cc(Cl)c2)C1=O (protonated)
CC1(C)OC(c2ccc(S([NH-])(=O)=O)c(F)c2)=C(c2cc(Cl)cc(Cl)c2)C1=O (3D coordinates assigned)
CC1(C)OC(c2ccc(S([NH-])(=O)=O)c(F)c2)=C(c2cc(Cl)cc(Cl)c2)C1=O (nonaromatic ring conformer: 64.56362162365346 kcal/mol)

>  <smiles>  (38) 
CC1(C)OC(c2ccc(S(N)(=O)=O)c(F)c2)=C(c2cc(Cl)cc(Cl)c2)C1=O

>  <score_type>  (38) 
oracle

>  <origin>  (38) 
adg

>  <m_score__min__energy>  (38) 
-10.75

>  <m_primary>  (38) 
energy

$$$$
38:0
     RDKit          3D

 50 53  0  0  0  0  0  0  0  0999 V2000
   60.6140   27.4700   46.1150 H   0  0  0  0  0  0  0  0  0  0  0  0
   60.1580   27.9990   45.3850 O   0  0  0  0  0  0  0  0  0  0  0  0
   58.7710   28.1210   45.3220 C   0  0  0  0  0  0  0  0  0  0  0  0
   58.0990   29.1690   44.7220 C   0  0  0  0  0  0  0  0  0  0  0  0
   56.7550   28.9270   44.8990 C   0  0  0  0  0  0  0  0  0  0  0  0
   56.6580   27.7210   45.5600 C   0  0  0  0  0  0  0  0  0  0  0  0
   55.4700   27.0840   45.8970 O   0  0  0  0  0  0  0  0  0  0  0  0
   57.8870   27.2330   45.8380 N   0  0  0  0  0  0  0  0  0  0  0  0
   58.1850   25.9780   46.5290 C   0  0  0  0  0  0  0  0  0  0  0  0
   57.9707   25.1344   45.8564 H   0  0  0  0  0  0  0  0  0  0  0  0
   57.5597   25.9108   47.4315 H   0  0  0  0  0  0  0  0  0  0  0  0
   59.6230   25.9330   46.9320 C   0  0  0  0  0  0  0  0  0  0  0  0
   60.4400   25.2650   46.2400 O   0  0  0  0  0  0  0  0  0  0  0  0
   60.0610   26.6850   48.0740 N   0  0  0  0  0  0  0  0  0  0  0  0
   59.7920   27.9350   48.3090 C   0  0  0  0  0  0  0  0  0  0  0  0
   58.5620   28.4030   48.6220 N   0  0  0  0  0  0  0  0  0  0  0  0
   58.5650   29.7540   48.7640 C   0  0  0  0  0  0  0  0  0  0  0  0
   57.6669   30.3216   49.0492 H   0  0  0  0  0  0  0  0  0  0  0  0
   59.7960   30.3670   48.5200 C   0  0  0  0  0  0  0  0  0  0  0  0
   60.1220   31.8300   48.6210 C   0  0  0  0  0  0  0  0  0  0  0  0
   61.2148   31.9521   48.5907 H   0  0  0  0  0  0  0  0  0  0  0  0
   59.7028   32.2044   49.5665 H   0  0  0  0  0  0  0  0  0  0  0  0
   59.5110   32.6320   47.4930 C   0  0  0  0  0  0  0  0  0  0  0  0
   58.1170   32.8200   47.4670 C   0  0  0  0  0  0  0  0  0  0  0  0
   57.4901   32.3674   48.2494 H   0  0  0  0  0  0  0  0  0  0  0  0
   57.5240   33.5770   46.4550 C   0  0  0  0  0  0  0  0  0  0  0  0
   56.4330   33.7171   46.4414 H   0  0  0  0  0  0  0  0  0  0  0  0
   58.3130   34.1560   45.4610 C   0  0  0  0  0  0  0  0  0  0  0  0
   57.8427   34.7500   44.6636 H   0  0  0  0  0  0  0  0  0  0  0  0
   59.7000   33.9830   45.4760 C   0  0  0  0  0  0  0  0  0  0  0  0
   60.3164   34.4441   44.6902 H   0  0  0  0  0  0  0  0  0  0  0  0
   60.3150   33.2210   46.4920 C   0  0  0  0  0  0  0  0  0  0  0  0
   61.7080   33.0330   46.5310 O   0  0  0  0  0  0  0  0  0  0  0  0
   62.6150   33.8450   47.2700 C   0  0  0  0  0  0  0  0  0  0  0  0
   62.4476   33.6951   48.3468 H   0  0  0  0  0  0  0  0  0  0  0  0
   63.6481   33.5644   47.0170 H   0  0  0  0  0  0  0  0  0  0  0  0
   62.4499   34.9027   47.0170 H   0  0  0  0  0  0  0  0  0  0  0  0
   60.9230   29.1670   48.1730 S   0  0  0  0  0  0  0  0  0  0  0  0
   55.6690   29.8010   44.3520 C   0  0  0  0  0  0  0  0  0  0  0  0
   54.8481   29.8620   45.0817 H   0  0  0  0  0  0  0  0  0  0  0  0
   55.2991   29.3705   43.4097 H   0  0  0  0  0  0  0  0  0  0  0  0
   56.2180   31.2170   44.0810 C   0  0  0  0  0  0  0  0  0  0  0  0
   56.3719   31.7301   45.0417 H   0  0  0  0  0  0  0  0  0  0  0  0
   55.4874   31.7563   43.4603 H   0  0  0  0  0  0  0  0  0  0  0  0
   57.5600   31.1700   43.3170 C   0  0  0  0  0  0  0  0  0  0  0  0
   57.8994   32.2000   43.1326 H   0  0  0  0  0  0  0  0  0  0  0  0
   57.3937   30.6294   42.3735 H   0  0  0  0  0  0  0  0  0  0  0  0
   58.6530   30.4200   44.1080 C   0  0  0  0  0  0  0  0  0  0  0  0
   59.0354   31.0747   44.9050 H   0  0  0  0  0  0  0  0  0  0  0  0
   59.4640   30.1457   43.4173 H   0  0  0  0  0  0  0  0  0  0  0  0
  1  2  1  0
  2  3  1  0
  3  4  2  0
  4  5  1  0
  5  6  2  0
  6  7  1  0
  6  8  1  0
  8  9  1  0
  9 10  1  0
  9 11  1  0
  9 12  1  0
 12 13  2  0
 12 14  1  0
 14 15  2  0
 15 16  1  0
 16 17  1  0
 17 18  1  0
 17 19  2  0
 19 20  1  0
 20 21  1  0
 20 22  1  0
 20 23  1  0
 23 24  2  0
 24 25  1  0
 24 26  1  0
 26 27  1  0
 26 28  2  0
 28 29  1  0
 28 30  1  0
 30 31  1  0
 30 32  2  0
 32 33  1  0
 33 34  1  0
 34 35  1  0
 34 36  1  0
 34 37  1  0
 19 38  1  0
  5 39  1  0
 39 40  1  0
 39 41  1  0
 39 42  1  0
 42 43  1  0
 42 44  1  0
 42 45  1  0
 45 46  1  0
 45 47  1  0
 45 48  1  0
 48 49  1  0
 48 50  1  0
  8  3  1  0
 38 15  1  0
 48  4  1  0
 32 23  1  0
M  CHG  2   7  -1  16  -1
M  END
>  <UniqueID>  (39) 
36

>  <SMILES>  (39) 
COc1ccccc1Cc1c[n-]/c(=N\C(=O)Cn2c([O-])c3c(c2O)CCCC3)s1

>  <Energy>  (39) 
111.95714133601858

>  <Genealogy>  (39) 
COc1ccccc1Cc1c[n-]c(=NC(=O)Cn2c([O-])c3c(c2O)CCCC3)s1 (protonated)
COc1ccccc1Cc1c[n-]/c(=N\C(=O)Cn2c([O-])c3c(c2O)CCCC3)s1 (cis-trans isomerization)
COc1ccccc1Cc1c[n-]/c(=N\C(=O)Cn2c([O-])c3c(c2O)CCCC3)s1 (3D coordinates assigned)
COc1ccccc1Cc1c[n-]/c(=N\C(=O)Cn2c([O-])c3c(c2O)CCCC3)s1 (nonaromatic ring conformer: 111.95714133601858 kcal/mol)

>  <smiles>  (39) 
COc1ccccc1Cc1c[nH]c(=NC(=O)Cn2c(O)c3c(c2O)CCCC3)s1

>  <score_type>  (39) 
oracle

>  <origin>  (39) 
adg

>  <m_score__min__energy>  (39) 
-13.119999999999999

>  <m_primary>  (39) 
energy

$$$$
39:0
     RDKit          3D

 50 53  0  0  0  0  0  0  0  0999 V2000
   60.5610   30.0750   50.3260 N   0  0  0  0  0  0  0  0  0  0  0  0
   60.4500   29.7180   48.9460 C   0  0  0  0  0  0  0  0  0  0  0  0
   61.0960   30.4840   47.9640 C   0  0  0  0  0  0  0  0  0  0  0  0
   60.9870   30.1330   46.6150 C   0  0  0  0  0  0  0  0  0  0  0  0
   60.2230   29.0220   46.2380 C   0  0  0  0  0  0  0  0  0  0  0  0
   60.1280   28.5430   44.5120 S   0  0  0  0  0  0  0  0  0  0  0  0
   58.5670   29.3960   44.2930 C   0  0  0  0  0  0  0  0  0  0  0  0
   57.4700   28.7230   43.7450 C   0  0  0  0  0  0  0  0  0  0  0  0
   56.2320   29.3630   43.6580 C   0  0  0  0  0  0  0  0  0  0  0  0
   56.0890   30.6750   44.1160 C   0  0  0  0  0  0  0  0  0  0  0  0
   57.1830   31.3650   44.6550 C   0  0  0  0  0  0  0  0  0  0  0  0
   56.9970   32.7330   45.0470 N   0  0  0  0  0  0  0  0  0  0  0  0
   57.9630   33.6490   45.5810 C   0  0  0  0  0  0  0  0  0  0  0  0
   58.3130   34.6210   44.8600 O   0  0  0  0  0  0  0  0  0  0  0  0
   58.4990   33.5510   46.9630 C   0  0  0  0  0  0  0  0  0  0  0  0
   59.2970   34.5890   47.4710 C   0  0  0  0  0  0  0  0  0  0  0  0
   59.7600   34.5500   48.7890 C   0  0  0  0  0  0  0  0  0  0  0  0
   59.4440   33.4730   49.6260 C   0  0  0  0  0  0  0  0  0  0  0  0
   59.9150   33.4900   50.9860 N   0  0  0  0  0  0  0  0  0  0  0  0
   61.4750   32.9220   51.4980 S   0  0  0  0  0  0  0  0  0  0  0  0
   62.0000   33.8570   52.5480 O   0  0  0  0  0  0  0  0  0  0  0  0
   61.3570   31.5460   52.0900 O   0  0  0  0  0  0  0  0  0  0  0  0
   62.6000   32.9220   50.1510 C   0  0  0  0  0  0  0  0  0  0  0  0
   63.3780   31.8500   49.7350 C   0  0  0  0  0  0  0  0  0  0  0  0
   64.1480   32.1430   48.6010 C   0  0  0  0  0  0  0  0  0  0  0  0
   63.9640   33.4350   48.1190 C   0  0  0  0  0  0  0  0  0  0  0  0
   62.8400   34.2130   49.1020 S   0  0  0  0  0  0  0  0  0  0  0  0
   58.6460   32.4310   49.1220 C   0  0  0  0  0  0  0  0  0  0  0  0
   58.1710   32.4730   47.8040 C   0  0  0  0  0  0  0  0  0  0  0  0
   58.4330   30.7240   44.7210 C   0  0  0  0  0  0  0  0  0  0  0  0
   59.5730   28.2620   47.2140 C   0  0  0  0  0  0  0  0  0  0  0  0
   59.6940   28.6010   48.5650 C   0  0  0  0  0  0  0  0  0  0  0  0
   59.8520   30.6960   50.7760 H   0  0  0  0  0  0  0  0  0  0  0  0
   61.3540   29.7220   50.9060 H   0  0  0  0  0  0  0  0  0  0  0  0
   61.6896   31.3628   48.2561 H   0  0  0  0  0  0  0  0  0  0  0  0
   61.5023   30.7307   45.8487 H   0  0  0  0  0  0  0  0  0  0  0  0
   57.5825   27.6904   43.3829 H   0  0  0  0  0  0  0  0  0  0  0  0
   55.3687   28.8337   43.2285 H   0  0  0  0  0  0  0  0  0  0  0  0
   55.1091   31.1707   44.0530 H   0  0  0  0  0  0  0  0  0  0  0  0
   59.5599   35.4402   46.8258 H   0  0  0  0  0  0  0  0  0  0  0  0
   60.3792   35.3741   49.1729 H   0  0  0  0  0  0  0  0  0  0  0  0
   59.3550   34.0110   51.7000 H   0  0  0  0  0  0  0  0  0  0  0  0
   63.3890   30.8738   50.2418 H   0  0  0  0  0  0  0  0  0  0  0  0
   64.8335   31.4193   48.1358 H   0  0  0  0  0  0  0  0  0  0  0  0
   64.4671   33.8736   47.2446 H   0  0  0  0  0  0  0  0  0  0  0  0
   58.3926   31.5765   49.7667 H   0  0  0  0  0  0  0  0  0  0  0  0
   57.5376   31.6574   47.4251 H   0  0  0  0  0  0  0  0  0  0  0  0
   59.3077   31.2661   45.1095 H   0  0  0  0  0  0  0  0  0  0  0  0
   58.9644   27.3946   46.9186 H   0  0  0  0  0  0  0  0  0  0  0  0
   59.1946   27.9895   49.3309 H   0  0  0  0  0  0  0  0  0  0  0  0
  1  2  1  0
  2  3  2  0
  3  4  1  0
  4  5  2  0
  5  6  1  0
  6  7  1  0
  7  8  2  0
  8  9  1  0
  9 10  2  0
 10 11  1  0
 11 12  1  0
 12 13  1  0
 13 14  2  0
 13 15  1  0
 15 16  2  0
 16 17  1  0
 17 18  2  0
 18 19  1  0
 19 20  1  0
 20 21  2  0
 20 22  2  0
 20 23  1  0
 23 24  2  0
 24 25  1  0
 25 26  2  0
 26 27  1  0
 18 28  1  0
 28 29  2  0
 11 30  2  0
  5 31  1  0
 31 32  2  0
 32  2  1  0
 30  7  1  0
 29 15  1  0
 27 23  1  0
  1 33  1  0
  1 34  1  0
  3 35  1  0
  4 36  1  0
  8 37  1  0
  9 38  1  0
 10 39  1  0
 16 40  1  0
 17 41  1  0
 19 42  1  0
 24 43  1  0
 25 44  1  0
 26 45  1  0
 28 46  1  0
 29 47  1  0
 30 48  1  0
 31 49  1  0
 32 50  1  0
M  CHG  1  12  -1
M  END
>  <UniqueID>  (40) 
37

>  <SMILES>  (40) 
Nc1ccc(Sc2cccc([N-]C(=O)c3ccc(NS(=O)(=O)c4cccs4)cc3)c2)cc1

>  <Energy>  (40) 
81.32719126563876

>  <Genealogy>  (40) 
Nc1ccc(Sc2cccc([N-]C(=O)c3ccc(NS(=O)(=O)c4cccs4)cc3)c2)cc1 (protonated)
Nc1ccc(Sc2cccc([N-]C(=O)c3ccc(NS(=O)(=O)c4cccs4)cc3)c2)cc1 (3D coordinates assigned)
Nc1ccc(Sc2cccc([N-]C(=O)c3ccc(NS(=O)(=O)c4cccs4)cc3)c2)cc1 (optimized conformer: 81.32719126563876 kcal/mol)

>  <smiles>  (40) 
Nc1ccc(Sc2cccc(NC(=O)c3ccc(NS(=O)(=O)c4cccs4)cc3)c2)cc1

>  <score_type>  (40) 
oracle

>  <origin>  (40) 
adg

>  <m_score__min__energy>  (40) 
-10.75

>  <m_primary>  (40) 
energy

$$$$
40:0
     RDKit          3D

 56 58  0  0  0  0  0  0  0  0999 V2000
   62.5600   34.7360   49.5550 C   0  0  0  0  0  0  0  0  0  0  0  0
   61.6600   34.0180   48.6450 N   0  0  0  0  0  0  0  0  0  0  0  0
   60.2080   34.2090   48.7780 C   0  0  0  0  0  0  0  0  0  0  0  0
   59.5540   34.2320   47.4210 C   0  0  0  0  0  0  0  0  0  0  0  0
   59.9150   35.2010   46.4700 C   0  0  0  0  0  0  0  0  0  0  0  0
   59.2870   35.2310   45.2220 C   0  0  0  0  0  0  0  0  0  0  0  0
   58.2930   34.2960   44.9140 C   0  0  0  0  0  0  0  0  0  0  0  0
   57.9260   33.3320   45.8550 C   0  0  0  0  0  0  0  0  0  0  0  0
   58.5500   33.3000   47.1060 C   0  0  0  0  0  0  0  0  0  0  0  0
   62.1750   33.1580   47.5990 C   0  0  0  0  0  0  0  0  0  0  0  0
   62.0440   33.5040   46.3920 O   0  0  0  0  0  0  0  0  0  0  0  0
   62.8000   31.8100   47.8880 C   0  0  1  0  0  0  0  0  0  0  0  0
   62.5850   31.4390   49.3770 C   0  0  0  0  0  0  0  0  0  0  0  0
   63.8800   31.4620   50.1490 C   0  0  0  0  0  0  0  0  0  0  0  0
   64.0340   30.6760   51.3030 C   0  0  0  0  0  0  0  0  0  0  0  0
   65.2160   30.7400   52.0470 C   0  0  0  0  0  0  0  0  0  0  0  0
   66.2510   31.5890   51.6450 C   0  0  0  0  0  0  0  0  0  0  0  0
   66.1040   32.3770   50.5000 C   0  0  0  0  0  0  0  0  0  0  0  0
   64.9220   32.3180   49.7550 C   0  0  0  0  0  0  0  0  0  0  0  0
   62.1850   30.8080   46.9930 N   0  0  0  0  0  0  0  0  0  0  0  0
   60.7390   30.1230   47.6790 S   0  0  0  0  0  0  0  0  0  0  0  0
   61.1180   29.0630   48.6750 O   0  0  0  0  0  0  0  0  0  0  0  0
   59.9730   31.1990   48.3990 O   0  0  0  0  0  0  0  0  0  0  0  0
   59.7290   29.4010   46.4260 C   0  0  0  0  0  0  0  0  0  0  0  0
   60.1450   28.2420   45.7600 C   0  0  0  0  0  0  0  0  0  0  0  0
   59.3270   27.6620   44.7870 C   0  0  0  0  0  0  0  0  0  0  0  0
   58.0900   28.2320   44.4780 C   0  0  0  0  0  0  0  0  0  0  0  0
   57.6560   29.3960   45.1390 C   0  0  0  0  0  0  0  0  0  0  0  0
   56.3400   29.9950   44.8170 C   0  0  0  0  0  0  0  0  0  0  0  0
   55.1510   29.2060   44.8660 N   0  0  0  0  0  0  0  0  0  0  0  0
   56.2550   31.2110   44.4960 O   0  0  0  0  0  0  0  0  0  0  0  0
   58.4890   29.9770   46.1140 C   0  0  0  0  0  0  0  0  0  0  0  0
   62.2822   34.5143   50.5960 H   0  0  0  0  0  0  0  0  0  0  0  0
   63.5963   34.4138   49.3756 H   0  0  0  0  0  0  0  0  0  0  0  0
   62.4761   35.8180   49.3756 H   0  0  0  0  0  0  0  0  0  0  0  0
   59.7866   33.3827   49.3693 H   0  0  0  0  0  0  0  0  0  0  0  0
   60.0193   35.1689   49.2809 H   0  0  0  0  0  0  0  0  0  0  0  0
   60.6950   35.9390   46.7087 H   0  0  0  0  0  0  0  0  0  0  0  0
   59.5747   35.9910   44.4806 H   0  0  0  0  0  0  0  0  0  0  0  0
   57.8006   34.3203   43.9306 H   0  0  0  0  0  0  0  0  0  0  0  0
   57.1449   32.5966   45.6119 H   0  0  0  0  0  0  0  0  0  0  0  0
   58.2540   32.5424   47.8466 H   0  0  0  0  0  0  0  0  0  0  0  0
   63.8841   31.8403   47.7040 H   0  0  0  0  0  0  0  0  0  0  0  0
   61.8883   32.1612   49.8275 H   0  0  0  0  0  0  0  0  0  0  0  0
   62.1771   30.4184   49.4211 H   0  0  0  0  0  0  0  0  0  0  0  0
   63.2212   30.0073   51.6227 H   0  0  0  0  0  0  0  0  0  0  0  0
   65.3315   30.1217   52.9494 H   0  0  0  0  0  0  0  0  0  0  0  0
   67.1814   31.6370   52.2299 H   0  0  0  0  0  0  0  0  0  0  0  0
   66.9193   33.0446   50.1844 H   0  0  0  0  0  0  0  0  0  0  0  0
   64.8077   32.9438   48.8576 H   0  0  0  0  0  0  0  0  0  0  0  0
   61.9390   31.2230   46.0660 H   0  0  0  0  0  0  0  0  0  0  0  0
   61.1168   27.7875   46.0030 H   0  0  0  0  0  0  0  0  0  0  0  0
   59.6583   26.7535   44.2627 H   0  0  0  0  0  0  0  0  0  0  0  0
   57.4506   27.7679   43.7127 H   0  0  0  0  0  0  0  0  0  0  0  0
   54.4360   29.3570   45.6110 H   0  0  0  0  0  0  0  0  0  0  0  0
   58.1647   30.8898   46.6351 H   0  0  0  0  0  0  0  0  0  0  0  0
  1  2  1  0
  2  3  1  0
  3  4  1  0
  4  5  2  0
  5  6  1  0
  6  7  2  0
  7  8  1  0
  8  9  2  0
  2 10  1  0
 10 11  2  0
 10 12  1  0
 12 13  1  0
 13 14  1  0
 14 15  2  0
 15 16  1  0
 16 17  2  0
 17 18  1  0
 18 19  2  0
 12 20  1  0
 20 21  1  0
 21 22  2  0
 21 23  2  0
 21 24  1  0
 24 25  2  0
 25 26  1  0
 26 27  2  0
 27 28  1  0
 28 29  1  0
 29 30  1  0
 29 31  2  0
 28 32  2  0
  9  4  1  0
 19 14  1  0
 32 24  1  0
  1 33  1  0
  1 34  1  0
  1 35  1  0
  3 36  1  0
  3 37  1  0
  5 38  1  0
  6 39  1  0
  7 40  1  0
  8 41  1  0
  9 42  1  0
 12 43  1  6
 13 44  1  0
 13 45  1  0
 15 46  1  0
 16 47  1  0
 17 48  1  0
 18 49  1  0
 19 50  1  0
 20 51  1  0
 25 52  1  0
 26 53  1  0
 27 54  1  0
 30 55  1  0
 32 56  1  0
M  CHG  1  30  -1
M  END
>  <UniqueID>  (41) 
38

>  <SMILES>  (41) 
CN(Cc1ccccc1)C(=O)[C@@H](Cc1ccccc1)NS(=O)(=O)c1cccc(C([NH-])=O)c1

>  <Energy>  (41) 
52.15840878191589

>  <Genealogy>  (41) 
CN(Cc1ccccc1)C(=O)C(Cc1ccccc1)NS(=O)(=O)c1cccc(C([NH-])=O)c1 (protonated)
CN(Cc1ccccc1)C(=O)[C@@H](Cc1ccccc1)NS(=O)(=O)c1cccc(C([NH-])=O)c1 (chirality)
CN(Cc1ccccc1)C(=O)[C@@H](Cc1ccccc1)NS(=O)(=O)c1cccc(C([NH-])=O)c1 (3D coordinates assigned)
CN(Cc1ccccc1)C(=O)[C@@H](Cc1ccccc1)NS(=O)(=O)c1cccc(C([NH-])=O)c1 (optimized conformer: 52.15840878191589 kcal/mol)

>  <smiles>  (41) 
CN(Cc1ccccc1)C(=O)C(Cc1ccccc1)NS(=O)(=O)c1cccc(C(N)=O)c1

>  <score_type>  (41) 
oracle

>  <origin>  (41) 
adg

>  <m_score__min__energy>  (41) 
-13.029999999999999

>  <m_primary>  (41) 
energy

$$$$
41:0
     RDKit          3D

 50 52  0  0  0  0  0  0  0  0999 V2000
   58.4430   34.0230   44.4910 C   0  0  0  0  0  0  0  0  0  0  0  0
   59.3360   34.8500   45.4130 C   0  0  0  0  0  0  0  0  0  0  0  0
   60.0180   33.9680   46.4360 C   0  0  0  0  0  0  0  0  0  0  0  0
   61.4180   33.8490   46.3880 C   0  0  0  0  0  0  0  0  0  0  0  0
   62.0950   33.0460   47.3050 C   0  0  0  0  0  0  0  0  0  0  0  0
   61.3940   32.3640   48.3010 C   0  0  0  0  0  0  0  0  0  0  0  0
   62.1170   31.5370   49.2200 N   0  0  0  0  0  0  0  0  0  0  0  0
   61.7280   30.2340   49.6730 C   0  0  0  0  0  0  0  0  0  0  0  0
   62.4050   29.6810   50.5800 O   0  0  0  0  0  0  0  0  0  0  0  0
   60.4380   29.5920   49.2220 C   0  0  0  0  0  0  0  0  0  0  0  0
   60.6490   28.7090   48.0540 N   0  0  0  0  0  0  0  0  0  0  0  0
   60.4630   29.4350   46.7690 C   0  0  0  0  0  0  0  0  0  0  0  0
   59.0460   29.3490   46.2670 C   0  0  0  0  0  0  0  0  0  0  0  0
   58.4010   30.4600   45.7080 C   0  0  0  0  0  0  0  0  0  0  0  0
   57.1010   30.3370   45.2010 C   0  0  0  0  0  0  0  0  0  0  0  0
   56.4470   31.4400   44.6570 O   0  0  0  0  0  0  0  0  0  0  0  0
   56.4570   29.0950   45.2370 C   0  0  0  0  0  0  0  0  0  0  0  0
   55.1680   28.9640   44.7310 O   0  0  0  0  0  0  0  0  0  0  0  0
   57.1070   27.9790   45.7740 C   0  0  0  0  0  0  0  0  0  0  0  0
   58.4090   28.1010   46.3010 C   0  0  0  0  0  0  0  0  0  0  0  0
   59.2050   26.9520   46.8900 C   0  0  2  0  0  0  0  0  0  0  0  0
   58.3830   25.6820   47.1600 C   0  0  0  0  0  0  0  0  0  0  0  0
   59.8700   27.4420   48.1970 C   0  0  0  0  0  0  0  0  0  0  0  0
   59.9940   32.4330   48.3280 C   0  0  0  0  0  0  0  0  0  0  0  0
   59.2920   33.2230   47.4000 C   0  0  0  0  0  0  0  0  0  0  0  0
   57.7900   33.2900   47.4910 C   0  0  0  0  0  0  0  0  0  0  0  0
   57.7691   33.3989   45.0963 H   0  0  0  0  0  0  0  0  0  0  0  0
   57.8480   34.6961   43.8563 H   0  0  0  0  0  0  0  0  0  0  0  0
   59.0686   33.3782   43.8563 H   0  0  0  0  0  0  0  0  0  0  0  0
   60.1013   35.3609   44.8103 H   0  0  0  0  0  0  0  0  0  0  0  0
   58.7111   35.5844   45.9423 H   0  0  0  0  0  0  0  0  0  0  0  0
   61.9849   34.3948   45.6194 H   0  0  0  0  0  0  0  0  0  0  0  0
   63.1890   32.9493   47.2432 H   0  0  0  0  0  0  0  0  0  0  0  0
   60.0269   28.9963   50.0503 H   0  0  0  0  0  0  0  0  0  0  0  0
   59.7404   30.3903   48.9285 H   0  0  0  0  0  0  0  0  0  0  0  0
   60.7219   30.4935   46.9195 H   0  0  0  0  0  0  0  0  0  0  0  0
   61.1162   28.9658   46.0185 H   0  0  0  0  0  0  0  0  0  0  0  0
   58.9165   31.4309   45.6672 H   0  0  0  0  0  0  0  0  0  0  0  0
   55.5300   31.3590   44.2330 H   0  0  0  0  0  0  0  0  0  0  0  0
   56.6005   27.0026   45.7852 H   0  0  0  0  0  0  0  0  0  0  0  0
   59.9526   26.6575   46.1387 H   0  0  0  0  0  0  0  0  0  0  0  0
   58.2859   25.5319   48.2454 H   0  0  0  0  0  0  0  0  0  0  0  0
   57.3834   25.7905   46.7139 H   0  0  0  0  0  0  0  0  0  0  0  0
   58.8914   24.8145   46.7139 H   0  0  0  0  0  0  0  0  0  0  0  0
   59.0801   27.6060   48.9448 H   0  0  0  0  0  0  0  0  0  0  0  0
   60.5874   26.6636   48.4960 H   0  0  0  0  0  0  0  0  0  0  0  0
   59.4371   31.8616   49.0852 H   0  0  0  0  0  0  0  0  0  0  0  0
   57.4870   33.3035   48.5483 H   0  0  0  0  0  0  0  0  0  0  0  0
   57.4331   34.2050   46.9956 H   0  0  0  0  0  0  0  0  0  0  0  0
   57.3530   32.4105   46.9956 H   0  0  0  0  0  0  0  0  0  0  0  0
  1  2  1  0
  2  3  1  0
  3  4  2  0
  4  5  1  0
  5  6  2  0
  6  7  1  0
  7  8  1  0
  8  9  2  0
  8 10  1  0
 10 11  1  0
 11 12  1  0
 12 13  1  0
 13 14  2  0
 14 15  1  0
 15 16  1  0
 15 17  2  0
 17 18  1  0
 17 19  1  0
 19 20  2  0
 20 21  1  0
 21 22  1  0
 21 23  1  0
  6 24  1  0
 24 25  2  0
 25 26  1  0
 25  3  1  0
 23 11  1  0
 20 13  1  0
  1 27  1  0
  1 28  1  0
  1 29  1  0
  2 30  1  0
  2 31  1  0
  4 32  1  0
  5 33  1  0
 10 34  1  0
 10 35  1  0
 12 36  1  0
 12 37  1  0
 14 38  1  0
 16 39  1  0
 19 40  1  0
 21 41  1  6
 22 42  1  0
 22 43  1  0
 22 44  1  0
 23 45  1  0
 23 46  1  0
 24 47  1  0
 26 48  1  0
 26 49  1  0
 26 50  1  0
M  CHG  2   7  -1  18  -1
M  END
>  <UniqueID>  (42) 
39

>  <SMILES>  (42) 
CCc1ccc([N-]C(=O)CN2Cc3cc(O)c([O-])cc3[C@H](C)C2)cc1C

>  <Energy>  (42) 
66.03688654884499

>  <Genealogy>  (42) 
CCc1ccc([N-]C(=O)CN2Cc3cc(O)c([O-])cc3C(C)C2)cc1C (protonated)
CCc1ccc([N-]C(=O)CN2Cc3cc(O)c([O-])cc3[C@H](C)C2)cc1C (chirality)
CCc1ccc([N-]C(=O)CN2Cc3cc(O)c([O-])cc3[C@H](C)C2)cc1C (3D coordinates assigned)
CCc1ccc([N-]C(=O)CN2Cc3cc(O)c([O-])cc3[C@H](C)C2)cc1C (nonaromatic ring conformer: 66.03688654884499 kcal/mol)

>  <smiles>  (42) 
CCc1ccc(NC(=O)CN2Cc3cc(O)c(O)cc3C(C)C2)cc1C

>  <score_type>  (42) 
oracle

>  <origin>  (42) 
adg

>  <m_score__min__energy>  (42) 
-12.68

>  <m_primary>  (42) 
energy

$$$$
42:0
     RDKit          3D

 40 42  0  0  0  0  0  0  0  0999 V2000
   55.1920   29.3390   44.8670 N   0  0  0  0  0  0  0  0  0  0  0  0
   56.6130   29.2810   44.9750 C   0  0  0  0  0  0  0  0  0  0  0  0
   57.1900   28.1640   44.8830 O   0  0  0  0  0  0  0  0  0  0  0  0
   57.4030   30.5160   45.1920 C   0  0  0  0  0  0  0  0  0  0  0  0
   57.3030   31.5980   44.2990 C   0  0  0  0  0  0  0  0  0  0  0  0
   58.0490   32.7610   44.5070 C   0  0  0  0  0  0  0  0  0  0  0  0
   58.9130   32.8640   45.6070 C   0  0  0  0  0  0  0  0  0  0  0  0
   59.6830   34.1330   45.8480 C   0  0  0  0  0  0  0  0  0  0  0  0
   60.7810   33.8890   46.7820 N   0  0  0  0  0  0  0  0  0  0  0  0
   62.1820   33.7560   46.4090 C   0  0  0  0  0  0  0  0  0  0  0  0
   62.9000   33.5030   47.7450 C   0  0  0  0  0  0  0  0  0  0  0  0
   61.8420   33.5280   48.7470 N   0  0  0  0  0  0  0  0  0  0  0  0
   60.6970   33.7290   48.1890 C   0  0  0  0  0  0  0  0  0  0  0  0
   59.4750   33.8640   48.9310 N   0  0  0  0  0  0  0  0  0  0  0  0
   59.2220   33.2120   50.1870 C   0  0  0  0  0  0  0  0  0  0  0  0
   59.5930   33.8050   51.4070 C   0  0  0  0  0  0  0  0  0  0  0  0
   59.3610   33.1390   52.6150 C   0  0  0  0  0  0  0  0  0  0  0  0
   58.7720   31.8730   52.6140 C   0  0  0  0  0  0  0  0  0  0  0  0
   58.4200   31.2670   51.4050 C   0  0  0  0  0  0  0  0  0  0  0  0
   58.6510   31.9290   50.1960 C   0  0  0  0  0  0  0  0  0  0  0  0
   59.0100   31.7910   46.5050 C   0  0  0  0  0  0  0  0  0  0  0  0
   58.2660   30.6260   46.2980 C   0  0  0  0  0  0  0  0  0  0  0  0
   54.5880   29.3450   45.7180 H   0  0  0  0  0  0  0  0  0  0  0  0
   56.6322   31.5281   43.4300 H   0  0  0  0  0  0  0  0  0  0  0  0
   57.9580   33.6015   43.8032 H   0  0  0  0  0  0  0  0  0  0  0  0
   60.0920   34.4964   44.8937 H   0  0  0  0  0  0  0  0  0  0  0  0
   59.0068   34.8863   46.2786 H   0  0  0  0  0  0  0  0  0  0  0  0
   62.3250   32.9091   45.7217 H   0  0  0  0  0  0  0  0  0  0  0  0
   62.5662   34.6424   45.8830 H   0  0  0  0  0  0  0  0  0  0  0  0
   63.4019   32.5242   47.7358 H   0  0  0  0  0  0  0  0  0  0  0  0
   63.6797   34.2525   47.9457 H   0  0  0  0  0  0  0  0  0  0  0  0
   62.0030   33.4400   49.7750 H   0  0  0  0  0  0  0  0  0  0  0  0
   58.7420   34.5060   48.5580 H   0  0  0  0  0  0  0  0  0  0  0  0
   60.0679   34.7972   51.4113 H   0  0  0  0  0  0  0  0  0  0  0  0
   59.6429   33.6131   53.5667 H   0  0  0  0  0  0  0  0  0  0  0  0
   58.5851   31.3526   53.5649 H   0  0  0  0  0  0  0  0  0  0  0  0
   57.9605   30.2676   51.4049 H   0  0  0  0  0  0  0  0  0  0  0  0
   58.3841   31.4424   49.2463 H   0  0  0  0  0  0  0  0  0  0  0  0
   59.6756   31.8668   47.3775 H   0  0  0  0  0  0  0  0  0  0  0  0
   58.3558   29.7884   47.0054 H   0  0  0  0  0  0  0  0  0  0  0  0
  1  2  1  0
  2  3  2  0
  2  4  1  0
  4  5  2  0
  5  6  1  0
  6  7  2  0
  7  8  1  0
  8  9  1  0
  9 10  1  0
 10 11  1  0
 11 12  1  0
 12 13  2  0
 13 14  1  0
 14 15  1  0
 15 16  2  0
 16 17  1  0
 17 18  2  0
 18 19  1  0
 19 20  2  0
  7 21  1  0
 21 22  2  0
 22  4  1  0
 13  9  1  0
 20 15  1  0
  1 23  1  0
  5 24  1  0
  6 25  1  0
  8 26  1  0
  8 27  1  0
 10 28  1  0
 10 29  1  0
 11 30  1  0
 11 31  1  0
 12 32  1  0
 14 33  1  0
 16 34  1  0
 17 35  1  0
 18 36  1  0
 19 37  1  0
 20 38  1  0
 21 39  1  0
 22 40  1  0
M  CHG  2   1  -1  12   1
M  END
>  <UniqueID>  (43) 
40

>  <SMILES>  (43) 
[NH-]C(=O)c1ccc(CN2CC[NH+]=C2Nc2ccccc2)cc1

>  <Energy>  (43) 
55.724952048295826

>  <Genealogy>  (43) 
[NH-]C(=O)c1ccc(CN2CC[NH+]=C2Nc2ccccc2)cc1 (protonated)
[NH-]C(=O)c1ccc(CN2CC[NH+]=C2Nc2ccccc2)cc1 (3D coordinates assigned)
[NH-]C(=O)c1ccc(CN2CC[NH+]=C2Nc2ccccc2)cc1 (nonaromatic ring conformer: 55.724952048295826 kcal/mol)

>  <smiles>  (43) 
NC(=O)c1ccc(CN2CCN=C2Nc2ccccc2)cc1

>  <score_type>  (43) 
oracle

>  <origin>  (43) 
adg

>  <m_score__min__energy>  (43) 
-8.7300000000000004

>  <m_primary>  (43) 
energy

$$$$
43:0
     RDKit          3D

 53 57  0  0  0  0  0  0  0  0999 V2000
   57.8949   33.1811   48.1828 H   0  0  0  0  0  0  0  0  0  0  0  0
   58.1600   33.4590   47.1520 C   0  0  0  0  0  0  0  0  0  0  0  0
   57.6620   32.7140   46.0770 C   0  0  0  0  0  0  0  0  0  0  0  0
   57.0028   31.8537   46.2650 H   0  0  0  0  0  0  0  0  0  0  0  0
   58.0010   33.0610   44.7590 C   0  0  0  0  0  0  0  0  0  0  0  0
   57.4230   32.2950   43.6010 C   0  0  0  0  0  0  0  0  0  0  0  0
   58.1917   32.1732   42.8236 H   0  0  0  0  0  0  0  0  0  0  0  0
   56.5656   32.8488   43.1909 H   0  0  0  0  0  0  0  0  0  0  0  0
   56.9660   30.9490   44.0620 C   0  0  0  0  0  0  0  0  0  0  0  0
   55.6930   30.6800   44.4320 N   0  0  0  0  0  0  0  0  0  0  0  0
   55.5280   29.4430   44.8960 N   0  0  0  0  0  0  0  0  0  0  0  0
   56.6790   28.7310   44.9100 C   0  0  0  0  0  0  0  0  0  0  0  0
   56.7710   27.4960   45.3080 N   0  0  0  0  0  0  0  0  0  0  0  0
   57.6840   27.0140   46.3050 C   0  0  0  0  0  0  0  0  0  0  0  0
   57.6560   25.7910   46.6060 O   0  0  0  0  0  0  0  0  0  0  0  0
   58.6920   27.8950   46.9440 C   0  0  0  0  0  0  0  0  0  0  0  0
   59.8340   28.3100   46.2370 C   0  0  0  0  0  0  0  0  0  0  0  0
   59.9874   27.9729   45.2012 H   0  0  0  0  0  0  0  0  0  0  0  0
   60.7750   29.1470   46.8400 C   0  0  0  0  0  0  0  0  0  0  0  0
   61.6591   29.4721   46.2719 H   0  0  0  0  0  0  0  0  0  0  0  0
   60.6020   29.5780   48.1680 C   0  0  0  0  0  0  0  0  0  0  0  0
   61.6080   30.5040   48.8360 C   0  0  2  0  0  0  0  0  0  0  0  0
   62.4258   29.8392   49.1510 H   0  0  0  0  0  0  0  0  0  0  0  0
   61.0010   31.2550   50.0160 C   0  0  0  0  0  0  0  0  0  0  0  0
   61.7490   31.3726   50.8139 H   0  0  0  0  0  0  0  0  0  0  0  0
   60.1454   30.7039   50.4335 H   0  0  0  0  0  0  0  0  0  0  0  0
   60.5820   32.5760   49.5170 N   0  0  0  0  0  0  0  0  0  0  0  0
   60.5720   33.7150   50.4720 C   0  0  0  0  0  0  0  0  0  0  0  0
   60.8982   34.4742   49.7459 H   0  0  0  0  0  0  0  0  0  0  0  0
   61.2590   33.4830   51.8050 C   0  0  0  0  0  0  0  0  0  0  0  0
   61.7351   32.4948   51.8872 H   0  0  0  0  0  0  0  0  0  0  0  0
   62.1025   34.1290   52.0900 H   0  0  0  0  0  0  0  0  0  0  0  0
   60.0470   33.5850   52.5200 O   0  0  0  0  0  0  0  0  0  0  0  0
   59.3290   33.8360   51.3310 C   0  0  0  0  0  0  0  0  0  0  0  0
   58.5670   33.0742   51.1096 H   0  0  0  0  0  0  0  0  0  0  0  0
   58.7184   34.7482   51.2595 H   0  0  0  0  0  0  0  0  0  0  0  0
   61.3740   32.8720   48.3140 C   0  0  0  0  0  0  0  0  0  0  0  0
   62.1091   33.6594   48.5367 H   0  0  0  0  0  0  0  0  0  0  0  0
   60.7175   33.2225   47.5039 H   0  0  0  0  0  0  0  0  0  0  0  0
   62.0960   31.5960   47.8920 C   0  0  0  0  0  0  0  0  0  0  0  0
   63.1845   31.7240   47.9862 H   0  0  0  0  0  0  0  0  0  0  0  0
   61.8864   31.3435   46.8421 H   0  0  0  0  0  0  0  0  0  0  0  0
   59.4730   29.1400   48.8820 C   0  0  0  0  0  0  0  0  0  0  0  0
   59.3301   29.4583   49.9252 H   0  0  0  0  0  0  0  0  0  0  0  0
   58.5300   28.3030   48.2770 C   0  0  0  0  0  0  0  0  0  0  0  0
   57.6551   27.9620   48.8500 H   0  0  0  0  0  0  0  0  0  0  0  0
   57.9770   29.6230   44.3220 S   0  0  0  0  0  0  0  0  0  0  0  0
   58.8300   34.1730   44.5290 C   0  0  0  0  0  0  0  0  0  0  0  0
   59.0881   34.4614   43.4994 H   0  0  0  0  0  0  0  0  0  0  0  0
   59.3270   34.9130   45.6060 C   0  0  0  0  0  0  0  0  0  0  0  0
   59.9813   35.7779   45.4221 H   0  0  0  0  0  0  0  0  0  0  0  0
   58.9940   34.5560   46.9170 C   0  0  0  0  0  0  0  0  0  0  0  0
   59.4720   35.2810   47.9600 F   0  0  0  0  0  0  0  0  0  0  0  0
  1  2  1  0
  2  3  2  0
  3  4  1  0
  3  5  1  0
  5  6  1  0
  6  7  1  0
  6  8  1  0
  6  9  1  0
  9 10  2  0
 10 11  1  0
 11 12  1  0
 12 13  2  0
 13 14  1  0
 14 15  2  0
 14 16  1  0
 16 17  2  0
 17 18  1  0
 17 19  1  0
 19 20  1  0
 19 21  2  0
 21 22  1  0
 22 23  1  1
 22 24  1  0
 24 25  1  0
 24 26  1  0
 24 27  1  0
 27 28  1  0
 28 29  1  0
 28 30  1  0
 30 31  1  0
 30 32  1  0
 30 33  1  0
 33 34  1  0
 34 35  1  0
 34 36  1  0
 27 37  1  0
 37 38  1  0
 37 39  1  0
 37 40  1  0
 40 41  1  0
 40 42  1  0
 21 43  1  0
 43 44  1  0
 43 45  2  0
 45 46  1  0
 12 47  1  0
  5 48  2  0
 48 49  1  0
 48 50  1  0
 50 51  1  0
 50 52  2  0
 52 53  1  0
 52  2  1  0
 47  9  1  0
 45 16  1  0
 40 22  1  0
 34 28  1  0
M  CHG  1  11  -1
M  END
>  <UniqueID>  (44) 
41

>  <SMILES>  (44) 
O=C(/N=c1\[n-]nc(Cc2ccc(F)cc2)s1)c1ccc([C@H]2CCN(C3COC3)C2)cc1

>  <Energy>  (44) 
172.56391192304508

>  <Genealogy>  (44) 
O=C(N=c1[n-]nc(Cc2ccc(F)cc2)s1)c1ccc(C2CCN(C3COC3)C2)cc1 (protonated)
O=C(N=c1[n-]nc(Cc2ccc(F)cc2)s1)c1ccc([C@H]2CCN(C3COC3)C2)cc1 (chirality)
O=C(/N=c1\[n-]nc(Cc2ccc(F)cc2)s1)c1ccc([C@H]2CCN(C3COC3)C2)cc1 (cis-trans isomerization)
O=C(/N=c1\[n-]nc(Cc2ccc(F)cc2)s1)c1ccc([C@H]2CCN(C3COC3)C2)cc1 (3D coordinates assigned)
O=C(/N=c1\[n-]nc(Cc2ccc(F)cc2)s1)c1ccc([C@H]2CCN(C3COC3)C2)cc1 (nonaromatic ring conformer: 172.56391192304508 kcal/mol)

>  <smiles>  (44) 
O=C(N=c1[nH]nc(Cc2ccc(F)cc2)s1)c1ccc(C2CCN(C3COC3)C2)cc1

>  <score_type>  (44) 
oracle

>  <origin>  (44) 
adg

>  <m_score__min__energy>  (44) 
-12.029999999999999

>  <m_primary>  (44) 
energy

$$$$
44:0
     RDKit          3D

 44 46  0  0  0  0  0  0  0  0999 V2000
   54.4940   25.2300   45.6270 N   0  0  0  0  0  0  0  0  0  0  0  0
   56.0930   22.8690   43.5440 C   0  0  0  0  0  0  0  0  0  0  0  0
   55.1700   23.6960   44.0220 N   0  0  0  0  0  0  0  0  0  0  0  0
   55.3760   24.4220   45.1610 C   0  0  0  0  0  0  0  0  0  0  0  0
   55.8630   22.2140   42.4870 O   0  0  0  0  0  0  0  0  0  0  0  0
   57.3080   22.6580   44.1200 N   0  0  0  0  0  0  0  0  0  0  0  0
   57.5300   23.3690   45.2530 C   0  0  0  0  0  0  0  0  0  0  0  0
   56.5920   24.2340   45.7710 C   0  0  0  0  0  0  0  0  0  0  0  0
   56.9870   24.9290   47.0500 C   0  0  0  0  0  0  0  0  0  0  0  0
   57.9260   26.0350   46.7780 C   0  0  0  0  0  0  0  0  0  0  0  0
   59.2250   25.8960   47.1680 C   0  0  0  0  0  0  0  0  0  0  0  0
   60.1600   26.8660   46.9220 C   0  0  0  0  0  0  0  0  0  0  0  0
   59.7530   28.0020   46.2600 C   0  0  0  0  0  0  0  0  0  0  0  0
   58.4390   28.2140   45.8310 C   0  0  0  0  0  0  0  0  0  0  0  0
   58.1390   29.4610   45.1790 C   0  0  0  0  0  0  0  0  0  0  0  0
   59.0900   30.0040   44.4990 O   0  0  0  0  0  0  0  0  0  0  0  0
   56.9330   30.1780   45.1780 N   0  0  0  0  0  0  0  0  0  0  0  0
   56.7740   31.4180   44.4740 C   0  0  0  0  0  0  0  0  0  0  0  0
   57.5240   32.5670   44.9750 C   0  0  0  0  0  0  0  0  0  0  0  0
   58.4560   33.1630   44.1030 C   0  0  0  0  0  0  0  0  0  0  0  0
   59.2220   34.2440   44.5000 C   0  0  0  0  0  0  0  0  0  0  0  0
   59.1060   34.7980   45.7790 C   0  0  0  0  0  0  0  0  0  0  0  0
   58.1980   34.2040   46.6090 C   0  0  0  0  0  0  0  0  0  0  0  0
   57.4290   33.1210   46.2190 C   0  0  0  0  0  0  0  0  0  0  0  0
   57.5530   27.2040   46.1080 C   0  0  0  0  0  0  0  0  0  0  0  0
   56.2490   27.3100   45.7290 O   0  0  0  0  0  0  0  0  0  0  0  0
   54.7580   25.8720   46.4010 H   0  0  0  0  0  0  0  0  0  0  0  0
   54.2460   23.8540   43.5650 H   0  0  0  0  0  0  0  0  0  0  0  0
   58.0160   22.0020   43.7350 H   0  0  0  0  0  0  0  0  0  0  0  0
   58.4908   23.2510   45.7755 H   0  0  0  0  0  0  0  0  0  0  0  0
   56.0855   25.3324   47.5343 H   0  0  0  0  0  0  0  0  0  0  0  0
   57.4823   24.2002   47.7084 H   0  0  0  0  0  0  0  0  0  0  0  0
   59.5304   24.9798   47.6946 H   0  0  0  0  0  0  0  0  0  0  0  0
   61.2045   26.7410   47.2437 H   0  0  0  0  0  0  0  0  0  0  0  0
   60.5001   28.7837   46.0579 H   0  0  0  0  0  0  0  0  0  0  0  0
   56.1330   29.8000   45.7140 H   0  0  0  0  0  0  0  0  0  0  0  0
   57.0825   31.2495   43.4317 H   0  0  0  0  0  0  0  0  0  0  0  0
   55.7160   31.6880   44.6072 H   0  0  0  0  0  0  0  0  0  0  0  0
   58.5770   32.7608   43.0863 H   0  0  0  0  0  0  0  0  0  0  0  0
   59.9415   34.6796   43.7911 H   0  0  0  0  0  0  0  0  0  0  0  0
   59.7098   35.6605   46.0975 H   0  0  0  0  0  0  0  0  0  0  0  0
   58.0731   34.6018   47.6269 H   0  0  0  0  0  0  0  0  0  0  0  0
   56.7155   32.6913   46.9376 H   0  0  0  0  0  0  0  0  0  0  0  0
   55.8070   26.8360   44.9420 H   0  0  0  0  0  0  0  0  0  0  0  0
  1  2  2  3
  2  3  1  0
  3  4  1  0
  4  5  2  0
  4  6  1  0
  6  7  1  0
  7  8  2  0
  8  9  1  0
  9 10  1  0
 10 11  2  0
 11 12  1  0
 12 13  2  0
 13 14  1  0
 14 15  1  0
 15 16  2  0
 15 17  1  0
 17 18  1  0
 18 19  1  0
 19 20  2  0
 20 21  1  0
 21 22  2  0
 22 23  1  0
 23 24  2  0
 14 25  2  0
 25 26  1  0
  8  2  1  0
 25 10  1  0
 24 19  1  0
  1 27  1  0
  3 28  1  0
  6 29  1  0
  7 30  1  0
  9 31  1  0
  9 32  1  0
 11 33  1  0
 12 34  1  0
 13 35  1  0
 17 36  1  0
 18 37  1  0
 18 38  1  0
 20 39  1  0
 21 40  1  0
 22 41  1  0
 23 42  1  0
 24 43  1  0
 26 44  1  0
M  END
>  <smiles>  (45) 
N=c1[nH]c(=O)[nH]cc1Cc1cccc(C(=O)NCc2ccccc2)c1O

>  <score_type>  (45) 
oracle

>  <origin>  (45) 
adg

>  <m_score__min__energy>  (45) 
-10.43

>  <m_primary>  (45) 
energy

$$$$
45:0
     RDKit          3D

 41 43  0  0  0  0  0  0  0  0999 V2000
   57.0380   33.8170   45.6250 C   0  0  0  0  0  0  0  0  0  0  0  0
   57.6810   33.4800   46.8490 O   0  0  0  0  0  0  0  0  0  0  0  0
   59.0730   33.4140   47.0270 C   0  0  0  0  0  0  0  0  0  0  0  0
   59.9690   33.8880   46.0490 C   0  0  0  0  0  0  0  0  0  0  0  0
   61.3480   33.8310   46.2640 C   0  0  0  0  0  0  0  0  0  0  0  0
   61.8500   33.3160   47.4610 C   0  0  0  0  0  0  0  0  0  0  0  0
   63.7350   33.2570   47.7600 Br  0  0  0  0  0  0  0  0  0  0  0  0
   60.9720   32.8380   48.4370 C   0  0  0  0  0  0  0  0  0  0  0  0
   59.5850   32.8660   48.2230 C   0  0  0  0  0  0  0  0  0  0  0  0
   58.6560   32.3950   49.3160 C   0  0  0  0  0  0  0  0  0  0  0  0
   58.1840   31.0760   49.0420 O   0  0  0  0  0  0  0  0  0  0  0  0
   59.0530   29.9960   48.8440 C   0  0  0  0  0  0  0  0  0  0  0  0
   59.8850   29.6090   49.9010 C   0  0  0  0  0  0  0  0  0  0  0  0
   60.7160   28.4950   49.7770 C   0  0  0  0  0  0  0  0  0  0  0  0
   60.7340   27.7610   48.5920 C   0  0  0  0  0  0  0  0  0  0  0  0
   59.9310   28.1480   47.5090 C   0  0  0  0  0  0  0  0  0  0  0  0
   59.9590   27.4180   46.3120 C   0  0  0  0  0  0  0  0  0  0  0  0
   59.1690   27.8090   45.2300 C   0  0  0  0  0  0  0  0  0  0  0  0
   58.3390   28.9360   45.3270 C   0  0  0  0  0  0  0  0  0  0  0  0
   57.5160   29.3730   44.1460 C   0  0  0  0  0  0  0  0  0  0  0  0
   56.1850   29.8750   44.6040 C   0  0  0  0  0  0  0  0  0  0  0  0
   55.9760   31.1120   44.7130 O   0  0  0  0  0  0  0  0  0  0  0  0
   55.1580   28.9780   44.8700 O   0  0  0  0  0  0  0  0  0  0  0  0
   58.3180   29.6810   46.5160 C   0  0  0  0  0  0  0  0  0  0  0  0
   59.0910   29.2850   47.6240 C   0  0  0  0  0  0  0  0  0  0  0  0
   56.0823   34.3179   45.8387 H   0  0  0  0  0  0  0  0  0  0  0  0
   57.6843   34.4923   45.0451 H   0  0  0  0  0  0  0  0  0  0  0  0
   56.8504   32.9013   45.0451 H   0  0  0  0  0  0  0  0  0  0  0  0
   59.5799   34.3062   45.1089 H   0  0  0  0  0  0  0  0  0  0  0  0
   62.0398   34.1925   45.4890 H   0  0  0  0  0  0  0  0  0  0  0  0
   61.3707   32.4366   49.3804 H   0  0  0  0  0  0  0  0  0  0  0  0
   59.1967   32.3935   50.2740 H   0  0  0  0  0  0  0  0  0  0  0  0
   57.7939   33.0764   49.3660 H   0  0  0  0  0  0  0  0  0  0  0  0
   59.8837   30.1875   50.8366 H   0  0  0  0  0  0  0  0  0  0  0  0
   61.3592   28.1949   50.6173 H   0  0  0  0  0  0  0  0  0  0  0  0
   61.3803   26.8751   48.5059 H   0  0  0  0  0  0  0  0  0  0  0  0
   60.6066   26.5331   46.2255 H   0  0  0  0  0  0  0  0  0  0  0  0
   59.1972   27.2299   44.2952 H   0  0  0  0  0  0  0  0  0  0  0  0
   58.0440   30.1771   43.6124 H   0  0  0  0  0  0  0  0  0  0  0  0
   57.3651   28.5143   43.4753 H   0  0  0  0  0  0  0  0  0  0  0  0
   57.6917   30.5828   46.5829 H   0  0  0  0  0  0  0  0  0  0  0  0
  1  2  1  0
  2  3  1  0
  3  4  2  0
  4  5  1  0
  5  6  2  0
  6  7  1  0
  6  8  1  0
  8  9  2  0
  9 10  1  0
 10 11  1  0
 11 12  1  0
 12 13  2  0
 13 14  1  0
 14 15  2  0
 15 16  1  0
 16 17  2  0
 17 18  1  0
 18 19  2  0
 19 20  1  0
 20 21  1  0
 21 22  2  0
 21 23  1  0
 19 24  1  0
 24 25  2  0
  9  3  1  0
 25 12  1  0
 25 16  1  0
  1 26  1  0
  1 27  1  0
  1 28  1  0
  4 29  1  0
  5 30  1  0
  8 31  1  0
 10 32  1  0
 10 33  1  0
 13 34  1  0
 14 35  1  0
 15 36  1  0
 17 37  1  0
 18 38  1  0
 20 39  1  0
 20 40  1  0
 24 41  1  0
M  CHG  1  23  -1
M  END
>  <UniqueID>  (46) 
42

>  <SMILES>  (46) 
COc1ccc(Br)cc1COc1cccc2ccc(CC(=O)[O-])cc12

>  <Energy>  (46) 
49.092171258748955

>  <Genealogy>  (46) 
COc1ccc(Br)cc1COc1cccc2ccc(CC(=O)[O-])cc12 (protonated)
COc1ccc(Br)cc1COc1cccc2ccc(CC(=O)[O-])cc12 (3D coordinates assigned)
COc1ccc(Br)cc1COc1cccc2ccc(CC(=O)[O-])cc12 (optimized conformer: 49.092171258748955 kcal/mol)

>  <smiles>  (46) 
COc1ccc(Br)cc1COc1cccc2ccc(CC(=O)O)cc12

>  <score_type>  (46) 
oracle

>  <origin>  (46) 
adg

>  <m_score__min__energy>  (46) 
-11.4

>  <m_primary>  (46) 
energy

$$$$
46:0
     RDKit          3D

 52 55  0  0  0  0  0  0  0  0999 V2000
   59.9950   36.2330   45.6750 C   0  0  0  0  0  0  0  0  0  0  0  0
   59.7880   35.1320   46.5570 O   0  0  0  0  0  0  0  0  0  0  0  0
   59.1800   33.9210   46.1920 C   0  0  0  0  0  0  0  0  0  0  0  0
   57.8640   33.8730   45.6940 C   0  0  0  0  0  0  0  0  0  0  0  0
   57.2760   32.6520   45.3550 C   0  0  0  0  0  0  0  0  0  0  0  0
   57.9960   31.4600   45.4950 C   0  0  0  0  0  0  0  0  0  0  0  0
   57.2930   29.9190   45.0160 S   0  0  0  0  0  0  0  0  0  0  0  0
   55.8010   30.0790   44.9080 O   0  0  0  0  0  0  0  0  0  0  0  0
   57.8200   29.4760   43.6780 O   0  0  0  0  0  0  0  0  0  0  0  0
   57.6480   28.7210   46.2180 N   0  0  0  0  0  0  0  0  0  0  0  0
   57.9330   27.3400   45.9580 C   0  0  0  0  0  0  0  0  0  0  0  0
   59.1090   26.7100   46.4460 C   0  0  0  0  0  0  0  0  0  0  0  0
   59.3620   25.3530   46.1740 C   0  0  0  0  0  0  0  0  0  0  0  0
   58.4270   24.6560   45.4170 C   0  0  0  0  0  0  0  0  0  0  0  0
   58.4230   23.3490   44.9790 C   0  0  0  0  0  0  0  0  0  0  0  0
   57.2550   23.2230   44.2270 C   0  0  0  0  0  0  0  0  0  0  0  0
   56.8340   21.9850   43.5390 C   0  0  0  0  0  0  0  0  0  0  0  0
   57.4380   20.7220   43.8340 N   0  0  0  0  0  0  0  0  0  0  0  0
   55.9250   22.0380   42.6690 O   0  0  0  0  0  0  0  0  0  0  0  0
   56.5720   24.3950   44.2010 N   0  0  0  0  0  0  0  0  0  0  0  0
   57.2970   25.2560   44.9320 C   0  0  0  0  0  0  0  0  0  0  0  0
   57.0190   26.6000   45.1810 C   0  0  0  0  0  0  0  0  0  0  0  0
   59.3010   31.4990   45.9930 C   0  0  0  0  0  0  0  0  0  0  0  0
   59.9010   32.7190   46.3440 C   0  0  0  0  0  0  0  0  0  0  0  0
   61.2400   32.7250   46.8710 N   0  0  0  0  0  0  0  0  0  0  0  0
   62.1720   33.7950   46.4950 C   0  0  0  0  0  0  0  0  0  0  0  0
   63.6180   33.3290   46.7050 C   0  0  0  0  0  0  0  0  0  0  0  0
   63.8780   32.8750   48.0880 N   0  0  0  0  0  0  0  0  0  0  0  0
   62.6970   32.3590   48.8170 C   0  0  0  0  0  0  0  0  0  0  0  0
   61.6420   31.7430   47.8860 C   0  0  0  0  0  0  0  0  0  0  0  0
   60.1668   37.1466   46.2630 H   0  0  0  0  0  0  0  0  0  0  0  0
   60.8716   36.0349   45.0408 H   0  0  0  0  0  0  0  0  0  0  0  0
   59.1063   36.3668   45.0408 H   0  0  0  0  0  0  0  0  0  0  0  0
   57.2936   34.8054   45.5707 H   0  0  0  0  0  0  0  0  0  0  0  0
   56.2434   32.6273   44.9767 H   0  0  0  0  0  0  0  0  0  0  0  0
   59.8292   27.2891   47.0427 H   0  0  0  0  0  0  0  0  0  0  0  0
   60.2708   24.8591   46.5484 H   0  0  0  0  0  0  0  0  0  0  0  0
   59.1772   22.5737   45.1791 H   0  0  0  0  0  0  0  0  0  0  0  0
   58.2050   20.6210   44.5360 H   0  0  0  0  0  0  0  0  0  0  0  0
   57.1170   19.8610   43.3330 H   0  0  0  0  0  0  0  0  0  0  0  0
   55.6750   24.6060   43.7160 H   0  0  0  0  0  0  0  0  0  0  0  0
   56.1089   27.0708   44.7809 H   0  0  0  0  0  0  0  0  0  0  0  0
   59.8653   30.5623   46.1115 H   0  0  0  0  0  0  0  0  0  0  0  0
   62.0225   34.0529   45.4361 H   0  0  0  0  0  0  0  0  0  0  0  0
   61.9819   34.6770   47.1242 H   0  0  0  0  0  0  0  0  0  0  0  0
   63.8221   32.4953   46.0171 H   0  0  0  0  0  0  0  0  0  0  0  0
   64.2751   34.1892   46.5095 H   0  0  0  0  0  0  0  0  0  0  0  0
   64.6160   32.1330   48.0620 H   0  0  0  0  0  0  0  0  0  0  0  0
   63.0318   31.5881   49.5267 H   0  0  0  0  0  0  0  0  0  0  0  0
   62.2273   33.2113   49.3298 H   0  0  0  0  0  0  0  0  0  0  0  0
   62.0654   30.8573   47.3897 H   0  0  0  0  0  0  0  0  0  0  0  0
   60.7617   31.4511   48.4775 H   0  0  0  0  0  0  0  0  0  0  0  0
  1  2  1  0
  2  3  1  0
  3  4  2  0
  4  5  1  0
  5  6  2  0
  6  7  1  0
  7  8  2  0
  7  9  2  0
  7 10  1  0
 10 11  1  0
 11 12  2  0
 12 13  1  0
 13 14  2  0
 14 15  1  0
 15 16  2  0
 16 17  1  0
 17 18  1  0
 17 19  2  0
 16 20  1  0
 20 21  1  0
 21 22  2  0
  6 23  1  0
 23 24  2  0
 24 25  1  0
 25 26  1  0
 26 27  1  0
 27 28  1  0
 28 29  1  0
 29 30  1  0
 24  3  1  0
 30 25  1  0
 22 11  1  0
 21 14  1  0
  1 31  1  0
  1 32  1  0
  1 33  1  0
  4 34  1  0
  5 35  1  0
 12 36  1  0
 13 37  1  0
 15 38  1  0
 18 39  1  0
 18 40  1  0
 20 41  1  0
 22 42  1  0
 23 43  1  0
 26 44  1  0
 26 45  1  0
 27 46  1  0
 27 47  1  0
 28 48  1  0
 29 49  1  0
 29 50  1  0
 30 51  1  0
 30 52  1  0
M  CHG  1  10  -1
M  END
>  <UniqueID>  (47) 
43

>  <SMILES>  (47) 
COc1ccc(S(=O)(=O)[N-]c2ccc3cc(C(N)=O)[nH]c3c2)cc1N1CCNCC1

>  <Energy>  (47) 
98.5752141620413

>  <Genealogy>  (47) 
COc1ccc(S(=O)(=O)[N-]c2ccc3cc(C(N)=O)[nH]c3c2)cc1N1CCNCC1 (protonated)
COc1ccc(S(=O)(=O)[N-]c2ccc3cc(C(N)=O)[nH]c3c2)cc1N1CCNCC1 (3D coordinates assigned)
COc1ccc(S(=O)(=O)[N-]c2ccc3cc(C(N)=O)[nH]c3c2)cc1N1CCNCC1 (nonaromatic ring conformer: 98.5752141620413 kcal/mol)

>  <smiles>  (47) 
COc1ccc(S(=O)(=O)Nc2ccc3cc(C(N)=O)[nH]c3c2)cc1N1CCNCC1

>  <score_type>  (47) 
oracle

>  <origin>  (47) 
adg

>  <m_score__min__energy>  (47) 
-11.529999999999999

>  <m_primary>  (47) 
energy

$$$$
47:0
     RDKit          3D

 45 47  0  0  0  0  0  0  0  0999 V2000
   58.1610   27.1070   43.5400 C   0  0  0  0  0  0  0  0  0  0  0  0
   57.5750   27.3410   44.8660 N   0  0  0  0  0  0  0  0  0  0  0  0
   57.1530   28.6530   45.2940 C   0  0  0  0  0  0  0  0  0  0  0  0
   55.9320   28.9640   45.2380 O   0  0  0  0  0  0  0  0  0  0  0  0
   58.1120   29.6560   45.8020 C   0  0  0  0  0  0  0  0  0  0  0  0
   59.3540   29.2620   46.3280 C   0  0  0  0  0  0  0  0  0  0  0  0
   60.2590   30.2240   46.7920 C   0  0  0  0  0  0  0  0  0  0  0  0
   59.9330   31.5840   46.7300 C   0  0  0  0  0  0  0  0  0  0  0  0
   58.7040   31.9850   46.1960 C   0  0  0  0  0  0  0  0  0  0  0  0
   58.3820   33.3380   46.1330 O   0  0  0  0  0  0  0  0  0  0  0  0
   57.7990   31.0270   45.7260 C   0  0  0  0  0  0  0  0  0  0  0  0
   57.4070   26.2180   45.7470 C   0  0  0  0  0  0  0  0  0  0  0  0
   56.1500   25.9130   46.2880 C   0  0  0  0  0  0  0  0  0  0  0  0
   55.0480   26.7110   45.9950 O   0  0  0  0  0  0  0  0  0  0  0  0
   56.0090   24.8370   47.1090 N   0  0  0  0  0  0  0  0  0  0  0  0
   57.0680   24.0460   47.4210 C   0  0  0  0  0  0  0  0  0  0  0  0
   56.8890   23.0240   48.2020 N   0  0  0  0  0  0  0  0  0  0  0  0
   56.6810   21.6560   47.7310 C   0  0  0  0  0  0  0  0  0  0  0  0
   55.4860   21.6030   46.7750 C   0  0  0  0  0  0  0  0  0  0  0  0
   55.8920   21.9760   45.3720 C   0  0  0  0  0  0  0  0  0  0  0  0
   55.2300   23.0160   44.6980 C   0  0  0  0  0  0  0  0  0  0  0  0
   55.5820   23.3390   43.3840 C   0  0  0  0  0  0  0  0  0  0  0  0
   56.5880   22.6220   42.7310 C   0  0  0  0  0  0  0  0  0  0  0  0
   57.2440   21.5790   43.3910 C   0  0  0  0  0  0  0  0  0  0  0  0
   56.8970   21.2540   44.7060 C   0  0  0  0  0  0  0  0  0  0  0  0
   58.2980   24.3300   46.9070 N   0  0  0  0  0  0  0  0  0  0  0  0
   58.4870   25.3910   46.0810 C   0  0  0  0  0  0  0  0  0  0  0  0
   59.6360   25.6170   45.6150 O   0  0  0  0  0  0  0  0  0  0  0  0
   59.1770   26.7013   43.6545 H   0  0  0  0  0  0  0  0  0  0  0  0
   57.5394   26.3881   42.9861 H   0  0  0  0  0  0  0  0  0  0  0  0
   58.2055   28.0563   42.9861 H   0  0  0  0  0  0  0  0  0  0  0  0
   59.6159   28.1947   46.3753 H   0  0  0  0  0  0  0  0  0  0  0  0
   61.2286   29.9105   47.2063 H   0  0  0  0  0  0  0  0  0  0  0  0
   60.6434   32.3373   47.1013 H   0  0  0  0  0  0  0  0  0  0  0  0
   56.8385   31.3462   45.2951 H   0  0  0  0  0  0  0  0  0  0  0  0
   55.1360   27.5140   45.3810 H   0  0  0  0  0  0  0  0  0  0  0  0
   57.5833   21.3116   47.2045 H   0  0  0  0  0  0  0  0  0  0  0  0
   56.4794   21.0053   48.5947 H   0  0  0  0  0  0  0  0  0  0  0  0
   55.0756   20.5824   46.7702 H   0  0  0  0  0  0  0  0  0  0  0  0
   54.7308   22.3237   47.1218 H   0  0  0  0  0  0  0  0  0  0  0  0
   54.4322   23.5779   45.2058 H   0  0  0  0  0  0  0  0  0  0  0  0
   55.0660   24.1591   42.8633 H   0  0  0  0  0  0  0  0  0  0  0  0
   56.8637   22.8784   41.6974 H   0  0  0  0  0  0  0  0  0  0  0  0
   58.0340   21.0133   42.8754 H   0  0  0  0  0  0  0  0  0  0  0  0
   57.4126   20.4301   45.2211 H   0  0  0  0  0  0  0  0  0  0  0  0
  1  2  1  0
  2  3  1  0
  3  4  2  0
  3  5  1  0
  5  6  2  0
  6  7  1  0
  7  8  2  0
  8  9  1  0
  9 10  1  0
  9 11  2  0
  2 12  1  0
 12 13  2  0
 13 14  1  0
 13 15  1  0
 15 16  1  0
 16 17  2  3
 17 18  1  0
 18 19  1  0
 19 20  1  0
 20 21  2  0
 21 22  1  0
 22 23  2  0
 23 24  1  0
 24 25  2  0
 16 26  1  0
 26 27  1  0
 27 28  2  0
 11  5  1  0
 27 12  1  0
 25 20  1  0
  1 29  1  0
  1 30  1  0
  1 31  1  0
  6 32  1  0
  7 33  1  0
  8 34  1  0
 11 35  1  0
 14 36  1  0
 18 37  1  0
 18 38  1  0
 19 39  1  0
 19 40  1  0
 21 41  1  0
 22 42  1  0
 23 43  1  0
 24 44  1  0
 25 45  1  0
M  CHG  3  10  -1  15  -1  26  -1
M  END
>  <UniqueID>  (48) 
44

>  <SMILES>  (48) 
CN(C(=O)c1cccc([O-])c1)c1c(O)[n-]c(=NCCc2ccccc2)[n-]c1=O

>  <Energy>  (48) 
57.39206287745948

>  <Genealogy>  (48) 
CN(C(=O)c1cccc([O-])c1)c1c(O)[n-]c(=NCCc2ccccc2)[n-]c1=O (protonated)
CN(C(=O)c1cccc([O-])c1)c1c(O)[n-]c(=NCCc2ccccc2)[n-]c1=O (3D coordinates assigned)
CN(C(=O)c1cccc([O-])c1)c1c(O)[n-]c(=NCCc2ccccc2)[n-]c1=O (optimized conformer: 57.39206287745948 kcal/mol)

>  <smiles>  (48) 
CN(C(=O)c1cccc(O)c1)c1c(O)[nH]c(=NCCc2ccccc2)[nH]c1=O

>  <score_type>  (48) 
oracle

>  <origin>  (48) 
adg

>  <m_score__min__energy>  (48) 
-14.15

>  <m_primary>  (48) 
energy

$$$$
48:0
     RDKit          3D

 48 51  0  0  1  0  0  0  0  0999 V2000
   59.9650   34.2010   48.4270 C   0  0  0  0  0  0  0  0  0  0  0  0
   59.8040   34.7010   46.6950 S   0  0  0  0  0  0  0  0  0  0  0  0
   58.5490   33.6700   45.9220 C   0  0  0  0  0  0  0  0  0  0  0  0
   57.2180   33.9030   45.7730 C   0  0  0  0  0  0  0  0  0  0  0  0
   56.6750   32.8780   45.1460 N   0  0  0  0  0  0  0  0  0  0  0  0
   57.6310   31.9510   44.8670 C   0  0  0  0  0  0  0  0  0  0  0  0
   57.3190   30.7180   44.1690 C   0  0  0  0  0  0  0  0  0  0  0  0
   56.5030   30.6120   43.0500 C   0  0  0  0  0  0  0  0  0  0  0  0
   56.4290   29.3300   42.6680 N   0  0  0  0  0  0  0  0  0  0  0  0
   57.1600   28.6010   43.4870 N   0  0  0  0  0  0  0  0  0  0  0  0
   57.7180   29.4180   44.4170 C   0  0  0  0  0  0  0  0  0  0  0  0
   58.6170   28.9510   45.4820 C   0  0  0  0  0  0  0  0  0  0  0  0
   57.7740   28.1430   46.4470 C   0  0  0  0  0  0  0  0  0  0  0  0
   57.4650   26.8070   45.7600 C   0  0  0  0  0  0  0  0  0  0  0  0
   58.7260   26.0700   45.8080 N   0  0  0  0  0  0  0  0  0  0  0  0
   58.8190   24.6720   45.8390 C   0  0  0  0  0  0  0  0  0  0  0  0
   59.9440   24.1080   45.8780 O   0  0  0  0  0  0  0  0  0  0  0  0
   57.6310   23.7720   45.8300 C   0  0  1  0  0  0  0  0  0  0  0  0
   58.1290   22.4170   45.3700 C   0  0  0  0  0  0  0  0  0  0  0  0
   57.3390   21.4730   46.2420 C   0  0  0  0  0  0  0  0  0  0  0  0
   57.2590   22.1200   47.4510 O   0  0  0  0  0  0  0  0  0  0  0  0
   57.1150   23.4840   47.2060 C   0  0  0  0  0  0  0  0  0  0  0  0
   59.9310   26.8820   45.8230 C   0  0  0  0  0  0  0  0  0  0  0  0
   59.6670   28.0370   44.8540 C   0  0  0  0  0  0  0  0  0  0  0  0
   58.7560   32.4500   45.3450 N   0  0  0  0  0  0  0  0  0  0  0  0
   59.6934   35.0444   49.0789 H   0  0  0  0  0  0  0  0  0  0  0  0
   59.2948   33.3521   48.6274 H   0  0  0  0  0  0  0  0  0  0  0  0
   61.0046   33.9026   48.6274 H   0  0  0  0  0  0  0  0  0  0  0  0
   56.6821   34.7993   46.1187 H   0  0  0  0  0  0  0  0  0  0  0  0
   55.9953   31.4520   42.5535 H   0  0  0  0  0  0  0  0  0  0  0  0
   55.8860   28.9510   41.8530 H   0  0  0  0  0  0  0  0  0  0  0  0
   59.1116   29.7889   45.9952 H   0  0  0  0  0  0  0  0  0  0  0  0
   58.3299   27.9686   47.3800 H   0  0  0  0  0  0  0  0  0  0  0  0
   56.8471   28.6776   46.7020 H   0  0  0  0  0  0  0  0  0  0  0  0
   56.6767   26.2643   46.3022 H   0  0  0  0  0  0  0  0  0  0  0  0
   57.0978   26.9407   44.7318 H   0  0  0  0  0  0  0  0  0  0  0  0
   56.8560   24.2510   45.2136 H   0  0  0  0  0  0  0  0  0  0  0  0
   57.9105   22.2527   44.3045 H   0  0  0  0  0  0  0  0  0  0  0  0
   59.2183   22.2935   45.4601 H   0  0  0  0  0  0  0  0  0  0  0  0
   56.3361   21.3021   45.8236 H   0  0  0  0  0  0  0  0  0  0  0  0
   57.8088   20.4818   46.3243 H   0  0  0  0  0  0  0  0  0  0  0  0
   56.0531   23.7634   47.2710 H   0  0  0  0  0  0  0  0  0  0  0  0
   57.6788   24.0643   47.9512 H   0  0  0  0  0  0  0  0  0  0  0  0
   60.1208   27.2673   46.8357 H   0  0  0  0  0  0  0  0  0  0  0  0
   60.8158   26.2993   45.5272 H   0  0  0  0  0  0  0  0  0  0  0  0
   60.5965   28.5996   44.6821 H   0  0  0  0  0  0  0  0  0  0  0  0
   59.3083   27.6507   43.8885 H   0  0  0  0  0  0  0  0  0  0  0  0
   59.7000   32.0270   45.3270 H   0  0  0  0  0  0  0  0  0  0  0  0
  1  2  1  0
  2  3  1  0
  3  4  2  0
  4  5  1  0
  5  6  2  0
  6  7  1  0
  7  8  2  0
  8  9  1  0
  9 10  1  0
 10 11  2  0
 11 12  1  0
 12 13  1  0
 13 14  1  0
 14 15  1  0
 15 16  1  0
 16 17  2  0
 16 18  1  0
 18 19  1  0
 19 20  1  0
 20 21  1  0
 21 22  1  0
 15 23  1  0
 23 24  1  0
  6 25  1  0
 25  3  1  0
 11  7  1  0
 24 12  1  0
 22 18  1  0
  1 26  1  0
  1 27  1  0
  1 28  1  0
  4 29  1  0
  8 30  1  0
  9 31  1  0
 12 32  1  0
 13 33  1  0
 13 34  1  0
 14 35  1  0
 14 36  1  0
 18 37  1  6
 19 38  1  0
 19 39  1  0
 20 40  1  0
 20 41  1  0
 22 42  1  0
 22 43  1  0
 23 44  1  0
 23 45  1  0
 24 46  1  0
 24 47  1  0
 25 48  1  0
M  END
>  <smiles>  (49) 
CSc1cnc(-c2c[nH]nc2C2CCN(C(=O)C3CCOC3)CC2)[nH]1

>  <score_type>  (49) 
oracle

>  <origin>  (49) 
adg

>  <m_score__min__energy>  (49) 
-8.0099999999999998

>  <m_primary>  (49) 
energy

$$$$
49:0
     RDKit          3D

 35 37  0  0  0  0  0  0  0  0999 V2000
   56.1266   31.8201   51.8429 H   0  0  0  0  0  0  0  0  0  0  0  0
   55.0670   31.5810   52.0160 C   0  0  0  0  0  0  0  0  0  0  0  0
   54.2942   32.3418   51.8317 H   0  0  0  0  0  0  0  0  0  0  0  0
   54.7170   30.3610   52.4520 C   0  0  0  0  0  0  0  0  0  0  0  0
   53.4170   29.9000   52.7200 C   0  0  0  0  0  0  0  0  0  0  0  0
   52.2130   30.4210   52.4130 C   0  0  0  0  0  0  0  0  0  0  0  0
   51.4909   30.5378   53.2345 H   0  0  0  0  0  0  0  0  0  0  0  0
   51.7820   30.8470   51.0720 C   0  0  0  0  0  0  0  0  0  0  0  0
   51.7270   30.0460   49.9910 N   0  0  0  0  0  0  0  0  0  0  0  0
   51.1500   30.8270   49.0520 C   0  0  0  0  0  0  0  0  0  0  0  0
   50.9380   30.4290   47.8780 O   0  0  0  0  0  0  0  0  0  0  0  0
   50.8070   32.0620   49.4750 N   0  0  0  0  0  0  0  0  0  0  0  0
   51.2010   32.0530   50.7590 C   0  0  0  0  0  0  0  0  0  0  0  0
   51.0290   33.1210   51.6290 O   0  0  0  0  0  0  0  0  0  0  0  0
   53.5630   28.7010   53.3990 C   0  0  0  0  0  0  0  0  0  0  0  0
   52.7554   28.0809   53.8152 H   0  0  0  0  0  0  0  0  0  0  0  0
   54.9160   28.4340   53.4530 C   0  0  0  0  0  0  0  0  0  0  0  0
   55.5160   27.2160   54.0860 C   0  0  0  0  0  0  0  0  0  0  0  0
   55.4692   27.3110   55.1809 H   0  0  0  0  0  0  0  0  0  0  0  0
   54.9540   26.3244   53.7710 H   0  0  0  0  0  0  0  0  0  0  0  0
   56.5654   27.1182   53.7710 H   0  0  0  0  0  0  0  0  0  0  0  0
   55.6160   29.4380   52.8800 N   0  0  0  0  0  0  0  0  0  0  0  0
   57.0510   29.5170   52.7880 C   0  0  0  0  0  0  0  0  0  0  0  0
   57.6630   29.7960   51.5580 C   0  0  0  0  0  0  0  0  0  0  0  0
   57.0445   29.9590   50.6630 H   0  0  0  0  0  0  0  0  0  0  0  0
   59.0560   29.8680   51.4640 C   0  0  0  0  0  0  0  0  0  0  0  0
   59.5268   30.0883   50.4946 H   0  0  0  0  0  0  0  0  0  0  0  0
   59.8600   29.6610   52.5990 C   0  0  0  0  0  0  0  0  0  0  0  0
   61.3340   29.7360   52.5040 C   0  0  0  0  0  0  0  0  0  0  0  0
   62.0310   29.9800   53.5250 O   0  0  0  0  0  0  0  0  0  0  0  0
   61.9720   29.5410   51.2840 O   0  0  0  0  0  0  0  0  0  0  0  0
   59.2410   29.3820   53.8300 C   0  0  0  0  0  0  0  0  0  0  0  0
   59.8569   29.2185   54.7266 H   0  0  0  0  0  0  0  0  0  0  0  0
   57.8480   29.3110   53.9220 C   0  0  0  0  0  0  0  0  0  0  0  0
   57.3746   29.0921   54.8905 H   0  0  0  0  0  0  0  0  0  0  0  0
  1  2  1  0
  2  3  1  0
  2  4  2  0
  4  5  1  0
  5  6  2  0
  6  7  1  0
  6  8  1  0
  8  9  1  0
  9 10  1  0
 10 11  2  0
 10 12  1  0
 12 13  1  0
 13 14  1  0
  5 15  1  0
 15 16  1  0
 15 17  2  0
 17 18  1  0
 18 19  1  0
 18 20  1  0
 18 21  1  0
 17 22  1  0
 22 23  1  0
 23 24  2  0
 24 25  1  0
 24 26  1  0
 26 27  1  0
 26 28  2  0
 28 29  1  0
 29 30  2  0
 29 31  1  0
 28 32  1  0
 32 33  1  0
 32 34  2  0
 34 35  1  0
 22  4  1  0
 34 23  1  0
 13  8  2  0
M  CHG  4   9  -1  12  -1  14  -1  31  -1
M  END
>  <UniqueID>  (50) 
45

>  <SMILES>  (50) 
C=c1/c(=C\c2[n-]c(=O)[n-]c2[O-])cc(C)n1-c1ccc(C(=O)[O-])cc1

>  <Energy>  (50) 
112.74085720124779

>  <Genealogy>  (50) 
C=c1c(=Cc2[n-]c(=O)[n-]c2[O-])cc(C)n1-c1ccc(C(=O)[O-])cc1 (protonated)
C=c1/c(=C\c2[n-]c(=O)[n-]c2[O-])cc(C)n1-c1ccc(C(=O)[O-])cc1 (cis-trans isomerization)
C=c1/c(=C\c2[n-]c(=O)[n-]c2[O-])cc(C)n1-c1ccc(C(=O)[O-])cc1 (3D coordinates assigned)
C=c1/c(=C\c2[n-]c(=O)[n-]c2[O-])cc(C)n1-c1ccc(C(=O)[O-])cc1 (optimized conformer: 112.74085720124779 kcal/mol)

>  <smiles>  (50) 
C=c1c(=Cc2[nH]c(=O)[nH]c2O)cc(C)n1-c1ccc(C(=O)O)cc1

>  <score_type>  (50) 
oracle

>  <origin>  (50) 
adg

>  <m_score__min__energy>  (50) 
-15.73

>  <m_primary>  (50) 
energy

$$$$
50:0
     RDKit          3D

 47 50  0  0  0  0  0  0  0  0999 V2000
   55.8220   28.8420   44.9250 O   0  0  0  0  0  0  0  0  0  0  0  0
   56.9770   28.4460   45.2470 C   0  0  0  0  0  0  0  0  0  0  0  0
   57.1770   27.0210   45.6030 C   0  0  0  0  0  0  0  0  0  0  0  0
   58.4700   26.4710   45.5990 C   0  0  0  0  0  0  0  0  0  0  0  0
   58.6750   25.1350   45.9530 C   0  0  0  0  0  0  0  0  0  0  0  0
   57.5930   24.3340   46.3230 C   0  0  0  0  0  0  0  0  0  0  0  0
   56.3030   24.8700   46.3400 C   0  0  0  0  0  0  0  0  0  0  0  0
   56.0880   26.2060   45.9840 C   0  0  0  0  0  0  0  0  0  0  0  0
   54.7910   26.7090   45.9970 O   0  0  0  0  0  0  0  0  0  0  0  0
   58.0600   29.3960   45.2930 N   0  0  0  0  0  0  0  0  0  0  0  0
   57.7630   30.8050   45.5700 C   0  0  0  0  0  0  0  0  0  0  0  0
   59.0500   31.6430   45.6380 C   0  0  0  0  0  0  0  0  0  0  0  0
   60.1410   30.9360   46.3490 N   0  0  0  0  0  0  0  0  0  0  0  0
   59.8370   30.8230   47.7670 C   0  0  0  0  0  0  0  0  0  0  0  0
   59.1060   29.8770   48.1750 O   0  0  0  0  0  0  0  0  0  0  0  0
   60.3410   31.8090   48.7640 C   0  0  0  0  0  0  0  0  0  0  0  0
   61.7260   31.9310   48.9820 C   0  0  0  0  0  0  0  0  0  0  0  0
   62.2120   32.8540   49.9250 C   0  0  0  0  0  0  0  0  0  0  0  0
   63.6590   33.0220   50.1820 C   0  0  0  0  0  0  0  0  0  0  0  0
   64.7160   32.3380   49.5820 C   0  0  0  0  0  0  0  0  0  0  0  0
   65.9750   32.7360   50.0530 C   0  0  0  0  0  0  0  0  0  0  0  0
   65.9230   33.7290   51.0200 C   0  0  0  0  0  0  0  0  0  0  0  0
   64.3100   34.1120   51.2900 S   0  0  0  0  0  0  0  0  0  0  0  0
   61.3290   33.6180   50.6220 N   0  0  0  0  0  0  0  0  0  0  0  0
   59.9870   33.5210   50.4430 C   0  0  0  0  0  0  0  0  0  0  0  0
   59.2120   34.2470   51.1190 O   0  0  0  0  0  0  0  0  0  0  0  0
   59.4680   32.6160   49.5150 C   0  0  0  0  0  0  0  0  0  0  0  0
   60.4830   29.6140   45.7450 C   0  0  0  0  0  0  0  0  0  0  0  0
   59.3990   29.0430   44.8120 C   0  0  0  0  0  0  0  0  0  0  0  0
   59.3282   27.0976   45.3147 H   0  0  0  0  0  0  0  0  0  0  0  0
   59.6909   24.7134   45.9401 H   0  0  0  0  0  0  0  0  0  0  0  0
   57.7560   23.2822   46.6008 H   0  0  0  0  0  0  0  0  0  0  0  0
   55.4519   24.2385   46.6348 H   0  0  0  0  0  0  0  0  0  0  0  0
   57.1199   31.1999   44.7697 H   0  0  0  0  0  0  0  0  0  0  0  0
   57.2550   30.8684   46.5436 H   0  0  0  0  0  0  0  0  0  0  0  0
   59.3816   31.8668   44.6133 H   0  0  0  0  0  0  0  0  0  0  0  0
   58.8244   32.5639   46.1958 H   0  0  0  0  0  0  0  0  0  0  0  0
   61.0010   31.5240   46.2510 H   0  0  0  0  0  0  0  0  0  0  0  0
   62.4290   31.3038   48.4142 H   0  0  0  0  0  0  0  0  0  0  0  0
   64.5756   31.5625   48.8146 H   0  0  0  0  0  0  0  0  0  0  0  0
   66.9174   32.3008   49.6891 H   0  0  0  0  0  0  0  0  0  0  0  0
   66.7879   34.1863   51.5228 H   0  0  0  0  0  0  0  0  0  0  0  0
   58.3804   32.5346   49.3719 H   0  0  0  0  0  0  0  0  0  0  0  0
   61.4103   29.7301   45.1649 H   0  0  0  0  0  0  0  0  0  0  0  0
   60.5859   28.9042   46.5791 H   0  0  0  0  0  0  0  0  0  0  0  0
   59.5394   29.4546   43.8016 H   0  0  0  0  0  0  0  0  0  0  0  0
   59.4900   27.9469   44.7948 H   0  0  0  0  0  0  0  0  0  0  0  0
  1  2  2  0
  2  3  1  0
  3  4  2  0
  4  5  1  0
  5  6  2  0
  6  7  1  0
  7  8  2  0
  8  9  1  0
  2 10  1  0
 10 11  1  0
 11 12  1  0
 12 13  1  0
 13 14  1  0
 14 15  2  0
 14 16  1  0
 16 17  1  0
 17 18  2  0
 18 19  1  0
 19 20  2  0
 20 21  1  0
 21 22  2  0
 22 23  1  0
 18 24  1  0
 24 25  1  0
 25 26  2  0
 25 27  1  0
 13 28  1  0
 28 29  1  0
  8  3  1  0
 29 10  1  0
 27 16  2  0
 23 19  1  0
  4 30  1  0
  5 31  1  0
  6 32  1  0
  7 33  1  0
 11 34  1  0
 11 35  1  0
 12 36  1  0
 12 37  1  0
 13 38  1  0
 17 39  1  0
 20 40  1  0
 21 41  1  0
 22 42  1  0
 27 43  1  0
 28 44  1  0
 28 45  1  0
 29 46  1  0
 29 47  1  0
M  CHG  3   9  -1  13   1  24  -1
M  END
>  <UniqueID>  (51) 
46

>  <SMILES>  (51) 
O=C(c1ccccc1[O-])N1CC[NH+](C(=O)c2cc(-c3cccs3)[n-]c(=O)c2)CC1

>  <Energy>  (51) 
97.13024213817717

>  <Genealogy>  (51) 
O=C(c1ccccc1[O-])N1CC[NH+](C(=O)c2cc(-c3cccs3)[n-]c(=O)c2)CC1 (protonated)
O=C(c1ccccc1[O-])N1CC[NH+](C(=O)c2cc(-c3cccs3)[n-]c(=O)c2)CC1 (3D coordinates assigned)
O=C(c1ccccc1[O-])N1CC[NH+](C(=O)c2cc(-c3cccs3)[n-]c(=O)c2)CC1 (nonaromatic ring conformer: 97.13024213817717 kcal/mol)

>  <smiles>  (51) 
O=C(c1cc(-c2cccs2)[nH]c(=O)c1)N1CCN(C(=O)c2ccccc2O)CC1

>  <score_type>  (51) 
oracle

>  <origin>  (51) 
adg

>  <m_score__min__energy>  (51) 
-11.529999999999999

>  <m_primary>  (51) 
energy

$$$$
51:0
     RDKit          3D

 57 59  0  0  0  0  0  0  0  0999 V2000
   59.6130   29.6310   46.0970 C   0  0  0  0  0  0  0  0  0  0  0  0
   58.9630   30.8860   46.6010 C   0  0  0  0  0  0  0  0  0  0  0  0
   58.6500   31.9230   45.7110 C   0  0  0  0  0  0  0  0  0  0  0  0
   58.0990   33.1230   46.1820 C   0  0  0  0  0  0  0  0  0  0  0  0
   57.7240   34.2170   45.2260 C   0  0  0  0  0  0  0  0  0  0  0  0
   57.8450   33.2740   47.5530 C   0  0  0  0  0  0  0  0  0  0  0  0
   58.1510   32.2450   48.4540 C   0  0  0  0  0  0  0  0  0  0  0  0
   57.9310   32.4500   49.8620 N   0  0  0  0  0  0  0  0  0  0  0  0
   58.9970   32.6300   50.8210 C   0  0  0  0  0  0  0  0  0  0  0  0
   60.1110   33.3830   50.4420 C   0  0  0  0  0  0  0  0  0  0  0  0
   61.3080   33.5400   51.1480 C   0  0  0  0  0  0  0  0  0  0  0  0
   62.3100   33.8770   50.4550 O   0  0  0  0  0  0  0  0  0  0  0  0
   61.4570   33.4050   52.5100 N   0  0  0  0  0  0  0  0  0  0  0  0
   62.8250   33.5460   53.0500 C   0  0  0  0  0  0  0  0  0  0  0  0
   60.4250   33.4300   53.4160 C   0  0  0  0  0  0  0  0  0  0  0  0
   60.6280   33.9740   54.5410 O   0  0  0  0  0  0  0  0  0  0  0  0
   59.1770   32.8100   53.2160 C   0  0  0  0  0  0  0  0  0  0  0  0
   58.1470   32.9000   54.3210 C   0  0  0  0  0  0  0  0  0  0  0  0
   58.8960   32.0300   52.0830 C   0  0  0  0  0  0  0  0  0  0  0  0
   58.2880   30.6710   52.2150 C   0  0  0  0  0  0  0  0  0  0  0  0
   59.0300   29.6520   52.1720 O   0  0  0  0  0  0  0  0  0  0  0  0
   56.8960   30.5030   52.5100 N   0  0  0  0  0  0  0  0  0  0  0  0
   55.8270   30.7600   51.5520 C   0  0  0  0  0  0  0  0  0  0  0  0
   54.6190   29.8680   51.8470 C   0  0  0  0  0  0  0  0  0  0  0  0
   53.3620   30.6920   51.9370 C   0  0  0  0  0  0  0  0  0  0  0  0
   52.7460   30.9080   53.1810 C   0  0  0  0  0  0  0  0  0  0  0  0
   51.5970   31.6990   53.2700 C   0  0  0  0  0  0  0  0  0  0  0  0
   51.0590   32.2890   52.1230 C   0  0  0  0  0  0  0  0  0  0  0  0
   49.9130   33.0690   52.2160 O   0  0  0  0  0  0  0  0  0  0  0  0
   51.6760   32.0920   50.8810 C   0  0  0  0  0  0  0  0  0  0  0  0
   51.1480   32.6780   49.7380 O   0  0  0  0  0  0  0  0  0  0  0  0
   52.8260   31.3000   50.7900 C   0  0  0  0  0  0  0  0  0  0  0  0
   58.7330   31.0590   47.9720 C   0  0  0  0  0  0  0  0  0  0  0  0
   59.9320   29.0150   46.9507 H   0  0  0  0  0  0  0  0  0  0  0  0
   58.8942   29.0659   45.4854 H   0  0  0  0  0  0  0  0  0  0  0  0
   60.4893   29.8920   45.4854 H   0  0  0  0  0  0  0  0  0  0  0  0
   58.8382   31.7941   44.6349 H   0  0  0  0  0  0  0  0  0  0  0  0
   57.4181   35.1094   45.7917 H   0  0  0  0  0  0  0  0  0  0  0  0
   58.5891   34.4630   44.5927 H   0  0  0  0  0  0  0  0  0  0  0  0
   56.8899   33.8806   44.5927 H   0  0  0  0  0  0  0  0  0  0  0  0
   57.4012   34.2093   47.9248 H   0  0  0  0  0  0  0  0  0  0  0  0
   56.9360   32.5690   50.1520 H   0  0  0  0  0  0  0  0  0  0  0  0
   60.0385   33.9119   49.4802 H   0  0  0  0  0  0  0  0  0  0  0  0
   62.7874   33.5421   54.1494 H   0  0  0  0  0  0  0  0  0  0  0  0
   63.4451   32.7070   52.7013 H   0  0  0  0  0  0  0  0  0  0  0  0
   63.2609   34.4938   52.7013 H   0  0  0  0  0  0  0  0  0  0  0  0
   58.6518   32.8559   55.2973 H   0  0  0  0  0  0  0  0  0  0  0  0
   57.5984   33.8495   54.2345 H   0  0  0  0  0  0  0  0  0  0  0  0
   57.4420   32.0600   54.2345 H   0  0  0  0  0  0  0  0  0  0  0  0
   55.5239   31.8151   51.6219 H   0  0  0  0  0  0  0  0  0  0  0  0
   56.1950   30.5382   50.5394 H   0  0  0  0  0  0  0  0  0  0  0  0
   54.5097   29.1286   51.0399 H   0  0  0  0  0  0  0  0  0  0  0  0
   54.7797   29.3596   52.8091 H   0  0  0  0  0  0  0  0  0  0  0  0
   53.1695   30.4529   54.0885 H   0  0  0  0  0  0  0  0  0  0  0  0
   51.1147   31.8576   54.2458 H   0  0  0  0  0  0  0  0  0  0  0  0
   53.3129   31.1528   49.8147 H   0  0  0  0  0  0  0  0  0  0  0  0
   59.0097   30.2611   48.6768 H   0  0  0  0  0  0  0  0  0  0  0  0
  1  2  1  0
  2  3  2  0
  3  4  1  0
  4  5  1  0
  4  6  2  0
  6  7  1  0
  7  8  1  0
  8  9  1  0
  9 10  2  0
 10 11  1  0
 11 12  2  0
 11 13  1  0
 13 14  1  0
 13 15  1  0
 15 16  2  0
 15 17  1  0
 17 18  1  0
 17 19  2  0
 19 20  1  0
 20 21  2  0
 20 22  1  0
 22 23  1  0
 23 24  1  0
 24 25  1  0
 25 26  2  0
 26 27  1  0
 27 28  2  0
 28 29  1  0
 28 30  1  0
 30 31  1  0
 30 32  2  0
  7 33  2  0
 33  2  1  0
 19  9  1  0
 32 25  1  0
  1 34  1  0
  1 35  1  0
  1 36  1  0
  3 37  1  0
  5 38  1  0
  5 39  1  0
  5 40  1  0
  6 41  1  0
  8 42  1  0
 10 43  1  0
 14 44  1  0
 14 45  1  0
 14 46  1  0
 18 47  1  0
 18 48  1  0
 18 49  1  0
 23 50  1  0
 23 51  1  0
 24 52  1  0
 24 53  1  0
 26 54  1  0
 27 55  1  0
 32 56  1  0
 33 57  1  0
M  CHG  3  22  -1  29  -1  31  -1
M  END
>  <UniqueID>  (52) 
47

>  <SMILES>  (52) 
Cc1cc(C)cc(Nc2cc(=O)n(C)c(=O)c(C)c2C(=O)[N-]CCc2ccc([O-])c([O-])c2)c1

>  <Energy>  (52) 
116.1111784270388

>  <Genealogy>  (52) 
Cc1cc(C)cc(Nc2cc(=O)n(C)c(=O)c(C)c2C(=O)[N-]CCc2ccc([O-])c([O-])c2)c1 (protonated)
Cc1cc(C)cc(Nc2cc(=O)n(C)c(=O)c(C)c2C(=O)[N-]CCc2ccc([O-])c([O-])c2)c1 (3D coordinates assigned)
Cc1cc(C)cc(Nc2cc(=O)n(C)c(=O)c(C)c2C(=O)[N-]CCc2ccc([O-])c([O-])c2)c1 (optimized conformer: 116.1111784270388 kcal/mol)

>  <smiles>  (52) 
Cc1cc(C)cc(Nc2cc(=O)n(C)c(=O)c(C)c2C(=O)NCCc2ccc(O)c(O)c2)c1

>  <score_type>  (52) 
oracle

>  <origin>  (52) 
adg

>  <m_score__min__energy>  (52) 
-19.329999999999998

>  <m_primary>  (52) 
energy

$$$$
52:0
     RDKit          3D

 37 39  0  0  1  0  0  0  0  0999 V2000
   58.8820   30.1540   48.2850 C   0  0  0  0  0  0  0  0  0  0  0  0
   58.6970   31.4560   47.7610 O   0  0  0  0  0  0  0  0  0  0  0  0
   59.7930   32.2170   47.4570 C   0  0  0  0  0  0  0  0  0  0  0  0
   61.0430   32.0260   48.0300 C   0  0  0  0  0  0  0  0  0  0  0  0
   62.1210   32.8290   47.6840 C   0  0  0  0  0  0  0  0  0  0  0  0
   62.0180   33.8520   46.7620 C   0  0  0  0  0  0  0  0  0  0  0  0
   60.7690   34.0400   46.1940 C   0  0  0  0  0  0  0  0  0  0  0  0
   59.6800   33.2340   46.5390 C   0  0  0  0  0  0  0  0  0  0  0  0
   58.4560   33.5480   45.8680 N   0  0  0  0  0  0  0  0  0  0  0  0
   58.0100   32.7140   44.9990 C   0  0  0  0  0  0  0  0  0  0  0  0
   58.2210   32.9210   43.6870 N   0  0  0  0  0  0  0  0  0  0  0  0
   57.7660   32.0660   42.7360 C   0  0  0  0  0  0  0  0  0  0  0  0
   58.0270   32.3410   41.2810 C   0  0  0  0  0  0  0  0  0  0  0  0
   57.0860   30.9810   43.1450 N   0  0  0  0  0  0  0  0  0  0  0  0
   56.8510   30.7320   44.4470 C   0  0  0  0  0  0  0  0  0  0  0  0
   56.2010   29.6990   44.8670 N   0  0  0  0  0  0  0  0  0  0  0  0
   56.8910   28.4640   45.1290 C   0  0  0  0  0  0  0  0  0  0  0  0
   57.7820   27.9220   44.0440 C   0  0  0  0  0  0  0  0  0  0  0  0
   58.4110   28.6540   45.2220 C   0  0  0  0  0  0  0  0  0  0  0  0
   57.3200   31.6080   45.3550 N   0  0  0  0  0  0  0  0  0  0  0  0
   58.8759   30.1968   49.3841 H   0  0  0  0  0  0  0  0  0  0  0  0
   58.0677   29.5004   47.9390 H   0  0  0  0  0  0  0  0  0  0  0  0
   59.8461   29.7531   47.9390 H   0  0  0  0  0  0  0  0  0  0  0  0
   61.1815   31.2247   48.7708 H   0  0  0  0  0  0  0  0  0  0  0  0
   63.0941   32.6435   48.1622 H   0  0  0  0  0  0  0  0  0  0  0  0
   62.8791   34.4818   46.4940 H   0  0  0  0  0  0  0  0  0  0  0  0
   60.6306   34.8422   45.4542 H   0  0  0  0  0  0  0  0  0  0  0  0
   58.7815   33.1360   41.1877 H   0  0  0  0  0  0  0  0  0  0  0  0
   58.3967   31.4258   40.7954 H   0  0  0  0  0  0  0  0  0  0  0  0
   57.0938   32.6624   40.7954 H   0  0  0  0  0  0  0  0  0  0  0  0
   56.7210   30.2990   42.4440 H   0  0  0  0  0  0  0  0  0  0  0  0
   56.0933   28.0141   45.7383 H   0  0  0  0  0  0  0  0  0  0  0  0
   57.9178   26.8355   43.9389 H   0  0  0  0  0  0  0  0  0  0  0  0
   57.8254   28.0368   42.9509 H   0  0  0  0  0  0  0  0  0  0  0  0
   58.9928   28.0977   45.9717 H   0  0  0  0  0  0  0  0  0  0  0  0
   59.0878   29.5131   45.3401 H   0  0  0  0  0  0  0  0  0  0  0  0
   57.1380   31.4160   46.3650 H   0  0  0  0  0  0  0  0  0  0  0  0
  1  2  1  0
  2  3  1  0
  3  4  2  0
  4  5  1  0
  5  6  2  0
  6  7  1  0
  7  8  2  0
  8  9  1  0
  9 10  2  0
 10 11  1  0
 11 12  2  0
 12 13  1  0
 12 14  1  0
 14 15  1  0
 15 16  2  0
 16 17  1  0
 17 18  1  0
 18 19  1  0
 15 20  1  0
  8  3  1  0
 20 10  1  0
 19 17  1  0
  1 21  1  0
  1 22  1  0
  1 23  1  0
  4 24  1  0
  5 25  1  0
  6 26  1  0
  7 27  1  0
 13 28  1  0
 13 29  1  0
 13 30  1  0
 14 31  1  0
 17 32  1  0
 18 33  1  0
 18 34  1  0
 19 35  1  0
 19 36  1  0
 20 37  1  0
M  END
>  <smiles>  (53) 
COc1ccccc1N=c1nc(C)[nH]c(=NC2CC2)[nH]1

>  <score_type>  (53) 
oracle

>  <origin>  (53) 
adg

>  <m_score__min__energy>  (53) 
-6.9400000000000004

>  <m_primary>  (53) 
energy

$$$$
53:0
     RDKit          3D

 29 30  0  0  0  0  0  0  0  0999 V2000
   57.2000   30.0880   43.3350 C   0  0  0  0  0  0  0  0  0  0  0  0
   57.9030   30.6860   44.3160 C   0  0  0  0  0  0  0  0  0  0  0  0
   57.9970   32.0890   44.2640 C   0  0  0  0  0  0  0  0  0  0  0  0
   58.4570   32.8230   45.3560 C   0  0  0  0  0  0  0  0  0  0  0  0
   58.5560   34.3190   45.2730 C   0  0  0  0  0  0  0  0  0  0  0  0
   58.8440   32.1570   46.5180 C   0  0  0  0  0  0  0  0  0  0  0  0
   58.8220   30.7560   46.5940 C   0  0  0  0  0  0  0  0  0  0  0  0
   59.2980   30.1230   47.8830 C   0  0  0  0  0  0  0  0  0  0  0  0
   58.4420   29.9840   45.4490 C   0  0  0  0  0  0  0  0  0  0  0  0
   58.6450   28.6340   45.4680 C   0  0  0  0  0  0  0  0  0  0  0  0
   57.6400   27.6070   45.8050 C   0  0  0  0  0  0  0  0  0  0  0  0
   57.9660   26.3860   46.2660 N   0  0  0  0  0  0  0  0  0  0  0  0
   56.7730   25.7660   46.3840 C   0  0  0  0  0  0  0  0  0  0  0  0
   56.6600   24.5870   46.8060 O   0  0  0  0  0  0  0  0  0  0  0  0
   55.7100   26.5060   46.0030 N   0  0  0  0  0  0  0  0  0  0  0  0
   56.2720   27.6650   45.6240 C   0  0  0  0  0  0  0  0  0  0  0  0
   55.5430   28.7270   45.0940 O   0  0  0  0  0  0  0  0  0  0  0  0
   57.0926   28.9933   43.3241 H   0  0  0  0  0  0  0  0  0  0  0  0
   56.7332   30.6943   42.5447 H   0  0  0  0  0  0  0  0  0  0  0  0
   57.7021   32.6162   43.3447 H   0  0  0  0  0  0  0  0  0  0  0  0
   58.5840   34.7415   46.2882 H   0  0  0  0  0  0  0  0  0  0  0  0
   59.4745   34.5964   44.7350 H   0  0  0  0  0  0  0  0  0  0  0  0
   57.6821   34.7150   44.7350 H   0  0  0  0  0  0  0  0  0  0  0  0
   59.1725   32.7402   47.3909 H   0  0  0  0  0  0  0  0  0  0  0  0
   58.8823   30.6758   48.7383 H   0  0  0  0  0  0  0  0  0  0  0  0
   58.9611   29.0767   47.9239 H   0  0  0  0  0  0  0  0  0  0  0  0
   60.3967   30.1563   47.9239 H   0  0  0  0  0  0  0  0  0  0  0  0
   59.6527   28.2782   45.2075 H   0  0  0  0  0  0  0  0  0  0  0  0
   54.7520   28.5770   44.4820 H   0  0  0  0  0  0  0  0  0  0  0  0
  1  2  2  0
  2  3  1  0
  3  4  2  0
  4  5  1  0
  4  6  1  0
  6  7  2  0
  7  8  1  0
  7  9  1  0
  9 10  2  3
 10 11  1  0
 11 12  1  0
 12 13  1  0
 13 14  2  0
 13 15  1  0
 15 16  1  0
 16 17  1  0
  9  2  1  0
 16 11  2  0
  1 18  1  0
  1 19  1  0
  3 20  1  0
  5 21  1  0
  5 22  1  0
  5 23  1  0
  6 24  1  0
  8 25  1  0
  8 26  1  0
  8 27  1  0
 10 28  1  0
 17 29  1  0
M  CHG  2  12  -1  15  -1
M  END
>  <UniqueID>  (54) 
48

>  <SMILES>  (54) 
C=c1cc(C)cc(C)c1=Cc1[n-]c(=O)[n-]c1O

>  <Energy>  (54) 
82.93740720432915

>  <Genealogy>  (54) 
C=c1cc(C)cc(C)c1=Cc1[n-]c(=O)[n-]c1O (protonated)
C=c1cc(C)cc(C)c1=Cc1[n-]c(=O)[n-]c1O (3D coordinates assigned)
C=c1cc(C)cc(C)c1=Cc1[n-]c(=O)[n-]c1O (optimized conformer: 82.93740720432915 kcal/mol)

>  <smiles>  (54) 
C=c1cc(C)cc(C)c1=Cc1[nH]c(=O)[nH]c1O

>  <score_type>  (54) 
oracle

>  <origin>  (54) 
adg

>  <m_score__min__energy>  (54) 
-10.960000000000001

>  <m_primary>  (54) 
energy

$$$$
54:0
     RDKit          3D

 70 74  0  0  0  0  0  0  0  0999 V2000
   58.3790   27.6100   54.7310 C   0  0  0  0  0  0  0  0  0  0  0  0
   58.3080   28.4030   53.4700 C   0  0  0  0  0  0  0  0  0  0  0  0
   57.2310   29.1300   53.1010 N   0  0  0  0  0  0  0  0  0  0  0  0
   57.4180   29.8150   51.9720 N   0  0  0  0  0  0  0  0  0  0  0  0
   58.6500   29.6420   51.4460 C   0  0  0  0  0  0  0  0  0  0  0  0
   59.2170   30.4590   49.9550 S   0  0  0  0  0  0  0  0  0  0  0  0
   58.0300   31.8420   50.0720 C   0  0  0  0  0  0  0  0  0  0  0  0
   58.5490   32.9340   51.0100 C   0  0  0  0  0  0  0  0  0  0  0  0
   59.9930   33.1160   50.8360 N   0  0  0  0  0  0  0  0  0  0  0  0
   60.9750   32.9870   51.7710 C   0  0  0  0  0  0  0  0  0  0  0  0
   60.7420   32.6990   53.1600 N   0  0  0  0  0  0  0  0  0  0  0  0
   61.1180   31.3940   53.7190 C   0  0  0  0  0  0  0  0  0  0  0  0
   60.1190   30.9660   54.8060 C   0  0  0  0  0  0  0  0  0  0  0  0
   58.7500   31.3200   54.4130 N   0  0  0  0  0  0  0  0  0  0  0  0
   58.5540   32.7810   54.2970 C   0  0  0  0  0  0  0  0  0  0  0  0
   59.8360   33.5540   53.9330 C   0  0  0  0  0  0  0  0  0  0  0  0
   62.2290   33.1300   51.2680 N   0  0  0  0  0  0  0  0  0  0  0  0
   62.0020   33.3710   49.9660 C   0  0  0  0  0  0  0  0  0  0  0  0
   62.9480   33.5810   48.9750 C   0  0  0  0  0  0  0  0  0  0  0  0
   62.4770   33.7890   47.6680 C   0  0  0  0  0  0  0  0  0  0  0  0
   61.1260   33.7820   47.3880 N   0  0  0  0  0  0  0  0  0  0  0  0
   60.6860   33.9860   45.9960 C   0  0  0  0  0  0  0  0  0  0  0  0
   59.6330   35.1010   45.8910 C   0  0  0  0  0  0  0  0  0  0  0  0
   58.2990   34.5900   45.3270 C   0  0  0  0  0  0  0  0  0  0  0  0
   58.4150   33.1700   44.8500 C   0  0  0  0  0  0  0  0  0  0  0  0
   58.5390   32.9380   43.6160 O   0  0  0  0  0  0  0  0  0  0  0  0
   58.3820   32.0870   45.7940 N   0  0  0  0  0  0  0  0  0  0  0  0
   58.2620   30.7020   45.4190 C   0  0  0  0  0  0  0  0  0  0  0  0
   57.1900   30.2830   44.6090 C   0  0  0  0  0  0  0  0  0  0  0  0
   57.0290   28.9380   44.2850 C   0  0  0  0  0  0  0  0  0  0  0  0
   57.9160   27.9870   44.7810 C   0  0  0  0  0  0  0  0  0  0  0  0
   58.9800   28.3710   45.6050 C   0  0  0  0  0  0  0  0  0  0  0  0
   60.0280   27.1000   46.2270 Cl  0  0  0  0  0  0  0  0  0  0  0  0
   59.1740   29.7380   45.9190 C   0  0  0  0  0  0  0  0  0  0  0  0
   60.3230   30.1810   46.7940 C   0  0  0  0  0  0  0  0  0  0  0  0
   60.2030   33.5660   48.3890 C   0  0  0  0  0  0  0  0  0  0  0  0
   58.9680   33.5520   48.1350 O   0  0  0  0  0  0  0  0  0  0  0  0
   60.6680   33.3640   49.6950 C   0  0  0  0  0  0  0  0  0  0  0  0
   59.5890   28.6140   52.3950 S   0  0  0  0  0  0  0  0  0  0  0  0
   58.3183   28.2885   55.5947 H   0  0  0  0  0  0  0  0  0  0  0  0
   57.5410   26.8982   54.7642 H   0  0  0  0  0  0  0  0  0  0  0  0
   59.3301   27.0584   54.7642 H   0  0  0  0  0  0  0  0  0  0  0  0
   57.8778   32.2708   49.0705 H   0  0  0  0  0  0  0  0  0  0  0  0
   57.0819   31.4562   50.4749 H   0  0  0  0  0  0  0  0  0  0  0  0
   58.0350   33.8799   50.7839 H   0  0  0  0  0  0  0  0  0  0  0  0
   58.3508   32.6340   52.0496 H   0  0  0  0  0  0  0  0  0  0  0  0
   61.1218   30.6433   52.9150 H   0  0  0  0  0  0  0  0  0  0  0  0
   62.1192   31.4742   54.1676 H   0  0  0  0  0  0  0  0  0  0  0  0
   60.1845   29.8774   54.9496 H   0  0  0  0  0  0  0  0  0  0  0  0
   60.3667   31.4873   55.7424 H   0  0  0  0  0  0  0  0  0  0  0  0
   58.5520   30.8780   53.4860 H   0  0  0  0  0  0  0  0  0  0  0  0
   57.8023   32.9690   53.5162 H   0  0  0  0  0  0  0  0  0  0  0  0
   58.2334   33.1405   55.2859 H   0  0  0  0  0  0  0  0  0  0  0  0
   59.5698   34.4368   53.3332 H   0  0  0  0  0  0  0  0  0  0  0  0
   60.3410   33.8666   54.8588 H   0  0  0  0  0  0  0  0  0  0  0  0
   64.0242   33.5846   49.2028 H   0  0  0  0  0  0  0  0  0  0  0  0
   63.1972   33.9603   46.8544 H   0  0  0  0  0  0  0  0  0  0  0  0
   61.5574   34.2596   45.3830 H   0  0  0  0  0  0  0  0  0  0  0  0
   60.2316   33.0500   45.6390 H   0  0  0  0  0  0  0  0  0  0  0  0
   59.4571   35.5173   46.8939 H   0  0  0  0  0  0  0  0  0  0  0  0
   60.0196   35.8658   45.2014 H   0  0  0  0  0  0  0  0  0  0  0  0
   57.5336   34.6416   46.1154 H   0  0  0  0  0  0  0  0  0  0  0  0
   58.0198   35.2217   44.4708 H   0  0  0  0  0  0  0  0  0  0  0  0
   58.4570   32.3220   46.8110 H   0  0  0  0  0  0  0  0  0  0  0  0
   56.4725   31.0248   44.2282 H   0  0  0  0  0  0  0  0  0  0  0  0
   56.1981   28.6263   43.6350 H   0  0  0  0  0  0  0  0  0  0  0  0
   57.7798   26.9263   44.5236 H   0  0  0  0  0  0  0  0  0  0  0  0
   60.0414   30.0724   47.8518 H   0  0  0  0  0  0  0  0  0  0  0  0
   61.2052   29.5586   46.5837 H   0  0  0  0  0  0  0  0  0  0  0  0
   60.5590   31.2346   46.5837 H   0  0  0  0  0  0  0  0  0  0  0  0
  1  2  1  0
  2  3  2  0
  3  4  1  0
  4  5  2  0
  5  6  1  0
  6  7  1  0
  7  8  1  0
  8  9  1  0
  9 10  1  0
 10 11  1  0
 11 12  1  0
 12 13  1  0
 13 14  1  0
 14 15  1  0
 15 16  1  0
 10 17  2  0
 17 18  1  0
 18 19  1  0
 19 20  2  0
 20 21  1  0
 21 22  1  0
 22 23  1  0
 23 24  1  0
 24 25  1  0
 25 26  2  0
 25 27  1  0
 27 28  1  0
 28 29  2  0
 29 30  1  0
 30 31  2  0
 31 32  1  0
 32 33  1  0
 32 34  2  0
 34 35  1  0
 21 36  1  0
 36 37  2  0
 36 38  1  0
  5 39  1  0
 39  2  1  0
 38  9  1  0
 16 11  1  0
 38 18  2  0
 34 28  1  0
  1 40  1  0
  1 41  1  0
  1 42  1  0
  7 43  1  0
  7 44  1  0
  8 45  1  0
  8 46  1  0
 12 47  1  0
 12 48  1  0
 13 49  1  0
 13 50  1  0
 14 51  1  0
 15 52  1  0
 15 53  1  0
 16 54  1  0
 16 55  1  0
 19 56  1  0
 20 57  1  0
 22 58  1  0
 22 59  1  0
 23 60  1  0
 23 61  1  0
 24 62  1  0
 24 63  1  0
 27 64  1  0
 29 65  1  0
 30 66  1  0
 31 67  1  0
 35 68  1  0
 35 69  1  0
 35 70  1  0
M  END
>  <UniqueID>  (55) 
49

>  <SMILES>  (55) 
Cc1nnc(SCCn2c(N3CCNCC3)nc3ccn(CCCC(=O)Nc4cccc(Cl)c4C)c(=O)c32)s1

>  <Energy>  (55) 
152.05998488952295

>  <Genealogy>  (55) 
Cc1nnc(SCCn2c(N3CCNCC3)nc3ccn(CCCC(=O)Nc4cccc(Cl)c4C)c(=O)c32)s1 (3D coordinates assigned)
Cc1nnc(SCCn2c(N3CCNCC3)nc3ccn(CCCC(=O)Nc4cccc(Cl)c4C)c(=O)c32)s1 (nonaromatic ring conformer: 152.05998488952295 kcal/mol)

>  <smiles>  (55) 
Cc1nnc(SCCn2c(N3CCNCC3)nc3ccn(CCCC(=O)Nc4cccc(Cl)c4C)c(=O)c32)s1

>  <score_type>  (55) 
oracle

>  <origin>  (55) 
adg

>  <m_score__min__energy>  (55) 
-10.199999999999999

>  <m_primary>  (55) 
energy

$$$$
55:0
     RDKit          3D

 48 50  0  0  0  0  0  0  0  0999 V2000
   58.2650   29.9800   44.2090 C   0  0  0  0  0  0  0  0  0  0  0  0
   58.2910   29.6970   45.5210 C   0  0  0  0  0  0  0  0  0  0  0  0
   58.2520   28.4280   46.1210 C   0  0  0  0  0  0  0  0  0  0  0  0
   58.0020   27.2100   45.6010 C   0  0  0  0  0  0  0  0  0  0  0  0
   57.3790   26.0850   46.3160 C   0  0  0  0  0  0  0  0  0  0  0  0
   58.0470   25.0240   46.8060 N   0  0  0  0  0  0  0  0  0  0  0  0
   57.0610   24.2080   47.2390 C   0  0  0  0  0  0  0  0  0  0  0  0
   57.2890   23.0990   47.7850 O   0  0  0  0  0  0  0  0  0  0  0  0
   55.8090   24.6720   47.0290 N   0  0  0  0  0  0  0  0  0  0  0  0
   56.0300   25.8540   46.4320 C   0  0  0  0  0  0  0  0  0  0  0  0
   55.0210   26.7010   45.9950 O   0  0  0  0  0  0  0  0  0  0  0  0
   58.5330   28.6260   47.4630 C   0  0  0  0  0  0  0  0  0  0  0  0
   58.6620   29.9870   47.6500 C   0  0  0  0  0  0  0  0  0  0  0  0
   59.0270   30.6440   48.9450 C   0  0  0  0  0  0  0  0  0  0  0  0
   58.5110   30.6370   46.4770 N   0  0  0  0  0  0  0  0  0  0  0  0
   58.7310   32.0430   46.2780 C   0  0  0  0  0  0  0  0  0  0  0  0
   57.6490   32.8790   45.9680 C   0  0  0  0  0  0  0  0  0  0  0  0
   57.8510   34.2480   45.7820 C   0  0  0  0  0  0  0  0  0  0  0  0
   59.1330   34.7890   45.9040 C   0  0  0  0  0  0  0  0  0  0  0  0
   60.2170   33.9650   46.2200 C   0  0  0  0  0  0  0  0  0  0  0  0
   60.0200   32.5870   46.4310 C   0  0  0  0  0  0  0  0  0  0  0  0
   61.1080   31.7060   46.7430 N   0  0  0  0  0  0  0  0  0  0  0  0
   61.9550   31.7480   47.8980 C   0  0  0  0  0  0  0  0  0  0  0  0
   61.9800   30.7770   48.7020 O   0  0  0  0  0  0  0  0  0  0  0  0
   62.9070   32.9180   48.0720 C   0  0  0  0  0  0  0  0  0  0  0  0
   63.3860   33.4520   46.7040 C   0  0  0  0  0  0  0  0  0  0  0  0
   64.1350   32.4640   48.8860 C   0  0  0  0  0  0  0  0  0  0  0  0
   62.1780   34.0430   48.8290 C   0  0  0  0  0  0  0  0  0  0  0  0
   58.3018   31.0262   43.8712 H   0  0  0  0  0  0  0  0  0  0  0  0
   58.2069   29.1657   43.4718 H   0  0  0  0  0  0  0  0  0  0  0  0
   58.2882   27.0426   44.5522 H   0  0  0  0  0  0  0  0  0  0  0  0
   58.6340   27.8468   48.2328 H   0  0  0  0  0  0  0  0  0  0  0  0
   58.6808   30.0208   49.7827 H   0  0  0  0  0  0  0  0  0  0  0  0
   60.1193   30.7608   49.0018 H   0  0  0  0  0  0  0  0  0  0  0  0
   58.5491   31.6331   49.0018 H   0  0  0  0  0  0  0  0  0  0  0  0
   56.6385   32.4554   45.8711 H   0  0  0  0  0  0  0  0  0  0  0  0
   56.9998   34.9011   45.5392 H   0  0  0  0  0  0  0  0  0  0  0  0
   59.2900   35.8669   45.7509 H   0  0  0  0  0  0  0  0  0  0  0  0
   61.2263   34.3942   46.3040 H   0  0  0  0  0  0  0  0  0  0  0  0
   64.1130   34.2625   46.8609 H   0  0  0  0  0  0  0  0  0  0  0  0
   63.8616   32.6372   46.1385 H   0  0  0  0  0  0  0  0  0  0  0  0
   62.5245   33.8366   46.1385 H   0  0  0  0  0  0  0  0  0  0  0  0
   63.9135   32.5459   49.9603 H   0  0  0  0  0  0  0  0  0  0  0  0
   64.3724   31.4187   48.6392 H   0  0  0  0  0  0  0  0  0  0  0  0
   64.9953   33.1035   48.6392 H   0  0  0  0  0  0  0  0  0  0  0  0
   62.2817   33.8830   49.9123 H   0  0  0  0  0  0  0  0  0  0  0  0
   62.6194   35.0133   48.5578 H   0  0  0  0  0  0  0  0  0  0  0  0
   61.1120   34.0365   48.5578 H   0  0  0  0  0  0  0  0  0  0  0  0
  1  2  2  0
  2  3  1  0
  3  4  2  3
  4  5  1  0
  5  6  1  0
  6  7  1  0
  7  8  2  0
  7  9  1  0
  9 10  1  0
 10 11  1  0
  3 12  1  0
 12 13  2  0
 13 14  1  0
 13 15  1  0
 15 16  1  0
 16 17  2  0
 17 18  1  0
 18 19  2  0
 19 20  1  0
 20 21  2  0
 21 22  1  0
 22 23  1  0
 23 24  2  0
 23 25  1  0
 25 26  1  0
 25 27  1  0
 25 28  1  0
 15  2  1  0
 21 16  1  0
 10  5  2  0
  1 29  1  0
  1 30  1  0
  4 31  1  0
 12 32  1  0
 14 33  1  0
 14 34  1  0
 14 35  1  0
 17 36  1  0
 18 37  1  0
 19 38  1  0
 20 39  1  0
 26 40  1  0
 26 41  1  0
 26 42  1  0
 27 43  1  0
 27 44  1  0
 27 45  1  0
 28 46  1  0
 28 47  1  0
 28 48  1  0
M  CHG  4   6  -1   9  -1  11  -1  22  -1
M  END
>  <UniqueID>  (56) 
50

>  <SMILES>  (56) 
C=c1c(=Cc2[n-]c(=O)[n-]c2[O-])cc(C)n1-c1ccccc1[N-]C(=O)C(C)(C)C

>  <Energy>  (56) 
123.06297474083563

>  <Genealogy>  (56) 
C=c1c(=Cc2[n-]c(=O)[n-]c2[O-])cc(C)n1-c1ccccc1[N-]C(=O)C(C)(C)C (protonated)
C=c1c(=Cc2[n-]c(=O)[n-]c2[O-])cc(C)n1-c1ccccc1[N-]C(=O)C(C)(C)C (3D coordinates assigned)
C=c1c(=Cc2[n-]c(=O)[n-]c2[O-])cc(C)n1-c1ccccc1[N-]C(=O)C(C)(C)C (optimized conformer: 123.06297474083563 kcal/mol)

>  <smiles>  (56) 
C=c1c(=Cc2[nH]c(=O)[nH]c2O)cc(C)n1-c1ccccc1NC(=O)C(C)(C)C

>  <score_type>  (56) 
oracle

>  <origin>  (56) 
adg

>  <m_score__min__energy>  (56) 
-17.07

>  <m_primary>  (56) 
energy

$$$$
56:0
     RDKit          3D

 65 68  0  0  0  0  0  0  0  0999 V2000
   58.5640   33.7370   47.9640 O   0  0  0  0  0  0  0  0  0  0  0  0
   58.8670   32.6510   48.5300 C   0  0  0  0  0  0  0  0  0  0  0  0
   58.9670   32.5910   49.9570 N   0  0  0  0  0  0  0  0  0  0  0  0
   57.8420   32.3470   50.8540 C   0  0  0  0  0  0  0  0  0  0  0  0
   58.3220   31.7480   52.1820 C   0  0  0  0  0  0  0  0  0  0  0  0
   58.3450   30.2130   52.1180 C   0  0  0  0  0  0  0  0  0  0  0  0
   57.4500   29.5650   53.1510 C   0  0  0  0  0  0  0  0  0  0  0  0
   57.9600   29.0810   54.2000 O   0  0  0  0  0  0  0  0  0  0  0  0
   56.0160   29.5280   52.9720 N   0  0  0  0  0  0  0  0  0  0  0  0
   55.2170   28.6170   53.8080 C   0  0  0  0  0  0  0  0  0  0  0  0
   53.9570   28.1660   53.0720 C   0  0  0  0  0  0  0  0  0  0  0  0
   53.1780   29.3620   52.6150 C   0  0  0  0  0  0  0  0  0  0  0  0
   51.7740   29.3290   52.5900 C   0  0  0  0  0  0  0  0  0  0  0  0
   51.0540   30.4390   52.1370 C   0  0  0  0  0  0  0  0  0  0  0  0
   51.7300   31.5800   51.6940 C   0  0  0  0  0  0  0  0  0  0  0  0
   51.0130   32.6800   51.2400 O   0  0  0  0  0  0  0  0  0  0  0  0
   53.1280   31.6120   51.7020 C   0  0  0  0  0  0  0  0  0  0  0  0
   53.8610   30.5080   52.1670 C   0  0  0  0  0  0  0  0  0  0  0  0
   55.3700   30.5440   52.1140 C   0  0  0  0  0  0  0  0  0  0  0  0
   59.1370   31.4420   47.7180 C   0  0  0  0  0  0  0  0  0  0  0  0
   60.3240   30.7090   47.9010 C   0  0  0  0  0  0  0  0  0  0  0  0
   60.5840   29.5770   47.1270 C   0  0  0  0  0  0  0  0  0  0  0  0
   59.6540   29.1380   46.1740 C   0  0  0  0  0  0  0  0  0  0  0  0
   59.9350   27.9540   45.3370 C   0  0  0  0  0  0  0  0  0  0  0  0
   60.6660   27.0380   45.7990 O   0  0  0  0  0  0  0  0  0  0  0  0
   59.3940   27.8030   44.0150 N   0  0  0  0  0  0  0  0  0  0  0  0
   57.9890   27.5510   43.6920 C   0  0  0  0  0  0  0  0  0  0  0  0
   57.7720   26.1030   43.2370 C   0  0  0  0  0  0  0  0  0  0  0  0
   57.6150   25.1720   44.4120 C   0  0  0  0  0  0  0  0  0  0  0  0
   57.6820   23.7810   44.2290 C   0  0  0  0  0  0  0  0  0  0  0  0
   57.5810   22.9200   45.3270 C   0  0  0  0  0  0  0  0  0  0  0  0
   57.4120   23.4420   46.6170 C   0  0  0  0  0  0  0  0  0  0  0  0
   57.3070   22.5940   47.7180 O   0  0  0  0  0  0  0  0  0  0  0  0
   57.3480   24.8280   46.8040 C   0  0  0  0  0  0  0  0  0  0  0  0
   57.4540   25.6900   45.7080 C   0  0  0  0  0  0  0  0  0  0  0  0
   58.4810   29.8780   45.9700 C   0  0  0  0  0  0  0  0  0  0  0  0
   58.2210   31.0180   46.7370 C   0  0  0  0  0  0  0  0  0  0  0  0
   57.3270   33.2984   51.0531 H   0  0  0  0  0  0  0  0  0  0  0  0
   57.1570   31.6331   50.3732 H   0  0  0  0  0  0  0  0  0  0  0  0
   59.3370   32.1143   52.3957 H   0  0  0  0  0  0  0  0  0  0  0  0
   57.6260   32.0550   52.9765 H   0  0  0  0  0  0  0  0  0  0  0  0
   58.0109   29.8988   51.1182 H   0  0  0  0  0  0  0  0  0  0  0  0
   59.3757   29.8903   52.3267 H   0  0  0  0  0  0  0  0  0  0  0  0
   55.8230   27.7340   54.0591 H   0  0  0  0  0  0  0  0  0  0  0  0
   54.9180   29.1504   54.7224 H   0  0  0  0  0  0  0  0  0  0  0  0
   54.2416   27.5606   52.1988 H   0  0  0  0  0  0  0  0  0  0  0  0
   53.3346   27.5668   53.7528 H   0  0  0  0  0  0  0  0  0  0  0  0
   51.2399   28.4285   52.9273 H   0  0  0  0  0  0  0  0  0  0  0  0
   49.9543   30.4144   52.1292 H   0  0  0  0  0  0  0  0  0  0  0  0
   53.6566   32.5070   51.3420 H   0  0  0  0  0  0  0  0  0  0  0  0
   55.6858   30.3730   51.0743 H   0  0  0  0  0  0  0  0  0  0  0  0
   55.6829   31.5296   52.4891 H   0  0  0  0  0  0  0  0  0  0  0  0
   61.0526   31.0305   48.6598 H   0  0  0  0  0  0  0  0  0  0  0  0
   61.5254   29.0252   47.2657 H   0  0  0  0  0  0  0  0  0  0  0  0
   57.3764   27.7412   44.5856 H   0  0  0  0  0  0  0  0  0  0  0  0
   57.6968   28.2204   42.8695 H   0  0  0  0  0  0  0  0  0  0  0  0
   56.8632   26.0550   42.6191 H   0  0  0  0  0  0  0  0  0  0  0  0
   58.6543   25.7863   42.6615 H   0  0  0  0  0  0  0  0  0  0  0  0
   57.8144   23.3671   43.2185 H   0  0  0  0  0  0  0  0  0  0  0  0
   57.6343   21.8315   45.1778 H   0  0  0  0  0  0  0  0  0  0  0  0
   56.4140   22.4130   48.1610 H   0  0  0  0  0  0  0  0  0  0  0  0
   57.2141   25.2398   47.8152 H   0  0  0  0  0  0  0  0  0  0  0  0
   57.4111   26.7784   45.8612 H   0  0  0  0  0  0  0  0  0  0  0  0
   57.7607   29.5600   45.2019 H   0  0  0  0  0  0  0  0  0  0  0  0
   57.2943   31.5873   46.5726 H   0  0  0  0  0  0  0  0  0  0  0  0
  1  2  2  0
  2  3  1  0
  3  4  1  0
  4  5  1  0
  5  6  1  0
  6  7  1  0
  7  8  2  0
  7  9  1  0
  9 10  1  0
 10 11  1  0
 11 12  1  0
 12 13  2  0
 13 14  1  0
 14 15  2  0
 15 16  1  0
 15 17  1  0
 17 18  2  0
 18 19  1  0
  2 20  1  0
 20 21  2  0
 21 22  1  0
 22 23  2  0
 23 24  1  0
 24 25  2  0
 24 26  1  0
 26 27  1  0
 27 28  1  0
 28 29  1  0
 29 30  2  0
 30 31  1  0
 31 32  2  0
 32 33  1  0
 32 34  1  0
 34 35  2  0
 23 36  1  0
 36 37  2  0
 19  9  1  0
 37 20  1  0
 18 12  1  0
 35 29  1  0
  4 38  1  0
  4 39  1  0
  5 40  1  0
  5 41  1  0
  6 42  1  0
  6 43  1  0
 10 44  1  0
 10 45  1  0
 11 46  1  0
 11 47  1  0
 13 48  1  0
 14 49  1  0
 17 50  1  0
 19 51  1  0
 19 52  1  0
 21 53  1  0
 22 54  1  0
 27 55  1  0
 27 56  1  0
 28 57  1  0
 28 58  1  0
 30 59  1  0
 31 60  1  0
 33 61  1  0
 34 62  1  0
 35 63  1  0
 36 64  1  0
 37 65  1  0
M  CHG  3   3  -1  16  -1  26  -1
M  END
>  <UniqueID>  (57) 
51

>  <SMILES>  (57) 
O=C([N-]CCCC(=O)N1CCc2ccc([O-])cc2C1)c1ccc(C(=O)[N-]CCc2ccc(O)cc2)cc1

>  <Energy>  (57) 
68.13852162805175

>  <Genealogy>  (57) 
O=C([N-]CCCC(=O)N1CCc2ccc([O-])cc2C1)c1ccc(C(=O)[N-]CCc2ccc(O)cc2)cc1 (protonated)
O=C([N-]CCCC(=O)N1CCc2ccc([O-])cc2C1)c1ccc(C(=O)[N-]CCc2ccc(O)cc2)cc1 (3D coordinates assigned)
O=C([N-]CCCC(=O)N1CCc2ccc([O-])cc2C1)c1ccc(C(=O)[N-]CCc2ccc(O)cc2)cc1 (nonaromatic ring conformer: 68.13852162805175 kcal/mol)

>  <smiles>  (57) 
O=C(NCCCC(=O)N1CCc2ccc(O)cc2C1)c1ccc(C(=O)NCCc2ccc(O)cc2)cc1

>  <score_type>  (57) 
oracle

>  <origin>  (57) 
adg

>  <m_score__min__energy>  (57) 
-14.619999999999999

>  <m_primary>  (57) 
energy

$$$$
57:0
     RDKit          3D

 41 42  0  0  0  0  0  0  0  0999 V2000
   54.3357   32.2021   52.2393 H   0  0  0  0  0  0  0  0  0  0  0  0
   52.1340   30.8880   50.7760 C   0  0  0  0  0  0  0  0  0  0  0  0
   52.8740   30.5720   51.8720 C   0  0  0  0  0  0  0  0  0  0  0  0
   55.2672   29.3033   52.1311 H   0  0  0  0  0  0  0  0  0  0  0  0
   56.7240   30.9420   51.8620 C   0  0  0  0  0  0  0  0  0  0  0  0
   57.1010   32.5740   52.0010 S   0  0  0  0  0  0  0  0  0  0  0  0
   58.7310   32.4150   51.6190 C   0  0  0  0  0  0  0  0  0  0  0  0
   59.6830   33.5340   51.5400 C   0  0  0  0  0  0  0  0  0  0  0  0
   59.9130   34.2080   52.5790 O   0  0  0  0  0  0  0  0  0  0  0  0
   60.3950   33.8580   50.3370 N   0  0  0  0  0  0  0  0  0  0  0  0
   60.5800   32.9770   49.1850 C   0  0  0  0  0  0  0  0  0  0  0  0
   61.6327   33.0155   48.8683 H   0  0  0  0  0  0  0  0  0  0  0  0
   60.3027   31.9538   49.4785 H   0  0  0  0  0  0  0  0  0  0  0  0
   59.7040   33.4000   48.0350 C   0  0  0  0  0  0  0  0  0  0  0  0
   58.4660   32.7690   47.8220 C   0  0  0  0  0  0  0  0  0  0  0  0
   58.1410   31.9602   48.4930 H   0  0  0  0  0  0  0  0  0  0  0  0
   57.6460   33.1650   46.7610 C   0  0  0  0  0  0  0  0  0  0  0  0
   56.6750   32.6727   46.6036 H   0  0  0  0  0  0  0  0  0  0  0  0
   58.0590   34.1860   45.9000 C   0  0  0  0  0  0  0  0  0  0  0  0
   57.4118   34.4986   45.0673 H   0  0  0  0  0  0  0  0  0  0  0  0
   59.2930   34.8090   46.0970 C   0  0  0  0  0  0  0  0  0  0  0  0
   59.6190   35.6090   45.4160 H   0  0  0  0  0  0  0  0  0  0  0  0
   60.1150   34.4180   47.1580 C   0  0  0  0  0  0  0  0  0  0  0  0
   61.0878   34.9094   47.3070 H   0  0  0  0  0  0  0  0  0  0  0  0
   58.9910   31.0820   51.3240 C   0  0  0  0  0  0  0  0  0  0  0  0
   59.9802   30.7122   51.0161 H   0  0  0  0  0  0  0  0  0  0  0  0
   57.8680   30.2570   51.4580 C   0  0  0  0  0  0  0  0  0  0  0  0
   57.8869   29.1745   51.2635 H   0  0  0  0  0  0  0  0  0  0  0  0
   55.3650   30.3940   52.0270 C   0  0  0  0  0  0  0  0  0  0  0  0
   54.2400   31.1210   52.0600 C   0  0  0  0  0  0  0  0  0  0  0  0
   51.3930   32.1730   50.6670 C   0  0  0  0  0  0  0  0  0  0  0  0
   51.0220   32.7790   51.7060 O   0  0  0  0  0  0  0  0  0  0  0  0
   51.0580   32.7060   49.4260 O   0  0  0  0  0  0  0  0  0  0  0  0
   52.0270   29.9220   49.6170 C   0  0  0  0  0  0  0  0  0  0  0  0
   51.9136   28.8980   50.0024 H   0  0  0  0  0  0  0  0  0  0  0  0
   51.1521   30.1816   49.0029 H   0  0  0  0  0  0  0  0  0  0  0  0
   52.9375   29.9839   49.0029 H   0  0  0  0  0  0  0  0  0  0  0  0
   52.2820   29.7690   53.0080 C   0  0  0  0  0  0  0  0  0  0  0  0
   52.6008   30.2015   53.9678 H   0  0  0  0  0  0  0  0  0  0  0  0
   51.1843   29.7936   52.9413 H   0  0  0  0  0  0  0  0  0  0  0  0
   52.6301   28.7277   52.9413 H   0  0  0  0  0  0  0  0  0  0  0  0
  1  2  1  0
  2  3  2  0
  3  4  1  0
  3  5  1  0
  5  6  1  0
  6  7  1  0
  7  8  1  0
  8  9  2  0
  8 10  1  0
 10 11  1  0
 11 12  1  0
 11 13  1  0
 11 14  1  0
 14 15  2  0
 15 16  1  0
 15 17  1  0
 17 18  1  0
 17 19  2  0
 19 20  1  0
 19 21  1  0
 21 22  1  0
 21 23  2  0
 23 24  1  0
  7 25  2  0
 25 26  1  0
 25 27  1  0
 27 28  1  0
  2 29  1  0
 29 30  2  0
 30 31  1  0
 31 32  2  0
 31 33  1  0
 30 34  1  0
 34 35  1  0
 34 36  1  0
 34 37  1  0
 29 38  1  0
 38 39  1  0
 38 40  1  0
 38 41  1  0
 27  5  2  0
 23 14  1  0
M  CHG  2  10  -1  33  -1
M  END
>  <UniqueID>  (58) 
52

>  <SMILES>  (58) 
C/C(C=Cc1ccc(C(=O)[N-]Cc2ccccc2)s1)=C(\C)C(=O)[O-]

>  <Energy>  (58) 
79.62275138158724

>  <Genealogy>  (58) 
CC(C=Cc1ccc(C(=O)[N-]Cc2ccccc2)s1)=C(C)C(=O)[O-] (protonated)
C/C(C=Cc1ccc(C(=O)[N-]Cc2ccccc2)s1)=C(\C)C(=O)[O-] (cis-trans isomerization)
C/C(C=Cc1ccc(C(=O)[N-]Cc2ccccc2)s1)=C(\C)C(=O)[O-] (3D coordinates assigned)
C/C(C=Cc1ccc(C(=O)[N-]Cc2ccccc2)s1)=C(\C)C(=O)[O-] (optimized conformer: 79.62275138158724 kcal/mol)

>  <smiles>  (58) 
CC(C=Cc1ccc(C(=O)NCc2ccccc2)s1)=C(C)C(=O)[O-]

>  <score_type>  (58) 
oracle

>  <origin>  (58) 
adg

>  <m_score__min__energy>  (58) 
-12.91

>  <m_primary>  (58) 
energy

$$$$
58:0
     RDKit          3D

 30 32  0  0  0  0  0  0  0  0999 V2000
   61.2880   33.8300   50.9600 O   0  0  0  0  0  0  0  0  0  0  0  0
   60.9300   33.9770   49.7740 C   0  0  0  0  0  0  0  0  0  0  0  0
   59.6610   34.3230   49.4890 N   0  0  0  0  0  0  0  0  0  0  0  0
   59.2440   34.4870   48.2450 N   0  0  0  0  0  0  0  0  0  0  0  0
   60.0540   34.3220   47.1580 C   0  0  0  0  0  0  0  0  0  0  0  0
   59.4290   34.5000   45.8400 C   0  0  0  0  0  0  0  0  0  0  0  0
   58.7670   33.3050   45.2960 C   0  0  0  0  0  0  0  0  0  0  0  0
   58.3600   32.2060   45.9860 C   0  0  0  0  0  0  0  0  0  0  0  0
   57.7270   31.1210   45.3920 C   0  0  0  0  0  0  0  0  0  0  0  0
   57.4830   31.1350   44.0190 C   0  0  0  0  0  0  0  0  0  0  0  0
   56.6870   29.7880   43.2280 Cl  0  0  0  0  0  0  0  0  0  0  0  0
   57.8820   32.2240   43.3080 C   0  0  0  0  0  0  0  0  0  0  0  0
   57.6210   32.3420   41.5620 Cl  0  0  0  0  0  0  0  0  0  0  0  0
   58.5160   33.3060   43.9180 C   0  0  0  0  0  0  0  0  0  0  0  0
   61.3480   33.9720   47.4080 C   0  0  0  0  0  0  0  0  0  0  0  0
   62.2130   33.8040   46.3740 C   0  0  0  0  0  0  0  0  0  0  0  0
   63.5220   33.4630   46.5680 C   0  0  0  0  0  0  0  0  0  0  0  0
   63.9630   33.2870   47.8800 C   0  0  0  0  0  0  0  0  0  0  0  0
   63.1250   33.4480   48.9580 C   0  0  0  0  0  0  0  0  0  0  0  0
   61.7970   33.7960   48.7200 C   0  0  0  0  0  0  0  0  0  0  0  0
   58.9750   34.4680   50.2860 H   0  0  0  0  0  0  0  0  0  0  0  0
   58.6761   35.2975   45.9250 H   0  0  0  0  0  0  0  0  0  0  0  0
   60.2461   34.7406   45.1440 H   0  0  0  0  0  0  0  0  0  0  0  0
   58.5413   32.1744   47.0705 H   0  0  0  0  0  0  0  0  0  0  0  0
   57.4206   30.2573   46.0003 H   0  0  0  0  0  0  0  0  0  0  0  0
   58.8224   34.1700   43.3101 H   0  0  0  0  0  0  0  0  0  0  0  0
   61.8475   33.9472   45.3464 H   0  0  0  0  0  0  0  0  0  0  0  0
   64.2063   33.3314   45.7169 H   0  0  0  0  0  0  0  0  0  0  0  0
   65.0130   33.0111   48.0572 H   0  0  0  0  0  0  0  0  0  0  0  0
   63.4943   33.3054   49.9843 H   0  0  0  0  0  0  0  0  0  0  0  0
  1  2  2  0
  2  3  1  0
  3  4  1  0
  4  5  2  0
  5  6  1  0
  6  7  1  0
  7  8  2  0
  8  9  1  0
  9 10  2  0
 10 11  1  0
 10 12  1  0
 12 13  1  0
 12 14  2  0
  5 15  1  0
 15 16  2  0
 16 17  1  0
 17 18  2  0
 18 19  1  0
 19 20  2  0
 20  2  1  0
 14  7  1  0
 20 15  1  0
  3 21  1  0
  6 22  1  0
  6 23  1  0
  8 24  1  0
  9 25  1  0
 14 26  1  0
 16 27  1  0
 17 28  1  0
 18 29  1  0
 19 30  1  0
M  END
>  <smiles>  (59) 
O=c1[nH]nc(Cc2ccc(Cl)c(Cl)c2)c2ccccc12

>  <score_type>  (59) 
oracle

>  <origin>  (59) 
adg

>  <m_score__min__energy>  (59) 
-8.2400000000000002

>  <m_primary>  (59) 
energy

$$$$
59:0
     RDKit          3D

 55 58  0  0  0  0  0  0  0  0999 V2000
   57.2296   34.0926   52.8744 H   0  0  0  0  0  0  0  0  0  0  0  0
   57.7710   33.2830   52.3630 C   0  0  0  0  0  0  0  0  0  0  0  0
   57.1360   32.0620   52.1200 C   0  0  0  0  0  0  0  0  0  0  0  0
   56.0952   31.9109   52.4423 H   0  0  0  0  0  0  0  0  0  0  0  0
   57.8210   31.0320   51.4680 C   0  0  0  0  0  0  0  0  0  0  0  0
   57.3201   30.0696   51.2869 H   0  0  0  0  0  0  0  0  0  0  0  0
   59.1480   31.2220   51.0430 C   0  0  0  0  0  0  0  0  0  0  0  0
   59.8900   30.1170   50.3370 C   0  0  0  0  0  0  0  0  0  0  0  0
   60.1372   29.3292   51.0639 H   0  0  0  0  0  0  0  0  0  0  0  0
   60.8053   30.5383   49.8958 H   0  0  0  0  0  0  0  0  0  0  0  0
   59.0810   29.5390   49.2630 N   0  0  0  0  0  0  0  0  0  0  0  0
   58.6700   30.1380   48.1800 C   0  0  0  0  0  0  0  0  0  0  0  0
   58.3040   29.3770   47.1180 N   0  0  0  0  0  0  0  0  0  0  0  0
   57.8830   29.9510   45.9620 C   0  0  0  0  0  0  0  0  0  0  0  0
   57.4760   29.1290   44.8470 N   0  0  0  0  0  0  0  0  0  0  0  0
   56.2570   29.3990   44.1190 C   0  0  0  0  0  0  0  0  0  0  0  0
   55.1470   29.3500   44.7150 O   0  0  0  0  0  0  0  0  0  0  0  0
   56.2700   29.7360   42.6590 C   0  0  0  0  0  0  0  0  0  0  0  0
   56.3121   30.8282   42.5352 H   0  0  0  0  0  0  0  0  0  0  0  0
   57.1512   29.2790   42.1850 H   0  0  0  0  0  0  0  0  0  0  0  0
   55.3562   29.3482   42.1850 H   0  0  0  0  0  0  0  0  0  0  0  0
   58.3540   28.0390   44.3940 C   0  0  0  0  0  0  0  0  0  0  0  0
   58.1466   27.8228   43.3356 H   0  0  0  0  0  0  0  0  0  0  0  0
   58.1601   27.1467   45.0074 H   0  0  0  0  0  0  0  0  0  0  0  0
   59.8180   28.4360   44.5480 C   0  0  0  0  0  0  0  0  0  0  0  0
   60.0690   28.5041   45.6168 H   0  0  0  0  0  0  0  0  0  0  0  0
   60.4557   27.6783   44.0691 H   0  0  0  0  0  0  0  0  0  0  0  0
   59.9856   29.4120   44.0691 H   0  0  0  0  0  0  0  0  0  0  0  0
   57.8230   31.3040   45.8780 N   0  0  0  0  0  0  0  0  0  0  0  0
   58.1840   32.0850   46.9250 C   0  0  0  0  0  0  0  0  0  0  0  0
   58.1260   33.3790   46.7840 N   0  0  0  0  0  0  0  0  0  0  0  0
   59.2350   34.3310   46.9040 C   0  0  0  0  0  0  0  0  0  0  0  0
   58.8712   35.3023   46.5376 H   0  0  0  0  0  0  0  0  0  0  0  0
   60.4600   33.8750   46.0720 C   0  0  0  0  0  0  0  0  0  0  0  0
   60.2880   32.8793   45.6373 H   0  0  0  0  0  0  0  0  0  0  0  0
   60.6686   34.5458   45.2256 H   0  0  0  0  0  0  0  0  0  0  0  0
   61.5680   33.8360   47.0520 C   0  0  0  0  0  0  0  0  0  0  0  0
   62.9040   33.5230   46.7910 C   0  0  0  0  0  0  0  0  0  0  0  0
   63.2326   33.2785   45.7701 H   0  0  0  0  0  0  0  0  0  0  0  0
   63.8200   33.5260   47.8550 C   0  0  0  0  0  0  0  0  0  0  0  0
   64.8776   33.2864   47.6701 H   0  0  0  0  0  0  0  0  0  0  0  0
   63.3870   33.8350   49.1570 C   0  0  0  0  0  0  0  0  0  0  0  0
   64.1073   33.8383   49.9884 H   0  0  0  0  0  0  0  0  0  0  0  0
   62.0390   34.1390   49.3980 C   0  0  0  0  0  0  0  0  0  0  0  0
   61.6910   34.3768   50.4141 H   0  0  0  0  0  0  0  0  0  0  0  0
   61.1460   34.1340   48.3220 C   0  0  0  0  0  0  0  0  0  0  0  0
   59.6950   34.4200   48.3780 C   0  0  0  0  0  0  0  0  0  0  0  0
   59.1736   33.6737   48.9954 H   0  0  0  0  0  0  0  0  0  0  0  0
   59.4750   35.3983   48.8303 H   0  0  0  0  0  0  0  0  0  0  0  0
   58.6030   31.5000   48.0860 N   0  0  0  0  0  0  0  0  0  0  0  0
   58.8630   32.0900   48.9010 H   0  0  0  0  0  0  0  0  0  0  0  0
   59.7830   32.4490   51.3020 C   0  0  0  0  0  0  0  0  0  0  0  0
   60.8262   32.6027   50.9889 H   0  0  0  0  0  0  0  0  0  0  0  0
   59.0940   33.4750   51.9560 C   0  0  0  0  0  0  0  0  0  0  0  0
   59.5943   34.4351   52.1505 H   0  0  0  0  0  0  0  0  0  0  0  0
  1  2  1  0
  2  3  2  0
  3  4  1  0
  3  5  1  0
  5  6  1  0
  5  7  2  0
  7  8  1  0
  8  9  1  0
  8 10  1  0
  8 11  1  0
 11 12  2  3
 12 13  1  0
 13 14  2  0
 14 15  1  0
 15 16  1  0
 16 17  2  0
 16 18  1  0
 18 19  1  0
 18 20  1  0
 18 21  1  0
 15 22  1  0
 22 23  1  0
 22 24  1  0
 22 25  1  0
 25 26  1  0
 25 27  1  0
 25 28  1  0
 14 29  1  0
 29 30  1  0
 30 31  2  0
 31 32  1  0
 32 33  1  0
 32 34  1  0
 34 35  1  0
 34 36  1  0
 34 37  1  0
 37 38  2  0
 38 39  1  0
 38 40  1  0
 40 41  1  0
 40 42  2  0
 42 43  1  0
 42 44  1  0
 44 45  1  0
 44 46  2  0
 46 47  1  0
 47 48  1  0
 47 49  1  0
 30 50  1  0
 50 51  1  0
  7 52  1  0
 52 53  1  0
 52 54  2  0
 54 55  1  0
 54  2  1  0
 50 12  1  0
 47 32  1  0
 46 37  1  0
M  CHG  1  29  -1
M  END
>  <UniqueID>  (60) 
53

>  <SMILES>  (60) 
CCN(C(C)=O)c1nc(=NCc2ccccc2)[nH]/c(=N\C2Cc3ccccc3C2)[n-]1

>  <Energy>  (60) 
68.17596916140099

>  <Genealogy>  (60) 
CCN(C(C)=O)c1nc(=NCc2ccccc2)[nH]c(=NC2Cc3ccccc3C2)[n-]1 (protonated)
CCN(C(C)=O)c1nc(=NCc2ccccc2)[nH]/c(=N\C2Cc3ccccc3C2)[n-]1 (cis-trans isomerization)
CCN(C(C)=O)c1nc(=NCc2ccccc2)[nH]/c(=N\C2Cc3ccccc3C2)[n-]1 (3D coordinates assigned)
CCN(C(C)=O)c1nc(=NCc2ccccc2)[nH]/c(=N\C2Cc3ccccc3C2)[n-]1 (nonaromatic ring conformer: 68.17596916140099 kcal/mol)

>  <smiles>  (60) 
CCN(C(C)=O)c1nc(=NCc2ccccc2)[nH]c(=NC2Cc3ccccc3C2)[nH]1

>  <score_type>  (60) 
oracle

>  <origin>  (60) 
adg

>  <m_score__min__energy>  (60) 
-10.82

>  <m_primary>  (60) 
energy

$$$$
60:0
     RDKit          3D

 35 37  0  0  0  0  0  0  0  0999 V2000
   60.2250   28.8730   45.7150 O   0  0  0  0  0  0  0  0  0  0  0  0
   58.9950   28.8320   45.4390 C   0  0  0  0  0  0  0  0  0  0  0  0
   58.4660   27.7280   44.5770 C   0  0  0  0  0  0  0  0  0  0  0  0
   57.5250   26.8700   45.3660 C   0  0  0  0  0  0  0  0  0  0  0  0
   57.8820   25.3390   45.9720 S   0  0  0  0  0  0  0  0  0  0  0  0
   56.3250   25.1250   46.5700 C   0  0  0  0  0  0  0  0  0  0  0  0
   55.9360   24.0960   47.1800 O   0  0  0  0  0  0  0  0  0  0  0  0
   55.5220   26.1800   46.3210 N   0  0  0  0  0  0  0  0  0  0  0  0
   56.1890   27.1520   45.6460 C   0  0  0  0  0  0  0  0  0  0  0  0
   55.5680   28.3320   45.2610 O   0  0  0  0  0  0  0  0  0  0  0  0
   58.1010   29.8130   45.9790 N   0  0  0  0  0  0  0  0  0  0  0  0
   58.5460   30.7800   46.9820 C   0  0  0  0  0  0  0  0  0  0  0  0
   58.8030   32.1260   46.3480 C   0  0  0  0  0  0  0  0  0  0  0  0
   59.6260   33.0450   47.0220 C   0  0  0  0  0  0  0  0  0  0  0  0
   59.8530   34.3170   46.4940 C   0  0  0  0  0  0  0  0  0  0  0  0
   59.2630   34.6870   45.2850 C   0  0  0  0  0  0  0  0  0  0  0  0
   58.4570   33.7810   44.5940 C   0  0  0  0  0  0  0  0  0  0  0  0
   58.2360   32.4910   45.1000 C   0  0  0  0  0  0  0  0  0  0  0  0
   57.4260   31.5800   44.3430 N   0  0  0  0  0  0  0  0  0  0  0  0
   57.7030   31.0930   43.1180 C   0  0  0  0  0  0  0  0  0  0  0  0
   56.6420   30.3160   42.7090 C   0  0  0  0  0  0  0  0  0  0  0  0
   55.7330   30.3900   43.7460 C   0  0  0  0  0  0  0  0  0  0  0  0
   56.2250   31.1750   44.7260 N   0  0  0  0  0  0  0  0  0  0  0  0
   57.9319   28.1602   43.7180 H   0  0  0  0  0  0  0  0  0  0  0  0
   59.3056   27.1123   44.2220 H   0  0  0  0  0  0  0  0  0  0  0  0
   57.0970   29.7930   45.6840 H   0  0  0  0  0  0  0  0  0  0  0  0
   57.7674   30.8861   47.7518 H   0  0  0  0  0  0  0  0  0  0  0  0
   59.4813   30.4170   47.4330 H   0  0  0  0  0  0  0  0  0  0  0  0
   60.0956   32.7589   47.9747 H   0  0  0  0  0  0  0  0  0  0  0  0
   60.4975   35.0282   47.0314 H   0  0  0  0  0  0  0  0  0  0  0  0
   59.4333   35.6938   44.8760 H   0  0  0  0  0  0  0  0  0  0  0  0
   57.9907   34.0810   43.6440 H   0  0  0  0  0  0  0  0  0  0  0  0
   58.6207   31.2835   42.5422 H   0  0  0  0  0  0  0  0  0  0  0  0
   56.5410   29.7597   41.7654 H   0  0  0  0  0  0  0  0  0  0  0  0
   54.7559   29.8852   43.7691 H   0  0  0  0  0  0  0  0  0  0  0  0
  1  2  2  0
  2  3  1  0
  3  4  1  0
  4  5  1  0
  5  6  1  0
  6  7  2  0
  6  8  1  0
  8  9  1  0
  9 10  1  0
  2 11  1  0
 11 12  1  0
 12 13  1  0
 13 14  2  0
 14 15  1  0
 15 16  2  0
 16 17  1  0
 17 18  2  0
 18 19  1  0
 19 20  1  0
 20 21  2  0
 21 22  1  0
 22 23  2  0
  9  4  2  0
 18 13  1  0
 23 19  1  0
  3 24  1  0
  3 25  1  0
 11 26  1  0
 12 27  1  0
 12 28  1  0
 14 29  1  0
 15 30  1  0
 16 31  1  0
 17 32  1  0
 20 33  1  0
 21 34  1  0
 22 35  1  0
M  CHG  2   8  -1  10  -1
M  END
>  <UniqueID>  (61) 
54

>  <SMILES>  (61) 
O=C(Cc1sc(=O)[n-]c1[O-])NCc1ccccc1-n1cccn1

>  <Energy>  (61) 
97.54573111119501

>  <Genealogy>  (61) 
O=C(Cc1sc(=O)[n-]c1[O-])NCc1ccccc1-n1cccn1 (protonated)
O=C(Cc1sc(=O)[n-]c1[O-])NCc1ccccc1-n1cccn1 (3D coordinates assigned)
O=C(Cc1sc(=O)[n-]c1[O-])NCc1ccccc1-n1cccn1 (optimized conformer: 97.54573111119501 kcal/mol)

>  <smiles>  (61) 
O=C(Cc1sc(=O)[nH]c1O)NCc1ccccc1-n1cccn1

>  <score_type>  (61) 
oracle

>  <origin>  (61) 
adg

>  <m_score__min__energy>  (61) 
-14.49

>  <m_primary>  (61) 
energy

$$$$
61:0
     RDKit          3D

 48 51  0  0  0  0  0  0  0  0999 V2000
   64.3760   33.0280   52.8770 N   0  0  0  0  0  0  0  0  0  0  0  0
   64.1160   33.0770   51.4670 C   0  0  0  0  0  0  0  0  0  0  0  0
   65.1210   32.9710   50.4830 C   0  0  0  0  0  0  0  0  0  0  0  0
   66.5610   32.7310   50.6660 C   0  0  0  0  0  0  0  0  0  0  0  0
   67.0740   32.6000   51.8070 O   0  0  0  0  0  0  0  0  0  0  0  0
   64.4170   33.0990   48.9510 S   0  0  0  0  0  0  0  0  0  0  0  0
   62.8560   33.2820   49.5220 C   0  0  0  0  0  0  0  0  0  0  0  0
   61.7420   33.4520   48.7740 N   0  0  0  0  0  0  0  0  0  0  0  0
   60.5410   33.6040   49.4000 C   0  0  0  0  0  0  0  0  0  0  0  0
   59.3000   33.8160   48.5920 C   0  0  0  0  0  0  0  0  0  0  0  0
   59.2560   32.8520   47.4690 N   0  0  0  0  0  0  0  0  0  0  0  0
   60.3900   32.9920   46.5340 C   0  0  0  0  0  0  0  0  0  0  0  0
   60.3000   34.2570   45.6580 C   0  0  0  0  0  0  0  0  0  0  0  0
   58.8630   34.7620   45.4600 C   0  0  0  0  0  0  0  0  0  0  0  0
   57.8280   33.6260   45.4810 C   0  0  1  0  0  0  0  0  0  0  0  0
   57.9130   32.7730   44.1900 C   0  0  0  0  0  0  0  0  0  0  0  0
   57.6290   31.3140   44.4500 C   0  0  0  0  0  0  0  0  0  0  0  0
   58.6760   30.4390   44.7850 C   0  0  0  0  0  0  0  0  0  0  0  0
   58.4180   29.0850   45.0170 C   0  0  0  0  0  0  0  0  0  0  0  0
   57.1130   28.5940   44.9170 C   0  0  0  0  0  0  0  0  0  0  0  0
   56.0630   29.4570   44.5860 C   0  0  0  0  0  0  0  0  0  0  0  0
   54.7670   28.9670   44.4870 O   0  0  0  0  0  0  0  0  0  0  0  0
   56.3190   30.8120   44.3540 C   0  0  0  0  0  0  0  0  0  0  0  0
   57.9420   32.7750   46.7830 C   0  0  0  0  0  0  0  0  0  0  0  0
   60.4780   33.6010   50.7660 N   0  0  0  0  0  0  0  0  0  0  0  0
   61.5890   33.4340   51.5360 C   0  0  0  0  0  0  0  0  0  0  0  0
   61.4800   33.4530   52.7890 O   0  0  0  0  0  0  0  0  0  0  0  0
   62.8310   33.2550   50.9050 C   0  0  0  0  0  0  0  0  0  0  0  0
   63.6130   33.1430   53.5760 H   0  0  0  0  0  0  0  0  0  0  0  0
   65.3340   32.8650   53.2540 H   0  0  0  0  0  0  0  0  0  0  0  0
   67.2080   32.6642   49.7789 H   0  0  0  0  0  0  0  0  0  0  0  0
   58.4183   33.6689   49.2331 H   0  0  0  0  0  0  0  0  0  0  0  0
   59.3018   34.8396   48.1893 H   0  0  0  0  0  0  0  0  0  0  0  0
   61.3213   33.0361   47.1177 H   0  0  0  0  0  0  0  0  0  0  0  0
   60.3671   32.1238   45.8590 H   0  0  0  0  0  0  0  0  0  0  0  0
   60.8869   35.0548   46.1366 H   0  0  0  0  0  0  0  0  0  0  0  0
   60.6904   33.9919   44.6644 H   0  0  0  0  0  0  0  0  0  0  0  0
   58.6245   35.4706   46.2669 H   0  0  0  0  0  0  0  0  0  0  0  0
   58.8118   35.2405   44.4708 H   0  0  0  0  0  0  0  0  0  0  0  0
   56.8233   34.0735   45.4959 H   0  0  0  0  0  0  0  0  0  0  0  0
   57.1779   33.1532   43.4654 H   0  0  0  0  0  0  0  0  0  0  0  0
   58.9384   32.8527   43.8000 H   0  0  0  0  0  0  0  0  0  0  0  0
   59.7042   30.8216   44.8651 H   0  0  0  0  0  0  0  0  0  0  0  0
   59.2424   28.4053   45.2784 H   0  0  0  0  0  0  0  0  0  0  0  0
   56.9116   27.5280   45.0988 H   0  0  0  0  0  0  0  0  0  0  0  0
   55.4913   31.4887   44.0951 H   0  0  0  0  0  0  0  0  0  0  0  0
   57.1694   33.1208   47.4855 H   0  0  0  0  0  0  0  0  0  0  0  0
   57.8157   31.7260   46.4770 H   0  0  0  0  0  0  0  0  0  0  0  0
  1  2  1  0
  2  3  2  0
  3  4  1  0
  4  5  2  0
  3  6  1  0
  6  7  1  0
  7  8  1  0
  8  9  2  0
  9 10  1  0
 10 11  1  0
 11 12  1  0
 12 13  1  0
 13 14  1  0
 14 15  1  0
 15 16  1  0
 16 17  1  0
 17 18  2  0
 18 19  1  0
 19 20  2  0
 20 21  1  0
 21 22  1  0
 21 23  2  0
 15 24  1  0
  9 25  1  0
 25 26  1  0
 26 27  2  0
 26 28  1  0
 28  2  1  0
 28  7  2  0
 24 11  1  0
 23 17  1  0
  1 29  1  0
  1 30  1  0
  4 31  1  0
 10 32  1  0
 10 33  1  0
 12 34  1  0
 12 35  1  0
 13 36  1  0
 13 37  1  0
 14 38  1  0
 14 39  1  0
 15 40  1  1
 16 41  1  0
 16 42  1  0
 18 43  1  0
 19 44  1  0
 20 45  1  0
 23 46  1  0
 24 47  1  0
 24 48  1  0
M  CHG  2  22  -1  25  -1
M  END
>  <UniqueID>  (62) 
55

>  <SMILES>  (62) 
Nc1c(C=O)sc2nc(CN3CCC[C@@H](Cc4cccc([O-])c4)C3)[n-]c(=O)c12

>  <Energy>  (62) 
99.00660922904656

>  <Genealogy>  (62) 
Nc1c(C=O)sc2nc(CN3CCCC(Cc4cccc([O-])c4)C3)[n-]c(=O)c12 (protonated)
Nc1c(C=O)sc2nc(CN3CCC[C@@H](Cc4cccc([O-])c4)C3)[n-]c(=O)c12 (chirality)
Nc1c(C=O)sc2nc(CN3CCC[C@@H](Cc4cccc([O-])c4)C3)[n-]c(=O)c12 (3D coordinates assigned)
Nc1c(C=O)sc2nc(CN3CCC[C@@H](Cc4cccc([O-])c4)C3)[n-]c(=O)c12 (nonaromatic ring conformer: 99.00660922904656 kcal/mol)

>  <smiles>  (62) 
Nc1c(C=O)sc2nc(CN3CCCC(Cc4cccc(O)c4)C3)[nH]c(=O)c12

>  <score_type>  (62) 
oracle

>  <origin>  (62) 
adg

>  <m_score__min__energy>  (62) 
-12.390000000000001

>  <m_primary>  (62) 
energy

$$$$
62:0
     RDKit          3D

 41 43  0  0  0  0  0  0  0  0999 V2000
   57.0640   28.6610   45.1200 C   0  0  0  0  0  0  0  0  0  0  0  0
   57.8570   27.8400   45.8270 C   0  0  0  0  0  0  0  0  0  0  0  0
   57.9840   26.4580   45.6560 C   0  0  0  0  0  0  0  0  0  0  0  0
   57.3940   25.6920   44.7190 C   0  0  0  0  0  0  0  0  0  0  0  0
   56.1950   24.8630   44.9810 C   0  0  0  0  0  0  0  0  0  0  0  0
   55.0580   25.3890   45.6180 C   0  0  0  0  0  0  0  0  0  0  0  0
   55.0240   26.7170   46.0310 O   0  0  0  0  0  0  0  0  0  0  0  0
   53.9700   24.6030   45.8200 N   0  0  0  0  0  0  0  0  0  0  0  0
   53.9490   23.3130   45.3990 C   0  0  0  0  0  0  0  0  0  0  0  0
   52.9300   22.6030   45.6010 O   0  0  0  0  0  0  0  0  0  0  0  0
   55.0230   22.7910   44.7550 N   0  0  0  0  0  0  0  0  0  0  0  0
   56.1360   23.5340   44.5300 C   0  0  0  0  0  0  0  0  0  0  0  0
   57.1130   23.0160   43.9250 O   0  0  0  0  0  0  0  0  0  0  0  0
   58.8760   26.0240   46.6280 C   0  0  0  0  0  0  0  0  0  0  0  0
   59.2560   27.1420   47.3430 C   0  0  0  0  0  0  0  0  0  0  0  0
   60.2140   27.1300   48.4950 C   0  0  0  0  0  0  0  0  0  0  0  0
   58.6350   28.2430   46.8630 N   0  0  0  0  0  0  0  0  0  0  0  0
   58.8000   29.5830   47.3600 C   0  0  0  0  0  0  0  0  0  0  0  0
   58.9030   29.8170   48.7390 C   0  0  0  0  0  0  0  0  0  0  0  0
   59.0360   31.1210   49.2220 C   0  0  0  0  0  0  0  0  0  0  0  0
   59.0740   32.1980   48.3330 C   0  0  0  0  0  0  0  0  0  0  0  0
   59.0010   31.9750   46.9480 C   0  0  0  0  0  0  0  0  0  0  0  0
   58.9870   33.1010   45.9910 C   0  0  0  0  0  0  0  0  0  0  0  0
   58.0560   33.3060   45.0440 C   0  0  0  0  0  0  0  0  0  0  0  0
   57.3940   32.2560   44.2460 C   0  0  0  0  0  0  0  0  0  0  0  0
   57.7570   31.9960   43.0680 O   0  0  0  0  0  0  0  0  0  0  0  0
   56.3950   31.4900   44.8310 O   0  0  0  0  0  0  0  0  0  0  0  0
   58.8370   30.6660   46.4700 C   0  0  0  0  0  0  0  0  0  0  0  0
   57.0466   29.7376   45.3451 H   0  0  0  0  0  0  0  0  0  0  0  0
   56.4317   28.2570   44.3156 H   0  0  0  0  0  0  0  0  0  0  0  0
   57.8246   25.6814   43.7069 H   0  0  0  0  0  0  0  0  0  0  0  0
   59.2139   24.9907   46.7955 H   0  0  0  0  0  0  0  0  0  0  0  0
   59.6511   27.1371   49.4401 H   0  0  0  0  0  0  0  0  0  0  0  0
   60.8358   26.2240   48.4453 H   0  0  0  0  0  0  0  0  0  0  0  0
   60.8583   28.0201   48.4453 H   0  0  0  0  0  0  0  0  0  0  0  0
   58.8790   28.9714   49.4421 H   0  0  0  0  0  0  0  0  0  0  0  0
   59.1110   31.3002   50.3047 H   0  0  0  0  0  0  0  0  0  0  0  0
   59.1614   33.2244   48.7190 H   0  0  0  0  0  0  0  0  0  0  0  0
   59.8064   33.8317   46.0596 H   0  0  0  0  0  0  0  0  0  0  0  0
   57.7617   34.3473   44.8464 H   0  0  0  0  0  0  0  0  0  0  0  0
   58.7367   30.4881   45.3891 H   0  0  0  0  0  0  0  0  0  0  0  0
  1  2  2  0
  2  3  1  0
  3  4  2  3
  4  5  1  0
  5  6  2  0
  6  7  1  0
  6  8  1  0
  8  9  1  0
  9 10  2  0
  9 11  1  0
 11 12  1  0
 12 13  2  0
  3 14  1  0
 14 15  2  0
 15 16  1  0
 15 17  1  0
 17 18  1  0
 18 19  2  0
 19 20  1  0
 20 21  2  0
 21 22  1  0
 22 23  1  0
 23 24  2  3
 24 25  1  0
 25 26  2  0
 25 27  1  0
 22 28  2  0
 17  2  1  0
 28 18  1  0
 12  5  1  0
  1 29  1  0
  1 30  1  0
  4 31  1  0
 14 32  1  0
 16 33  1  0
 16 34  1  0
 16 35  1  0
 19 36  1  0
 20 37  1  0
 21 38  1  0
 23 39  1  0
 24 40  1  0
 28 41  1  0
M  CHG  4   7  -1   8  -1  11  -1  27  -1
M  END
>  <UniqueID>  (63) 
56

>  <SMILES>  (63) 
C=c1c(=Cc2c([O-])[n-]c(=O)[n-]c2=O)cc(C)n1-c1cccc(C=CC(=O)[O-])c1

>  <Energy>  (63) 
96.08824146575795

>  <Genealogy>  (63) 
C=c1c(=Cc2c([O-])[n-]c(=O)[n-]c2=O)cc(C)n1-c1cccc(C=CC(=O)[O-])c1 (protonated)
C=c1c(=Cc2c([O-])[n-]c(=O)[n-]c2=O)cc(C)n1-c1cccc(C=CC(=O)[O-])c1 (3D coordinates assigned)
C=c1c(=Cc2c([O-])[n-]c(=O)[n-]c2=O)cc(C)n1-c1cccc(C=CC(=O)[O-])c1 (optimized conformer: 96.08824146575795 kcal/mol)

>  <smiles>  (63) 
C=c1c(=Cc2c(O)[nH]c(=O)[nH]c2=O)cc(C)n1-c1cccc(C=CC(=O)O)c1

>  <score_type>  (63) 
oracle

>  <origin>  (63) 
adg

>  <m_score__min__energy>  (63) 
-17.09

>  <m_primary>  (63) 
energy

$$$$
63:0
     RDKit          3D

 18 19  0  0  0  0  0  0  0  0999 V2000
   55.1670   30.3210   43.7720 O   0  0  0  0  0  0  0  0  0  0  0  0
   56.0900   29.5200   44.0720 C   0  0  0  0  0  0  0  0  0  0  0  0
   56.3310   29.0850   45.4100 N   0  0  0  0  0  0  0  0  0  0  0  0
   57.3440   28.2860   45.3330 C   0  0  0  0  0  0  0  0  0  0  0  0
   57.9130   27.5630   46.5140 C   0  0  0  0  0  0  0  0  0  0  0  0
   57.2960   26.2030   46.6330 C   0  0  0  0  0  0  0  0  0  0  0  0
   57.9650   25.1170   47.0590 N   0  0  0  0  0  0  0  0  0  0  0  0
   57.0210   24.1520   47.0700 C   0  0  0  0  0  0  0  0  0  0  0  0
   57.2670   22.9660   47.4140 O   0  0  0  0  0  0  0  0  0  0  0  0
   55.7910   24.5570   46.6900 N   0  0  0  0  0  0  0  0  0  0  0  0
   55.9760   25.8600   46.4220 C   0  0  0  0  0  0  0  0  0  0  0  0
   54.9550   26.7050   45.9960 O   0  0  0  0  0  0  0  0  0  0  0  0
   57.7840   28.1670   43.9510 C   0  0  0  0  0  0  0  0  0  0  0  0
   58.7460   27.4630   43.5420 O   0  0  0  0  0  0  0  0  0  0  0  0
   56.9800   28.9690   43.1030 N   0  0  0  0  0  0  0  0  0  0  0  0
   59.0007   27.4589   46.3871 H   0  0  0  0  0  0  0  0  0  0  0  0
   57.6952   28.1376   47.4264 H   0  0  0  0  0  0  0  0  0  0  0  0
   55.1450   27.5350   45.4490 H   0  0  0  0  0  0  0  0  0  0  0  0
  1  2  2  0
  2  3  1  0
  3  4  2  0
  4  5  1  0
  5  6  1  0
  6  7  1  0
  7  8  1  0
  8  9  2  0
  8 10  1  0
 10 11  1  0
 11 12  1  0
  4 13  1  0
 13 14  2  0
 13 15  1  0
 15  2  1  0
 11  6  2  0
  5 16  1  0
  5 17  1  0
 12 18  1  0
M  CHG  3   7  -1  10  -1  15  -1
M  END
>  <UniqueID>  (64) 
57

>  <SMILES>  (64) 
O=C1N=C(Cc2[n-]c(=O)[n-]c2O)C(=O)[N-]1

>  <Energy>  (64) 
71.39514513377819

>  <Genealogy>  (64) 
O=C1N=C(Cc2[n-]c(=O)[n-]c2O)C(=O)[N-]1 (protonated)
O=C1N=C(Cc2[n-]c(=O)[n-]c2O)C(=O)[N-]1 (3D coordinates assigned)
O=C1N=C(Cc2[n-]c(=O)[n-]c2O)C(=O)[N-]1 (nonaromatic ring conformer: 71.39514513377819 kcal/mol)

>  <smiles>  (64) 
O=C1N=C(Cc2[nH]c(=O)[nH]c2O)C(=O)N1

>  <score_type>  (64) 
oracle

>  <origin>  (64) 
adg

>  <m_score__min__energy>  (64) 
-11.65

>  <m_primary>  (64) 
energy

$$$$
64:0
     RDKit          3D

 28 29  0  0  0  0  0  0  0  0999 V2000
   59.9190   29.8440   47.1540 C   0  0  0  0  0  0  0  0  0  0  0  0
   58.9240   30.4330   46.4660 C   0  0  0  0  0  0  0  0  0  0  0  0
   58.5370   31.7190   46.8860 C   0  0  0  0  0  0  0  0  0  0  0  0
   57.7150   32.5170   46.0940 C   0  0  0  0  0  0  0  0  0  0  0  0
   57.3510   33.7960   46.5120 O   0  0  0  0  0  0  0  0  0  0  0  0
   57.2730   32.0490   44.8640 C   0  0  0  0  0  0  0  0  0  0  0  0
   57.5860   30.7510   44.4270 C   0  0  0  0  0  0  0  0  0  0  0  0
   57.0230   30.3150   43.0930 C   0  0  0  0  0  0  0  0  0  0  0  0
   58.3390   29.8750   45.2740 C   0  0  0  0  0  0  0  0  0  0  0  0
   58.4380   28.5560   44.9360 C   0  0  0  0  0  0  0  0  0  0  0  0
   57.6460   27.4410   45.5120 C   0  0  0  0  0  0  0  0  0  0  0  0
   56.2450   27.5050   45.6150 C   0  0  0  0  0  0  0  0  0  0  0  0
   55.5480   28.6300   45.1900 O   0  0  0  0  0  0  0  0  0  0  0  0
   55.5550   26.4490   46.1190 N   0  0  0  0  0  0  0  0  0  0  0  0
   56.1920   25.3160   46.5110 C   0  0  0  0  0  0  0  0  0  0  0  0
   55.5310   24.3540   46.9790 O   0  0  0  0  0  0  0  0  0  0  0  0
   57.5410   25.2190   46.3920 N   0  0  0  0  0  0  0  0  0  0  0  0
   58.2780   26.2460   45.8950 C   0  0  0  0  0  0  0  0  0  0  0  0
   59.5260   26.1180   45.7950 O   0  0  0  0  0  0  0  0  0  0  0  0
   60.2634   28.8385   46.8706 H   0  0  0  0  0  0  0  0  0  0  0  0
   60.3880   30.3680   47.9998 H   0  0  0  0  0  0  0  0  0  0  0  0
   58.8895   32.1003   47.8557 H   0  0  0  0  0  0  0  0  0  0  0  0
   56.5610   33.9480   47.1290 H   0  0  0  0  0  0  0  0  0  0  0  0
   56.6679   32.7051   44.2211 H   0  0  0  0  0  0  0  0  0  0  0  0
   56.1631   29.6491   43.2579 H   0  0  0  0  0  0  0  0  0  0  0  0
   56.6982   31.1995   42.5253 H   0  0  0  0  0  0  0  0  0  0  0  0
   57.7981   29.7793   42.5253 H   0  0  0  0  0  0  0  0  0  0  0  0
   59.1754   28.2947   44.1627 H   0  0  0  0  0  0  0  0  0  0  0  0
  1  2  2  0
  2  3  1  0
  3  4  2  0
  4  5  1  0
  4  6  1  0
  6  7  2  0
  7  8  1  0
  7  9  1  0
  9 10  2  3
 10 11  1  0
 11 12  2  0
 12 13  1  0
 12 14  1  0
 14 15  1  0
 15 16  2  0
 15 17  1  0
 17 18  1  0
 18 19  2  0
  9  2  1  0
 18 11  1  0
  1 20  1  0
  1 21  1  0
  3 22  1  0
  5 23  1  0
  6 24  1  0
  8 25  1  0
  8 26  1  0
  8 27  1  0
 10 28  1  0
M  CHG  3  13  -1  14  -1  17  -1
M  END
>  <UniqueID>  (65) 
58

>  <SMILES>  (65) 
C=c1cc(O)cc(C)c1=Cc1c([O-])[n-]c(=O)[n-]c1=O

>  <Energy>  (65) 
57.00968912721712

>  <Genealogy>  (65) 
C=c1cc(O)cc(C)c1=Cc1c([O-])[n-]c(=O)[n-]c1=O (protonated)
C=c1cc(O)cc(C)c1=Cc1c([O-])[n-]c(=O)[n-]c1=O (3D coordinates assigned)
C=c1cc(O)cc(C)c1=Cc1c([O-])[n-]c(=O)[n-]c1=O (optimized conformer: 57.00968912721712 kcal/mol)

>  <smiles>  (65) 
C=c1cc(O)cc(C)c1=Cc1c(O)[nH]c(=O)[nH]c1=O

>  <score_type>  (65) 
oracle

>  <origin>  (65) 
adg

>  <m_score__min__energy>  (65) 
-13.789999999999999

>  <m_primary>  (65) 
energy

$$$$
65:0
     RDKit          3D

 50 52  0  0  0  0  0  0  0  0999 V2000
   55.8640   24.0950   44.5210 C   0  0  0  0  0  0  0  0  0  0  0  0
   55.1030   24.8590   45.5610 C   0  0  0  0  0  0  0  0  0  0  0  0
   54.3490   24.2300   46.3490 O   0  0  0  0  0  0  0  0  0  0  0  0
   55.1710   26.2890   45.6600 N   0  0  0  0  0  0  0  0  0  0  0  0
   56.3240   27.0720   45.9970 C   0  0  0  0  0  0  0  0  0  0  0  0
   57.2120   26.5840   46.9630 C   0  0  0  0  0  0  0  0  0  0  0  0
   58.3570   27.3100   47.3050 C   0  0  0  0  0  0  0  0  0  0  0  0
   58.6310   28.5410   46.6810 C   0  0  0  0  0  0  0  0  0  0  0  0
   59.8060   29.3070   47.0020 N   0  0  0  0  0  0  0  0  0  0  0  0
   60.1300   29.7810   48.3200 C   0  0  0  0  0  0  0  0  0  0  0  0
   59.2890   29.7120   49.2560 O   0  0  0  0  0  0  0  0  0  0  0  0
   61.4440   30.4480   48.5720 C   0  0  0  0  0  0  0  0  0  0  0  0
   61.1790   31.9350   49.5920 S   0  0  0  0  0  0  0  0  0  0  0  0
   60.4790   32.9350   48.2650 C   0  0  0  0  0  0  0  0  0  0  0  0
   59.0840   33.0610   48.2170 C   0  0  0  0  0  0  0  0  0  0  0  0
   58.4890   33.8150   47.2090 C   0  0  0  0  0  0  0  0  0  0  0  0
   59.2560   34.4010   46.2570 N   0  0  0  0  0  0  0  0  0  0  0  0
   60.6090   34.2800   46.2530 C   0  0  0  0  0  0  0  0  0  0  0  0
   61.2660   33.5440   47.2540 C   0  0  0  0  0  0  0  0  0  0  0  0
   63.0350   33.3610   47.1270 S   0  0  0  0  0  0  0  0  0  0  0  0
   63.4030   31.9440   46.7870 O   0  0  0  0  0  0  0  0  0  0  0  0
   63.5100   34.2250   45.9910 O   0  0  0  0  0  0  0  0  0  0  0  0
   63.8940   33.8180   48.5830 N   0  0  0  0  0  0  0  0  0  0  0  0
   63.0160   34.4370   49.5750 C   0  0  0  0  0  0  0  0  0  0  0  0
   63.6870   34.2310   50.9270 C   0  0  0  0  0  0  0  0  0  0  0  0
   64.7000   33.1140   50.7100 C   0  0  0  0  0  0  0  0  0  0  0  0
   64.5000   32.6800   49.2660 C   0  0  0  0  0  0  0  0  0  0  0  0
   57.7700   28.9980   45.6710 C   0  0  0  0  0  0  0  0  0  0  0  0
   56.6280   28.2690   45.3280 C   0  0  0  0  0  0  0  0  0  0  0  0
   56.5583   23.3979   45.0129 H   0  0  0  0  0  0  0  0  0  0  0  0
   55.1599   23.5292   43.8932 H   0  0  0  0  0  0  0  0  0  0  0  0
   56.4325   24.7969   43.8932 H   0  0  0  0  0  0  0  0  0  0  0  0
   57.0075   25.6224   47.4565 H   0  0  0  0  0  0  0  0  0  0  0  0
   59.0472   26.9167   48.0659 H   0  0  0  0  0  0  0  0  0  0  0  0
   60.4180   29.6130   46.2120 H   0  0  0  0  0  0  0  0  0  0  0  0
   62.1130   29.7536   49.1015 H   0  0  0  0  0  0  0  0  0  0  0  0
   61.9012   30.7353   47.6136 H   0  0  0  0  0  0  0  0  0  0  0  0
   58.4599   32.5648   48.9748 H   0  0  0  0  0  0  0  0  0  0  0  0
   57.3959   33.9353   47.1851 H   0  0  0  0  0  0  0  0  0  0  0  0
   61.1964   34.7630   45.4582 H   0  0  0  0  0  0  0  0  0  0  0  0
   62.9023   35.5109   49.3658 H   0  0  0  0  0  0  0  0  0  0  0  0
   62.0114   33.9894   49.5547 H   0  0  0  0  0  0  0  0  0  0  0  0
   64.1936   35.1526   51.2496 H   0  0  0  0  0  0  0  0  0  0  0  0
   62.9584   33.9759   51.7106 H   0  0  0  0  0  0  0  0  0  0  0  0
   65.7241   33.4847   50.8645 H   0  0  0  0  0  0  0  0  0  0  0  0
   64.5575   32.2826   51.4160 H   0  0  0  0  0  0  0  0  0  0  0  0
   65.4667   32.4286   48.8053 H   0  0  0  0  0  0  0  0  0  0  0  0
   63.8637   31.7852   49.1992 H   0  0  0  0  0  0  0  0  0  0  0  0
   57.9959   29.9374   45.1453 H   0  0  0  0  0  0  0  0  0  0  0  0
   55.9643   28.6343   44.5305 H   0  0  0  0  0  0  0  0  0  0  0  0
  1  2  1  0
  2  3  2  0
  2  4  1  0
  4  5  1  0
  5  6  2  0
  6  7  1  0
  7  8  2  0
  8  9  1  0
  9 10  1  0
 10 11  2  0
 10 12  1  0
 12 13  1  0
 13 14  1  0
 14 15  2  0
 15 16  1  0
 16 17  2  0
 17 18  1  0
 18 19  2  0
 19 20  1  0
 20 21  2  0
 20 22  2  0
 20 23  1  0
 23 24  1  0
 24 25  1  0
 25 26  1  0
 26 27  1  0
  8 28  1  0
 28 29  2  0
 29  5  1  0
 19 14  1  0
 27 23  1  0
  1 30  1  0
  1 31  1  0
  1 32  1  0
  6 33  1  0
  7 34  1  0
  9 35  1  0
 12 36  1  0
 12 37  1  0
 15 38  1  0
 16 39  1  0
 18 40  1  0
 24 41  1  0
 24 42  1  0
 25 43  1  0
 25 44  1  0
 26 45  1  0
 26 46  1  0
 27 47  1  0
 27 48  1  0
 28 49  1  0
 29 50  1  0
M  CHG  1   4  -1
M  END
>  <UniqueID>  (66) 
59

>  <SMILES>  (66) 
CC(=O)[N-]c1ccc(NC(=O)CSc2ccncc2S(=O)(=O)N2CCCC2)cc1

>  <Energy>  (66) 
59.09095713002503

>  <Genealogy>  (66) 
CC(=O)[N-]c1ccc(NC(=O)CSc2ccncc2S(=O)(=O)N2CCCC2)cc1 (protonated)
CC(=O)[N-]c1ccc(NC(=O)CSc2ccncc2S(=O)(=O)N2CCCC2)cc1 (3D coordinates assigned)
CC(=O)[N-]c1ccc(NC(=O)CSc2ccncc2S(=O)(=O)N2CCCC2)cc1 (nonaromatic ring conformer: 59.09095713002503 kcal/mol)

>  <smiles>  (66) 
CC(=O)Nc1ccc(NC(=O)CSc2ccncc2S(=O)(=O)N2CCCC2)cc1

>  <score_type>  (66) 
oracle

>  <origin>  (66) 
adg

>  <m_score__min__energy>  (66) 
-10.41

>  <m_primary>  (66) 
energy

$$$$
66:0
     RDKit          3D

 59 62  0  0  0  0  0  0  0  0999 V2000
   56.2640   30.1660   44.8370 O   0  0  0  0  0  0  0  0  0  0  0  0
   57.2950   29.9580   44.1420 C   0  0  0  0  0  0  0  0  0  0  0  0
   57.5020   28.6180   43.5000 C   0  0  0  0  0  0  0  0  0  0  0  0
   57.5270   27.5270   44.5370 C   0  0  0  0  0  0  0  0  0  0  0  0
   58.4750   26.4940   44.4510 C   0  0  0  0  0  0  0  0  0  0  0  0
   58.5160   25.4890   45.4220 C   0  0  0  0  0  0  0  0  0  0  0  0
   57.6020   25.5000   46.4950 C   0  0  0  0  0  0  0  0  0  0  0  0
   57.5890   24.5100   47.4900 O   0  0  0  0  0  0  0  0  0  0  0  0
   56.9700   23.2270   47.3690 C   0  0  0  0  0  0  0  0  0  0  0  0
   56.9630   22.7420   45.9340 C   0  0  0  0  0  0  0  0  0  0  0  0
   58.0820   22.0460   45.4280 C   0  0  0  0  0  0  0  0  0  0  0  0
   58.1160   21.6230   44.0950 C   0  0  0  0  0  0  0  0  0  0  0  0
   57.0460   21.9100   43.2440 C   0  0  0  0  0  0  0  0  0  0  0  0
   55.9450   22.6260   43.7210 C   0  0  0  0  0  0  0  0  0  0  0  0
   55.8950   23.0500   45.0570 C   0  0  0  0  0  0  0  0  0  0  0  0
   54.3670   24.0780   45.6080 Br  0  0  0  0  0  0  0  0  0  0  0  0
   56.6640   26.5360   46.5820 C   0  0  0  0  0  0  0  0  0  0  0  0
   56.6280   27.5460   45.6160 C   0  0  0  0  0  0  0  0  0  0  0  0
   58.2310   31.0200   43.9020 N   0  0  0  0  0  0  0  0  0  0  0  0
   58.3240   32.1990   44.7180 C   0  0  0  0  0  0  0  0  0  0  0  0
   57.8370   33.4190   44.2270 C   0  0  0  0  0  0  0  0  0  0  0  0
   57.9440   34.5830   44.9930 C   0  0  0  0  0  0  0  0  0  0  0  0
   58.5560   34.5420   46.2470 C   0  0  0  0  0  0  0  0  0  0  0  0
   59.0740   33.3380   46.7400 C   0  0  0  0  0  0  0  0  0  0  0  0
   59.8920   33.2950   48.3050 S   0  0  0  0  0  0  0  0  0  0  0  0
   59.3050   32.1920   49.1450 O   0  0  0  0  0  0  0  0  0  0  0  0
   59.6530   34.5990   49.0180 O   0  0  0  0  0  0  0  0  0  0  0  0
   61.6130   33.0330   48.1340 N   0  0  0  0  0  0  0  0  0  0  0  0
   62.0790   33.5150   46.8230 C   0  0  0  0  0  0  0  0  0  0  0  0
   63.6200   33.4670   46.7450 C   0  0  0  0  0  0  0  0  0  0  0  0
   64.1720   32.7770   47.8510 O   0  0  0  0  0  0  0  0  0  0  0  0
   63.8660   33.4700   49.0510 C   0  0  0  0  0  0  0  0  0  0  0  0
   62.3490   33.7090   49.2140 C   0  0  0  0  0  0  0  0  0  0  0  0
   58.9570   32.1670   45.9740 C   0  0  0  0  0  0  0  0  0  0  0  0
   56.6808   28.4257   42.7938 H   0  0  0  0  0  0  0  0  0  0  0  0
   58.4670   28.6251   42.9721 H   0  0  0  0  0  0  0  0  0  0  0  0
   59.1893   26.4757   43.6147 H   0  0  0  0  0  0  0  0  0  0  0  0
   59.2646   24.6864   45.3483 H   0  0  0  0  0  0  0  0  0  0  0  0
   57.5233   22.5045   47.9869 H   0  0  0  0  0  0  0  0  0  0  0  0
   55.9267   23.3162   47.7061 H   0  0  0  0  0  0  0  0  0  0  0  0
   58.9358   21.8341   46.0885 H   0  0  0  0  0  0  0  0  0  0  0  0
   58.9851   21.0645   43.7170 H   0  0  0  0  0  0  0  0  0  0  0  0
   57.0702   21.5720   42.1975 H   0  0  0  0  0  0  0  0  0  0  0  0
   55.1106   22.8590   43.0432 H   0  0  0  0  0  0  0  0  0  0  0  0
   55.9491   26.5553   47.4178 H   0  0  0  0  0  0  0  0  0  0  0  0
   55.8923   28.3593   45.7014 H   0  0  0  0  0  0  0  0  0  0  0  0
   58.8360   30.9580   43.0530 H   0  0  0  0  0  0  0  0  0  0  0  0
   57.3679   33.4600   43.2329 H   0  0  0  0  0  0  0  0  0  0  0  0
   57.5454   35.5329   44.6072 H   0  0  0  0  0  0  0  0  0  0  0  0
   58.6316   35.4588   46.8501 H   0  0  0  0  0  0  0  0  0  0  0  0
   61.6566   32.8777   46.0321 H   0  0  0  0  0  0  0  0  0  0  0  0
   61.7486   34.5556   46.6889 H   0  0  0  0  0  0  0  0  0  0  0  0
   63.9156   32.9528   45.8186 H   0  0  0  0  0  0  0  0  0  0  0  0
   63.9995   34.4994   46.7566 H   0  0  0  0  0  0  0  0  0  0  0  0
   64.2252   32.8765   49.9047 H   0  0  0  0  0  0  0  0  0  0  0  0
   64.3608   34.4516   49.0105 H   0  0  0  0  0  0  0  0  0  0  0  0
   62.0197   33.3094   50.1845 H   0  0  0  0  0  0  0  0  0  0  0  0
   62.1470   34.7893   49.1667 H   0  0  0  0  0  0  0  0  0  0  0  0
   59.3625   31.2194   46.3581 H   0  0  0  0  0  0  0  0  0  0  0  0
  1  2  2  0
  2  3  1  0
  3  4  1  0
  4  5  2  0
  5  6  1  0
  6  7  2  0
  7  8  1  0
  8  9  1  0
  9 10  1  0
 10 11  2  0
 11 12  1  0
 12 13  2  0
 13 14  1  0
 14 15  2  0
 15 16  1  0
  7 17  1  0
 17 18  2  0
  2 19  1  0
 19 20  1  0
 20 21  2  0
 21 22  1  0
 22 23  2  0
 23 24  1  0
 24 25  1  0
 25 26  2  0
 25 27  2  0
 25 28  1  0
 28 29  1  0
 29 30  1  0
 30 31  1  0
 31 32  1  0
 32 33  1  0
 24 34  2  0
 18  4  1  0
 34 20  1  0
 15 10  1  0
 33 28  1  0
  3 35  1  0
  3 36  1  0
  5 37  1  0
  6 38  1  0
  9 39  1  0
  9 40  1  0
 11 41  1  0
 12 42  1  0
 13 43  1  0
 14 44  1  0
 17 45  1  0
 18 46  1  0
 19 47  1  0
 21 48  1  0
 22 49  1  0
 23 50  1  0
 29 51  1  0
 29 52  1  0
 30 53  1  0
 30 54  1  0
 32 55  1  0
 32 56  1  0
 33 57  1  0
 33 58  1  0
 34 59  1  0
M  END
>  <UniqueID>  (67) 
60

>  <SMILES>  (67) 
O=C(Cc1ccc(OCc2ccccc2Br)cc1)Nc1cccc(S(=O)(=O)N2CCOCC2)c1

>  <Energy>  (67) 
72.9841649075096

>  <Genealogy>  (67) 
O=C(Cc1ccc(OCc2ccccc2Br)cc1)Nc1cccc(S(=O)(=O)N2CCOCC2)c1 (3D coordinates assigned)
O=C(Cc1ccc(OCc2ccccc2Br)cc1)Nc1cccc(S(=O)(=O)N2CCOCC2)c1 (nonaromatic ring conformer: 72.9841649075096 kcal/mol)

>  <smiles>  (67) 
O=C(Cc1ccc(OCc2ccccc2Br)cc1)Nc1cccc(S(=O)(=O)N2CCOCC2)c1

>  <score_type>  (67) 
oracle

>  <origin>  (67) 
adg

>  <m_score__min__energy>  (67) 
-11.699999999999999

>  <m_primary>  (67) 
energy

$$$$
67:0
     RDKit          3D

 65 69  0  0  0  0  0  0  0  0999 V2000
   55.1810   29.6630   45.0220 O   0  0  0  0  0  0  0  0  0  0  0  0
   56.2020   29.0080   44.6870 C   0  0  0  0  0  0  0  0  0  0  0  0
   56.4150   27.7150   45.2640 N   0  0  0  0  0  0  0  0  0  0  0  0
   57.6380   27.2720   45.8640 C   0  0  0  0  0  0  0  0  0  0  0  0
   57.9900   25.9120   45.8890 C   0  0  0  0  0  0  0  0  0  0  0  0
   59.1810   25.5110   46.4980 C   0  0  0  0  0  0  0  0  0  0  0  0
   60.0280   26.4600   47.0830 C   0  0  0  0  0  0  0  0  0  0  0  0
   59.7050   27.8260   47.0310 C   0  0  0  0  0  0  0  0  0  0  0  0
   60.5880   28.8470   47.7040 C   0  0  0  0  0  0  0  0  0  0  0  0
   60.2760   28.9770   49.1760 C   0  0  0  0  0  0  0  0  0  0  0  0
   60.6560   27.9620   49.9960 N   0  0  0  0  0  0  0  0  0  0  0  0
   60.4070   27.9740   51.3050 N   0  0  0  0  0  0  0  0  0  0  0  0
   59.7550   29.0030   51.9000 C   0  0  0  0  0  0  0  0  0  0  0  0
   59.5340   28.9610   53.1400 O   0  0  0  0  0  0  0  0  0  0  0  0
   59.3400   30.0980   51.1250 C   0  0  0  0  0  0  0  0  0  0  0  0
   58.6750   31.1950   51.7050 C   0  0  0  0  0  0  0  0  0  0  0  0
   58.2870   32.2810   50.9170 C   0  0  0  0  0  0  0  0  0  0  0  0
   58.5510   32.2820   49.5480 C   0  0  0  0  0  0  0  0  0  0  0  0
   59.2050   31.2010   48.9560 C   0  0  0  0  0  0  0  0  0  0  0  0
   59.6100   30.0950   49.7330 C   0  0  0  0  0  0  0  0  0  0  0  0
   58.5060   28.2240   46.4140 C   0  0  0  0  0  0  0  0  0  0  0  0
   57.0890   29.5200   43.6810 N   0  0  0  0  0  0  0  0  0  0  0  0
   56.9640   30.8700   43.1400 C   0  0  0  0  0  0  0  0  0  0  0  0
   57.6670   31.8510   44.0350 C   0  0  0  0  0  0  0  0  0  0  0  0
   57.7580   31.6160   45.4160 C   0  0  0  0  0  0  0  0  0  0  0  0
   58.4120   32.5340   46.2470 C   0  0  0  0  0  0  0  0  0  0  0  0
   58.9880   33.6920   45.7030 C   0  0  0  0  0  0  0  0  0  0  0  0
   59.7920   34.8660   46.7420 S   0  0  0  0  0  0  0  0  0  0  0  0
   60.0160   36.1470   45.9860 O   0  0  0  0  0  0  0  0  0  0  0  0
   58.9040   35.1550   47.9190 O   0  0  0  0  0  0  0  0  0  0  0  0
   61.3170   34.2240   47.3010 N   0  0  0  0  0  0  0  0  0  0  0  0
   61.3500   34.2120   48.7730 C   0  0  0  0  0  0  0  0  0  0  0  0
   62.7570   33.8360   49.2810 C   0  0  0  0  0  0  0  0  0  0  0  0
   63.5780   33.0760   48.2260 C   0  0  0  0  0  0  0  0  0  0  0  0
   62.6880   32.1210   47.4270 C   0  0  0  0  0  0  0  0  0  0  0  0
   61.5050   32.8600   46.7600 C   0  0  0  0  0  0  0  0  0  0  0  0
   58.9060   33.9230   44.3240 C   0  0  0  0  0  0  0  0  0  0  0  0
   58.2580   33.0020   43.4920 C   0  0  0  0  0  0  0  0  0  0  0  0
   57.3279   25.1636   45.4292 H   0  0  0  0  0  0  0  0  0  0  0  0
   59.4546   24.4458   46.5182 H   0  0  0  0  0  0  0  0  0  0  0  0
   60.9507   26.1344   47.5857 H   0  0  0  0  0  0  0  0  0  0  0  0
   61.6381   28.5406   47.5886 H   0  0  0  0  0  0  0  0  0  0  0  0
   60.4055   29.8222   47.2290 H   0  0  0  0  0  0  0  0  0  0  0  0
   58.4600   31.1969   52.7838 H   0  0  0  0  0  0  0  0  0  0  0  0
   57.7721   33.1371   51.3774 H   0  0  0  0  0  0  0  0  0  0  0  0
   58.2422   33.1392   48.9316 H   0  0  0  0  0  0  0  0  0  0  0  0
   59.4065   31.2110   47.8747 H   0  0  0  0  0  0  0  0  0  0  0  0
   58.2474   29.2919   46.3627 H   0  0  0  0  0  0  0  0  0  0  0  0
   57.8500   28.9110   43.3090 H   0  0  0  0  0  0  0  0  0  0  0  0
   57.4154   30.9036   42.1375 H   0  0  0  0  0  0  0  0  0  0  0  0
   55.8986   31.1368   43.0793 H   0  0  0  0  0  0  0  0  0  0  0  0
   57.3137   30.7068   45.8472 H   0  0  0  0  0  0  0  0  0  0  0  0
   58.4743   32.3468   47.3292 H   0  0  0  0  0  0  0  0  0  0  0  0
   61.0850   35.2113   49.1488 H   0  0  0  0  0  0  0  0  0  0  0  0
   60.6297   33.4651   49.1380 H   0  0  0  0  0  0  0  0  0  0  0  0
   63.2937   34.7580   49.5492 H   0  0  0  0  0  0  0  0  0  0  0  0
   62.6335   33.1737   50.1505 H   0  0  0  0  0  0  0  0  0  0  0  0
   64.0387   33.7999   47.5378 H   0  0  0  0  0  0  0  0  0  0  0  0
   64.3530   32.4881   48.7396 H   0  0  0  0  0  0  0  0  0  0  0  0
   63.2939   31.6404   46.6448 H   0  0  0  0  0  0  0  0  0  0  0  0
   62.2762   31.3752   48.1228 H   0  0  0  0  0  0  0  0  0  0  0  0
   61.6970   32.9317   45.6793 H   0  0  0  0  0  0  0  0  0  0  0  0
   60.5898   32.2865   46.9688 H   0  0  0  0  0  0  0  0  0  0  0  0
   59.3523   34.8313   43.8930 H   0  0  0  0  0  0  0  0  0  0  0  0
   58.2120   33.1815   42.4077 H   0  0  0  0  0  0  0  0  0  0  0  0
  1  2  2  0
  2  3  1  0
  3  4  1  0
  4  5  2  0
  5  6  1  0
  6  7  2  0
  7  8  1  0
  8  9  1  0
  9 10  1  0
 10 11  2  0
 11 12  1  0
 12 13  1  0
 13 14  2  0
 13 15  1  0
 15 16  2  0
 16 17  1  0
 17 18  2  0
 18 19  1  0
 19 20  2  0
  8 21  2  0
  2 22  1  0
 22 23  1  0
 23 24  1  0
 24 25  2  0
 25 26  1  0
 26 27  2  0
 27 28  1  0
 28 29  2  0
 28 30  2  0
 28 31  1  0
 31 32  1  0
 32 33  1  0
 33 34  1  0
 34 35  1  0
 35 36  1  0
 27 37  1  0
 37 38  2  0
 21  4  1  0
 38 24  1  0
 20 10  1  0
 36 31  1  0
 20 15  1  0
  5 39  1  0
  6 40  1  0
  7 41  1  0
  9 42  1  0
  9 43  1  0
 16 44  1  0
 17 45  1  0
 18 46  1  0
 19 47  1  0
 21 48  1  0
 22 49  1  0
 23 50  1  0
 23 51  1  0
 25 52  1  0
 26 53  1  0
 32 54  1  0
 32 55  1  0
 33 56  1  0
 33 57  1  0
 34 58  1  0
 34 59  1  0
 35 60  1  0
 35 61  1  0
 36 62  1  0
 36 63  1  0
 37 64  1  0
 38 65  1  0
M  CHG  2   3  -1  12  -1
M  END
>  <UniqueID>  (68) 
61

>  <SMILES>  (68) 
O=C([N-]c1cccc(Cc2n[n-]c(=O)c3ccccc23)c1)NCc1ccc(S(=O)(=O)N2CCCCC2)cc1

>  <Energy>  (68) 
81.22869228823193

>  <Genealogy>  (68) 
O=C([N-]c1cccc(Cc2n[n-]c(=O)c3ccccc23)c1)NCc1ccc(S(=O)(=O)N2CCCCC2)cc1 (protonated)
O=C([N-]c1cccc(Cc2n[n-]c(=O)c3ccccc23)c1)NCc1ccc(S(=O)(=O)N2CCCCC2)cc1 (3D coordinates assigned)
O=C([N-]c1cccc(Cc2n[n-]c(=O)c3ccccc23)c1)NCc1ccc(S(=O)(=O)N2CCCCC2)cc1 (nonaromatic ring conformer: 81.22869228823193 kcal/mol)

>  <smiles>  (68) 
O=C(NCc1ccc(S(=O)(=O)N2CCCCC2)cc1)Nc1cccc(Cc2n[nH]c(=O)c3ccccc23)c1

>  <score_type>  (68) 
oracle

>  <origin>  (68) 
adg

>  <m_score__min__energy>  (68) 
-14.779999999999999

>  <m_primary>  (68) 
energy

$$$$
68:0
     RDKit          3D

 47 50  0  0  1  0  0  0  0  0999 V2000
   60.4660   31.1720   47.7550 C   0  0  0  0  0  0  0  0  0  0  0  0
   59.9450   32.0510   46.9140 C   0  0  0  0  0  0  0  0  0  0  0  0
   60.0080   33.4190   47.0340 C   0  0  0  0  0  0  0  0  0  0  0  0
   60.5910   34.1370   47.9960 C   0  0  0  0  0  0  0  0  0  0  0  0
   61.9470   33.7440   48.3570 C   0  0  0  0  0  0  0  0  0  0  0  0
   62.2070   33.5400   49.6980 C   0  0  0  0  0  0  0  0  0  0  0  0
   61.2130   33.7020   50.6700 O   0  0  0  0  0  0  0  0  0  0  0  0
   63.4600   33.1720   50.0640 N   0  0  0  0  0  0  0  0  0  0  0  0
   64.4080   33.0200   49.1070 C   0  0  0  0  0  0  0  0  0  0  0  0
   65.5950   32.6790   49.3860 O   0  0  0  0  0  0  0  0  0  0  0  0
   64.1460   33.2210   47.8000 N   0  0  0  0  0  0  0  0  0  0  0  0
   62.9040   33.5900   47.3850 C   0  0  0  0  0  0  0  0  0  0  0  0
   62.6500   33.7820   46.1530 O   0  0  0  0  0  0  0  0  0  0  0  0
   59.3280   33.9100   45.9280 C   0  0  0  0  0  0  0  0  0  0  0  0
   58.8740   32.8710   45.1740 C   0  0  0  0  0  0  0  0  0  0  0  0
   58.1020   33.0040   43.9130 C   0  0  0  0  0  0  0  0  0  0  0  0
   59.2630   31.7410   45.7950 N   0  0  0  0  0  0  0  0  0  0  0  0
   59.0120   30.4050   45.3670 C   0  0  0  0  0  0  0  0  0  0  0  0
   57.6750   30.0650   45.1900 C   0  0  0  0  0  0  0  0  0  0  0  0
   57.2970   28.8040   44.7800 C   0  0  0  0  0  0  0  0  0  0  0  0
   58.3130   27.8710   44.5420 C   0  0  0  0  0  0  0  0  0  0  0  0
   57.8780   26.5540   44.1100 C   0  0  0  0  0  0  0  0  0  0  0  0
   57.7760   26.2050   42.8090 N   0  0  0  0  0  0  0  0  0  0  0  0
   57.3570   24.9480   42.7760 N   0  0  0  0  0  0  0  0  0  0  0  0
   57.1870   24.4820   44.0340 C   0  0  0  0  0  0  0  0  0  0  0  0
   56.7250   23.1140   44.3460 C   0  0  0  0  0  0  0  0  0  0  0  0
   57.5140   25.4930   44.8810 N   0  0  0  0  0  0  0  0  0  0  0  0
   59.6360   28.2180   44.7200 C   0  0  0  0  0  0  0  0  0  0  0  0
   60.0170   29.4880   45.1350 C   0  0  0  0  0  0  0  0  0  0  0  0
   60.3563   30.0946   47.5623 H   0  0  0  0  0  0  0  0  0  0  0  0
   61.0087   31.5188   48.6467 H   0  0  0  0  0  0  0  0  0  0  0  0
   60.0779   34.9766   48.4878 H   0  0  0  0  0  0  0  0  0  0  0  0
   60.8270   32.8900   51.1630 H   0  0  0  0  0  0  0  0  0  0  0  0
   63.7010   33.0080   51.0690 H   0  0  0  0  0  0  0  0  0  0  0  0
   64.8630   33.1080   47.0490 H   0  0  0  0  0  0  0  0  0  0  0  0
   59.1788   34.9749   45.6962 H   0  0  0  0  0  0  0  0  0  0  0  0
   57.0432   33.1864   44.1488 H   0  0  0  0  0  0  0  0  0  0  0  0
   58.4979   33.8472   43.3279 H   0  0  0  0  0  0  0  0  0  0  0  0
   58.1929   32.0770   43.3279 H   0  0  0  0  0  0  0  0  0  0  0  0
   56.8996   30.8212   45.3820 H   0  0  0  0  0  0  0  0  0  0  0  0
   56.2374   28.5412   44.6451 H   0  0  0  0  0  0  0  0  0  0  0  0
   57.1860   24.4070   41.8810 H   0  0  0  0  0  0  0  0  0  0  0  0
   56.6804   22.9820   45.4371 H   0  0  0  0  0  0  0  0  0  0  0  0
   55.7244   22.9581   43.9166 H   0  0  0  0  0  0  0  0  0  0  0  0
   57.4262   22.3833   43.9166 H   0  0  0  0  0  0  0  0  0  0  0  0
   60.4144   27.4651   44.5272 H   0  0  0  0  0  0  0  0  0  0  0  0
   61.0760   29.7517   45.2730 H   0  0  0  0  0  0  0  0  0  0  0  0
  1  2  2  0
  2  3  1  0
  3  4  2  0
  4  5  1  0
  5  6  2  0
  6  7  1  0
  6  8  1  0
  8  9  1  0
  9 10  2  0
  9 11  1  0
 11 12  1  0
 12 13  2  0
  3 14  1  0
 14 15  2  0
 15 16  1  0
 15 17  1  0
 17 18  1  0
 18 19  2  0
 19 20  1  0
 20 21  2  0
 21 22  1  0
 22 23  2  0
 23 24  1  0
 24 25  1  0
 25 26  1  0
 25 27  2  0
 21 28  1  0
 28 29  2  0
 17  2  1  0
 29 18  1  0
 12  5  1  0
 27 22  1  0
  1 30  1  0
  1 31  1  0
  4 32  1  0
  7 33  1  0
  8 34  1  0
 11 35  1  0
 14 36  1  0
 16 37  1  0
 16 38  1  0
 16 39  1  0
 19 40  1  0
 20 41  1  0
 24 42  1  0
 26 43  1  0
 26 44  1  0
 26 45  1  0
 28 46  1  0
 29 47  1  0
M  END
>  <smiles>  (69) 
C=c1c(=Cc2c(O)[nH]c(=O)[nH]c2=O)cc(C)n1-c1ccc(-c2n[nH]c(C)n2)cc1

>  <score_type>  (69) 
oracle

>  <origin>  (69) 
adg

>  <m_score__min__energy>  (69) 
-8.8300000000000001

>  <m_primary>  (69) 
energy

$$$$
69:0
     RDKit          3D

 58 62  0  0  0  0  0  0  0  0999 V2000
   59.7970   29.2580   49.1260 N   0  0  0  0  0  0  0  0  0  0  0  0
   59.4240   30.1250   48.0440 C   0  0  0  0  0  0  0  0  0  0  0  0
   59.8530   31.4580   48.0170 C   0  0  0  0  0  0  0  0  0  0  0  0
   59.5560   32.2660   46.9470 C   0  0  0  0  0  0  0  0  0  0  0  0
   58.8370   31.8320   45.8880 N   0  0  0  0  0  0  0  0  0  0  0  0
   58.3660   30.5520   45.8620 C   0  0  0  0  0  0  0  0  0  0  0  0
   57.5590   30.1390   44.7490 N   0  0  0  0  0  0  0  0  0  0  0  0
   56.2060   29.6100   44.8850 C   0  0  0  0  0  0  0  0  0  0  0  0
   55.6580   29.6990   43.5030 C   0  0  0  0  0  0  0  0  0  0  0  0
   56.5430   30.2340   42.6720 C   0  0  0  0  0  0  0  0  0  0  0  0
   57.8020   30.5870   43.3840 C   0  0  0  0  0  0  0  0  0  0  0  0
   58.6570   29.6570   46.9390 C   0  0  0  0  0  0  0  0  0  0  0  0
   58.1960   28.2550   46.8790 C   0  0  0  0  0  0  0  0  0  0  0  0
   57.7730   27.6960   47.9290 O   0  0  0  0  0  0  0  0  0  0  0  0
   58.2230   27.5420   45.6320 N   0  0  0  0  0  0  0  0  0  0  0  0
   57.6390   26.2460   45.4320 C   0  0  0  0  0  0  0  0  0  0  0  0
   57.0410   25.6620   46.3770 O   0  0  0  0  0  0  0  0  0  0  0  0
   57.6960   25.6420   44.1300 N   0  0  0  0  0  0  0  0  0  0  0  0
   57.3520   24.2720   43.8590 C   0  0  0  0  0  0  0  0  0  0  0  0
   56.2800   23.9910   42.9950 C   0  0  0  0  0  0  0  0  0  0  0  0
   55.9430   22.6680   42.6920 C   0  0  0  0  0  0  0  0  0  0  0  0
   56.6830   21.6150   43.2370 C   0  0  0  0  0  0  0  0  0  0  0  0
   56.3580   20.3330   42.9390 F   0  0  0  0  0  0  0  0  0  0  0  0
   57.7640   21.8840   44.0810 C   0  0  0  0  0  0  0  0  0  0  0  0
   58.1040   23.2070   44.3870 C   0  0  0  0  0  0  0  0  0  0  0  0
   60.1660   33.5680   47.1510 C   0  0  0  0  0  0  0  0  0  0  0  0
   60.1190   34.5390   46.3480 O   0  0  0  0  0  0  0  0  0  0  0  0
   60.8550   33.5830   48.4000 N   0  0  0  0  0  0  0  0  0  0  0  0
   61.8050   34.5920   48.8640 C   0  0  0  0  0  0  0  0  0  0  0  0
   62.9930   33.9330   49.5080 C   0  0  0  0  0  0  0  0  0  0  0  0
   63.2980   34.1670   50.8590 C   0  0  0  0  0  0  0  0  0  0  0  0
   64.4140   33.5620   51.4430 C   0  0  0  0  0  0  0  0  0  0  0  0
   65.2360   32.7230   50.6840 C   0  0  0  0  0  0  0  0  0  0  0  0
   64.9430   32.4920   49.3360 C   0  0  0  0  0  0  0  0  0  0  0  0
   63.8270   33.0940   48.7480 C   0  0  0  0  0  0  0  0  0  0  0  0
   60.6860   32.2590   48.9220 C   0  0  0  0  0  0  0  0  0  0  0  0
   61.2190   31.8570   49.9900 O   0  0  0  0  0  0  0  0  0  0  0  0
   59.4410   28.2790   49.1940 H   0  0  0  0  0  0  0  0  0  0  0  0
   60.4690   29.5620   49.8610 H   0  0  0  0  0  0  0  0  0  0  0  0
   56.2247   28.5671   45.2342 H   0  0  0  0  0  0  0  0  0  0  0  0
   55.6025   30.1605   45.6217 H   0  0  0  0  0  0  0  0  0  0  0  0
   54.6518   29.3650   43.2098 H   0  0  0  0  0  0  0  0  0  0  0  0
   56.3694   30.3956   41.5979 H   0  0  0  0  0  0  0  0  0  0  0  0
   58.6625   30.0609   42.9450 H   0  0  0  0  0  0  0  0  0  0  0  0
   58.0430   31.6585   43.3216 H   0  0  0  0  0  0  0  0  0  0  0  0
   58.6860   27.9990   44.8140 H   0  0  0  0  0  0  0  0  0  0  0  0
   57.9250   26.2600   43.3190 H   0  0  0  0  0  0  0  0  0  0  0  0
   55.7023   24.8168   42.5542 H   0  0  0  0  0  0  0  0  0  0  0  0
   55.0949   22.4560   42.0243 H   0  0  0  0  0  0  0  0  0  0  0  0
   58.3487   21.0546   44.5056 H   0  0  0  0  0  0  0  0  0  0  0  0
   58.9624   23.4145   45.0428 H   0  0  0  0  0  0  0  0  0  0  0  0
   62.1436   35.1929   48.0071 H   0  0  0  0  0  0  0  0  0  0  0  0
   61.3089   35.2371   49.6040 H   0  0  0  0  0  0  0  0  0  0  0  0
   62.6562   34.8287   51.4592 H   0  0  0  0  0  0  0  0  0  0  0  0
   64.6465   33.7461   52.5023 H   0  0  0  0  0  0  0  0  0  0  0  0
   66.1121   32.2452   51.1467 H   0  0  0  0  0  0  0  0  0  0  0  0
   65.5919   31.8355   48.7377 H   0  0  0  0  0  0  0  0  0  0  0  0
   63.6004   32.9108   47.6873 H   0  0  0  0  0  0  0  0  0  0  0  0
  1  2  1  0
  2  3  2  0
  3  4  1  0
  4  5  2  0
  5  6  1  0
  6  7  1  0
  7  8  1  0
  8  9  1  0
  9 10  2  0
 10 11  1  0
  6 12  2  0
 12 13  1  0
 13 14  2  0
 13 15  1  0
 15 16  1  0
 16 17  2  0
 16 18  1  0
 18 19  1  0
 19 20  2  0
 20 21  1  0
 21 22  2  0
 22 23  1  0
 22 24  1  0
 24 25  2  0
  4 26  1  0
 26 27  2  0
 26 28  1  0
 28 29  1  0
 29 30  1  0
 30 31  2  0
 31 32  1  0
 32 33  2  0
 33 34  1  0
 34 35  2  0
 28 36  1  0
 36 37  2  0
 12  2  1  0
 25 19  1  0
 35 30  1  0
 36  3  1  0
 11  7  1  0
  1 38  1  0
  1 39  1  0
  8 40  1  0
  8 41  1  0
  9 42  1  0
 10 43  1  0
 11 44  1  0
 11 45  1  0
 15 46  1  0
 18 47  1  0
 20 48  1  0
 21 49  1  0
 24 50  1  0
 25 51  1  0
 29 52  1  0
 29 53  1  0
 31 54  1  0
 32 55  1  0
 33 56  1  0
 34 57  1  0
 35 58  1  0
M  END
>  <UniqueID>  (70) 
62

>  <SMILES>  (70) 
Nc1c2c(nc(N3CC=CC3)c1C(=O)NC(=O)Nc1ccc(F)cc1)C(=O)N(Cc1ccccc1)C2=O

>  <Energy>  (70) 
118.13563083987736

>  <Genealogy>  (70) 
Nc1c2c(nc(N3CC=CC3)c1C(=O)NC(=O)Nc1ccc(F)cc1)C(=O)N(Cc1ccccc1)C2=O (3D coordinates assigned)
Nc1c2c(nc(N3CC=CC3)c1C(=O)NC(=O)Nc1ccc(F)cc1)C(=O)N(Cc1ccccc1)C2=O (nonaromatic ring conformer: 118.13563083987736 kcal/mol)

>  <smiles>  (70) 
Nc1c2c(nc(N3CC=CC3)c1C(=O)NC(=O)Nc1ccc(F)cc1)C(=O)N(Cc1ccccc1)C2=O

>  <score_type>  (70) 
oracle

>  <origin>  (70) 
adg

>  <m_score__min__energy>  (70) 
-7.9400000000000004

>  <m_primary>  (70) 
energy

$$$$
70:0
     RDKit          3D

 52 55  0  0  0  0  0  0  0  0999 V2000
   55.8180   28.8200   45.2280 O   0  0  0  0  0  0  0  0  0  0  0  0
   56.6810   27.9380   45.4840 C   0  0  0  0  0  0  0  0  0  0  0  0
   58.1330   28.2000   45.2040 C   0  0  0  0  0  0  0  0  0  0  0  0
   58.4650   29.5890   45.5880 N   0  0  0  0  0  0  0  0  0  0  0  0
   59.0480   29.8560   46.8040 C   0  0  0  0  0  0  0  0  0  0  0  0
   59.4200   28.9190   47.5620 O   0  0  0  0  0  0  0  0  0  0  0  0
   59.2180   31.1350   47.2180 N   0  0  0  0  0  0  0  0  0  0  0  0
   58.8290   32.1880   46.4600 C   0  0  0  0  0  0  0  0  0  0  0  0
   58.9960   33.5010   46.9300 C   0  0  0  0  0  0  0  0  0  0  0  0
   59.7410   33.8450   48.6610 Br  0  0  0  0  0  0  0  0  0  0  0  0
   58.5990   34.5810   46.1340 C   0  0  0  0  0  0  0  0  0  0  0  0
   58.0300   34.3580   44.8780 C   0  0  0  0  0  0  0  0  0  0  0  0
   57.8490   33.0540   44.4090 C   0  0  0  0  0  0  0  0  0  0  0  0
   58.2480   31.9590   45.1980 C   0  0  0  0  0  0  0  0  0  0  0  0
   58.0730   30.6280   44.7790 C   0  0  0  0  0  0  0  0  0  0  0  0
   57.5360   30.3920   43.6590 O   0  0  0  0  0  0  0  0  0  0  0  0
   56.2840   26.7100   46.1730 C   0  0  0  0  0  0  0  0  0  0  0  0
   57.0580   26.1840   47.0160 O   0  0  0  0  0  0  0  0  0  0  0  0
   54.9840   26.1690   45.9290 N   0  0  0  0  0  0  0  0  0  0  0  0
   54.6270   24.7790   45.9650 C   0  0  0  0  0  0  0  0  0  0  0  0
   53.3320   24.3250   45.6450 C   0  0  0  0  0  0  0  0  0  0  0  0
   53.0540   22.9570   45.6090 C   0  0  0  0  0  0  0  0  0  0  0  0
   54.0650   22.0290   45.8610 C   0  0  0  0  0  0  0  0  0  0  0  0
   55.3660   22.4660   46.1430 C   0  0  0  0  0  0  0  0  0  0  0  0
   56.6720   21.2990   46.3430 S   0  0  0  0  0  0  0  0  0  0  0  0
   57.3110   21.5210   47.6860 O   0  0  0  0  0  0  0  0  0  0  0  0
   56.0950   19.9090   46.3370 O   0  0  0  0  0  0  0  0  0  0  0  0
   57.8980   21.4270   45.0930 N   0  0  0  0  0  0  0  0  0  0  0  0
   58.6190   22.7230   45.1420 C   0  0  0  0  0  0  0  0  0  0  0  0
   58.0980   23.7440   44.1150 C   0  0  0  0  0  0  0  0  0  0  0  0
   56.7420   23.5060   43.8190 O   0  0  0  0  0  0  0  0  0  0  0  0
   56.6200   22.3000   43.0940 C   0  0  0  0  0  0  0  0  0  0  0  0
   57.3640   21.1130   43.7510 C   0  0  0  0  0  0  0  0  0  0  0  0
   55.6350   23.8400   46.2150 C   0  0  0  0  0  0  0  0  0  0  0  0
   58.7510   27.5007   45.7863 H   0  0  0  0  0  0  0  0  0  0  0  0
   58.3316   28.0581   44.1314 H   0  0  0  0  0  0  0  0  0  0  0  0
   58.7355   35.6097   46.4987 H   0  0  0  0  0  0  0  0  0  0  0  0
   57.7233   35.2117   44.2558 H   0  0  0  0  0  0  0  0  0  0  0  0
   57.3942   32.8833   43.4221 H   0  0  0  0  0  0  0  0  0  0  0  0
   52.5365   25.0514   45.4226 H   0  0  0  0  0  0  0  0  0  0  0  0
   52.0353   22.6101   45.3814 H   0  0  0  0  0  0  0  0  0  0  0  0
   53.8402   20.9524   45.8382 H   0  0  0  0  0  0  0  0  0  0  0  0
   58.5930   20.6780   45.3230 H   0  0  0  0  0  0  0  0  0  0  0  0
   58.5035   23.1498   46.1492 H   0  0  0  0  0  0  0  0  0  0  0  0
   59.6724   22.5212   44.8979 H   0  0  0  0  0  0  0  0  0  0  0  0
   58.2047   24.7579   44.5280 H   0  0  0  0  0  0  0  0  0  0  0  0
   58.6843   23.6447   43.1896 H   0  0  0  0  0  0  0  0  0  0  0  0
   55.5528   22.0444   43.0185 H   0  0  0  0  0  0  0  0  0  0  0  0
   57.0774   22.4653   42.1074 H   0  0  0  0  0  0  0  0  0  0  0  0
   56.6635   20.2698   43.8427 H   0  0  0  0  0  0  0  0  0  0  0  0
   58.2228   20.8711   43.1076 H   0  0  0  0  0  0  0  0  0  0  0  0
   56.6482   24.1838   46.4705 H   0  0  0  0  0  0  0  0  0  0  0  0
  1  2  2  0
  2  3  1  0
  3  4  1  0
  4  5  1  0
  5  6  2  0
  5  7  1  0
  7  8  1  0
  8  9  2  0
  9 10  1  0
  9 11  1  0
 11 12  2  0
 12 13  1  0
 13 14  2  0
 14 15  1  0
 15 16  2  0
  2 17  1  0
 17 18  2  0
 17 19  1  0
 19 20  1  0
 20 21  2  0
 21 22  1  0
 22 23  2  0
 23 24  1  0
 24 25  1  0
 25 26  2  0
 25 27  2  0
 25 28  1  0
 28 29  1  0
 29 30  1  0
 30 31  1  0
 31 32  1  0
 32 33  1  0
 24 34  2  0
 15  4  1  0
 34 20  1  0
 14  8  1  0
 33 28  1  0
  3 35  1  0
  3 36  1  0
 11 37  1  0
 12 38  1  0
 13 39  1  0
 21 40  1  0
 22 41  1  0
 23 42  1  0
 28 43  1  0
 29 44  1  0
 29 45  1  0
 30 46  1  0
 30 47  1  0
 32 48  1  0
 32 49  1  0
 33 50  1  0
 33 51  1  0
 34 52  1  0
M  CHG  3   7  -1  19  -1  28   1
M  END
>  <UniqueID>  (71) 
63

>  <SMILES>  (71) 
O=C(Cn1c(=O)[n-]c2c(Br)cccc2c1=O)C(=O)[N-]c1cccc(S(=O)(=O)[NH+]2CCOCC2)c1

>  <Energy>  (71) 
78.43299562013965

>  <Genealogy>  (71) 
O=C(Cn1c(=O)[n-]c2c(Br)cccc2c1=O)C(=O)[N-]c1cccc(S(=O)(=O)[NH+]2CCOCC2)c1 (protonated)
O=C(Cn1c(=O)[n-]c2c(Br)cccc2c1=O)C(=O)[N-]c1cccc(S(=O)(=O)[NH+]2CCOCC2)c1 (3D coordinates assigned)
O=C(Cn1c(=O)[n-]c2c(Br)cccc2c1=O)C(=O)[N-]c1cccc(S(=O)(=O)[NH+]2CCOCC2)c1 (nonaromatic ring conformer: 78.43299562013965 kcal/mol)

>  <smiles>  (71) 
O=C(Cn1c(=O)[nH]c2c(Br)cccc2c1=O)C(=O)Nc1cccc(S(=O)(=O)N2CCOCC2)c1

>  <score_type>  (71) 
oracle

>  <origin>  (71) 
adg

>  <m_score__min__energy>  (71) 
-11.800000000000001

>  <m_primary>  (71) 
energy

$$$$
71:0
     RDKit          3D

 39 42  0  0  0  0  0  0  0  0999 V2000
   60.2319   30.4597   45.2462 H   0  0  0  0  0  0  0  0  0  0  0  0
   60.3090   30.4280   46.3430 C   0  0  0  0  0  0  0  0  0  0  0  0
   61.0260   31.3800   46.9980 N   0  0  0  0  0  0  0  0  0  0  0  0
   61.1690   31.3920   48.3500 C   0  0  0  0  0  0  0  0  0  0  0  0
   61.8680   32.3540   48.8850 N   0  0  0  0  0  0  0  0  0  0  0  0
   61.5830   33.7620   48.9300 C   0  0  0  0  0  0  0  0  0  0  0  0
   62.5160   34.6060   48.9980 O   0  0  0  0  0  0  0  0  0  0  0  0
   60.2430   34.2310   48.7510 N   0  0  0  0  0  0  0  0  0  0  0  0
   59.4730   34.1460   47.5440 C   0  0  0  0  0  0  0  0  0  0  0  0
   58.2320   33.4820   47.4990 C   0  0  0  0  0  0  0  0  0  0  0  0
   57.8372   32.9946   48.4026 H   0  0  0  0  0  0  0  0  0  0  0  0
   57.5000   33.4410   46.3070 C   0  0  0  0  0  0  0  0  0  0  0  0
   56.5361   32.9120   46.2732 H   0  0  0  0  0  0  0  0  0  0  0  0
   57.9900   34.0700   45.1600 C   0  0  0  0  0  0  0  0  0  0  0  0
   57.4176   34.0276   44.2216 H   0  0  0  0  0  0  0  0  0  0  0  0
   59.2080   34.7530   45.2060 C   0  0  0  0  0  0  0  0  0  0  0  0
   59.5893   35.2575   44.3059 H   0  0  0  0  0  0  0  0  0  0  0  0
   59.9430   34.7960   46.3950 C   0  0  0  0  0  0  0  0  0  0  0  0
   60.8964   35.3437   46.4285 H   0  0  0  0  0  0  0  0  0  0  0  0
   60.5250   30.3950   49.1080 C   0  0  0  0  0  0  0  0  0  0  0  0
   60.6052   30.3954   50.2051 H   0  0  0  0  0  0  0  0  0  0  0  0
   59.7840   29.4060   48.4580 C   0  0  0  0  0  0  0  0  0  0  0  0
   59.2880   28.6210   49.0477 H   0  0  0  0  0  0  0  0  0  0  0  0
   59.6660   29.4040   47.0590 C   0  0  0  0  0  0  0  0  0  0  0  0
   58.8760   28.3500   46.3670 C   0  0  0  0  0  0  0  0  0  0  0  0
   57.9420   27.1690   47.1320 S   0  0  0  0  0  0  0  0  0  0  0  0
   57.4030   26.4090   45.7320 C   0  0  0  0  0  0  0  0  0  0  0  0
   56.5280   25.2640   45.6900 N   0  0  0  0  0  0  0  0  0  0  0  0
   55.1860   25.2330   45.7990 C   0  0  0  0  0  0  0  0  0  0  0  0
   54.3720   26.3400   45.9960 O   0  0  0  0  0  0  0  0  0  0  0  0
   54.7480   23.9320   45.7160 C   0  0  0  0  0  0  0  0  0  0  0  0
   53.6988   23.6062   45.7719 H   0  0  0  0  0  0  0  0  0  0  0  0
   55.8130   23.1200   45.5550 N   0  0  0  0  0  0  0  0  0  0  0  0
   56.8680   23.9620   45.5460 C   0  0  0  0  0  0  0  0  0  0  0  0
   58.0530   23.5600   45.4060 O   0  0  0  0  0  0  0  0  0  0  0  0
   57.9510   27.0660   44.6350 C   0  0  0  0  0  0  0  0  0  0  0  0
   57.7608   26.7670   43.5937 H   0  0  0  0  0  0  0  0  0  0  0  0
   58.7690   28.1460   44.9890 C   0  0  0  0  0  0  0  0  0  0  0  0
   59.2816   28.7774   44.2483 H   0  0  0  0  0  0  0  0  0  0  0  0
  1  2  1  0
  2  3  1  0
  3  4  1  0
  4  5  2  0
  5  6  1  0
  6  7  2  0
  6  8  1  0
  8  9  1  0
  9 10  2  0
 10 11  1  0
 10 12  1  0
 12 13  1  0
 12 14  2  0
 14 15  1  0
 14 16  1  0
 16 17  1  0
 16 18  2  0
 18 19  1  0
  4 20  1  0
 20 21  1  0
 20 22  2  0
 22 23  1  0
 22 24  1  0
 24 25  1  0
 25 26  1  0
 26 27  1  0
 27 28  1  0
 28 29  1  0
 29 30  1  0
 29 31  2  0
 31 32  1  0
 31 33  1  0
 33 34  1  0
 34 35  2  0
 27 36  2  0
 36 37  1  0
 36 38  1  0
 38 39  1  0
 24  2  2  0
 38 25  2  0
 18  9  1  0
 34 28  1  0
M  CHG  4   3  -1   8  -1  30  -1  33  -1
M  END
>  <UniqueID>  (72) 
64

>  <SMILES>  (72) 
O=C(/N=c1\ccc(-c2ccc(-n3c([O-])c[n-]c3=O)s2)c[n-]1)[N-]c1ccccc1

>  <Energy>  (72) 
119.55193800075916

>  <Genealogy>  (72) 
O=C(N=c1ccc(-c2ccc(-n3c([O-])c[n-]c3=O)s2)c[n-]1)[N-]c1ccccc1 (protonated)
O=C(/N=c1\ccc(-c2ccc(-n3c([O-])c[n-]c3=O)s2)c[n-]1)[N-]c1ccccc1 (cis-trans isomerization)
O=C(/N=c1\ccc(-c2ccc(-n3c([O-])c[n-]c3=O)s2)c[n-]1)[N-]c1ccccc1 (3D coordinates assigned)
O=C(/N=c1\ccc(-c2ccc(-n3c([O-])c[n-]c3=O)s2)c[n-]1)[N-]c1ccccc1 (optimized conformer: 119.55193800075916 kcal/mol)

>  <smiles>  (72) 
O=C(N=c1ccc(-c2ccc(-n3c(O)c[nH]c3=O)s2)c[nH]1)Nc1ccccc1

>  <score_type>  (72) 
oracle

>  <origin>  (72) 
adg

>  <m_score__min__energy>  (72) 
-15.06

>  <m_primary>  (72) 
energy

$$$$
72:0
     RDKit          3D

 35 37  0  0  0  0  0  0  0  0999 V2000
   61.3660   32.3590   47.4700 C   0  0  0  0  0  0  0  0  0  0  0  0
   60.7900   31.2990   48.3620 C   0  0  0  0  0  0  0  0  0  0  0  0
   60.1460   31.6530   49.5560 C   0  0  0  0  0  0  0  0  0  0  0  0
   59.5760   30.6660   50.3650 C   0  0  0  0  0  0  0  0  0  0  0  0
   59.6420   29.3230   49.9870 C   0  0  0  0  0  0  0  0  0  0  0  0
   60.2830   28.9510   48.7940 C   0  0  0  0  0  0  0  0  0  0  0  0
   60.3560   27.5230   48.4040 C   0  0  0  0  0  0  0  0  0  0  0  0
   60.9170   26.7010   49.1770 O   0  0  0  0  0  0  0  0  0  0  0  0
   59.7660   27.0300   47.1920 N   0  0  0  0  0  0  0  0  0  0  0  0
   58.6140   27.5700   46.5250 C   0  0  0  0  0  0  0  0  0  0  0  0
   58.6990   28.7640   45.7850 C   0  0  0  0  0  0  0  0  0  0  0  0
   57.5680   29.3010   45.1450 C   0  0  0  0  0  0  0  0  0  0  0  0
   57.6800   30.5840   44.4010 C   0  0  0  0  0  0  0  0  0  0  0  0
   58.1520   31.7810   44.9550 C   0  0  0  0  0  0  0  0  0  0  0  0
   58.1290   32.9670   43.7590 S   0  0  0  0  0  0  0  0  0  0  0  0
   57.5270   31.9160   42.6020 C   0  0  0  0  0  0  0  0  0  0  0  0
   57.2780   32.2360   41.4110 O   0  0  0  0  0  0  0  0  0  0  0  0
   57.3370   30.6730   43.0850 N   0  0  0  0  0  0  0  0  0  0  0  0
   56.3510   28.5980   45.2210 C   0  0  0  0  0  0  0  0  0  0  0  0
   56.2690   27.3930   45.9240 C   0  0  0  0  0  0  0  0  0  0  0  0
   55.0590   26.7100   45.9760 O   0  0  0  0  0  0  0  0  0  0  0  0
   57.3930   26.8740   46.5760 C   0  0  0  0  0  0  0  0  0  0  0  0
   57.2760   25.6710   47.2730 O   0  0  0  0  0  0  0  0  0  0  0  0
   60.8340   29.9510   47.9730 C   0  0  0  0  0  0  0  0  0  0  0  0
   61.8012   33.1598   48.0859 H   0  0  0  0  0  0  0  0  0  0  0  0
   62.1487   31.9183   46.8351 H   0  0  0  0  0  0  0  0  0  0  0  0
   60.5704   32.7760   46.8351 H   0  0  0  0  0  0  0  0  0  0  0  0
   60.0892   32.7096   49.8567 H   0  0  0  0  0  0  0  0  0  0  0  0
   59.0739   30.9478   51.3023 H   0  0  0  0  0  0  0  0  0  0  0  0
   59.1891   28.5519   50.6276 H   0  0  0  0  0  0  0  0  0  0  0  0
   59.6646   29.2849   45.7061 H   0  0  0  0  0  0  0  0  0  0  0  0
   58.4818   31.9225   45.9948 H   0  0  0  0  0  0  0  0  0  0  0  0
   55.4567   29.0005   44.7228 H   0  0  0  0  0  0  0  0  0  0  0  0
   56.4090   25.1490   47.3160 H   0  0  0  0  0  0  0  0  0  0  0  0
   61.3036   29.6744   47.0175 H   0  0  0  0  0  0  0  0  0  0  0  0
  1  2  1  0
  2  3  2  0
  3  4  1  0
  4  5  2  0
  5  6  1  0
  6  7  1  0
  7  8  2  0
  7  9  1  0
  9 10  1  0
 10 11  2  0
 11 12  1  0
 12 13  1  0
 13 14  2  0
 14 15  1  0
 15 16  1  0
 16 17  2  0
 16 18  1  0
 12 19  2  0
 19 20  1  0
 20 21  1  0
 20 22  2  0
 22 23  1  0
  6 24  2  0
 24  2  1  0
 22 10  1  0
 18 13  1  0
  1 25  1  0
  1 26  1  0
  1 27  1  0
  3 28  1  0
  4 29  1  0
  5 30  1  0
 11 31  1  0
 14 32  1  0
 19 33  1  0
 23 34  1  0
 24 35  1  0
M  CHG  3   9  -1  18  -1  21  -1
M  END
>  <UniqueID>  (73) 
65

>  <SMILES>  (73) 
Cc1cccc(C(=O)[N-]c2cc(-c3csc(=O)[n-]3)cc([O-])c2O)c1

>  <Energy>  (73) 
76.71139357041497

>  <Genealogy>  (73) 
Cc1cccc(C(=O)[N-]c2cc(-c3csc(=O)[n-]3)cc([O-])c2O)c1 (protonated)
Cc1cccc(C(=O)[N-]c2cc(-c3csc(=O)[n-]3)cc([O-])c2O)c1 (3D coordinates assigned)
Cc1cccc(C(=O)[N-]c2cc(-c3csc(=O)[n-]3)cc([O-])c2O)c1 (optimized conformer: 76.71139357041497 kcal/mol)

>  <smiles>  (73) 
Cc1cccc(C(=O)Nc2cc(-c3csc(=O)[nH]3)cc(O)c2O)c1

>  <score_type>  (73) 
oracle

>  <origin>  (73) 
adg

>  <m_score__min__energy>  (73) 
-12.199999999999999

>  <m_primary>  (73) 
energy

$$$$
73:0
     RDKit          3D

 38 40  0  0  1  0  0  0  0  0999 V2000
   56.3520   28.0870   54.8970 C   0  0  0  0  0  0  0  0  0  0  0  0
   55.6430   28.4790   53.6270 C   0  0  0  0  0  0  0  0  0  0  0  0
   54.6870   27.7360   53.3270 O   0  0  0  0  0  0  0  0  0  0  0  0
   56.1160   29.6310   52.8990 C   0  0  0  0  0  0  0  0  0  0  0  0
   57.4150   30.0500   52.9720 N   0  0  0  0  0  0  0  0  0  0  0  0
   57.5740   31.1060   52.1690 C   0  0  0  0  0  0  0  0  0  0  0  0
   58.6670   31.7650   51.9810 N   0  0  0  0  0  0  0  0  0  0  0  0
   59.0060   32.1940   50.6640 C   0  0  0  0  0  0  0  0  0  0  0  0
   58.1160   32.2010   49.7760 O   0  0  0  0  0  0  0  0  0  0  0  0
   60.3480   32.5940   50.4300 N   0  0  0  0  0  0  0  0  0  0  0  0
   60.8170   33.0440   49.1600 C   0  0  0  0  0  0  0  0  0  0  0  0
   62.1510   32.7500   48.8620 C   0  0  0  0  0  0  0  0  0  0  0  0
   62.7000   33.1500   47.6440 C   0  0  0  0  0  0  0  0  0  0  0  0
   61.9110   33.8340   46.7480 C   0  0  0  0  0  0  0  0  0  0  0  0
   60.5830   34.1190   47.0630 C   0  0  0  0  0  0  0  0  0  0  0  0
   59.6070   34.9910   45.8990 Cl  0  0  0  0  0  0  0  0  0  0  0  0
   60.0260   33.7270   48.2680 C   0  0  0  0  0  0  0  0  0  0  0  0
   56.4000   31.3380   51.6090 N   0  0  0  0  0  0  0  0  0  0  0  0
   55.4540   30.4410   52.0370 C   0  0  0  0  0  0  0  0  0  0  0  0
   54.0730   30.5450   51.6330 C   0  0  0  0  0  0  0  0  0  0  0  0
   53.2660   31.5880   51.2730 C   0  0  0  0  0  0  0  0  0  0  0  0
   52.0050   31.1230   50.9030 C   0  0  0  0  0  0  0  0  0  0  0  0
   51.0190   31.7930   50.5200 O   0  0  0  0  0  0  0  0  0  0  0  0
   52.0800   29.7950   51.0470 N   0  0  0  0  0  0  0  0  0  0  0  0
   53.2750   29.4440   51.4700 N   0  0  0  0  0  0  0  0  0  0  0  0
   55.7594   28.4146   55.7639 H   0  0  0  0  0  0  0  0  0  0  0  0
   56.4726   26.9940   54.9272 H   0  0  0  0  0  0  0  0  0  0  0  0
   57.3417   28.5661   54.9272 H   0  0  0  0  0  0  0  0  0  0  0  0
   58.1960   29.6580   53.5380 H   0  0  0  0  0  0  0  0  0  0  0  0
   61.0550   32.5670   51.2210 H   0  0  0  0  0  0  0  0  0  0  0  0
   62.7684   32.2024   49.5893 H   0  0  0  0  0  0  0  0  0  0  0  0
   63.7488   32.9219   47.4031 H   0  0  0  0  0  0  0  0  0  0  0  0
   62.3282   34.1562   45.7825 H   0  0  0  0  0  0  0  0  0  0  0  0
   58.9767   33.9565   48.5055 H   0  0  0  0  0  0  0  0  0  0  0  0
   56.2540   32.1330   50.9210 H   0  0  0  0  0  0  0  0  0  0  0  0
   53.5690   32.6454   51.2750 H   0  0  0  0  0  0  0  0  0  0  0  0
   51.2830   29.1530   50.8450 H   0  0  0  0  0  0  0  0  0  0  0  0
   53.5260   28.4430   51.6440 H   0  0  0  0  0  0  0  0  0  0  0  0
  1  2  1  0
  2  3  2  0
  2  4  1  0
  4  5  1  0
  5  6  1  0
  6  7  2  0
  7  8  1  0
  8  9  2  0
  8 10  1  0
 10 11  1  0
 11 12  2  0
 12 13  1  0
 13 14  2  0
 14 15  1  0
 15 16  1  0
 15 17  2  0
  6 18  1  0
 18 19  1  0
 19 20  1  0
 20 21  2  0
 21 22  1  0
 22 23  2  0
 22 24  1  0
 24 25  1  0
 19  4  2  0
 25 20  1  0
 17 11  1  0
  1 26  1  0
  1 27  1  0
  1 28  1  0
  5 29  1  0
 10 30  1  0
 12 31  1  0
 13 32  1  0
 14 33  1  0
 17 34  1  0
 18 35  1  0
 21 36  1  0
 24 37  1  0
 25 38  1  0
M  END
>  <smiles>  (74) 
CC(=O)c1[nH]c(=NC(=O)Nc2cccc(Cl)c2)[nH]c1-c1cc(=O)[nH][nH]1

>  <score_type>  (74) 
oracle

>  <origin>  (74) 
adg

>  <m_score__min__energy>  (74) 
-8.0299999999999994

>  <m_primary>  (74) 
energy

$$$$
74:0
     RDKit          3D

 56 59  0  0  0  0  0  0  0  0999 V2000
   67.7480   32.8010   52.7920 N   0  0  0  0  0  0  0  0  0  0  0  0
   67.3670   32.4340   51.1480 S   0  0  0  0  0  0  0  0  0  0  0  0
   67.5220   30.9580   50.9150 O   0  0  0  0  0  0  0  0  0  0  0  0
   68.3100   33.1690   50.2370 O   0  0  0  0  0  0  0  0  0  0  0  0
   65.7090   32.9220   50.8080 C   0  0  0  0  0  0  0  0  0  0  0  0
   64.9970   32.3230   49.7620 C   0  0  0  0  0  0  0  0  0  0  0  0
   63.6760   32.6970   49.5050 C   0  0  0  0  0  0  0  0  0  0  0  0
   63.0440   33.6650   50.3040 C   0  0  0  0  0  0  0  0  0  0  0  0
   61.6900   34.0740   50.0550 N   0  0  0  0  0  0  0  0  0  0  0  0
   61.1250   34.2080   48.7400 C   0  0  0  0  0  0  0  0  0  0  0  0
   61.8180   33.9550   47.7160 O   0  0  0  0  0  0  0  0  0  0  0  0
   59.6910   34.6150   48.5680 C   0  0  0  0  0  0  0  0  0  0  0  0
   59.2060   34.2820   47.1740 C   0  0  0  0  0  0  0  0  0  0  0  0
   59.2780   35.2850   46.1870 C   0  0  0  0  0  0  0  0  0  0  0  0
   58.9070   35.0190   44.8690 C   0  0  0  0  0  0  0  0  0  0  0  0
   58.4790   33.7450   44.5080 C   0  0  0  0  0  0  0  0  0  0  0  0
   58.4080   32.7330   45.4670 C   0  0  0  0  0  0  0  0  0  0  0  0
   58.7400   32.9870   46.8120 C   0  0  0  0  0  0  0  0  0  0  0  0
   58.6690   31.8470   47.8100 C   0  0  0  0  0  0  0  0  0  0  0  0
   59.5130   30.7570   47.4330 O   0  0  0  0  0  0  0  0  0  0  0  0
   59.0980   29.6320   46.7020 C   0  0  0  0  0  0  0  0  0  0  0  0
   59.7770   28.3980   46.7550 C   0  0  0  0  0  0  0  0  0  0  0  0
   59.3090   27.3040   46.0200 C   0  0  0  0  0  0  0  0  0  0  0  0
   58.1680   27.4270   45.2130 C   0  0  0  0  0  0  0  0  0  0  0  0
   57.6340   26.2370   44.4640 C   0  0  0  0  0  0  0  0  0  0  0  0
   56.9590   25.2950   45.4130 C   0  0  0  0  0  0  0  0  0  0  0  0
   57.4740   23.7270   45.7510 S   0  0  0  0  0  0  0  0  0  0  0  0
   56.1460   23.4170   46.7330 C   0  0  0  0  0  0  0  0  0  0  0  0
   55.9450   22.3280   47.3310 O   0  0  0  0  0  0  0  0  0  0  0  0
   55.3000   24.4660   46.8130 N   0  0  0  0  0  0  0  0  0  0  0  0
   55.7500   25.5110   46.0710 C   0  0  0  0  0  0  0  0  0  0  0  0
   55.0400   26.7010   45.9810 O   0  0  0  0  0  0  0  0  0  0  0  0
   57.4910   28.6560   45.1640 C   0  0  0  0  0  0  0  0  0  0  0  0
   57.9580   29.7500   45.8990 C   0  0  0  0  0  0  0  0  0  0  0  0
   63.7680   34.2770   51.3380 C   0  0  0  0  0  0  0  0  0  0  0  0
   65.0890   33.9010   51.5950 C   0  0  0  0  0  0  0  0  0  0  0  0
   68.0890   33.7890   52.8130 H   0  0  0  0  0  0  0  0  0  0  0  0
   65.4798   31.5548   49.1401 H   0  0  0  0  0  0  0  0  0  0  0  0
   63.1275   32.2314   48.6729 H   0  0  0  0  0  0  0  0  0  0  0  0
   61.0450   34.1370   50.8770 H   0  0  0  0  0  0  0  0  0  0  0  0
   59.0726   34.0795   49.3034 H   0  0  0  0  0  0  0  0  0  0  0  0
   59.6100   35.7012   48.7214 H   0  0  0  0  0  0  0  0  0  0  0  0
   59.6313   36.2905   46.4593 H   0  0  0  0  0  0  0  0  0  0  0  0
   58.9528   35.8175   44.1138 H   0  0  0  0  0  0  0  0  0  0  0  0
   58.1963   33.5351   43.4659 H   0  0  0  0  0  0  0  0  0  0  0  0
   58.0885   31.7237   45.1682 H   0  0  0  0  0  0  0  0  0  0  0  0
   58.9852   32.2173   48.7964 H   0  0  0  0  0  0  0  0  0  0  0  0
   57.6317   31.4819   47.8381 H   0  0  0  0  0  0  0  0  0  0  0  0
   60.6785   28.2950   47.3769 H   0  0  0  0  0  0  0  0  0  0  0  0
   59.8386   26.3415   46.0750 H   0  0  0  0  0  0  0  0  0  0  0  0
   56.9085   26.5766   43.7102 H   0  0  0  0  0  0  0  0  0  0  0  0
   58.4683   25.7166   43.9710 H   0  0  0  0  0  0  0  0  0  0  0  0
   56.5882   28.7588   44.5440 H   0  0  0  0  0  0  0  0  0  0  0  0
   57.4252   30.7108   45.8456 H   0  0  0  0  0  0  0  0  0  0  0  0
   63.2929   35.0577   51.9502 H   0  0  0  0  0  0  0  0  0  0  0  0
   65.6438   34.3753   52.4179 H   0  0  0  0  0  0  0  0  0  0  0  0
  1  2  1  0
  2  3  2  0
  2  4  2  0
  2  5  1  0
  5  6  2  0
  6  7  1  0
  7  8  2  0
  8  9  1  0
  9 10  1  0
 10 11  2  0
 10 12  1  0
 12 13  1  0
 13 14  2  0
 14 15  1  0
 15 16  2  0
 16 17  1  0
 17 18  2  0
 18 19  1  0
 19 20  1  0
 20 21  1  0
 21 22  2  0
 22 23  1  0
 23 24  2  0
 24 25  1  0
 25 26  1  0
 26 27  1  0
 27 28  1  0
 28 29  2  0
 28 30  1  0
 30 31  1  0
 31 32  1  0
 24 33  1  0
 33 34  2  0
  8 35  1  0
 35 36  2  0
 36  5  1  0
 18 13  1  0
 34 21  1  0
 31 26  2  0
  1 37  1  0
  6 38  1  0
  7 39  1  0
  9 40  1  0
 12 41  1  0
 12 42  1  0
 14 43  1  0
 15 44  1  0
 16 45  1  0
 17 46  1  0
 19 47  1  0
 19 48  1  0
 22 49  1  0
 23 50  1  0
 25 51  1  0
 25 52  1  0
 33 53  1  0
 34 54  1  0
 35 55  1  0
 36 56  1  0
M  CHG  3   1  -1  30  -1  32  -1
M  END
>  <UniqueID>  (75) 
66

>  <SMILES>  (75) 
[NH-]S(=O)(=O)c1ccc(NC(=O)Cc2ccccc2COc2ccc(Cc3sc(=O)[n-]c3[O-])cc2)cc1

>  <Energy>  (75) 
93.75113282810163

>  <Genealogy>  (75) 
[NH-]S(=O)(=O)c1ccc(NC(=O)Cc2ccccc2COc2ccc(Cc3sc(=O)[n-]c3[O-])cc2)cc1 (protonated)
[NH-]S(=O)(=O)c1ccc(NC(=O)Cc2ccccc2COc2ccc(Cc3sc(=O)[n-]c3[O-])cc2)cc1 (3D coordinates assigned)
[NH-]S(=O)(=O)c1ccc(NC(=O)Cc2ccccc2COc2ccc(Cc3sc(=O)[n-]c3[O-])cc2)cc1 (optimized conformer: 93.75113282810163 kcal/mol)

>  <smiles>  (75) 
NS(=O)(=O)c1ccc(NC(=O)Cc2ccccc2COc2ccc(Cc3sc(=O)[nH]c3O)cc2)cc1

>  <score_type>  (75) 
oracle

>  <origin>  (75) 
adg

>  <m_score__min__energy>  (75) 
-18.739999999999998

>  <m_primary>  (75) 
energy

$$$$
75:0
     RDKit          3D

 55 58  0  0  0  0  0  0  0  0999 V2000
   58.4070   29.9460   44.2970 C   0  0  0  0  0  0  0  0  0  0  0  0
   58.3990   29.6530   45.6060 C   0  0  0  0  0  0  0  0  0  0  0  0
   58.2900   28.3830   46.1960 C   0  0  0  0  0  0  0  0  0  0  0  0
   57.9750   27.1850   45.6660 C   0  0  0  0  0  0  0  0  0  0  0  0
   57.3300   26.0720   46.3820 C   0  0  0  0  0  0  0  0  0  0  0  0
   57.9810   25.0130   46.8980 N   0  0  0  0  0  0  0  0  0  0  0  0
   56.9810   24.2060   47.3150 C   0  0  0  0  0  0  0  0  0  0  0  0
   57.1930   23.1010   47.8780 O   0  0  0  0  0  0  0  0  0  0  0  0
   55.7380   24.6720   47.0700 N   0  0  0  0  0  0  0  0  0  0  0  0
   55.9780   25.8470   46.4650 C   0  0  0  0  0  0  0  0  0  0  0  0
   54.9820   26.6930   45.9950 O   0  0  0  0  0  0  0  0  0  0  0  0
   58.5490   28.5590   47.5460 C   0  0  0  0  0  0  0  0  0  0  0  0
   58.7500   29.9090   47.7430 C   0  0  0  0  0  0  0  0  0  0  0  0
   58.9110   30.5540   49.0860 C   0  0  0  0  0  0  0  0  0  0  0  0
   58.6470   30.5730   46.5720 N   0  0  0  0  0  0  0  0  0  0  0  0
   58.8120   31.9900   46.3920 C   0  0  0  0  0  0  0  0  0  0  0  0
   57.7200   32.7520   45.9540 C   0  0  0  0  0  0  0  0  0  0  0  0
   57.8530   34.1290   45.7630 C   0  0  0  0  0  0  0  0  0  0  0  0
   59.0800   34.7520   45.9980 C   0  0  0  0  0  0  0  0  0  0  0  0
   60.1760   34.0010   46.4320 C   0  0  0  0  0  0  0  0  0  0  0  0
   60.0500   32.6190   46.6510 C   0  0  0  0  0  0  0  0  0  0  0  0
   61.2270   31.8350   47.0820 C   0  0  0  0  0  0  0  0  0  0  0  0
   61.4620   30.7350   46.5130 O   0  0  0  0  0  0  0  0  0  0  0  0
   62.0970   32.2860   48.1380 N   0  0  0  0  0  0  0  0  0  0  0  0
   61.8260   33.4910   48.9090 C   0  0  0  0  0  0  0  0  0  0  0  0
   63.1450   33.8700   49.5720 C   0  0  0  0  0  0  0  0  0  0  0  0
   63.9740   32.5740   49.5620 C   0  0  2  0  0  0  0  0  0  0  0  0
   65.4510   32.7140   49.5320 N   0  0  0  0  0  0  0  0  0  0  0  0
   66.1230   33.4610   50.6100 C   0  0  0  0  0  0  0  0  0  0  0  0
   67.6490   33.4440   50.5040 C   0  0  0  0  0  0  0  0  0  0  0  0
   63.4090   31.7220   48.4240 C   0  0  0  0  0  0  0  0  0  0  0  0
   58.4990   30.9916   43.9680 H   0  0  0  0  0  0  0  0  0  0  0  0
   58.3215   29.1407   43.5526 H   0  0  0  0  0  0  0  0  0  0  0  0
   58.2212   27.0245   44.6060 H   0  0  0  0  0  0  0  0  0  0  0  0
   58.5870   27.7722   48.3138 H   0  0  0  0  0  0  0  0  0  0  0  0
   58.7253   29.8100   49.8747 H   0  0  0  0  0  0  0  0  0  0  0  0
   59.9343   30.9452   49.1846 H   0  0  0  0  0  0  0  0  0  0  0  0
   58.1915   31.3802   49.1846 H   0  0  0  0  0  0  0  0  0  0  0  0
   56.7539   32.2631   45.7598 H   0  0  0  0  0  0  0  0  0  0  0  0
   56.9903   34.7231   45.4272 H   0  0  0  0  0  0  0  0  0  0  0  0
   59.1844   35.8358   45.8413 H   0  0  0  0  0  0  0  0  0  0  0  0
   61.1436   34.4953   46.6032 H   0  0  0  0  0  0  0  0  0  0  0  0
   61.4847   34.3001   48.2465 H   0  0  0  0  0  0  0  0  0  0  0  0
   61.0338   33.3237   49.6536 H   0  0  0  0  0  0  0  0  0  0  0  0
   63.6536   34.6602   49.0002 H   0  0  0  0  0  0  0  0  0  0  0  0
   63.0014   34.2642   50.5888 H   0  0  0  0  0  0  0  0  0  0  0  0
   63.8615   32.0836   50.5402 H   0  0  0  0  0  0  0  0  0  0  0  0
   65.7540   33.0940   48.6030 H   0  0  0  0  0  0  0  0  0  0  0  0
   65.7830   34.5065   50.5736 H   0  0  0  0  0  0  0  0  0  0  0  0
   65.8588   32.9694   51.5579 H   0  0  0  0  0  0  0  0  0  0  0  0
   68.0866   33.4391   51.5132 H   0  0  0  0  0  0  0  0  0  0  0  0
   67.9688   32.5422   49.9613 H   0  0  0  0  0  0  0  0  0  0  0  0
   67.9888   34.3384   49.9613 H   0  0  0  0  0  0  0  0  0  0  0  0
   64.0570   31.7844   47.5373 H   0  0  0  0  0  0  0  0  0  0  0  0
   63.3478   30.6586   48.6986 H   0  0  0  0  0  0  0  0  0  0  0  0
  1  2  2  0
  2  3  1  0
  3  4  2  3
  4  5  1  0
  5  6  1  0
  6  7  1  0
  7  8  2  0
  7  9  1  0
  9 10  1  0
 10 11  1  0
  3 12  1  0
 12 13  2  0
 13 14  1  0
 13 15  1  0
 15 16  1  0
 16 17  2  0
 17 18  1  0
 18 19  2  0
 19 20  1  0
 20 21  2  0
 21 22  1  0
 22 23  2  0
 22 24  1  0
 24 25  1  0
 25 26  1  0
 26 27  1  0
 27 28  1  0
 28 29  1  0
 29 30  1  0
 27 31  1  0
 15  2  1  0
 21 16  1  0
 31 24  1  0
 10  5  2  0
  1 32  1  0
  1 33  1  0
  4 34  1  0
 12 35  1  0
 14 36  1  0
 14 37  1  0
 14 38  1  0
 17 39  1  0
 18 40  1  0
 19 41  1  0
 20 42  1  0
 25 43  1  0
 25 44  1  0
 26 45  1  0
 26 46  1  0
 27 47  1  1
 28 48  1  0
 29 49  1  0
 29 50  1  0
 30 51  1  0
 30 52  1  0
 30 53  1  0
 31 54  1  0
 31 55  1  0
M  CHG  3   6  -1   9  -1  11  -1
M  END
>  <UniqueID>  (76) 
67

>  <SMILES>  (76) 
C=c1c(=Cc2[n-]c(=O)[n-]c2[O-])cc(C)n1-c1ccccc1C(=O)N1CC[C@H](NCC)C1

>  <Energy>  (76) 
145.71458514130015

>  <Genealogy>  (76) 
C=c1c(=Cc2[n-]c(=O)[n-]c2[O-])cc(C)n1-c1ccccc1C(=O)N1CCC(NCC)C1 (protonated)
C=c1c(=Cc2[n-]c(=O)[n-]c2[O-])cc(C)n1-c1ccccc1C(=O)N1CC[C@H](NCC)C1 (chirality)
C=c1c(=Cc2[n-]c(=O)[n-]c2[O-])cc(C)n1-c1ccccc1C(=O)N1CC[C@H](NCC)C1 (3D coordinates assigned)
C=c1c(=Cc2[n-]c(=O)[n-]c2[O-])cc(C)n1-c1ccccc1C(=O)N1CC[C@H](NCC)C1 (nonaromatic ring conformer: 145.71458514130015 kcal/mol)

>  <smiles>  (76) 
C=c1c(=Cc2[nH]c(=O)[nH]c2O)cc(C)n1-c1ccccc1C(=O)N1CCC(NCC)C1

>  <score_type>  (76) 
oracle

>  <origin>  (76) 
adg

>  <m_score__min__energy>  (76) 
-16.559999999999999

>  <m_primary>  (76) 
energy

$$$$
76:0
     RDKit          3D

 68 71  0  0  0  0  0  0  0  0999 V2000
   62.1405   33.4709   49.6130 H   0  0  0  0  0  0  0  0  0  0  0  0
   61.4170   33.5470   48.7880 C   0  0  0  0  0  0  0  0  0  0  0  0
   61.6560   32.8740   47.5850 C   0  0  0  0  0  0  0  0  0  0  0  0
   62.5685   32.2717   47.4645 H   0  0  0  0  0  0  0  0  0  0  0  0
   60.7360   32.9660   46.5350 C   0  0  0  0  0  0  0  0  0  0  0  0
   60.9297   32.4406   45.5882 H   0  0  0  0  0  0  0  0  0  0  0  0
   59.5650   33.7280   46.6870 C   0  0  0  0  0  0  0  0  0  0  0  0
   58.5920   33.8610   45.5450 C   0  0  0  0  0  0  0  0  0  0  0  0
   59.0142   33.3796   44.6506 H   0  0  0  0  0  0  0  0  0  0  0  0
   58.4135   34.9287   45.3495 H   0  0  0  0  0  0  0  0  0  0  0  0
   57.2930   33.2060   45.8910 C   0  0  0  0  0  0  0  0  0  0  0  0
   56.7390   33.4700   46.9930 O   0  0  0  0  0  0  0  0  0  0  0  0
   56.7080   32.2730   44.9660 N   0  0  0  0  0  0  0  0  0  0  0  0
   57.0320   31.0210   44.8120 C   0  0  0  0  0  0  0  0  0  0  0  0
   56.1160   30.0240   44.9640 N   0  0  0  0  0  0  0  0  0  0  0  0
   56.4440   28.7400   44.8040 N   0  0  0  0  0  0  0  0  0  0  0  0
   57.7090   28.3650   44.4730 C   0  0  0  0  0  0  0  0  0  0  0  0
   58.0460   26.9060   44.3410 C   0  0  0  0  0  0  0  0  0  0  0  0
   58.9826   26.8075   43.7725 H   0  0  0  0  0  0  0  0  0  0  0  0
   57.2127   26.4096   43.8222 H   0  0  0  0  0  0  0  0  0  0  0  0
   58.2230   26.2320   45.7100 C   0  0  0  0  0  0  0  0  0  0  0  0
   59.2048   25.7367   45.7355 H   0  0  0  0  0  0  0  0  0  0  0  0
   57.4033   25.5094   45.8363 H   0  0  0  0  0  0  0  0  0  0  0  0
   58.1460   27.2370   46.8740 C   0  0  0  0  0  0  0  0  0  0  0  0
   57.7686   26.7171   47.7669 H   0  0  0  0  0  0  0  0  0  0  0  0
   57.4729   28.0531   46.5725 H   0  0  0  0  0  0  0  0  0  0  0  0
   59.5150   27.8500   47.2000 C   0  0  0  0  0  0  0  0  0  0  0  0
   60.0098   28.1346   46.2597 H   0  0  0  0  0  0  0  0  0  0  0  0
   60.1027   27.0979   47.7468 H   0  0  0  0  0  0  0  0  0  0  0  0
   59.3930   29.0650   48.0700 C   0  0  0  0  0  0  0  0  0  0  0  0
   58.5810   30.1090   47.7940 N   0  0  0  0  0  0  0  0  0  0  0  0
   58.6130   31.0650   48.7210 N   0  0  0  0  0  0  0  0  0  0  0  0
   59.4510   30.7910   49.7440 C   0  0  0  0  0  0  0  0  0  0  0  0
   59.5690   31.5910   50.7640 N   0  0  0  0  0  0  0  0  0  0  0  0
   58.5470   32.1640   51.5970 C   0  0  0  0  0  0  0  0  0  0  0  0
   58.9060   32.8020   52.6210 O   0  0  0  0  0  0  0  0  0  0  0  0
   57.0700   31.9660   51.3670 C   0  0  0  0  0  0  0  0  0  0  0  0
   56.5166   32.7037   51.9666 H   0  0  0  0  0  0  0  0  0  0  0  0
   56.8764   32.0957   50.2920 H   0  0  0  0  0  0  0  0  0  0  0  0
   56.6110   30.5830   51.7550 C   0  0  0  0  0  0  0  0  0  0  0  0
   57.4700   29.6710   51.8850 O   0  0  0  0  0  0  0  0  0  0  0  0
   55.2310   30.2590   51.9820 N   0  0  0  0  0  0  0  0  0  0  0  0
   54.1310   31.2110   52.1010 C   0  0  0  0  0  0  0  0  0  0  0  0
   54.2299   31.7605   53.0487 H   0  0  0  0  0  0  0  0  0  0  0  0
   54.1720   31.9071   51.2503 H   0  0  0  0  0  0  0  0  0  0  0  0
   52.7820   30.4850   52.0790 C   0  0  0  0  0  0  0  0  0  0  0  0
   52.9410   29.4178   52.2931 H   0  0  0  0  0  0  0  0  0  0  0  0
   52.1248   30.9291   52.8411 H   0  0  0  0  0  0  0  0  0  0  0  0
   52.1310   30.6290   50.7270 C   0  0  0  0  0  0  0  0  0  0  0  0
   52.2810   29.6180   49.7620 C   0  0  0  0  0  0  0  0  0  0  0  0
   52.9022   28.7377   49.9836 H   0  0  0  0  0  0  0  0  0  0  0  0
   51.6440   29.7260   48.5210 C   0  0  0  0  0  0  0  0  0  0  0  0
   51.7708   28.9350   47.7672 H   0  0  0  0  0  0  0  0  0  0  0  0
   50.8470   30.8380   48.2390 C   0  0  0  0  0  0  0  0  0  0  0  0
   50.3490   30.9229   47.2619 H   0  0  0  0  0  0  0  0  0  0  0  0
   50.6810   31.8440   49.1970 C   0  0  0  0  0  0  0  0  0  0  0  0
   50.0521   32.7180   48.9722 H   0  0  0  0  0  0  0  0  0  0  0  0
   51.3140   31.7400   50.4410 C   0  0  0  0  0  0  0  0  0  0  0  0
   51.1260   32.7160   51.3630 F   0  0  0  0  0  0  0  0  0  0  0  0
   60.1880   29.2850   49.5370 S   0  0  0  0  0  0  0  0  0  0  0  0
   58.6910   29.3500   44.3120 C   0  0  0  0  0  0  0  0  0  0  0  0
   59.7233   29.0691   44.0563 H   0  0  0  0  0  0  0  0  0  0  0  0
   58.3470   30.6890   44.4790 C   0  0  0  0  0  0  0  0  0  0  0  0
   59.1034   31.4772   44.3499 H   0  0  0  0  0  0  0  0  0  0  0  0
   59.3370   34.4120   47.8950 C   0  0  0  0  0  0  0  0  0  0  0  0
   58.4310   35.0239   48.0163 H   0  0  0  0  0  0  0  0  0  0  0  0
   60.2600   34.3160   48.9430 C   0  0  0  0  0  0  0  0  0  0  0  0
   60.0748   34.8459   49.8890 H   0  0  0  0  0  0  0  0  0  0  0  0
  1  2  1  0
  2  3  2  0
  3  4  1  0
  3  5  1  0
  5  6  1  0
  5  7  2  0
  7  8  1  0
  8  9  1  0
  8 10  1  0
  8 11  1  0
 11 12  2  0
 11 13  1  0
 13 14  2  0
 14 15  1  0
 15 16  1  0
 16 17  2  0
 17 18  1  0
 18 19  1  0
 18 20  1  0
 18 21  1  0
 21 22  1  0
 21 23  1  0
 21 24  1  0
 24 25  1  0
 24 26  1  0
 24 27  1  0
 27 28  1  0
 27 29  1  0
 27 30  1  0
 30 31  2  0
 31 32  1  0
 32 33  1  0
 33 34  2  3
 34 35  1  0
 35 36  2  0
 35 37  1  0
 37 38  1  0
 37 39  1  0
 37 40  1  0
 40 41  2  0
 40 42  1  0
 42 43  1  0
 43 44  1  0
 43 45  1  0
 43 46  1  0
 46 47  1  0
 46 48  1  0
 46 49  1  0
 49 50  2  0
 50 51  1  0
 50 52  1  0
 52 53  1  0
 52 54  2  0
 54 55  1  0
 54 56  1  0
 56 57  1  0
 56 58  2  0
 58 59  1  0
 33 60  1  0
 17 61  1  0
 61 62  1  0
 61 63  2  0
 63 64  1  0
  7 65  1  0
 65 66  1  0
 65 67  2  0
 67 68  1  0
 67  2  1  0
 63 14  1  0
 60 30  1  0
 58 49  1  0
M  CHG  3  15  -1  32  -1  42  -1
M  END
>  <UniqueID>  (77) 
68

>  <SMILES>  (77) 
O=C(CC(=O)[N-]CCc1ccccc1F)N=c1[n-]nc(CCCCc2cc/c(=N/C(=O)Cc3ccccc3)[n-]n2)s1

>  <Energy>  (77) 
103.88029425672829

>  <Genealogy>  (77) 
O=C(Cc1ccccc1)N=c1ccc(CCCCc2n[n-]c(=NC(=O)CC(=O)[N-]CCc3ccccc3F)s2)n[n-]1 (protonated)
O=C(CC(=O)[N-]CCc1ccccc1F)N=c1[n-]nc(CCCCc2cc/c(=N/C(=O)Cc3ccccc3)[n-]n2)s1 (cis-trans isomerization)
O=C(CC(=O)[N-]CCc1ccccc1F)N=c1[n-]nc(CCCCc2cc/c(=N/C(=O)Cc3ccccc3)[n-]n2)s1 (3D coordinates assigned)
O=C(CC(=O)[N-]CCc1ccccc1F)N=c1[n-]nc(CCCCc2cc/c(=N/C(=O)Cc3ccccc3)[n-]n2)s1 (optimized conformer: 103.88029425672829 kcal/mol)

>  <smiles>  (77) 
O=C(Cc1ccccc1)N=c1ccc(CCCCc2n[nH]c(=NC(=O)CC(=O)NCCc3ccccc3F)s2)n[nH]1

>  <score_type>  (77) 
oracle

>  <origin>  (77) 
adg

>  <m_score__min__energy>  (77) 
-14.890000000000001

>  <m_primary>  (77) 
energy

$$$$
77:0
     RDKit          3D

 53 56  0  0  0  0  0  0  0  0999 V2000
   56.5497   32.1025   44.3633 H   0  0  0  0  0  0  0  0  0  0  0  0
   57.0150   31.2770   44.9220 C   0  0  0  0  0  0  0  0  0  0  0  0
   56.5250   30.0150   44.7980 N   0  0  0  0  0  0  0  0  0  0  0  0
   57.0520   28.9580   45.4730 C   0  0  0  0  0  0  0  0  0  0  0  0
   56.5230   27.7800   45.2890 N   0  0  0  0  0  0  0  0  0  0  0  0
   57.2080   26.5210   45.2130 C   0  0  0  0  0  0  0  0  0  0  0  0
   58.4450   26.5240   44.9790 O   0  0  0  0  0  0  0  0  0  0  0  0
   56.4790   25.2280   45.2990 C   0  0  0  0  0  0  0  0  0  0  0  0
   57.1490   24.0240   45.0110 C   0  0  0  0  0  0  0  0  0  0  0  0
   58.2097   24.0465   44.7204 H   0  0  0  0  0  0  0  0  0  0  0  0
   56.4790   22.8010   45.0910 C   0  0  0  0  0  0  0  0  0  0  0  0
   57.0114   21.8667   44.8592 H   0  0  0  0  0  0  0  0  0  0  0  0
   55.1340   22.7630   45.4650 C   0  0  0  0  0  0  0  0  0  0  0  0
   54.6080   21.7990   45.5287 H   0  0  0  0  0  0  0  0  0  0  0  0
   54.4570   23.9480   45.7580 C   0  0  0  0  0  0  0  0  0  0  0  0
   53.3984   23.9144   46.0549 H   0  0  0  0  0  0  0  0  0  0  0  0
   55.1180   25.1780   45.6760 C   0  0  0  0  0  0  0  0  0  0  0  0
   54.4110   26.3420   45.9560 O   0  0  0  0  0  0  0  0  0  0  0  0
   58.1610   29.1700   46.3160 C   0  0  0  0  0  0  0  0  0  0  0  0
   58.6160   28.3265   46.8558 H   0  0  0  0  0  0  0  0  0  0  0  0
   58.6780   30.4590   46.4610 C   0  0  0  0  0  0  0  0  0  0  0  0
   59.5341   30.6336   47.1292 H   0  0  0  0  0  0  0  0  0  0  0  0
   58.1110   31.5310   45.7590 C   0  0  0  0  0  0  0  0  0  0  0  0
   58.6470   32.9060   45.9040 C   0  0  0  0  0  0  0  0  0  0  0  0
   58.8030   33.7060   44.7590 C   0  0  0  0  0  0  0  0  0  0  0  0
   58.5298   33.3043   43.7721 H   0  0  0  0  0  0  0  0  0  0  0  0
   59.3020   35.0070   44.8630 C   0  0  0  0  0  0  0  0  0  0  0  0
   59.4099   35.6285   43.9619 H   0  0  0  0  0  0  0  0  0  0  0  0
   59.6630   35.5170   46.1090 C   0  0  0  0  0  0  0  0  0  0  0  0
   60.0584   36.5403   46.1892 H   0  0  0  0  0  0  0  0  0  0  0  0
   59.5240   34.7320   47.2560 C   0  0  0  0  0  0  0  0  0  0  0  0
   59.8257   35.1357   48.2337 H   0  0  0  0  0  0  0  0  0  0  0  0
   59.0010   33.4290   47.1700 C   0  0  0  0  0  0  0  0  0  0  0  0
   58.9190   32.5860   48.3310 N   0  0  0  0  0  0  0  0  0  0  0  0
   59.6630   32.7330   49.5470 C   0  0  0  0  0  0  0  0  0  0  0  0
   59.1730   32.3730   50.6500 O   0  0  0  0  0  0  0  0  0  0  0  0
   61.0740   33.2320   49.4900 C   0  0  0  0  0  0  0  0  0  0  0  0
   61.1189   34.1150   48.8355 H   0  0  0  0  0  0  0  0  0  0  0  0
   61.3981   33.4954   50.5076 H   0  0  0  0  0  0  0  0  0  0  0  0
   61.9760   32.1860   48.9580 N   0  0  0  0  0  0  0  0  0  0  0  0
   62.0050   32.1590   47.4810 C   0  0  0  0  0  0  0  0  0  0  0  0
   62.4840   31.2246   47.1531 H   0  0  0  0  0  0  0  0  0  0  0  0
   60.9675   32.2245   47.1215 H   0  0  0  0  0  0  0  0  0  0  0  0
   62.7890   33.3550   46.8900 C   0  0  0  0  0  0  0  0  0  0  0  0
   63.4692   32.9780   46.1120 H   0  0  0  0  0  0  0  0  0  0  0  0
   62.0515   34.0627   46.4835 H   0  0  0  0  0  0  0  0  0  0  0  0
   63.5530   34.0500   47.8590 O   0  0  0  0  0  0  0  0  0  0  0  0
   64.2880   33.1320   48.6370 C   0  0  0  0  0  0  0  0  0  0  0  0
   64.8563   32.4672   47.9698 H   0  0  0  0  0  0  0  0  0  0  0  0
   64.9720   33.6919   49.2917 H   0  0  0  0  0  0  0  0  0  0  0  0
   63.3460   32.2830   49.5150 C   0  0  0  0  0  0  0  0  0  0  0  0
   63.7636   31.2689   49.6003 H   0  0  0  0  0  0  0  0  0  0  0  0
   63.2714   32.7766   50.4952 H   0  0  0  0  0  0  0  0  0  0  0  0
  1  2  1  0
  2  3  1  0
  3  4  1  0
  4  5  2  0
  5  6  1  0
  6  7  2  0
  6  8  1  0
  8  9  2  0
  9 10  1  0
  9 11  1  0
 11 12  1  0
 11 13  2  0
 13 14  1  0
 13 15  1  0
 15 16  1  0
 15 17  2  0
 17 18  1  0
  4 19  1  0
 19 20  1  0
 19 21  2  0
 21 22  1  0
 21 23  1  0
 23 24  1  0
 24 25  2  0
 25 26  1  0
 25 27  1  0
 27 28  1  0
 27 29  2  0
 29 30  1  0
 29 31  1  0
 31 32  1  0
 31 33  2  0
 33 34  1  0
 34 35  1  0
 35 36  2  0
 35 37  1  0
 37 38  1  0
 37 39  1  0
 37 40  1  0
 40 41  1  0
 41 42  1  0
 41 43  1  0
 41 44  1  0
 44 45  1  0
 44 46  1  0
 44 47  1  0
 47 48  1  0
 48 49  1  0
 48 50  1  0
 48 51  1  0
 51 52  1  0
 51 53  1  0
 23  2  2  0
 33 24  1  0
 51 40  1  0
 17  8  1  0
M  CHG  3   3  -1  18  -1  34  -1
M  END
>  <UniqueID>  (78) 
69

>  <SMILES>  (78) 
O=C(CN1CCOCC1)[N-]c1ccccc1-c1cc/c(=N\C(=O)c2ccccc2[O-])[n-]c1

>  <Energy>  (78) 
90.81283675720094

>  <Genealogy>  (78) 
O=C(CN1CCOCC1)[N-]c1ccccc1-c1ccc(=NC(=O)c2ccccc2[O-])[n-]c1 (protonated)
O=C(CN1CCOCC1)[N-]c1ccccc1-c1cc/c(=N\C(=O)c2ccccc2[O-])[n-]c1 (cis-trans isomerization)
O=C(CN1CCOCC1)[N-]c1ccccc1-c1cc/c(=N\C(=O)c2ccccc2[O-])[n-]c1 (3D coordinates assigned)
O=C(CN1CCOCC1)[N-]c1ccccc1-c1cc/c(=N\C(=O)c2ccccc2[O-])[n-]c1 (nonaromatic ring conformer: 90.81283675720094 kcal/mol)

>  <smiles>  (78) 
O=C(CN1CCOCC1)Nc1ccccc1-c1ccc(=NC(=O)c2ccccc2O)[nH]c1

>  <score_type>  (78) 
oracle

>  <origin>  (78) 
adg

>  <m_score__min__energy>  (78) 
-15.390000000000001

>  <m_primary>  (78) 
energy

$$$$
78:0
     RDKit          3D

 41 42  0  0  0  0  0  0  0  0999 V2000
   61.5690   33.8350   46.7140 C   0  0  0  0  0  0  0  0  0  0  0  0
   60.1890   33.7230   47.3960 C   0  0  0  0  0  0  0  0  0  0  0  0
   59.7770   32.2380   47.4800 C   0  0  0  0  0  0  0  0  0  0  0  0
   60.3010   34.2860   48.8280 C   0  0  0  0  0  0  0  0  0  0  0  0
   59.1210   34.5530   46.6260 C   0  0  0  0  0  0  0  0  0  0  0  0
   58.3210   33.7470   45.6420 C   0  0  0  0  0  0  0  0  0  0  0  0
   57.1010   33.1580   45.8790 C   0  0  0  0  0  0  0  0  0  0  0  0
   56.7490   32.4350   44.8020 N   0  0  0  0  0  0  0  0  0  0  0  0
   57.7690   32.6220   43.9370 C   0  0  0  0  0  0  0  0  0  0  0  0
   57.8690   31.8980   42.6280 C   0  0  0  0  0  0  0  0  0  0  0  0
   56.7010   30.9220   42.4350 C   0  0  0  0  0  0  0  0  0  0  0  0
   56.6430   29.9050   43.5330 C   0  0  0  0  0  0  0  0  0  0  0  0
   57.6140   29.0030   43.7730 N   0  0  0  0  0  0  0  0  0  0  0  0
   57.1200   28.3660   44.8540 C   0  0  0  0  0  0  0  0  0  0  0  0
   57.8270   27.2470   45.5470 C   0  0  0  0  0  0  0  0  0  0  0  0
   56.7340   25.8530   45.7510 S   0  0  0  0  0  0  0  0  0  0  0  0
   55.1100   26.4070   45.9550 N   0  0  0  0  0  0  0  0  0  0  0  0
   56.8100   24.9650   44.5420 O   0  0  0  0  0  0  0  0  0  0  0  0
   57.1490   25.0710   46.9660 O   0  0  0  0  0  0  0  0  0  0  0  0
   55.9250   28.8510   45.2420 N   0  0  0  0  0  0  0  0  0  0  0  0
   55.6660   29.8060   44.4010 O   0  0  0  0  0  0  0  0  0  0  0  0
   58.7550   33.4100   44.4150 N   0  0  0  0  0  0  0  0  0  0  0  0
   62.3536   33.8987   47.4823 H   0  0  0  0  0  0  0  0  0  0  0  0
   61.7411   32.9479   46.0868 H   0  0  0  0  0  0  0  0  0  0  0  0
   61.5958   34.7383   46.0868 H   0  0  0  0  0  0  0  0  0  0  0  0
   59.6942   31.9396   48.5355 H   0  0  0  0  0  0  0  0  0  0  0  0
   58.8061   32.0981   46.9822 H   0  0  0  0  0  0  0  0  0  0  0  0
   60.5370   31.6179   46.9822 H   0  0  0  0  0  0  0  0  0  0  0  0
   60.1398   33.4757   49.5542 H   0  0  0  0  0  0  0  0  0  0  0  0
   61.3024   34.7166   48.9754 H   0  0  0  0  0  0  0  0  0  0  0  0
   59.5406   35.0671   48.9754 H   0  0  0  0  0  0  0  0  0  0  0  0
   58.4284   34.9923   47.3590 H   0  0  0  0  0  0  0  0  0  0  0  0
   59.6632   35.3167   46.0492 H   0  0  0  0  0  0  0  0  0  0  0  0
   56.5093   33.2618   46.8005 H   0  0  0  0  0  0  0  0  0  0  0  0
   57.8586   32.6341   41.8106 H   0  0  0  0  0  0  0  0  0  0  0  0
   58.8055   31.3210   42.6232 H   0  0  0  0  0  0  0  0  0  0  0  0
   55.7592   31.4903   42.4251 H   0  0  0  0  0  0  0  0  0  0  0  0
   56.8506   30.3914   41.4831 H   0  0  0  0  0  0  0  0  0  0  0  0
   58.6967   26.9409   44.9470 H   0  0  0  0  0  0  0  0  0  0  0  0
   58.1546   27.5918   46.5389 H   0  0  0  0  0  0  0  0  0  0  0  0
   55.1500   27.4490   46.0280 H   0  0  0  0  0  0  0  0  0  0  0  0
  1  2  1  0
  2  3  1  0
  2  4  1  0
  2  5  1  0
  5  6  1  0
  6  7  2  0
  7  8  1  0
  8  9  1  0
  9 10  1  0
 10 11  1  0
 11 12  1  0
 12 13  2  0
 13 14  1  0
 14 15  1  0
 15 16  1  0
 16 17  1  0
 16 18  2  0
 16 19  2  0
 14 20  2  0
 20 21  1  0
  9 22  2  0
 22  6  1  0
 21 12  1  0
  1 23  1  0
  1 24  1  0
  1 25  1  0
  3 26  1  0
  3 27  1  0
  3 28  1  0
  4 29  1  0
  4 30  1  0
  4 31  1  0
  5 32  1  0
  5 33  1  0
  7 34  1  0
 10 35  1  0
 10 36  1  0
 11 37  1  0
 11 38  1  0
 15 39  1  0
 15 40  1  0
 17 41  1  0
M  CHG  2   8  -1  17  -1
M  END
>  <UniqueID>  (79) 
70

>  <SMILES>  (79) 
CC(C)(C)Cc1c[n-]c(CCc2nc(CS([NH-])(=O)=O)no2)n1

>  <Energy>  (79) 
81.59350738995157

>  <Genealogy>  (79) 
CC(C)(C)Cc1c[n-]c(CCc2nc(CS([NH-])(=O)=O)no2)n1 (protonated)
CC(C)(C)Cc1c[n-]c(CCc2nc(CS([NH-])(=O)=O)no2)n1 (3D coordinates assigned)
CC(C)(C)Cc1c[n-]c(CCc2nc(CS([NH-])(=O)=O)no2)n1 (optimized conformer: 81.59350738995157 kcal/mol)

>  <smiles>  (79) 
CC(C)(C)Cc1c[nH]c(CCc2nc(CS(N)(=O)=O)no2)n1

>  <score_type>  (79) 
oracle

>  <origin>  (79) 
adg

>  <m_score__min__energy>  (79) 
-12.210000000000001

>  <m_primary>  (79) 
energy

$$$$
79:0
     RDKit          3D

 50 53  0  0  0  0  0  0  0  0999 V2000
   57.7950   31.6420   43.1390 C   0  0  0  0  0  0  0  0  0  0  0  0
   57.7900   31.8680   44.6190 C   0  0  0  0  0  0  0  0  0  0  0  0
   57.0640   31.1380   45.3460 O   0  0  0  0  0  0  0  0  0  0  0  0
   58.5530   32.9860   45.2220 C   0  0  0  0  0  0  0  0  0  0  0  0
   58.6290   34.2030   44.5210 C   0  0  0  0  0  0  0  0  0  0  0  0
   59.2820   35.3050   45.0740 C   0  0  0  0  0  0  0  0  0  0  0  0
   59.8660   35.2100   46.3350 C   0  0  0  0  0  0  0  0  0  0  0  0
   59.8160   34.0070   47.0400 C   0  0  0  0  0  0  0  0  0  0  0  0
   59.1890   32.8740   46.4870 C   0  0  0  0  0  0  0  0  0  0  0  0
   59.2290   31.5780   47.2700 C   0  0  0  0  0  0  0  0  0  0  0  0
   59.8830   31.7590   48.5270 O   0  0  0  0  0  0  0  0  0  0  0  0
   59.2500   31.7220   49.7820 C   0  0  0  0  0  0  0  0  0  0  0  0
   58.3540   30.6960   50.1400 C   0  0  0  0  0  0  0  0  0  0  0  0
   57.7510   30.6910   51.4000 C   0  0  0  0  0  0  0  0  0  0  0  0
   56.9080   29.7140   51.7290 O   0  0  0  0  0  0  0  0  0  0  0  0
   56.3060   29.6570   52.9130 C   0  0  0  0  0  0  0  0  0  0  0  0
   55.5180   28.7080   53.1670 O   0  0  0  0  0  0  0  0  0  0  0  0
   56.5420   30.6450   53.8750 C   0  0  0  0  0  0  0  0  0  0  0  0
   57.4170   31.6870   53.5720 C   0  0  0  0  0  0  0  0  0  0  0  0
   58.0370   31.7200   52.3190 C   0  0  0  0  0  0  0  0  0  0  0  0
   58.9250   32.7460   51.9670 C   0  0  0  0  0  0  0  0  0  0  0  0
   59.5350   32.7480   50.6980 C   0  0  0  0  0  0  0  0  0  0  0  0
   60.4360   33.7520   50.3070 O   0  0  0  0  0  0  0  0  0  0  0  0
   61.8490   33.6840   50.4740 C   0  0  0  0  0  0  0  0  0  0  0  0
   62.4760   33.2600   49.1790 C   0  0  0  0  0  0  0  0  0  0  0  0
   62.7740   31.9070   48.9450 C   0  0  0  0  0  0  0  0  0  0  0  0
   63.3960   31.5190   47.7550 C   0  0  0  0  0  0  0  0  0  0  0  0
   63.7360   32.4790   46.7960 C   0  0  0  0  0  0  0  0  0  0  0  0
   63.4580   33.8280   47.0300 C   0  0  0  0  0  0  0  0  0  0  0  0
   62.8360   34.2210   48.2200 C   0  0  0  0  0  0  0  0  0  0  0  0
   57.8189   30.5617   42.9331 H   0  0  0  0  0  0  0  0  0  0  0  0
   56.8870   32.0793   42.6982 H   0  0  0  0  0  0  0  0  0  0  0  0
   58.6828   32.1190   42.6982 H   0  0  0  0  0  0  0  0  0  0  0  0
   58.1684   34.2869   43.5256 H   0  0  0  0  0  0  0  0  0  0  0  0
   59.3357   36.2500   44.5135 H   0  0  0  0  0  0  0  0  0  0  0  0
   60.3672   36.0845   46.7755 H   0  0  0  0  0  0  0  0  0  0  0  0
   60.2716   33.9430   48.0392 H   0  0  0  0  0  0  0  0  0  0  0  0
   58.1997   31.2325   47.4466 H   0  0  0  0  0  0  0  0  0  0  0  0
   59.7908   30.8335   46.6868 H   0  0  0  0  0  0  0  0  0  0  0  0
   58.1276   29.8934   49.4227 H   0  0  0  0  0  0  0  0  0  0  0  0
   56.0448   30.6003   54.8552 H   0  0  0  0  0  0  0  0  0  0  0  0
   57.6179   32.4760   54.3117 H   0  0  0  0  0  0  0  0  0  0  0  0
   59.1456   33.5510   52.6835 H   0  0  0  0  0  0  0  0  0  0  0  0
   62.2338   34.6731   50.7632 H   0  0  0  0  0  0  0  0  0  0  0  0
   62.0947   32.9557   51.2609 H   0  0  0  0  0  0  0  0  0  0  0  0
   62.5169   31.1505   49.7010 H   0  0  0  0  0  0  0  0  0  0  0  0
   63.6185   30.4573   47.5723 H   0  0  0  0  0  0  0  0  0  0  0  0
   64.2220   32.1719   45.8582 H   0  0  0  0  0  0  0  0  0  0  0  0
   63.7287   34.5828   46.2770 H   0  0  0  0  0  0  0  0  0  0  0  0
   62.6284   35.2853   48.4050 H   0  0  0  0  0  0  0  0  0  0  0  0
  1  2  1  0
  2  3  2  0
  2  4  1  0
  4  5  2  0
  5  6  1  0
  6  7  2  0
  7  8  1  0
  8  9  2  0
  9 10  1  0
 10 11  1  0
 11 12  1  0
 12 13  2  0
 13 14  1  0
 14 15  1  0
 15 16  1  0
 16 17  2  0
 16 18  1  0
 18 19  2  0
 19 20  1  0
 20 21  1  0
 21 22  2  0
 22 23  1  0
 23 24  1  0
 24 25  1  0
 25 26  2  0
 26 27  1  0
 27 28  2  0
 28 29  1  0
 29 30  2  0
  9  4  1  0
 22 12  1  0
 30 25  1  0
 20 14  2  0
  1 31  1  0
  1 32  1  0
  1 33  1  0
  5 34  1  0
  6 35  1  0
  7 36  1  0
  8 37  1  0
 10 38  1  0
 10 39  1  0
 13 40  1  0
 18 41  1  0
 19 42  1  0
 21 43  1  0
 24 44  1  0
 24 45  1  0
 26 46  1  0
 27 47  1  0
 28 48  1  0
 29 49  1  0
 30 50  1  0
M  END
>  <UniqueID>  (80) 
71

>  <SMILES>  (80) 
CC(=O)c1ccccc1COc1cc2oc(=O)ccc2cc1OCc1ccccc1

>  <Energy>  (80) 
62.78889915015096

>  <Genealogy>  (80) 
CC(=O)c1ccccc1COc1cc2oc(=O)ccc2cc1OCc1ccccc1 (3D coordinates assigned)
CC(=O)c1ccccc1COc1cc2oc(=O)ccc2cc1OCc1ccccc1 (optimized conformer: 62.78889915015096 kcal/mol)

>  <smiles>  (80) 
CC(=O)c1ccccc1COc1cc2oc(=O)ccc2cc1OCc1ccccc1

>  <score_type>  (80) 
oracle

>  <origin>  (80) 
adg

>  <m_score__min__energy>  (80) 
-8.8900000000000006

>  <m_primary>  (80) 
energy

$$$$
80:0
     RDKit          3D

 63 67  0  0  1  0  0  0  0  0999 V2000
   57.0350   34.0140   44.8650 C   0  0  0  0  0  0  0  0  0  0  0  0
   58.3470   33.7740   45.5300 C   0  0  0  0  0  0  0  0  0  0  0  0
   59.1550   34.8230   45.9270 C   0  0  0  0  0  0  0  0  0  0  0  0
   60.3820   34.5840   46.5500 C   0  0  0  0  0  0  0  0  0  0  0  0
   60.7990   33.2910   46.7750 C   0  0  0  0  0  0  0  0  0  0  0  0
   62.0870   33.0880   47.4290 C   0  0  0  0  0  0  0  0  0  0  0  0
   63.1190   33.3810   46.7610 O   0  0  0  0  0  0  0  0  0  0  0  0
   62.1980   32.5860   48.7540 N   0  0  0  0  0  0  0  0  0  0  0  0
   63.4480   32.3810   49.4060 C   0  0  0  0  0  0  0  0  0  0  0  0
   64.5380   33.2060   49.2100 C   0  0  0  0  0  0  0  0  0  0  0  0
   65.7000   32.9060   49.9000 C   0  0  0  0  0  0  0  0  0  0  0  0
   65.7720   31.8220   50.7580 C   0  0  0  0  0  0  0  0  0  0  0  0
   64.6750   31.0130   50.9410 C   0  0  0  0  0  0  0  0  0  0  0  0
   64.6890   29.8370   51.8440 C   0  0  0  0  0  0  0  0  0  0  0  0
   63.6220   28.9960   51.6160 F   0  0  0  0  0  0  0  0  0  0  0  0
   65.9010   29.1820   51.6230 F   0  0  0  0  0  0  0  0  0  0  0  0
   64.7070   30.2160   53.1780 F   0  0  0  0  0  0  0  0  0  0  0  0
   63.5150   31.2910   50.2670 C   0  0  0  0  0  0  0  0  0  0  0  0
   59.9790   32.2760   46.3720 C   0  0  0  0  0  0  0  0  0  0  0  0
   58.7570   32.4780   45.7520 C   0  0  0  0  0  0  0  0  0  0  0  0
   57.9580   31.3460   45.3600 N   0  0  0  0  0  0  0  0  0  0  0  0
   58.4740   30.1580   45.4120 C   0  0  0  0  0  0  0  0  0  0  0  0
   58.6580   29.4100   44.3060 N   0  0  0  0  0  0  0  0  0  0  0  0
   59.1910   28.1760   44.3350 C   0  0  0  0  0  0  0  0  0  0  0  0
   59.5640   27.6450   45.5190 N   0  0  0  0  0  0  0  0  0  0  0  0
   59.3980   28.3630   46.6570 C   0  0  0  0  0  0  0  0  0  0  0  0
   59.7880   27.7880   47.8290 C   0  0  0  0  0  0  0  0  0  0  0  0
   59.6310   28.4820   48.9670 N   0  0  0  0  0  0  0  0  0  0  0  0
   59.0930   29.7320   48.9480 C   0  0  0  0  0  0  0  0  0  0  0  0
   58.9370   30.4440   50.1670 N   0  0  0  0  0  0  0  0  0  0  0  0
   59.5160   30.0040   51.4250 C   0  0  0  0  0  0  0  0  0  0  0  0
   60.4950   31.0530   51.8590 C   0  0  0  0  0  0  0  0  0  0  0  0
   60.3310   32.3040   51.1740 N   0  0  0  0  0  0  0  0  0  0  0  0
   60.9340   33.3430   51.9910 C   0  0  0  0  0  0  0  0  0  0  0  0
   58.9460   32.7000   50.9930 C   0  0  0  0  0  0  0  0  0  0  0  0
   58.1680   31.6740   50.2010 C   0  0  0  0  0  0  0  0  0  0  0  0
   58.7080   30.2960   47.7890 N   0  0  0  0  0  0  0  0  0  0  0  0
   58.8480   29.6350   46.6310 C   0  0  0  0  0  0  0  0  0  0  0  0
   56.2570   34.1563   45.6295 H   0  0  0  0  0  0  0  0  0  0  0  0
   57.1014   34.9149   44.2373 H   0  0  0  0  0  0  0  0  0  0  0  0
   56.7782   33.1479   44.2373 H   0  0  0  0  0  0  0  0  0  0  0  0
   58.8278   35.8582   45.7502 H   0  0  0  0  0  0  0  0  0  0  0  0
   61.0150   35.4282   46.8608 H   0  0  0  0  0  0  0  0  0  0  0  0
   61.3470   32.3440   49.3050 H   0  0  0  0  0  0  0  0  0  0  0  0
   64.4848   34.0696   48.5307 H   0  0  0  0  0  0  0  0  0  0  0  0
   66.5861   33.5433   49.7634 H   0  0  0  0  0  0  0  0  0  0  0  0
   66.7081   31.6074   51.2943 H   0  0  0  0  0  0  0  0  0  0  0  0
   62.6328   30.6492   50.4075 H   0  0  0  0  0  0  0  0  0  0  0  0
   60.3070   31.2412   46.5495 H   0  0  0  0  0  0  0  0  0  0  0  0
   58.3820   29.7830   43.3560 H   0  0  0  0  0  0  0  0  0  0  0  0
   59.3218   27.6050   43.4039 H   0  0  0  0  0  0  0  0  0  0  0  0
   60.2220   26.7773   47.8422 H   0  0  0  0  0  0  0  0  0  0  0  0
   58.7267   29.8898   52.1826 H   0  0  0  0  0  0  0  0  0  0  0  0
   60.0166   29.0321   51.3033 H   0  0  0  0  0  0  0  0  0  0  0  0
   60.3651   31.2263   52.9375 H   0  0  0  0  0  0  0  0  0  0  0  0
   61.5006   30.6791   51.6162 H   0  0  0  0  0  0  0  0  0  0  0  0
   60.7934   33.1008   53.0548 H   0  0  0  0  0  0  0  0  0  0  0  0
   62.0094   33.4066   51.7684 H   0  0  0  0  0  0  0  0  0  0  0  0
   60.4558   34.3083   51.7684 H   0  0  0  0  0  0  0  0  0  0  0  0
   58.4772   32.8175   51.9811 H   0  0  0  0  0  0  0  0  0  0  0  0
   58.9313   33.6470   50.4335 H   0  0  0  0  0  0  0  0  0  0  0  0
   57.1960   31.4915   50.6827 H   0  0  0  0  0  0  0  0  0  0  0  0
   57.9925   32.0390   49.1783 H   0  0  0  0  0  0  0  0  0  0  0  0
  1  2  1  0
  2  3  2  0
  3  4  1  0
  4  5  2  0
  5  6  1  0
  6  7  2  0
  6  8  1  0
  8  9  1  0
  9 10  2  0
 10 11  1  0
 11 12  2  0
 12 13  1  0
 13 14  1  0
 14 15  1  0
 14 16  1  0
 14 17  1  0
 13 18  2  0
  5 19  1  0
 19 20  2  0
 20 21  1  0
 21 22  2  0
 22 23  1  0
 23 24  1  0
 24 25  2  0
 25 26  1  0
 26 27  2  0
 27 28  1  0
 28 29  2  0
 29 30  1  0
 30 31  1  0
 31 32  1  0
 32 33  1  0
 33 34  1  0
 33 35  1  0
 35 36  1  0
 29 37  1  0
 37 38  2  0
 20  2  1  0
 38 22  1  0
 18  9  1  0
 38 26  1  0
 36 30  1  0
  1 39  1  0
  1 40  1  0
  1 41  1  0
  3 42  1  0
  4 43  1  0
  8 44  1  0
 10 45  1  0
 11 46  1  0
 12 47  1  0
 18 48  1  0
 19 49  1  0
 23 50  1  0
 24 51  1  0
 27 52  1  0
 31 53  1  0
 31 54  1  0
 32 55  1  0
 32 56  1  0
 34 57  1  0
 34 58  1  0
 34 59  1  0
 35 60  1  0
 35 61  1  0
 36 62  1  0
 36 63  1  0
M  END
>  <smiles>  (81) 
Cc1ccc(C(=O)Nc2cccc(C(F)(F)F)c2)cc1N=c1[nH]cnc2cnc(N3CCN(C)CC3)nc12

>  <score_type>  (81) 
oracle

>  <origin>  (81) 
adg

>  <m_score__min__energy>  (81) 
-9.4800000000000004

>  <m_primary>  (81) 
energy

$$$$
81:0
     RDKit          3D

 45 48  0  0  0  0  0  0  0  0999 V2000
   61.0174   27.8466   46.5908 H   0  0  0  0  0  0  0  0  0  0  0  0
   60.0920   28.2530   47.0250 C   0  0  0  0  0  0  0  0  0  0  0  0
   60.1920   29.3700   47.7630 C   0  0  0  0  0  0  0  0  0  0  0  0
   60.4680   29.2590   48.8220 H   0  0  0  0  0  0  0  0  0  0  0  0
   59.9570   30.7440   47.2530 C   0  0  0  0  0  0  0  0  0  0  0  0
   58.9650   30.9430   46.3450 N   0  0  0  0  0  0  0  0  0  0  0  0
   58.6660   32.1740   45.8700 C   0  0  0  0  0  0  0  0  0  0  0  0
   57.6470   32.3290   44.9220 C   0  0  0  0  0  0  0  0  0  0  0  0
   57.0899   31.4503   44.5648 H   0  0  0  0  0  0  0  0  0  0  0  0
   57.3380   33.5990   44.4300 C   0  0  0  0  0  0  0  0  0  0  0  0
   56.5383   33.7198   43.6845 H   0  0  0  0  0  0  0  0  0  0  0  0
   58.0440   34.7170   44.8840 C   0  0  0  0  0  0  0  0  0  0  0  0
   57.7981   35.7158   44.4943 H   0  0  0  0  0  0  0  0  0  0  0  0
   59.0620   34.5700   45.8320 C   0  0  0  0  0  0  0  0  0  0  0  0
   59.6138   35.4528   46.1872 H   0  0  0  0  0  0  0  0  0  0  0  0
   59.3810   33.2930   46.3320 C   0  0  0  0  0  0  0  0  0  0  0  0
   60.3960   33.0870   47.2800 C   0  0  0  0  0  0  0  0  0  0  0  0
   61.0640   34.0700   47.7070 O   0  0  0  0  0  0  0  0  0  0  0  0
   60.6720   31.8190   47.7310 N   0  0  0  0  0  0  0  0  0  0  0  0
   61.7420   31.6240   48.6780 C   0  0  0  0  0  0  0  0  0  0  0  0
   61.4830   31.0390   49.9270 C   0  0  0  0  0  0  0  0  0  0  0  0
   60.4601   30.7273   50.1848 H   0  0  0  0  0  0  0  0  0  0  0  0
   62.5210   30.8510   50.8450 C   0  0  0  0  0  0  0  0  0  0  0  0
   62.3135   30.3934   51.8235 H   0  0  0  0  0  0  0  0  0  0  0  0
   63.8240   31.2450   50.5190 C   0  0  0  0  0  0  0  0  0  0  0  0
   64.8550   31.0590   51.4320 O   0  0  0  0  0  0  0  0  0  0  0  0
   64.0880   31.8260   49.2750 C   0  0  0  0  0  0  0  0  0  0  0  0
   65.1123   32.1349   49.0196 H   0  0  0  0  0  0  0  0  0  0  0  0
   63.0520   32.0150   48.3550 C   0  0  0  0  0  0  0  0  0  0  0  0
   63.2633   32.4708   47.3764 H   0  0  0  0  0  0  0  0  0  0  0  0
   58.8330   27.5270   46.7510 C   0  0  0  0  0  0  0  0  0  0  0  0
   58.6540   26.1930   47.1560 C   0  0  0  0  0  0  0  0  0  0  0  0
   59.4663   25.6663   47.6782 H   0  0  0  0  0  0  0  0  0  0  0  0
   57.4500   25.5320   46.8990 C   0  0  0  0  0  0  0  0  0  0  0  0
   57.3260   24.4823   47.2037 H   0  0  0  0  0  0  0  0  0  0  0  0
   56.3950   26.2030   46.2520 C   0  0  0  0  0  0  0  0  0  0  0  0
   55.1710   25.5770   45.9690 O   0  0  0  0  0  0  0  0  0  0  0  0
   55.0230   24.4540   45.1060 C   0  0  0  0  0  0  0  0  0  0  0  0
   54.9028   23.5417   45.7087 H   0  0  0  0  0  0  0  0  0  0  0  0
   54.1355   24.5938   44.4713 H   0  0  0  0  0  0  0  0  0  0  0  0
   55.9164   24.3590   44.4713 H   0  0  0  0  0  0  0  0  0  0  0  0
   56.5640   27.5440   45.8810 C   0  0  0  0  0  0  0  0  0  0  0  0
   55.5290   28.2270   45.2520 O   0  0  0  0  0  0  0  0  0  0  0  0
   57.7700   28.2040   46.1370 C   0  0  0  0  0  0  0  0  0  0  0  0
   57.8853   29.2609   45.8548 H   0  0  0  0  0  0  0  0  0  0  0  0
  1  2  1  0
  2  3  2  0
  3  4  1  0
  3  5  1  0
  5  6  2  0
  6  7  1  0
  7  8  2  0
  8  9  1  0
  8 10  1  0
 10 11  1  0
 10 12  2  0
 12 13  1  0
 12 14  1  0
 14 15  1  0
 14 16  2  0
 16 17  1  0
 17 18  2  0
 17 19  1  0
 19 20  1  0
 20 21  2  0
 21 22  1  0
 21 23  1  0
 23 24  1  0
 23 25  2  0
 25 26  1  0
 25 27  1  0
 27 28  1  0
 27 29  2  0
 29 30  1  0
  2 31  1  0
 31 32  2  0
 32 33  1  0
 32 34  1  0
 34 35  1  0
 34 36  2  0
 36 37  1  0
 37 38  1  0
 38 39  1  0
 38 40  1  0
 38 41  1  0
 36 42  1  0
 42 43  1  0
 42 44  2  0
 44 45  1  0
 19  5  1  0
 29 20  1  0
 44 31  1  0
 16  7  1  0
M  CHG  2  26  -1  43  -1
M  END
>  <UniqueID>  (82) 
72

>  <SMILES>  (82) 
COc1ccc(/C=C\c2nc3ccccc3c(=O)n2-c2ccc([O-])cc2)cc1[O-]

>  <Energy>  (82) 
71.87555448254254

>  <Genealogy>  (82) 
COc1ccc(C=Cc2nc3ccccc3c(=O)n2-c2ccc([O-])cc2)cc1[O-] (protonated)
COc1ccc(/C=C\c2nc3ccccc3c(=O)n2-c2ccc([O-])cc2)cc1[O-] (cis-trans isomerization)
COc1ccc(/C=C\c2nc3ccccc3c(=O)n2-c2ccc([O-])cc2)cc1[O-] (3D coordinates assigned)
COc1ccc(/C=C\c2nc3ccccc3c(=O)n2-c2ccc([O-])cc2)cc1[O-] (optimized conformer: 71.87555448254254 kcal/mol)

>  <smiles>  (82) 
COc1ccc(C=Cc2nc3ccccc3c(=O)n2-c2ccc(O)cc2)cc1O

>  <score_type>  (82) 
oracle

>  <origin>  (82) 
adg

>  <m_score__min__energy>  (82) 
-12.5

>  <m_primary>  (82) 
energy

$$$$
82:0
     RDKit          3D

 47 50  0  0  0  0  0  0  0  0999 V2000
   57.0330   29.7270   54.2520 C   0  0  0  0  0  0  0  0  0  0  0  0
   57.9560   29.7090   53.2920 C   0  0  0  0  0  0  0  0  0  0  0  0
   59.2650   29.4660   53.5120 N   0  0  0  0  0  0  0  0  0  0  0  0
   59.8290   29.5430   52.2830 C   0  0  0  0  0  0  0  0  0  0  0  0
   61.1270   29.3070   52.0830 C   0  0  0  0  0  0  0  0  0  0  0  0
   58.9300   29.8270   51.3020 N   0  0  0  0  0  0  0  0  0  0  0  0
   59.1510   30.0040   49.8910 C   0  0  0  0  0  0  0  0  0  0  0  0
   59.4330   28.9000   49.0800 C   0  0  0  0  0  0  0  0  0  0  0  0
   59.6110   29.0800   47.7060 C   0  0  0  0  0  0  0  0  0  0  0  0
   59.9570   27.6660   46.6600 S   0  0  0  0  0  0  0  0  0  0  0  0
   58.2270   27.4360   46.2470 C   0  0  0  0  0  0  0  0  0  0  0  0
   57.3040   26.1190   46.7410 S   0  0  0  0  0  0  0  0  0  0  0  0
   55.9220   26.7080   45.9830 C   0  0  0  0  0  0  0  0  0  0  0  0
   54.7730   26.1170   45.9930 N   0  0  0  0  0  0  0  0  0  0  0  0
   56.1340   27.8830   45.3570 N   0  0  0  0  0  0  0  0  0  0  0  0
   57.4250   28.2920   45.4910 C   0  0  0  0  0  0  0  0  0  0  0  0
   57.8980   29.5910   44.9230 C   0  0  0  0  0  0  0  0  0  0  0  0
   59.5290   30.3260   47.1640 N   0  0  0  0  0  0  0  0  0  0  0  0
   59.2450   31.4230   47.9260 C   0  0  0  0  0  0  0  0  0  0  0  0
   59.1640   32.7250   47.3140 N   0  0  0  0  0  0  0  0  0  0  0  0
   57.9180   33.1610   46.6780 C   0  0  0  0  0  0  0  0  0  0  0  0
   58.2390   34.1270   45.5350 C   0  0  0  0  0  0  0  0  0  0  0  0
   59.0630   35.1860   45.9880 O   0  0  0  0  0  0  0  0  0  0  0  0
   60.3200   34.6770   46.3910 C   0  0  0  0  0  0  0  0  0  0  0  0
   60.1730   33.7480   47.6000 C   0  0  0  0  0  0  0  0  0  0  0  0
   59.0430   31.2720   49.3060 C   0  0  0  0  0  0  0  0  0  0  0  0
   57.7540   29.9250   51.9480 C   0  0  0  0  0  0  0  0  0  0  0  0
   56.6530   30.1950   51.3940 O   0  0  0  0  0  0  0  0  0  0  0  0
   55.9820   29.9324   54.0007 H   0  0  0  0  0  0  0  0  0  0  0  0
   57.3217   29.5365   55.2962 H   0  0  0  0  0  0  0  0  0  0  0  0
   61.5494   29.3792   51.0699 H   0  0  0  0  0  0  0  0  0  0  0  0
   61.7746   29.0402   52.9312 H   0  0  0  0  0  0  0  0  0  0  0  0
   59.5142   27.8957   49.5214 H   0  0  0  0  0  0  0  0  0  0  0  0
   53.9450   26.5490   46.4570 H   0  0  0  0  0  0  0  0  0  0  0  0
   58.1489   30.2800   45.7429 H   0  0  0  0  0  0  0  0  0  0  0  0
   58.7906   29.4172   44.3040 H   0  0  0  0  0  0  0  0  0  0  0  0
   57.1027   30.0318   44.3040 H   0  0  0  0  0  0  0  0  0  0  0  0
   59.7150   30.4420   46.1430 H   0  0  0  0  0  0  0  0  0  0  0  0
   57.3841   32.2858   46.2793 H   0  0  0  0  0  0  0  0  0  0  0  0
   57.2857   33.6693   47.4208 H   0  0  0  0  0  0  0  0  0  0  0  0
   58.7614   33.5799   44.7364 H   0  0  0  0  0  0  0  0  0  0  0  0
   57.2971   34.5504   45.1562 H   0  0  0  0  0  0  0  0  0  0  0  0
   60.7647   34.1145   45.5569 H   0  0  0  0  0  0  0  0  0  0  0  0
   60.9661   35.5212   46.6737 H   0  0  0  0  0  0  0  0  0  0  0  0
   61.1379   33.2624   47.8080 H   0  0  0  0  0  0  0  0  0  0  0  0
   59.8598   34.3352   48.4759 H   0  0  0  0  0  0  0  0  0  0  0  0
   58.8005   32.1470   49.9269 H   0  0  0  0  0  0  0  0  0  0  0  0
  1  2  2  0
  2  3  1  0
  3  4  1  0
  4  5  2  0
  4  6  1  0
  6  7  1  0
  7  8  2  0
  8  9  1  0
  9 10  1  0
 10 11  1  0
 11 12  1  0
 12 13  1  0
 13 14  2  3
 13 15  1  0
 15 16  1  0
 16 17  1  0
  9 18  2  0
 18 19  1  0
 19 20  1  0
 20 21  1  0
 21 22  1  0
 22 23  1  0
 23 24  1  0
 24 25  1  0
 19 26  2  0
  6 27  1  0
 27 28  2  0
 27  2  1  0
 26  7  1  0
 16 11  2  0
 25 20  1  0
  1 29  1  0
  1 30  1  0
  5 31  1  0
  5 32  1  0
  8 33  1  0
 14 34  1  0
 17 35  1  0
 17 36  1  0
 17 37  1  0
 18 38  1  0
 21 39  1  0
 21 40  1  0
 22 41  1  0
 22 42  1  0
 24 43  1  0
 24 44  1  0
 25 45  1  0
 25 46  1  0
 26 47  1  0
M  CHG  3   3  -1  15  -1  18   1
M  END
>  <UniqueID>  (83) 
73

>  <SMILES>  (83) 
C=c1[n-]c(=C)n(-c2cc(Sc3sc(=N)[n-]c3C)[nH+]c(N3CCOCC3)c2)c1=O

>  <Energy>  (83) 
117.23374771418628

>  <Genealogy>  (83) 
C=c1[n-]c(=C)n(-c2cc(Sc3sc(=N)[n-]c3C)[nH+]c(N3CCOCC3)c2)c1=O (protonated)
C=c1[n-]c(=C)n(-c2cc(Sc3sc(=N)[n-]c3C)[nH+]c(N3CCOCC3)c2)c1=O (3D coordinates assigned)
C=c1[n-]c(=C)n(-c2cc(Sc3sc(=N)[n-]c3C)[nH+]c(N3CCOCC3)c2)c1=O (nonaromatic ring conformer: 117.23374771418628 kcal/mol)

>  <smiles>  (83) 
C=c1[nH]c(=C)n(-c2cc(Sc3sc(=N)[nH]c3C)nc(N3CCOCC3)c2)c1=O

>  <score_type>  (83) 
oracle

>  <origin>  (83) 
adg

>  <m_score__min__energy>  (83) 
-9.75

>  <m_primary>  (83) 
energy

$$$$
83:0
     RDKit          3D

 50 52  0  0  0  0  0  0  0  0999 V2000
   56.2490   30.0930   42.6160 C   0  0  0  0  0  0  0  0  0  0  0  0
   57.2160   29.8190   43.7700 C   0  0  2  0  0  0  0  0  0  0  0  0
   56.5820   29.0390   44.8390 N   0  0  0  0  0  0  0  0  0  0  0  0
   57.2450   28.3500   45.9080 C   0  0  0  0  0  0  0  0  0  0  0  0
   57.9360   28.9850   46.7500 O   0  0  0  0  0  0  0  0  0  0  0  0
   57.0860   26.8880   46.0350 C   0  0  0  0  0  0  0  0  0  0  0  0
   58.0860   26.1460   45.8510 O   0  0  0  0  0  0  0  0  0  0  0  0
   55.8170   26.2800   46.3170 N   0  0  0  0  0  0  0  0  0  0  0  0
   55.2740   25.3130   45.6380 C   0  0  0  0  0  0  0  0  0  0  0  0
   53.9500   25.0400   45.6260 N   0  0  0  0  0  0  0  0  0  0  0  0
   53.6740   23.9480   44.8680 C   0  0  0  0  0  0  0  0  0  0  0  0
   54.7810   23.3400   44.2840 C   0  0  0  0  0  0  0  0  0  0  0  0
   56.1530   24.2040   44.7360 S   0  0  0  0  0  0  0  0  0  0  0  0
   57.8130   31.0990   44.2980 C   0  0  0  0  0  0  0  0  0  0  0  0
   58.4120   31.8840   43.5150 O   0  0  0  0  0  0  0  0  0  0  0  0
   57.7070   31.4130   45.6970 N   0  0  0  0  0  0  0  0  0  0  0  0
   58.3630   32.5270   46.3260 C   0  0  0  0  0  0  0  0  0  0  0  0
   58.3370   33.8150   45.7590 C   0  0  0  0  0  0  0  0  0  0  0  0
   58.9890   34.8780   46.3910 C   0  0  0  0  0  0  0  0  0  0  0  0
   59.6810   34.6650   47.5840 C   0  0  0  0  0  0  0  0  0  0  0  0
   59.7340   33.3830   48.1500 C   0  0  0  0  0  0  0  0  0  0  0  0
   60.6040   33.1140   49.6600 S   0  0  0  0  0  0  0  0  0  0  0  0
   60.2490   34.2120   50.6250 O   0  0  0  0  0  0  0  0  0  0  0  0
   60.1540   31.8120   50.2650 O   0  0  0  0  0  0  0  0  0  0  0  0
   62.3420   33.0760   49.4410 N   0  0  0  0  0  0  0  0  0  0  0  0
   62.8240   31.7670   48.9590 C   0  0  0  0  0  0  0  0  0  0  0  0
   62.6820   31.5950   47.4280 C   0  0  0  0  0  0  0  0  0  0  0  0
   62.3450   32.7950   46.7570 O   0  0  0  0  0  0  0  0  0  0  0  0
   63.1830   33.8380   47.1970 C   0  0  0  0  0  0  0  0  0  0  0  0
   62.8470   34.2180   48.6480 C   0  0  0  0  0  0  0  0  0  0  0  0
   59.0890   32.3150   47.5080 C   0  0  0  0  0  0  0  0  0  0  0  0
   55.2649   30.3719   43.0206 H   0  0  0  0  0  0  0  0  0  0  0  0
   56.6384   30.9162   41.9989 H   0  0  0  0  0  0  0  0  0  0  0  0
   56.1487   29.1879   41.9989 H   0  0  0  0  0  0  0  0  0  0  0  0
   58.0386   29.2078   43.3703 H   0  0  0  0  0  0  0  0  0  0  0  0
   52.6503   23.5715   44.7259 H   0  0  0  0  0  0  0  0  0  0  0  0
   54.7627   22.4492   43.6389 H   0  0  0  0  0  0  0  0  0  0  0  0
   57.0330   30.8610   46.2720 H   0  0  0  0  0  0  0  0  0  0  0  0
   57.8010   33.9861   44.8138 H   0  0  0  0  0  0  0  0  0  0  0  0
   58.9565   35.8840   45.9472 H   0  0  0  0  0  0  0  0  0  0  0  0
   60.1866   35.5055   48.0820 H   0  0  0  0  0  0  0  0  0  0  0  0
   63.8863   31.6650   49.2258 H   0  0  0  0  0  0  0  0  0  0  0  0
   62.2040   30.9932   49.4352 H   0  0  0  0  0  0  0  0  0  0  0  0
   63.6389   31.2285   47.0279 H   0  0  0  0  0  0  0  0  0  0  0  0
   61.8602   30.8844   47.2556 H   0  0  0  0  0  0  0  0  0  0  0  0
   64.2311   33.5089   47.1418 H   0  0  0  0  0  0  0  0  0  0  0  0
   63.0287   34.7162   46.5528 H   0  0  0  0  0  0  0  0  0  0  0  0
   63.7577   34.6039   49.1294 H   0  0  0  0  0  0  0  0  0  0  0  0
   62.0491   34.9744   48.6143 H   0  0  0  0  0  0  0  0  0  0  0  0
   59.1530   31.3032   47.9348 H   0  0  0  0  0  0  0  0  0  0  0  0
  1  2  1  0
  2  3  1  0
  3  4  1  0
  4  5  2  0
  4  6  1  0
  6  7  2  0
  6  8  1  0
  8  9  2  3
  9 10  1  0
 10 11  1  0
 11 12  2  0
 12 13  1  0
  2 14  1  0
 14 15  2  0
 14 16  1  0
 16 17  1  0
 17 18  2  0
 18 19  1  0
 19 20  2  0
 20 21  1  0
 21 22  1  0
 22 23  2  0
 22 24  2  0
 22 25  1  0
 25 26  1  0
 26 27  1  0
 27 28  1  0
 28 29  1  0
 29 30  1  0
 21 31  2  0
 13  9  1  0
 31 17  1  0
 30 25  1  0
  1 32  1  0
  1 33  1  0
  1 34  1  0
  2 35  1  6
 11 36  1  0
 12 37  1  0
 16 38  1  0
 18 39  1  0
 19 40  1  0
 20 41  1  0
 26 42  1  0
 26 43  1  0
 27 44  1  0
 27 45  1  0
 29 46  1  0
 29 47  1  0
 30 48  1  0
 30 49  1  0
 31 50  1  0
M  CHG  2   3  -1  10  -1
M  END
>  <UniqueID>  (84) 
74

>  <SMILES>  (84) 
C[C@H]([N-]C(=O)C(=O)N=c1[n-]ccs1)C(=O)Nc1cccc(S(=O)(=O)N2CCOCC2)c1

>  <Energy>  (84) 
97.98871459614784

>  <Genealogy>  (84) 
CC([N-]C(=O)C(=O)N=c1[n-]ccs1)C(=O)Nc1cccc(S(=O)(=O)N2CCOCC2)c1 (protonated)
C[C@H]([N-]C(=O)C(=O)N=c1[n-]ccs1)C(=O)Nc1cccc(S(=O)(=O)N2CCOCC2)c1 (chirality)
C[C@H]([N-]C(=O)C(=O)N=c1[n-]ccs1)C(=O)Nc1cccc(S(=O)(=O)N2CCOCC2)c1 (3D coordinates assigned)
C[C@H]([N-]C(=O)C(=O)N=c1[n-]ccs1)C(=O)Nc1cccc(S(=O)(=O)N2CCOCC2)c1 (nonaromatic ring conformer: 97.98871459614784 kcal/mol)

>  <smiles>  (84) 
CC(NC(=O)C(=O)N=c1[nH]ccs1)C(=O)Nc1cccc(S(=O)(=O)N2CCOCC2)c1

>  <score_type>  (84) 
oracle

>  <origin>  (84) 
adg

>  <m_score__min__energy>  (84) 
-13.039999999999999

>  <m_primary>  (84) 
energy

$$$$
84:0
     RDKit          3D

 66 68  0  0  1  0  0  0  0  0999 V2000
   57.3530   21.4710   42.9960 C   0  0  0  0  0  0  0  0  0  0  0  0
   56.0370   21.7770   43.5250 N   0  0  0  0  0  0  0  0  0  0  0  0
   55.9650   21.3070   44.8720 C   0  0  0  0  0  0  0  0  0  0  0  0
   55.8660   23.2070   43.4060 C   0  0  0  0  0  0  0  0  0  0  0  0
   56.7150   23.9900   44.3410 C   0  0  0  0  0  0  0  0  0  0  0  0
   56.0100   24.5850   45.5110 C   0  0  0  0  0  0  0  0  0  0  0  0
   56.7360   25.6950   46.1710 C   0  0  0  0  0  0  0  0  0  0  0  0
   57.3120   25.5900   47.2870 O   0  0  0  0  0  0  0  0  0  0  0  0
   56.7520   26.9470   45.4470 N   0  0  0  0  0  0  0  0  0  0  0  0
   57.4030   28.1000   45.9480 C   0  0  0  0  0  0  0  0  0  0  0  0
   58.2090   27.9250   47.0130 N   0  0  0  0  0  0  0  0  0  0  0  0
   58.8840   28.9300   47.5750 C   0  0  0  0  0  0  0  0  0  0  0  0
   59.6550   28.7460   48.5910 N   0  0  0  0  0  0  0  0  0  0  0  0
   59.6960   29.6960   49.7060 C   0  0  0  0  0  0  0  0  0  0  0  0
   61.1040   29.7760   50.2610 C   0  0  0  0  0  0  0  0  0  0  0  0
   61.8590   30.7330   49.3950 C   0  0  0  0  0  0  0  0  0  0  0  0
   61.5350   30.9540   48.0920 C   0  0  0  0  0  0  0  0  0  0  0  0
   62.2390   31.8340   47.3130 C   0  0  0  0  0  0  0  0  0  0  0  0
   63.3100   32.5090   47.8930 C   0  0  0  0  0  0  0  0  0  0  0  0
   64.0540   33.4210   47.1230 O   0  0  0  0  0  0  0  0  0  0  0  0
   63.6640   32.3090   49.2130 C   0  0  0  0  0  0  0  0  0  0  0  0
   62.9220   31.4120   49.9530 C   0  0  0  0  0  0  0  0  0  0  0  0
   58.7380   30.1520   47.0450 N   0  0  0  0  0  0  0  0  0  0  0  0
   57.9300   30.3590   45.9730 C   0  0  0  0  0  0  0  0  0  0  0  0
   57.7490   31.5470   45.6320 N   0  0  0  0  0  0  0  0  0  0  0  0
   58.3280   32.7470   45.9710 C   0  0  0  0  0  0  0  0  0  0  0  0
   58.5900   33.7530   45.0220 C   0  0  0  0  0  0  0  0  0  0  0  0
   59.2830   34.8760   45.4330 C   0  0  0  0  0  0  0  0  0  0  0  0
   59.7090   35.0030   46.7600 C   0  0  0  0  0  0  0  0  0  0  0  0
   59.4600   34.0320   47.6940 C   0  0  0  0  0  0  0  0  0  0  0  0
   60.0200   34.2450   49.3450 Cl  0  0  0  0  0  0  0  0  0  0  0  0
   58.7690   32.9040   47.3010 C   0  0  0  0  0  0  0  0  0  0  0  0
   57.2280   29.3700   45.3580 C   0  0  0  0  0  0  0  0  0  0  0  0
   56.3770   29.3940   44.2210 C   0  0  0  0  0  0  0  0  0  0  0  0
   56.5510   29.7440   42.8780 N   0  0  0  0  0  0  0  0  0  0  0  0
   55.1580   28.9840   44.4530 O   0  0  0  0  0  0  0  0  0  0  0  0
   58.0538   21.3080   43.8280 H   0  0  0  0  0  0  0  0  0  0  0  0
   57.2980   20.5617   42.3795 H   0  0  0  0  0  0  0  0  0  0  0  0
   57.7048   22.3113   42.3795 H   0  0  0  0  0  0  0  0  0  0  0  0
   56.0946   22.1530   45.5630 H   0  0  0  0  0  0  0  0  0  0  0  0
   54.9847   20.8390   45.0452 H   0  0  0  0  0  0  0  0  0  0  0  0
   56.7603   20.5670   45.0452 H   0  0  0  0  0  0  0  0  0  0  0  0
   56.1188   23.5025   42.3770 H   0  0  0  0  0  0  0  0  0  0  0  0
   54.8190   23.4279   43.6609 H   0  0  0  0  0  0  0  0  0  0  0  0
   57.5006   23.3220   44.7239 H   0  0  0  0  0  0  0  0  0  0  0  0
   57.0973   24.8405   43.7575 H   0  0  0  0  0  0  0  0  0  0  0  0
   55.0378   24.9678   45.1671 H   0  0  0  0  0  0  0  0  0  0  0  0
   55.9189   23.7842   46.2596 H   0  0  0  0  0  0  0  0  0  0  0  0
   56.2770   27.0410   44.5170 H   0  0  0  0  0  0  0  0  0  0  0  0
   58.3260   26.9770   47.4350 H   0  0  0  0  0  0  0  0  0  0  0  0
   59.3866   30.6899   49.3504 H   0  0  0  0  0  0  0  0  0  0  0  0
   59.0123   29.3562   50.4979 H   0  0  0  0  0  0  0  0  0  0  0  0
   61.0814   30.1415   51.2983 H   0  0  0  0  0  0  0  0  0  0  0  0
   61.5828   28.7857   50.2636 H   0  0  0  0  0  0  0  0  0  0  0  0
   60.6850   30.4115   47.6524 H   0  0  0  0  0  0  0  0  0  0  0  0
   61.9664   32.0024   46.2607 H   0  0  0  0  0  0  0  0  0  0  0  0
   64.9160   33.0930   46.7110 H   0  0  0  0  0  0  0  0  0  0  0  0
   64.5117   32.8485   49.6605 H   0  0  0  0  0  0  0  0  0  0  0  0
   63.1827   31.2351   51.0069 H   0  0  0  0  0  0  0  0  0  0  0  0
   59.2720   30.9230   47.4960 H   0  0  0  0  0  0  0  0  0  0  0  0
   58.2520   33.6481   43.9805 H   0  0  0  0  0  0  0  0  0  0  0  0
   59.5015   35.6766   44.7110 H   0  0  0  0  0  0  0  0  0  0  0  0
   60.2587   35.9069   47.0613 H   0  0  0  0  0  0  0  0  0  0  0  0
   58.5588   32.1144   48.0374 H   0  0  0  0  0  0  0  0  0  0  0  0
   57.3760   29.3280   42.3750 H   0  0  0  0  0  0  0  0  0  0  0  0
   55.9510   30.3650   42.3100 H   0  0  0  0  0  0  0  0  0  0  0  0
  1  2  1  0
  2  3  1  0
  2  4  1  0
  4  5  1  0
  5  6  1  0
  6  7  1  0
  7  8  2  0
  7  9  1  0
  9 10  1  0
 10 11  1  0
 11 12  1  0
 12 13  2  0
 13 14  1  0
 14 15  1  0
 15 16  1  0
 16 17  2  0
 17 18  1  0
 18 19  2  0
 19 20  1  0
 19 21  1  0
 21 22  2  0
 12 23  1  0
 23 24  1  0
 24 25  2  0
 25 26  1  0
 26 27  2  0
 27 28  1  0
 28 29  2  0
 29 30  1  0
 30 31  1  0
 30 32  2  0
 24 33  1  0
 33 34  1  0
 34 35  1  0
 34 36  2  0
 33 10  2  0
 22 16  1  0
 32 26  1  0
  1 37  1  0
  1 38  1  0
  1 39  1  0
  3 40  1  0
  3 41  1  0
  3 42  1  0
  4 43  1  0
  4 44  1  0
  5 45  1  0
  5 46  1  0
  6 47  1  0
  6 48  1  0
  9 49  1  0
 11 50  1  0
 14 51  1  0
 14 52  1  0
 15 53  1  0
 15 54  1  0
 17 55  1  0
 18 56  1  0
 20 57  1  0
 21 58  1  0
 22 59  1  0
 23 60  1  0
 27 61  1  0
 28 62  1  0
 29 63  1  0
 32 64  1  0
 35 65  1  0
 35 66  1  0
M  END
>  <smiles>  (85) 
CN(C)CCCC(=O)Nc1[nH]c(=NCCc2ccc(O)cc2)[nH]c(=Nc2cccc(Cl)c2)c1C(N)=O

>  <score_type>  (85) 
oracle

>  <origin>  (85) 
adg

>  <m_score__min__energy>  (85) 
-10.31

>  <m_primary>  (85) 
energy

$$$$
85:0
     RDKit          3D

 43 46  0  0  0  0  0  0  0  0999 V2000
   56.9550   23.3980   47.5470 C   0  0  0  0  0  0  0  0  0  0  0  0
   55.8900   24.3920   47.4740 N   0  0  0  0  0  0  0  0  0  0  0  0
   55.9530   25.2090   45.9420 S   0  0  0  0  0  0  0  0  0  0  0  0
   56.1680   24.1960   44.8530 O   0  0  0  0  0  0  0  0  0  0  0  0
   54.6480   25.9110   45.6880 O   0  0  0  0  0  0  0  0  0  0  0  0
   57.2810   26.3680   45.9180 C   0  0  0  0  0  0  0  0  0  0  0  0
   58.6020   25.9170   46.0360 C   0  0  0  0  0  0  0  0  0  0  0  0
   59.6590   26.8290   46.0200 C   0  0  0  0  0  0  0  0  0  0  0  0
   59.4020   28.1980   45.9020 C   0  0  0  0  0  0  0  0  0  0  0  0
   58.0820   28.6650   45.8140 C   0  0  0  0  0  0  0  0  0  0  0  0
   57.8200   30.1090   45.6830 C   0  0  0  0  0  0  0  0  0  0  0  0
   56.9890   30.6580   44.7510 N   0  0  0  0  0  0  0  0  0  0  0  0
   56.9500   31.9840   44.9070 N   0  0  0  0  0  0  0  0  0  0  0  0
   57.7580   32.2330   45.9450 C   0  0  0  0  0  0  0  0  0  0  0  0
   58.2380   33.3370   46.5960 C   0  0  0  0  0  0  0  0  0  0  0  0
   57.9110   34.6620   46.3360 O   0  0  0  0  0  0  0  0  0  0  0  0
   59.1260   32.9150   47.5360 N   0  0  0  0  0  0  0  0  0  0  0  0
   59.9520   33.7630   48.3950 C   0  0  0  0  0  0  0  0  0  0  0  0
   61.4070   33.5700   48.0630 C   0  0  0  0  0  0  0  0  0  0  0  0
   62.3160   33.1820   49.0620 C   0  0  0  0  0  0  0  0  0  0  0  0
   63.6740   33.0410   48.7620 C   0  0  0  0  0  0  0  0  0  0  0  0
   64.1360   33.2950   47.4670 C   0  0  0  0  0  0  0  0  0  0  0  0
   63.2390   33.6910   46.4710 C   0  0  0  0  0  0  0  0  0  0  0  0
   61.8800   33.8330   46.7670 C   0  0  0  0  0  0  0  0  0  0  0  0
   59.2050   31.5570   47.4230 C   0  0  0  0  0  0  0  0  0  0  0  0
   60.0910   30.7630   48.1440 O   0  0  0  0  0  0  0  0  0  0  0  0
   58.3240   31.1430   46.4390 C   0  0  0  0  0  0  0  0  0  0  0  0
   57.0250   27.7420   45.8040 C   0  0  0  0  0  0  0  0  0  0  0  0
   57.1848   23.1835   48.6011 H   0  0  0  0  0  0  0  0  0  0  0  0
   56.6289   22.4738   47.0475 H   0  0  0  0  0  0  0  0  0  0  0  0
   57.8545   23.7870   47.0475 H   0  0  0  0  0  0  0  0  0  0  0  0
   58.8071   24.8414   46.1415 H   0  0  0  0  0  0  0  0  0  0  0  0
   60.6956   26.4698   46.1004 H   0  0  0  0  0  0  0  0  0  0  0  0
   60.2383   28.9121   45.8780 H   0  0  0  0  0  0  0  0  0  0  0  0
   59.6791   34.8169   48.2373 H   0  0  0  0  0  0  0  0  0  0  0  0
   59.7818   33.4868   49.4461 H   0  0  0  0  0  0  0  0  0  0  0  0
   61.9576   32.9885   50.0838 H   0  0  0  0  0  0  0  0  0  0  0  0
   64.3802   32.7298   49.5459 H   0  0  0  0  0  0  0  0  0  0  0  0
   65.2048   33.1832   47.2322 H   0  0  0  0  0  0  0  0  0  0  0  0
   63.6029   33.8913   45.4524 H   0  0  0  0  0  0  0  0  0  0  0  0
   61.1786   34.1519   45.9819 H   0  0  0  0  0  0  0  0  0  0  0  0
   60.7990   30.2060   47.6840 H   0  0  0  0  0  0  0  0  0  0  0  0
   55.9890   28.0986   45.7061 H   0  0  0  0  0  0  0  0  0  0  0  0
  1  2  1  0
  2  3  1  0
  3  4  2  0
  3  5  2  0
  3  6  1  0
  6  7  2  0
  7  8  1  0
  8  9  2  0
  9 10  1  0
 10 11  1  0
 11 12  2  0
 12 13  1  0
 13 14  1  0
 14 15  2  0
 15 16  1  0
 15 17  1  0
 17 18  1  0
 18 19  1  0
 19 20  2  0
 20 21  1  0
 21 22  2  0
 22 23  1  0
 23 24  2  0
 17 25  1  0
 25 26  1  0
 25 27  2  0
 10 28  2  0
 28  6  1  0
 27 11  1  0
 27 14  1  0
 24 19  1  0
  1 29  1  0
  1 30  1  0
  1 31  1  0
  7 32  1  0
  8 33  1  0
  9 34  1  0
 18 35  1  0
 18 36  1  0
 20 37  1  0
 21 38  1  0
 22 39  1  0
 23 40  1  0
 24 41  1  0
 26 42  1  0
 28 43  1  0
M  CHG  3   2  -1  13  -1  16  -1
M  END
>  <UniqueID>  (86) 
75

>  <SMILES>  (86) 
C[N-]S(=O)(=O)c1cccc(-c2n[n-]c3c([O-])n(Cc4ccccc4)c(O)c23)c1

>  <Energy>  (86) 
140.52318569869112

>  <Genealogy>  (86) 
C[N-]S(=O)(=O)c1cccc(-c2n[n-]c3c([O-])n(Cc4ccccc4)c(O)c23)c1 (protonated)
C[N-]S(=O)(=O)c1cccc(-c2n[n-]c3c([O-])n(Cc4ccccc4)c(O)c23)c1 (3D coordinates assigned)
C[N-]S(=O)(=O)c1cccc(-c2n[n-]c3c([O-])n(Cc4ccccc4)c(O)c23)c1 (optimized conformer: 140.52318569869112 kcal/mol)

>  <smiles>  (86) 
CNS(=O)(=O)c1cccc(-c2n[nH]c3c(O)n(Cc4ccccc4)c(O)c23)c1

>  <score_type>  (86) 
oracle

>  <origin>  (86) 
adg

>  <m_score__min__energy>  (86) 
-13.029999999999999

>  <m_primary>  (86) 
energy

$$$$
86:0
     RDKit          3D

 69 73  0  0  0  0  0  0  0  0999 V2000
   63.1410   33.4610   46.5880 C   0  0  0  0  0  0  0  0  0  0  0  0
   61.8150   33.8920   47.1700 C   0  0  0  0  0  0  0  0  0  0  0  0
   60.7830   34.2100   46.2750 C   0  0  0  0  0  0  0  0  0  0  0  0
   59.5260   34.5200   46.7750 C   0  0  0  0  0  0  0  0  0  0  0  0
   58.5840   34.8110   45.9940 O   0  0  0  0  0  0  0  0  0  0  0  0
   59.3110   34.4910   48.1100 N   0  0  0  0  0  0  0  0  0  0  0  0
   60.3090   34.1970   48.9830 C   0  0  0  0  0  0  0  0  0  0  0  0
   60.0350   34.1490   50.2120 O   0  0  0  0  0  0  0  0  0  0  0  0
   61.5890   33.9550   48.5310 N   0  0  0  0  0  0  0  0  0  0  0  0
   62.6740   33.6870   49.5110 C   0  0  0  0  0  0  0  0  0  0  0  0
   62.6870   32.2420   49.9760 C   0  0  0  0  0  0  0  0  0  0  0  0
   61.6960   31.3650   49.4980 C   0  0  0  0  0  0  0  0  0  0  0  0
   61.6330   30.0380   49.9470 C   0  0  0  0  0  0  0  0  0  0  0  0
   60.6070   29.1560   49.4650 N   0  0  0  0  0  0  0  0  0  0  0  0
   59.3570   29.7140   48.9330 C   0  0  0  0  0  0  0  0  0  0  0  0
   58.5340   28.6460   48.1980 C   0  0  0  0  0  0  0  0  0  0  0  0
   59.4350   27.7080   47.3680 C   0  0  0  0  0  0  0  0  0  0  0  0
   60.1010   28.4700   46.1930 C   0  0  0  0  0  0  0  0  0  0  0  0
   59.1910   29.5320   45.6250 C   0  0  0  0  0  0  0  0  0  0  0  0
   59.3430   30.8780   45.9930 C   0  0  0  0  0  0  0  0  0  0  0  0
   58.5110   31.8580   45.4430 C   0  0  0  0  0  0  0  0  0  0  0  0
   57.5210   31.5030   44.5240 C   0  0  0  0  0  0  0  0  0  0  0  0
   57.3600   30.1640   44.1540 C   0  0  0  0  0  0  0  0  0  0  0  0
   56.1170   29.7150   43.0000 Cl  0  0  0  0  0  0  0  0  0  0  0  0
   58.1910   29.1810   44.7030 C   0  0  0  0  0  0  0  0  0  0  0  0
   60.4840   26.9890   48.2670 C   0  0  0  0  0  0  0  0  0  0  0  0
   60.7620   27.7030   49.6000 C   0  0  0  0  0  0  0  0  0  0  0  0
   62.5770   29.5760   50.8720 C   0  0  0  0  0  0  0  0  0  0  0  0
   63.5800   30.4260   51.3370 C   0  0  0  0  0  0  0  0  0  0  0  0
   63.6500   31.7540   50.8920 C   0  0  0  0  0  0  0  0  0  0  0  0
   64.7330   32.6050   51.4070 C   0  0  0  0  0  0  0  0  0  0  0  0
   64.7730   32.8680   52.6400 O   0  0  0  0  0  0  0  0  0  0  0  0
   65.7220   33.1300   50.5060 N   0  0  0  0  0  0  0  0  0  0  0  0
   66.9100   33.8230   50.9260 C   0  0  0  0  0  0  0  0  0  0  0  0
   66.7940   34.9290   51.7840 C   0  0  0  0  0  0  0  0  0  0  0  0
   67.9350   35.6240   52.2010 C   0  0  0  0  0  0  0  0  0  0  0  0
   69.1950   35.2350   51.7460 C   0  0  0  0  0  0  0  0  0  0  0  0
   69.3190   34.1590   50.8650 C   0  0  0  0  0  0  0  0  0  0  0  0
   68.1820   33.4600   50.4470 C   0  0  0  0  0  0  0  0  0  0  0  0
   63.8427   33.2329   47.4038 H   0  0  0  0  0  0  0  0  0  0  0  0
   62.9952   32.5640   45.9682 H   0  0  0  0  0  0  0  0  0  0  0  0
   63.5505   34.2723   45.9682 H   0  0  0  0  0  0  0  0  0  0  0  0
   60.9676   34.2137   45.1906 H   0  0  0  0  0  0  0  0  0  0  0  0
   63.6411   33.9154   49.0392 H   0  0  0  0  0  0  0  0  0  0  0  0
   62.4963   34.3220   50.3914 H   0  0  0  0  0  0  0  0  0  0  0  0
   60.9613   31.7249   48.7627 H   0  0  0  0  0  0  0  0  0  0  0  0
   58.7608   30.1145   49.7662 H   0  0  0  0  0  0  0  0  0  0  0  0
   59.6105   30.5092   48.2164 H   0  0  0  0  0  0  0  0  0  0  0  0
   57.9820   28.0483   48.9383 H   0  0  0  0  0  0  0  0  0  0  0  0
   57.8424   29.1561   47.5113 H   0  0  0  0  0  0  0  0  0  0  0  0
   58.7982   26.9257   46.9294 H   0  0  0  0  0  0  0  0  0  0  0  0
   61.0228   28.9481   46.5558 H   0  0  0  0  0  0  0  0  0  0  0  0
   60.3189   27.7446   45.3953 H   0  0  0  0  0  0  0  0  0  0  0  0
   60.1202   31.1632   46.7174 H   0  0  0  0  0  0  0  0  0  0  0  0
   58.6365   32.9111   45.7348 H   0  0  0  0  0  0  0  0  0  0  0  0
   56.8685   32.2759   44.0916 H   0  0  0  0  0  0  0  0  0  0  0  0
   58.0605   28.1285   44.4112 H   0  0  0  0  0  0  0  0  0  0  0  0
   60.1142   25.9768   48.4877 H   0  0  0  0  0  0  0  0  0  0  0  0
   61.4307   26.9823   47.7069 H   0  0  0  0  0  0  0  0  0  0  0  0
   60.0550   27.3355   50.3584 H   0  0  0  0  0  0  0  0  0  0  0  0
   61.7983   27.4892   49.9006 H   0  0  0  0  0  0  0  0  0  0  0  0
   62.5273   28.5383   51.2335 H   0  0  0  0  0  0  0  0  0  0  0  0
   64.3217   30.0520   52.0581 H   0  0  0  0  0  0  0  0  0  0  0  0
   65.5190   33.0820   49.4820 H   0  0  0  0  0  0  0  0  0  0  0  0
   65.8007   35.2508   52.1302 H   0  0  0  0  0  0  0  0  0  0  0  0
   67.8381   36.4776   52.8880 H   0  0  0  0  0  0  0  0  0  0  0  0
   70.0917   35.7765   52.0816 H   0  0  0  0  0  0  0  0  0  0  0  0
   70.3125   33.8606   50.4991 H   0  0  0  0  0  0  0  0  0  0  0  0
   68.2828   32.6228   49.7407 H   0  0  0  0  0  0  0  0  0  0  0  0
  1  2  1  0
  2  3  2  0
  3  4  1  0
  4  5  2  0
  4  6  1  0
  6  7  1  0
  7  8  2  0
  7  9  1  0
  9 10  1  0
 10 11  1  0
 11 12  2  0
 12 13  1  0
 13 14  1  0
 14 15  1  0
 15 16  1  0
 16 17  1  0
 17 18  1  0
 18 19  1  0
 19 20  2  0
 20 21  1  0
 21 22  2  0
 22 23  1  0
 23 24  1  0
 23 25  2  0
 17 26  1  0
 26 27  1  0
 13 28  2  0
 28 29  1  0
 29 30  2  0
 30 31  1  0
 31 32  2  0
 31 33  1  0
 33 34  1  0
 34 35  2  0
 35 36  1  0
 36 37  2  0
 37 38  1  0
 38 39  2  0
  9  2  1  0
 30 11  1  0
 39 34  1  0
 27 14  1  0
 25 19  1  0
  1 40  1  0
  1 41  1  0
  1 42  1  0
  3 43  1  0
 10 44  1  0
 10 45  1  0
 12 46  1  0
 15 47  1  0
 15 48  1  0
 16 49  1  0
 16 50  1  0
 17 51  1  0
 18 52  1  0
 18 53  1  0
 20 54  1  0
 21 55  1  0
 22 56  1  0
 25 57  1  0
 26 58  1  0
 26 59  1  0
 27 60  1  0
 27 61  1  0
 28 62  1  0
 29 63  1  0
 33 64  1  0
 35 65  1  0
 36 66  1  0
 37 67  1  0
 38 68  1  0
 39 69  1  0
M  CHG  1   6  -1
M  END
>  <UniqueID>  (87) 
76

>  <SMILES>  (87) 
Cc1cc(=O)[n-]c(=O)n1Cc1cc(N2CCC(Cc3cccc(Cl)c3)CC2)ccc1C(=O)Nc1ccccc1

>  <Energy>  (87) 
97.45690953251535

>  <Genealogy>  (87) 
Cc1cc(=O)[n-]c(=O)n1Cc1cc(N2CCC(Cc3cccc(Cl)c3)CC2)ccc1C(=O)Nc1ccccc1 (protonated)
Cc1cc(=O)[n-]c(=O)n1Cc1cc(N2CCC(Cc3cccc(Cl)c3)CC2)ccc1C(=O)Nc1ccccc1 (3D coordinates assigned)
Cc1cc(=O)[n-]c(=O)n1Cc1cc(N2CCC(Cc3cccc(Cl)c3)CC2)ccc1C(=O)Nc1ccccc1 (nonaromatic ring conformer: 97.45690953251535 kcal/mol)

>  <smiles>  (87) 
Cc1cc(=O)[nH]c(=O)n1Cc1cc(N2CCC(Cc3cccc(Cl)c3)CC2)ccc1C(=O)Nc1ccccc1

>  <score_type>  (87) 
oracle

>  <origin>  (87) 
adg

>  <m_score__min__energy>  (87) 
-11.699999999999999

>  <m_primary>  (87) 
energy

$$$$
87:0
     RDKit          3D

 41 44  0  0  0  0  0  0  0  0999 V2000
   64.8106   32.7068   47.0932 H   0  0  0  0  0  0  0  0  0  0  0  0
   63.7110   32.7070   47.1240 C   0  0  0  0  0  0  0  0  0  0  0  0
   63.0230   31.5760   47.5730 C   0  0  0  0  0  0  0  0  0  0  0  0
   63.5819   30.6865   47.8992 H   0  0  0  0  0  0  0  0  0  0  0  0
   61.6240   31.5740   47.6080 C   0  0  0  0  0  0  0  0  0  0  0  0
   61.0852   30.6869   47.9724 H   0  0  0  0  0  0  0  0  0  0  0  0
   60.9090   32.6990   47.1800 C   0  0  0  0  0  0  0  0  0  0  0  0
   59.1120   32.6950   47.2140 S   0  0  0  0  0  0  0  0  0  0  0  0
   58.9260   34.0420   45.9920 C   0  0  0  0  0  0  0  0  0  0  0  0
   59.8284   34.0879   45.3647 H   0  0  0  0  0  0  0  0  0  0  0  0
   58.7872   34.9915   46.5297 H   0  0  0  0  0  0  0  0  0  0  0  0
   57.7350   33.8030   45.1220 C   0  0  0  0  0  0  0  0  0  0  0  0
   56.7360   34.5670   45.2130 O   0  0  0  0  0  0  0  0  0  0  0  0
   57.7520   32.7000   44.1980 N   0  0  0  0  0  0  0  0  0  0  0  0
   57.5230   31.4460   44.4670 C   0  0  0  0  0  0  0  0  0  0  0  0
   56.2800   30.9870   44.7260 N   0  0  0  0  0  0  0  0  0  0  0  0
   56.2420   29.6760   44.9660 N   0  0  0  0  0  0  0  0  0  0  0  0
   57.4570   29.0850   44.9030 C   0  0  0  0  0  0  0  0  0  0  0  0
   57.6720   27.6200   45.0890 C   0  0  0  0  0  0  0  0  0  0  0  0
   56.7369   27.1562   45.4361 H   0  0  0  0  0  0  0  0  0  0  0  0
   57.9763   27.1760   44.1297 H   0  0  0  0  0  0  0  0  0  0  0  0
   58.7470   27.3830   46.1010 C   0  0  0  0  0  0  0  0  0  0  0  0
   59.7510   26.4210   46.0280 C   0  0  0  0  0  0  0  0  0  0  0  0
   59.8298   25.6553   45.2422 H   0  0  0  0  0  0  0  0  0  0  0  0
   60.6160   26.5600   47.0590 N   0  0  0  0  0  0  0  0  0  0  0  0
   61.4690   25.9810   47.2440 H   0  0  0  0  0  0  0  0  0  0  0  0
   60.1730   27.6100   47.7750 C   0  0  0  0  0  0  0  0  0  0  0  0
   60.7570   28.1600   48.9160 C   0  0  0  0  0  0  0  0  0  0  0  0
   61.6705   27.7284   49.3511 H   0  0  0  0  0  0  0  0  0  0  0  0
   60.1380   29.2870   49.4930 C   0  0  0  0  0  0  0  0  0  0  0  0
   60.5696   29.7449   50.3952 H   0  0  0  0  0  0  0  0  0  0  0  0
   58.9670   29.8330   48.9210 C   0  0  0  0  0  0  0  0  0  0  0  0
   58.4926   30.7119   49.3820 H   0  0  0  0  0  0  0  0  0  0  0  0
   58.4030   29.2600   47.7650 C   0  0  0  0  0  0  0  0  0  0  0  0
   57.4945   29.6795   47.3081 H   0  0  0  0  0  0  0  0  0  0  0  0
   59.0350   28.1420   47.2180 C   0  0  0  0  0  0  0  0  0  0  0  0
   58.6630   30.1990   44.5170 S   0  0  0  0  0  0  0  0  0  0  0  0
   61.6010   33.8360   46.7430 C   0  0  0  0  0  0  0  0  0  0  0  0
   61.0434   34.7282   46.4220 H   0  0  0  0  0  0  0  0  0  0  0  0
   62.9990   33.8390   46.7140 C   0  0  0  0  0  0  0  0  0  0  0  0
   63.5394   34.7326   46.3684 H   0  0  0  0  0  0  0  0  0  0  0  0
  1  2  1  0
  2  3  2  0
  3  4  1  0
  3  5  1  0
  5  6  1  0
  5  7  2  0
  7  8  1  0
  8  9  1  0
  9 10  1  0
  9 11  1  0
  9 12  1  0
 12 13  2  0
 12 14  1  0
 14 15  2  0
 15 16  1  0
 16 17  1  0
 17 18  2  0
 18 19  1  0
 19 20  1  0
 19 21  1  0
 19 22  1  0
 22 23  2  0
 23 24  1  0
 23 25  1  0
 25 26  1  0
 25 27  1  0
 27 28  2  0
 28 29  1  0
 28 30  1  0
 30 31  1  0
 30 32  2  0
 32 33  1  0
 32 34  1  0
 34 35  1  0
 34 36  2  0
 18 37  1  0
  7 38  1  0
 38 39  1  0
 38 40  2  0
 40 41  1  0
 40  2  1  0
 37 15  1  0
 36 22  1  0
 36 27  1  0
M  CHG  1  16  -1
M  END
>  <UniqueID>  (88) 
77

>  <SMILES>  (88) 
O=C(CSc1ccccc1)/N=c1/[n-]nc(Cc2c[nH]c3ccccc23)s1

>  <Energy>  (88) 
107.53480592282139

>  <Genealogy>  (88) 
O=C(CSc1ccccc1)N=c1[n-]nc(Cc2c[nH]c3ccccc23)s1 (protonated)
O=C(CSc1ccccc1)/N=c1/[n-]nc(Cc2c[nH]c3ccccc23)s1 (cis-trans isomerization)
O=C(CSc1ccccc1)/N=c1/[n-]nc(Cc2c[nH]c3ccccc23)s1 (3D coordinates assigned)
O=C(CSc1ccccc1)/N=c1/[n-]nc(Cc2c[nH]c3ccccc23)s1 (optimized conformer: 107.53480592282139 kcal/mol)

>  <smiles>  (88) 
O=C(CSc1ccccc1)N=c1[nH]nc(Cc2c[nH]c3ccccc23)s1

>  <score_type>  (88) 
oracle

>  <origin>  (88) 
adg

>  <m_score__min__energy>  (88) 
-10.52

>  <m_primary>  (88) 
energy

$$$$
88:0
     RDKit          3D

 68 72  0  0  0  0  0  0  0  0999 V2000
   58.9880   26.7980   45.4680 O   0  0  0  0  0  0  0  0  0  0  0  0
   57.9370   26.9020   44.7760 C   0  0  0  0  0  0  0  0  0  0  0  0
   57.3530   25.6740   44.1410 C   0  0  0  0  0  0  0  0  0  0  0  0
   56.8880   24.7020   45.1970 C   0  0  0  0  0  0  0  0  0  0  0  0
   57.5140   23.4480   45.3130 C   0  0  0  0  0  0  0  0  0  0  0  0
   57.0700   22.5230   46.2640 C   0  0  0  0  0  0  0  0  0  0  0  0
   55.9960   22.8380   47.1010 C   0  0  0  0  0  0  0  0  0  0  0  0
   55.3600   24.0780   46.9860 C   0  0  0  0  0  0  0  0  0  0  0  0
   55.7950   25.0070   46.0340 C   0  0  0  0  0  0  0  0  0  0  0  0
   55.1370   26.2270   45.9270 O   0  0  0  0  0  0  0  0  0  0  0  0
   57.2860   28.1760   44.6200 N   0  0  0  0  0  0  0  0  0  0  0  0
   57.8780   29.4410   44.9680 C   0  0  0  0  0  0  0  0  0  0  0  0
   57.3940   30.6090   44.3650 C   0  0  0  0  0  0  0  0  0  0  0  0
   57.9590   31.8490   44.6700 C   0  0  0  0  0  0  0  0  0  0  0  0
   59.0300   31.9400   45.5650 C   0  0  0  0  0  0  0  0  0  0  0  0
   59.5480   33.2280   45.8990 N   0  0  0  0  0  0  0  0  0  0  0  0
   59.3320   33.8780   47.4850 S   0  0  0  0  0  0  0  0  0  0  0  0
   58.2710   33.1040   48.2160 O   0  0  0  0  0  0  0  0  0  0  0  0
   58.8920   35.3120   47.3760 O   0  0  0  0  0  0  0  0  0  0  0  0
   60.8590   33.7850   48.3540 C   0  0  0  0  0  0  0  0  0  0  0  0
   60.8810   33.7460   49.7500 C   0  0  0  0  0  0  0  0  0  0  0  0
   62.0960   33.7140   50.4380 C   0  0  0  0  0  0  0  0  0  0  0  0
   63.3300   33.7310   49.7430 C   0  0  0  0  0  0  0  0  0  0  0  0
   64.6040   33.6890   50.4580 N   0  0  0  0  0  0  0  0  0  0  0  0
   65.7130   32.8770   49.9140 C   0  0  0  0  0  0  0  0  0  0  0  0
   66.9700   32.8860   50.7900 C   0  0  0  0  0  0  0  0  0  0  0  0
   67.1740   34.1510   51.3730 O   0  0  0  0  0  0  0  0  0  0  0  0
   66.1550   34.3730   52.3180 C   0  0  0  0  0  0  0  0  0  0  0  0
   64.8050   34.5710   51.6270 C   0  0  0  0  0  0  0  0  0  0  0  0
   63.2840   33.7790   48.3300 C   0  0  0  0  0  0  0  0  0  0  0  0
   62.0640   33.8060   47.6480 C   0  0  0  0  0  0  0  0  0  0  0  0
   59.5540   30.7690   46.1580 C   0  0  0  0  0  0  0  0  0  0  0  0
   60.6620   30.8190   47.1430 C   0  0  0  0  0  0  0  0  0  0  0  0
   61.8210   31.1070   46.7360 O   0  0  0  0  0  0  0  0  0  0  0  0
   60.4530   30.5480   48.5850 C   0  0  0  0  0  0  0  0  0  0  0  0
   59.1570   30.4150   49.1150 C   0  0  0  0  0  0  0  0  0  0  0  0
   58.9740   30.1560   50.4770 C   0  0  0  0  0  0  0  0  0  0  0  0
   60.0790   30.0420   51.3220 C   0  0  0  0  0  0  0  0  0  0  0  0
   61.3700   30.1890   50.8090 C   0  0  0  0  0  0  0  0  0  0  0  0
   61.5590   30.4450   49.4490 C   0  0  0  0  0  0  0  0  0  0  0  0
   58.9680   29.5280   45.8540 C   0  0  0  0  0  0  0  0  0  0  0  0
   56.4971   25.9634   43.5136 H   0  0  0  0  0  0  0  0  0  0  0  0
   58.1267   25.1890   43.5277 H   0  0  0  0  0  0  0  0  0  0  0  0
   58.3564   23.1934   44.6531 H   0  0  0  0  0  0  0  0  0  0  0  0
   57.5672   21.5458   46.3532 H   0  0  0  0  0  0  0  0  0  0  0  0
   55.6510   22.1104   47.8503 H   0  0  0  0  0  0  0  0  0  0  0  0
   54.5151   24.3240   47.6459 H   0  0  0  0  0  0  0  0  0  0  0  0
   56.2990   28.1800   44.2740 H   0  0  0  0  0  0  0  0  0  0  0  0
   56.5633   30.5490   43.6464 H   0  0  0  0  0  0  0  0  0  0  0  0
   57.5588   32.7610   44.2029 H   0  0  0  0  0  0  0  0  0  0  0  0
   59.9350   33.7404   50.3113 H   0  0  0  0  0  0  0  0  0  0  0  0
   62.0945   33.6750   51.5373 H   0  0  0  0  0  0  0  0  0  0  0  0
   65.3663   31.8378   49.8147 H   0  0  0  0  0  0  0  0  0  0  0  0
   65.9919   33.3205   48.9468 H   0  0  0  0  0  0  0  0  0  0  0  0
   66.8570   32.1371   51.5877 H   0  0  0  0  0  0  0  0  0  0  0  0
   67.8380   32.6497   50.1569 H   0  0  0  0  0  0  0  0  0  0  0  0
   66.0917   33.5047   52.9904 H   0  0  0  0  0  0  0  0  0  0  0  0
   66.3955   35.2827   52.8877 H   0  0  0  0  0  0  0  0  0  0  0  0
   64.0075   34.3681   52.3570 H   0  0  0  0  0  0  0  0  0  0  0  0
   64.7803   35.6069   51.2578 H   0  0  0  0  0  0  0  0  0  0  0  0
   64.2237   33.7953   47.7584 H   0  0  0  0  0  0  0  0  0  0  0  0
   62.0529   33.8440   46.5487 H   0  0  0  0  0  0  0  0  0  0  0  0
   58.2829   30.5152   48.4548 H   0  0  0  0  0  0  0  0  0  0  0  0
   57.9580   30.0420   50.8829 H   0  0  0  0  0  0  0  0  0  0  0  0
   59.9332   29.8362   52.3927 H   0  0  0  0  0  0  0  0  0  0  0  0
   62.2394   30.1030   51.4774 H   0  0  0  0  0  0  0  0  0  0  0  0
   62.5774   30.5667   49.0513 H   0  0  0  0  0  0  0  0  0  0  0  0
   59.3668   28.6123   46.3149 H   0  0  0  0  0  0  0  0  0  0  0  0
  1  2  2  0
  2  3  1  0
  3  4  1  0
  4  5  2  0
  5  6  1  0
  6  7  2  0
  7  8  1  0
  8  9  2  0
  9 10  1  0
  2 11  1  0
 11 12  1  0
 12 13  2  0
 13 14  1  0
 14 15  2  0
 15 16  1  0
 16 17  1  0
 17 18  2  0
 17 19  2  0
 17 20  1  0
 20 21  2  0
 21 22  1  0
 22 23  2  0
 23 24  1  0
 24 25  1  0
 25 26  1  0
 26 27  1  0
 27 28  1  0
 28 29  1  0
 23 30  1  0
 30 31  2  0
 15 32  1  0
 32 33  1  0
 33 34  2  0
 33 35  1  0
 35 36  2  0
 36 37  1  0
 37 38  2  0
 38 39  1  0
 39 40  2  0
 32 41  2  0
  9  4  1  0
 41 12  1  0
 31 20  1  0
 40 35  1  0
 29 24  1  0
  3 42  1  0
  3 43  1  0
  5 44  1  0
  6 45  1  0
  7 46  1  0
  8 47  1  0
 11 48  1  0
 13 49  1  0
 14 50  1  0
 21 51  1  0
 22 52  1  0
 25 53  1  0
 25 54  1  0
 26 55  1  0
 26 56  1  0
 28 57  1  0
 28 58  1  0
 29 59  1  0
 29 60  1  0
 30 61  1  0
 31 62  1  0
 36 63  1  0
 37 64  1  0
 38 65  1  0
 39 66  1  0
 40 67  1  0
 41 68  1  0
M  CHG  2  10  -1  16  -1
M  END
>  <UniqueID>  (89) 
78

>  <SMILES>  (89) 
O=C(Cc1ccccc1[O-])Nc1ccc([N-]S(=O)(=O)c2ccc(N3CCOCC3)cc2)c(C(=O)c2ccccc2)c1

>  <Energy>  (89) 
97.69678400426383

>  <Genealogy>  (89) 
O=C(Cc1ccccc1[O-])Nc1ccc([N-]S(=O)(=O)c2ccc(N3CCOCC3)cc2)c(C(=O)c2ccccc2)c1 (protonated)
O=C(Cc1ccccc1[O-])Nc1ccc([N-]S(=O)(=O)c2ccc(N3CCOCC3)cc2)c(C(=O)c2ccccc2)c1 (3D coordinates assigned)
O=C(Cc1ccccc1[O-])Nc1ccc([N-]S(=O)(=O)c2ccc(N3CCOCC3)cc2)c(C(=O)c2ccccc2)c1 (nonaromatic ring conformer: 97.69678400426383 kcal/mol)

>  <smiles>  (89) 
O=C(Cc1ccccc1O)Nc1ccc(NS(=O)(=O)c2ccc(N3CCOCC3)cc2)c(C(=O)c2ccccc2)c1

>  <score_type>  (89) 
oracle

>  <origin>  (89) 
adg

>  <m_score__min__energy>  (89) 
-15.69

>  <m_primary>  (89) 
energy

$$$$
89:0
     RDKit          3D

 46 48  0  0  0  0  0  0  0  0999 V2000
   58.2030   33.4720   44.1530 C   0  0  0  0  0  0  0  0  0  0  0  0
   57.4260   32.6480   45.0140 O   0  0  0  0  0  0  0  0  0  0  0  0
   57.9370   31.5970   45.7930 C   0  0  0  0  0  0  0  0  0  0  0  0
   57.9030   30.2590   45.3480 C   0  0  0  0  0  0  0  0  0  0  0  0
   58.4670   29.2280   46.1190 C   0  0  0  0  0  0  0  0  0  0  0  0
   58.4340   27.8280   45.6320 C   0  0  0  0  0  0  0  0  0  0  0  0
   58.9720   27.5410   44.5260 O   0  0  0  0  0  0  0  0  0  0  0  0
   57.7840   26.7950   46.3920 N   0  0  0  0  0  0  0  0  0  0  0  0
   57.8820   25.4090   46.0340 C   0  0  0  0  0  0  0  0  0  0  0  0
   59.1570   24.8550   45.8500 C   0  0  0  0  0  0  0  0  0  0  0  0
   59.3080   23.4960   45.5710 C   0  0  0  0  0  0  0  0  0  0  0  0
   58.1860   22.6770   45.4680 C   0  0  0  0  0  0  0  0  0  0  0  0
   56.9070   23.2160   45.6210 C   0  0  0  0  0  0  0  0  0  0  0  0
   56.7320   24.5880   45.8860 C   0  0  0  0  0  0  0  0  0  0  0  0
   55.3550   25.1370   45.9420 C   0  0  0  0  0  0  0  0  0  0  0  0
   55.1450   26.5470   45.9960 N   0  0  0  0  0  0  0  0  0  0  0  0
   54.3580   24.3660   45.9720 O   0  0  0  0  0  0  0  0  0  0  0  0
   59.0900   29.5510   47.3350 C   0  0  0  0  0  0  0  0  0  0  0  0
   59.1200   30.8710   47.7860 C   0  0  0  0  0  0  0  0  0  0  0  0
   58.5260   31.8930   47.0390 C   0  0  0  0  0  0  0  0  0  0  0  0
   58.5760   33.1990   47.5440 O   0  0  0  0  0  0  0  0  0  0  0  0
   59.5590   34.1400   47.2070 C   0  0  0  0  0  0  0  0  0  0  0  0
   59.2260   35.2590   46.7260 O   0  0  0  0  0  0  0  0  0  0  0  0
   60.9850   33.8370   47.4610 C   0  0  0  0  0  0  0  0  0  0  0  0
   61.9130   33.8050   46.4030 C   0  0  0  0  0  0  0  0  0  0  0  0
   63.2590   33.5160   46.6530 C   0  0  0  0  0  0  0  0  0  0  0  0
   63.6900   33.2550   47.9540 C   0  0  0  0  0  0  0  0  0  0  0  0
   62.7780   33.2830   49.0120 C   0  0  0  0  0  0  0  0  0  0  0  0
   61.4310   33.5730   48.7690 C   0  0  0  0  0  0  0  0  0  0  0  0
   58.8338   34.1410   44.7567 H   0  0  0  0  0  0  0  0  0  0  0  0
   58.8414   32.8399   43.5183 H   0  0  0  0  0  0  0  0  0  0  0  0
   57.5345   34.0722   43.5183 H   0  0  0  0  0  0  0  0  0  0  0  0
   57.4288   30.0192   44.3848 H   0  0  0  0  0  0  0  0  0  0  0  0
   57.0270   27.0700   47.0580 H   0  0  0  0  0  0  0  0  0  0  0  0
   60.0465   25.4977   45.9263 H   0  0  0  0  0  0  0  0  0  0  0  0
   60.3133   23.0715   45.4324 H   0  0  0  0  0  0  0  0  0  0  0  0
   58.3079   21.6027   45.2656 H   0  0  0  0  0  0  0  0  0  0  0  0
   56.0268   22.5620   45.5336 H   0  0  0  0  0  0  0  0  0  0  0  0
   55.1700   27.1260   45.1270 H   0  0  0  0  0  0  0  0  0  0  0  0
   59.5578   28.7577   47.9365 H   0  0  0  0  0  0  0  0  0  0  0  0
   59.6157   31.1100   48.7384 H   0  0  0  0  0  0  0  0  0  0  0  0
   61.5784   34.0081   45.3750 H   0  0  0  0  0  0  0  0  0  0  0  0
   63.9791   33.4945   45.8218 H   0  0  0  0  0  0  0  0  0  0  0  0
   64.7487   33.0270   48.1469 H   0  0  0  0  0  0  0  0  0  0  0  0
   63.1193   33.0768   50.0372 H   0  0  0  0  0  0  0  0  0  0  0  0
   60.7167   33.5947   49.6053 H   0  0  0  0  0  0  0  0  0  0  0  0
  1  2  1  0
  2  3  1  0
  3  4  2  0
  4  5  1  0
  5  6  1  0
  6  7  2  0
  6  8  1  0
  8  9  1  0
  9 10  2  0
 10 11  1  0
 11 12  2  0
 12 13  1  0
 13 14  2  0
 14 15  1  0
 15 16  1  0
 15 17  2  0
  5 18  2  0
 18 19  1  0
 19 20  2  0
 20 21  1  0
 21 22  1  0
 22 23  2  0
 22 24  1  0
 24 25  2  0
 25 26  1  0
 26 27  2  0
 27 28  1  0
 28 29  2  0
 20  3  1  0
 29 24  1  0
 14  9  1  0
  1 30  1  0
  1 31  1  0
  1 32  1  0
  4 33  1  0
  8 34  1  0
 10 35  1  0
 11 36  1  0
 12 37  1  0
 13 38  1  0
 16 39  1  0
 18 40  1  0
 19 41  1  0
 25 42  1  0
 26 43  1  0
 27 44  1  0
 28 45  1  0
 29 46  1  0
M  CHG  1  16  -1
M  END
>  <UniqueID>  (90) 
79

>  <SMILES>  (90) 
COc1cc(C(=O)Nc2ccccc2C([NH-])=O)ccc1OC(=O)c1ccccc1

>  <Energy>  (90) 
65.61498670562491

>  <Genealogy>  (90) 
COc1cc(C(=O)Nc2ccccc2C([NH-])=O)ccc1OC(=O)c1ccccc1 (protonated)
COc1cc(C(=O)Nc2ccccc2C([NH-])=O)ccc1OC(=O)c1ccccc1 (3D coordinates assigned)
COc1cc(C(=O)Nc2ccccc2C([NH-])=O)ccc1OC(=O)c1ccccc1 (optimized conformer: 65.61498670562491 kcal/mol)

>  <smiles>  (90) 
COc1cc(C(=O)Nc2ccccc2C(N)=O)ccc1OC(=O)c1ccccc1

>  <score_type>  (90) 
oracle

>  <origin>  (90) 
adg

>  <m_score__min__energy>  (90) 
-11.76

>  <m_primary>  (90) 
energy

$$$$
90:0
     RDKit          3D

 54 57  0  0  0  0  0  0  0  0999 V2000
   56.8510   25.2110   44.1050 N   0  0  0  0  0  0  0  0  0  0  0  0
   56.7780   25.7950   45.7300 S   0  0  0  0  0  0  0  0  0  0  0  0
   55.3840   26.2730   46.0270 O   0  0  0  0  0  0  0  0  0  0  0  0
   57.1210   24.6860   46.6840 O   0  0  0  0  0  0  0  0  0  0  0  0
   57.9210   27.1190   45.9280 C   0  0  0  0  0  0  0  0  0  0  0  0
   58.8370   27.4070   44.9080 C   0  0  0  0  0  0  0  0  0  0  0  0
   59.7430   28.4590   45.0550 C   0  0  0  0  0  0  0  0  0  0  0  0
   59.7490   29.2340   46.2260 C   0  0  0  0  0  0  0  0  0  0  0  0
   60.7370   30.3600   46.3890 C   0  0  0  0  0  0  0  0  0  0  0  0
   61.3280   30.4250   47.8030 C   0  0  0  0  0  0  0  0  0  0  0  0
   60.3730   30.9990   48.7760 N   0  0  0  0  0  0  0  0  0  0  0  0
   59.9000   32.2870   48.6330 C   0  0  0  0  0  0  0  0  0  0  0  0
   60.4200   33.3700   47.2800 S   0  0  0  0  0  0  0  0  0  0  0  0
   58.8280   34.2510   47.0710 C   0  0  0  0  0  0  0  0  0  0  0  0
   57.8280   33.4050   46.3550 C   0  0  0  0  0  0  0  0  0  0  0  0
   56.6450   33.8250   46.2220 O   0  0  0  0  0  0  0  0  0  0  0  0
   58.2240   32.1210   45.8500 N   0  0  0  0  0  0  0  0  0  0  0  0
   57.6240   31.4330   44.9220 C   0  0  0  0  0  0  0  0  0  0  0  0
   57.7870   31.8040   43.5810 C   0  0  0  0  0  0  0  0  0  0  0  0
   57.0930   31.1120   42.5860 C   0  0  0  0  0  0  0  0  0  0  0  0
   56.2470   30.0590   42.9340 C   0  0  0  0  0  0  0  0  0  0  0  0
   56.1130   29.7070   44.2780 C   0  0  0  0  0  0  0  0  0  0  0  0
   56.7940   30.3950   45.2320 N   0  0  0  0  0  0  0  0  0  0  0  0
   59.0820   32.8220   49.5770 N   0  0  0  0  0  0  0  0  0  0  0  0
   58.6600   32.1090   50.6450 C   0  0  0  0  0  0  0  0  0  0  0  0
   57.7930   32.6900   51.5780 C   0  0  0  0  0  0  0  0  0  0  0  0
   57.3510   31.9520   52.6790 C   0  0  0  0  0  0  0  0  0  0  0  0
   57.7750   30.6310   52.8510 C   0  0  0  0  0  0  0  0  0  0  0  0
   58.6440   30.0450   51.9250 C   0  0  0  0  0  0  0  0  0  0  0  0
   59.0930   30.7830   50.8130 C   0  0  0  0  0  0  0  0  0  0  0  0
   59.9740   30.2470   49.8600 C   0  0  0  0  0  0  0  0  0  0  0  0
   60.4010   29.0670   50.0070 O   0  0  0  0  0  0  0  0  0  0  0  0
   58.8130   28.9580   47.2360 C   0  0  0  0  0  0  0  0  0  0  0  0
   57.9050   27.9060   47.0870 C   0  0  0  0  0  0  0  0  0  0  0  0
   55.9230   24.7810   43.8940 H   0  0  0  0  0  0  0  0  0  0  0  0
   56.9450   26.0460   43.4840 H   0  0  0  0  0  0  0  0  0  0  0  0
   58.8425   26.8027   43.9889 H   0  0  0  0  0  0  0  0  0  0  0  0
   60.4567   28.6822   44.2483 H   0  0  0  0  0  0  0  0  0  0  0  0
   61.5573   30.2159   45.6704 H   0  0  0  0  0  0  0  0  0  0  0  0
   60.2006   31.3032   46.2080 H   0  0  0  0  0  0  0  0  0  0  0  0
   61.5937   29.4070   48.1242 H   0  0  0  0  0  0  0  0  0  0  0  0
   62.2142   31.0759   47.7717 H   0  0  0  0  0  0  0  0  0  0  0  0
   58.4308   34.5128   48.0628 H   0  0  0  0  0  0  0  0  0  0  0  0
   59.0087   35.1557   46.4720 H   0  0  0  0  0  0  0  0  0  0  0  0
   58.4569   32.6345   43.3136 H   0  0  0  0  0  0  0  0  0  0  0  0
   57.2133   31.3967   41.5303 H   0  0  0  0  0  0  0  0  0  0  0  0
   55.6916   29.5121   42.1579 H   0  0  0  0  0  0  0  0  0  0  0  0
   55.4562   28.8727   44.5651 H   0  0  0  0  0  0  0  0  0  0  0  0
   57.4591   33.7295   51.4441 H   0  0  0  0  0  0  0  0  0  0  0  0
   56.6693   32.4105   53.4105 H   0  0  0  0  0  0  0  0  0  0  0  0
   57.4241   30.0508   53.7172 H   0  0  0  0  0  0  0  0  0  0  0  0
   58.9772   29.0061   52.0656 H   0  0  0  0  0  0  0  0  0  0  0  0
   58.7944   29.5724   48.1482 H   0  0  0  0  0  0  0  0  0  0  0  0
   57.1752   27.6952   47.8826 H   0  0  0  0  0  0  0  0  0  0  0  0
  1  2  1  0
  2  3  2  0
  2  4  2  0
  2  5  1  0
  5  6  2  0
  6  7  1  0
  7  8  2  0
  8  9  1  0
  9 10  1  0
 10 11  1  0
 11 12  1  0
 12 13  1  0
 13 14  1  0
 14 15  1  0
 15 16  2  0
 15 17  1  0
 17 18  2  3
 18 19  1  0
 19 20  2  0
 20 21  1  0
 21 22  2  0
 22 23  1  0
 12 24  2  0
 24 25  1  0
 25 26  2  0
 26 27  1  0
 27 28  2  0
 28 29  1  0
 29 30  2  0
 30 31  1  0
 31 32  2  0
  8 33  1  0
 33 34  2  0
 34  5  1  0
 31 11  1  0
 23 18  1  0
 30 25  1  0
  1 35  1  0
  1 36  1  0
  6 37  1  0
  7 38  1  0
  9 39  1  0
  9 40  1  0
 10 41  1  0
 10 42  1  0
 14 43  1  0
 14 44  1  0
 19 45  1  0
 20 46  1  0
 21 47  1  0
 22 48  1  0
 26 49  1  0
 27 50  1  0
 28 51  1  0
 29 52  1  0
 33 53  1  0
 34 54  1  0
M  CHG  1  23  -1
M  END
>  <UniqueID>  (91) 
80

>  <SMILES>  (91) 
NS(=O)(=O)c1ccc(CCn2c(SCC(=O)N=c3cccc[n-]3)nc3ccccc3c2=O)cc1

>  <Energy>  (91) 
60.18129166655039

>  <Genealogy>  (91) 
NS(=O)(=O)c1ccc(CCn2c(SCC(=O)N=c3cccc[n-]3)nc3ccccc3c2=O)cc1 (protonated)
NS(=O)(=O)c1ccc(CCn2c(SCC(=O)N=c3cccc[n-]3)nc3ccccc3c2=O)cc1 (3D coordinates assigned)
NS(=O)(=O)c1ccc(CCn2c(SCC(=O)N=c3cccc[n-]3)nc3ccccc3c2=O)cc1 (optimized conformer: 60.18129166655039 kcal/mol)

>  <smiles>  (91) 
NS(=O)(=O)c1ccc(CCn2c(SCC(=O)N=c3cccc[nH]3)nc3ccccc3c2=O)cc1

>  <score_type>  (91) 
oracle

>  <origin>  (91) 
adg

>  <m_score__min__energy>  (91) 
-11.27

>  <m_primary>  (91) 
energy

$$$$
