0:0
     RDKit          3D

 60 62  0  0  0  0  0  0  0  0999 V2000
   57.7410   33.8800   45.1130 C   0  0  0  0  0  0  0  0  0  0  0  0
   57.5690   33.1250   46.4340 C   0  0  0  0  0  0  0  0  0  0  0  0
   58.5920   33.5720   47.4420 C   0  0  0  0  0  0  0  0  0  0  0  0
   59.6140   34.4770   47.2160 C   0  0  0  0  0  0  0  0  0  0  0  0
   60.2970   34.5800   48.4140 C   0  0  0  0  0  0  0  0  0  0  0  0
   59.6420   33.7390   49.2980 C   0  0  0  0  0  0  0  0  0  0  0  0
   60.0350   33.5110   50.7080 C   0  0  0  0  0  0  0  0  0  0  0  0
   61.1570   33.9510   51.0870 O   0  0  0  0  0  0  0  0  0  0  0  0
   59.1950   32.8020   51.6490 N   0  0  0  0  0  0  0  0  0  0  0  0
   58.1230   33.5000   52.3710 C   0  0  0  0  0  0  0  0  0  0  0  0
   59.3330   31.3400   51.8040 C   0  0  0  0  0  0  0  0  0  0  0  0
   58.4680   30.5240   50.7940 C   0  0  1  0  0  0  0  0  0  0  0  0
   59.3010   29.5780   49.9010 C   0  0  0  0  0  0  0  0  0  0  0  0
   60.4150   30.2950   49.1690 C   0  0  0  0  0  0  0  0  0  0  0  0
   61.5980   30.6470   49.8470 C   0  0  0  0  0  0  0  0  0  0  0  0
   62.6340   31.3080   49.1730 C   0  0  0  0  0  0  0  0  0  0  0  0
   62.4950   31.6320   47.8170 C   0  0  0  0  0  0  0  0  0  0  0  0
   63.5220   32.2870   47.1370 O   0  0  0  0  0  0  0  0  0  0  0  0
   61.3110   31.3010   47.1430 C   0  0  0  0  0  0  0  0  0  0  0  0
   60.2740   30.6420   47.8140 C   0  0  0  0  0  0  0  0  0  0  0  0
   57.3970   29.7410   51.4460 N   0  0  0  0  0  0  0  0  0  0  0  0
   56.5370   30.5470   52.3270 C   0  0  0  0  0  0  0  0  0  0  0  0
   55.3020   29.7300   52.7130 C   0  0  0  0  0  0  0  0  0  0  0  0
   54.0340   30.4850   52.4220 C   0  0  0  0  0  0  0  0  0  0  0  0
   53.7540   30.9300   51.1160 C   0  0  0  0  0  0  0  0  0  0  0  0
   52.5930   31.6660   50.8590 C   0  0  0  0  0  0  0  0  0  0  0  0
   51.7010   31.9580   51.9020 C   0  0  0  0  0  0  0  0  0  0  0  0
   50.5510   32.6980   51.6470 O   0  0  0  0  0  0  0  0  0  0  0  0
   51.9620   31.4940   53.1960 C   0  0  0  0  0  0  0  0  0  0  0  0
   53.1180   30.7550   53.4580 C   0  0  0  0  0  0  0  0  0  0  0  0
   58.6260   33.1600   48.6890 O   0  0  0  0  0  0  0  0  0  0  0  0
   57.9809   34.9331   45.3211 H   0  0  0  0  0  0  0  0  0  0  0  0
   58.5585   33.4251   44.5344 H   0  0  0  0  0  0  0  0  0  0  0  0
   56.8071   33.8241   44.5344 H   0  0  0  0  0  0  0  0  0  0  0  0
   56.5620   33.3191   46.8318 H   0  0  0  0  0  0  0  0  0  0  0  0
   57.7058   32.0499   46.2459 H   0  0  0  0  0  0  0  0  0  0  0  0
   59.8371   35.0054   46.2773 H   0  0  0  0  0  0  0  0  0  0  0  0
   61.1797   35.2024   48.6221 H   0  0  0  0  0  0  0  0  0  0  0  0
   58.2826   33.3961   53.4544 H   0  0  0  0  0  0  0  0  0  0  0  0
   58.1319   34.5660   52.0996 H   0  0  0  0  0  0  0  0  0  0  0  0
   57.1517   33.0607   52.0996 H   0  0  0  0  0  0  0  0  0  0  0  0
   60.3893   31.0719   51.6542 H   0  0  0  0  0  0  0  0  0  0  0  0
   58.9780   31.0862   52.8137 H   0  0  0  0  0  0  0  0  0  0  0  0
   58.0082   31.2951   50.1584 H   0  0  0  0  0  0  0  0  0  0  0  0
   59.7433   28.7950   50.5345 H   0  0  0  0  0  0  0  0  0  0  0  0
   58.6245   29.1552   49.1437 H   0  0  0  0  0  0  0  0  0  0  0  0
   61.7098   30.4014   50.9134 H   0  0  0  0  0  0  0  0  0  0  0  0
   63.5572   31.5727   49.7092 H   0  0  0  0  0  0  0  0  0  0  0  0
   64.4770   31.9470   47.1620 H   0  0  0  0  0  0  0  0  0  0  0  0
   61.1962   31.5607   46.0803 H   0  0  0  0  0  0  0  0  0  0  0  0
   59.3453   30.3948   47.2789 H   0  0  0  0  0  0  0  0  0  0  0  0
   57.7790   28.9120   51.9550 H   0  0  0  0  0  0  0  0  0  0  0  0
   57.0948   30.8210   53.2346 H   0  0  0  0  0  0  0  0  0  0  0  0
   56.2246   31.4613   51.8013 H   0  0  0  0  0  0  0  0  0  0  0  0
   55.2997   28.7914   52.1394 H   0  0  0  0  0  0  0  0  0  0  0  0
   55.3444   29.5261   53.7931 H   0  0  0  0  0  0  0  0  0  0  0  0
   54.4498   30.6983   50.2961 H   0  0  0  0  0  0  0  0  0  0  0  0
   52.3789   32.0163   49.8385 H   0  0  0  0  0  0  0  0  0  0  0  0
   51.2545   31.7119   54.0096 H   0  0  0  0  0  0  0  0  0  0  0  0
   53.3135   30.3833   54.4747 H   0  0  0  0  0  0  0  0  0  0  0  0
  1  2  1  0
  2  3  1  0
  3  4  2  0
  4  5  1  0
  5  6  2  0
  6  7  1  0
  7  8  2  0
  7  9  1  0
  9 10  1  0
  9 11  1  0
 11 12  1  0
 12 13  1  0
 13 14  1  0
 14 15  2  0
 15 16  1  0
 16 17  2  0
 17 18  1  0
 17 19  1  0
 19 20  2  0
 12 21  1  0
 21 22  1  0
 22 23  1  0
 23 24  1  0
 24 25  2  0
 25 26  1  0
 26 27  2  0
 27 28  1  0
 27 29  1  0
 29 30  2  0
  6 31  1  0
 31  3  1  0
 20 14  1  0
 30 24  1  0
  1 32  1  0
  1 33  1  0
  1 34  1  0
  2 35  1  0
  2 36  1  0
  4 37  1  0
  5 38  1  0
 10 39  1  0
 10 40  1  0
 10 41  1  0
 11 42  1  0
 11 43  1  0
 12 44  1  6
 13 45  1  0
 13 46  1  0
 15 47  1  0
 16 48  1  0
 18 49  1  0
 19 50  1  0
 20 51  1  0
 21 52  1  0
 22 53  1  0
 22 54  1  0
 23 55  1  0
 23 56  1  0
 25 57  1  0
 26 58  1  0
 29 59  1  0
 30 60  1  0
M  CHG  1  28  -1
M  END
>  <UniqueID>  (1) 
1

>  <SMILES>  (1) 
CCc1ccc(C(=O)N(C)C[C@@H](Cc2ccc(O)cc2)NCCc2ccc([O-])cc2)o1

>  <Energy>  (1) 
83.31462317260154

>  <Genealogy>  (1) 
CCc1ccc(C(=O)N(C)CC(Cc2ccc(O)cc2)NCCc2ccc([O-])cc2)o1 (protonated)
CCc1ccc(C(=O)N(C)C[C@@H](Cc2ccc(O)cc2)NCCc2ccc([O-])cc2)o1 (chirality)
CCc1ccc(C(=O)N(C)C[C@@H](Cc2ccc(O)cc2)NCCc2ccc([O-])cc2)o1 (3D coordinates assigned)
CCc1ccc(C(=O)N(C)C[C@@H](Cc2ccc(O)cc2)NCCc2ccc([O-])cc2)o1 (optimized conformer: 83.31462317260154 kcal/mol)

>  <smiles>  (1) 
CCc1ccc(C(=O)N(C)CC(Cc2ccc(O)cc2)NCCc2ccc(O)cc2)o1

>  <score_type>  (1) 
oracle

>  <origin>  (1) 
adg

>  <m_score__min__energy>  (1) 
-11.710000000000001

>  <m_primary>  (1) 
energy

$$$$
1:0
     RDKit          3D

 50 53  0  0  0  0  0  0  0  0999 V2000
   59.6050   34.3060   44.9900 C   0  0  0  0  0  0  0  0  0  0  0  0
   59.3570   33.7890   46.3830 C   0  0  0  0  0  0  0  0  0  0  0  0
   59.8900   34.5080   47.4670 C   0  0  0  0  0  0  0  0  0  0  0  0
   59.7390   34.0420   48.7740 C   0  0  0  0  0  0  0  0  0  0  0  0
   59.0550   32.8520   49.0160 C   0  0  0  0  0  0  0  0  0  0  0  0
   58.5020   32.1340   47.9550 C   0  0  0  0  0  0  0  0  0  0  0  0
   58.6180   32.6020   46.6330 C   0  0  0  0  0  0  0  0  0  0  0  0
   57.9690   31.8130   45.5550 C   0  0  0  0  0  0  0  0  0  0  0  0
   57.1230   32.3770   44.8110 O   0  0  0  0  0  0  0  0  0  0  0  0
   58.2960   30.3910   45.3110 C   0  0  0  0  0  0  0  0  0  0  0  0
   57.5020   29.4540   44.6520 C   0  0  0  0  0  0  0  0  0  0  0  0
   56.1260   29.6020   44.1430 C   0  0  0  0  0  0  0  0  0  0  0  0
   55.1350   29.3090   44.8600 O   0  0  0  0  0  0  0  0  0  0  0  0
   55.9150   30.0380   42.8400 O   0  0  0  0  0  0  0  0  0  0  0  0
   58.2290   28.2780   44.6140 C   0  0  0  0  0  0  0  0  0  0  0  0
   59.4230   28.5300   45.2530 C   0  0  0  0  0  0  0  0  0  0  0  0
   59.4650   29.8100   45.6700 N   0  0  0  0  0  0  0  0  0  0  0  0
   60.5860   30.4200   46.3880 C   0  0  0  0  0  0  0  0  0  0  0  0
   60.8060   29.7080   47.7240 C   0  0  0  0  0  0  0  0  0  0  0  0
   61.5460   30.5970   48.6780 C   0  0  0  0  0  0  0  0  0  0  0  0
   61.4050   30.6200   50.0620 C   0  0  0  0  0  0  0  0  0  0  0  0
   62.1670   31.6080   50.5910 N   0  0  0  0  0  0  0  0  0  0  0  0
   62.2480   31.9730   52.0010 C   0  0  0  0  0  0  0  0  0  0  0  0
   62.7650   32.2260   49.5520 C   0  0  0  0  0  0  0  0  0  0  0  0
   63.6190   33.3320   49.5850 C   0  0  0  0  0  0  0  0  0  0  0  0
   64.1060   33.8240   48.3610 C   0  0  0  0  0  0  0  0  0  0  0  0
   63.7320   33.2140   47.1430 C   0  0  0  0  0  0  0  0  0  0  0  0
   62.8670   32.1060   47.1380 C   0  0  0  0  0  0  0  0  0  0  0  0
   62.4060   31.6340   48.3670 C   0  0  0  0  0  0  0  0  0  0  0  0
   60.0801   35.2965   45.0457 H   0  0  0  0  0  0  0  0  0  0  0  0
   60.2678   33.6110   44.4536 H   0  0  0  0  0  0  0  0  0  0  0  0
   58.6482   34.3880   44.4536 H   0  0  0  0  0  0  0  0  0  0  0  0
   60.4317   35.4476   47.2833 H   0  0  0  0  0  0  0  0  0  0  0  0
   60.1601   34.6144   49.6137 H   0  0  0  0  0  0  0  0  0  0  0  0
   58.9509   32.4781   50.0453 H   0  0  0  0  0  0  0  0  0  0  0  0
   57.9697   31.1922   48.1541 H   0  0  0  0  0  0  0  0  0  0  0  0
   57.9147   27.3260   44.1613 H   0  0  0  0  0  0  0  0  0  0  0  0
   60.2258   27.7927   45.4012 H   0  0  0  0  0  0  0  0  0  0  0  0
   61.4972   30.3370   45.7774 H   0  0  0  0  0  0  0  0  0  0  0  0
   60.3574   31.4790   46.5784 H   0  0  0  0  0  0  0  0  0  0  0  0
   59.8305   29.4438   48.1582 H   0  0  0  0  0  0  0  0  0  0  0  0
   61.4020   28.8002   47.5490 H   0  0  0  0  0  0  0  0  0  0  0  0
   60.7680   29.9361   50.6421 H   0  0  0  0  0  0  0  0  0  0  0  0
   62.0512   31.0861   52.6212 H   0  0  0  0  0  0  0  0  0  0  0  0
   63.2538   32.3595   52.2225 H   0  0  0  0  0  0  0  0  0  0  0  0
   61.5001   32.7486   52.2225 H   0  0  0  0  0  0  0  0  0  0  0  0
   63.9012   33.8027   50.5383 H   0  0  0  0  0  0  0  0  0  0  0  0
   64.7835   34.6906   48.3519 H   0  0  0  0  0  0  0  0  0  0  0  0
   64.1201   33.6086   46.1924 H   0  0  0  0  0  0  0  0  0  0  0  0
   62.5635   31.6267   46.1956 H   0  0  0  0  0  0  0  0  0  0  0  0
  1  2  1  0
  2  3  2  0
  3  4  1  0
  4  5  2  0
  5  6  1  0
  6  7  2  0
  7  8  1  0
  8  9  2  0
  8 10  1  0
 10 11  2  0
 11 12  1  0
 12 13  2  0
 12 14  1  0
 11 15  1  0
 15 16  2  0
 16 17  1  0
 17 18  1  0
 18 19  1  0
 19 20  1  0
 20 21  2  0
 21 22  1  0
 22 23  1  0
 22 24  1  0
 24 25  2  0
 25 26  1  0
 26 27  2  0
 27 28  1  0
 28 29  2  0
  7  2  1  0
 17 10  1  0
 29 20  1  0
 29 24  1  0
  1 30  1  0
  1 31  1  0
  1 32  1  0
  3 33  1  0
  4 34  1  0
  5 35  1  0
  6 36  1  0
 15 37  1  0
 16 38  1  0
 18 39  1  0
 18 40  1  0
 19 41  1  0
 19 42  1  0
 21 43  1  0
 23 44  1  0
 23 45  1  0
 23 46  1  0
 25 47  1  0
 26 48  1  0
 27 49  1  0
 28 50  1  0
M  CHG  1  14  -1
M  END
>  <UniqueID>  (2) 
2

>  <SMILES>  (2) 
Cc1ccccc1C(=O)c1c(C(=O)[O-])ccn1CCc1cn(C)c2ccccc12

>  <Energy>  (2) 
119.43331698923359

>  <Genealogy>  (2) 
Cc1ccccc1C(=O)c1c(C(=O)[O-])ccn1CCc1cn(C)c2ccccc12 (protonated)
Cc1ccccc1C(=O)c1c(C(=O)[O-])ccn1CCc1cn(C)c2ccccc12 (3D coordinates assigned)
Cc1ccccc1C(=O)c1c(C(=O)[O-])ccn1CCc1cn(C)c2ccccc12 (optimized conformer: 119.43331698923359 kcal/mol)

>  <smiles>  (2) 
Cc1ccccc1C(=O)c1c(C(=O)O)ccn1CCc1cn(C)c2ccccc12

>  <score_type>  (2) 
oracle

>  <origin>  (2) 
adg

>  <m_score__min__energy>  (2) 
-11.75

>  <m_primary>  (2) 
energy

$$$$
2:0
     RDKit          3D

 59 63  0  0  0  0  0  0  0  0999 V2000
   56.3810   30.4900   43.2750 C   0  0  0  0  0  0  0  0  0  0  0  0
   56.2380   31.2090   44.4980 O   0  0  0  0  0  0  0  0  0  0  0  0
   57.2340   32.0220   45.0640 C   0  0  0  0  0  0  0  0  0  0  0  0
   57.0760   33.4220   45.1700 C   0  0  0  0  0  0  0  0  0  0  0  0
   58.0930   34.2120   45.7120 C   0  0  0  0  0  0  0  0  0  0  0  0
   59.2740   33.6210   46.1640 C   0  0  0  0  0  0  0  0  0  0  0  0
   59.4350   32.2350   46.0850 C   0  0  0  0  0  0  0  0  0  0  0  0
   58.4170   31.4230   45.5490 C   0  0  0  0  0  0  0  0  0  0  0  0
   58.6490   29.9360   45.4330 C   0  0  0  0  0  0  0  0  0  0  0  0
   57.4720   29.2050   45.8870 N   0  0  0  0  0  0  0  0  0  0  0  0
   57.0510   27.9430   45.3480 C   0  0  0  0  0  0  0  0  0  0  0  0
   55.9120   27.4750   45.6270 O   0  0  0  0  0  0  0  0  0  0  0  0
   57.9110   27.1870   44.3940 C   0  0  0  0  0  0  0  0  0  0  0  0
   58.2950   25.8760   44.9200 N   0  0  0  0  0  0  0  0  0  0  0  0
   59.3690   25.5430   45.6850 C   0  0  0  0  0  0  0  0  0  0  0  0
   60.4320   26.7340   46.5170 S   0  0  0  0  0  0  0  0  0  0  0  0
   59.2540   27.3030   47.7960 C   0  0  0  0  0  0  0  0  0  0  0  0
   59.7190   28.6340   48.3230 C   0  0  0  0  0  0  0  0  0  0  0  0
   60.9330   28.7870   48.6490 O   0  0  0  0  0  0  0  0  0  0  0  0
   58.8090   29.7400   48.4130 N   0  0  0  0  0  0  0  0  0  0  0  0
   59.0190   30.8030   49.3580 C   0  0  0  0  0  0  0  0  0  0  0  0
   60.0520   31.7580   49.1570 C   0  0  0  0  0  0  0  0  0  0  0  0
   60.2490   32.8040   50.0840 C   0  0  0  0  0  0  0  0  0  0  0  0
   59.3590   32.8970   51.1480 C   0  0  0  0  0  0  0  0  0  0  0  0
   58.3460   32.0100   51.3220 C   0  0  0  0  0  0  0  0  0  0  0  0
   58.1570   30.9320   50.4680 C   0  0  0  0  0  0  0  0  0  0  0  0
   57.6080   32.3550   52.4360 O   0  0  0  0  0  0  0  0  0  0  0  0
   58.2090   33.5260   53.0150 C   0  0  0  0  0  0  0  0  0  0  0  0
   59.3230   33.8340   52.1630 O   0  0  0  0  0  0  0  0  0  0  0  0
   59.4490   24.2110   45.9560 N   0  0  0  0  0  0  0  0  0  0  0  0
   58.3720   23.7080   45.3290 C   0  0  0  0  0  0  0  0  0  0  0  0
   57.9290   22.3840   45.3290 C   0  0  0  0  0  0  0  0  0  0  0  0
   56.6890   22.1060   44.7210 C   0  0  0  0  0  0  0  0  0  0  0  0
   55.9420   23.1390   44.1130 C   0  0  0  0  0  0  0  0  0  0  0  0
   56.4310   24.4610   44.1010 C   0  0  0  0  0  0  0  0  0  0  0  0
   57.6490   24.7070   44.7410 C   0  0  0  0  0  0  0  0  0  0  0  0
   56.5913   29.4327   43.4937 H   0  0  0  0  0  0  0  0  0  0  0  0
   55.4501   30.5661   42.6939 H   0  0  0  0  0  0  0  0  0  0  0  0
   57.2119   30.9165   42.6939 H   0  0  0  0  0  0  0  0  0  0  0  0
   56.1449   33.8938   44.8230 H   0  0  0  0  0  0  0  0  0  0  0  0
   57.9627   35.3020   45.7827 H   0  0  0  0  0  0  0  0  0  0  0  0
   60.0772   34.2456   46.5820 H   0  0  0  0  0  0  0  0  0  0  0  0
   60.3664   31.7737   46.4452 H   0  0  0  0  0  0  0  0  0  0  0  0
   58.8521   29.6810   44.3824 H   0  0  0  0  0  0  0  0  0  0  0  0
   59.5084   29.6572   46.0605 H   0  0  0  0  0  0  0  0  0  0  0  0
   57.3577   27.0440   43.4541 H   0  0  0  0  0  0  0  0  0  0  0  0
   58.8299   27.7694   44.2311 H   0  0  0  0  0  0  0  0  0  0  0  0
   58.2518   27.4092   47.3551 H   0  0  0  0  0  0  0  0  0  0  0  0
   59.2084   26.5708   48.6156 H   0  0  0  0  0  0  0  0  0  0  0  0
   57.9660   29.7760   47.7970 H   0  0  0  0  0  0  0  0  0  0  0  0
   60.7024   31.6815   48.2732 H   0  0  0  0  0  0  0  0  0  0  0  0
   61.0765   33.5195   49.9688 H   0  0  0  0  0  0  0  0  0  0  0  0
   57.3577   30.1988   50.6513 H   0  0  0  0  0  0  0  0  0  0  0  0
   57.4924   34.3604   53.0307 H   0  0  0  0  0  0  0  0  0  0  0  0
   58.5205   33.3577   54.0565 H   0  0  0  0  0  0  0  0  0  0  0  0
   58.5284   21.5843   45.7886 H   0  0  0  0  0  0  0  0  0  0  0  0
   56.2998   21.0772   44.7198 H   0  0  0  0  0  0  0  0  0  0  0  0
   54.9726   22.9105   43.6460 H   0  0  0  0  0  0  0  0  0  0  0  0
   55.8740   25.2700   43.6057 H   0  0  0  0  0  0  0  0  0  0  0  0
  1  2  1  0
  2  3  1  0
  3  4  2  0
  4  5  1  0
  5  6  2  0
  6  7  1  0
  7  8  2  0
  8  9  1  0
  9 10  1  0
 10 11  1  0
 11 12  2  0
 11 13  1  0
 13 14  1  0
 14 15  1  0
 15 16  1  0
 16 17  1  0
 17 18  1  0
 18 19  2  0
 18 20  1  0
 20 21  1  0
 21 22  2  0
 22 23  1  0
 23 24  2  0
 24 25  1  0
 25 26  2  0
 25 27  1  0
 27 28  1  0
 28 29  1  0
 15 30  2  0
 30 31  1  0
 31 32  2  0
 32 33  1  0
 33 34  2  0
 34 35  1  0
 35 36  2  0
  8  3  1  0
 36 14  1  0
 26 21  1  0
 36 31  1  0
 29 24  1  0
  1 37  1  0
  1 38  1  0
  1 39  1  0
  4 40  1  0
  5 41  1  0
  6 42  1  0
  7 43  1  0
  9 44  1  0
  9 45  1  0
 13 46  1  0
 13 47  1  0
 17 48  1  0
 17 49  1  0
 20 50  1  0
 22 51  1  0
 23 52  1  0
 26 53  1  0
 28 54  1  0
 28 55  1  0
 32 56  1  0
 33 57  1  0
 34 58  1  0
 35 59  1  0
M  CHG  1  10  -1
M  END
>  <UniqueID>  (3) 
3

>  <SMILES>  (3) 
COc1ccccc1C[N-]C(=O)Cn1c(SCC(=O)Nc2ccc3c(c2)OCO3)nc2ccccc21

>  <Energy>  (3) 
133.16341757185282

>  <Genealogy>  (3) 
COc1ccccc1C[N-]C(=O)Cn1c(SCC(=O)Nc2ccc3c(c2)OCO3)nc2ccccc21 (protonated)
COc1ccccc1C[N-]C(=O)Cn1c(SCC(=O)Nc2ccc3c(c2)OCO3)nc2ccccc21 (3D coordinates assigned)
COc1ccccc1C[N-]C(=O)Cn1c(SCC(=O)Nc2ccc3c(c2)OCO3)nc2ccccc21 (nonaromatic ring conformer: 133.16341757185282 kcal/mol)

>  <smiles>  (3) 
COc1ccccc1CNC(=O)Cn1c(SCC(=O)Nc2ccc3c(c2)OCO3)nc2ccccc21

>  <score_type>  (3) 
oracle

>  <origin>  (3) 
adg

>  <m_score__min__energy>  (3) 
-11.630000000000001

>  <m_primary>  (3) 
energy

$$$$
3:0
     RDKit          3D

 35 37  0  0  0  0  0  0  0  0999 V2000
   59.4358   31.4044   48.3156 H   0  0  0  0  0  0  0  0  0  0  0  0
   59.0480   32.0660   47.5270 C   0  0  0  0  0  0  0  0  0  0  0  0
   58.0880   31.6150   46.6780 N   0  0  0  0  0  0  0  0  0  0  0  0
   57.5770   32.3910   45.6810 C   0  0  0  0  0  0  0  0  0  0  0  0
   56.6460   31.9450   44.8880 N   0  0  0  0  0  0  0  0  0  0  0  0
   56.7110   30.7480   44.0990 C   0  0  0  0  0  0  0  0  0  0  0  0
   56.8800   30.8520   42.8550 O   0  0  0  0  0  0  0  0  0  0  0  0
   56.6660   29.4050   44.7100 C   0  0  0  0  0  0  0  0  0  0  0  0
   55.5240   28.7840   45.0720 N   0  0  0  0  0  0  0  0  0  0  0  0
   55.9220   27.6180   45.6130 C   0  0  0  0  0  0  0  0  0  0  0  0
   55.0380   26.6700   46.1120 O   0  0  0  0  0  0  0  0  0  0  0  0
   57.2910   27.4870   45.6120 C   0  0  0  0  0  0  0  0  0  0  0  0
   57.8779   26.6380   45.9925 H   0  0  0  0  0  0  0  0  0  0  0  0
   57.7740   28.6410   45.0350 C   0  0  0  0  0  0  0  0  0  0  0  0
   58.8289   28.9030   44.8663 H   0  0  0  0  0  0  0  0  0  0  0  0
   58.0300   33.7060   45.5360 C   0  0  0  0  0  0  0  0  0  0  0  0
   57.6131   34.3511   44.7486 H   0  0  0  0  0  0  0  0  0  0  0  0
   59.0140   34.1950   46.3960 C   0  0  0  0  0  0  0  0  0  0  0  0
   59.3734   35.2287   46.2852 H   0  0  0  0  0  0  0  0  0  0  0  0
   59.5480   33.3730   47.4030 C   0  0  0  0  0  0  0  0  0  0  0  0
   60.5910   33.8900   48.3220 C   0  0  0  0  0  0  0  0  0  0  0  0
   60.2520   34.6060   49.3040 O   0  0  0  0  0  0  0  0  0  0  0  0
   61.9830   33.6260   48.0800 N   0  0  0  0  0  0  0  0  0  0  0  0
   62.2880   33.4670   47.0930 H   0  0  0  0  0  0  0  0  0  0  0  0
   63.0020   33.7220   49.0900 C   0  0  0  0  0  0  0  0  0  0  0  0
   62.7970   34.4590   50.2720 C   0  0  0  0  0  0  0  0  0  0  0  0
   61.8469   34.9912   50.4271 H   0  0  0  0  0  0  0  0  0  0  0  0
   63.7950   34.5180   51.2500 C   0  0  0  0  0  0  0  0  0  0  0  0
   63.6314   35.1026   52.1674 H   0  0  0  0  0  0  0  0  0  0  0  0
   65.0000   33.8350   51.0630 C   0  0  0  0  0  0  0  0  0  0  0  0
   65.7872   33.8876   51.8295 H   0  0  0  0  0  0  0  0  0  0  0  0
   65.2040   33.0850   49.9010 C   0  0  0  0  0  0  0  0  0  0  0  0
   66.1501   32.5428   49.7564 H   0  0  0  0  0  0  0  0  0  0  0  0
   64.2080   33.0230   48.9230 C   0  0  0  0  0  0  0  0  0  0  0  0
   64.3700   32.4223   48.0159 H   0  0  0  0  0  0  0  0  0  0  0  0
  1  2  1  0
  2  3  1  0
  3  4  1  0
  4  5  2  0
  5  6  1  0
  6  7  2  0
  6  8  1  0
  8  9  1  0
  9 10  1  0
 10 11  1  0
 10 12  2  0
 12 13  1  0
 12 14  1  0
 14 15  1  0
  4 16  1  0
 16 17  1  0
 16 18  2  0
 18 19  1  0
 18 20  1  0
 20 21  1  0
 21 22  2  0
 21 23  1  0
 23 24  1  0
 23 25  1  0
 25 26  2  0
 26 27  1  0
 26 28  1  0
 28 29  1  0
 28 30  2  0
 30 31  1  0
 30 32  1  0
 32 33  1  0
 32 34  2  0
 34 35  1  0
 20  2  2  0
 34 25  1  0
 14  8  2  0
M  CHG  3   3  -1   9  -1  11  -1
M  END
>  <UniqueID>  (4) 
4

>  <SMILES>  (4) 
O=C(Nc1ccccc1)c1cc/c(=N/C(=O)c2ccc([O-])[n-]2)[n-]c1

>  <Energy>  (4) 
75.09944758209683

>  <Genealogy>  (4) 
O=C(Nc1ccccc1)c1ccc(=NC(=O)c2ccc([O-])[n-]2)[n-]c1 (protonated)
O=C(Nc1ccccc1)c1cc/c(=N/C(=O)c2ccc([O-])[n-]2)[n-]c1 (cis-trans isomerization)
O=C(Nc1ccccc1)c1cc/c(=N/C(=O)c2ccc([O-])[n-]2)[n-]c1 (3D coordinates assigned)
O=C(Nc1ccccc1)c1cc/c(=N/C(=O)c2ccc([O-])[n-]2)[n-]c1 (optimized conformer: 75.09944758209683 kcal/mol)

>  <smiles>  (4) 
O=C(Nc1ccccc1)c1ccc(=NC(=O)c2ccc(O)[nH]2)[nH]c1

>  <score_type>  (4) 
oracle

>  <origin>  (4) 
adg

>  <m_score__min__energy>  (4) 
-14.52

>  <m_primary>  (4) 
energy

$$$$
4:0
     RDKit          3D

 35 36  0  0  0  0  0  0  0  0999 V2000
   57.7150   28.9460   45.7110 O   0  0  0  0  0  0  0  0  0  0  0  0
   56.6680   28.3080   45.4210 C   0  0  0  0  0  0  0  0  0  0  0  0
   56.6220   26.8260   45.6270 C   0  0  0  0  0  0  0  0  0  0  0  0
   55.2410   26.3530   45.7390 N   0  0  0  0  0  0  0  0  0  0  0  0
   55.1800   24.6680   46.1730 S   0  0  0  0  0  0  0  0  0  0  0  0
   55.8450   24.4530   47.5050 O   0  0  0  0  0  0  0  0  0  0  0  0
   53.7440   24.2440   46.2860 O   0  0  0  0  0  0  0  0  0  0  0  0
   55.9620   23.6890   44.9330 C   0  0  0  0  0  0  0  0  0  0  0  0
   55.3670   23.5160   43.6740 C   0  0  0  0  0  0  0  0  0  0  0  0
   55.9800   22.7070   42.7130 C   0  0  0  0  0  0  0  0  0  0  0  0
   57.1900   22.0690   43.0030 C   0  0  0  0  0  0  0  0  0  0  0  0
   57.7870   22.2390   44.2550 C   0  0  0  0  0  0  0  0  0  0  0  0
   57.1740   23.0460   45.2200 C   0  0  0  0  0  0  0  0  0  0  0  0
   55.5180   28.9930   44.9140 N   0  0  0  0  0  0  0  0  0  0  0  0
   55.4930   29.6870   43.6320 C   0  0  0  0  0  0  0  0  0  0  0  0
   56.4870   30.8160   43.6290 C   0  0  0  0  0  0  0  0  0  0  0  0
   56.8300   31.4710   44.8250 C   0  0  0  0  0  0  0  0  0  0  0  0
   57.7390   32.5320   44.8100 C   0  0  0  0  0  0  0  0  0  0  0  0
   58.3120   32.9470   43.6050 C   0  0  0  0  0  0  0  0  0  0  0  0
   57.9740   32.3040   42.4110 C   0  0  0  0  0  0  0  0  0  0  0  0
   57.0630   31.2430   42.4210 C   0  0  0  0  0  0  0  0  0  0  0  0
   57.1039   26.3291   44.7721 H   0  0  0  0  0  0  0  0  0  0  0  0
   57.1508   26.5861   46.5613 H   0  0  0  0  0  0  0  0  0  0  0  0
   54.4160   24.0182   43.4428 H   0  0  0  0  0  0  0  0  0  0  0  0
   55.5101   22.5721   41.7276 H   0  0  0  0  0  0  0  0  0  0  0  0
   57.6719   21.4333   42.2456 H   0  0  0  0  0  0  0  0  0  0  0  0
   58.7396   21.7380   44.4822 H   0  0  0  0  0  0  0  0  0  0  0  0
   57.6443   23.1760   46.2059 H   0  0  0  0  0  0  0  0  0  0  0  0
   55.7473   28.9777   42.8306 H   0  0  0  0  0  0  0  0  0  0  0  0
   54.4857   30.0972   43.4672 H   0  0  0  0  0  0  0  0  0  0  0  0
   56.3812   31.1470   45.7756 H   0  0  0  0  0  0  0  0  0  0  0  0
   58.0040   33.0414   45.7482 H   0  0  0  0  0  0  0  0  0  0  0  0
   59.0297   33.7805   43.5962 H   0  0  0  0  0  0  0  0  0  0  0  0
   58.4248   32.6326   41.4629 H   0  0  0  0  0  0  0  0  0  0  0  0
   56.7964   30.7409   41.4793 H   0  0  0  0  0  0  0  0  0  0  0  0
  1  2  2  0
  2  3  1  0
  3  4  1  0
  4  5  1  0
  5  6  2  0
  5  7  2  0
  5  8  1  0
  8  9  2  0
  9 10  1  0
 10 11  2  0
 11 12  1  0
 12 13  2  0
  2 14  1  0
 14 15  1  0
 15 16  1  0
 16 17  2  0
 17 18  1  0
 18 19  2  0
 19 20  1  0
 20 21  2  0
 13  8  1  0
 21 16  1  0
  3 22  1  0
  3 23  1  0
  9 24  1  0
 10 25  1  0
 11 26  1  0
 12 27  1  0
 13 28  1  0
 15 29  1  0
 15 30  1  0
 17 31  1  0
 18 32  1  0
 19 33  1  0
 20 34  1  0
 21 35  1  0
M  CHG  2   4  -1  14  -1
M  END
>  <UniqueID>  (5) 
5

>  <SMILES>  (5) 
O=C(C[N-]S(=O)(=O)c1ccccc1)[N-]Cc1ccccc1

>  <Energy>  (5) 
29.458516274589503

>  <Genealogy>  (5) 
O=C(C[N-]S(=O)(=O)c1ccccc1)[N-]Cc1ccccc1 (protonated)
O=C(C[N-]S(=O)(=O)c1ccccc1)[N-]Cc1ccccc1 (3D coordinates assigned)
O=C(C[N-]S(=O)(=O)c1ccccc1)[N-]Cc1ccccc1 (optimized conformer: 29.458516274589503 kcal/mol)

>  <smiles>  (5) 
O=C(CNS(=O)(=O)c1ccccc1)NCc1ccccc1

>  <score_type>  (5) 
oracle

>  <origin>  (5) 
adg

>  <m_score__min__energy>  (5) 
-11.4

>  <m_primary>  (5) 
energy

$$$$
5:0
     RDKit          3D

 39 41  0  0  0  0  0  0  0  0999 V2000
   57.0260   30.8840   46.0440 H   0  0  0  0  0  0  0  0  0  0  0  0
   57.8220   31.3110   46.4970 O   0  0  0  0  0  0  0  0  0  0  0  0
   58.3180   32.5740   46.1660 C   0  0  0  0  0  0  0  0  0  0  0  0
   57.5540   33.3590   45.2900 C   0  0  0  0  0  0  0  0  0  0  0  0
   56.5743   32.9958   44.9460 H   0  0  0  0  0  0  0  0  0  0  0  0
   58.0260   34.5970   44.8510 C   0  0  0  0  0  0  0  0  0  0  0  0
   57.4178   35.2051   44.1652 H   0  0  0  0  0  0  0  0  0  0  0  0
   59.2680   35.0640   45.2810 C   0  0  0  0  0  0  0  0  0  0  0  0
   59.6459   36.0318   44.9198 H   0  0  0  0  0  0  0  0  0  0  0  0
   60.0320   34.3050   46.1690 C   0  0  0  0  0  0  0  0  0  0  0  0
   61.0127   34.6781   46.4992 H   0  0  0  0  0  0  0  0  0  0  0  0
   59.5620   33.0690   46.6460 C   0  0  0  0  0  0  0  0  0  0  0  0
   60.3860   32.3690   47.6550 C   0  0  0  0  0  0  0  0  0  0  0  0
   60.3345   32.6845   48.7075 H   0  0  0  0  0  0  0  0  0  0  0  0
   61.1690   31.3890   47.3210 N   0  0  0  0  0  0  0  0  0  0  0  0
   60.7680   30.0580   46.9520 C   0  0  0  0  0  0  0  0  0  0  0  0
   60.6700   29.0940   47.9640 C   0  0  0  0  0  0  0  0  0  0  0  0
   60.8968   29.3712   49.0041 H   0  0  0  0  0  0  0  0  0  0  0  0
   60.2870   27.7840   47.6650 C   0  0  0  0  0  0  0  0  0  0  0  0
   60.2154   27.0371   48.4693 H   0  0  0  0  0  0  0  0  0  0  0  0
   59.9930   27.4170   46.3410 C   0  0  0  0  0  0  0  0  0  0  0  0
   59.6130   26.1090   45.9990 O   0  0  0  0  0  0  0  0  0  0  0  0
   58.3150   25.5880   46.1030 C   0  0  0  0  0  0  0  0  0  0  0  0
   58.1540   24.2090   46.2490 C   0  0  0  0  0  0  0  0  0  0  0  0
   59.0390   23.5568   46.2856 H   0  0  0  0  0  0  0  0  0  0  0  0
   56.8760   23.6510   46.3490 C   0  0  0  0  0  0  0  0  0  0  0  0
   56.7654   22.5637   46.4738 H   0  0  0  0  0  0  0  0  0  0  0  0
   55.7340   24.4620   46.2920 C   0  0  0  0  0  0  0  0  0  0  0  0
   54.4520   23.8190   46.4050 N   0  0  0  0  0  0  0  0  0  0  0  0
   53.4980   23.9280   45.5700 C   0  0  0  0  0  0  0  0  0  0  0  0
   52.2940   24.0760   44.5090 S   0  0  0  0  0  0  0  0  0  0  0  0
   55.8940   25.8580   46.1150 C   0  0  0  0  0  0  0  0  0  0  0  0
   54.7990   26.7100   46.0270 O   0  0  0  0  0  0  0  0  0  0  0  0
   57.1770   26.4080   46.0180 C   0  0  0  0  0  0  0  0  0  0  0  0
   57.2958   27.4920   45.8739 H   0  0  0  0  0  0  0  0  0  0  0  0
   60.1270   28.3670   45.3230 C   0  0  0  0  0  0  0  0  0  0  0  0
   59.9309   28.0792   44.2796 H   0  0  0  0  0  0  0  0  0  0  0  0
   60.5080   29.6790   45.6200 C   0  0  0  0  0  0  0  0  0  0  0  0
   60.6051   30.4180   44.8110 H   0  0  0  0  0  0  0  0  0  0  0  0
  1  2  1  0
  2  3  1  0
  3  4  2  0
  4  5  1  0
  4  6  1  0
  6  7  1  0
  6  8  2  0
  8  9  1  0
  8 10  1  0
 10 11  1  0
 10 12  2  0
 12 13  1  0
 13 14  1  0
 13 15  2  0
 15 16  1  0
 16 17  2  0
 17 18  1  0
 17 19  1  0
 19 20  1  0
 19 21  2  0
 21 22  1  0
 22 23  1  0
 23 24  2  0
 24 25  1  0
 24 26  1  0
 26 27  1  0
 26 28  2  0
 28 29  1  0
 29 30  2  0
 30 31  2  0
 28 32  1  0
 32 33  1  0
 32 34  2  0
 34 35  1  0
 21 36  1  0
 36 37  1  0
 36 38  2  0
 38 39  1  0
 12  3  1  0
 38 16  1  0
 34 23  1  0
M  CHG  1  33  -1
M  END
>  <UniqueID>  (6) 
6

>  <SMILES>  (6) 
[O-]c1cc(Oc2ccc(/N=C/c3ccccc3O)cc2)ccc1N=C=S

>  <Energy>  (6) 
59.569608969133945

>  <Genealogy>  (6) 
[O-]c1cc(Oc2ccc(N=Cc3ccccc3O)cc2)ccc1N=C=S (protonated)
[O-]c1cc(Oc2ccc(/N=C/c3ccccc3O)cc2)ccc1N=C=S (cis-trans isomerization)
[O-]c1cc(Oc2ccc(/N=C/c3ccccc3O)cc2)ccc1N=C=S (3D coordinates assigned)
[O-]c1cc(Oc2ccc(/N=C/c3ccccc3O)cc2)ccc1N=C=S (optimized conformer: 59.569608969133945 kcal/mol)

>  <smiles>  (6) 
Oc1ccccc1C=Nc1ccc(Oc2ccc(N=C=S)c(O)c2)cc1

>  <score_type>  (6) 
oracle

>  <origin>  (6) 
adg

>  <m_score__min__energy>  (6) 
-10.98

>  <m_primary>  (6) 
energy

$$$$
6:0
     RDKit          3D

 42 43  0  0  0  0  0  0  0  0999 V2000
   58.8590   30.6480   49.2050 C   0  0  0  0  0  0  0  0  0  0  0  0
   58.7380   31.0190   47.8360 O   0  0  0  0  0  0  0  0  0  0  0  0
   59.0660   30.1870   46.7550 C   0  0  0  0  0  0  0  0  0  0  0  0
   60.0990   29.2340   46.8320 C   0  0  0  0  0  0  0  0  0  0  0  0
   60.3830   28.4120   45.7390 C   0  0  0  0  0  0  0  0  0  0  0  0
   59.6450   28.5340   44.5620 C   0  0  0  0  0  0  0  0  0  0  0  0
   58.6230   29.4810   44.4710 C   0  0  0  0  0  0  0  0  0  0  0  0
   58.3280   30.3170   45.5660 C   0  0  0  0  0  0  0  0  0  0  0  0
   57.3180   31.2930   45.5160 O   0  0  0  0  0  0  0  0  0  0  0  0
   57.3720   32.5020   44.7580 C   0  0  0  0  0  0  0  0  0  0  0  0
   58.0920   33.5750   45.5170 C   0  0  0  0  0  0  0  0  0  0  0  0
   58.3910   34.6510   44.9310 O   0  0  0  0  0  0  0  0  0  0  0  0
   58.4600   33.3590   46.8880 N   0  0  0  0  0  0  0  0  0  0  0  0
   59.2640   34.2690   47.6580 C   0  0  0  0  0  0  0  0  0  0  0  0
   59.7280   35.3180   47.1310 O   0  0  0  0  0  0  0  0  0  0  0  0
   59.5240   34.0000   49.0470 N   0  0  0  0  0  0  0  0  0  0  0  0
   60.9310   34.2640   49.3830 C   0  0  0  0  0  0  0  0  0  0  0  0
   61.8740   33.4110   48.5670 C   0  0  0  0  0  0  0  0  0  0  0  0
   61.7230   32.0140   48.5350 C   0  0  0  0  0  0  0  0  0  0  0  0
   62.6030   31.2290   47.7860 C   0  0  0  0  0  0  0  0  0  0  0  0
   63.6300   31.8310   47.0550 C   0  0  0  0  0  0  0  0  0  0  0  0
   63.7710   33.2210   47.0600 C   0  0  0  0  0  0  0  0  0  0  0  0
   62.8970   34.0100   47.8140 C   0  0  0  0  0  0  0  0  0  0  0  0
   58.5809   31.5006   49.8419 H   0  0  0  0  0  0  0  0  0  0  0  0
   58.1909   29.7998   49.4155 H   0  0  0  0  0  0  0  0  0  0  0  0
   59.8987   30.3568   49.4155 H   0  0  0  0  0  0  0  0  0  0  0  0
   60.6855   29.1361   47.7575 H   0  0  0  0  0  0  0  0  0  0  0  0
   61.1899   27.6674   45.8067 H   0  0  0  0  0  0  0  0  0  0  0  0
   59.8684   27.8831   43.7039 H   0  0  0  0  0  0  0  0  0  0  0  0
   58.0453   29.5748   43.5397 H   0  0  0  0  0  0  0  0  0  0  0  0
   57.9017   32.3116   43.8129 H   0  0  0  0  0  0  0  0  0  0  0  0
   56.3441   32.8398   44.5599 H   0  0  0  0  0  0  0  0  0  0  0  0
   58.1290   32.4840   47.3520 H   0  0  0  0  0  0  0  0  0  0  0  0
   58.8920   34.5730   49.6540 H   0  0  0  0  0  0  0  0  0  0  0  0
   59.3170   32.9910   49.2350 H   0  0  0  0  0  0  0  0  0  0  0  0
   61.1506   35.3240   49.1874 H   0  0  0  0  0  0  0  0  0  0  0  0
   61.0803   34.0178   50.4446 H   0  0  0  0  0  0  0  0  0  0  0  0
   60.9094   31.5373   49.1014 H   0  0  0  0  0  0  0  0  0  0  0  0
   62.4871   30.1352   47.7718 H   0  0  0  0  0  0  0  0  0  0  0  0
   64.3284   31.2100   46.4748 H   0  0  0  0  0  0  0  0  0  0  0  0
   64.5698   33.6948   46.4706 H   0  0  0  0  0  0  0  0  0  0  0  0
   63.0111   35.1041   47.8174 H   0  0  0  0  0  0  0  0  0  0  0  0
  1  2  1  0
  2  3  1  0
  3  4  2  0
  4  5  1  0
  5  6  2  0
  6  7  1  0
  7  8  2  0
  8  9  1  0
  9 10  1  0
 10 11  1  0
 11 12  2  0
 11 13  1  0
 13 14  1  0
 14 15  2  0
 14 16  1  0
 16 17  1  0
 17 18  1  0
 18 19  2  0
 19 20  1  0
 20 21  2  0
 21 22  1  0
 22 23  2  0
  8  3  1  0
 23 18  1  0
  1 24  1  0
  1 25  1  0
  1 26  1  0
  4 27  1  0
  5 28  1  0
  6 29  1  0
  7 30  1  0
 10 31  1  0
 10 32  1  0
 13 33  1  0
 16 34  1  0
 16 35  1  0
 17 36  1  0
 17 37  1  0
 19 38  1  0
 20 39  1  0
 21 40  1  0
 22 41  1  0
 23 42  1  0
M  CHG  1  16   1
M  END
>  <UniqueID>  (7) 
7

>  <SMILES>  (7) 
COc1ccccc1OCC(=O)NC(=O)[NH2+]Cc1ccccc1

>  <Energy>  (7) 
35.588233935515575

>  <Genealogy>  (7) 
COc1ccccc1OCC(=O)NC(=O)[NH2+]Cc1ccccc1 (protonated)
COc1ccccc1OCC(=O)NC(=O)[NH2+]Cc1ccccc1 (3D coordinates assigned)
COc1ccccc1OCC(=O)NC(=O)[NH2+]Cc1ccccc1 (optimized conformer: 35.588233935515575 kcal/mol)

>  <smiles>  (7) 
COc1ccccc1OCC(=O)NC(=O)NCc1ccccc1

>  <score_type>  (7) 
oracle

>  <origin>  (7) 
adg

>  <m_score__min__energy>  (7) 
-6.3300000000000001

>  <m_primary>  (7) 
energy

$$$$
7:0
     RDKit          3D

 66 70  0  0  0  0  0  0  0  0999 V2000
   56.4290   22.2610   46.9020 H   0  0  0  0  0  0  0  0  0  0  0  0
   57.4050   22.6170   46.7880 N   0  0  0  0  0  0  0  0  0  0  0  0
   57.6610   23.8840   46.7480 C   0  0  0  0  0  0  0  0  0  0  0  0
   58.8830   24.3280   46.3500 N   0  0  0  0  0  0  0  0  0  0  0  0
   59.1730   25.6540   46.2980 C   0  0  0  0  0  0  0  0  0  0  0  0
   60.1692   25.9903   45.9747 H   0  0  0  0  0  0  0  0  0  0  0  0
   58.1920   26.5940   46.6600 C   0  0  0  0  0  0  0  0  0  0  0  0
   58.4530   28.0560   46.6280 C   0  0  0  0  0  0  0  0  0  0  0  0
   58.8420   28.7580   47.7850 C   0  0  0  0  0  0  0  0  0  0  0  0
   58.9524   28.2195   48.7378 H   0  0  0  0  0  0  0  0  0  0  0  0
   59.0890   30.1320   47.7340 C   0  0  0  0  0  0  0  0  0  0  0  0
   59.3980   30.6667   48.6443 H   0  0  0  0  0  0  0  0  0  0  0  0
   58.9450   30.8330   46.5280 C   0  0  0  0  0  0  0  0  0  0  0  0
   59.2080   32.2850   46.4710 C   0  0  0  0  0  0  0  0  0  0  0  0
   58.1450   33.1410   46.1350 C   0  0  0  0  0  0  0  0  0  0  0  0
   57.1421   32.7236   45.9621 H   0  0  0  0  0  0  0  0  0  0  0  0
   58.3520   34.5170   46.0190 C   0  0  0  0  0  0  0  0  0  0  0  0
   57.5128   35.1787   45.7583 H   0  0  0  0  0  0  0  0  0  0  0  0
   59.6200   35.0530   46.2330 C   0  0  0  0  0  0  0  0  0  0  0  0
   59.7832   36.1359   46.1301 H   0  0  0  0  0  0  0  0  0  0  0  0
   60.6840   34.2170   46.5780 C   0  0  0  0  0  0  0  0  0  0  0  0
   61.6841   34.6466   46.7371 H   0  0  0  0  0  0  0  0  0  0  0  0
   60.4910   32.8340   46.7240 C   0  0  0  0  0  0  0  0  0  0  0  0
   61.8650   31.8480   47.2560 S   0  0  0  0  0  0  0  0  0  0  0  0
   61.7740   30.4430   46.7320 O   0  0  0  0  0  0  0  0  0  0  0  0
   63.1330   32.4790   46.7540 O   0  0  0  0  0  0  0  0  0  0  0  0
   61.9120   31.7850   48.9900 N   0  0  0  0  0  0  0  0  0  0  0  0
   61.1660   31.2270   49.4580 H   0  0  0  0  0  0  0  0  0  0  0  0
   62.9510   32.3960   49.7780 C   0  0  0  0  0  0  0  0  0  0  0  0
   64.3100   32.1720   49.4840 C   0  0  0  0  0  0  0  0  0  0  0  0
   64.5851   31.5010   48.6569 H   0  0  0  0  0  0  0  0  0  0  0  0
   65.3120   32.7940   50.2330 C   0  0  0  0  0  0  0  0  0  0  0  0
   66.3700   32.6079   49.9963 H   0  0  0  0  0  0  0  0  0  0  0  0
   64.9730   33.6510   51.2810 C   0  0  0  0  0  0  0  0  0  0  0  0
   65.7633   34.1449   51.8654 H   0  0  0  0  0  0  0  0  0  0  0  0
   63.6320   33.8810   51.5870 C   0  0  0  0  0  0  0  0  0  0  0  0
   63.3687   34.5572   52.4137 H   0  0  0  0  0  0  0  0  0  0  0  0
   62.6180   33.2570   50.8490 C   0  0  0  0  0  0  0  0  0  0  0  0
   61.2530   33.4750   51.2310 N   0  0  0  0  0  0  0  0  0  0  0  0
   60.9040   33.6750   52.6340 C   0  0  0  0  0  0  0  0  0  0  0  0
   61.6784   33.2265   53.2736 H   0  0  0  0  0  0  0  0  0  0  0  0
   60.8353   34.7517   52.8485 H   0  0  0  0  0  0  0  0  0  0  0  0
   59.5570   33.0070   52.9160 C   0  0  0  0  0  0  0  0  0  0  0  0
   59.6806   31.9159   52.8507 H   0  0  0  0  0  0  0  0  0  0  0  0
   59.2304   33.3098   53.9218 H   0  0  0  0  0  0  0  0  0  0  0  0
   58.5610   33.4120   51.9900 O   0  0  0  0  0  0  0  0  0  0  0  0
   58.9030   33.0860   50.6460 C   0  0  2  0  0  0  0  0  0  0  0  0
   58.1136   33.5161   50.0121 H   0  0  0  0  0  0  0  0  0  0  0  0
   58.8840   31.5650   50.3730 C   0  0  0  0  0  0  0  0  0  0  0  0
   58.0692   31.1047   50.9511 H   0  0  0  0  0  0  0  0  0  0  0  0
   58.7284   31.4012   49.2965 H   0  0  0  0  0  0  0  0  0  0  0  0
   60.1130   30.9730   50.7500 O   0  0  0  0  0  0  0  0  0  0  0  0
   59.9290   29.6110   51.0670 C   0  0  0  0  0  0  0  0  0  0  0  0
   59.9124   29.4879   52.1600 H   0  0  0  0  0  0  0  0  0  0  0  0
   58.9755   29.2617   50.6441 H   0  0  0  0  0  0  0  0  0  0  0  0
   60.7556   29.0212   50.6441 H   0  0  0  0  0  0  0  0  0  0  0  0
   60.2310   33.7360   50.2210 C   0  0  0  0  0  0  0  0  0  0  0  0
   60.5529   33.3136   49.2577 H   0  0  0  0  0  0  0  0  0  0  0  0
   60.0886   34.8220   50.1195 H   0  0  0  0  0  0  0  0  0  0  0  0
   58.5820   30.1360   45.3670 C   0  0  0  0  0  0  0  0  0  0  0  0
   58.4880   30.6745   44.4124 H   0  0  0  0  0  0  0  0  0  0  0  0
   58.3390   28.7610   45.4160 C   0  0  0  0  0  0  0  0  0  0  0  0
   58.0559   28.2247   44.4983 H   0  0  0  0  0  0  0  0  0  0  0  0
   56.9740   26.1380   47.0690 N   0  0  0  0  0  0  0  0  0  0  0  0
   56.6850   24.8120   47.1190 C   0  0  0  0  0  0  0  0  0  0  0  0
   55.6921   24.4720   47.4484 H   0  0  0  0  0  0  0  0  0  0  0  0
  1  2  1  0
  2  3  2  0
  3  4  1  0
  4  5  1  0
  5  6  1  0
  5  7  2  0
  7  8  1  0
  8  9  2  0
  9 10  1  0
  9 11  1  0
 11 12  1  0
 11 13  2  0
 13 14  1  0
 14 15  2  0
 15 16  1  0
 15 17  1  0
 17 18  1  0
 17 19  2  0
 19 20  1  0
 19 21  1  0
 21 22  1  0
 21 23  2  0
 23 24  1  0
 24 25  2  0
 24 26  2  0
 24 27  1  0
 27 28  1  0
 27 29  1  0
 29 30  2  0
 30 31  1  0
 30 32  1  0
 32 33  1  0
 32 34  2  0
 34 35  1  0
 34 36  1  0
 36 37  1  0
 36 38  2  0
 38 39  1  0
 39 40  1  0
 40 41  1  0
 40 42  1  0
 40 43  1  0
 43 44  1  0
 43 45  1  0
 43 46  1  0
 46 47  1  0
 47 48  1  6
 47 49  1  0
 49 50  1  0
 49 51  1  0
 49 52  1  0
 52 53  1  0
 53 54  1  0
 53 55  1  0
 53 56  1  0
 47 57  1  0
 57 58  1  0
 57 59  1  0
 13 60  1  0
 60 61  1  0
 60 62  2  0
 62 63  1  0
  7 64  1  0
 64 65  2  0
 65 66  1  0
 65  3  1  0
 62  8  1  0
 23 14  1  0
 38 29  1  0
 57 39  1  0
M  CHG  1   4  -1
M  END
>  <UniqueID>  (8) 
8

>  <SMILES>  (8) 
[H]/N=c1/cnc(-c2ccc(-c3ccccc3S(=O)(=O)Nc3ccccc3N3CCO[C@H](COC)C3)cc2)c[n-]1

>  <Energy>  (8) 
99.25875935453459

>  <Genealogy>  (8) 
COCC1CN(c2ccccc2NS(=O)(=O)c2ccccc2-c2ccc(-c3c[n-]c(=N)cn3)cc2)CCO1 (protonated)
COC[C@@H]1CN(c2ccccc2NS(=O)(=O)c2ccccc2-c2ccc(-c3c[n-]c(=N)cn3)cc2)CCO1 (chirality)
[H]/N=c1/cnc(-c2ccc(-c3ccccc3S(=O)(=O)Nc3ccccc3N3CCO[C@H](COC)C3)cc2)c[n-]1 (cis-trans isomerization)
[H]/N=c1/cnc(-c2ccc(-c3ccccc3S(=O)(=O)Nc3ccccc3N3CCO[C@H](COC)C3)cc2)c[n-]1 (3D coordinates assigned)
[H]/N=c1/cnc(-c2ccc(-c3ccccc3S(=O)(=O)Nc3ccccc3N3CCO[C@H](COC)C3)cc2)c[n-]1 (nonaromatic ring conformer: 99.25875935453459 kcal/mol)

>  <smiles>  (8) 
COCC1CN(c2ccccc2NS(=O)(=O)c2ccccc2-c2ccc(-c3c[nH]c(=N)cn3)cc2)CCO1

>  <score_type>  (8) 
oracle

>  <origin>  (8) 
adg

>  <m_score__min__energy>  (8) 
-11.69

>  <m_primary>  (8) 
energy

$$$$
8:0
     RDKit          3D

 38 39  0  0  0  0  0  0  0  0999 V2000
   59.3074   35.4767   45.3488 H   0  0  0  0  0  0  0  0  0  0  0  0
   59.1860   34.6160   46.0230 C   0  0  0  0  0  0  0  0  0  0  0  0
   58.1850   33.5950   45.6430 C   0  0  0  0  0  0  0  0  0  0  0  0
   56.9600   33.7760   45.8800 O   0  0  0  0  0  0  0  0  0  0  0  0
   58.6240   32.3970   44.9850 N   0  0  0  0  0  0  0  0  0  0  0  0
   59.6390   32.1540   45.0440 H   0  0  0  0  0  0  0  0  0  0  0  0
   57.7390   31.4480   44.3640 C   0  0  0  0  0  0  0  0  0  0  0  0
   57.5030   31.5310   42.9820 C   0  0  0  0  0  0  0  0  0  0  0  0
   58.0073   32.3064   42.3866 H   0  0  0  0  0  0  0  0  0  0  0  0
   56.6310   30.6340   42.3590 C   0  0  0  0  0  0  0  0  0  0  0  0
   56.4598   30.6987   41.2743 H   0  0  0  0  0  0  0  0  0  0  0  0
   55.9760   29.6550   43.1110 C   0  0  0  0  0  0  0  0  0  0  0  0
   55.2965   28.9447   42.6173 H   0  0  0  0  0  0  0  0  0  0  0  0
   56.1850   29.5790   44.4910 C   0  0  0  0  0  0  0  0  0  0  0  0
   55.5200   28.6170   45.2420 O   0  0  0  0  0  0  0  0  0  0  0  0
   57.0590   30.4750   45.1180 C   0  0  0  0  0  0  0  0  0  0  0  0
   57.2146   30.4177   46.2054 H   0  0  0  0  0  0  0  0  0  0  0  0
   59.9580   34.5820   47.1190 C   0  0  0  0  0  0  0  0  0  0  0  0
   59.7288   35.2968   47.9231 H   0  0  0  0  0  0  0  0  0  0  0  0
   61.0940   33.6580   47.3310 C   0  0  0  0  0  0  0  0  0  0  0  0
   62.2930   33.8520   46.6230 C   0  0  0  0  0  0  0  0  0  0  0  0
   62.3578   34.6475   45.8660 H   0  0  0  0  0  0  0  0  0  0  0  0
   63.4020   33.0420   46.8740 C   0  0  0  0  0  0  0  0  0  0  0  0
   64.3316   33.1913   46.3052 H   0  0  0  0  0  0  0  0  0  0  0  0
   63.3320   32.0430   47.8460 C   0  0  0  0  0  0  0  0  0  0  0  0
   64.2060   31.4041   48.0407 H   0  0  0  0  0  0  0  0  0  0  0  0
   62.1540   31.8530   48.5720 C   0  0  0  0  0  0  0  0  0  0  0  0
   62.1076   31.0699   49.3431 H   0  0  0  0  0  0  0  0  0  0  0  0
   61.0290   32.6550   48.3240 C   0  0  0  0  0  0  0  0  0  0  0  0
   59.8220   32.4280   49.0740 N   0  0  0  0  0  0  0  0  0  0  0  0
   59.5590   33.1750   50.3050 C   0  0  0  0  0  0  0  0  0  0  0  0
   59.7828   32.5394   51.1745 H   0  0  0  0  0  0  0  0  0  0  0  0
   60.1955   34.0717   50.3328 H   0  0  0  0  0  0  0  0  0  0  0  0
   58.5011   33.4752   50.3328 H   0  0  0  0  0  0  0  0  0  0  0  0
   58.8760   31.4070   48.6270 C   0  0  0  0  0  0  0  0  0  0  0  0
   58.4232   30.9183   49.5023 H   0  0  0  0  0  0  0  0  0  0  0  0
   58.0877   31.8776   48.0212 H   0  0  0  0  0  0  0  0  0  0  0  0
   59.4053   30.6568   48.0212 H   0  0  0  0  0  0  0  0  0  0  0  0
  1  2  1  0
  2  3  1  0
  3  4  2  0
  3  5  1  0
  5  6  1  0
  5  7  1  0
  7  8  2  0
  8  9  1  0
  8 10  1  0
 10 11  1  0
 10 12  2  0
 12 13  1  0
 12 14  1  0
 14 15  1  0
 14 16  2  0
 16 17  1  0
  2 18  2  0
 18 19  1  0
 18 20  1  0
 20 21  2  0
 21 22  1  0
 21 23  1  0
 23 24  1  0
 23 25  2  0
 25 26  1  0
 25 27  1  0
 27 28  1  0
 27 29  2  0
 29 30  1  0
 30 31  1  0
 31 32  1  0
 31 33  1  0
 31 34  1  0
 30 35  1  0
 35 36  1  0
 35 37  1  0
 35 38  1  0
 16  7  1  0
 29 20  1  0
M  CHG  1  15  -1
M  END
>  <UniqueID>  (9) 
9

>  <SMILES>  (9) 
CN(C)c1ccccc1/C=C\C(=O)Nc1cccc([O-])c1

>  <Energy>  (9) 
52.71762831340392

>  <Genealogy>  (9) 
CN(C)c1ccccc1C=CC(=O)Nc1cccc([O-])c1 (protonated)
CN(C)c1ccccc1/C=C\C(=O)Nc1cccc([O-])c1 (cis-trans isomerization)
CN(C)c1ccccc1/C=C\C(=O)Nc1cccc([O-])c1 (3D coordinates assigned)
CN(C)c1ccccc1/C=C\C(=O)Nc1cccc([O-])c1 (optimized conformer: 52.71762831340392 kcal/mol)

>  <smiles>  (9) 
CN(C)c1ccccc1C=CC(=O)Nc1cccc(O)c1

>  <score_type>  (9) 
oracle

>  <origin>  (9) 
adg

>  <m_score__min__energy>  (9) 
-10.859999999999999

>  <m_primary>  (9) 
energy

$$$$
9:0
     RDKit          3D

 47 49  0  0  0  0  0  0  0  0999 V2000
   55.6040   28.8520   45.1320 N   0  0  0  0  0  0  0  0  0  0  0  0
   56.9350   29.9240   44.8740 S   0  0  0  0  0  0  0  0  0  0  0  0
   56.4190   31.3320   44.7750 O   0  0  0  0  0  0  0  0  0  0  0  0
   57.6250   29.5530   43.5910 O   0  0  0  0  0  0  0  0  0  0  0  0
   58.0470   29.7800   46.2020 N   0  0  0  0  0  0  0  0  0  0  0  0
   59.1010   30.7930   46.1190 C   0  0  0  0  0  0  0  0  0  0  0  0
   60.1630   30.5360   47.1890 C   0  0  0  0  0  0  0  0  0  0  0  0
   59.6040   30.7890   48.5530 C   0  0  0  0  0  0  0  0  0  0  0  0
   58.4740   30.1990   49.0860 C   0  0  0  0  0  0  0  0  0  0  0  0
   58.3370   30.7840   50.3300 C   0  0  0  0  0  0  0  0  0  0  0  0
   57.3410   30.3880   51.3490 C   0  0  0  0  0  0  0  0  0  0  0  0
   57.4670   29.2900   51.9540 O   0  0  0  0  0  0  0  0  0  0  0  0
   56.2150   31.2340   51.6310 N   0  0  0  0  0  0  0  0  0  0  0  0
   55.1390   30.8290   52.5320 C   0  0  0  0  0  0  0  0  0  0  0  0
   53.8270   30.7990   51.7960 C   0  0  0  0  0  0  0  0  0  0  0  0
   53.5730   29.8160   50.8250 C   0  0  0  0  0  0  0  0  0  0  0  0
   52.3610   29.8100   50.1300 C   0  0  0  0  0  0  0  0  0  0  0  0
   51.3950   30.7850   50.3950 C   0  0  0  0  0  0  0  0  0  0  0  0
   51.6420   31.7700   51.3570 C   0  0  0  0  0  0  0  0  0  0  0  0
   50.6830   32.7420   51.6170 O   0  0  0  0  0  0  0  0  0  0  0  0
   52.8540   31.7790   52.0550 C   0  0  0  0  0  0  0  0  0  0  0  0
   59.3370   31.6840   50.4950 N   0  0  0  0  0  0  0  0  0  0  0  0
   59.5570   32.5720   51.6030 C   0  0  0  0  0  0  0  0  0  0  0  0
   58.5720   33.4990   51.9880 C   0  0  0  0  0  0  0  0  0  0  0  0
   58.8100   34.3800   53.0470 C   0  0  0  0  0  0  0  0  0  0  0  0
   60.0350   34.3530   53.7200 C   0  0  0  0  0  0  0  0  0  0  0  0
   61.0270   33.4500   53.3280 C   0  0  0  0  0  0  0  0  0  0  0  0
   60.7930   32.5680   52.2680 C   0  0  0  0  0  0  0  0  0  0  0  0
   60.1060   31.6920   49.4160 N   0  0  0  0  0  0  0  0  0  0  0  0
   54.7510   29.4460   45.2360 H   0  0  0  0  0  0  0  0  0  0  0  0
   59.5690   30.7504   45.1244 H   0  0  0  0  0  0  0  0  0  0  0  0
   58.6586   31.7868   46.2825 H   0  0  0  0  0  0  0  0  0  0  0  0
   60.4976   29.4902   47.1231 H   0  0  0  0  0  0  0  0  0  0  0  0
   61.0105   31.2166   47.0199 H   0  0  0  0  0  0  0  0  0  0  0  0
   57.8295   29.4364   48.6244 H   0  0  0  0  0  0  0  0  0  0  0  0
   56.1670   32.1860   51.2040 H   0  0  0  0  0  0  0  0  0  0  0  0
   55.3558   29.8262   52.9288 H   0  0  0  0  0  0  0  0  0  0  0  0
   55.0707   31.5533   53.3570 H   0  0  0  0  0  0  0  0  0  0  0  0
   54.3311   29.0482   50.6111 H   0  0  0  0  0  0  0  0  0  0  0  0
   52.1665   29.0363   49.3726 H   0  0  0  0  0  0  0  0  0  0  0  0
   50.4411   30.7777   49.8473 H   0  0  0  0  0  0  0  0  0  0  0  0
   53.0462   32.5561   52.8094 H   0  0  0  0  0  0  0  0  0  0  0  0
   57.6109   33.5310   51.4540 H   0  0  0  0  0  0  0  0  0  0  0  0
   58.0320   35.0957   53.3512 H   0  0  0  0  0  0  0  0  0  0  0  0
   60.2180   35.0421   54.5576 H   0  0  0  0  0  0  0  0  0  0  0  0
   61.9931   33.4329   53.8538 H   0  0  0  0  0  0  0  0  0  0  0  0
   61.5813   31.8680   51.9541 H   0  0  0  0  0  0  0  0  0  0  0  0
  1  2  1  0
  2  3  2  0
  2  4  2  0
  2  5  1  0
  5  6  1  0
  6  7  1  0
  7  8  1  0
  8  9  1  0
  9 10  2  0
 10 11  1  0
 11 12  2  0
 11 13  1  0
 13 14  1  0
 14 15  1  0
 15 16  2  0
 16 17  1  0
 17 18  2  0
 18 19  1  0
 19 20  1  0
 19 21  2  0
 10 22  1  0
 22 23  1  0
 23 24  2  0
 24 25  1  0
 25 26  2  0
 26 27  1  0
 27 28  2  0
 22 29  1  0
 29  8  2  0
 21 15  1  0
 28 23  1  0
  1 30  1  0
  6 31  1  0
  6 32  1  0
  7 33  1  0
  7 34  1  0
  9 35  1  0
 13 36  1  0
 14 37  1  0
 14 38  1  0
 16 39  1  0
 17 40  1  0
 18 41  1  0
 21 42  1  0
 24 43  1  0
 25 44  1  0
 26 45  1  0
 27 46  1  0
 28 47  1  0
M  CHG  3   1  -1   5  -1  20  -1
M  END
>  <UniqueID>  (10) 
10

>  <SMILES>  (10) 
[NH-]S(=O)(=O)[N-]CCc1cc(C(=O)NCc2cccc([O-])c2)n(-c2ccccc2)n1

>  <Energy>  (10) 
77.76172660919768

>  <Genealogy>  (10) 
[NH-]S(=O)(=O)[N-]CCc1cc(C(=O)NCc2cccc([O-])c2)n(-c2ccccc2)n1 (protonated)
[NH-]S(=O)(=O)[N-]CCc1cc(C(=O)NCc2cccc([O-])c2)n(-c2ccccc2)n1 (3D coordinates assigned)
[NH-]S(=O)(=O)[N-]CCc1cc(C(=O)NCc2cccc([O-])c2)n(-c2ccccc2)n1 (optimized conformer: 77.76172660919768 kcal/mol)

>  <smiles>  (10) 
NS(=O)(=O)NCCc1cc(C(=O)NCc2cccc(O)c2)n(-c2ccccc2)n1

>  <score_type>  (10) 
oracle

>  <origin>  (10) 
adg

>  <m_score__min__energy>  (10) 
-15.76

>  <m_primary>  (10) 
energy

$$$$
10:0
     RDKit          3D

 36 37  0  0  0  0  0  0  0  0999 V2000
   62.5930   31.8180   47.6380 C   0  0  0  0  0  0  0  0  0  0  0  0
   62.1110   33.5300   47.6470 S   0  0  0  0  0  0  0  0  0  0  0  0
   62.7330   34.2090   48.8360 O   0  0  0  0  0  0  0  0  0  0  0  0
   62.5850   34.1810   46.3790 O   0  0  0  0  0  0  0  0  0  0  0  0
   60.3830   33.6270   47.7500 N   0  0  0  0  0  0  0  0  0  0  0  0
   59.4760   33.3790   46.6680 C   0  0  0  0  0  0  0  0  0  0  0  0
   58.6110   34.4060   46.2710 C   0  0  0  0  0  0  0  0  0  0  0  0
   57.7200   34.2120   45.2120 C   0  0  0  0  0  0  0  0  0  0  0  0
   57.6780   32.9850   44.5480 C   0  0  0  0  0  0  0  0  0  0  0  0
   58.5160   31.9330   44.9540 C   0  0  0  0  0  0  0  0  0  0  0  0
   58.5250   30.6470   44.2280 C   0  0  0  0  0  0  0  0  0  0  0  0
   57.4390   30.0040   43.7680 C   0  0  0  0  0  0  0  0  0  0  0  0
   56.1090   29.9610   44.4280 C   0  0  0  0  0  0  0  0  0  0  0  0
   55.4020   30.9980   44.5210 O   0  0  0  0  0  0  0  0  0  0  0  0
   55.5940   28.7360   44.9640 N   0  0  0  0  0  0  0  0  0  0  0  0
   56.3610   27.7120   45.6100 C   0  0  0  0  0  0  0  0  0  0  0  0
   57.7540   27.8500   45.6730 C   0  0  0  0  0  0  0  0  0  0  0  0
   58.5360   26.8610   46.2790 C   0  0  0  0  0  0  0  0  0  0  0  0
   57.9310   25.7180   46.8090 C   0  0  0  0  0  0  0  0  0  0  0  0
   56.5460   25.5550   46.7200 C   0  0  0  0  0  0  0  0  0  0  0  0
   55.7580   26.5400   46.1110 C   0  0  0  0  0  0  0  0  0  0  0  0
   54.3890   26.3330   45.9840 O   0  0  0  0  0  0  0  0  0  0  0  0
   59.4310   32.1420   45.9960 C   0  0  0  0  0  0  0  0  0  0  0  0
   62.6938   31.4600   48.6732 H   0  0  0  0  0  0  0  0  0  0  0  0
   61.8271   31.2242   47.1176 H   0  0  0  0  0  0  0  0  0  0  0  0
   63.5562   31.7110   47.1176 H   0  0  0  0  0  0  0  0  0  0  0  0
   58.6329   35.3722   46.7963 H   0  0  0  0  0  0  0  0  0  0  0  0
   57.0506   35.0277   44.9012 H   0  0  0  0  0  0  0  0  0  0  0  0
   56.9868   32.8413   43.7044 H   0  0  0  0  0  0  0  0  0  0  0  0
   59.5029   30.1762   44.0489 H   0  0  0  0  0  0  0  0  0  0  0  0
   57.5440   29.4606   42.8174 H   0  0  0  0  0  0  0  0  0  0  0  0
   58.2353   28.7410   45.2435 H   0  0  0  0  0  0  0  0  0  0  0  0
   59.6276   26.9830   46.3384 H   0  0  0  0  0  0  0  0  0  0  0  0
   58.5453   24.9465   47.2963 H   0  0  0  0  0  0  0  0  0  0  0  0
   56.0730   24.6502   47.1295 H   0  0  0  0  0  0  0  0  0  0  0  0
   60.1179   31.3348   46.2903 H   0  0  0  0  0  0  0  0  0  0  0  0
  1  2  1  0
  2  3  2  0
  2  4  2  0
  2  5  1  0
  5  6  1  0
  6  7  2  0
  7  8  1  0
  8  9  2  0
  9 10  1  0
 10 11  1  0
 11 12  2  3
 12 13  1  0
 13 14  2  0
 13 15  1  0
 15 16  1  0
 16 17  2  0
 17 18  1  0
 18 19  2  0
 19 20  1  0
 20 21  2  0
 21 22  1  0
 10 23  2  0
 23  6  1  0
 21 16  1  0
  1 24  1  0
  1 25  1  0
  1 26  1  0
  7 27  1  0
  8 28  1  0
  9 29  1  0
 11 30  1  0
 12 31  1  0
 17 32  1  0
 18 33  1  0
 19 34  1  0
 20 35  1  0
 23 36  1  0
M  CHG  3   5  -1  15  -1  22  -1
M  END
>  <UniqueID>  (11) 
11

>  <SMILES>  (11) 
CS(=O)(=O)[N-]c1cccc(C=CC(=O)[N-]c2ccccc2[O-])c1

>  <Energy>  (11) 
50.38884918614028

>  <Genealogy>  (11) 
CS(=O)(=O)[N-]c1cccc(C=CC(=O)[N-]c2ccccc2[O-])c1 (protonated)
CS(=O)(=O)[N-]c1cccc(C=CC(=O)[N-]c2ccccc2[O-])c1 (3D coordinates assigned)
CS(=O)(=O)[N-]c1cccc(C=CC(=O)[N-]c2ccccc2[O-])c1 (optimized conformer: 50.38884918614028 kcal/mol)

>  <smiles>  (11) 
CS(=O)(=O)Nc1cccc(C=CC(=O)Nc2ccccc2O)c1

>  <score_type>  (11) 
oracle

>  <origin>  (11) 
adg

>  <m_score__min__energy>  (11) 
-15.029999999999999

>  <m_primary>  (11) 
energy

$$$$
11:0
     RDKit          3D

 23 24  0  0  0  0  0  0  0  0999 V2000
   56.2410   29.5710   43.3000 O   0  0  0  0  0  0  0  0  0  0  0  0
   56.5210   29.4060   44.5160 C   0  0  0  0  0  0  0  0  0  0  0  0
   55.8960   28.3280   45.2290 N   0  0  0  0  0  0  0  0  0  0  0  0
   56.5910   27.3020   46.0040 C   0  0  0  0  0  0  0  0  0  0  0  0
   55.7830   26.0450   46.0600 C   0  0  0  0  0  0  0  0  0  0  0  0
   56.2640   24.8680   46.5050 N   0  0  0  0  0  0  0  0  0  0  0  0
   55.2870   23.9880   46.3810 N   0  0  0  0  0  0  0  0  0  0  0  0
   54.2450   24.6610   45.8640 C   0  0  0  0  0  0  0  0  0  0  0  0
   53.1350   24.1240   45.6130 O   0  0  0  0  0  0  0  0  0  0  0  0
   54.5030   25.9610   45.6410 N   0  0  0  0  0  0  0  0  0  0  0  0
   57.5080   30.3000   45.1500 C   0  0  0  0  0  0  0  0  0  0  0  0
   58.5260   29.7580   45.9500 C   0  0  0  0  0  0  0  0  0  0  0  0
   59.4600   30.5970   46.5660 C   0  0  0  0  0  0  0  0  0  0  0  0
   60.4320   30.0700   47.3490 F   0  0  0  0  0  0  0  0  0  0  0  0
   59.3900   31.9800   46.3760 C   0  0  0  0  0  0  0  0  0  0  0  0
   58.3920   32.5260   45.5630 C   0  0  0  0  0  0  0  0  0  0  0  0
   58.3160   34.2610   45.3110 Cl  0  0  0  0  0  0  0  0  0  0  0  0
   57.4560   31.6880   44.9460 C   0  0  0  0  0  0  0  0  0  0  0  0
   57.5608   27.0873   45.5313 H   0  0  0  0  0  0  0  0  0  0  0  0
   56.7401   27.6729   47.0288 H   0  0  0  0  0  0  0  0  0  0  0  0
   58.5894   28.6692   46.0930 H   0  0  0  0  0  0  0  0  0  0  0  0
   60.1209   32.6396   46.8666 H   0  0  0  0  0  0  0  0  0  0  0  0
   56.6772   32.1183   44.2992 H   0  0  0  0  0  0  0  0  0  0  0  0
  1  2  2  0
  2  3  1  0
  3  4  1  0
  4  5  1  0
  5  6  2  0
  6  7  1  0
  7  8  1  0
  8  9  2  0
  8 10  1  0
  2 11  1  0
 11 12  2  0
 12 13  1  0
 13 14  1  0
 13 15  2  0
 15 16  1  0
 16 17  1  0
 16 18  2  0
 10  5  1  0
 18 11  1  0
  4 19  1  0
  4 20  1  0
 12 21  1  0
 15 22  1  0
 18 23  1  0
M  CHG  3   3  -1   7  -1  10  -1
M  END
>  <UniqueID>  (12) 
12

>  <SMILES>  (12) 
O=C([N-]Cc1n[n-]c(=O)[n-]1)c1cc(F)cc(Cl)c1

>  <Energy>  (12) 
58.35452159298471

>  <Genealogy>  (12) 
O=C([N-]Cc1n[n-]c(=O)[n-]1)c1cc(F)cc(Cl)c1 (protonated)
O=C([N-]Cc1n[n-]c(=O)[n-]1)c1cc(F)cc(Cl)c1 (3D coordinates assigned)
O=C([N-]Cc1n[n-]c(=O)[n-]1)c1cc(F)cc(Cl)c1 (optimized conformer: 58.35452159298471 kcal/mol)

>  <smiles>  (12) 
O=C(NCc1n[nH]c(=O)[nH]1)c1cc(F)cc(Cl)c1

>  <score_type>  (12) 
oracle

>  <origin>  (12) 
adg

>  <m_score__min__energy>  (12) 
-12.56

>  <m_primary>  (12) 
energy

$$$$
12:0
     RDKit          3D

 68 72  0  0  0  0  0  0  0  0999 V2000
   57.0170   28.9660   43.0060 N   0  0  0  0  0  0  0  0  0  0  0  0
   56.5930   29.5700   44.5690 S   0  0  0  0  0  0  0  0  0  0  0  0
   56.6750   28.4640   45.5830 O   0  0  0  0  0  0  0  0  0  0  0  0
   55.1830   30.0880   44.5260 O   0  0  0  0  0  0  0  0  0  0  0  0
   57.6740   30.8740   45.0390 C   0  0  0  0  0  0  0  0  0  0  0  0
   57.4370   32.4930   44.6580 S   0  0  0  0  0  0  0  0  0  0  0  0
   58.7590   33.0830   45.5130 C   0  0  0  0  0  0  0  0  0  0  0  0
   59.4000   32.0120   46.1200 C   0  0  0  0  0  0  0  0  0  0  0  0
   58.8020   30.7730   45.8520 C   0  0  0  0  0  0  0  0  0  0  0  0
   59.3200   29.5010   46.3850 C   0  0  0  0  0  0  0  0  0  0  0  0
   59.8130   28.5440   45.4870 C   0  0  0  0  0  0  0  0  0  0  0  0
   60.3530   27.3450   45.9560 C   0  0  0  0  0  0  0  0  0  0  0  0
   60.4190   27.0990   47.3270 C   0  0  0  0  0  0  0  0  0  0  0  0
   59.9400   28.0460   48.2330 C   0  0  0  0  0  0  0  0  0  0  0  0
   59.3680   29.2460   47.7760 C   0  0  0  0  0  0  0  0  0  0  0  0
   58.8500   30.2460   48.7840 C   0  0  0  0  0  0  0  0  0  0  0  0
   59.7500   30.3600   49.9550 N   0  0  0  0  0  0  0  0  0  0  0  0
   61.1640   30.5460   49.5500 C   0  0  0  0  0  0  0  0  0  0  0  0
   61.4080   31.8340   48.7860 C   0  0  0  0  0  0  0  0  0  0  0  0
   60.6140   32.9680   49.0300 C   0  0  0  0  0  0  0  0  0  0  0  0
   60.8100   34.1410   48.2950 C   0  0  0  0  0  0  0  0  0  0  0  0
   61.8070   34.1960   47.3160 C   0  0  0  0  0  0  0  0  0  0  0  0
   62.6160   33.0840   47.0820 C   0  0  0  0  0  0  0  0  0  0  0  0
   62.4260   31.9100   47.8180 C   0  0  0  0  0  0  0  0  0  0  0  0
   59.5790   29.2540   50.9290 C   0  0  0  0  0  0  0  0  0  0  0  0
   58.3720   29.5050   51.7920 C   0  0  0  0  0  0  0  0  0  0  0  0
   58.1210   28.7210   52.9270 C   0  0  0  0  0  0  0  0  0  0  0  0
   56.9650   28.9260   53.6860 C   0  0  0  0  0  0  0  0  0  0  0  0
   56.0500   29.9320   53.3310 C   0  0  0  0  0  0  0  0  0  0  0  0
   54.8150   30.1260   54.1320 C   0  0  0  0  0  0  0  0  0  0  0  0
   54.8900   30.7070   55.2460 O   0  0  0  0  0  0  0  0  0  0  0  0
   53.5230   29.7180   53.6600 N   0  0  0  0  0  0  0  0  0  0  0  0
   52.7870   30.2950   52.5710 C   0  0  0  0  0  0  0  0  0  0  0  0
   52.9260   29.7400   51.2930 C   0  0  0  0  0  0  0  0  0  0  0  0
   52.2160   30.2680   50.2120 C   0  0  0  0  0  0  0  0  0  0  0  0
   51.3830   31.3740   50.3980 C   0  0  0  0  0  0  0  0  0  0  0  0
   51.2720   31.9630   51.6600 C   0  0  0  0  0  0  0  0  0  0  0  0
   51.9780   31.4330   52.7450 C   0  0  0  0  0  0  0  0  0  0  0  0
   56.3430   30.7620   52.2340 C   0  0  0  0  0  0  0  0  0  0  0  0
   57.4890   30.5430   51.4690 C   0  0  0  0  0  0  0  0  0  0  0  0
   58.0320   29.1670   42.8640 H   0  0  0  0  0  0  0  0  0  0  0  0
   56.9280   27.9270   43.0470 H   0  0  0  0  0  0  0  0  0  0  0  0
   59.0639   34.1378   45.5799 H   0  0  0  0  0  0  0  0  0  0  0  0
   60.2933   32.1249   46.7519 H   0  0  0  0  0  0  0  0  0  0  0  0
   59.7741   28.7392   44.4052 H   0  0  0  0  0  0  0  0  0  0  0  0
   60.7264   26.5943   45.2440 H   0  0  0  0  0  0  0  0  0  0  0  0
   60.8497   26.1562   47.6952 H   0  0  0  0  0  0  0  0  0  0  0  0
   60.0106   27.8520   49.3135 H   0  0  0  0  0  0  0  0  0  0  0  0
   58.7684   31.2304   48.3000 H   0  0  0  0  0  0  0  0  0  0  0  0
   57.8684   29.8984   49.1385 H   0  0  0  0  0  0  0  0  0  0  0  0
   61.7879   30.5545   50.4559 H   0  0  0  0  0  0  0  0  0  0  0  0
   61.4205   29.7153   48.8761 H   0  0  0  0  0  0  0  0  0  0  0  0
   59.8334   32.9322   49.8042 H   0  0  0  0  0  0  0  0  0  0  0  0
   60.1793   35.0215   48.4870 H   0  0  0  0  0  0  0  0  0  0  0  0
   61.9532   35.1158   46.7307 H   0  0  0  0  0  0  0  0  0  0  0  0
   63.4051   33.1306   46.3170 H   0  0  0  0  0  0  0  0  0  0  0  0
   63.0763   31.0411   47.6389 H   0  0  0  0  0  0  0  0  0  0  0  0
   59.4462   28.3074   50.3846 H   0  0  0  0  0  0  0  0  0  0  0  0
   60.4723   29.1968   51.5683 H   0  0  0  0  0  0  0  0  0  0  0  0
   58.8376   27.9403   53.2219 H   0  0  0  0  0  0  0  0  0  0  0  0
   56.7704   28.2960   54.5665 H   0  0  0  0  0  0  0  0  0  0  0  0
   53.5983   28.8831   51.1393 H   0  0  0  0  0  0  0  0  0  0  0  0
   52.3127   29.8133   49.2151 H   0  0  0  0  0  0  0  0  0  0  0  0
   50.8137   31.7817   49.5496 H   0  0  0  0  0  0  0  0  0  0  0  0
   50.6289   32.8443   51.8005 H   0  0  0  0  0  0  0  0  0  0  0  0
   51.9007   31.9062   53.7350 H   0  0  0  0  0  0  0  0  0  0  0  0
   55.6644   31.5889   51.9776 H   0  0  0  0  0  0  0  0  0  0  0  0
   57.7007   31.1906   50.6054 H   0  0  0  0  0  0  0  0  0  0  0  0
  1  2  1  0
  2  3  2  0
  2  4  2  0
  2  5  1  0
  5  6  1  0
  6  7  1  0
  7  8  2  0
  8  9  1  0
  9 10  1  0
 10 11  2  0
 11 12  1  0
 12 13  2  0
 13 14  1  0
 14 15  2  0
 15 16  1  0
 16 17  1  0
 17 18  1  0
 18 19  1  0
 19 20  2  0
 20 21  1  0
 21 22  2  0
 22 23  1  0
 23 24  2  0
 17 25  1  0
 25 26  1  0
 26 27  2  0
 27 28  1  0
 28 29  2  0
 29 30  1  0
 30 31  2  0
 30 32  1  0
 32 33  1  0
 33 34  2  0
 34 35  1  0
 35 36  2  0
 36 37  1  0
 37 38  2  0
 29 39  1  0
 39 40  2  0
  9  5  2  0
 15 10  1  0
 24 19  1  0
 40 26  1  0
 38 33  1  0
  1 41  1  0
  1 42  1  0
  7 43  1  0
  8 44  1  0
 11 45  1  0
 12 46  1  0
 13 47  1  0
 14 48  1  0
 16 49  1  0
 16 50  1  0
 18 51  1  0
 18 52  1  0
 20 53  1  0
 21 54  1  0
 22 55  1  0
 23 56  1  0
 24 57  1  0
 25 58  1  0
 25 59  1  0
 27 60  1  0
 28 61  1  0
 34 62  1  0
 35 63  1  0
 36 64  1  0
 37 65  1  0
 38 66  1  0
 39 67  1  0
 40 68  1  0
M  CHG  1  32  -1
M  END
>  <UniqueID>  (13) 
13

>  <SMILES>  (13) 
NS(=O)(=O)c1sccc1-c1ccccc1CN(Cc1ccccc1)Cc1ccc(C(=O)[N-]c2ccccc2)cc1

>  <Energy>  (13) 
110.02339233773793

>  <Genealogy>  (13) 
NS(=O)(=O)c1sccc1-c1ccccc1CN(Cc1ccccc1)Cc1ccc(C(=O)[N-]c2ccccc2)cc1 (protonated)
NS(=O)(=O)c1sccc1-c1ccccc1CN(Cc1ccccc1)Cc1ccc(C(=O)[N-]c2ccccc2)cc1 (3D coordinates assigned)
NS(=O)(=O)c1sccc1-c1ccccc1CN(Cc1ccccc1)Cc1ccc(C(=O)[N-]c2ccccc2)cc1 (optimized conformer: 110.02339233773793 kcal/mol)

>  <smiles>  (13) 
NS(=O)(=O)c1sccc1-c1ccccc1CN(Cc1ccccc1)Cc1ccc(C(=O)Nc2ccccc2)cc1

>  <score_type>  (13) 
oracle

>  <origin>  (13) 
adg

>  <m_score__min__energy>  (13) 
-13.26

>  <m_primary>  (13) 
energy

$$$$
13:0
     RDKit          3D

 55 58  0  0  0  0  0  0  0  0999 V2000
   58.8620   32.0260   50.4150 H   0  0  0  0  0  0  0  0  0  0  0  0
   58.6490   32.9970   50.4250 O   0  0  0  0  0  0  0  0  0  0  0  0
   59.4120   33.5690   51.4560 C   0  0  0  0  0  0  0  0  0  0  0  0
   58.9346   33.3527   52.4231 H   0  0  0  0  0  0  0  0  0  0  0  0
   59.4686   34.6560   51.2974 H   0  0  0  0  0  0  0  0  0  0  0  0
   60.8250   32.9940   51.4530 C   0  0  0  0  0  0  0  0  0  0  0  0
   60.9556   32.3383   52.3265 H   0  0  0  0  0  0  0  0  0  0  0  0
   61.5547   33.8159   51.4981 H   0  0  0  0  0  0  0  0  0  0  0  0
   61.0310   32.2420   50.2600 O   0  0  0  0  0  0  0  0  0  0  0  0
   61.7090   32.7170   49.1240 C   0  0  0  0  0  0  0  0  0  0  0  0
   63.1100   32.6180   48.9970 C   0  0  0  0  0  0  0  0  0  0  0  0
   63.7014   32.1668   49.8074 H   0  0  0  0  0  0  0  0  0  0  0  0
   63.7520   33.0890   47.8490 C   0  0  0  0  0  0  0  0  0  0  0  0
   64.8452   33.0065   47.7588 H   0  0  0  0  0  0  0  0  0  0  0  0
   63.0110   33.6630   46.8180 C   0  0  0  0  0  0  0  0  0  0  0  0
   63.5193   34.0319   45.9149 H   0  0  0  0  0  0  0  0  0  0  0  0
   61.6230   33.7700   46.9310 C   0  0  0  0  0  0  0  0  0  0  0  0
   61.0433   34.2223   46.1129 H   0  0  0  0  0  0  0  0  0  0  0  0
   60.9590   33.3050   48.0810 C   0  0  0  0  0  0  0  0  0  0  0  0
   59.5190   33.4030   48.1740 N   0  0  0  0  0  0  0  0  0  0  0  0
   59.2380   34.2610   48.7040 H   0  0  0  0  0  0  0  0  0  0  0  0
   59.1760   32.5810   48.7250 H   0  0  0  0  0  0  0  0  0  0  0  0
   58.8690   33.4340   46.8780 C   0  0  0  0  0  0  0  0  0  0  0  0
   58.8650   34.5890   46.0730 C   0  0  0  0  0  0  0  0  0  0  0  0
   59.4207   35.4837   46.3904 H   0  0  0  0  0  0  0  0  0  0  0  0
   58.1550   34.5970   44.8720 C   0  0  0  0  0  0  0  0  0  0  0  0
   58.1802   35.4865   44.2253 H   0  0  0  0  0  0  0  0  0  0  0  0
   57.4330   33.5090   44.5000 N   0  0  0  0  0  0  0  0  0  0  0  0
   57.3760   32.3790   45.2560 C   0  0  0  0  0  0  0  0  0  0  0  0
   56.6000   31.4110   44.8610 N   0  0  0  0  0  0  0  0  0  0  0  0
   57.0050   30.1690   44.2680 C   0  0  0  0  0  0  0  0  0  0  0  0
   56.6980   29.9420   43.0680 O   0  0  0  0  0  0  0  0  0  0  0  0
   57.8310   29.1900   45.0070 C   0  0  0  0  0  0  0  0  0  0  0  0
   58.4420   28.1180   44.3380 C   0  0  0  0  0  0  0  0  0  0  0  0
   58.3256   28.0140   43.2491 H   0  0  0  0  0  0  0  0  0  0  0  0
   59.1970   27.1830   45.0490 C   0  0  0  0  0  0  0  0  0  0  0  0
   59.6445   26.3258   44.5246 H   0  0  0  0  0  0  0  0  0  0  0  0
   59.3850   27.3340   46.4240 C   0  0  0  0  0  0  0  0  0  0  0  0
   59.9843   26.5966   46.9781 H   0  0  0  0  0  0  0  0  0  0  0  0
   58.8160   28.4170   47.1010 C   0  0  0  0  0  0  0  0  0  0  0  0
   59.0300   28.5490   48.5120 N   0  0  0  0  0  0  0  0  0  0  0  0
   59.0130   29.7830   49.2440 C   0  0  0  0  0  0  0  0  0  0  0  0
   59.3300   30.8490   48.6520 O   0  0  0  0  0  0  0  0  0  0  0  0
   58.5720   29.8420   50.6500 C   0  0  0  0  0  0  0  0  0  0  0  0
   57.4780   30.4410   51.0580 O   0  0  0  0  0  0  0  0  0  0  0  0
   57.3740   30.2880   52.3580 C   0  0  0  0  0  0  0  0  0  0  0  0
   56.5519   30.6753   52.9778 H   0  0  0  0  0  0  0  0  0  0  0  0
   58.4520   29.5680   52.8280 C   0  0  0  0  0  0  0  0  0  0  0  0
   58.6498   29.2798   53.8710 H   0  0  0  0  0  0  0  0  0  0  0  0
   59.2320   29.2820   51.7280 C   0  0  0  0  0  0  0  0  0  0  0  0
   60.1805   28.7251   51.7114 H   0  0  0  0  0  0  0  0  0  0  0  0
   58.0020   29.3200   46.3940 C   0  0  0  0  0  0  0  0  0  0  0  0
   57.4953   30.1346   46.9323 H   0  0  0  0  0  0  0  0  0  0  0  0
   58.0950   32.3340   46.4700 C   0  0  0  0  0  0  0  0  0  0  0  0
   58.0493   31.4334   47.0999 H   0  0  0  0  0  0  0  0  0  0  0  0
  1  2  1  0
  2  3  1  0
  3  4  1  0
  3  5  1  0
  3  6  1  0
  6  7  1  0
  6  8  1  0
  6  9  1  0
  9 10  1  0
 10 11  2  0
 11 12  1  0
 11 13  1  0
 13 14  1  0
 13 15  2  0
 15 16  1  0
 15 17  1  0
 17 18  1  0
 17 19  2  0
 19 20  1  0
 20 21  1  0
 20 22  1  0
 20 23  1  0
 23 24  1  0
 24 25  1  0
 24 26  2  0
 26 27  1  0
 26 28  1  0
 28 29  1  0
 29 30  2  0
 30 31  1  0
 31 32  2  0
 31 33  1  0
 33 34  2  0
 34 35  1  0
 34 36  1  0
 36 37  1  0
 36 38  2  0
 38 39  1  0
 38 40  1  0
 40 41  1  0
 41 42  1  0
 42 43  2  0
 42 44  1  0
 44 45  1  0
 45 46  1  0
 46 47  1  0
 46 48  2  0
 48 49  1  0
 48 50  1  0
 50 51  1  0
 40 52  2  0
 52 53  1  0
 29 54  1  0
 54 55  1  0
 19 10  1  0
 54 23  2  0
 52 33  1  0
 50 44  2  0
M  CHG  3  20   1  28  -1  41  -1
M  END
>  <UniqueID>  (14) 
14

>  <SMILES>  (14) 
O=C(/N=c1\cc([NH2+]c2ccccc2OCCO)cc[n-]1)c1cccc([N-]C(=O)c2ccco2)c1

>  <Energy>  (14) 
100.1495176892033

>  <Genealogy>  (14) 
O=C(N=c1cc([NH2+]c2ccccc2OCCO)cc[n-]1)c1cccc([N-]C(=O)c2ccco2)c1 (protonated)
O=C(/N=c1\cc([NH2+]c2ccccc2OCCO)cc[n-]1)c1cccc([N-]C(=O)c2ccco2)c1 (cis-trans isomerization)
O=C(/N=c1\cc([NH2+]c2ccccc2OCCO)cc[n-]1)c1cccc([N-]C(=O)c2ccco2)c1 (3D coordinates assigned)
O=C(/N=c1\cc([NH2+]c2ccccc2OCCO)cc[n-]1)c1cccc([N-]C(=O)c2ccco2)c1 (optimized conformer: 100.1495176892033 kcal/mol)

>  <smiles>  (14) 
O=C(N=c1cc(Nc2ccccc2OCCO)cc[nH]1)c1cccc(NC(=O)c2ccco2)c1

>  <score_type>  (14) 
oracle

>  <origin>  (14) 
adg

>  <m_score__min__energy>  (14) 
-9.7200000000000006

>  <m_primary>  (14) 
energy

$$$$
14:0
     RDKit          3D

 57 59  0  0  0  0  0  0  0  0999 V2000
   57.8520   31.8120   42.9510 C   0  0  0  0  0  0  0  0  0  0  0  0
   57.9970   30.6010   43.6830 O   0  0  0  0  0  0  0  0  0  0  0  0
   56.9620   30.0530   44.4450 C   0  0  0  0  0  0  0  0  0  0  0  0
   55.8780   30.6840   44.5960 O   0  0  0  0  0  0  0  0  0  0  0  0
   57.1470   28.7350   45.0730 C   0  0  0  0  0  0  0  0  0  0  0  0
   56.1450   27.8570   45.2670 N   0  0  0  0  0  0  0  0  0  0  0  0
   56.6700   26.7780   45.8790 C   0  0  0  0  0  0  0  0  0  0  0  0
   55.8710   25.6180   46.3100 C   0  0  0  0  0  0  0  0  0  0  0  0
   56.2310   24.9680   47.3270 O   0  0  0  0  0  0  0  0  0  0  0  0
   54.6850   25.2100   45.6160 N   0  0  0  0  0  0  0  0  0  0  0  0
   54.4260   23.6580   44.8810 S   0  0  0  0  0  0  0  0  0  0  0  0
   54.6600   23.7720   43.4000 O   0  0  0  0  0  0  0  0  0  0  0  0
   53.0020   23.2330   45.1140 O   0  0  0  0  0  0  0  0  0  0  0  0
   55.5480   22.4610   45.5230 C   0  0  0  0  0  0  0  0  0  0  0  0
   56.7440   22.1960   44.8460 C   0  0  0  0  0  0  0  0  0  0  0  0
   57.6570   21.2740   45.3650 C   0  0  0  0  0  0  0  0  0  0  0  0
   57.3850   20.6130   46.5740 C   0  0  0  0  0  0  0  0  0  0  0  0
   58.3420   19.5960   47.1220 C   0  0  0  0  0  0  0  0  0  0  0  0
   56.1800   20.8700   47.2440 C   0  0  0  0  0  0  0  0  0  0  0  0
   55.2640   21.7850   46.7190 C   0  0  0  0  0  0  0  0  0  0  0  0
   58.0390   26.9440   46.0600 C   0  0  0  0  0  0  0  0  0  0  0  0
   58.9850   25.9570   46.6800 C   0  0  0  0  0  0  0  0  0  0  0  0
   58.3260   28.2180   45.5830 C   0  0  0  0  0  0  0  0  0  0  0  0
   59.6000   28.8720   45.5220 N   0  0  0  0  0  0  0  0  0  0  0  0
   60.0370   29.9380   46.3700 C   0  0  0  0  0  0  0  0  0  0  0  0
   60.8440   29.7130   47.3120 O   0  0  0  0  0  0  0  0  0  0  0  0
   59.5340   31.2620   46.1430 N   0  0  0  0  0  0  0  0  0  0  0  0
   59.8820   32.4010   46.9500 C   0  0  0  0  0  0  0  0  0  0  0  0
   61.1140   32.4450   47.6290 C   0  0  0  0  0  0  0  0  0  0  0  0
   61.4540   33.5520   48.4120 C   0  0  0  0  0  0  0  0  0  0  0  0
   60.5640   34.6210   48.5340 C   0  0  0  0  0  0  0  0  0  0  0  0
   59.3300   34.5810   47.8830 C   0  0  0  0  0  0  0  0  0  0  0  0
   58.9750   33.4730   47.1030 C   0  0  0  0  0  0  0  0  0  0  0  0
   57.3770   33.4740   46.2740 S   0  0  0  0  0  0  0  0  0  0  0  0
   57.9480   34.5370   44.9110 C   0  0  0  0  0  0  0  0  0  0  0  0
   57.7512   32.6541   43.6515 H   0  0  0  0  0  0  0  0  0  0  0  0
   58.7381   31.9660   42.3177 H   0  0  0  0  0  0  0  0  0  0  0  0
   56.9546   31.7524   42.3177 H   0  0  0  0  0  0  0  0  0  0  0  0
   55.1480   27.9850   44.9860 H   0  0  0  0  0  0  0  0  0  0  0  0
   56.9661   22.7153   43.9021 H   0  0  0  0  0  0  0  0  0  0  0  0
   58.5921   21.0652   44.8246 H   0  0  0  0  0  0  0  0  0  0  0  0
   58.3163   19.6233   48.2214 H   0  0  0  0  0  0  0  0  0  0  0  0
   58.0516   18.5940   46.7732 H   0  0  0  0  0  0  0  0  0  0  0  0
   59.3598   19.8250   46.7732 H   0  0  0  0  0  0  0  0  0  0  0  0
   55.9552   20.3492   48.1864 H   0  0  0  0  0  0  0  0  0  0  0  0
   54.3171   21.9760   47.2451 H   0  0  0  0  0  0  0  0  0  0  0  0
   58.9197   26.0252   47.7759 H   0  0  0  0  0  0  0  0  0  0  0  0
   58.7159   24.9398   46.3592 H   0  0  0  0  0  0  0  0  0  0  0  0
   60.0127   26.1828   46.3592 H   0  0  0  0  0  0  0  0  0  0  0  0
   58.9510   31.4110   45.2890 H   0  0  0  0  0  0  0  0  0  0  0  0
   61.8149   31.6016   47.5429 H   0  0  0  0  0  0  0  0  0  0  0  0
   62.4228   33.5810   48.9321 H   0  0  0  0  0  0  0  0  0  0  0  0
   60.8356   35.4954   49.1437 H   0  0  0  0  0  0  0  0  0  0  0  0
   58.6318   35.4251   47.9831 H   0  0  0  0  0  0  0  0  0  0  0  0
   58.4305   35.4352   45.3239 H   0  0  0  0  0  0  0  0  0  0  0  0
   58.6705   33.9841   44.2927 H   0  0  0  0  0  0  0  0  0  0  0  0
   57.0881   34.8341   44.2927 H   0  0  0  0  0  0  0  0  0  0  0  0
  1  2  1  0
  2  3  1  0
  3  4  2  0
  3  5  1  0
  5  6  1  0
  6  7  1  0
  7  8  1  0
  8  9  2  0
  8 10  1  0
 10 11  1  0
 11 12  2  0
 11 13  2  0
 11 14  1  0
 14 15  2  0
 15 16  1  0
 16 17  2  0
 17 18  1  0
 17 19  1  0
 19 20  2  0
  7 21  2  0
 21 22  1  0
 21 23  1  0
 23 24  1  0
 24 25  1  0
 25 26  2  0
 25 27  1  0
 27 28  1  0
 28 29  2  0
 29 30  1  0
 30 31  2  0
 31 32  1  0
 32 33  2  0
 33 34  1  0
 34 35  1  0
 23  5  2  0
 33 28  1  0
 20 14  1  0
  1 36  1  0
  1 37  1  0
  1 38  1  0
  6 39  1  0
 15 40  1  0
 16 41  1  0
 18 42  1  0
 18 43  1  0
 18 44  1  0
 19 45  1  0
 20 46  1  0
 22 47  1  0
 22 48  1  0
 22 49  1  0
 27 50  1  0
 29 51  1  0
 30 52  1  0
 31 53  1  0
 32 54  1  0
 35 55  1  0
 35 56  1  0
 35 57  1  0
M  CHG  2  10  -1  24  -1
M  END
>  <UniqueID>  (15) 
15

>  <SMILES>  (15) 
COC(=O)c1[nH]c(C(=O)[N-]S(=O)(=O)c2ccc(C)cc2)c(C)c1[N-]C(=O)Nc1ccccc1SC

>  <Energy>  (15) 
88.5098376934282

>  <Genealogy>  (15) 
COC(=O)c1[nH]c(C(=O)[N-]S(=O)(=O)c2ccc(C)cc2)c(C)c1[N-]C(=O)Nc1ccccc1SC (protonated)
COC(=O)c1[nH]c(C(=O)[N-]S(=O)(=O)c2ccc(C)cc2)c(C)c1[N-]C(=O)Nc1ccccc1SC (3D coordinates assigned)
COC(=O)c1[nH]c(C(=O)[N-]S(=O)(=O)c2ccc(C)cc2)c(C)c1[N-]C(=O)Nc1ccccc1SC (optimized conformer: 88.5098376934282 kcal/mol)

>  <smiles>  (15) 
COC(=O)c1[nH]c(C(=O)NS(=O)(=O)c2ccc(C)cc2)c(C)c1NC(=O)Nc1ccccc1SC

>  <score_type>  (15) 
oracle

>  <origin>  (15) 
adg

>  <m_score__min__energy>  (15) 
-12.41

>  <m_primary>  (15) 
energy

$$$$
15:0
     RDKit          3D

 42 46  0  0  0  0  0  0  0  0999 V2000
   58.8687   26.0158   44.7669 H   0  0  0  0  0  0  0  0  0  0  0  0
   58.4060   26.1030   45.7610 C   0  0  0  0  0  0  0  0  0  0  0  0
   57.1460   25.3800   46.0000 C   0  0  0  0  0  0  0  0  0  0  0  0
   57.0920   24.1020   46.4130 N   0  0  0  0  0  0  0  0  0  0  0  0
   55.7700   23.8890   46.5950 C   0  0  0  0  0  0  0  0  0  0  0  0
   55.3080   22.7820   46.9730 O   0  0  0  0  0  0  0  0  0  0  0  0
   54.9840   24.9600   46.3510 N   0  0  0  0  0  0  0  0  0  0  0  0
   55.8710   25.9000   45.9890 C   0  0  0  0  0  0  0  0  0  0  0  0
   55.5260   27.2130   45.6940 O   0  0  0  0  0  0  0  0  0  0  0  0
   59.0260   26.8610   46.6770 C   0  0  0  0  0  0  0  0  0  0  0  0
   59.9800   26.4210   47.5910 C   0  0  0  0  0  0  0  0  0  0  0  0
   60.3273   25.3820   47.6899 H   0  0  0  0  0  0  0  0  0  0  0  0
   60.4170   27.4610   48.3400 N   0  0  0  0  0  0  0  0  0  0  0  0
   59.7740   28.5400   47.9220 N   0  0  0  0  0  0  0  0  0  0  0  0
   59.9060   29.8320   48.3430 C   0  0  0  0  0  0  0  0  0  0  0  0
   60.7000   30.1910   49.3110 N   0  0  0  0  0  0  0  0  0  0  0  0
   61.9090   31.0010   49.1890 C   0  0  0  0  0  0  0  0  0  0  0  0
   62.4618   30.5750   50.0392 H   0  0  0  0  0  0  0  0  0  0  0  0
   61.6200   32.3960   48.6670 C   0  0  0  0  0  0  0  0  0  0  0  0
   60.5818   32.7122   48.4876 H   0  0  0  0  0  0  0  0  0  0  0  0
   61.8745   33.4161   48.9905 H   0  0  0  0  0  0  0  0  0  0  0  0
   62.2680   31.3620   47.7590 C   0  0  0  0  0  0  0  0  0  0  0  0
   61.6986   30.9299   46.9229 H   0  0  0  0  0  0  0  0  0  0  0  0
   63.1855   31.3238   47.1534 H   0  0  0  0  0  0  0  0  0  0  0  0
   59.1710   30.7840   47.7060 N   0  0  0  0  0  0  0  0  0  0  0  0
   58.3370   30.4570   46.6720 C   0  0  0  0  0  0  0  0  0  0  0  0
   57.5890   31.4400   46.0180 O   0  0  0  0  0  0  0  0  0  0  0  0
   57.4180   31.4860   44.6290 C   0  0  0  0  0  0  0  0  0  0  0  0
   57.9540   32.5730   43.9280 C   0  0  0  0  0  0  0  0  0  0  0  0
   58.4682   33.3764   44.4758 H   0  0  0  0  0  0  0  0  0  0  0  0
   57.8400   32.6440   42.5370 C   0  0  0  0  0  0  0  0  0  0  0  0
   58.2726   33.4964   41.9926 H   0  0  0  0  0  0  0  0  0  0  0  0
   57.1770   31.6330   41.8380 C   0  0  0  0  0  0  0  0  0  0  0  0
   57.0988   31.6833   40.7419 H   0  0  0  0  0  0  0  0  0  0  0  0
   56.6130   30.5580   42.5290 C   0  0  0  0  0  0  0  0  0  0  0  0
   56.0870   29.7673   41.9739 H   0  0  0  0  0  0  0  0  0  0  0  0
   56.7130   30.4800   43.9270 C   0  0  0  0  0  0  0  0  0  0  0  0
   56.0550   29.4120   44.6180 N   0  0  0  0  0  0  0  0  0  0  0  0
   56.1300   29.3250   45.6560 H   0  0  0  0  0  0  0  0  0  0  0  0
   55.5500   28.6560   44.1050 H   0  0  0  0  0  0  0  0  0  0  0  0
   58.2230   29.1600   46.2720 N   0  0  0  0  0  0  0  0  0  0  0  0
   58.9410   28.2180   46.9270 C   0  0  0  0  0  0  0  0  0  0  0  0
  1  2  1  0
  2  3  1  0
  3  4  1  0
  4  5  1  0
  5  6  2  0
  5  7  1  0
  7  8  1  0
  8  9  1  0
  2 10  2  3
 10 11  1  0
 11 12  1  0
 11 13  2  0
 13 14  1  0
 14 15  1  0
 15 16  2  0
 16 17  1  0
 17 18  1  0
 17 19  1  0
 19 20  1  0
 19 21  1  0
 19 22  1  0
 22 23  1  0
 22 24  1  0
 15 25  1  0
 25 26  2  0
 26 27  1  0
 27 28  1  0
 28 29  2  0
 29 30  1  0
 29 31  1  0
 31 32  1  0
 31 33  2  0
 33 34  1  0
 33 35  1  0
 35 36  1  0
 35 37  2  0
 37 38  1  0
 38 39  1  0
 38 40  1  0
 26 41  1  0
 41 42  2  0
  8  3  2  0
 42 10  1  0
 42 14  1  0
 22 17  1  0
 37 28  1  0
M  CHG  3   4  -1   7  -1   9  -1
M  END
>  <UniqueID>  (16) 
16

>  <SMILES>  (16) 
Nc1ccccc1Oc1n/c(=N/C2CC2)n2ncc(=Cc3[n-]c(=O)[n-]c3[O-])c2n1

>  <Energy>  (16) 
396.53776193145836

>  <Genealogy>  (16) 
Nc1ccccc1Oc1nc(=NC2CC2)n2ncc(=Cc3[n-]c(=O)[n-]c3[O-])c2n1 (protonated)
Nc1ccccc1Oc1n/c(=N/C2CC2)n2ncc(=Cc3[n-]c(=O)[n-]c3[O-])c2n1 (cis-trans isomerization)
Nc1ccccc1Oc1n/c(=N/C2CC2)n2ncc(=Cc3[n-]c(=O)[n-]c3[O-])c2n1 (3D coordinates assigned)
Nc1ccccc1Oc1n/c(=N/C2CC2)n2ncc(=Cc3[n-]c(=O)[n-]c3[O-])c2n1 (nonaromatic ring conformer: 396.53776193145836 kcal/mol)

>  <smiles>  (16) 
Nc1ccccc1Oc1nc(=NC2CC2)n2ncc(=Cc3[nH]c(=O)[nH]c3O)c2n1

>  <score_type>  (16) 
oracle

>  <origin>  (16) 
adg

>  <m_score__min__energy>  (16) 
-15.58

>  <m_primary>  (16) 
energy

$$$$
16:0
     RDKit          3D

 37 38  0  0  0  0  0  0  0  0999 V2000
   58.5700   29.7470   49.9180 C   0  0  0  0  0  0  0  0  0  0  0  0
   58.9400   30.8240   49.0130 N   0  0  0  0  0  0  0  0  0  0  0  0
   59.8310   30.6450   47.9070 C   0  0  0  0  0  0  0  0  0  0  0  0
   59.9600   29.4980   47.3970 O   0  0  0  0  0  0  0  0  0  0  0  0
   60.6280   31.7850   47.3790 C   0  0  0  0  0  0  0  0  0  0  0  0
   61.9610   31.9410   47.8110 C   0  0  0  0  0  0  0  0  0  0  0  0
   62.7310   33.0220   47.3780 C   0  0  0  0  0  0  0  0  0  0  0  0
   62.1910   33.9560   46.4950 C   0  0  0  0  0  0  0  0  0  0  0  0
   60.8770   33.8160   46.0480 C   0  0  0  0  0  0  0  0  0  0  0  0
   60.0800   32.7470   46.4930 C   0  0  0  0  0  0  0  0  0  0  0  0
   58.7410   32.6120   45.9970 N   0  0  0  0  0  0  0  0  0  0  0  0
   58.3750   32.1900   44.6760 C   0  0  0  0  0  0  0  0  0  0  0  0
   58.4180   33.0280   43.7380 O   0  0  0  0  0  0  0  0  0  0  0  0
   57.9850   30.7710   44.3680 C   0  0  0  0  0  0  0  0  0  0  0  0
   57.0380   30.2930   45.3650 N   0  0  0  0  0  0  0  0  0  0  0  0
   56.3290   29.0560   45.2520 C   0  0  0  0  0  0  0  0  0  0  0  0
   55.1600   29.0520   44.7800 O   0  0  0  0  0  0  0  0  0  0  0  0
   56.9670   27.7950   45.7160 C   0  0  0  0  0  0  0  0  0  0  0  0
   58.3710   27.7220   45.8080 C   0  0  0  0  0  0  0  0  0  0  0  0
   58.9970   26.5630   46.2760 C   0  0  0  0  0  0  0  0  0  0  0  0
   60.7470   26.5030   46.3970 Cl  0  0  0  0  0  0  0  0  0  0  0  0
   58.2320   25.4580   46.6500 C   0  0  0  0  0  0  0  0  0  0  0  0
   56.8410   25.5070   46.5530 C   0  0  0  0  0  0  0  0  0  0  0  0
   56.2040   26.6650   46.0900 C   0  0  0  0  0  0  0  0  0  0  0  0
   54.8140   26.6730   46.0080 O   0  0  0  0  0  0  0  0  0  0  0  0
   58.6864   30.0858   50.9580 H   0  0  0  0  0  0  0  0  0  0  0  0
   57.5225   29.4622   49.7402 H   0  0  0  0  0  0  0  0  0  0  0  0
   59.2213   28.8786   49.7402 H   0  0  0  0  0  0  0  0  0  0  0  0
   62.3996   31.2019   48.4976 H   0  0  0  0  0  0  0  0  0  0  0  0
   63.7654   33.1370   47.7341 H   0  0  0  0  0  0  0  0  0  0  0  0
   62.8014   34.8038   46.1506 H   0  0  0  0  0  0  0  0  0  0  0  0
   60.4608   34.5487   45.3410 H   0  0  0  0  0  0  0  0  0  0  0  0
   57.5198   30.7280   43.3721 H   0  0  0  0  0  0  0  0  0  0  0  0
   58.8827   30.1355   44.3852 H   0  0  0  0  0  0  0  0  0  0  0  0
   58.9814   28.5866   45.5082 H   0  0  0  0  0  0  0  0  0  0  0  0
   58.7256   24.5478   47.0215 H   0  0  0  0  0  0  0  0  0  0  0  0
   56.2414   24.6312   46.8418 H   0  0  0  0  0  0  0  0  0  0  0  0
  1  2  1  0
  2  3  1  0
  3  4  2  0
  3  5  1  0
  5  6  2  0
  6  7  1  0
  7  8  2  0
  8  9  1  0
  9 10  2  0
 10 11  1  0
 11 12  1  0
 12 13  2  0
 12 14  1  0
 14 15  1  0
 15 16  1  0
 16 17  2  0
 16 18  1  0
 18 19  2  0
 19 20  1  0
 20 21  1  0
 20 22  2  0
 22 23  1  0
 23 24  2  0
 24 25  1  0
 10  5  1  0
 24 18  1  0
  1 26  1  0
  1 27  1  0
  1 28  1  0
  6 29  1  0
  7 30  1  0
  8 31  1  0
  9 32  1  0
 14 33  1  0
 14 34  1  0
 19 35  1  0
 22 36  1  0
 23 37  1  0
M  CHG  4   2  -1  11  -1  15  -1  25  -1
M  END
>  <UniqueID>  (17) 
17

>  <SMILES>  (17) 
C[N-]C(=O)c1ccccc1[N-]C(=O)C[N-]C(=O)c1cc(Cl)ccc1[O-]

>  <Energy>  (17) 
40.456930343897774

>  <Genealogy>  (17) 
C[N-]C(=O)c1ccccc1[N-]C(=O)C[N-]C(=O)c1cc(Cl)ccc1[O-] (protonated)
C[N-]C(=O)c1ccccc1[N-]C(=O)C[N-]C(=O)c1cc(Cl)ccc1[O-] (3D coordinates assigned)
C[N-]C(=O)c1ccccc1[N-]C(=O)C[N-]C(=O)c1cc(Cl)ccc1[O-] (optimized conformer: 40.456930343897774 kcal/mol)

>  <smiles>  (17) 
CNC(=O)c1ccccc1NC(=O)CNC(=O)c1cc(Cl)ccc1O

>  <score_type>  (17) 
oracle

>  <origin>  (17) 
adg

>  <m_score__min__energy>  (17) 
-14.68

>  <m_primary>  (17) 
energy

$$$$
17:0
     RDKit          3D

 26 27  0  0  0  0  0  0  0  0999 V2000
   56.6320   30.1590   42.7200 C   0  0  0  0  0  0  0  0  0  0  0  0
   56.5440   30.0270   44.4930 S   0  0  0  0  0  0  0  0  0  0  0  0
   57.5490   29.0300   44.9960 O   0  0  0  0  0  0  0  0  0  0  0  0
   55.1680   29.5580   44.8730 O   0  0  0  0  0  0  0  0  0  0  0  0
   56.8250   31.5760   45.2240 N   0  0  0  0  0  0  0  0  0  0  0  0
   58.1000   32.0990   45.6220 C   0  0  0  0  0  0  0  0  0  0  0  0
   58.3510   33.4620   45.4200 C   0  0  0  0  0  0  0  0  0  0  0  0
   59.5760   34.0240   45.7870 C   0  0  0  0  0  0  0  0  0  0  0  0
   60.5710   33.2260   46.3690 C   0  0  0  0  0  0  0  0  0  0  0  0
   61.8050   33.7800   46.7420 C   0  0  0  0  0  0  0  0  0  0  0  0
   62.7930   32.9760   47.3220 C   0  0  0  0  0  0  0  0  0  0  0  0
   64.0120   33.5420   47.6860 O   0  0  0  0  0  0  0  0  0  0  0  0
   62.5490   31.6110   47.5310 C   0  0  0  0  0  0  0  0  0  0  0  0
   61.3240   31.0490   47.1630 C   0  0  0  0  0  0  0  0  0  0  0  0
   60.3280   31.8470   46.5810 C   0  0  0  0  0  0  0  0  0  0  0  0
   59.0930   31.2930   46.2070 C   0  0  0  0  0  0  0  0  0  0  0  0
   57.2231   31.0457   42.4472 H   0  0  0  0  0  0  0  0  0  0  0  0
   57.1109   29.2582   42.3086 H   0  0  0  0  0  0  0  0  0  0  0  0
   55.6163   30.2547   42.3086 H   0  0  0  0  0  0  0  0  0  0  0  0
   57.5750   34.0968   44.9674 H   0  0  0  0  0  0  0  0  0  0  0  0
   59.7605   35.0953   45.6190 H   0  0  0  0  0  0  0  0  0  0  0  0
   61.9967   34.8507   46.5779 H   0  0  0  0  0  0  0  0  0  0  0  0
   64.8930   33.0960   47.4570 H   0  0  0  0  0  0  0  0  0  0  0  0
   63.3259   30.9797   47.9869 H   0  0  0  0  0  0  0  0  0  0  0  0
   61.1400   29.9775   47.3302 H   0  0  0  0  0  0  0  0  0  0  0  0
   58.9012   30.2226   46.3725 H   0  0  0  0  0  0  0  0  0  0  0  0
  1  2  1  0
  2  3  2  0
  2  4  2  0
  2  5  1  0
  5  6  1  0
  6  7  2  0
  7  8  1  0
  8  9  2  0
  9 10  1  0
 10 11  2  0
 11 12  1  0
 11 13  1  0
 13 14  2  0
 14 15  1  0
 15 16  2  0
 16  6  1  0
 15  9  1  0
  1 17  1  0
  1 18  1  0
  1 19  1  0
  7 20  1  0
  8 21  1  0
 10 22  1  0
 12 23  1  0
 13 24  1  0
 14 25  1  0
 16 26  1  0
M  CHG  1   5  -1
M  END
>  <UniqueID>  (18) 
18

>  <SMILES>  (18) 
CS(=O)(=O)[N-]c1ccc2cc(O)ccc2c1

>  <Energy>  (18) 
28.067098292982045

>  <Genealogy>  (18) 
CS(=O)(=O)[N-]c1ccc2cc(O)ccc2c1 (protonated)
CS(=O)(=O)[N-]c1ccc2cc(O)ccc2c1 (3D coordinates assigned)
CS(=O)(=O)[N-]c1ccc2cc(O)ccc2c1 (optimized conformer: 28.067098292982045 kcal/mol)

>  <smiles>  (18) 
CS(=O)(=O)Nc1ccc2cc(O)ccc2c1

>  <score_type>  (18) 
oracle

>  <origin>  (18) 
adg

>  <m_score__min__energy>  (18) 
-8.1400000000000006

>  <m_primary>  (18) 
energy

$$$$
18:0
     RDKit          3D

 44 46  0  0  0  0  0  0  0  0999 V2000
   56.7330   24.7620   47.4220 C   0  0  0  0  0  0  0  0  0  0  0  0
   57.4870   25.6180   46.5030 N   0  0  0  0  0  0  0  0  0  0  0  0
   57.1040   25.6970   45.0880 C   0  0  0  0  0  0  0  0  0  0  0  0
   56.9660   24.3160   44.5130 C   0  0  0  0  0  0  0  0  0  0  0  0
   55.9670   24.0430   43.5660 C   0  0  0  0  0  0  0  0  0  0  0  0
   55.8520   22.7640   43.0110 C   0  0  0  0  0  0  0  0  0  0  0  0
   56.7350   21.7470   43.3980 C   0  0  0  0  0  0  0  0  0  0  0  0
   56.6310   20.4700   42.8520 O   0  0  0  0  0  0  0  0  0  0  0  0
   57.7350   22.0180   44.3380 C   0  0  0  0  0  0  0  0  0  0  0  0
   57.8580   23.2970   44.8860 C   0  0  0  0  0  0  0  0  0  0  0  0
   58.5050   26.4930   47.0190 C   0  0  0  0  0  0  0  0  0  0  0  0
   58.8650   26.3830   48.2210 O   0  0  0  0  0  0  0  0  0  0  0  0
   59.1520   27.5110   46.1710 C   0  0  0  0  0  0  0  0  0  0  0  0
   60.7860   27.5080   45.7710 S   0  0  0  0  0  0  0  0  0  0  0  0
   60.7790   28.9470   44.9040 C   0  0  0  0  0  0  0  0  0  0  0  0
   59.4910   29.4650   44.9300 C   0  0  0  0  0  0  0  0  0  0  0  0
   58.5750   28.6620   45.6340 C   0  0  0  0  0  0  0  0  0  0  0  0
   57.2140   29.0300   45.8990 N   0  0  0  0  0  0  0  0  0  0  0  0
   56.3260   29.7170   45.0100 C   0  0  0  0  0  0  0  0  0  0  0  0
   55.1340   29.3330   44.8700 O   0  0  0  0  0  0  0  0  0  0  0  0
   56.7870   30.9030   44.3570 N   0  0  0  0  0  0  0  0  0  0  0  0
   57.4150   32.0310   44.9810 C   0  0  0  0  0  0  0  0  0  0  0  0
   57.7350   33.1990   44.2620 C   0  0  0  0  0  0  0  0  0  0  0  0
   58.3750   34.2650   44.9030 C   0  0  0  0  0  0  0  0  0  0  0  0
   58.7100   34.1710   46.2560 C   0  0  0  0  0  0  0  0  0  0  0  0
   58.4150   33.0060   46.9700 C   0  0  0  0  0  0  0  0  0  0  0  0
   58.7510   32.9100   48.2800 F   0  0  0  0  0  0  0  0  0  0  0  0
   57.7760   31.9380   46.3320 C   0  0  0  0  0  0  0  0  0  0  0  0
   56.9743   25.0360   48.4596 H   0  0  0  0  0  0  0  0  0  0  0  0
   55.6553   24.8973   47.2482 H   0  0  0  0  0  0  0  0  0  0  0  0
   57.0032   23.7100   47.2482 H   0  0  0  0  0  0  0  0  0  0  0  0
   56.1433   26.2255   45.0000 H   0  0  0  0  0  0  0  0  0  0  0  0
   57.8827   26.2417   44.5340 H   0  0  0  0  0  0  0  0  0  0  0  0
   55.2715   24.8379   43.2588 H   0  0  0  0  0  0  0  0  0  0  0  0
   55.0668   22.5562   42.2692 H   0  0  0  0  0  0  0  0  0  0  0  0
   56.9710   19.6540   43.3460 H   0  0  0  0  0  0  0  0  0  0  0  0
   58.4272   21.2208   44.6468 H   0  0  0  0  0  0  0  0  0  0  0  0
   58.6567   23.5071   45.6126 H   0  0  0  0  0  0  0  0  0  0  0  0
   61.6461   29.4010   44.4019 H   0  0  0  0  0  0  0  0  0  0  0  0
   59.2132   30.4130   44.4462 H   0  0  0  0  0  0  0  0  0  0  0  0
   57.4812   33.2731   43.1943 H   0  0  0  0  0  0  0  0  0  0  0  0
   58.6150   35.1793   44.3405 H   0  0  0  0  0  0  0  0  0  0  0  0
   59.2060   35.0139   46.7596 H   0  0  0  0  0  0  0  0  0  0  0  0
   57.5553   31.0188   46.8944 H   0  0  0  0  0  0  0  0  0  0  0  0
  1  2  1  0
  2  3  1  0
  3  4  1  0
  4  5  2  0
  5  6  1  0
  6  7  2  0
  7  8  1  0
  7  9  1  0
  9 10  2  0
  2 11  1  0
 11 12  2  0
 11 13  1  0
 13 14  1  0
 14 15  1  0
 15 16  2  0
 16 17  1  0
 17 18  1  0
 18 19  1  0
 19 20  2  0
 19 21  1  0
 21 22  1  0
 22 23  2  0
 23 24  1  0
 24 25  2  0
 25 26  1  0
 26 27  1  0
 26 28  2  0
 10  4  1  0
 17 13  2  0
 28 22  1  0
  1 29  1  0
  1 30  1  0
  1 31  1  0
  3 32  1  0
  3 33  1  0
  5 34  1  0
  6 35  1  0
  8 36  1  0
  9 37  1  0
 10 38  1  0
 15 39  1  0
 16 40  1  0
 23 41  1  0
 24 42  1  0
 25 43  1  0
 28 44  1  0
M  CHG  2  18  -1  21  -1
M  END
>  <UniqueID>  (19) 
19

>  <SMILES>  (19) 
CN(Cc1ccc(O)cc1)C(=O)c1sccc1[N-]C(=O)[N-]c1cccc(F)c1

>  <Energy>  (19) 
76.80386122383334

>  <Genealogy>  (19) 
CN(Cc1ccc(O)cc1)C(=O)c1sccc1[N-]C(=O)[N-]c1cccc(F)c1 (protonated)
CN(Cc1ccc(O)cc1)C(=O)c1sccc1[N-]C(=O)[N-]c1cccc(F)c1 (3D coordinates assigned)
CN(Cc1ccc(O)cc1)C(=O)c1sccc1[N-]C(=O)[N-]c1cccc(F)c1 (optimized conformer: 76.80386122383334 kcal/mol)

>  <smiles>  (19) 
CN(Cc1ccc(O)cc1)C(=O)c1sccc1NC(=O)Nc1cccc(F)c1

>  <score_type>  (19) 
oracle

>  <origin>  (19) 
adg

>  <m_score__min__energy>  (19) 
-12.44

>  <m_primary>  (19) 
energy

$$$$
19:0
     RDKit          3D

 60 63  0  0  0  0  0  0  0  0999 V2000
   50.3860   32.6140   54.9690 C   0  0  0  0  0  0  0  0  0  0  0  0
   50.7880   31.4070   54.3250 O   0  0  0  0  0  0  0  0  0  0  0  0
   51.6020   31.3490   53.1830 C   0  0  0  0  0  0  0  0  0  0  0  0
   52.8200   30.6450   53.1670 C   0  0  0  0  0  0  0  0  0  0  0  0
   53.6080   30.6130   52.0060 C   0  0  0  0  0  0  0  0  0  0  0  0
   54.9150   29.8620   51.9900 C   0  0  0  0  0  0  0  0  0  0  0  0
   55.7900   30.3130   53.0940 N   0  0  0  0  0  0  0  0  0  0  0  0
   56.9110   29.3720   53.3210 C   0  0  0  0  0  0  0  0  0  0  0  0
   57.8860   29.3550   52.1290 C   0  0  0  0  0  0  0  0  0  0  0  0
   58.0340   30.7030   51.5690 N   0  0  0  0  0  0  0  0  0  0  0  0
   58.3930   30.8820   50.1850 C   0  0  0  0  0  0  0  0  0  0  0  0
   58.5650   29.7760   49.3550 C   0  0  0  0  0  0  0  0  0  0  0  0
   58.9120   29.9830   48.0240 C   0  0  0  0  0  0  0  0  0  0  0  0
   59.0810   31.2470   47.5300 N   0  0  0  0  0  0  0  0  0  0  0  0
   59.4490   31.4020   46.1090 C   0  0  0  0  0  0  0  0  0  0  0  0
   58.5980   30.5170   45.2280 C   0  0  0  0  0  0  0  0  0  0  0  0
   59.0390   29.2200   44.9060 C   0  0  0  0  0  0  0  0  0  0  0  0
   58.2700   28.3970   44.0800 C   0  0  0  0  0  0  0  0  0  0  0  0
   57.0600   28.8630   43.5570 C   0  0  0  0  0  0  0  0  0  0  0  0
   56.6150   30.1510   43.8650 C   0  0  0  0  0  0  0  0  0  0  0  0
   57.3790   30.9800   44.6920 C   0  0  0  0  0  0  0  0  0  0  0  0
   56.9300   32.2330   44.9610 F   0  0  0  0  0  0  0  0  0  0  0  0
   58.8890   32.3290   48.3630 C   0  0  0  0  0  0  0  0  0  0  0  0
   59.0590   33.8770   47.8260 S   0  0  0  0  0  0  0  0  0  0  0  0
   58.5460   32.1320   49.6680 N   0  0  0  0  0  0  0  0  0  0  0  0
   57.6970   31.8460   52.4190 C   0  0  0  0  0  0  0  0  0  0  0  0
   56.2470   31.7190   52.9220 C   0  0  0  0  0  0  0  0  0  0  0  0
   53.1750   31.2890   50.8560 C   0  0  0  0  0  0  0  0  0  0  0  0
   51.9570   31.9950   50.8580 C   0  0  0  0  0  0  0  0  0  0  0  0
   51.4880   32.6840   49.7270 O   0  0  0  0  0  0  0  0  0  0  0  0
   50.6360   32.1190   48.7370 C   0  0  0  0  0  0  0  0  0  0  0  0
   51.1800   32.0190   52.0240 C   0  0  0  0  0  0  0  0  0  0  0  0
   49.9760   32.7150   52.0350 O   0  0  0  0  0  0  0  0  0  0  0  0
   50.4306   32.4800   56.0599 H   0  0  0  0  0  0  0  0  0  0  0  0
   51.0608   33.4304   54.6720 H   0  0  0  0  0  0  0  0  0  0  0  0
   49.3565   32.8628   54.6720 H   0  0  0  0  0  0  0  0  0  0  0  0
   53.1570   30.1160   54.0706 H   0  0  0  0  0  0  0  0  0  0  0  0
   54.7149   28.7864   52.1040 H   0  0  0  0  0  0  0  0  0  0  0  0
   55.4230   30.0561   51.0339 H   0  0  0  0  0  0  0  0  0  0  0  0
   57.4574   29.6789   54.2250 H   0  0  0  0  0  0  0  0  0  0  0  0
   56.4936   28.3611   53.4390 H   0  0  0  0  0  0  0  0  0  0  0  0
   58.8679   28.9942   52.4692 H   0  0  0  0  0  0  0  0  0  0  0  0
   57.4864   28.6877   51.3511 H   0  0  0  0  0  0  0  0  0  0  0  0
   58.4287   28.7568   49.7456 H   0  0  0  0  0  0  0  0  0  0  0  0
   59.0525   29.1178   47.3594 H   0  0  0  0  0  0  0  0  0  0  0  0
   59.3033   32.4512   45.8123 H   0  0  0  0  0  0  0  0  0  0  0  0
   60.5021   31.1087   45.9864 H   0  0  0  0  0  0  0  0  0  0  0  0
   59.9949   28.8522   45.3071 H   0  0  0  0  0  0  0  0  0  0  0  0
   58.6168   27.3809   43.8407 H   0  0  0  0  0  0  0  0  0  0  0  0
   56.4581   28.2152   42.9027 H   0  0  0  0  0  0  0  0  0  0  0  0
   55.6607   30.5140   43.4557 H   0  0  0  0  0  0  0  0  0  0  0  0
   58.3720   32.9630   50.2800 H   0  0  0  0  0  0  0  0  0  0  0  0
   58.3804   31.8733   53.2806 H   0  0  0  0  0  0  0  0  0  0  0  0
   57.7965   32.7725   51.8344 H   0  0  0  0  0  0  0  0  0  0  0  0
   56.1714   32.2292   53.8936 H   0  0  0  0  0  0  0  0  0  0  0  0
   55.6019   32.1732   52.1555 H   0  0  0  0  0  0  0  0  0  0  0  0
   53.7918   31.2674   49.9455 H   0  0  0  0  0  0  0  0  0  0  0  0
   49.8152   31.5747   49.2269 H   0  0  0  0  0  0  0  0  0  0  0  0
   50.2207   32.9213   48.1094 H   0  0  0  0  0  0  0  0  0  0  0  0
   51.2135   31.4243   48.1094 H   0  0  0  0  0  0  0  0  0  0  0  0
  1  2  1  0
  2  3  1  0
  3  4  2  0
  4  5  1  0
  5  6  1  0
  6  7  1  0
  7  8  1  0
  8  9  1  0
  9 10  1  0
 10 11  1  0
 11 12  1  0
 12 13  2  0
 13 14  1  0
 14 15  1  0
 15 16  1  0
 16 17  2  0
 17 18  1  0
 18 19  2  0
 19 20  1  0
 20 21  2  0
 21 22  1  0
 14 23  1  0
 23 24  2  0
 23 25  1  0
 10 26  1  0
 26 27  1  0
  5 28  2  0
 28 29  1  0
 29 30  1  0
 30 31  1  0
 29 32  2  0
 32 33  1  0
 32  3  1  0
 27  7  1  0
 25 11  2  0
 21 16  1  0
  1 34  1  0
  1 35  1  0
  1 36  1  0
  4 37  1  0
  6 38  1  0
  6 39  1  0
  8 40  1  0
  8 41  1  0
  9 42  1  0
  9 43  1  0
 12 44  1  0
 13 45  1  0
 15 46  1  0
 15 47  1  0
 17 48  1  0
 18 49  1  0
 19 50  1  0
 20 51  1  0
 25 52  1  0
 26 53  1  0
 26 54  1  0
 27 55  1  0
 27 56  1  0
 28 57  1  0
 31 58  1  0
 31 59  1  0
 31 60  1  0
M  CHG  2  25   1  33  -1
M  END
>  <UniqueID>  (20) 
20

>  <SMILES>  (20) 
COc1cc(CN2CCN(c3ccn(Cc4ccccc4F)c(=S)[nH+]3)CC2)cc(OC)c1[O-]

>  <Energy>  (20) 
77.73910366129245

>  <Genealogy>  (20) 
COc1cc(CN2CCN(c3ccn(Cc4ccccc4F)c(=S)[nH+]3)CC2)cc(OC)c1[O-] (protonated)
COc1cc(CN2CCN(c3ccn(Cc4ccccc4F)c(=S)[nH+]3)CC2)cc(OC)c1[O-] (3D coordinates assigned)
COc1cc(CN2CCN(c3ccn(Cc4ccccc4F)c(=S)[nH+]3)CC2)cc(OC)c1[O-] (nonaromatic ring conformer: 77.73910366129245 kcal/mol)

>  <smiles>  (20) 
COc1cc(CN2CCN(c3ccn(Cc4ccccc4F)c(=S)n3)CC2)cc(OC)c1O

>  <score_type>  (20) 
oracle

>  <origin>  (20) 
adg

>  <m_score__min__energy>  (20) 
-11.619999999999999

>  <m_primary>  (20) 
energy

$$$$
20:0
     RDKit          3D

 48 51  0  0  0  0  0  0  0  0999 V2000
   55.0160   24.4610   46.3610 O   0  0  0  0  0  0  0  0  0  0  0  0
   55.8760   25.3580   46.1580 C   0  0  0  0  0  0  0  0  0  0  0  0
   55.4960   26.7030   45.9100 N   0  0  0  0  0  0  0  0  0  0  0  0
   56.6570   27.5020   45.7620 C   0  0  0  0  0  0  0  0  0  0  0  0
   56.5880   28.7420   45.5450 O   0  0  0  0  0  0  0  0  0  0  0  0
   57.9150   26.7680   45.8920 C   0  0  0  0  0  0  0  0  0  0  0  0
   59.1150   27.3640   45.9220 C   0  0  0  0  0  0  0  0  0  0  0  0
   59.4570   28.4930   46.8120 C   0  0  0  0  0  0  0  0  0  0  0  0
   59.0020   28.5380   48.1390 C   0  0  0  0  0  0  0  0  0  0  0  0
   59.3640   29.6000   48.9700 C   0  0  0  0  0  0  0  0  0  0  0  0
   60.1880   30.6270   48.4920 C   0  0  0  0  0  0  0  0  0  0  0  0
   60.4810   31.6920   49.3510 O   0  0  0  0  0  0  0  0  0  0  0  0
   59.4920   33.0860   49.4680 S   0  0  0  0  0  0  0  0  0  0  0  0
   58.2180   32.7220   50.1740 O   0  0  0  0  0  0  0  0  0  0  0  0
   60.1850   34.1590   50.2630 O   0  0  0  0  0  0  0  0  0  0  0  0
   59.1130   33.6780   47.8480 C   0  0  0  0  0  0  0  0  0  0  0  0
   58.0300   33.1330   47.1350 C   0  0  0  0  0  0  0  0  0  0  0  0
   57.7510   33.5750   45.8350 C   0  0  0  0  0  0  0  0  0  0  0  0
   58.5550   34.5560   45.2390 C   0  0  0  0  0  0  0  0  0  0  0  0
   59.6410   35.0950   45.9430 C   0  0  0  0  0  0  0  0  0  0  0  0
   59.9200   34.6580   47.2440 C   0  0  0  0  0  0  0  0  0  0  0  0
   60.7090   30.5590   47.1840 C   0  0  0  0  0  0  0  0  0  0  0  0
   61.6190   31.5440   46.7630 O   0  0  0  0  0  0  0  0  0  0  0  0
   63.0000   31.6150   47.1270 C   0  0  0  0  0  0  0  0  0  0  0  0
   63.1880   32.4370   48.3760 C   0  0  0  0  0  0  0  0  0  0  0  0
   62.8520   33.8020   48.3840 C   0  0  0  0  0  0  0  0  0  0  0  0
   63.0120   34.5610   49.5470 C   0  0  0  0  0  0  0  0  0  0  0  0
   63.4970   33.9610   50.7120 C   0  0  0  0  0  0  0  0  0  0  0  0
   63.8170   32.6010   50.7180 C   0  0  0  0  0  0  0  0  0  0  0  0
   63.6570   31.8380   49.5570 C   0  0  0  0  0  0  0  0  0  0  0  0
   60.3270   29.4890   46.3480 C   0  0  0  0  0  0  0  0  0  0  0  0
   57.6380   25.0110   46.1780 S   0  0  0  0  0  0  0  0  0  0  0  0
   59.8940   26.9894   45.2417 H   0  0  0  0  0  0  0  0  0  0  0  0
   58.3582   27.7341   48.5255 H   0  0  0  0  0  0  0  0  0  0  0  0
   58.9995   29.6304   50.0074 H   0  0  0  0  0  0  0  0  0  0  0  0
   57.4012   32.3587   47.5986 H   0  0  0  0  0  0  0  0  0  0  0  0
   56.8999   33.1515   45.2816 H   0  0  0  0  0  0  0  0  0  0  0  0
   58.3340   34.9031   44.2189 H   0  0  0  0  0  0  0  0  0  0  0  0
   60.2745   35.8618   45.4731 H   0  0  0  0  0  0  0  0  0  0  0  0
   60.7725   35.0825   47.7945 H   0  0  0  0  0  0  0  0  0  0  0  0
   63.3776   30.5974   47.3059 H   0  0  0  0  0  0  0  0  0  0  0  0
   63.5545   32.0932   46.3061 H   0  0  0  0  0  0  0  0  0  0  0  0
   62.4614   34.2750   47.4709 H   0  0  0  0  0  0  0  0  0  0  0  0
   62.7560   35.6308   49.5450 H   0  0  0  0  0  0  0  0  0  0  0  0
   63.6270   34.5600   51.6254 H   0  0  0  0  0  0  0  0  0  0  0  0
   64.1953   32.1298   51.6372 H   0  0  0  0  0  0  0  0  0  0  0  0
   63.8992   30.7651   49.5686 H   0  0  0  0  0  0  0  0  0  0  0  0
   60.7162   29.4357   45.3205 H   0  0  0  0  0  0  0  0  0  0  0  0
  1  2  2  0
  2  3  1  0
  3  4  1  0
  4  5  2  0
  4  6  1  0
  6  7  2  3
  7  8  1  0
  8  9  2  0
  9 10  1  0
 10 11  2  0
 11 12  1  0
 12 13  1  0
 13 14  2  0
 13 15  2  0
 13 16  1  0
 16 17  2  0
 17 18  1  0
 18 19  2  0
 19 20  1  0
 20 21  2  0
 11 22  1  0
 22 23  1  0
 23 24  1  0
 24 25  1  0
 25 26  2  0
 26 27  1  0
 27 28  2  0
 28 29  1  0
 29 30  2  0
 22 31  2  0
  6 32  1  0
 32  2  1  0
 31  8  1  0
 21 16  1  0
 30 25  1  0
  7 33  1  0
  9 34  1  0
 10 35  1  0
 17 36  1  0
 18 37  1  0
 19 38  1  0
 20 39  1  0
 21 40  1  0
 24 41  1  0
 24 42  1  0
 26 43  1  0
 27 44  1  0
 28 45  1  0
 29 46  1  0
 30 47  1  0
 31 48  1  0
M  CHG  1   3  -1
M  END
>  <UniqueID>  (21) 
21

>  <SMILES>  (21) 
O=C1[N-]C(=O)C(=Cc2ccc(OS(=O)(=O)c3ccccc3)c(OCc3ccccc3)c2)S1

>  <Energy>  (21) 
80.9370547382807

>  <Genealogy>  (21) 
O=C1[N-]C(=O)C(=Cc2ccc(OS(=O)(=O)c3ccccc3)c(OCc3ccccc3)c2)S1 (protonated)
O=C1[N-]C(=O)C(=Cc2ccc(OS(=O)(=O)c3ccccc3)c(OCc3ccccc3)c2)S1 (3D coordinates assigned)
O=C1[N-]C(=O)C(=Cc2ccc(OS(=O)(=O)c3ccccc3)c(OCc3ccccc3)c2)S1 (nonaromatic ring conformer: 80.9370547382807 kcal/mol)

>  <smiles>  (21) 
O=C1NC(=O)C(=Cc2ccc(OS(=O)(=O)c3ccccc3)c(OCc3ccccc3)c2)S1

>  <score_type>  (21) 
oracle

>  <origin>  (21) 
adg

>  <m_score__min__energy>  (21) 
-12.65

>  <m_primary>  (21) 
energy

$$$$
21:0
     RDKit          3D

 55 58  0  0  0  0  0  0  0  0999 V2000
   57.6040   29.9390   46.3100 H   0  0  0  0  0  0  0  0  0  0  0  0
   57.7280   30.8970   46.0060 O   0  0  0  0  0  0  0  0  0  0  0  0
   58.9180   31.5990   46.1930 C   0  0  0  0  0  0  0  0  0  0  0  0
   58.9400   32.9280   45.9280 N   0  0  0  0  0  0  0  0  0  0  0  0
   60.0570   33.6770   46.1070 C   0  0  0  0  0  0  0  0  0  0  0  0
   60.0090   34.9080   45.8390 O   0  0  0  0  0  0  0  0  0  0  0  0
   61.2140   33.0990   46.5690 N   0  0  0  0  0  0  0  0  0  0  0  0
   62.4350   33.9060   46.7760 C   0  0  0  0  0  0  0  0  0  0  0  0
   63.2422   33.5103   46.1421 H   0  0  0  0  0  0  0  0  0  0  0  0
   62.2204   34.9511   46.5082 H   0  0  0  0  0  0  0  0  0  0  0  0
   62.8660   33.8510   48.2210 C   0  0  0  0  0  0  0  0  0  0  0  0
   64.1700   33.4390   48.5420 C   0  0  0  0  0  0  0  0  0  0  0  0
   64.8608   33.1374   47.7409 H   0  0  0  0  0  0  0  0  0  0  0  0
   64.5950   33.4100   49.8730 C   0  0  0  0  0  0  0  0  0  0  0  0
   65.6175   33.0849   50.1157 H   0  0  0  0  0  0  0  0  0  0  0  0
   63.7240   33.7930   50.8960 C   0  0  0  0  0  0  0  0  0  0  0  0
   64.0610   33.7706   51.9429 H   0  0  0  0  0  0  0  0  0  0  0  0
   62.4260   34.2040   50.5890 C   0  0  0  0  0  0  0  0  0  0  0  0
   61.7415   34.5055   51.3956 H   0  0  0  0  0  0  0  0  0  0  0  0
   61.9920   34.2340   49.2590 C   0  0  0  0  0  0  0  0  0  0  0  0
   60.7240   34.6360   48.9900 F   0  0  0  0  0  0  0  0  0  0  0  0
   61.2290   31.7580   46.8570 C   0  0  0  0  0  0  0  0  0  0  0  0
   62.2790   31.2140   47.3010 O   0  0  0  0  0  0  0  0  0  0  0  0
   60.0850   30.9710   46.6520 C   0  0  0  0  0  0  0  0  0  0  0  0
   60.1110   29.5330   46.9770 C   0  0  0  0  0  0  0  0  0  0  0  0
   60.2644   28.8215   46.1522 H   0  0  0  0  0  0  0  0  0  0  0  0
   59.9590   29.0350   48.2190 C   0  0  0  0  0  0  0  0  0  0  0  0
   60.2750   27.6070   48.4740 C   0  0  0  0  0  0  0  0  0  0  0  0
   61.0870   27.3110   49.3890 O   0  0  0  0  0  0  0  0  0  0  0  0
   59.7370   26.5470   47.6680 N   0  0  0  0  0  0  0  0  0  0  0  0
   58.4010   26.4680   47.1500 C   0  0  0  0  0  0  0  0  0  0  0  0
   57.9310   27.4970   46.3250 C   0  0  0  0  0  0  0  0  0  0  0  0
   58.5882   28.3434   46.0766 H   0  0  0  0  0  0  0  0  0  0  0  0
   56.6280   27.4530   45.8150 C   0  0  0  0  0  0  0  0  0  0  0  0
   56.2597   28.2703   45.1776 H   0  0  0  0  0  0  0  0  0  0  0  0
   55.7940   26.3710   46.1150 C   0  0  0  0  0  0  0  0  0  0  0  0
   54.4960   26.3330   45.6200 O   0  0  0  0  0  0  0  0  0  0  0  0
   56.2690   25.3240   46.9110 C   0  0  0  0  0  0  0  0  0  0  0  0
   55.6181   24.4665   47.1368 H   0  0  0  0  0  0  0  0  0  0  0  0
   57.5700   25.3660   47.4200 C   0  0  0  0  0  0  0  0  0  0  0  0
   57.9453   24.5341   48.0340 H   0  0  0  0  0  0  0  0  0  0  0  0
   59.5020   30.0650   49.5960 S   0  0  0  0  0  0  0  0  0  0  0  0
   58.9420   31.3680   49.0980 O   0  0  0  0  0  0  0  0  0  0  0  0
   58.4340   29.3670   50.3910 O   0  0  0  0  0  0  0  0  0  0  0  0
   60.8830   30.4400   50.6280 C   0  0  0  0  0  0  0  0  0  0  0  0
   60.6980   31.0570   51.8750 C   0  0  0  0  0  0  0  0  0  0  0  0
   59.6862   31.3358   52.2045 H   0  0  0  0  0  0  0  0  0  0  0  0
   61.7960   31.3180   52.6990 C   0  0  0  0  0  0  0  0  0  0  0  0
   61.6465   31.7966   53.6781 H   0  0  0  0  0  0  0  0  0  0  0  0
   63.0830   30.9720   52.2810 C   0  0  0  0  0  0  0  0  0  0  0  0
   63.9457   31.1742   52.9328 H   0  0  0  0  0  0  0  0  0  0  0  0
   63.2750   30.3690   51.0350 C   0  0  0  0  0  0  0  0  0  0  0  0
   64.2891   30.0988   50.7055 H   0  0  0  0  0  0  0  0  0  0  0  0
   62.1790   30.1090   50.2070 C   0  0  0  0  0  0  0  0  0  0  0  0
   62.3337   29.6434   49.2225 H   0  0  0  0  0  0  0  0  0  0  0  0
  1  2  1  0
  2  3  1  0
  3  4  1  0
  4  5  1  0
  5  6  2  0
  5  7  1  0
  7  8  1  0
  8  9  1  0
  8 10  1  0
  8 11  1  0
 11 12  2  0
 12 13  1  0
 12 14  1  0
 14 15  1  0
 14 16  2  0
 16 17  1  0
 16 18  1  0
 18 19  1  0
 18 20  2  0
 20 21  1  0
  7 22  1  0
 22 23  2  0
 22 24  1  0
 24 25  1  0
 25 26  1  0
 25 27  2  0
 27 28  1  0
 28 29  2  0
 28 30  1  0
 30 31  1  0
 31 32  2  0
 32 33  1  0
 32 34  1  0
 34 35  1  0
 34 36  2  0
 36 37  1  0
 36 38  1  0
 38 39  1  0
 38 40  2  0
 40 41  1  0
 27 42  1  0
 42 43  2  0
 42 44  2  0
 42 45  1  0
 45 46  2  0
 46 47  1  0
 46 48  1  0
 48 49  1  0
 48 50  2  0
 50 51  1  0
 50 52  1  0
 52 53  1  0
 52 54  2  0
 54 55  1  0
 24  3  2  0
 40 31  1  0
 54 45  1  0
 20 11  1  0
M  CHG  3   4  -1  30  -1  37  -1
M  END
>  <UniqueID>  (22) 
22

>  <SMILES>  (22) 
O=C([N-]c1ccc([O-])cc1)/C(=C/c1c(O)[n-]c(=O)n(Cc2ccccc2F)c1=O)S(=O)(=O)c1ccccc1

>  <Energy>  (22) 
77.34665064206013

>  <Genealogy>  (22) 
O=C([N-]c1ccc([O-])cc1)C(=Cc1c(O)[n-]c(=O)n(Cc2ccccc2F)c1=O)S(=O)(=O)c1ccccc1 (protonated)
O=C([N-]c1ccc([O-])cc1)/C(=C/c1c(O)[n-]c(=O)n(Cc2ccccc2F)c1=O)S(=O)(=O)c1ccccc1 (cis-trans isomerization)
O=C([N-]c1ccc([O-])cc1)/C(=C/c1c(O)[n-]c(=O)n(Cc2ccccc2F)c1=O)S(=O)(=O)c1ccccc1 (3D coordinates assigned)
O=C([N-]c1ccc([O-])cc1)/C(=C/c1c(O)[n-]c(=O)n(Cc2ccccc2F)c1=O)S(=O)(=O)c1ccccc1 (optimized conformer: 77.34665064206013 kcal/mol)

>  <smiles>  (22) 
O=C(Nc1ccc(O)cc1)C(=Cc1c(O)[nH]c(=O)n(Cc2ccccc2F)c1=O)S(=O)(=O)c1ccccc1

>  <score_type>  (22) 
oracle

>  <origin>  (22) 
adg

>  <m_score__min__energy>  (22) 
-14.77

>  <m_primary>  (22) 
energy

$$$$
22:0
     RDKit          3D

 41 44  0  0  0  0  0  0  0  0999 V2000
   55.1580   23.1090   47.6390 C   0  0  0  0  0  0  0  0  0  0  0  0
   54.9190   24.1310   46.6800 O   0  0  0  0  0  0  0  0  0  0  0  0
   55.9200   25.0010   46.2370 C   0  0  0  0  0  0  0  0  0  0  0  0
   57.2140   24.4940   45.9910 C   0  0  0  0  0  0  0  0  0  0  0  0
   58.2290   25.3550   45.5480 C   0  0  0  0  0  0  0  0  0  0  0  0
   57.9060   26.6940   45.3660 C   0  0  0  0  0  0  0  0  0  0  0  0
   58.8710   27.9650   44.8560 S   0  0  0  0  0  0  0  0  0  0  0  0
   57.5950   29.0860   44.9750 C   0  0  0  0  0  0  0  0  0  0  0  0
   57.6920   30.5320   44.6660 C   0  0  0  0  0  0  0  0  0  0  0  0
   57.6600   30.9710   43.3310 C   0  0  0  0  0  0  0  0  0  0  0  0
   57.7470   32.3320   43.0320 C   0  0  0  0  0  0  0  0  0  0  0  0
   57.8640   33.2720   44.0570 C   0  0  0  0  0  0  0  0  0  0  0  0
   57.9000   32.8530   45.3980 C   0  0  0  0  0  0  0  0  0  0  0  0
   58.0250   33.7820   46.4840 N   0  0  0  0  0  0  0  0  0  0  0  0
   59.4850   34.6010   46.9360 S   0  0  0  0  0  0  0  0  0  0  0  0
   59.8360   35.6050   45.8740 O   0  0  0  0  0  0  0  0  0  0  0  0
   59.2620   35.3230   48.2350 O   0  0  0  0  0  0  0  0  0  0  0  0
   60.7840   33.4320   47.1500 C   0  0  0  0  0  0  0  0  0  0  0  0
   60.4760   32.0820   47.3640 C   0  0  0  0  0  0  0  0  0  0  0  0
   61.5010   31.1430   47.5250 C   0  0  0  0  0  0  0  0  0  0  0  0
   61.1990   29.8380   47.7300 F   0  0  0  0  0  0  0  0  0  0  0  0
   62.8370   31.5520   47.4740 C   0  0  0  0  0  0  0  0  0  0  0  0
   63.1490   32.8990   47.2650 C   0  0  0  0  0  0  0  0  0  0  0  0
   64.4450   33.2940   47.2160 F   0  0  0  0  0  0  0  0  0  0  0  0
   62.1250   33.8380   47.1030 C   0  0  0  0  0  0  0  0  0  0  0  0
   57.8120   31.4870   45.6930 C   0  0  0  0  0  0  0  0  0  0  0  0
   56.4480   28.4930   45.4000 N   0  0  0  0  0  0  0  0  0  0  0  0
   56.6330   27.1670   45.6130 C   0  0  0  0  0  0  0  0  0  0  0  0
   55.6540   26.3300   46.0420 N   0  0  0  0  0  0  0  0  0  0  0  0
   55.0603   23.5266   48.6520 H   0  0  0  0  0  0  0  0  0  0  0  0
   54.4247   22.3003   47.5035 H   0  0  0  0  0  0  0  0  0  0  0  0
   56.1738   22.7094   47.5035 H   0  0  0  0  0  0  0  0  0  0  0  0
   57.4262   23.4259   46.1463 H   0  0  0  0  0  0  0  0  0  0  0  0
   59.2454   24.9830   45.3515 H   0  0  0  0  0  0  0  0  0  0  0  0
   57.5658   30.2375   42.5167 H   0  0  0  0  0  0  0  0  0  0  0  0
   57.7232   32.6649   41.9839 H   0  0  0  0  0  0  0  0  0  0  0  0
   57.9282   34.3431   43.8147 H   0  0  0  0  0  0  0  0  0  0  0  0
   59.4252   31.7593   47.4056 H   0  0  0  0  0  0  0  0  0  0  0  0
   63.6430   30.8139   47.5983 H   0  0  0  0  0  0  0  0  0  0  0  0
   62.3724   34.8971   46.9384 H   0  0  0  0  0  0  0  0  0  0  0  0
   57.8370   31.1557   46.7416 H   0  0  0  0  0  0  0  0  0  0  0  0
  1  2  1  0
  2  3  1  0
  3  4  2  0
  4  5  1  0
  5  6  2  0
  6  7  1  0
  7  8  1  0
  8  9  1  0
  9 10  2  0
 10 11  1  0
 11 12  2  0
 12 13  1  0
 13 14  1  0
 14 15  1  0
 15 16  2  0
 15 17  2  0
 15 18  1  0
 18 19  2  0
 19 20  1  0
 20 21  1  0
 20 22  2  0
 22 23  1  0
 23 24  1  0
 23 25  2  0
 13 26  2  0
  8 27  2  0
 27 28  1  0
 28 29  2  0
 29  3  1  0
 28  6  1  0
 26  9  1  0
 25 18  1  0
  1 30  1  0
  1 31  1  0
  1 32  1  0
  4 33  1  0
  5 34  1  0
 10 35  1  0
 11 36  1  0
 12 37  1  0
 19 38  1  0
 22 39  1  0
 25 40  1  0
 26 41  1  0
M  CHG  1  14  -1
M  END
>  <UniqueID>  (23) 
23

>  <SMILES>  (23) 
COc1ccc2sc(-c3cccc([N-]S(=O)(=O)c4cc(F)cc(F)c4)c3)nc2n1

>  <Energy>  (23) 
83.74279697380126

>  <Genealogy>  (23) 
COc1ccc2sc(-c3cccc([N-]S(=O)(=O)c4cc(F)cc(F)c4)c3)nc2n1 (protonated)
COc1ccc2sc(-c3cccc([N-]S(=O)(=O)c4cc(F)cc(F)c4)c3)nc2n1 (3D coordinates assigned)
COc1ccc2sc(-c3cccc([N-]S(=O)(=O)c4cc(F)cc(F)c4)c3)nc2n1 (optimized conformer: 83.74279697380126 kcal/mol)

>  <smiles>  (23) 
COc1ccc2sc(-c3cccc(NS(=O)(=O)c4cc(F)cc(F)c4)c3)nc2n1

>  <score_type>  (23) 
oracle

>  <origin>  (23) 
adg

>  <m_score__min__energy>  (23) 
-10.210000000000001

>  <m_primary>  (23) 
energy

$$$$
23:0
     RDKit          3D

 24 25  0  0  0  0  0  0  0  0999 V2000
   55.9000   29.7190   42.7100 O   0  0  0  0  0  0  0  0  0  0  0  0
   56.3010   29.8520   43.8970 C   0  0  0  0  0  0  0  0  0  0  0  0
   55.8970   28.8880   44.8780 N   0  0  0  0  0  0  0  0  0  0  0  0
   56.6420   28.0300   45.5240 C   0  0  0  0  0  0  0  0  0  0  0  0
   57.9610   28.3380   45.7110 N   0  0  0  0  0  0  0  0  0  0  0  0
   58.8180   27.4990   46.3530 C   0  0  0  0  0  0  0  0  0  0  0  0
   58.3640   26.2830   46.8590 C   0  0  0  0  0  0  0  0  0  0  0  0
   57.0220   25.9440   46.7130 C   0  0  0  0  0  0  0  0  0  0  0  0
   56.1430   26.8130   46.0610 C   0  0  0  0  0  0  0  0  0  0  0  0
   54.7990   26.4660   45.9940 O   0  0  0  0  0  0  0  0  0  0  0  0
   57.0880   31.0420   44.2880 C   0  0  0  0  0  0  0  0  0  0  0  0
   57.5140   31.9770   43.3320 C   0  0  0  0  0  0  0  0  0  0  0  0
   58.2570   33.0870   43.7400 C   0  0  0  0  0  0  0  0  0  0  0  0
   58.5690   33.2580   45.0890 C   0  0  0  0  0  0  0  0  0  0  0  0
   58.1280   32.3100   46.0160 C   0  0  0  0  0  0  0  0  0  0  0  0
   58.3980   32.4460   47.2390 O   0  0  0  0  0  0  0  0  0  0  0  0
   57.4050   31.2360   45.5990 N   0  0  0  0  0  0  0  0  0  0  0  0
   58.3370   29.2390   45.3390 H   0  0  0  0  0  0  0  0  0  0  0  0
   59.8742   27.7820   46.4731 H   0  0  0  0  0  0  0  0  0  0  0  0
   59.0583   25.5985   47.3682 H   0  0  0  0  0  0  0  0  0  0  0  0
   56.6518   24.9883   47.1124 H   0  0  0  0  0  0  0  0  0  0  0  0
   57.2647   31.8367   42.2698 H   0  0  0  0  0  0  0  0  0  0  0  0
   58.5958   33.8256   42.9986 H   0  0  0  0  0  0  0  0  0  0  0  0
   59.1550   34.1285   45.4189 H   0  0  0  0  0  0  0  0  0  0  0  0
  1  2  2  0
  2  3  1  0
  3  4  2  3
  4  5  1  0
  5  6  1  0
  6  7  2  0
  7  8  1  0
  8  9  2  0
  9 10  1  0
  2 11  1  0
 11 12  2  0
 12 13  1  0
 13 14  2  0
 14 15  1  0
 15 16  2  0
 15 17  1  0
  9  4  1  0
 17 11  1  0
  5 18  1  0
  6 19  1  0
  7 20  1  0
  8 21  1  0
 12 22  1  0
 13 23  1  0
 14 24  1  0
M  CHG  2  10  -1  17  -1
M  END
>  <UniqueID>  (24) 
24

>  <SMILES>  (24) 
O=C(N=c1[nH]cccc1[O-])c1cccc(=O)[n-]1

>  <Energy>  (24) 
39.125540039707516

>  <Genealogy>  (24) 
O=C(N=c1[nH]cccc1[O-])c1cccc(=O)[n-]1 (protonated)
O=C(N=c1[nH]cccc1[O-])c1cccc(=O)[n-]1 (3D coordinates assigned)
O=C(N=c1[nH]cccc1[O-])c1cccc(=O)[n-]1 (optimized conformer: 39.125540039707516 kcal/mol)

>  <smiles>  (24) 
O=C(N=c1[nH]cccc1O)c1cccc(=O)[nH]1

>  <score_type>  (24) 
oracle

>  <origin>  (24) 
adg

>  <m_score__min__energy>  (24) 
-11.34

>  <m_primary>  (24) 
energy

$$$$
24:0
     RDKit          3D

 56 59  0  0  0  0  0  0  0  0999 V2000
   59.6990   32.1390   52.2950 C   0  0  0  0  0  0  0  0  0  0  0  0
   59.7000   31.0860   51.2270 C   0  0  0  0  0  0  0  0  0  0  0  0
   60.9110   30.6010   50.7140 C   0  0  0  0  0  0  0  0  0  0  0  0
   60.9130   29.5940   49.7440 C   0  0  0  0  0  0  0  0  0  0  0  0
   59.7050   29.0570   49.2800 C   0  0  0  0  0  0  0  0  0  0  0  0
   59.7230   27.7920   48.0520 S   0  0  0  0  0  0  0  0  0  0  0  0
   61.0960   27.7730   47.4390 O   0  0  0  0  0  0  0  0  0  0  0  0
   59.4580   26.4580   48.6940 O   0  0  0  0  0  0  0  0  0  0  0  0
   58.5160   28.1300   46.8200 N   0  0  2  0  0  0  0  0  0  0  0  0
   58.8310   27.6070   45.5140 C   0  0  0  0  0  0  0  0  0  0  0  0
   59.2720   26.1700   45.2870 C   0  0  0  0  0  0  0  0  0  0  0  0
   58.2570   25.1430   45.7270 C   0  0  0  0  0  0  0  0  0  0  0  0
   57.7140   25.2920   46.8560 O   0  0  0  0  0  0  0  0  0  0  0  0
   57.8610   23.9900   44.8690 C   0  0  0  0  0  0  0  0  0  0  0  0
   58.5090   22.7420   44.9650 C   0  0  0  0  0  0  0  0  0  0  0  0
   58.1340   21.6800   44.1370 C   0  0  0  0  0  0  0  0  0  0  0  0
   57.1070   21.8440   43.2070 C   0  0  0  0  0  0  0  0  0  0  0  0
   56.4530   23.0730   43.1020 C   0  0  0  0  0  0  0  0  0  0  0  0
   56.8250   24.1390   43.9250 C   0  0  0  0  0  0  0  0  0  0  0  0
   58.3830   28.3960   44.5360 C   0  0  0  0  0  0  0  0  0  0  0  0
   57.8010   29.6480   45.0880 C   0  0  1  0  0  0  0  0  0  0  0  0
   56.3070   29.6530   44.9060 C   0  0  0  0  0  0  0  0  0  0  0  0
   55.6250   28.6210   45.1480 O   0  0  0  0  0  0  0  0  0  0  0  0
   55.6680   30.8100   44.4800 O   0  0  0  0  0  0  0  0  0  0  0  0
   58.2110   29.5670   46.5770 C   0  0  2  0  0  0  0  0  0  0  0  0
   59.3740   30.5240   46.8580 C   0  0  0  0  0  0  0  0  0  0  0  0
   60.6980   30.2100   46.4820 C   0  0  0  0  0  0  0  0  0  0  0  0
   61.7430   31.0980   46.7530 C   0  0  0  0  0  0  0  0  0  0  0  0
   61.4830   32.3120   47.3930 C   0  0  0  0  0  0  0  0  0  0  0  0
   62.7970   33.4240   47.7330 Cl  0  0  0  0  0  0  0  0  0  0  0  0
   60.1760   32.6400   47.7620 C   0  0  0  0  0  0  0  0  0  0  0  0
   59.1270   31.7550   47.4930 C   0  0  0  0  0  0  0  0  0  0  0  0
   58.4940   29.5200   49.8140 C   0  0  0  0  0  0  0  0  0  0  0  0
   58.4910   30.5270   50.7850 C   0  0  0  0  0  0  0  0  0  0  0  0
   59.6995   31.6579   53.2842 H   0  0  0  0  0  0  0  0  0  0  0  0
   60.5966   32.7665   52.1920 H   0  0  0  0  0  0  0  0  0  0  0  0
   58.8003   32.7648   52.1920 H   0  0  0  0  0  0  0  0  0  0  0  0
   61.8639   31.0144   51.0761 H   0  0  0  0  0  0  0  0  0  0  0  0
   61.8674   29.2217   49.3433 H   0  0  0  0  0  0  0  0  0  0  0  0
   57.6310   27.6620   47.1260 H   0  0  0  0  0  0  0  0  0  0  0  0
   59.4618   26.0314   44.2124 H   0  0  0  0  0  0  0  0  0  0  0  0
   60.1727   26.0116   45.8982 H   0  0  0  0  0  0  0  0  0  0  0  0
   59.3171   22.6025   45.6981 H   0  0  0  0  0  0  0  0  0  0  0  0
   58.6502   20.7121   44.2189 H   0  0  0  0  0  0  0  0  0  0  0  0
   56.8130   21.0063   42.5575 H   0  0  0  0  0  0  0  0  0  0  0  0
   55.6427   23.2024   42.3694 H   0  0  0  0  0  0  0  0  0  0  0  0
   56.3044   25.1038   43.8354 H   0  0  0  0  0  0  0  0  0  0  0  0
   58.4369   28.1529   43.4646 H   0  0  0  0  0  0  0  0  0  0  0  0
   58.1491   30.5707   44.6007 H   0  0  0  0  0  0  0  0  0  0  0  0
   57.4228   29.8920   47.2720 H   0  0  0  0  0  0  0  0  0  0  0  0
   60.9091   29.2587   45.9716 H   0  0  0  0  0  0  0  0  0  0  0  0
   62.7719   30.8403   46.4617 H   0  0  0  0  0  0  0  0  0  0  0  0
   59.9716   33.5965   48.2653 H   0  0  0  0  0  0  0  0  0  0  0  0
   58.0998   32.0237   47.7804 H   0  0  0  0  0  0  0  0  0  0  0  0
   57.5426   29.0897   49.4680 H   0  0  0  0  0  0  0  0  0  0  0  0
   57.5377   30.8819   51.2036 H   0  0  0  0  0  0  0  0  0  0  0  0
  1  2  1  0
  2  3  2  0
  3  4  1  0
  4  5  2  0
  5  6  1  0
  6  7  2  0
  6  8  2  0
  6  9  1  0
  9 10  1  0
 10 11  1  0
 11 12  1  0
 12 13  2  0
 12 14  1  0
 14 15  2  0
 15 16  1  0
 16 17  2  0
 17 18  1  0
 18 19  2  0
 10 20  2  0
 20 21  1  0
 21 22  1  0
 22 23  2  0
 22 24  1  0
 21 25  1  0
 25 26  1  0
 26 27  2  0
 27 28  1  0
 28 29  2  0
 29 30  1  0
 29 31  1  0
 31 32  2  0
  5 33  1  0
 33 34  2  0
 34  2  1  0
 25  9  1  0
 32 26  1  0
 19 14  1  0
  1 35  1  0
  1 36  1  0
  1 37  1  0
  3 38  1  0
  4 39  1  0
  9 40  1  1
 11 41  1  0
 11 42  1  0
 15 43  1  0
 16 44  1  0
 17 45  1  0
 18 46  1  0
 19 47  1  0
 20 48  1  0
 21 49  1  6
 25 50  1  1
 27 51  1  0
 28 52  1  0
 31 53  1  0
 32 54  1  0
 33 55  1  0
 34 56  1  0
M  CHG  2   9   1  24  -1
M  END
>  <UniqueID>  (25) 
25

>  <SMILES>  (25) 
Cc1ccc(S(=O)(=O)[N@@H+]2C(CC(=O)c3ccccc3)=C[C@@H](C(=O)[O-])C2c2ccc(Cl)cc2)cc1

>  <Energy>  (25) 
76.00634903610475

>  <Genealogy>  (25) 
Cc1ccc(S(=O)(=O)[NH+]2C(CC(=O)c3ccccc3)=CC(C(=O)[O-])C2c2ccc(Cl)cc2)cc1 (protonated)
Cc1ccc(S(=O)(=O)[N@@H+]2C(CC(=O)c3ccccc3)=C[C@@H](C(=O)[O-])C2c2ccc(Cl)cc2)cc1 (chirality)
Cc1ccc(S(=O)(=O)[N@@H+]2C(CC(=O)c3ccccc3)=C[C@@H](C(=O)[O-])C2c2ccc(Cl)cc2)cc1 (3D coordinates assigned)
Cc1ccc(S(=O)(=O)[N@@H+]2C(CC(=O)c3ccccc3)=C[C@@H](C(=O)[O-])C2c2ccc(Cl)cc2)cc1 (nonaromatic ring conformer: 76.00634903610475 kcal/mol)

>  <smiles>  (25) 
Cc1ccc(S(=O)(=O)N2C(CC(=O)c3ccccc3)=CC(C(=O)O)C2c2ccc(Cl)cc2)cc1

>  <score_type>  (25) 
oracle

>  <origin>  (25) 
adg

>  <m_score__min__energy>  (25) 
-9.6400000000000006

>  <m_primary>  (25) 
energy

$$$$
25:0
     RDKit          3D

 33 35  0  0  0  0  0  0  0  0999 V2000
   60.8362   29.6702   47.9249 H   0  0  0  0  0  0  0  0  0  0  0  0
   60.2960   29.0540   47.1910 C   0  0  0  0  0  0  0  0  0  0  0  0
   60.5048   27.9765   47.1176 H   0  0  0  0  0  0  0  0  0  0  0  0
   59.3820   29.6170   46.3850 C   0  0  0  0  0  0  0  0  0  0  0  0
   58.6110   28.9750   45.4020 C   0  0  0  0  0  0  0  0  0  0  0  0
   58.4030   27.6670   45.1570 C   0  0  0  0  0  0  0  0  0  0  0  0
   59.1923   27.1253   44.6152 H   0  0  0  0  0  0  0  0  0  0  0  0
   57.2100   26.9000   45.5520 C   0  0  0  0  0  0  0  0  0  0  0  0
   57.2320   25.6560   46.0650 N   0  0  0  0  0  0  0  0  0  0  0  0
   55.9420   25.4330   46.3970 C   0  0  0  0  0  0  0  0  0  0  0  0
   55.5510   24.3480   46.9020 O   0  0  0  0  0  0  0  0  0  0  0  0
   55.1070   26.4650   46.1530 N   0  0  0  0  0  0  0  0  0  0  0  0
   55.9300   27.3900   45.6330 C   0  0  0  0  0  0  0  0  0  0  0  0
   55.5190   28.6590   45.2460 O   0  0  0  0  0  0  0  0  0  0  0  0
   58.0240   29.9810   44.6520 C   0  0  0  0  0  0  0  0  0  0  0  0
   57.3933   29.8506   43.7602 H   0  0  0  0  0  0  0  0  0  0  0  0
   58.3820   31.1780   45.2380 C   0  0  0  0  0  0  0  0  0  0  0  0
   57.9530   32.5270   44.7490 C   0  0  0  0  0  0  0  0  0  0  0  0
   57.7453   33.1800   45.6095 H   0  0  0  0  0  0  0  0  0  0  0  0
   58.7552   32.9681   44.1392 H   0  0  0  0  0  0  0  0  0  0  0  0
   57.0434   32.4237   44.1392 H   0  0  0  0  0  0  0  0  0  0  0  0
   59.2030   30.9590   46.2900 N   0  0  0  0  0  0  0  0  0  0  0  0
   59.8120   31.9770   47.1040 C   0  0  0  0  0  0  0  0  0  0  0  0
   61.2090   32.1140   47.1350 C   0  0  0  0  0  0  0  0  0  0  0  0
   61.8395   31.4405   46.5360 H   0  0  0  0  0  0  0  0  0  0  0  0
   61.8010   33.1040   47.9250 C   0  0  0  0  0  0  0  0  0  0  0  0
   62.8960   33.2066   47.9472 H   0  0  0  0  0  0  0  0  0  0  0  0
   61.0040   33.9640   48.6870 C   0  0  0  0  0  0  0  0  0  0  0  0
   61.5800   34.9230   49.4520 F   0  0  0  0  0  0  0  0  0  0  0  0
   59.6120   33.8330   48.6590 C   0  0  0  0  0  0  0  0  0  0  0  0
   58.9850   34.5092   49.2588 H   0  0  0  0  0  0  0  0  0  0  0  0
   59.0150   32.8440   47.8700 C   0  0  0  0  0  0  0  0  0  0  0  0
   57.6630   32.7380   47.8410 F   0  0  0  0  0  0  0  0  0  0  0  0
  1  2  1  0
  2  3  1  0
  2  4  2  0
  4  5  1  0
  5  6  2  0
  6  7  1  0
  6  8  1  0
  8  9  1  0
  9 10  1  0
 10 11  2  0
 10 12  1  0
 12 13  1  0
 13 14  1  0
  5 15  1  0
 15 16  1  0
 15 17  2  0
 17 18  1  0
 18 19  1  0
 18 20  1  0
 18 21  1  0
 17 22  1  0
 22 23  1  0
 23 24  2  0
 24 25  1  0
 24 26  1  0
 26 27  1  0
 26 28  2  0
 28 29  1  0
 28 30  1  0
 30 31  1  0
 30 32  2  0
 32 33  1  0
 22  4  1  0
 32 23  1  0
 13  8  2  0
M  CHG  3   9  -1  12  -1  14  -1
M  END
>  <UniqueID>  (26) 
26

>  <SMILES>  (26) 
C=c1/c(=C\c2[n-]c(=O)[n-]c2[O-])cc(C)n1-c1ccc(F)cc1F

>  <Energy>  (26) 
110.41358378103905

>  <Genealogy>  (26) 
C=c1c(=Cc2[n-]c(=O)[n-]c2[O-])cc(C)n1-c1ccc(F)cc1F (protonated)
C=c1/c(=C\c2[n-]c(=O)[n-]c2[O-])cc(C)n1-c1ccc(F)cc1F (cis-trans isomerization)
C=c1/c(=C\c2[n-]c(=O)[n-]c2[O-])cc(C)n1-c1ccc(F)cc1F (3D coordinates assigned)
C=c1/c(=C\c2[n-]c(=O)[n-]c2[O-])cc(C)n1-c1ccc(F)cc1F (optimized conformer: 110.41358378103905 kcal/mol)

>  <smiles>  (26) 
C=c1c(=Cc2[nH]c(=O)[nH]c2O)cc(C)n1-c1ccc(F)cc1F

>  <score_type>  (26) 
oracle

>  <origin>  (26) 
adg

>  <m_score__min__energy>  (26) 
-15.19

>  <m_primary>  (26) 
energy

$$$$
26:0
     RDKit          3D

 34 36  0  0  0  0  0  0  0  0999 V2000
   55.5100   25.8690   47.1740 H   0  0  0  0  0  0  0  0  0  0  0  0
   55.1540   25.5920   46.2680 O   0  0  0  0  0  0  0  0  0  0  0  0
   55.8840   24.7410   45.4450 C   0  0  0  0  0  0  0  0  0  0  0  0
   55.2980   24.0700   44.4170 N   0  0  0  0  0  0  0  0  0  0  0  0
   56.1830   23.2640   43.7950 C   0  0  0  0  0  0  0  0  0  0  0  0
   55.8780   22.5370   42.8150 O   0  0  0  0  0  0  0  0  0  0  0  0
   57.7140   23.3350   44.4810 S   0  0  0  0  0  0  0  0  0  0  0  0
   57.2480   24.4820   45.6220 C   0  0  0  0  0  0  0  0  0  0  0  0
   58.1390   25.0070   46.6740 C   0  0  0  0  0  0  0  0  0  0  0  0
   58.2872   24.3848   47.5689 H   0  0  0  0  0  0  0  0  0  0  0  0
   58.7830   26.1830   46.6260 C   0  0  0  0  0  0  0  0  0  0  0  0
   59.7098   26.2790   47.2107 H   0  0  0  0  0  0  0  0  0  0  0  0
   58.3420   27.3600   45.8470 C   0  0  0  0  0  0  0  0  0  0  0  0
   59.2700   28.2310   45.2480 C   0  0  0  0  0  0  0  0  0  0  0  0
   60.3484   28.0532   45.3722 H   0  0  0  0  0  0  0  0  0  0  0  0
   58.8260   29.3210   44.4960 C   0  0  0  0  0  0  0  0  0  0  0  0
   59.5561   29.9926   44.0206 H   0  0  0  0  0  0  0  0  0  0  0  0
   57.4550   29.5620   44.3450 C   0  0  0  0  0  0  0  0  0  0  0  0
   56.9050   30.9250   43.3140 S   0  0  0  0  0  0  0  0  0  0  0  0
   57.6960   32.1450   44.3630 C   0  0  0  0  0  0  0  0  0  0  0  0
   58.4100   33.2070   43.7920 C   0  0  0  0  0  0  0  0  0  0  0  0
   58.4710   33.3029   42.6979 H   0  0  0  0  0  0  0  0  0  0  0  0
   59.0450   34.1450   44.6120 C   0  0  0  0  0  0  0  0  0  0  0  0
   59.6082   34.9759   44.1621 H   0  0  0  0  0  0  0  0  0  0  0  0
   58.9650   34.0280   46.0030 C   0  0  0  0  0  0  0  0  0  0  0  0
   59.4665   34.7654   46.6470 H   0  0  0  0  0  0  0  0  0  0  0  0
   58.2470   32.9730   46.5750 C   0  0  0  0  0  0  0  0  0  0  0  0
   58.1822   32.8822   47.6693 H   0  0  0  0  0  0  0  0  0  0  0  0
   57.6110   32.0330   45.7570 C   0  0  0  0  0  0  0  0  0  0  0  0
   57.0439   31.2056   46.2085 H   0  0  0  0  0  0  0  0  0  0  0  0
   56.5270   28.7270   44.9860 C   0  0  0  0  0  0  0  0  0  0  0  0
   55.1630   28.9700   44.8690 O   0  0  0  0  0  0  0  0  0  0  0  0
   56.9710   27.6380   45.7420 C   0  0  0  0  0  0  0  0  0  0  0  0
   56.2415   26.9958   46.2572 H   0  0  0  0  0  0  0  0  0  0  0  0
  1  2  1  0
  2  3  1  0
  3  4  1  0
  4  5  1  0
  5  6  2  0
  5  7  1  0
  7  8  1  0
  8  9  1  0
  9 10  1  0
  9 11  2  0
 11 12  1  0
 11 13  1  0
 13 14  2  0
 14 15  1  0
 14 16  1  0
 16 17  1  0
 16 18  2  0
 18 19  1  0
 19 20  1  0
 20 21  2  0
 21 22  1  0
 21 23  1  0
 23 24  1  0
 23 25  2  0
 25 26  1  0
 25 27  1  0
 27 28  1  0
 27 29  2  0
 29 30  1  0
 18 31  1  0
 31 32  1  0
 31 33  2  0
 33 34  1  0
  8  3  2  0
 33 13  1  0
 29 20  1  0
M  CHG  2   4  -1  32  -1
M  END
>  <UniqueID>  (27) 
27

>  <SMILES>  (27) 
O=c1[n-]c(O)c(/C=C\c2ccc(Sc3ccccc3)c([O-])c2)s1

>  <Energy>  (27) 
71.55995183223459

>  <Genealogy>  (27) 
O=c1[n-]c(O)c(C=Cc2ccc(Sc3ccccc3)c([O-])c2)s1 (protonated)
O=c1[n-]c(O)c(/C=C\c2ccc(Sc3ccccc3)c([O-])c2)s1 (cis-trans isomerization)
O=c1[n-]c(O)c(/C=C\c2ccc(Sc3ccccc3)c([O-])c2)s1 (3D coordinates assigned)
O=c1[n-]c(O)c(/C=C\c2ccc(Sc3ccccc3)c([O-])c2)s1 (optimized conformer: 71.55995183223459 kcal/mol)

>  <smiles>  (27) 
O=c1[nH]c(O)c(C=Cc2ccc(Sc3ccccc3)c(O)c2)s1

>  <score_type>  (27) 
oracle

>  <origin>  (27) 
adg

>  <m_score__min__energy>  (27) 
-14.67

>  <m_primary>  (27) 
energy

$$$$
27:0
     RDKit          3D

 41 44  0  0  0  0  0  0  0  0999 V2000
   59.7660   34.1210   50.4620 O   0  0  0  0  0  0  0  0  0  0  0  0
   60.3760   33.8880   49.3830 C   0  0  0  0  0  0  0  0  0  0  0  0
   59.6370   33.9860   48.1000 C   0  0  0  0  0  0  0  0  0  0  0  0
   60.1100   34.8280   47.0780 C   0  0  0  0  0  0  0  0  0  0  0  0
   59.4100   34.9400   45.8720 C   0  0  0  0  0  0  0  0  0  0  0  0
   58.2370   34.2080   45.6730 C   0  0  0  0  0  0  0  0  0  0  0  0
   57.5570   34.3230   44.5060 F   0  0  0  0  0  0  0  0  0  0  0  0
   57.7670   33.3560   46.6760 C   0  0  0  0  0  0  0  0  0  0  0  0
   58.4650   33.2400   47.8810 C   0  0  0  0  0  0  0  0  0  0  0  0
   61.8190   33.5390   49.4430 C   0  0  0  0  0  0  0  0  0  0  0  0
   62.6380   34.2170   50.3630 C   0  0  0  0  0  0  0  0  0  0  0  0
   63.9990   33.9170   50.4580 C   0  0  0  0  0  0  0  0  0  0  0  0
   64.5570   32.9290   49.6460 C   0  0  0  0  0  0  0  0  0  0  0  0
   63.7550   32.2310   48.7430 C   0  0  0  0  0  0  0  0  0  0  0  0
   62.3880   32.5220   48.6370 C   0  0  0  0  0  0  0  0  0  0  0  0
   61.5850   31.7440   47.7250 C   0  0  0  0  0  0  0  0  0  0  0  0
   60.8890   31.1110   46.9720 C   0  0  0  0  0  0  0  0  0  0  0  0
   60.0320   30.3840   46.0780 C   0  0  0  0  0  0  0  0  0  0  0  0
   60.0890   28.9860   46.0220 C   0  0  0  0  0  0  0  0  0  0  0  0
   59.2490   28.3010   45.1410 C   0  0  0  0  0  0  0  0  0  0  0  0
   58.3620   29.0150   44.3250 C   0  0  0  0  0  0  0  0  0  0  0  0
   57.5060   28.3590   43.4280 C   0  0  0  0  0  0  0  0  0  0  0  0
   56.6320   29.1020   42.6280 C   0  0  0  0  0  0  0  0  0  0  0  0
   56.6090   30.4980   42.7170 C   0  0  0  0  0  0  0  0  0  0  0  0
   57.4600   31.1600   43.6080 C   0  0  0  0  0  0  0  0  0  0  0  0
   58.3370   30.4250   44.4130 C   0  0  0  0  0  0  0  0  0  0  0  0
   59.1670   31.0640   45.2810 N   0  0  0  0  0  0  0  0  0  0  0  0
   61.0362   35.4022   47.2277 H   0  0  0  0  0  0  0  0  0  0  0  0
   59.7836   35.6052   45.0796 H   0  0  0  0  0  0  0  0  0  0  0  0
   56.8462   32.7758   46.5167 H   0  0  0  0  0  0  0  0  0  0  0  0
   58.0954   32.5608   48.6634 H   0  0  0  0  0  0  0  0  0  0  0  0
   62.2033   34.9903   51.0135 H   0  0  0  0  0  0  0  0  0  0  0  0
   64.6322   34.4608   51.1745 H   0  0  0  0  0  0  0  0  0  0  0  0
   65.6305   32.7003   49.7180 H   0  0  0  0  0  0  0  0  0  0  0  0
   64.1980   31.4476   48.1104 H   0  0  0  0  0  0  0  0  0  0  0  0
   60.7886   28.4326   46.6656 H   0  0  0  0  0  0  0  0  0  0  0  0
   59.2839   27.2028   45.0880 H   0  0  0  0  0  0  0  0  0  0  0  0
   57.5222   27.2616   43.3539 H   0  0  0  0  0  0  0  0  0  0  0  0
   55.9600   28.5867   41.9260 H   0  0  0  0  0  0  0  0  0  0  0  0
   55.9197   31.0766   42.0845 H   0  0  0  0  0  0  0  0  0  0  0  0
   57.4397   32.2577   43.6758 H   0  0  0  0  0  0  0  0  0  0  0  0
  1  2  2  0
  2  3  1  0
  3  4  2  0
  4  5  1  0
  5  6  2  0
  6  7  1  0
  6  8  1  0
  8  9  2  0
  2 10  1  0
 10 11  2  0
 11 12  1  0
 12 13  2  0
 13 14  1  0
 14 15  2  0
 15 16  1  0
 16 17  3  0
 17 18  1  0
 18 19  2  0
 19 20  1  0
 20 21  2  0
 21 22  1  0
 22 23  2  0
 23 24  1  0
 24 25  2  0
 25 26  1  0
 26 27  2  0
  9  3  1  0
 15 10  1  0
 27 18  1  0
 26 21  1  0
  4 28  1  0
  5 29  1  0
  8 30  1  0
  9 31  1  0
 11 32  1  0
 12 33  1  0
 13 34  1  0
 14 35  1  0
 19 36  1  0
 20 37  1  0
 22 38  1  0
 23 39  1  0
 24 40  1  0
 25 41  1  0
M  END
>  <UniqueID>  (28) 
28

>  <SMILES>  (28) 
O=C(c1ccc(F)cc1)c1ccccc1C#Cc1ccc2ccccc2n1

>  <Energy>  (28) 
51.197478149388154

>  <Genealogy>  (28) 
O=C(c1ccc(F)cc1)c1ccccc1C#Cc1ccc2ccccc2n1 (3D coordinates assigned)
O=C(c1ccc(F)cc1)c1ccccc1C#Cc1ccc2ccccc2n1 (optimized conformer: 51.197478149388154 kcal/mol)

>  <smiles>  (28) 
O=C(c1ccc(F)cc1)c1ccccc1C#Cc1ccc2ccccc2n1

>  <score_type>  (28) 
oracle

>  <origin>  (28) 
adg

>  <m_score__min__energy>  (28) 
-8.2699999999999996

>  <m_primary>  (28) 
energy

$$$$
28:0
     RDKit          3D

 53 55  0  0  0  0  0  0  0  0999 V2000
   59.0770   29.7500   51.2090 C   0  0  0  0  0  0  0  0  0  0  0  0
   59.7570   31.0970   51.5080 C   0  0  0  0  0  0  0  0  0  0  0  0
   60.2830   31.8060   50.3090 N   0  0  1  0  0  0  0  0  0  0  0  0
   59.3440   32.8650   49.8520 C   0  0  0  0  0  0  0  0  0  0  0  0
   58.1590   32.2970   49.0470 C   0  0  0  0  0  0  0  0  0  0  0  0
   58.5840   31.9730   47.6780 N   0  0  0  0  0  0  0  0  0  0  0  0
   59.0260   30.6350   47.3570 C   0  0  0  0  0  0  0  0  0  0  0  0
   59.8540   30.0530   48.1130 O   0  0  0  0  0  0  0  0  0  0  0  0
   58.5070   29.9460   46.2020 N   0  0  0  0  0  0  0  0  0  0  0  0
   57.1850   29.9520   45.9980 N   0  0  0  0  0  0  0  0  0  0  0  0
   56.6110   29.3270   44.9390 C   0  0  0  0  0  0  0  0  0  0  0  0
   55.3620   29.3610   44.7890 O   0  0  0  0  0  0  0  0  0  0  0  0
   57.4130   28.6480   44.0260 C   0  0  0  0  0  0  0  0  0  0  0  0
   58.7900   28.6300   44.2210 C   0  0  0  0  0  0  0  0  0  0  0  0
   59.3360   29.2900   45.3250 C   0  0  0  0  0  0  0  0  0  0  0  0
   60.5870   29.2900   45.4880 O   0  0  0  0  0  0  0  0  0  0  0  0
   58.7760   33.0440   46.7340 C   0  0  0  0  0  0  0  0  0  0  0  0
   57.9220   33.1750   45.6250 C   0  0  0  0  0  0  0  0  0  0  0  0
   58.1030   34.2200   44.7140 C   0  0  0  0  0  0  0  0  0  0  0  0
   59.1370   35.1410   44.9030 C   0  0  0  0  0  0  0  0  0  0  0  0
   59.9930   35.0160   46.0000 C   0  0  0  0  0  0  0  0  0  0  0  0
   59.8160   33.9720   46.9130 C   0  0  0  0  0  0  0  0  0  0  0  0
   61.6520   32.3500   50.5150 C   0  0  0  0  0  0  0  0  0  0  0  0
   62.3720   32.6000   49.2080 C   0  0  0  0  0  0  0  0  0  0  0  0
   62.6580   31.5380   48.3340 C   0  0  0  0  0  0  0  0  0  0  0  0
   63.3040   31.7810   47.1180 C   0  0  0  0  0  0  0  0  0  0  0  0
   63.6710   33.0830   46.7660 C   0  0  0  0  0  0  0  0  0  0  0  0
   63.3920   34.1450   47.6320 C   0  0  0  0  0  0  0  0  0  0  0  0
   62.7450   33.9070   48.8470 C   0  0  0  0  0  0  0  0  0  0  0  0
   58.8241   29.2490   52.1550 H   0  0  0  0  0  0  0  0  0  0  0  0
   58.1586   29.9237   50.6291 H   0  0  0  0  0  0  0  0  0  0  0  0
   59.7621   29.1141   50.6291 H   0  0  0  0  0  0  0  0  0  0  0  0
   59.0211   31.7514   51.9981 H   0  0  0  0  0  0  0  0  0  0  0  0
   60.6263   30.8728   52.1437 H   0  0  0  0  0  0  0  0  0  0  0  0
   60.3400   31.0810   49.5530 H   0  0  0  0  0  0  0  0  0  0  0  0
   58.9508   33.3921   50.7338 H   0  0  0  0  0  0  0  0  0  0  0  0
   59.9024   33.5435   49.1903 H   0  0  0  0  0  0  0  0  0  0  0  0
   57.7900   31.3846   49.5384 H   0  0  0  0  0  0  0  0  0  0  0  0
   57.3592   33.0510   49.0054 H   0  0  0  0  0  0  0  0  0  0  0  0
   56.9645   28.1335   43.1634 H   0  0  0  0  0  0  0  0  0  0  0  0
   59.4437   28.1007   43.5121 H   0  0  0  0  0  0  0  0  0  0  0  0
   57.1073   32.4517   45.4732 H   0  0  0  0  0  0  0  0  0  0  0  0
   57.4314   34.3173   43.8483 H   0  0  0  0  0  0  0  0  0  0  0  0
   59.2770   35.9648   44.1876 H   0  0  0  0  0  0  0  0  0  0  0  0
   60.8079   35.7404   46.1457 H   0  0  0  0  0  0  0  0  0  0  0  0
   60.4933   33.8767   47.7745 H   0  0  0  0  0  0  0  0  0  0  0  0
   61.5764   33.2998   51.0648 H   0  0  0  0  0  0  0  0  0  0  0  0
   62.2295   31.6039   51.0806 H   0  0  0  0  0  0  0  0  0  0  0  0
   62.3727   30.5114   48.6073 H   0  0  0  0  0  0  0  0  0  0  0  0
   63.5239   30.9457   46.4369 H   0  0  0  0  0  0  0  0  0  0  0  0
   64.1788   33.2721   45.8087 H   0  0  0  0  0  0  0  0  0  0  0  0
   63.6825   35.1694   47.3560 H   0  0  0  0  0  0  0  0  0  0  0  0
   62.5263   34.7457   49.5244 H   0  0  0  0  0  0  0  0  0  0  0  0
  1  2  1  0
  2  3  1  0
  3  4  1  0
  4  5  1  0
  5  6  1  0
  6  7  1  0
  7  8  2  0
  7  9  1  0
  9 10  1  0
 10 11  1  0
 11 12  2  0
 11 13  1  0
 13 14  2  0
 14 15  1  0
 15 16  2  0
  6 17  1  0
 17 18  2  0
 18 19  1  0
 19 20  2  0
 20 21  1  0
 21 22  2  0
  3 23  1  0
 23 24  1  0
 24 25  2  0
 25 26  1  0
 26 27  2  0
 27 28  1  0
 28 29  2  0
 15  9  1  0
 22 17  1  0
 29 24  1  0
  1 30  1  0
  1 31  1  0
  1 32  1  0
  2 33  1  0
  2 34  1  0
  3 35  1  6
  4 36  1  0
  4 37  1  0
  5 38  1  0
  5 39  1  0
 13 40  1  0
 14 41  1  0
 18 42  1  0
 19 43  1  0
 20 44  1  0
 21 45  1  0
 22 46  1  0
 23 47  1  0
 23 48  1  0
 25 49  1  0
 26 50  1  0
 27 51  1  0
 28 52  1  0
 29 53  1  0
M  CHG  2   3   1  10  -1
M  END
>  <UniqueID>  (29) 
29

>  <SMILES>  (29) 
CC[N@@H+](CCN(C(=O)n1[n-]c(=O)ccc1=O)c1ccccc1)Cc1ccccc1

>  <Energy>  (29) 
68.55897430155477

>  <Genealogy>  (29) 
CC[NH+](CCN(C(=O)n1[n-]c(=O)ccc1=O)c1ccccc1)Cc1ccccc1 (protonated)
CC[N@@H+](CCN(C(=O)n1[n-]c(=O)ccc1=O)c1ccccc1)Cc1ccccc1 (chirality)
CC[N@@H+](CCN(C(=O)n1[n-]c(=O)ccc1=O)c1ccccc1)Cc1ccccc1 (3D coordinates assigned)
CC[N@@H+](CCN(C(=O)n1[n-]c(=O)ccc1=O)c1ccccc1)Cc1ccccc1 (optimized conformer: 68.55897430155477 kcal/mol)

>  <smiles>  (29) 
CCN(CCN(C(=O)n1[nH]c(=O)ccc1=O)c1ccccc1)Cc1ccccc1

>  <score_type>  (29) 
oracle

>  <origin>  (29) 
adg

>  <m_score__min__energy>  (29) 
-9.1199999999999992

>  <m_primary>  (29) 
energy

$$$$
29:0
     RDKit          3D

 61 65  0  0  0  0  0  0  0  0999 V2000
   55.1350   26.3370   46.7810 H   0  0  0  0  0  0  0  0  0  0  0  0
   55.3450   26.6670   45.8470 O   0  0  0  0  0  0  0  0  0  0  0  0
   56.2700   27.6790   45.5830 C   0  0  0  0  0  0  0  0  0  0  0  0
   55.8070   28.8780   45.1560 N   0  0  0  0  0  0  0  0  0  0  0  0
   56.6380   29.9090   44.8670 C   0  0  0  0  0  0  0  0  0  0  0  0
   56.1380   31.0000   44.4800 O   0  0  0  0  0  0  0  0  0  0  0  0
   57.9950   29.7620   45.0000 N   0  0  0  0  0  0  0  0  0  0  0  0
   58.9020   30.9020   44.7510 C   0  0  0  0  0  0  0  0  0  0  0  0
   59.8722   30.5244   44.3958 H   0  0  0  0  0  0  0  0  0  0  0  0
   58.4549   31.5586   43.9901 H   0  0  0  0  0  0  0  0  0  0  0  0
   59.1070   31.6860   46.0200 C   0  0  0  0  0  0  0  0  0  0  0  0
   58.8060   31.1150   47.2670 C   0  0  0  0  0  0  0  0  0  0  0  0
   58.5011   30.0598   47.3268 H   0  0  0  0  0  0  0  0  0  0  0  0
   58.8920   31.8810   48.4320 C   0  0  0  0  0  0  0  0  0  0  0  0
   58.6677   31.4208   49.4056 H   0  0  0  0  0  0  0  0  0  0  0  0
   59.2610   33.2280   48.3700 C   0  0  0  0  0  0  0  0  0  0  0  0
   59.2380   33.9760   49.5540 O   0  0  0  0  0  0  0  0  0  0  0  0
   59.5080   33.3220   51.1110 S   0  0  0  0  0  0  0  0  0  0  0  0
   59.6170   34.4400   52.1090 O   0  0  0  0  0  0  0  0  0  0  0  0
   58.3340   32.4570   51.4750 O   0  0  0  0  0  0  0  0  0  0  0  0
   61.0070   32.3700   51.1330 C   0  0  0  0  0  0  0  0  0  0  0  0
   61.0720   31.2600   51.9890 C   0  0  0  0  0  0  0  0  0  0  0  0
   60.2242   31.0375   52.6537 H   0  0  0  0  0  0  0  0  0  0  0  0
   62.1960   30.4350   52.0090 C   0  0  0  0  0  0  0  0  0  0  0  0
   62.2300   29.5728   52.6913 H   0  0  0  0  0  0  0  0  0  0  0  0
   63.2750   30.6970   51.1700 C   0  0  0  0  0  0  0  0  0  0  0  0
   64.1532   30.0347   51.1837 H   0  0  0  0  0  0  0  0  0  0  0  0
   63.2470   31.8010   50.3080 C   0  0  0  0  0  0  0  0  0  0  0  0
   64.3400   32.0560   49.4630 C   0  0  0  0  0  0  0  0  0  0  0  0
   65.2086   31.3811   49.4720 H   0  0  0  0  0  0  0  0  0  0  0  0
   64.3280   33.1600   48.6140 C   0  0  0  0  0  0  0  0  0  0  0  0
   65.1843   33.3515   47.9507 H   0  0  0  0  0  0  0  0  0  0  0  0
   63.2330   34.0230   48.6030 C   0  0  0  0  0  0  0  0  0  0  0  0
   63.2308   34.8949   47.9323 H   0  0  0  0  0  0  0  0  0  0  0  0
   62.1380   33.7870   49.4390 C   0  0  0  0  0  0  0  0  0  0  0  0
   61.2867   34.4835   49.4320 H   0  0  0  0  0  0  0  0  0  0  0  0
   62.1150   32.6630   50.2920 C   0  0  0  0  0  0  0  0  0  0  0  0
   59.6130   33.7890   47.1290 C   0  0  0  0  0  0  0  0  0  0  0  0
   59.9539   34.8335   47.0765 H   0  0  0  0  0  0  0  0  0  0  0  0
   59.5310   33.0240   45.9630 C   0  0  0  0  0  0  0  0  0  0  0  0
   59.7999   33.4718   44.9949 H   0  0  0  0  0  0  0  0  0  0  0  0
   58.5080   28.5670   45.4410 C   0  0  0  0  0  0  0  0  0  0  0  0
   59.7520   28.4420   45.6160 O   0  0  0  0  0  0  0  0  0  0  0  0
   57.6530   27.4850   45.7350 C   0  0  0  0  0  0  0  0  0  0  0  0
   58.1810   26.2090   46.2770 C   0  0  0  0  0  0  0  0  0  0  0  0
   58.9996   25.7046   45.7428 H   0  0  0  0  0  0  0  0  0  0  0  0
   57.6980   25.6500   47.3910 C   0  0  0  0  0  0  0  0  0  0  0  0
   57.4758   26.2872   48.2597 H   0  0  0  0  0  0  0  0  0  0  0  0
   57.4520   24.1720   47.4830 C   0  0  0  0  0  0  0  0  0  0  0  0
   56.6513   23.9832   48.2132 H   0  0  0  0  0  0  0  0  0  0  0  0
   58.3808   23.6762   47.8016 H   0  0  0  0  0  0  0  0  0  0  0  0
   57.0500   23.6330   46.1730 N   0  0  0  0  0  0  0  0  0  0  0  0
   57.9950   23.0250   45.3940 C   0  0  0  0  0  0  0  0  0  0  0  0
   59.0338   22.9591   45.7497 H   0  0  0  0  0  0  0  0  0  0  0  0
   57.6550   22.4880   44.1540 C   0  0  0  0  0  0  0  0  0  0  0  0
   58.4133   21.9951   43.5279 H   0  0  0  0  0  0  0  0  0  0  0  0
   56.3350   22.5890   43.7250 C   0  0  0  0  0  0  0  0  0  0  0  0
   55.9930   22.1240   42.6080 O   0  0  0  0  0  0  0  0  0  0  0  0
   55.4150   23.1930   44.5190 N   0  0  0  0  0  0  0  0  0  0  0  0
   55.7520   23.7040   45.7310 C   0  0  0  0  0  0  0  0  0  0  0  0
   54.8560   24.2420   46.4380 O   0  0  0  0  0  0  0  0  0  0  0  0
  1  2  1  0
  2  3  1  0
  3  4  1  0
  4  5  1  0
  5  6  2  0
  5  7  1  0
  7  8  1  0
  8  9  1  0
  8 10  1  0
  8 11  1  0
 11 12  2  0
 12 13  1  0
 12 14  1  0
 14 15  1  0
 14 16  2  0
 16 17  1  0
 17 18  1  0
 18 19  2  0
 18 20  2  0
 18 21  1  0
 21 22  2  0
 22 23  1  0
 22 24  1  0
 24 25  1  0
 24 26  2  0
 26 27  1  0
 26 28  1  0
 28 29  2  0
 29 30  1  0
 29 31  1  0
 31 32  1  0
 31 33  2  0
 33 34  1  0
 33 35  1  0
 35 36  1  0
 35 37  2  0
 16 38  1  0
 38 39  1  0
 38 40  2  0
 40 41  1  0
  7 42  1  0
 42 43  2  0
 42 44  1  0
 44 45  1  0
 45 46  1  0
 45 47  2  0
 47 48  1  0
 47 49  1  0
 49 50  1  0
 49 51  1  0
 49 52  1  0
 52 53  1  0
 53 54  1  0
 53 55  2  0
 55 56  1  0
 55 57  1  0
 57 58  2  0
 57 59  1  0
 59 60  1  0
 60 61  2  0
 44  3  2  0
 60 52  1  0
 40 11  1  0
 37 21  1  0
 37 28  1  0
M  CHG  2   4  -1  59  -1
M  END
>  <UniqueID>  (30) 
30

>  <SMILES>  (30) 
O=c1ccn(C/C=C/c2c(O)[n-]c(=O)n(Cc3ccc(OS(=O)(=O)c4cccc5ccccc45)cc3)c2=O)c(=O)[n-]1

>  <Energy>  (30) 
82.02815282713748

>  <Genealogy>  (30) 
O=c1ccn(CC=Cc2c(O)[n-]c(=O)n(Cc3ccc(OS(=O)(=O)c4cccc5ccccc45)cc3)c2=O)c(=O)[n-]1 (protonated)
O=c1ccn(C/C=C/c2c(O)[n-]c(=O)n(Cc3ccc(OS(=O)(=O)c4cccc5ccccc45)cc3)c2=O)c(=O)[n-]1 (cis-trans isomerization)
O=c1ccn(C/C=C/c2c(O)[n-]c(=O)n(Cc3ccc(OS(=O)(=O)c4cccc5ccccc45)cc3)c2=O)c(=O)[n-]1 (3D coordinates assigned)
O=c1ccn(C/C=C/c2c(O)[n-]c(=O)n(Cc3ccc(OS(=O)(=O)c4cccc5ccccc45)cc3)c2=O)c(=O)[n-]1 (optimized conformer: 82.02815282713748 kcal/mol)

>  <smiles>  (30) 
O=c1ccn(CC=Cc2c(O)[nH]c(=O)n(Cc3ccc(OS(=O)(=O)c4cccc5ccccc45)cc3)c2=O)c(=O)[nH]1

>  <score_type>  (30) 
oracle

>  <origin>  (30) 
adg

>  <m_score__min__energy>  (30) 
-14.57

>  <m_primary>  (30) 
energy

$$$$
30:0
     RDKit          3D

 37 38  0  0  0  0  0  0  0  0999 V2000
   56.0950   22.2990   44.6300 C   0  0  0  0  0  0  0  0  0  0  0  0
   56.6860   23.6400   44.6170 N   0  0  0  0  0  0  0  0  0  0  0  0
   57.1090   24.2470   43.3500 C   0  0  0  0  0  0  0  0  0  0  0  0
   56.7620   24.3860   45.8500 C   0  0  0  0  0  0  0  0  0  0  0  0
   56.1270   23.9880   46.8650 O   0  0  0  0  0  0  0  0  0  0  0  0
   57.5770   25.6120   45.9630 C   0  0  0  0  0  0  0  0  0  0  0  0
   58.9750   25.5020   45.9710 C   0  0  0  0  0  0  0  0  0  0  0  0
   59.7740   26.6390   46.0940 C   0  0  0  0  0  0  0  0  0  0  0  0
   59.1850   27.8950   46.2360 C   0  0  0  0  0  0  0  0  0  0  0  0
   57.7930   28.0250   46.2740 C   0  0  0  0  0  0  0  0  0  0  0  0
   57.2300   29.3390   46.4060 N   0  0  0  0  0  0  0  0  0  0  0  0
   57.7360   30.4340   45.9140 C   0  0  0  0  0  0  0  0  0  0  0  0
   58.5040   31.2540   46.6900 N   0  0  0  0  0  0  0  0  0  0  0  0
   59.0620   32.3940   46.2060 C   0  0  0  0  0  0  0  0  0  0  0  0
   58.8650   32.7560   44.8740 C   0  0  0  0  0  0  0  0  0  0  0  0
   58.0940   31.9360   44.0510 C   0  0  0  0  0  0  0  0  0  0  0  0
   57.5230   30.7620   44.5600 C   0  0  0  0  0  0  0  0  0  0  0  0
   56.5520   29.7210   43.5100 S   0  0  0  0  0  0  0  0  0  0  0  0
   55.0730   29.3170   44.3060 N   0  0  0  0  0  0  0  0  0  0  0  0
   56.2530   30.4460   42.2280 O   0  0  0  0  0  0  0  0  0  0  0  0
   57.2970   28.4550   43.1930 O   0  0  0  0  0  0  0  0  0  0  0  0
   56.9780   26.8860   46.0970 C   0  0  0  0  0  0  0  0  0  0  0  0
   55.5910   27.0490   46.0140 O   0  0  0  0  0  0  0  0  0  0  0  0
   55.9508   21.9719   45.6703 H   0  0  0  0  0  0  0  0  0  0  0  0
   55.1234   22.3215   44.1147 H   0  0  0  0  0  0  0  0  0  0  0  0
   56.7671   21.5971   44.1147 H   0  0  0  0  0  0  0  0  0  0  0  0
   57.7267   25.1335   43.5563 H   0  0  0  0  0  0  0  0  0  0  0  0
   57.6956   23.5178   42.7719 H   0  0  0  0  0  0  0  0  0  0  0  0
   56.2218   24.5448   42.7719 H   0  0  0  0  0  0  0  0  0  0  0  0
   59.4451   24.5117   45.8796 H   0  0  0  0  0  0  0  0  0  0  0  0
   60.8698   26.5446   46.0790 H   0  0  0  0  0  0  0  0  0  0  0  0
   59.8196   28.7897   46.3187 H   0  0  0  0  0  0  0  0  0  0  0  0
   59.6694   33.0317   46.8651 H   0  0  0  0  0  0  0  0  0  0  0  0
   59.3131   33.6787   44.4766 H   0  0  0  0  0  0  0  0  0  0  0  0
   57.9334   32.2117   42.9983 H   0  0  0  0  0  0  0  0  0  0  0  0
   55.3160   29.0500   45.2860 H   0  0  0  0  0  0  0  0  0  0  0  0
   55.1430   27.9550   45.9710 H   0  0  0  0  0  0  0  0  0  0  0  0
  1  2  1  0
  2  3  1  0
  2  4  1  0
  4  5  2  0
  4  6  1  0
  6  7  2  0
  7  8  1  0
  8  9  2  0
  9 10  1  0
 10 11  1  0
 11 12  2  3
 12 13  1  0
 13 14  1  0
 14 15  2  0
 15 16  1  0
 16 17  2  0
 17 18  1  0
 18 19  1  0
 18 20  2  0
 18 21  2  0
 10 22  2  0
 22 23  1  0
 22  6  1  0
 17 12  1  0
  1 24  1  0
  1 25  1  0
  1 26  1  0
  3 27  1  0
  3 28  1  0
  3 29  1  0
  7 30  1  0
  8 31  1  0
  9 32  1  0
 14 33  1  0
 15 34  1  0
 16 35  1  0
 19 36  1  0
 23 37  1  0
M  CHG  2  13  -1  19  -1
M  END
>  <UniqueID>  (31) 
31

>  <SMILES>  (31) 
CN(C)C(=O)c1cccc(N=c2[n-]cccc2S([NH-])(=O)=O)c1O

>  <Energy>  (31) 
51.41891435764521

>  <Genealogy>  (31) 
CN(C)C(=O)c1cccc(N=c2[n-]cccc2S([NH-])(=O)=O)c1O (protonated)
CN(C)C(=O)c1cccc(N=c2[n-]cccc2S([NH-])(=O)=O)c1O (3D coordinates assigned)
CN(C)C(=O)c1cccc(N=c2[n-]cccc2S([NH-])(=O)=O)c1O (optimized conformer: 51.41891435764521 kcal/mol)

>  <smiles>  (31) 
CN(C)C(=O)c1cccc(N=c2[nH]cccc2S(N)(=O)=O)c1O

>  <score_type>  (31) 
oracle

>  <origin>  (31) 
adg

>  <m_score__min__energy>  (31) 
-12.73

>  <m_primary>  (31) 
energy

$$$$
31:0
     RDKit          3D

 60 63  0  0  0  0  0  0  0  0999 V2000
   55.1710   26.3270   46.0180 O   0  0  0  0  0  0  0  0  0  0  0  0
   55.8820   25.3100   45.7930 C   0  0  0  0  0  0  0  0  0  0  0  0
   55.2670   23.9500   45.8270 C   0  0  0  0  0  0  0  0  0  0  0  0
   55.9240   23.1290   46.8910 C   0  0  0  0  0  0  0  0  0  0  0  0
   56.8780   22.1600   46.6910 C   0  0  0  0  0  0  0  0  0  0  0  0
   57.2840   21.6990   47.8870 N   0  0  0  0  0  0  0  0  0  0  0  0
   56.5640   22.4130   48.7780 C   0  0  0  0  0  0  0  0  0  0  0  0
   55.7270   23.3060   48.2080 N   0  0  0  0  0  0  0  0  0  0  0  0
   57.2650   25.4510   45.4550 N   0  0  0  0  0  0  0  0  0  0  0  0
   58.3520   25.1870   46.3910 C   0  0  0  0  0  0  0  0  0  0  0  0
   58.7070   26.4460   47.1340 C   0  0  0  0  0  0  0  0  0  0  0  0
   59.8750   26.5140   47.9100 C   0  0  0  0  0  0  0  0  0  0  0  0
   60.1890   27.6820   48.6110 C   0  0  0  0  0  0  0  0  0  0  0  0
   59.3430   28.8010   48.5450 C   0  0  0  0  0  0  0  0  0  0  0  0
   59.6950   30.0440   49.2720 C   0  0  0  0  0  0  0  0  0  0  0  0
   58.9480   30.4450   50.2030 O   0  0  0  0  0  0  0  0  0  0  0  0
   60.8380   30.8360   48.9190 N   0  0  0  0  0  0  0  0  0  0  0  0
   60.8570   31.9220   47.9800 C   0  0  0  0  0  0  0  0  0  0  0  0
   62.0620   32.5170   47.5650 C   0  0  0  0  0  0  0  0  0  0  0  0
   62.0450   33.5750   46.6530 C   0  0  0  0  0  0  0  0  0  0  0  0
   60.8310   34.0570   46.1600 C   0  0  0  0  0  0  0  0  0  0  0  0
   59.6200   33.4820   46.5790 C   0  0  0  0  0  0  0  0  0  0  0  0
   58.3120   34.0350   46.0810 C   0  0  0  0  0  0  0  0  0  0  0  0
   57.8060   33.2170   44.8880 C   0  0  0  0  0  0  0  0  0  0  0  0
   56.7490   32.2840   45.2820 N   0  0  0  0  0  0  0  0  0  0  0  0
   56.7050   30.8600   44.2770 S   0  0  0  0  0  0  0  0  0  0  0  0
   56.6430   31.2870   42.8380 O   0  0  0  0  0  0  0  0  0  0  0  0
   55.4570   30.0810   44.5860 O   0  0  0  0  0  0  0  0  0  0  0  0
   58.1230   29.8320   44.4950 C   0  0  0  0  0  0  0  0  0  0  0  0
   59.2230   30.3050   45.2260 C   0  0  0  0  0  0  0  0  0  0  0  0
   60.3390   29.4870   45.4260 C   0  0  0  0  0  0  0  0  0  0  0  0
   60.3620   28.1920   44.8990 C   0  0  0  0  0  0  0  0  0  0  0  0
   59.2690   27.7150   44.1690 C   0  0  0  0  0  0  0  0  0  0  0  0
   58.1520   28.5320   43.9660 C   0  0  0  0  0  0  0  0  0  0  0  0
   59.6410   32.4280   47.5060 C   0  0  0  0  0  0  0  0  0  0  0  0
   58.1580   28.7190   47.7940 C   0  0  0  0  0  0  0  0  0  0  0  0
   57.8450   27.5520   47.0920 C   0  0  0  0  0  0  0  0  0  0  0  0
   54.1925   24.0394   46.0447 H   0  0  0  0  0  0  0  0  0  0  0  0
   55.4054   23.4618   44.8510 H   0  0  0  0  0  0  0  0  0  0  0  0
   57.2484   21.8179   45.7134 H   0  0  0  0  0  0  0  0  0  0  0  0
   56.6510   22.2798   49.8664 H   0  0  0  0  0  0  0  0  0  0  0  0
   58.0352   24.4168   47.1096 H   0  0  0  0  0  0  0  0  0  0  0  0
   59.2325   24.8362   45.8328 H   0  0  0  0  0  0  0  0  0  0  0  0
   60.5461   25.6443   47.9667 H   0  0  0  0  0  0  0  0  0  0  0  0
   61.1050   27.7249   49.2185 H   0  0  0  0  0  0  0  0  0  0  0  0
   63.0203   32.1483   47.9596 H   0  0  0  0  0  0  0  0  0  0  0  0
   62.9906   34.0295   46.3224 H   0  0  0  0  0  0  0  0  0  0  0  0
   60.8229   34.8896   45.4412 H   0  0  0  0  0  0  0  0  0  0  0  0
   57.5688   33.9928   46.8908 H   0  0  0  0  0  0  0  0  0  0  0  0
   58.4635   35.0765   45.7611 H   0  0  0  0  0  0  0  0  0  0  0  0
   57.4092   33.9046   44.1266 H   0  0  0  0  0  0  0  0  0  0  0  0
   58.6488   32.6329   44.4899 H   0  0  0  0  0  0  0  0  0  0  0  0
   59.2074   31.3227   45.6431 H   0  0  0  0  0  0  0  0  0  0  0  0
   61.1999   29.8625   45.9985 H   0  0  0  0  0  0  0  0  0  0  0  0
   61.2398   27.5486   45.0587 H   0  0  0  0  0  0  0  0  0  0  0  0
   59.2876   26.6964   43.7540 H   0  0  0  0  0  0  0  0  0  0  0  0
   57.2939   28.1548   43.3903 H   0  0  0  0  0  0  0  0  0  0  0  0
   58.6943   31.9963   47.8628 H   0  0  0  0  0  0  0  0  0  0  0  0
   57.4727   29.5787   47.7586 H   0  0  0  0  0  0  0  0  0  0  0  0
   56.9174   27.5003   46.5031 H   0  0  0  0  0  0  0  0  0  0  0  0
  1  2  2  0
  2  3  1  0
  3  4  1  0
  4  5  2  0
  5  6  1  0
  6  7  1  0
  7  8  2  0
  2  9  1  0
  9 10  1  0
 10 11  1  0
 11 12  2  0
 12 13  1  0
 13 14  2  0
 14 15  1  0
 15 16  2  0
 15 17  1  0
 17 18  1  0
 18 19  2  0
 19 20  1  0
 20 21  2  0
 21 22  1  0
 22 23  1  0
 23 24  1  0
 24 25  1  0
 25 26  1  0
 26 27  2  0
 26 28  2  0
 26 29  1  0
 29 30  2  0
 30 31  1  0
 31 32  2  0
 32 33  1  0
 33 34  2  0
 22 35  2  0
 14 36  1  0
 36 37  2  0
  8  4  1  0
 37 11  1  0
 35 18  1  0
 34 29  1  0
  3 38  1  0
  3 39  1  0
  5 40  1  0
  7 41  1  0
 10 42  1  0
 10 43  1  0
 12 44  1  0
 13 45  1  0
 19 46  1  0
 20 47  1  0
 21 48  1  0
 23 49  1  0
 23 50  1  0
 24 51  1  0
 24 52  1  0
 30 53  1  0
 31 54  1  0
 32 55  1  0
 33 56  1  0
 34 57  1  0
 35 58  1  0
 36 59  1  0
 37 60  1  0
M  CHG  4   6  -1   9  -1  17  -1  25  -1
M  END
>  <UniqueID>  (32) 
32

>  <SMILES>  (32) 
O=C(Cc1c[n-]cn1)[N-]Cc1ccc(C(=O)[N-]c2cccc(CC[N-]S(=O)(=O)c3ccccc3)c2)cc1

>  <Energy>  (32) 
90.0157861612394

>  <Genealogy>  (32) 
O=C(Cc1c[n-]cn1)[N-]Cc1ccc(C(=O)[N-]c2cccc(CC[N-]S(=O)(=O)c3ccccc3)c2)cc1 (protonated)
O=C(Cc1c[n-]cn1)[N-]Cc1ccc(C(=O)[N-]c2cccc(CC[N-]S(=O)(=O)c3ccccc3)c2)cc1 (3D coordinates assigned)
O=C(Cc1c[n-]cn1)[N-]Cc1ccc(C(=O)[N-]c2cccc(CC[N-]S(=O)(=O)c3ccccc3)c2)cc1 (optimized conformer: 90.0157861612394 kcal/mol)

>  <smiles>  (32) 
O=C(Cc1c[nH]cn1)NCc1ccc(C(=O)Nc2cccc(CCNS(=O)(=O)c3ccccc3)c2)cc1

>  <score_type>  (32) 
oracle

>  <origin>  (32) 
adg

>  <m_score__min__energy>  (32) 
-15.93

>  <m_primary>  (32) 
energy

$$$$
32:0
     RDKit          3D

 53 56  0  0  0  0  0  0  0  0999 V2000
   55.9340   25.9610   46.5010 O   0  0  0  0  0  0  0  0  0  0  0  0
   56.6300   26.6060   45.6750 C   0  0  0  0  0  0  0  0  0  0  0  0
   56.8620   28.0000   45.9150 N   0  0  0  0  0  0  0  0  0  0  0  0
   56.6560   29.2490   44.7310 S   0  0  0  0  0  0  0  0  0  0  0  0
   57.0280   28.7130   43.3750 O   0  0  0  0  0  0  0  0  0  0  0  0
   55.2120   29.6740   44.7080 O   0  0  0  0  0  0  0  0  0  0  0  0
   57.7070   30.6050   45.1200 C   0  0  0  0  0  0  0  0  0  0  0  0
   57.3620   31.9090   44.7440 C   0  0  0  0  0  0  0  0  0  0  0  0
   58.1260   32.9920   45.1870 C   0  0  0  0  0  0  0  0  0  0  0  0
   59.2440   32.7800   46.0030 C   0  0  0  0  0  0  0  0  0  0  0  0
   60.1080   34.1490   46.7060 S   0  0  0  0  0  0  0  0  0  0  0  0
   61.5690   34.0300   46.3810 O   0  0  0  0  0  0  0  0  0  0  0  0
   59.5990   35.4260   46.0990 O   0  0  0  0  0  0  0  0  0  0  0  0
   59.8920   34.2040   48.4440 N   0  0  2  0  0  0  0  0  0  0  0  0
   61.2110   34.1790   49.1460 C   0  0  0  0  0  0  0  0  0  0  0  0
   61.5450   32.8250   49.7880 C   0  0  0  0  0  0  0  0  0  0  0  0
   60.4290   32.4530   50.7090 C   0  0  0  0  0  0  0  0  0  0  0  0
   60.6650   31.8860   51.9690 C   0  0  0  0  0  0  0  0  0  0  0  0
   59.5880   31.5670   52.8030 C   0  0  0  0  0  0  0  0  0  0  0  0
   58.2780   31.7930   52.3710 C   0  0  0  0  0  0  0  0  0  0  0  0
   58.0390   32.3360   51.1050 C   0  0  0  0  0  0  0  0  0  0  0  0
   59.1170   32.6820   50.2770 C   0  0  0  0  0  0  0  0  0  0  0  0
   58.9020   33.1710   48.8680 C   0  0  0  0  0  0  0  0  0  0  0  0
   59.6290   31.4700   46.3170 C   0  0  0  0  0  0  0  0  0  0  0  0
   58.8580   30.3880   45.8840 C   0  0  0  0  0  0  0  0  0  0  0  0
   57.1210   25.9610   44.4880 N   0  0  0  0  0  0  0  0  0  0  0  0
   57.2380   24.5360   44.3460 C   0  0  0  0  0  0  0  0  0  0  0  0
   58.1620   23.7960   45.1120 C   0  0  0  0  0  0  0  0  0  0  0  0
   58.2890   22.4160   44.9220 C   0  0  0  0  0  0  0  0  0  0  0  0
   57.5080   21.7660   43.9620 C   0  0  0  0  0  0  0  0  0  0  0  0
   56.5970   22.4950   43.1910 C   0  0  0  0  0  0  0  0  0  0  0  0
   56.4680   23.8750   43.3730 C   0  0  0  0  0  0  0  0  0  0  0  0
   56.4880   32.0812   44.0987 H   0  0  0  0  0  0  0  0  0  0  0  0
   57.8480   34.0150   44.8935 H   0  0  0  0  0  0  0  0  0  0  0  0
   59.4620   35.1390   48.6410 H   0  0  0  0  0  0  0  0  0  0  0  0
   61.9974   34.4200   48.4156 H   0  0  0  0  0  0  0  0  0  0  0  0
   61.1543   34.9152   49.9614 H   0  0  0  0  0  0  0  0  0  0  0  0
   61.6524   32.0591   49.0058 H   0  0  0  0  0  0  0  0  0  0  0  0
   62.4899   32.8940   50.3469 H   0  0  0  0  0  0  0  0  0  0  0  0
   61.6955   31.6922   52.3015 H   0  0  0  0  0  0  0  0  0  0  0  0
   59.7722   31.1382   53.7991 H   0  0  0  0  0  0  0  0  0  0  0  0
   57.4327   31.5429   53.0290 H   0  0  0  0  0  0  0  0  0  0  0  0
   57.0066   32.4917   50.7587 H   0  0  0  0  0  0  0  0  0  0  0  0
   58.9792   32.3123   48.1849 H   0  0  0  0  0  0  0  0  0  0  0  0
   57.9074   33.6397   48.8341 H   0  0  0  0  0  0  0  0  0  0  0  0
   60.5409   31.2927   46.9061 H   0  0  0  0  0  0  0  0  0  0  0  0
   59.1574   29.3622   46.1450 H   0  0  0  0  0  0  0  0  0  0  0  0
   57.2840   26.5400   43.6370 H   0  0  0  0  0  0  0  0  0  0  0  0
   58.7851   24.3057   45.8616 H   0  0  0  0  0  0  0  0  0  0  0  0
   59.0044   21.8415   45.5288 H   0  0  0  0  0  0  0  0  0  0  0  0
   57.6100   20.6809   43.8130 H   0  0  0  0  0  0  0  0  0  0  0  0
   55.9801   21.9810   42.4391 H   0  0  0  0  0  0  0  0  0  0  0  0
   55.7614   24.4458   42.7526 H   0  0  0  0  0  0  0  0  0  0  0  0
  1  2  2  0
  2  3  1  0
  3  4  1  0
  4  5  2  0
  4  6  2  0
  4  7  1  0
  7  8  2  0
  8  9  1  0
  9 10  2  0
 10 11  1  0
 11 12  2  0
 11 13  2  0
 11 14  1  0
 14 15  1  0
 15 16  1  0
 16 17  1  0
 17 18  2  0
 18 19  1  0
 19 20  2  0
 20 21  1  0
 21 22  2  0
 22 23  1  0
 10 24  1  0
 24 25  2  0
  2 26  1  0
 26 27  1  0
 27 28  2  0
 28 29  1  0
 29 30  2  0
 30 31  1  0
 31 32  2  0
 25  7  1  0
 32 27  1  0
 23 14  1  0
 22 17  1  0
  8 33  1  0
  9 34  1  0
 14 35  1  6
 15 36  1  0
 15 37  1  0
 16 38  1  0
 16 39  1  0
 18 40  1  0
 19 41  1  0
 20 42  1  0
 21 43  1  0
 23 44  1  0
 23 45  1  0
 24 46  1  0
 25 47  1  0
 26 48  1  0
 28 49  1  0
 29 50  1  0
 30 51  1  0
 31 52  1  0
 32 53  1  0
M  CHG  2   3  -1  14   1
M  END
>  <UniqueID>  (33) 
33

>  <SMILES>  (33) 
O=C([N-]S(=O)(=O)c1ccc(S(=O)(=O)[N@@H+]2CCc3ccccc3C2)cc1)Nc1ccccc1

>  <Energy>  (33) 
68.30747665497775

>  <Genealogy>  (33) 
O=C([N-]S(=O)(=O)c1ccc(S(=O)(=O)[NH+]2CCc3ccccc3C2)cc1)Nc1ccccc1 (protonated)
O=C([N-]S(=O)(=O)c1ccc(S(=O)(=O)[N@@H+]2CCc3ccccc3C2)cc1)Nc1ccccc1 (chirality)
O=C([N-]S(=O)(=O)c1ccc(S(=O)(=O)[N@@H+]2CCc3ccccc3C2)cc1)Nc1ccccc1 (3D coordinates assigned)
O=C([N-]S(=O)(=O)c1ccc(S(=O)(=O)[N@@H+]2CCc3ccccc3C2)cc1)Nc1ccccc1 (nonaromatic ring conformer: 68.30747665497775 kcal/mol)

>  <smiles>  (33) 
O=C(Nc1ccccc1)NS(=O)(=O)c1ccc(S(=O)(=O)N2CCc3ccccc3C2)cc1

>  <score_type>  (33) 
oracle

>  <origin>  (33) 
adg

>  <m_score__min__energy>  (33) 
-10.81

>  <m_primary>  (33) 
energy

$$$$
33:0
     RDKit          3D

 51 55  0  0  0  0  0  0  0  0999 V2000
   58.4610   30.6480   43.7750 N   0  0  0  0  0  0  0  0  0  0  0  0
   57.6370   29.9010   45.1000 S   0  0  0  0  0  0  0  0  0  0  0  0
   57.9640   30.6650   46.3530 O   0  0  0  0  0  0  0  0  0  0  0  0
   56.1530   29.9570   44.8700 O   0  0  0  0  0  0  0  0  0  0  0  0
   58.1490   28.2130   45.2730 C   0  0  0  0  0  0  0  0  0  0  0  0
   57.7120   27.2800   44.3180 C   0  0  0  0  0  0  0  0  0  0  0  0
   58.0410   25.9280   44.4430 C   0  0  0  0  0  0  0  0  0  0  0  0
   58.8040   25.4900   45.5240 C   0  0  0  0  0  0  0  0  0  0  0  0
   59.2540   26.4050   46.4770 C   0  0  0  0  0  0  0  0  0  0  0  0
   58.9510   27.7710   46.3560 C   0  0  0  0  0  0  0  0  0  0  0  0
   59.4980   28.7020   47.3660 C   0  0  0  0  0  0  0  0  0  0  0  0
   58.9180   28.7790   48.6410 C   0  0  0  0  0  0  0  0  0  0  0  0
   59.4460   29.6430   49.6050 C   0  0  0  0  0  0  0  0  0  0  0  0
   60.5650   30.4370   49.3080 C   0  0  0  0  0  0  0  0  0  0  0  0
   61.1770   31.3070   50.3750 C   0  0  0  0  0  0  0  0  0  0  0  0
   60.3400   32.4870   50.6130 N   0  0  0  0  0  0  0  0  0  0  0  0
   60.0040   33.4730   49.7540 C   0  0  0  0  0  0  0  0  0  0  0  0
   60.4420   33.5470   48.3500 C   0  0  0  0  0  0  0  0  0  0  0  0
   61.8100   33.6840   48.0800 C   0  0  0  0  0  0  0  0  0  0  0  0
   62.2460   33.8160   46.7610 C   0  0  0  0  0  0  0  0  0  0  0  0
   61.3490   33.8280   45.7430 N   0  0  0  0  0  0  0  0  0  0  0  0
   60.0130   33.7070   45.9610 C   0  0  0  0  0  0  0  0  0  0  0  0
   59.1270   33.7490   44.8800 C   0  0  0  0  0  0  0  0  0  0  0  0
   57.7510   33.6450   45.0950 C   0  0  0  0  0  0  0  0  0  0  0  0
   57.2530   33.4980   46.3910 C   0  0  0  0  0  0  0  0  0  0  0  0
   58.1270   33.4580   47.4810 C   0  0  0  0  0  0  0  0  0  0  0  0
   59.5180   33.5550   47.2800 C   0  0  0  0  0  0  0  0  0  0  0  0
   59.2700   34.4290   50.3590 N   0  0  0  0  0  0  0  0  0  0  0  0
   59.1190   34.0610   51.6240 N   0  0  0  0  0  0  0  0  0  0  0  0
   59.7710   32.8920   51.7610 C   0  0  0  0  0  0  0  0  0  0  0  0
   59.8480   32.2620   52.8500 O   0  0  0  0  0  0  0  0  0  0  0  0
   61.1450   30.3570   48.0320 C   0  0  0  0  0  0  0  0  0  0  0  0
   60.6250   29.4850   47.0740 C   0  0  0  0  0  0  0  0  0  0  0  0
   59.4830   30.4830   43.9150 H   0  0  0  0  0  0  0  0  0  0  0  0
   58.1810   30.1340   42.9100 H   0  0  0  0  0  0  0  0  0  0  0  0
   57.1055   27.6169   43.4644 H   0  0  0  0  0  0  0  0  0  0  0  0
   57.6970   25.2074   43.6864 H   0  0  0  0  0  0  0  0  0  0  0  0
   59.0515   24.4231   45.6261 H   0  0  0  0  0  0  0  0  0  0  0  0
   59.8515   26.0530   47.3308 H   0  0  0  0  0  0  0  0  0  0  0  0
   58.0439   28.1568   48.8834 H   0  0  0  0  0  0  0  0  0  0  0  0
   58.9825   29.7009   50.6009 H   0  0  0  0  0  0  0  0  0  0  0  0
   61.2641   30.7301   51.3075 H   0  0  0  0  0  0  0  0  0  0  0  0
   62.1719   31.6362   50.0405 H   0  0  0  0  0  0  0  0  0  0  0  0
   62.5378   33.6875   48.9048 H   0  0  0  0  0  0  0  0  0  0  0  0
   63.3206   33.9107   46.5458 H   0  0  0  0  0  0  0  0  0  0  0  0
   59.5150   33.8643   43.8572 H   0  0  0  0  0  0  0  0  0  0  0  0
   57.0581   33.6790   44.2414 H   0  0  0  0  0  0  0  0  0  0  0  0
   56.1686   33.4133   46.5549 H   0  0  0  0  0  0  0  0  0  0  0  0
   57.7271   33.3503   48.5000 H   0  0  0  0  0  0  0  0  0  0  0  0
   62.0140   30.9849   47.7858 H   0  0  0  0  0  0  0  0  0  0  0  0
   61.1012   29.4114   46.0852 H   0  0  0  0  0  0  0  0  0  0  0  0
  1  2  1  0
  2  3  2  0
  2  4  2  0
  2  5  1  0
  5  6  2  0
  6  7  1  0
  7  8  2  0
  8  9  1  0
  9 10  2  0
 10 11  1  0
 11 12  2  0
 12 13  1  0
 13 14  2  0
 14 15  1  0
 15 16  1  0
 16 17  1  0
 17 18  1  0
 18 19  2  0
 19 20  1  0
 20 21  2  0
 21 22  1  0
 22 23  2  0
 23 24  1  0
 24 25  2  0
 25 26  1  0
 26 27  2  0
 17 28  2  0
 28 29  1  0
 29 30  1  0
 30 31  2  0
 14 32  1  0
 32 33  2  0
 10  5  1  0
 33 11  1  0
 30 16  1  0
 27 18  1  0
 27 22  1  0
  1 34  1  0
  1 35  1  0
  6 36  1  0
  7 37  1  0
  8 38  1  0
  9 39  1  0
 12 40  1  0
 13 41  1  0
 15 42  1  0
 15 43  1  0
 19 44  1  0
 20 45  1  0
 23 46  1  0
 24 47  1  0
 25 48  1  0
 26 49  1  0
 32 50  1  0
 33 51  1  0
M  CHG  1  29  -1
M  END
>  <UniqueID>  (34) 
34

>  <SMILES>  (34) 
NS(=O)(=O)c1ccccc1-c1ccc(Cn2c(-c3ccnc4ccccc34)n[n-]c2=O)cc1

>  <Energy>  (34) 
106.35163943288251

>  <Genealogy>  (34) 
NS(=O)(=O)c1ccccc1-c1ccc(Cn2c(-c3ccnc4ccccc34)n[n-]c2=O)cc1 (protonated)
NS(=O)(=O)c1ccccc1-c1ccc(Cn2c(-c3ccnc4ccccc34)n[n-]c2=O)cc1 (3D coordinates assigned)
NS(=O)(=O)c1ccccc1-c1ccc(Cn2c(-c3ccnc4ccccc34)n[n-]c2=O)cc1 (optimized conformer: 106.35163943288251 kcal/mol)

>  <smiles>  (34) 
NS(=O)(=O)c1ccccc1-c1ccc(Cn2c(-c3ccnc4ccccc34)n[nH]c2=O)cc1

>  <score_type>  (34) 
oracle

>  <origin>  (34) 
adg

>  <m_score__min__energy>  (34) 
-11.449999999999999

>  <m_primary>  (34) 
energy

$$$$
34:0
     RDKit          3D

 46 48  0  0  0  0  0  0  0  0999 V2000
   55.4800   29.2440   44.8600 N   0  0  0  0  0  0  0  0  0  0  0  0
   56.2230   30.0860   43.9750 C   0  0  0  0  0  0  0  0  0  0  0  0
   56.0630   29.9540   42.7300 O   0  0  0  0  0  0  0  0  0  0  0  0
   57.1850   31.0920   44.4870 C   0  0  0  0  0  0  0  0  0  0  0  0
   57.7240   30.9960   45.7810 C   0  0  0  0  0  0  0  0  0  0  0  0
   58.6220   31.9590   46.2500 C   0  0  0  0  0  0  0  0  0  0  0  0
   59.0050   33.0380   45.4380 C   0  0  0  0  0  0  0  0  0  0  0  0
   59.9240   34.0150   45.9600 N   0  0  0  0  0  0  0  0  0  0  0  0
   61.3710   33.8200   46.0640 C   0  0  0  0  0  0  0  0  0  0  0  0
   61.7290   33.1150   47.3460 C   0  0  0  0  0  0  0  0  0  0  0  0
   62.6240   33.7060   48.2530 C   0  0  0  0  0  0  0  0  0  0  0  0
   63.0100   33.0240   49.4080 C   0  0  0  0  0  0  0  0  0  0  0  0
   62.5190   31.7410   49.6630 C   0  0  0  0  0  0  0  0  0  0  0  0
   61.6250   31.1370   48.7720 C   0  0  0  0  0  0  0  0  0  0  0  0
   61.1830   29.7970   49.0360 N   0  0  0  0  0  0  0  0  0  0  0  0
   59.8520   29.3040   48.8440 C   0  0  0  0  0  0  0  0  0  0  0  0
   59.0030   29.4810   49.7580 O   0  0  0  0  0  0  0  0  0  0  0  0
   59.4360   28.6510   47.5800 C   0  0  0  0  0  0  0  0  0  0  0  0
   60.2020   28.7950   46.4150 C   0  0  0  0  0  0  0  0  0  0  0  0
   59.7800   28.2200   45.2170 C   0  0  0  0  0  0  0  0  0  0  0  0
   58.5930   27.4810   45.1610 C   0  0  0  0  0  0  0  0  0  0  0  0
   58.0840   26.8650   43.5920 Cl  0  0  0  0  0  0  0  0  0  0  0  0
   57.8160   27.3080   46.3280 C   0  0  0  0  0  0  0  0  0  0  0  0
   56.6010   26.5360   46.3170 N   0  0  0  0  0  0  0  0  0  0  0  0
   55.5660   27.0020   45.7980 O   0  0  0  0  0  0  0  0  0  0  0  0
   56.5150   25.3510   47.0120 O   0  0  0  0  0  0  0  0  0  0  0  0
   58.2400   27.9150   47.5250 C   0  0  0  0  0  0  0  0  0  0  0  0
   61.2410   31.8230   47.6050 C   0  0  0  0  0  0  0  0  0  0  0  0
   58.4610   33.1400   44.1450 C   0  0  0  0  0  0  0  0  0  0  0  0
   57.5560   32.1820   43.6810 C   0  0  0  0  0  0  0  0  0  0  0  0
   55.6870   29.1990   45.8800 H   0  0  0  0  0  0  0  0  0  0  0  0
   54.7680   28.5850   44.4730 H   0  0  0  0  0  0  0  0  0  0  0  0
   57.4368   30.1559   46.4304 H   0  0  0  0  0  0  0  0  0  0  0  0
   59.0330   31.8703   47.2665 H   0  0  0  0  0  0  0  0  0  0  0  0
   59.5420   34.9260   46.3070 H   0  0  0  0  0  0  0  0  0  0  0  0
   61.7147   33.2146   45.2123 H   0  0  0  0  0  0  0  0  0  0  0  0
   61.8592   34.8057   46.0575 H   0  0  0  0  0  0  0  0  0  0  0  0
   63.0227   34.7113   48.0520 H   0  0  0  0  0  0  0  0  0  0  0  0
   63.7025   33.4978   50.1193 H   0  0  0  0  0  0  0  0  0  0  0  0
   62.8367   31.2032   50.5684 H   0  0  0  0  0  0  0  0  0  0  0  0
   61.1421   29.3653   46.4461 H   0  0  0  0  0  0  0  0  0  0  0  0
   60.3855   28.3484   44.3077 H   0  0  0  0  0  0  0  0  0  0  0  0
   57.6257   27.8117   48.4316 H   0  0  0  0  0  0  0  0  0  0  0  0
   60.5544   31.3448   46.8909 H   0  0  0  0  0  0  0  0  0  0  0  0
   58.7498   33.9792   43.4951 H   0  0  0  0  0  0  0  0  0  0  0  0
   57.1286   32.2821   42.6724 H   0  0  0  0  0  0  0  0  0  0  0  0
  1  2  1  0
  2  3  2  0
  2  4  1  0
  4  5  2  0
  5  6  1  0
  6  7  2  0
  7  8  1  0
  8  9  1  0
  9 10  1  0
 10 11  2  0
 11 12  1  0
 12 13  2  0
 13 14  1  0
 14 15  1  0
 15 16  1  0
 16 17  2  0
 16 18  1  0
 18 19  2  0
 19 20  1  0
 20 21  2  0
 21 22  1  0
 21 23  1  0
 23 24  1  0
 24 25  2  0
 24 26  1  0
 23 27  2  0
 14 28  2  0
  7 29  1  0
 29 30  2  0
 30  4  1  0
 28 10  1  0
 27 18  1  0
  1 31  1  0
  1 32  1  0
  5 33  1  0
  6 34  1  0
  8 35  1  0
  9 36  1  0
  9 37  1  0
 11 38  1  0
 12 39  1  0
 13 40  1  0
 19 41  1  0
 20 42  1  0
 27 43  1  0
 28 44  1  0
 29 45  1  0
 30 46  1  0
M  CHG  3  15  -1  24   1  26  -1
M  END
>  <UniqueID>  (35) 
35

>  <SMILES>  (35) 
NC(=O)c1ccc(NCc2cccc([N-]C(=O)c3ccc(Cl)c([N+](=O)[O-])c3)c2)cc1

>  <Energy>  (35) 
58.51641612055265

>  <Genealogy>  (35) 
NC(=O)c1ccc(NCc2cccc([N-]C(=O)c3ccc(Cl)c([N+](=O)[O-])c3)c2)cc1 (protonated)
NC(=O)c1ccc(NCc2cccc([N-]C(=O)c3ccc(Cl)c([N+](=O)[O-])c3)c2)cc1 (3D coordinates assigned)
NC(=O)c1ccc(NCc2cccc([N-]C(=O)c3ccc(Cl)c([N+](=O)[O-])c3)c2)cc1 (optimized conformer: 58.51641612055265 kcal/mol)

>  <smiles>  (35) 
NC(=O)c1ccc(NCc2cccc(NC(=O)c3ccc(Cl)c([N+](=O)[O-])c3)c2)cc1

>  <score_type>  (35) 
oracle

>  <origin>  (35) 
adg

>  <m_score__min__energy>  (35) 
-11.43

>  <m_primary>  (35) 
energy

$$$$
35:0
     RDKit          3D

 30 31  0  0  0  0  0  0  0  0999 V2000
   57.7440   26.4854   43.5120 H   0  0  0  0  0  0  0  0  0  0  0  0
   57.5590   26.8670   44.5270 C   0  0  0  0  0  0  0  0  0  0  0  0
   57.7500   28.1710   44.7560 C   0  0  0  0  0  0  0  0  0  0  0  0
   58.2312   28.4883   45.6929 H   0  0  0  0  0  0  0  0  0  0  0  0
   57.3210   29.2120   43.7600 C   0  0  0  0  0  0  0  0  0  0  0  0
   56.5826   28.7672   43.0767 H   0  0  0  0  0  0  0  0  0  0  0  0
   58.2143   29.5495   43.2140 H   0  0  0  0  0  0  0  0  0  0  0  0
   56.7020   30.4140   44.4320 C   0  0  0  0  0  0  0  0  0  0  0  0
   55.5010   30.3500   44.8040 O   0  0  0  0  0  0  0  0  0  0  0  0
   57.4440   31.6120   44.6990 N   0  0  0  0  0  0  0  0  0  0  0  0
   58.1050   31.9240   45.9330 C   0  0  0  0  0  0  0  0  0  0  0  0
   58.5150   30.8830   46.7840 C   0  0  0  0  0  0  0  0  0  0  0  0
   58.3047   29.8387   46.5096 H   0  0  0  0  0  0  0  0  0  0  0  0
   59.1860   31.1640   47.9730 C   0  0  0  0  0  0  0  0  0  0  0  0
   59.4926   30.3429   48.6377 H   0  0  0  0  0  0  0  0  0  0  0  0
   59.4690   32.4830   48.3210 C   0  0  0  0  0  0  0  0  0  0  0  0
   59.9965   32.7018   49.2612 H   0  0  0  0  0  0  0  0  0  0  0  0
   59.0840   33.5280   47.4780 C   0  0  0  0  0  0  0  0  0  0  0  0
   59.3187   34.5659   47.7565 H   0  0  0  0  0  0  0  0  0  0  0  0
   58.3990   33.2680   46.2760 C   0  0  0  0  0  0  0  0  0  0  0  0
   57.9930   34.3740   45.4420 N   0  0  0  0  0  0  0  0  0  0  0  0
   58.8370   35.0990   44.8740 O   0  0  0  0  0  0  0  0  0  0  0  0
   56.6600   34.6010   45.1920 O   0  0  0  0  0  0  0  0  0  0  0  0
   57.1140   25.9120   45.5600 C   0  0  0  0  0  0  0  0  0  0  0  0
   58.1010   24.6890   46.1670 S   0  0  0  0  0  0  0  0  0  0  0  0
   56.9170   24.1170   47.2080 C   0  0  0  0  0  0  0  0  0  0  0  0
   57.0650   23.1370   47.9830 O   0  0  0  0  0  0  0  0  0  0  0  0
   55.7750   24.8300   47.1310 N   0  0  0  0  0  0  0  0  0  0  0  0
   55.8800   25.8330   46.2200 C   0  0  0  0  0  0  0  0  0  0  0  0
   54.8300   26.7150   46.0030 O   0  0  0  0  0  0  0  0  0  0  0  0
  1  2  1  0
  2  3  2  0
  3  4  1  0
  3  5  1  0
  5  6  1  0
  5  7  1  0
  5  8  1  0
  8  9  2  0
  8 10  1  0
 10 11  1  0
 11 12  2  0
 12 13  1  0
 12 14  1  0
 14 15  1  0
 14 16  2  0
 16 17  1  0
 16 18  1  0
 18 19  1  0
 18 20  2  0
 20 21  1  0
 21 22  2  0
 21 23  1  0
  2 24  1  0
 24 25  1  0
 25 26  1  0
 26 27  2  0
 26 28  1  0
 28 29  1  0
 29 30  1  0
 20 11  1  0
 29 24  2  0
M  CHG  5  10  -1  21   1  23  -1  28  -1  30  -1
M  END
>  <UniqueID>  (36) 
36

>  <SMILES>  (36) 
O=C(C/C=C/c1sc(=O)[n-]c1[O-])[N-]c1ccccc1[N+](=O)[O-]

>  <Energy>  (36) 
68.40660310863315

>  <Genealogy>  (36) 
O=C(CC=Cc1sc(=O)[n-]c1[O-])[N-]c1ccccc1[N+](=O)[O-] (protonated)
O=C(C/C=C/c1sc(=O)[n-]c1[O-])[N-]c1ccccc1[N+](=O)[O-] (cis-trans isomerization)
O=C(C/C=C/c1sc(=O)[n-]c1[O-])[N-]c1ccccc1[N+](=O)[O-] (3D coordinates assigned)
O=C(C/C=C/c1sc(=O)[n-]c1[O-])[N-]c1ccccc1[N+](=O)[O-] (optimized conformer: 68.40660310863315 kcal/mol)

>  <smiles>  (36) 
O=C(CC=Cc1sc(=O)[nH]c1O)Nc1ccccc1[N+](=O)[O-]

>  <score_type>  (36) 
oracle

>  <origin>  (36) 
adg

>  <m_score__min__energy>  (36) 
-15.56

>  <m_primary>  (36) 
energy

$$$$
36:0
     RDKit          3D

 32 33  0  0  0  0  0  0  0  0999 V2000
   58.8300   34.7820   47.0520 C   0  0  0  0  0  0  0  0  0  0  0  0
   59.8110   34.0880   45.6860 S   0  0  0  0  0  0  0  0  0  0  0  0
   58.8710   32.5610   45.6310 C   0  0  0  0  0  0  0  0  0  0  0  0
   57.9460   32.0690   44.3210 S   0  0  0  0  0  0  0  0  0  0  0  0
   57.4110   30.6210   44.9990 C   0  0  0  0  0  0  0  0  0  0  0  0
   56.5160   29.6460   44.3260 C   0  0  0  0  0  0  0  0  0  0  0  0
   56.9850   28.9230   43.1820 N   0  0  0  0  0  0  0  0  0  0  0  0
   55.3030   29.4440   44.7510 N   0  0  0  0  0  0  0  0  0  0  0  0
   57.9640   30.5110   46.2770 C   0  0  0  0  0  0  0  0  0  0  0  0
   58.7750   31.6000   46.6330 C   0  0  0  0  0  0  0  0  0  0  0  0
   59.5850   31.7250   48.1920 S   0  0  0  0  0  0  0  0  0  0  0  0
   58.7970   32.6280   49.0980 O   0  0  0  0  0  0  0  0  0  0  0  0
   59.6840   30.3640   48.8250 O   0  0  0  0  0  0  0  0  0  0  0  0
   61.2120   32.3680   47.9850 C   0  0  0  0  0  0  0  0  0  0  0  0
   62.1700   31.6550   47.2490 C   0  0  0  0  0  0  0  0  0  0  0  0
   63.4670   32.1590   47.1100 C   0  0  0  0  0  0  0  0  0  0  0  0
   63.8150   33.3740   47.7090 C   0  0  0  0  0  0  0  0  0  0  0  0
   62.8650   34.0840   48.4500 C   0  0  0  0  0  0  0  0  0  0  0  0
   61.5680   33.5830   48.5910 C   0  0  0  0  0  0  0  0  0  0  0  0
   59.2680   34.4722   48.0123 H   0  0  0  0  0  0  0  0  0  0  0  0
   58.8332   35.8799   46.9848 H   0  0  0  0  0  0  0  0  0  0  0  0
   57.7957   34.4135   46.9848 H   0  0  0  0  0  0  0  0  0  0  0  0
   56.3630   28.2460   42.6860 H   0  0  0  0  0  0  0  0  0  0  0  0
   57.9590   29.0380   42.8260 H   0  0  0  0  0  0  0  0  0  0  0  0
   54.8290   30.1480   45.3590 H   0  0  0  0  0  0  0  0  0  0  0  0
   54.7670   28.5790   44.5210 H   0  0  0  0  0  0  0  0  0  0  0  0
   57.7814   29.6531   46.9409 H   0  0  0  0  0  0  0  0  0  0  0  0
   61.9003   30.6972   46.7801 H   0  0  0  0  0  0  0  0  0  0  0  0
   64.2145   31.5991   46.5288 H   0  0  0  0  0  0  0  0  0  0  0  0
   64.8349   33.7707   47.5974 H   0  0  0  0  0  0  0  0  0  0  0  0
   63.1391   35.0386   48.9228 H   0  0  0  0  0  0  0  0  0  0  0  0
   60.8245   34.1420   49.1781 H   0  0  0  0  0  0  0  0  0  0  0  0
  1  2  1  0
  2  3  1  0
  3  4  1  0
  4  5  1  0
  5  6  1  0
  6  7  1  0
  6  8  2  0
  5  9  2  0
  9 10  1  0
 10 11  1  0
 11 12  2  0
 11 13  2  0
 11 14  1  0
 14 15  2  0
 15 16  1  0
 16 17  2  0
 17 18  1  0
 18 19  2  0
 10  3  2  0
 19 14  1  0
  1 20  1  0
  1 21  1  0
  1 22  1  0
  7 23  1  0
  7 24  1  0
  8 25  1  0
  8 26  1  0
  9 27  1  0
 15 28  1  0
 16 29  1  0
 17 30  1  0
 18 31  1  0
 19 32  1  0
M  CHG  1   8   1
M  END
>  <UniqueID>  (37) 
37

>  <SMILES>  (37) 
CSc1sc(C(N)=[NH2+])cc1S(=O)(=O)c1ccccc1

>  <Energy>  (37) 
55.927238716722506

>  <Genealogy>  (37) 
CSc1sc(C(N)=[NH2+])cc1S(=O)(=O)c1ccccc1 (protonated)
CSc1sc(C(N)=[NH2+])cc1S(=O)(=O)c1ccccc1 (3D coordinates assigned)
CSc1sc(C(N)=[NH2+])cc1S(=O)(=O)c1ccccc1 (optimized conformer: 55.927238716722506 kcal/mol)

>  <smiles>  (37) 
CSc1sc(C(=N)N)cc1S(=O)(=O)c1ccccc1

>  <score_type>  (37) 
oracle

>  <origin>  (37) 
adg

>  <m_score__min__energy>  (37) 
-6.25

>  <m_primary>  (37) 
energy

$$$$
37:0
     RDKit          3D

 43 45  0  0  0  0  0  0  0  0999 V2000
   63.1530   32.7070   47.5170 C   0  0  0  0  0  0  0  0  0  0  0  0
   61.8120   32.0750   47.2950 C   0  0  0  0  0  0  0  0  0  0  0  0
   61.6680   30.8570   47.5850 O   0  0  0  0  0  0  0  0  0  0  0  0
   60.6670   32.8410   46.7320 C   0  0  0  0  0  0  0  0  0  0  0  0
   60.7630   34.2230   46.4840 C   0  0  0  0  0  0  0  0  0  0  0  0
   59.6780   34.9260   45.9630 C   0  0  0  0  0  0  0  0  0  0  0  0
   58.4840   34.2650   45.6710 C   0  0  0  0  0  0  0  0  0  0  0  0
   58.3660   32.8830   45.8960 C   0  0  0  0  0  0  0  0  0  0  0  0
   57.1560   32.1670   45.5880 N   0  0  0  0  0  0  0  0  0  0  0  0
   57.0750   30.8600   44.4500 S   0  0  0  0  0  0  0  0  0  0  0  0
   57.4220   31.3740   43.0810 O   0  0  0  0  0  0  0  0  0  0  0  0
   55.6780   30.3090   44.4220 O   0  0  0  0  0  0  0  0  0  0  0  0
   58.1790   29.5780   44.9420 C   0  0  0  0  0  0  0  0  0  0  0  0
   59.4970   29.5510   44.4710 C   0  0  0  0  0  0  0  0  0  0  0  0
   60.3700   28.5480   44.8930 C   0  0  0  0  0  0  0  0  0  0  0  0
   59.9350   27.5670   45.7880 C   0  0  0  0  0  0  0  0  0  0  0  0
   58.6120   27.5760   46.2680 C   0  0  0  0  0  0  0  0  0  0  0  0
   58.1460   26.5360   47.2160 C   0  0  0  0  0  0  0  0  0  0  0  0
   58.9150   26.1370   48.1340 O   0  0  0  0  0  0  0  0  0  0  0  0
   56.8260   25.9800   47.0760 N   0  0  0  0  0  0  0  0  0  0  0  0
   56.3850   25.2430   46.0990 C   0  0  0  0  0  0  0  0  0  0  0  0
   55.0790   24.8590   46.0340 N   0  0  0  0  0  0  0  0  0  0  0  0
   54.6230   24.0940   45.0090 C   0  0  0  0  0  0  0  0  0  0  0  0
   55.4970   23.6910   44.0020 C   0  0  0  0  0  0  0  0  0  0  0  0
   56.8290   24.0940   44.0800 C   0  0  0  0  0  0  0  0  0  0  0  0
   57.2450   24.8580   45.1200 N   0  0  0  0  0  0  0  0  0  0  0  0
   57.7390   28.5910   45.8340 C   0  0  0  0  0  0  0  0  0  0  0  0
   59.4590   32.1830   46.4330 C   0  0  0  0  0  0  0  0  0  0  0  0
   63.3421   32.7961   48.5970 H   0  0  0  0  0  0  0  0  0  0  0  0
   63.9334   32.0819   47.0585 H   0  0  0  0  0  0  0  0  0  0  0  0
   63.1676   33.7068   47.0585 H   0  0  0  0  0  0  0  0  0  0  0  0
   61.7019   34.7527   46.7031 H   0  0  0  0  0  0  0  0  0  0  0  0
   59.7633   36.0075   45.7810 H   0  0  0  0  0  0  0  0  0  0  0  0
   57.6318   34.8282   45.2630 H   0  0  0  0  0  0  0  0  0  0  0  0
   56.2950   32.3570   46.1500 H   0  0  0  0  0  0  0  0  0  0  0  0
   59.8447   30.3216   43.7673 H   0  0  0  0  0  0  0  0  0  0  0  0
   61.4046   28.5293   44.5198 H   0  0  0  0  0  0  0  0  0  0  0  0
   60.6312   26.7825   46.1196 H   0  0  0  0  0  0  0  0  0  0  0  0
   53.5655   23.7931   44.9739 H   0  0  0  0  0  0  0  0  0  0  0  0
   55.1445   23.0697   43.1655 H   0  0  0  0  0  0  0  0  0  0  0  0
   57.5420   23.7925   43.2986 H   0  0  0  0  0  0  0  0  0  0  0  0
   56.7013   28.6097   46.1985 H   0  0  0  0  0  0  0  0  0  0  0  0
   59.3696   31.1032   46.6230 H   0  0  0  0  0  0  0  0  0  0  0  0
  1  2  1  0
  2  3  2  0
  2  4  1  0
  4  5  2  0
  5  6  1  0
  6  7  2  0
  7  8  1  0
  8  9  1  0
  9 10  1  0
 10 11  2  0
 10 12  2  0
 10 13  1  0
 13 14  2  0
 14 15  1  0
 15 16  2  0
 16 17  1  0
 17 18  1  0
 18 19  2  0
 18 20  1  0
 20 21  2  3
 21 22  1  0
 22 23  2  0
 23 24  1  0
 24 25  2  0
 25 26  1  0
 17 27  2  0
  8 28  2  0
 28  4  1  0
 27 13  1  0
 26 21  1  0
  1 29  1  0
  1 30  1  0
  1 31  1  0
  5 32  1  0
  6 33  1  0
  7 34  1  0
  9 35  1  0
 14 36  1  0
 15 37  1  0
 16 38  1  0
 23 39  1  0
 24 40  1  0
 25 41  1  0
 27 42  1  0
 28 43  1  0
M  CHG  1  26  -1
M  END
>  <UniqueID>  (38) 
38

>  <SMILES>  (38) 
CC(=O)c1cccc(NS(=O)(=O)c2cccc(C(=O)N=c3nccc[n-]3)c2)c1

>  <Energy>  (38) 
53.33788464069718

>  <Genealogy>  (38) 
CC(=O)c1cccc(NS(=O)(=O)c2cccc(C(=O)N=c3nccc[n-]3)c2)c1 (protonated)
CC(=O)c1cccc(NS(=O)(=O)c2cccc(C(=O)N=c3nccc[n-]3)c2)c1 (3D coordinates assigned)
CC(=O)c1cccc(NS(=O)(=O)c2cccc(C(=O)N=c3nccc[n-]3)c2)c1 (optimized conformer: 53.33788464069718 kcal/mol)

>  <smiles>  (38) 
CC(=O)c1cccc(NS(=O)(=O)c2cccc(C(=O)N=c3nccc[nH]3)c2)c1

>  <score_type>  (38) 
oracle

>  <origin>  (38) 
adg

>  <m_score__min__energy>  (38) 
-11.17

>  <m_primary>  (38) 
energy

$$$$
38:0
     RDKit          3D

 57 60  0  0  0  0  0  0  0  0999 V2000
   55.4950   30.7660   44.1480 O   0  0  0  0  0  0  0  0  0  0  0  0
   56.2840   30.0510   44.8240 C   0  0  0  0  0  0  0  0  0  0  0  0
   55.8960   28.7380   45.2460 N   0  0  0  0  0  0  0  0  0  0  0  0
   56.7780   27.6500   45.5600 C   0  0  0  0  0  0  0  0  0  0  0  0
   58.1770   27.7730   45.4490 C   0  0  0  0  0  0  0  0  0  0  0  0
   59.0040   26.6790   45.7270 C   0  0  0  0  0  0  0  0  0  0  0  0
   58.4430   25.4560   46.1050 C   0  0  0  0  0  0  0  0  0  0  0  0
   59.2470   24.3960   46.3690 F   0  0  0  0  0  0  0  0  0  0  0  0
   57.0540   25.3220   46.2010 C   0  0  0  0  0  0  0  0  0  0  0  0
   56.2230   26.4120   45.9170 C   0  0  0  0  0  0  0  0  0  0  0  0
   54.8750   26.2660   46.0050 F   0  0  0  0  0  0  0  0  0  0  0  0
   57.5770   30.5420   45.1900 N   0  0  0  0  0  0  0  0  0  0  0  0
   57.8970   31.9070   45.5020 C   0  0  0  0  0  0  0  0  0  0  0  0
   57.4430   32.9540   44.6790 C   0  0  0  0  0  0  0  0  0  0  0  0
   57.7970   34.2760   44.9520 C   0  0  0  0  0  0  0  0  0  0  0  0
   58.6210   34.5680   46.0380 C   0  0  0  0  0  0  0  0  0  0  0  0
   59.0960   33.5400   46.8540 C   0  0  0  0  0  0  0  0  0  0  0  0
   58.7440   32.2010   46.5980 C   0  0  0  0  0  0  0  0  0  0  0  0
   59.2510   31.1350   47.5000 C   0  0  0  0  0  0  0  0  0  0  0  0
   60.1560   30.1660   47.0310 C   0  0  0  0  0  0  0  0  0  0  0  0
   60.6070   29.1500   47.8770 C   0  0  0  0  0  0  0  0  0  0  0  0
   60.1430   29.0680   49.1990 C   0  0  0  0  0  0  0  0  0  0  0  0
   60.5650   27.9290   50.0910 C   0  0  0  0  0  0  0  0  0  0  0  0
   61.5840   28.3730   51.1500 C   0  0  0  0  0  0  0  0  0  0  0  0
   61.8950   29.7970   51.0230 N   0  0  0  0  0  0  0  0  0  0  0  0
   63.2370   30.3070   51.0360 C   0  0  0  0  0  0  0  0  0  0  0  0
   64.1870   29.5720   51.4160 O   0  0  0  0  0  0  0  0  0  0  0  0
   63.5150   31.6710   50.6910 N   0  0  0  0  0  0  0  0  0  0  0  0
   63.1550   32.3380   49.4730 C   0  0  0  0  0  0  0  0  0  0  0  0
   62.2040   33.3670   49.5250 C   0  0  0  0  0  0  0  0  0  0  0  0
   61.8440   34.0560   48.3630 C   0  0  0  0  0  0  0  0  0  0  0  0
   62.4470   33.7340   47.1430 C   0  0  0  0  0  0  0  0  0  0  0  0
   63.4180   32.7320   47.0880 C   0  0  0  0  0  0  0  0  0  0  0  0
   63.7790   32.0390   48.2480 C   0  0  0  0  0  0  0  0  0  0  0  0
   59.2350   30.0300   49.6680 C   0  0  0  0  0  0  0  0  0  0  0  0
   58.7950   31.0560   48.8270 C   0  0  0  0  0  0  0  0  0  0  0  0
   58.6206   28.7319   45.1429 H   0  0  0  0  0  0  0  0  0  0  0  0
   60.0963   26.7816   45.6480 H   0  0  0  0  0  0  0  0  0  0  0  0
   56.6143   24.3591   46.5000 H   0  0  0  0  0  0  0  0  0  0  0  0
   56.8035   32.7286   43.8129 H   0  0  0  0  0  0  0  0  0  0  0  0
   57.4256   35.0882   44.3098 H   0  0  0  0  0  0  0  0  0  0  0  0
   58.8974   35.6109   46.2523 H   0  0  0  0  0  0  0  0  0  0  0  0
   59.7513   33.7781   47.7048 H   0  0  0  0  0  0  0  0  0  0  0  0
   60.5112   30.2084   45.9908 H   0  0  0  0  0  0  0  0  0  0  0  0
   61.3303   28.4096   47.5047 H   0  0  0  0  0  0  0  0  0  0  0  0
   59.6758   27.5287   50.6000 H   0  0  0  0  0  0  0  0  0  0  0  0
   61.0421   27.1638   49.4611 H   0  0  0  0  0  0  0  0  0  0  0  0
   61.1666   28.1850   52.1502 H   0  0  0  0  0  0  0  0  0  0  0  0
   62.5113   27.8001   51.0019 H   0  0  0  0  0  0  0  0  0  0  0  0
   61.1000   30.4730   51.0120 H   0  0  0  0  0  0  0  0  0  0  0  0
   61.7386   33.6336   50.4854 H   0  0  0  0  0  0  0  0  0  0  0  0
   61.0860   34.8519   48.4084 H   0  0  0  0  0  0  0  0  0  0  0  0
   62.1566   34.2697   46.2272 H   0  0  0  0  0  0  0  0  0  0  0  0
   63.9001   32.4871   46.1301 H   0  0  0  0  0  0  0  0  0  0  0  0
   64.5526   31.2583   48.2024 H   0  0  0  0  0  0  0  0  0  0  0  0
   58.8675   29.9762   50.7034 H   0  0  0  0  0  0  0  0  0  0  0  0
   58.0866   31.8071   49.2065 H   0  0  0  0  0  0  0  0  0  0  0  0
  1  2  2  0
  2  3  1  0
  3  4  1  0
  4  5  2  0
  5  6  1  0
  6  7  2  0
  7  8  1  0
  7  9  1  0
  9 10  2  0
 10 11  1  0
  2 12  1  0
 12 13  1  0
 13 14  2  0
 14 15  1  0
 15 16  2  0
 16 17  1  0
 17 18  2  0
 18 19  1  0
 19 20  2  0
 20 21  1  0
 21 22  2  0
 22 23  1  0
 23 24  1  0
 24 25  1  0
 25 26  1  0
 26 27  2  0
 26 28  1  0
 28 29  1  0
 29 30  2  0
 30 31  1  0
 31 32  2  0
 32 33  1  0
 33 34  2  0
 22 35  1  0
 35 36  2  0
 10  4  1  0
 18 13  1  0
 36 19  1  0
 34 29  1  0
  5 37  1  0
  6 38  1  0
  9 39  1  0
 14 40  1  0
 15 41  1  0
 16 42  1  0
 17 43  1  0
 20 44  1  0
 21 45  1  0
 23 46  1  0
 23 47  1  0
 24 48  1  0
 24 49  1  0
 25 50  1  0
 30 51  1  0
 31 52  1  0
 32 53  1  0
 33 54  1  0
 34 55  1  0
 35 56  1  0
 36 57  1  0
M  CHG  3   3  -1  12  -1  28  -1
M  END
>  <UniqueID>  (39) 
39

>  <SMILES>  (39) 
O=C([N-]c1ccc(F)cc1F)[N-]c1ccccc1-c1ccc(CCNC(=O)[N-]c2ccccc2)cc1

>  <Energy>  (39) 
74.74889498390903

>  <Genealogy>  (39) 
O=C([N-]c1ccc(F)cc1F)[N-]c1ccccc1-c1ccc(CCNC(=O)[N-]c2ccccc2)cc1 (protonated)
O=C([N-]c1ccc(F)cc1F)[N-]c1ccccc1-c1ccc(CCNC(=O)[N-]c2ccccc2)cc1 (3D coordinates assigned)
O=C([N-]c1ccc(F)cc1F)[N-]c1ccccc1-c1ccc(CCNC(=O)[N-]c2ccccc2)cc1 (optimized conformer: 74.74889498390903 kcal/mol)

>  <smiles>  (39) 
O=C(NCCc1ccc(-c2ccccc2NC(=O)Nc2ccc(F)cc2F)cc1)Nc1ccccc1

>  <score_type>  (39) 
oracle

>  <origin>  (39) 
adg

>  <m_score__min__energy>  (39) 
-13.699999999999999

>  <m_primary>  (39) 
energy

$$$$
39:0
     RDKit          3D

 36 38  0  0  0  0  0  0  0  0999 V2000
   56.6740   28.5850   42.8800 O   0  0  0  0  0  0  0  0  0  0  0  0
   57.3460   28.9650   44.1690 S   0  0  0  0  0  0  0  0  0  0  0  0
   56.3630   28.7660   45.2890 O   0  0  0  0  0  0  0  0  0  0  0  0
   57.8120   30.6820   44.1880 C   0  0  0  0  0  0  0  0  0  0  0  0
   57.7600   31.3970   42.9790 C   0  0  0  0  0  0  0  0  0  0  0  0
   58.0980   32.7510   42.9330 C   0  0  0  0  0  0  0  0  0  0  0  0
   58.5130   33.4070   44.0900 C   0  0  0  0  0  0  0  0  0  0  0  0
   58.6050   32.7070   45.2930 C   0  0  0  0  0  0  0  0  0  0  0  0
   58.2700   31.3470   45.3540 C   0  0  0  0  0  0  0  0  0  0  0  0
   58.4730   30.5450   46.9070 Cl  0  0  0  0  0  0  0  0  0  0  0  0
   58.7350   27.9080   44.4100 N   0  0  1  0  0  0  0  0  0  0  0  0
   59.9460   28.7610   44.5800 C   0  0  0  0  0  0  0  0  0  0  0  0
   61.0630   28.0610   45.3640 C   0  0  0  0  0  0  0  0  0  0  0  0
   60.5960   27.7230   46.7900 C   0  0  0  0  0  0  0  0  0  0  0  0
   59.0890   27.4110   46.8630 C   0  0  0  0  0  0  0  0  0  0  0  0
   58.5680   26.8960   45.5050 C   0  0  1  0  0  0  0  0  0  0  0  0
   57.1760   26.3220   45.6170 C   0  0  0  0  0  0  0  0  0  0  0  0
   56.2410   26.7600   46.4830 N   0  0  0  0  0  0  0  0  0  0  0  0
   55.1620   26.0240   46.2800 N   0  0  0  0  0  0  0  0  0  0  0  0
   55.4720   25.1620   45.2970 C   0  0  0  0  0  0  0  0  0  0  0  0
   54.4250   24.0620   44.7010 S   0  0  0  0  0  0  0  0  0  0  0  0
   56.7300   25.3110   44.8440 N   0  0  0  0  0  0  0  0  0  0  0  0
   57.4491   30.8833   42.0573 H   0  0  0  0  0  0  0  0  0  0  0  0
   58.0365   33.3005   41.9821 H   0  0  0  0  0  0  0  0  0  0  0  0
   58.7680   34.4765   44.0548 H   0  0  0  0  0  0  0  0  0  0  0  0
   58.9433   33.2265   46.2017 H   0  0  0  0  0  0  0  0  0  0  0  0
   58.8680   27.3740   43.5220 H   0  0  0  0  0  0  0  0  0  0  0  0
   60.3300   29.0280   43.5844 H   0  0  0  0  0  0  0  0  0  0  0  0
   59.6461   29.6498   45.1545 H   0  0  0  0  0  0  0  0  0  0  0  0
   61.3408   27.1317   44.8451 H   0  0  0  0  0  0  0  0  0  0  0  0
   61.9288   28.7366   45.4260 H   0  0  0  0  0  0  0  0  0  0  0  0
   61.1550   26.8445   47.1446 H   0  0  0  0  0  0  0  0  0  0  0  0
   60.7838   28.6054   47.4194 H   0  0  0  0  0  0  0  0  0  0  0  0
   58.9171   26.6416   47.6302 H   0  0  0  0  0  0  0  0  0  0  0  0
   58.5503   28.3353   47.1190 H   0  0  0  0  0  0  0  0  0  0  0  0
   59.2043   26.0510   45.2030 H   0  0  0  0  0  0  0  0  0  0  0  0
  1  2  2  0
  2  3  2  0
  2  4  1  0
  4  5  2  0
  5  6  1  0
  6  7  2  0
  7  8  1  0
  8  9  2  0
  9 10  1  0
  2 11  1  0
 11 12  1  0
 12 13  1  0
 13 14  1  0
 14 15  1  0
 15 16  1  0
 16 17  1  0
 17 18  2  0
 18 19  1  0
 19 20  1  0
 20 21  2  0
 20 22  1  0
  9  4  1  0
 16 11  1  0
 22 17  1  0
  5 23  1  0
  6 24  1  0
  7 25  1  0
  8 26  1  0
 11 27  1  6
 12 28  1  0
 12 29  1  0
 13 30  1  0
 13 31  1  0
 14 32  1  0
 14 33  1  0
 15 34  1  0
 15 35  1  0
 16 36  1  6
M  CHG  3  11   1  19  -1  22  -1
M  END
>  <UniqueID>  (40) 
40

>  <SMILES>  (40) 
O=S(=O)(c1ccccc1Cl)[N@H+]1CCCC[C@H]1c1n[n-]c(=S)[n-]1

>  <Energy>  (40) 
82.20053405688908

>  <Genealogy>  (40) 
O=S(=O)(c1ccccc1Cl)[NH+]1CCCCC1c1n[n-]c(=S)[n-]1 (protonated)
O=S(=O)(c1ccccc1Cl)[N@H+]1CCCC[C@H]1c1n[n-]c(=S)[n-]1 (chirality)
O=S(=O)(c1ccccc1Cl)[N@H+]1CCCC[C@H]1c1n[n-]c(=S)[n-]1 (3D coordinates assigned)
O=S(=O)(c1ccccc1Cl)[N@H+]1CCCC[C@H]1c1n[n-]c(=S)[n-]1 (nonaromatic ring conformer: 82.20053405688908 kcal/mol)

>  <smiles>  (40) 
O=S(=O)(c1ccccc1Cl)N1CCCCC1c1n[nH]c(=S)[nH]1

>  <score_type>  (40) 
oracle

>  <origin>  (40) 
adg

>  <m_score__min__energy>  (40) 
-10.01

>  <m_primary>  (40) 
energy

$$$$
40:0
     RDKit          3D

 39 41  0  0  0  0  0  0  0  0999 V2000
   56.3950   30.5140   53.7270 O   0  0  0  0  0  0  0  0  0  0  0  0
   55.8220   30.6210   52.6080 C   0  0  0  0  0  0  0  0  0  0  0  0
   54.7110   29.6790   52.2580 C   0  0  0  0  0  0  0  0  0  0  0  0
   53.3830   30.3280   52.5320 C   0  0  0  0  0  0  0  0  0  0  0  0
   52.7230   30.1070   53.7530 C   0  0  0  0  0  0  0  0  0  0  0  0
   51.5060   30.7410   54.0200 C   0  0  0  0  0  0  0  0  0  0  0  0
   50.9450   31.6070   53.0780 C   0  0  0  0  0  0  0  0  0  0  0  0
   51.6020   31.8430   51.8660 C   0  0  0  0  0  0  0  0  0  0  0  0
   51.0460   32.7110   50.9330 O   0  0  0  0  0  0  0  0  0  0  0  0
   52.8190   31.2100   51.5950 C   0  0  0  0  0  0  0  0  0  0  0  0
   56.2260   31.6330   51.6730 N   0  0  0  0  0  0  0  0  0  0  0  0
   57.4400   32.3930   51.7900 C   0  0  0  0  0  0  0  0  0  0  0  0
   57.8430   32.9260   53.0260 C   0  0  0  0  0  0  0  0  0  0  0  0
   59.0430   33.6310   53.1330 C   0  0  0  0  0  0  0  0  0  0  0  0
   59.8570   33.8060   52.0130 C   0  0  0  0  0  0  0  0  0  0  0  0
   59.4810   33.2710   50.7700 C   0  0  0  0  0  0  0  0  0  0  0  0
   60.3580   33.4620   49.5880 C   0  0  0  0  0  0  0  0  0  0  0  0
   61.7160   33.0980   49.6440 C   0  0  0  0  0  0  0  0  0  0  0  0
   62.5440   33.2840   48.5330 C   0  0  0  0  0  0  0  0  0  0  0  0
   62.0280   33.8400   47.3610 C   0  0  0  0  0  0  0  0  0  0  0  0
   60.6840   34.2130   47.2970 C   0  0  0  0  0  0  0  0  0  0  0  0
   59.8510   34.0270   48.4040 C   0  0  0  0  0  0  0  0  0  0  0  0
   58.2730   32.5520   50.6680 C   0  0  0  0  0  0  0  0  0  0  0  0
   57.9110   31.9900   49.4860 F   0  0  0  0  0  0  0  0  0  0  0  0
   54.7763   29.4186   51.1913 H   0  0  0  0  0  0  0  0  0  0  0  0
   54.8020   28.7693   52.8696 H   0  0  0  0  0  0  0  0  0  0  0  0
   53.1656   29.4329   54.5011 H   0  0  0  0  0  0  0  0  0  0  0  0
   50.9891   30.5577   54.9735 H   0  0  0  0  0  0  0  0  0  0  0  0
   49.9864   32.1033   53.2896 H   0  0  0  0  0  0  0  0  0  0  0  0
   53.3371   31.4034   50.6441 H   0  0  0  0  0  0  0  0  0  0  0  0
   55.5700   31.8640   50.8930 H   0  0  0  0  0  0  0  0  0  0  0  0
   57.2093   32.7869   53.9143 H   0  0  0  0  0  0  0  0  0  0  0  0
   59.3480   34.0500   54.1033 H   0  0  0  0  0  0  0  0  0  0  0  0
   60.7991   34.3665   52.1043 H   0  0  0  0  0  0  0  0  0  0  0  0
   62.1285   32.6647   50.5671 H   0  0  0  0  0  0  0  0  0  0  0  0
   63.6034   32.9919   48.5824 H   0  0  0  0  0  0  0  0  0  0  0  0
   62.6807   33.9843   46.4874 H   0  0  0  0  0  0  0  0  0  0  0  0
   60.2800   34.6540   46.3738 H   0  0  0  0  0  0  0  0  0  0  0  0
   58.7933   34.3241   48.3488 H   0  0  0  0  0  0  0  0  0  0  0  0
  1  2  2  0
  2  3  1  0
  3  4  1  0
  4  5  2  0
  5  6  1  0
  6  7  2  0
  7  8  1  0
  8  9  1  0
  8 10  2  0
  2 11  1  0
 11 12  1  0
 12 13  2  0
 13 14  1  0
 14 15  2  0
 15 16  1  0
 16 17  1  0
 17 18  2  0
 18 19  1  0
 19 20  2  0
 20 21  1  0
 21 22  2  0
 16 23  2  0
 23 24  1  0
 10  4  1  0
 23 12  1  0
 22 17  1  0
  3 25  1  0
  3 26  1  0
  5 27  1  0
  6 28  1  0
  7 29  1  0
 10 30  1  0
 11 31  1  0
 13 32  1  0
 14 33  1  0
 15 34  1  0
 18 35  1  0
 19 36  1  0
 20 37  1  0
 21 38  1  0
 22 39  1  0
M  CHG  1   9  -1
M  END
>  <UniqueID>  (41) 
41

>  <SMILES>  (41) 
O=C(Cc1cccc([O-])c1)Nc1cccc(-c2ccccc2)c1F

>  <Energy>  (41) 
49.68699648921193

>  <Genealogy>  (41) 
O=C(Cc1cccc([O-])c1)Nc1cccc(-c2ccccc2)c1F (protonated)
O=C(Cc1cccc([O-])c1)Nc1cccc(-c2ccccc2)c1F (3D coordinates assigned)
O=C(Cc1cccc([O-])c1)Nc1cccc(-c2ccccc2)c1F (optimized conformer: 49.68699648921193 kcal/mol)

>  <smiles>  (41) 
O=C(Cc1cccc(O)c1)Nc1cccc(-c2ccccc2)c1F

>  <score_type>  (41) 
oracle

>  <origin>  (41) 
adg

>  <m_score__min__energy>  (41) 
-11.92

>  <m_primary>  (41) 
energy

$$$$
41:0
     RDKit          3D

 37 39  0  0  0  0  0  0  0  0999 V2000
   54.3573   29.3954   52.6747 H   0  0  0  0  0  0  0  0  0  0  0  0
   54.5790   30.4030   52.2930 C   0  0  0  0  0  0  0  0  0  0  0  0
   55.9900   30.8040   52.1290 C   0  0  0  0  0  0  0  0  0  0  0  0
   56.3180   31.9820   52.4260 O   0  0  0  0  0  0  0  0  0  0  0  0
   56.9920   29.9170   51.6110 N   0  0  0  0  0  0  0  0  0  0  0  0
   58.1160   30.2930   50.8010 C   0  0  0  0  0  0  0  0  0  0  0  0
   59.1710   29.4010   50.5490 C   0  0  0  0  0  0  0  0  0  0  0  0
   59.1453   28.3866   50.9735 H   0  0  0  0  0  0  0  0  0  0  0  0
   60.2520   29.7990   49.7610 C   0  0  0  0  0  0  0  0  0  0  0  0
   61.0729   29.0948   49.5607 H   0  0  0  0  0  0  0  0  0  0  0  0
   60.2950   31.0880   49.2260 C   0  0  0  0  0  0  0  0  0  0  0  0
   61.1510   31.3950   48.6071 H   0  0  0  0  0  0  0  0  0  0  0  0
   59.2500   31.9960   49.4740 C   0  0  0  0  0  0  0  0  0  0  0  0
   59.2920   33.3740   48.9280 C   0  0  0  0  0  0  0  0  0  0  0  0
   59.6710   34.3150   49.6770 O   0  0  0  0  0  0  0  0  0  0  0  0
   58.8990   33.6840   47.5320 C   0  0  0  0  0  0  0  0  0  0  0  0
   59.6410   34.6180   46.7840 C   0  0  0  0  0  0  0  0  0  0  0  0
   60.5171   35.1074   47.2345 H   0  0  0  0  0  0  0  0  0  0  0  0
   59.2700   34.9270   45.4710 C   0  0  0  0  0  0  0  0  0  0  0  0
   59.8595   35.6516   44.8901 H   0  0  0  0  0  0  0  0  0  0  0  0
   58.1520   34.3170   44.8960 C   0  0  0  0  0  0  0  0  0  0  0  0
   57.8659   34.5568   43.8613 H   0  0  0  0  0  0  0  0  0  0  0  0
   57.3980   33.4030   45.6350 C   0  0  0  0  0  0  0  0  0  0  0  0
   56.5138   32.9290   45.1839 H   0  0  0  0  0  0  0  0  0  0  0  0
   57.7650   33.0890   46.9480 C   0  0  0  0  0  0  0  0  0  0  0  0
   57.1638   32.3729   47.5274 H   0  0  0  0  0  0  0  0  0  0  0  0
   58.1740   31.5940   50.2850 C   0  0  0  0  0  0  0  0  0  0  0  0
   57.3700   32.3081   50.5165 H   0  0  0  0  0  0  0  0  0  0  0  0
   53.5590   31.2160   51.9960 C   0  0  0  0  0  0  0  0  0  0  0  0
   53.4102   32.1256   52.5964 H   0  0  0  0  0  0  0  0  0  0  0  0
   52.6290   30.9310   50.8900 C   0  0  0  0  0  0  0  0  0  0  0  0
   52.7680   29.9300   50.0030 N   0  0  0  0  0  0  0  0  0  0  0  0
   51.6950   30.0800   49.1950 C   0  0  0  0  0  0  0  0  0  0  0  0
   51.4680   29.3160   48.2220 O   0  0  0  0  0  0  0  0  0  0  0  0
   50.8870   31.1140   49.5120 N   0  0  0  0  0  0  0  0  0  0  0  0
   51.4930   31.6420   50.5870 C   0  0  0  0  0  0  0  0  0  0  0  0
   51.0190   32.7520   51.2750 O   0  0  0  0  0  0  0  0  0  0  0  0
  1  2  1  0
  2  3  1  0
  3  4  2  0
  3  5  1  0
  5  6  1  0
  6  7  2  0
  7  8  1  0
  7  9  1  0
  9 10  1  0
  9 11  2  0
 11 12  1  0
 11 13  1  0
 13 14  1  0
 14 15  2  0
 14 16  1  0
 16 17  2  0
 17 18  1  0
 17 19  1  0
 19 20  1  0
 19 21  2  0
 21 22  1  0
 21 23  1  0
 23 24  1  0
 23 25  2  0
 25 26  1  0
 13 27  2  0
 27 28  1  0
  2 29  2  0
 29 30  1  0
 29 31  1  0
 31 32  1  0
 32 33  1  0
 33 34  2  0
 33 35  1  0
 35 36  1  0
 36 37  1  0
 27  6  1  0
 36 31  2  0
 25 16  1  0
M  CHG  4   5  -1  32  -1  35  -1  37  -1
M  END
>  <UniqueID>  (42) 
42

>  <SMILES>  (42) 
O=C(/C=C/c1[n-]c(=O)[n-]c1[O-])[N-]c1cccc(C(=O)c2ccccc2)c1

>  <Energy>  (42) 
79.89841248957113

>  <Genealogy>  (42) 
O=C(C=Cc1[n-]c(=O)[n-]c1[O-])[N-]c1cccc(C(=O)c2ccccc2)c1 (protonated)
O=C(/C=C/c1[n-]c(=O)[n-]c1[O-])[N-]c1cccc(C(=O)c2ccccc2)c1 (cis-trans isomerization)
O=C(/C=C/c1[n-]c(=O)[n-]c1[O-])[N-]c1cccc(C(=O)c2ccccc2)c1 (3D coordinates assigned)
O=C(/C=C/c1[n-]c(=O)[n-]c1[O-])[N-]c1cccc(C(=O)c2ccccc2)c1 (optimized conformer: 79.89841248957113 kcal/mol)

>  <smiles>  (42) 
O=C(C=Cc1[nH]c(=O)[nH]c1O)Nc1cccc(C(=O)c2ccccc2)c1

>  <score_type>  (42) 
oracle

>  <origin>  (42) 
adg

>  <m_score__min__energy>  (42) 
-19.390000000000001

>  <m_primary>  (42) 
energy

$$$$
42:0
     RDKit          3D

 47 49  0  0  0  0  0  0  0  0999 V2000
   54.6180   25.2250   45.6160 C   0  0  0  0  0  0  0  0  0  0  0  0
   55.1460   26.5380   45.7740 O   0  0  0  0  0  0  0  0  0  0  0  0
   56.4990   26.8420   45.9960 C   0  0  0  0  0  0  0  0  0  0  0  0
   57.4030   25.8410   46.4010 C   0  0  0  0  0  0  0  0  0  0  0  0
   58.7440   26.1410   46.6210 C   0  0  0  0  0  0  0  0  0  0  0  0
   59.2060   27.4430   46.4580 C   0  0  0  0  0  0  0  0  0  0  0  0
   58.3280   28.4670   46.0750 C   0  0  0  0  0  0  0  0  0  0  0  0
   58.8590   29.8430   45.9370 C   0  0  0  0  0  0  0  0  0  0  0  0
   60.0880   30.0110   45.7160 O   0  0  0  0  0  0  0  0  0  0  0  0
   57.9980   30.9830   46.0900 N   0  0  0  0  0  0  0  0  0  0  0  0
   58.4690   32.3510   45.8920 C   0  0  0  0  0  0  0  0  0  0  0  0
   59.6140   32.6420   46.8220 C   0  0  0  0  0  0  0  0  0  0  0  0
   59.5760   32.2190   48.1600 C   0  0  0  0  0  0  0  0  0  0  0  0
   60.6340   32.5150   49.0230 C   0  0  0  0  0  0  0  0  0  0  0  0
   61.7430   33.2450   48.5640 C   0  0  0  0  0  0  0  0  0  0  0  0
   62.8410   33.5360   49.4530 N   0  0  0  0  0  0  0  0  0  0  0  0
   62.6760   34.5010   50.4100 C   0  0  0  0  0  0  0  0  0  0  0  0
   63.7090   34.8080   51.2970 C   0  0  0  0  0  0  0  0  0  0  0  0
   64.9190   34.1230   51.2040 C   0  0  0  0  0  0  0  0  0  0  0  0
   65.0850   33.1470   50.2250 C   0  0  0  0  0  0  0  0  0  0  0  0
   64.0330   32.8620   49.3460 C   0  0  0  0  0  0  0  0  0  0  0  0
   64.2050   31.9910   48.4490 O   0  0  0  0  0  0  0  0  0  0  0  0
   61.7780   33.6700   47.2260 C   0  0  0  0  0  0  0  0  0  0  0  0
   60.7190   33.3750   46.3640 C   0  0  0  0  0  0  0  0  0  0  0  0
   56.9690   28.1710   45.8110 C   0  0  0  0  0  0  0  0  0  0  0  0
   56.1510   29.2220   45.3480 O   0  0  0  0  0  0  0  0  0  0  0  0
   56.0860   29.7330   44.0220 C   0  0  0  0  0  0  0  0  0  0  0  0
   54.4391   24.7802   46.6060 H   0  0  0  0  0  0  0  0  0  0  0  0
   53.6702   25.2754   45.0600 H   0  0  0  0  0  0  0  0  0  0  0  0
   55.3368   24.6052   45.0600 H   0  0  0  0  0  0  0  0  0  0  0  0
   57.0453   24.8108   46.5450 H   0  0  0  0  0  0  0  0  0  0  0  0
   59.4409   25.3460   46.9248 H   0  0  0  0  0  0  0  0  0  0  0  0
   60.2681   27.6709   46.6309 H   0  0  0  0  0  0  0  0  0  0  0  0
   57.0270   30.8470   46.4510 H   0  0  0  0  0  0  0  0  0  0  0  0
   58.8049   32.4733   44.8517 H   0  0  0  0  0  0  0  0  0  0  0  0
   57.6462   33.0497   46.1038 H   0  0  0  0  0  0  0  0  0  0  0  0
   58.7093   31.6520   48.5306 H   0  0  0  0  0  0  0  0  0  0  0  0
   60.5984   32.1744   50.0683 H   0  0  0  0  0  0  0  0  0  0  0  0
   61.7196   35.0399   50.4806 H   0  0  0  0  0  0  0  0  0  0  0  0
   63.5691   35.5845   52.0634 H   0  0  0  0  0  0  0  0  0  0  0  0
   65.7389   34.3522   51.9006 H   0  0  0  0  0  0  0  0  0  0  0  0
   66.0374   32.6028   50.1425 H   0  0  0  0  0  0  0  0  0  0  0  0
   62.6437   34.2381   46.8548 H   0  0  0  0  0  0  0  0  0  0  0  0
   60.7518   33.7195   45.3199 H   0  0  0  0  0  0  0  0  0  0  0  0
   55.9473   30.8237   44.0558 H   0  0  0  0  0  0  0  0  0  0  0  0
   57.0212   29.4986   43.4924 H   0  0  0  0  0  0  0  0  0  0  0  0
   55.2393   29.2719   43.4924 H   0  0  0  0  0  0  0  0  0  0  0  0
  1  2  1  0
  2  3  1  0
  3  4  2  0
  4  5  1  0
  5  6  2  0
  6  7  1  0
  7  8  1  0
  8  9  2  0
  8 10  1  0
 10 11  1  0
 11 12  1  0
 12 13  2  0
 13 14  1  0
 14 15  2  0
 15 16  1  0
 16 17  1  0
 17 18  2  0
 18 19  1  0
 19 20  2  0
 20 21  1  0
 21 22  2  0
 15 23  1  0
 23 24  2  0
  7 25  2  0
 25 26  1  0
 26 27  1  0
 25  3  1  0
 24 12  1  0
 21 16  1  0
  1 28  1  0
  1 29  1  0
  1 30  1  0
  4 31  1  0
  5 32  1  0
  6 33  1  0
 10 34  1  0
 11 35  1  0
 11 36  1  0
 13 37  1  0
 14 38  1  0
 17 39  1  0
 18 40  1  0
 19 41  1  0
 20 42  1  0
 23 43  1  0
 24 44  1  0
 27 45  1  0
 27 46  1  0
 27 47  1  0
M  END
>  <UniqueID>  (43) 
43

>  <SMILES>  (43) 
COc1cccc(C(=O)NCc2ccc(-n3ccccc3=O)cc2)c1OC

>  <Energy>  (43) 
62.58178198702577

>  <Genealogy>  (43) 
COc1cccc(C(=O)NCc2ccc(-n3ccccc3=O)cc2)c1OC (3D coordinates assigned)
COc1cccc(C(=O)NCc2ccc(-n3ccccc3=O)cc2)c1OC (optimized conformer: 62.58178198702577 kcal/mol)

>  <smiles>  (43) 
COc1cccc(C(=O)NCc2ccc(-n3ccccc3=O)cc2)c1OC

>  <score_type>  (43) 
oracle

>  <origin>  (43) 
adg

>  <m_score__min__energy>  (43) 
-7.6699999999999999

>  <m_primary>  (43) 
energy

$$$$
43:0
     RDKit          3D

 45 47  0  0  0  0  0  0  0  0999 V2000
   57.1730   20.4160   46.6620 C   0  0  0  0  0  0  0  0  0  0  0  0
   57.0370   21.5740   47.4760 O   0  0  0  0  0  0  0  0  0  0  0  0
   57.3600   22.8570   47.0260 C   0  0  0  0  0  0  0  0  0  0  0  0
   57.2170   23.9380   47.8380 N   0  0  0  0  0  0  0  0  0  0  0  0
   57.5330   25.1860   47.4080 C   0  0  0  0  0  0  0  0  0  0  0  0
   58.0150   25.3840   46.1050 C   0  0  0  0  0  0  0  0  0  0  0  0
   58.3860   26.7360   45.6160 C   0  0  0  0  0  0  0  0  0  0  0  0
   59.7290   27.1580   45.6240 C   0  0  0  0  0  0  0  0  0  0  0  0
   60.0730   28.4360   45.1770 C   0  0  0  0  0  0  0  0  0  0  0  0
   59.0850   29.3080   44.7170 C   0  0  0  0  0  0  0  0  0  0  0  0
   57.7450   28.9050   44.6970 C   0  0  0  0  0  0  0  0  0  0  0  0
   56.5050   30.0250   44.1350 S   0  0  0  0  0  0  0  0  0  0  0  0
   56.6440   30.1880   42.6480 O   0  0  0  0  0  0  0  0  0  0  0  0
   55.1370   29.4730   44.4250 O   0  0  0  0  0  0  0  0  0  0  0  0
   56.6760   31.5850   44.8910 N   0  0  0  0  0  0  0  0  0  0  0  0
   57.7720   32.3560   44.2980 C   0  0  0  0  0  0  0  0  0  0  0  0
   58.4640   33.2220   45.3270 C   0  0  0  0  0  0  0  0  0  0  0  0
   58.9360   34.4910   44.9490 C   0  0  0  0  0  0  0  0  0  0  0  0
   59.5710   35.3170   45.8760 C   0  0  0  0  0  0  0  0  0  0  0  0
   59.7530   34.8830   47.1890 C   0  0  0  0  0  0  0  0  0  0  0  0
   59.3090   33.6160   47.5760 C   0  0  0  0  0  0  0  0  0  0  0  0
   58.6710   32.7680   46.6500 C   0  0  0  0  0  0  0  0  0  0  0  0
   58.2400   31.4800   47.0080 O   0  0  0  0  0  0  0  0  0  0  0  0
   58.9520   30.5980   47.8700 C   0  0  0  0  0  0  0  0  0  0  0  0
   57.3990   27.6230   45.1470 C   0  0  0  0  0  0  0  0  0  0  0  0
   58.1490   24.2520   45.2860 C   0  0  0  0  0  0  0  0  0  0  0  0
   57.8240   23.0220   45.7600 N   0  0  0  0  0  0  0  0  0  0  0  0
   57.2773   19.5278   47.3025 H   0  0  0  0  0  0  0  0  0  0  0  0
   56.2814   20.3075   46.0269 H   0  0  0  0  0  0  0  0  0  0  0  0
   58.0655   20.5170   46.0269 H   0  0  0  0  0  0  0  0  0  0  0  0
   57.4108   26.0455   48.0835 H   0  0  0  0  0  0  0  0  0  0  0  0
   60.5133   26.4764   45.9849 H   0  0  0  0  0  0  0  0  0  0  0  0
   61.1254   28.7560   45.1876 H   0  0  0  0  0  0  0  0  0  0  0  0
   59.3604   30.3146   44.3693 H   0  0  0  0  0  0  0  0  0  0  0  0
   58.5057   31.6594   43.8662 H   0  0  0  0  0  0  0  0  0  0  0  0
   57.3505   33.0129   43.5229 H   0  0  0  0  0  0  0  0  0  0  0  0
   58.8033   34.8356   43.9128 H   0  0  0  0  0  0  0  0  0  0  0  0
   59.9286   36.3117   45.5714 H   0  0  0  0  0  0  0  0  0  0  0  0
   60.2468   35.5392   47.9209 H   0  0  0  0  0  0  0  0  0  0  0  0
   59.4589   33.2782   48.6120 H   0  0  0  0  0  0  0  0  0  0  0  0
   58.7410   30.8594   48.9175 H   0  0  0  0  0  0  0  0  0  0  0  0
   58.6336   29.5625   47.6792 H   0  0  0  0  0  0  0  0  0  0  0  0
   60.0313   30.6908   47.6792 H   0  0  0  0  0  0  0  0  0  0  0  0
   56.3454   27.3072   45.1334 H   0  0  0  0  0  0  0  0  0  0  0  0
   58.5188   24.3619   44.2559 H   0  0  0  0  0  0  0  0  0  0  0  0
  1  2  1  0
  2  3  1  0
  3  4  2  0
  4  5  1  0
  5  6  2  0
  6  7  1  0
  7  8  2  0
  8  9  1  0
  9 10  2  0
 10 11  1  0
 11 12  1  0
 12 13  2  0
 12 14  2  0
 12 15  1  0
 15 16  1  0
 16 17  1  0
 17 18  2  0
 18 19  1  0
 19 20  2  0
 20 21  1  0
 21 22  2  0
 22 23  1  0
 23 24  1  0
 11 25  2  0
  6 26  1  0
 26 27  2  0
 27  3  1  0
 25  7  1  0
 22 17  1  0
  1 28  1  0
  1 29  1  0
  1 30  1  0
  5 31  1  0
  8 32  1  0
  9 33  1  0
 10 34  1  0
 16 35  1  0
 16 36  1  0
 18 37  1  0
 19 38  1  0
 20 39  1  0
 21 40  1  0
 24 41  1  0
 24 42  1  0
 24 43  1  0
 25 44  1  0
 26 45  1  0
M  CHG  1  15  -1
M  END
>  <UniqueID>  (44) 
44

>  <SMILES>  (44) 
COc1ncc(-c2cccc(S(=O)(=O)[N-]Cc3ccccc3OC)c2)cn1

>  <Energy>  (44) 
47.97579753510251

>  <Genealogy>  (44) 
COc1ncc(-c2cccc(S(=O)(=O)[N-]Cc3ccccc3OC)c2)cn1 (protonated)
COc1ncc(-c2cccc(S(=O)(=O)[N-]Cc3ccccc3OC)c2)cn1 (3D coordinates assigned)
COc1ncc(-c2cccc(S(=O)(=O)[N-]Cc3ccccc3OC)c2)cn1 (optimized conformer: 47.97579753510251 kcal/mol)

>  <smiles>  (44) 
COc1ncc(-c2cccc(S(=O)(=O)NCc3ccccc3OC)c2)cn1

>  <score_type>  (44) 
oracle

>  <origin>  (44) 
adg

>  <m_score__min__energy>  (44) 
-10.050000000000001

>  <m_primary>  (44) 
energy

$$$$
44:0
     RDKit          3D

 66 67  0  0  0  0  0  0  0  0999 V2000
   57.6700   28.4520   53.6260 C   0  0  0  0  0  0  0  0  0  0  0  0
   56.3960   29.1210   53.0900 C   0  0  0  0  0  0  0  0  0  0  0  0
   56.6500   30.1050   52.0130 N   0  0  0  0  0  0  0  0  0  0  0  0
   55.6480   31.1970   51.9750 C   0  0  0  0  0  0  0  0  0  0  0  0
   54.2580   30.6060   51.7720 C   0  0  0  0  0  0  0  0  0  0  0  0
   58.0460   30.5920   52.0060 C   0  0  0  0  0  0  0  0  0  0  0  0
   58.3390   31.2850   50.7460 C   0  0  0  0  0  0  0  0  0  0  0  0
   58.5770   31.8540   49.7110 C   0  0  0  0  0  0  0  0  0  0  0  0
   58.8560   32.5370   48.4800 C   0  0  0  0  0  0  0  0  0  0  0  0
   58.0060   32.6280   47.4040 C   0  0  0  0  0  0  0  0  0  0  0  0
   58.6330   33.3430   46.4520 N   0  0  0  0  0  0  0  0  0  0  0  0
   58.1130   33.7180   45.1310 C   0  0  2  0  0  0  0  0  0  0  0  0
   56.6640   34.2030   45.2770 C   0  0  0  0  0  0  0  0  0  0  0  0
   58.2310   32.5220   44.1400 C   0  0  0  0  0  0  0  0  0  0  0  0
   57.1050   31.4750   44.2620 C   0  0  1  0  0  0  0  0  0  0  0  0
   56.6630   30.8890   42.9160 C   0  0  0  0  0  0  0  0  0  0  0  0
   56.8130   29.4050   43.0990 C   0  0  0  0  0  0  0  0  0  0  0  0
   56.8930   29.2590   44.6110 C   0  0  1  0  0  0  0  0  0  0  0  0
   57.6420   27.9840   45.0720 C   0  0  1  0  0  0  0  0  0  0  0  0
   59.1070   28.2390   45.4590 C   0  0  0  0  0  0  0  0  0  0  0  0
   56.9130   27.3570   46.2300 C   0  0  0  0  0  0  0  0  0  0  0  0
   57.4160   27.4110   47.3860 O   0  0  0  0  0  0  0  0  0  0  0  0
   55.6690   26.6750   46.0050 N   0  0  0  0  0  0  0  0  0  0  0  0
   55.4690   25.2250   45.9820 C   0  0  0  0  0  0  0  0  0  0  0  0
   54.0220   24.8740   45.6210 C   0  0  0  0  0  0  0  0  0  0  0  0
   56.4720   24.5420   45.0460 C   0  0  0  0  0  0  0  0  0  0  0  0
   57.4930   30.4250   45.1230 O   0  0  0  0  0  0  0  0  0  0  0  0
   59.8320   33.6740   46.9760 C   0  0  0  0  0  0  0  0  0  0  0  0
   60.0070   33.1900   48.2250 N   0  0  0  0  0  0  0  0  0  0  0  0
   57.6537   28.4606   54.7258 H   0  0  0  0  0  0  0  0  0  0  0  0
   57.7169   27.4129   53.2681 H   0  0  0  0  0  0  0  0  0  0  0  0
   58.5520   29.0033   53.2681 H   0  0  0  0  0  0  0  0  0  0  0  0
   55.7318   28.3379   52.6957 H   0  0  0  0  0  0  0  0  0  0  0  0
   55.9437   29.6708   53.9285 H   0  0  0  0  0  0  0  0  0  0  0  0
   55.6750   31.7523   52.9242 H   0  0  0  0  0  0  0  0  0  0  0  0
   55.8809   31.8788   51.1438 H   0  0  0  0  0  0  0  0  0  0  0  0
   53.7964   30.4098   52.7510 H   0  0  0  0  0  0  0  0  0  0  0  0
   53.6357   31.3174   51.2092 H   0  0  0  0  0  0  0  0  0  0  0  0
   54.3386   29.6643   51.2092 H   0  0  0  0  0  0  0  0  0  0  0  0
   58.1913   31.2883   52.8451 H   0  0  0  0  0  0  0  0  0  0  0  0
   58.7247   29.7322   52.1069 H   0  0  0  0  0  0  0  0  0  0  0  0
   56.9971   32.1953   47.3338 H   0  0  0  0  0  0  0  0  0  0  0  0
   58.7114   34.5412   44.7136 H   0  0  0  0  0  0  0  0  0  0  0  0
   56.4114   34.2875   46.3443 H   0  0  0  0  0  0  0  0  0  0  0  0
   56.5562   35.1862   44.7957 H   0  0  0  0  0  0  0  0  0  0  0  0
   55.9860   33.4828   44.7957 H   0  0  0  0  0  0  0  0  0  0  0  0
   58.2179   32.9224   43.1156 H   0  0  0  0  0  0  0  0  0  0  0  0
   59.1685   32.0026   44.3877 H   0  0  0  0  0  0  0  0  0  0  0  0
   56.2419   32.0134   44.6805 H   0  0  0  0  0  0  0  0  0  0  0  0
   55.6173   31.1525   42.6993 H   0  0  0  0  0  0  0  0  0  0  0  0
   57.2545   31.2735   42.0720 H   0  0  0  0  0  0  0  0  0  0  0  0
   55.9438   28.8659   42.6942 H   0  0  0  0  0  0  0  0  0  0  0  0
   57.6847   28.9871   42.5741 H   0  0  0  0  0  0  0  0  0  0  0  0
   55.8737   29.1388   45.0066 H   0  0  0  0  0  0  0  0  0  0  0  0
   57.6592   27.3015   44.2095 H   0  0  0  0  0  0  0  0  0  0  0  0
   59.1993   28.2551   46.5550 H   0  0  0  0  0  0  0  0  0  0  0  0
   59.7393   27.4374   45.0495 H   0  0  0  0  0  0  0  0  0  0  0  0
   59.4312   29.2071   45.0495 H   0  0  0  0  0  0  0  0  0  0  0  0
   55.6561   24.8399   46.9953 H   0  0  0  0  0  0  0  0  0  0  0  0
   53.4382   24.7324   46.5425 H   0  0  0  0  0  0  0  0  0  0  0  0
   53.5827   25.6916   45.0307 H   0  0  0  0  0  0  0  0  0  0  0  0
   54.0062   23.9460   45.0307 H   0  0  0  0  0  0  0  0  0  0  0  0
   57.2355   24.0221   45.6432 H   0  0  0  0  0  0  0  0  0  0  0  0
   55.9447   23.8145   44.4115 H   0  0  0  0  0  0  0  0  0  0  0  0
   56.9557   25.2992   44.4115 H   0  0  0  0  0  0  0  0  0  0  0  0
   60.5853   34.2732   46.4435 H   0  0  0  0  0  0  0  0  0  0  0  0
  1  2  1  0
  2  3  1  0
  3  4  1  0
  4  5  1  0
  3  6  1  0
  6  7  1  0
  7  8  3  0
  8  9  1  0
  9 10  2  0
 10 11  1  0
 11 12  1  0
 12 13  1  0
 12 14  1  0
 14 15  1  0
 15 16  1  0
 16 17  1  0
 17 18  1  0
 18 19  1  0
 19 20  1  0
 19 21  1  0
 21 22  2  0
 21 23  1  0
 23 24  1  0
 24 25  1  0
 24 26  1  0
 18 27  1  0
 11 28  1  0
 28 29  2  0
 29  9  1  0
 27 15  1  0
  1 30  1  0
  1 31  1  0
  1 32  1  0
  2 33  1  0
  2 34  1  0
  4 35  1  0
  4 36  1  0
  5 37  1  0
  5 38  1  0
  5 39  1  0
  6 40  1  0
  6 41  1  0
 10 42  1  0
 12 43  1  6
 13 44  1  0
 13 45  1  0
 13 46  1  0
 14 47  1  0
 14 48  1  0
 15 49  1  1
 16 50  1  0
 16 51  1  0
 17 52  1  0
 17 53  1  0
 18 54  1  1
 19 55  1  6
 20 56  1  0
 20 57  1  0
 20 58  1  0
 24 59  1  0
 25 60  1  0
 25 61  1  0
 25 62  1  0
 26 63  1  0
 26 64  1  0
 26 65  1  0
 28 66  1  0
M  CHG  1  23  -1
M  END
>  <UniqueID>  (45) 
45

>  <SMILES>  (45) 
CCN(CC)CC#Cc1cn([C@H](C)C[C@H]2CCC(C(C)C(=O)[N-]C(C)C)O2)cn1

>  <Energy>  (45) 
81.37107344038984

>  <Genealogy>  (45) 
CCN(CC)CC#Cc1cn(C(C)CC2CCC(C(C)C(=O)[N-]C(C)C)O2)cn1 (protonated)
CCN(CC)CC#Cc1cn([C@H](C)C[C@H]2CCC(C(C)C(=O)[N-]C(C)C)O2)cn1 (chirality)
CCN(CC)CC#Cc1cn([C@H](C)C[C@H]2CCC(C(C)C(=O)[N-]C(C)C)O2)cn1 (3D coordinates assigned)
CCN(CC)CC#Cc1cn([C@H](C)C[C@H]2CCC(C(C)C(=O)[N-]C(C)C)O2)cn1 (nonaromatic ring conformer: 81.37107344038984 kcal/mol)

>  <smiles>  (45) 
CCN(CC)CC#Cc1cn(C(C)CC2CCC(C(C)C(=O)NC(C)C)O2)cn1

>  <score_type>  (45) 
oracle

>  <origin>  (45) 
adg

>  <m_score__min__energy>  (45) 
-10.02

>  <m_primary>  (45) 
energy

$$$$
45:0
     RDKit          3D

 58 62  0  0  0  0  0  0  0  0999 V2000
   57.8600   26.0900   45.5580 C   0  0  0  0  0  0  0  0  0  0  0  0
   57.1430   27.1580   44.8740 N   0  0  0  0  0  0  0  0  0  0  0  0
   57.7450   27.9080   43.8090 C   0  0  0  0  0  0  0  0  0  0  0  0
   58.8770   27.5800   43.3630 O   0  0  0  0  0  0  0  0  0  0  0  0
   57.0420   29.1010   43.2350 C   0  0  0  0  0  0  0  0  0  0  0  0
   56.2660   29.8370   44.2950 C   0  0  0  0  0  0  0  0  0  0  0  0
   55.1970   29.3330   44.7290 O   0  0  0  0  0  0  0  0  0  0  0  0
   56.7260   31.0710   44.8600 N   0  0  0  0  0  0  0  0  0  0  0  0
   57.8070   31.2040   45.7880 C   0  0  0  0  0  0  0  0  0  0  0  0
   58.4810   30.0430   46.2340 C   0  0  0  0  0  0  0  0  0  0  0  0
   59.5620   30.1400   47.1270 C   0  0  0  0  0  0  0  0  0  0  0  0
   59.9280   31.4090   47.5720 C   0  0  0  0  0  0  0  0  0  0  0  0
   60.9240   31.7220   48.4150 N   0  0  0  0  0  0  0  0  0  0  0  0
   60.8720   33.0670   48.5570 C   0  0  0  0  0  0  0  0  0  0  0  0
   61.7890   33.8350   49.4140 C   0  0  0  0  0  0  0  0  0  0  0  0
   62.2660   34.9250   49.0010 O   0  0  0  0  0  0  0  0  0  0  0  0
   62.1560   33.3460   50.7140 N   0  0  0  0  0  0  0  0  0  0  0  0
   61.1830   33.4460   51.7970 C   0  0  0  0  0  0  0  0  0  0  0  0
   60.3110   32.2360   51.7410 C   0  0  0  0  0  0  0  0  0  0  0  0
   58.9590   32.3430   51.3740 C   0  0  0  0  0  0  0  0  0  0  0  0
   58.1650   31.1980   51.2770 C   0  0  0  0  0  0  0  0  0  0  0  0
   58.7130   29.9430   51.5490 C   0  0  0  0  0  0  0  0  0  0  0  0
   60.0580   29.8300   51.9060 C   0  0  0  0  0  0  0  0  0  0  0  0
   60.8750   30.9710   51.9760 C   0  0  0  0  0  0  0  0  0  0  0  0
   62.2490   30.8230   52.3720 N   0  0  0  0  0  0  0  0  0  0  0  0
   63.3980   31.3910   51.7020 C   0  0  0  0  0  0  0  0  0  0  0  0
   64.6340   30.7390   51.8740 C   0  0  0  0  0  0  0  0  0  0  0  0
   65.7890   31.1920   51.2340 C   0  0  0  0  0  0  0  0  0  0  0  0
   65.7390   32.3150   50.4070 C   0  0  0  0  0  0  0  0  0  0  0  0
   66.9230   32.7810   49.7560 N   0  0  0  0  0  0  0  0  0  0  0  0
   64.5260   32.9870   50.2320 C   0  0  0  0  0  0  0  0  0  0  0  0
   63.3490   32.5510   50.8700 C   0  0  0  0  0  0  0  0  0  0  0  0
   59.8340   33.6120   47.8020 C   0  0  0  0  0  0  0  0  0  0  0  0
   59.2530   32.5330   47.1730 C   0  0  0  0  0  0  0  0  0  0  0  0
   58.1840   32.4710   46.2820 C   0  0  0  0  0  0  0  0  0  0  0  0
   57.7691   26.2255   46.6458 H   0  0  0  0  0  0  0  0  0  0  0  0
   57.4305   25.1185   45.2723 H   0  0  0  0  0  0  0  0  0  0  0  0
   58.9218   26.1197   45.2723 H   0  0  0  0  0  0  0  0  0  0  0  0
   56.1830   27.4100   45.2010 H   0  0  0  0  0  0  0  0  0  0  0  0
   57.7879   29.7816   42.7986 H   0  0  0  0  0  0  0  0  0  0  0  0
   56.3373   28.7534   42.4652 H   0  0  0  0  0  0  0  0  0  0  0  0
   58.1558   29.0542   45.8783 H   0  0  0  0  0  0  0  0  0  0  0  0
   60.1020   29.2429   47.4640 H   0  0  0  0  0  0  0  0  0  0  0  0
   61.5900   31.0610   48.8740 H   0  0  0  0  0  0  0  0  0  0  0  0
   61.7037   33.4873   52.7651 H   0  0  0  0  0  0  0  0  0  0  0  0
   60.5798   34.3594   51.6880 H   0  0  0  0  0  0  0  0  0  0  0  0
   58.5246   33.3312   51.1625 H   0  0  0  0  0  0  0  0  0  0  0  0
   57.1077   31.2850   50.9862 H   0  0  0  0  0  0  0  0  0  0  0  0
   58.0846   29.0426   51.4820 H   0  0  0  0  0  0  0  0  0  0  0  0
   60.4811   28.8406   52.1341 H   0  0  0  0  0  0  0  0  0  0  0  0
   62.4370   30.0670   53.0690 H   0  0  0  0  0  0  0  0  0  0  0  0
   64.6907   29.8548   52.5259 H   0  0  0  0  0  0  0  0  0  0  0  0
   66.7415   30.6621   51.3820 H   0  0  0  0  0  0  0  0  0  0  0  0
   66.9940   32.7860   48.7140 H   0  0  0  0  0  0  0  0  0  0  0  0
   67.7370   33.1290   50.3120 H   0  0  0  0  0  0  0  0  0  0  0  0
   64.4902   33.8743   49.5828 H   0  0  0  0  0  0  0  0  0  0  0  0
   59.5433   34.6701   47.7256 H   0  0  0  0  0  0  0  0  0  0  0  0
   57.6501   33.3817   45.9730 H   0  0  0  0  0  0  0  0  0  0  0  0
  1  2  1  0
  2  3  1  0
  3  4  2  0
  3  5  1  0
  5  6  1  0
  6  7  2  0
  6  8  1  0
  8  9  1  0
  9 10  2  0
 10 11  1  0
 11 12  2  0
 12 13  1  0
 13 14  1  0
 14 15  1  0
 15 16  2  0
 15 17  1  0
 17 18  1  0
 18 19  1  0
 19 20  2  0
 20 21  1  0
 21 22  2  0
 22 23  1  0
 23 24  2  0
 24 25  1  0
 25 26  1  0
 26 27  2  0
 27 28  1  0
 28 29  2  0
 29 30  1  0
 29 31  1  0
 31 32  2  0
 14 33  2  0
 33 34  1  0
 34 35  2  0
 35  9  1  0
 34 12  1  0
 32 17  1  0
 24 19  1  0
 32 26  1  0
  1 36  1  0
  1 37  1  0
  1 38  1  0
  2 39  1  0
  5 40  1  0
  5 41  1  0
 10 42  1  0
 11 43  1  0
 13 44  1  0
 18 45  1  0
 18 46  1  0
 20 47  1  0
 21 48  1  0
 22 49  1  0
 23 50  1  0
 25 51  1  0
 27 52  1  0
 28 53  1  0
 30 54  1  0
 30 55  1  0
 31 56  1  0
 33 57  1  0
 35 58  1  0
M  CHG  1   8  -1
M  END
>  <UniqueID>  (46) 
46

>  <SMILES>  (46) 
CNC(=O)CC(=O)[N-]c1ccc2[nH]c(C(=O)N3Cc4ccccc4Nc4ccc(N)cc43)cc2c1

>  <Energy>  (46) 
114.7043401105971

>  <Genealogy>  (46) 
CNC(=O)CC(=O)[N-]c1ccc2[nH]c(C(=O)N3Cc4ccccc4Nc4ccc(N)cc43)cc2c1 (protonated)
CNC(=O)CC(=O)[N-]c1ccc2[nH]c(C(=O)N3Cc4ccccc4Nc4ccc(N)cc43)cc2c1 (3D coordinates assigned)
CNC(=O)CC(=O)[N-]c1ccc2[nH]c(C(=O)N3Cc4ccccc4Nc4ccc(N)cc43)cc2c1 (nonaromatic ring conformer: 114.7043401105971 kcal/mol)

>  <smiles>  (46) 
CNC(=O)CC(=O)Nc1ccc2[nH]c(C(=O)N3Cc4ccccc4Nc4ccc(N)cc43)cc2c1

>  <score_type>  (46) 
oracle

>  <origin>  (46) 
adg

>  <m_score__min__energy>  (46) 
-11

>  <m_primary>  (46) 
energy

$$$$
46:0
     RDKit          3D

 62 65  0  0  0  0  0  0  0  0999 V2000
   56.9440   29.4070   45.0180 C   0  0  0  0  0  0  0  0  0  0  0  0
   56.0790   30.4500   43.8020 S   0  0  0  0  0  0  0  0  0  0  0  0
   57.0210   31.9200   44.2130 C   0  0  0  0  0  0  0  0  0  0  0  0
   58.1270   32.2830   43.4360 C   0  0  0  0  0  0  0  0  0  0  0  0
   58.8570   33.4330   43.7490 C   0  0  0  0  0  0  0  0  0  0  0  0
   58.4940   34.2240   44.8510 C   0  0  0  0  0  0  0  0  0  0  0  0
   59.2570   35.4820   45.1700 C   0  0  0  0  0  0  0  0  0  0  0  0
   60.1120   35.2900   46.4270 C   0  0  0  0  0  0  0  0  0  0  0  0
   60.3100   33.8680   46.7010 N   0  0  0  0  0  0  0  0  0  0  0  0
   59.4970   33.1390   47.6350 C   0  0  0  0  0  0  0  0  0  0  0  0
   58.5030   33.7000   48.1720 O   0  0  0  0  0  0  0  0  0  0  0  0
   59.7970   31.7260   47.9660 C   0  0  0  0  0  0  0  0  0  0  0  0
   59.9720   30.7600   46.9410 C   0  0  0  0  0  0  0  0  0  0  0  0
   60.2530   29.4210   47.2530 C   0  0  0  0  0  0  0  0  0  0  0  0
   60.3610   29.0620   48.6000 C   0  0  0  0  0  0  0  0  0  0  0  0
   60.1990   29.9940   49.5970 C   0  0  0  0  0  0  0  0  0  0  0  0
   59.9230   31.3340   49.3160 C   0  0  0  0  0  0  0  0  0  0  0  0
   60.3320   29.3300   50.8030 C   0  0  0  0  0  0  0  0  0  0  0  0
   60.2060   29.9040   52.1820 C   0  0  0  0  0  0  0  0  0  0  0  0
   60.5930   27.9990   50.4740 C   0  0  0  0  0  0  0  0  0  0  0  0
   60.7280   26.8770   51.4640 C   0  0  0  0  0  0  0  0  0  0  0  0
   60.6050   27.8380   49.1220 N   0  0  0  0  0  0  0  0  0  0  0  0
   60.7430   26.5710   48.3930 C   0  0  0  0  0  0  0  0  0  0  0  0
   59.7660   26.5130   47.2480 C   0  0  0  0  0  0  0  0  0  0  0  0
   60.1720   26.8540   45.9490 C   0  0  0  0  0  0  0  0  0  0  0  0
   59.2690   26.7800   44.8880 C   0  0  0  0  0  0  0  0  0  0  0  0
   57.9550   26.3600   45.1100 C   0  0  0  0  0  0  0  0  0  0  0  0
   57.5270   26.0150   46.4040 C   0  0  0  0  0  0  0  0  0  0  0  0
   56.1340   25.5700   46.6460 C   0  0  0  0  0  0  0  0  0  0  0  0
   55.0330   26.3590   46.1980 N   0  0  0  0  0  0  0  0  0  0  0  0
   55.9070   24.4860   47.2500 O   0  0  0  0  0  0  0  0  0  0  0  0
   58.4430   26.0990   47.4700 C   0  0  0  0  0  0  0  0  0  0  0  0
   57.3750   33.8630   45.6190 C   0  0  0  0  0  0  0  0  0  0  0  0
   56.6420   32.7150   45.3000 C   0  0  0  0  0  0  0  0  0  0  0  0
   56.6760   29.7301   46.0348 H   0  0  0  0  0  0  0  0  0  0  0  0
   56.6480   28.3570   44.8770 H   0  0  0  0  0  0  0  0  0  0  0  0
   58.0306   29.5037   44.8770 H   0  0  0  0  0  0  0  0  0  0  0  0
   58.4223   31.6621   42.5774 H   0  0  0  0  0  0  0  0  0  0  0  0
   59.7195   33.7197   43.1295 H   0  0  0  0  0  0  0  0  0  0  0  0
   59.9117   35.7325   44.3223 H   0  0  0  0  0  0  0  0  0  0  0  0
   58.5394   36.2960   45.3501 H   0  0  0  0  0  0  0  0  0  0  0  0
   61.0906   35.7688   46.2754 H   0  0  0  0  0  0  0  0  0  0  0  0
   59.5935   35.7476   47.2824 H   0  0  0  0  0  0  0  0  0  0  0  0
   61.0720   33.3770   46.1830 H   0  0  0  0  0  0  0  0  0  0  0  0
   59.8862   31.0651   45.8876 H   0  0  0  0  0  0  0  0  0  0  0  0
   60.3850   28.6726   46.4577 H   0  0  0  0  0  0  0  0  0  0  0  0
   59.8065   32.0668   50.1280 H   0  0  0  0  0  0  0  0  0  0  0  0
   60.3797   29.1125   52.9259 H   0  0  0  0  0  0  0  0  0  0  0  0
   60.9502   30.7029   52.3160 H   0  0  0  0  0  0  0  0  0  0  0  0
   59.1956   30.3178   52.3160 H   0  0  0  0  0  0  0  0  0  0  0  0
   60.6793   27.2817   52.4857 H   0  0  0  0  0  0  0  0  0  0  0  0
   59.9101   26.1566   51.3156 H   0  0  0  0  0  0  0  0  0  0  0  0
   61.6935   26.3712   51.3156 H   0  0  0  0  0  0  0  0  0  0  0  0
   61.7670   26.4891   47.9998 H   0  0  0  0  0  0  0  0  0  0  0  0
   60.5341   25.7392   49.0819 H   0  0  0  0  0  0  0  0  0  0  0  0
   61.2063   27.1810   45.7664 H   0  0  0  0  0  0  0  0  0  0  0  0
   59.5928   27.0533   43.8729 H   0  0  0  0  0  0  0  0  0  0  0  0
   57.2510   26.2989   44.2670 H   0  0  0  0  0  0  0  0  0  0  0  0
   55.1400   27.3850   46.0350 H   0  0  0  0  0  0  0  0  0  0  0  0
   58.1185   25.8374   48.4880 H   0  0  0  0  0  0  0  0  0  0  0  0
   57.0738   34.4853   46.4746 H   0  0  0  0  0  0  0  0  0  0  0  0
   55.7663   32.4369   45.9048 H   0  0  0  0  0  0  0  0  0  0  0  0
  1  2  1  0
  2  3  1  0
  3  4  2  0
  4  5  1  0
  5  6  2  0
  6  7  1  0
  7  8  1  0
  8  9  1  0
  9 10  1  0
 10 11  2  0
 10 12  1  0
 12 13  2  0
 13 14  1  0
 14 15  2  0
 15 16  1  0
 16 17  2  0
 16 18  1  0
 18 19  1  0
 18 20  2  0
 20 21  1  0
 20 22  1  0
 22 23  1  0
 23 24  1  0
 24 25  2  0
 25 26  1  0
 26 27  2  0
 27 28  1  0
 28 29  1  0
 29 30  1  0
 29 31  2  0
 28 32  2  0
  6 33  1  0
 33 34  2  0
 34  3  1  0
 17 12  1  0
 32 24  1  0
 22 15  1  0
  1 35  1  0
  1 36  1  0
  1 37  1  0
  4 38  1  0
  5 39  1  0
  7 40  1  0
  7 41  1  0
  8 42  1  0
  8 43  1  0
  9 44  1  0
 13 45  1  0
 14 46  1  0
 17 47  1  0
 19 48  1  0
 19 49  1  0
 19 50  1  0
 21 51  1  0
 21 52  1  0
 21 53  1  0
 23 54  1  0
 23 55  1  0
 25 56  1  0
 26 57  1  0
 27 58  1  0
 30 59  1  0
 32 60  1  0
 33 61  1  0
 34 62  1  0
M  CHG  1  30  -1
M  END
>  <UniqueID>  (47) 
47

>  <SMILES>  (47) 
CSc1ccc(CCNC(=O)c2ccc3c(c2)c(C)c(C)n3Cc2cccc(C([NH-])=O)c2)cc1

>  <Energy>  (47) 
91.62337177158072

>  <Genealogy>  (47) 
CSc1ccc(CCNC(=O)c2ccc3c(c2)c(C)c(C)n3Cc2cccc(C([NH-])=O)c2)cc1 (protonated)
CSc1ccc(CCNC(=O)c2ccc3c(c2)c(C)c(C)n3Cc2cccc(C([NH-])=O)c2)cc1 (3D coordinates assigned)
CSc1ccc(CCNC(=O)c2ccc3c(c2)c(C)c(C)n3Cc2cccc(C([NH-])=O)c2)cc1 (optimized conformer: 91.62337177158072 kcal/mol)

>  <smiles>  (47) 
CSc1ccc(CCNC(=O)c2ccc3c(c2)c(C)c(C)n3Cc2cccc(C(N)=O)c2)cc1

>  <score_type>  (47) 
oracle

>  <origin>  (47) 
adg

>  <m_score__min__energy>  (47) 
-13.08

>  <m_primary>  (47) 
energy

$$$$
47:0
     RDKit          3D

 26 27  0  0  0  0  0  0  0  0999 V2000
   54.7380   27.0870   46.7180 H   0  0  0  0  0  0  0  0  0  0  0  0
   55.1680   26.4360   46.0230 N   0  0  0  0  0  0  0  0  0  0  0  0
   56.8590   26.7870   45.9830 S   0  0  0  0  0  0  0  0  0  0  0  0
   57.5800   25.7040   45.2300 O   0  0  0  0  0  0  0  0  0  0  0  0
   57.3920   26.8330   47.3880 O   0  0  0  0  0  0  0  0  0  0  0  0
   57.1210   28.3380   45.1940 C   0  0  0  0  0  0  0  0  0  0  0  0
   56.0310   29.1070   44.7680 C   0  0  0  0  0  0  0  0  0  0  0  0
   55.0062   28.7447   44.9369 H   0  0  0  0  0  0  0  0  0  0  0  0
   56.2390   30.3330   44.1290 C   0  0  0  0  0  0  0  0  0  0  0  0
   55.3759   30.9309   43.8012 H   0  0  0  0  0  0  0  0  0  0  0  0
   57.5440   30.8080   43.9020 C   0  0  0  0  0  0  0  0  0  0  0  0
   57.7650   32.1080   43.2250 C   0  0  0  0  0  0  0  0  0  0  0  0
   57.9640   32.1360   41.9790 O   0  0  0  0  0  0  0  0  0  0  0  0
   57.7500   33.3240   43.9930 N   0  0  0  0  0  0  0  0  0  0  0  0
   58.0440   33.4750   45.2530 C   0  0  0  0  0  0  0  0  0  0  0  0
   59.1980   34.5200   45.9060 S   0  0  0  0  0  0  0  0  0  0  0  0
   58.8860   34.0480   47.4930 C   0  0  0  0  0  0  0  0  0  0  0  0
   59.3873   34.4348   48.3925 H   0  0  0  0  0  0  0  0  0  0  0  0
   57.8840   33.0840   47.4670 C   0  0  0  0  0  0  0  0  0  0  0  0
   57.4934   32.6101   48.3796 H   0  0  0  0  0  0  0  0  0  0  0  0
   57.4250   32.7730   46.2260 N   0  0  0  0  0  0  0  0  0  0  0  0
   56.6750   32.0680   46.0500 H   0  0  0  0  0  0  0  0  0  0  0  0
   58.6340   30.0260   44.3260 C   0  0  0  0  0  0  0  0  0  0  0  0
   59.6605   30.3821   44.1542 H   0  0  0  0  0  0  0  0  0  0  0  0
   58.4230   28.8000   44.9640 C   0  0  0  0  0  0  0  0  0  0  0  0
   59.2835   28.1955   45.2868 H   0  0  0  0  0  0  0  0  0  0  0  0
  1  2  1  0
  2  3  1  0
  3  4  2  0
  3  5  2  0
  3  6  1  0
  6  7  2  0
  7  8  1  0
  7  9  1  0
  9 10  1  0
  9 11  2  0
 11 12  1  0
 12 13  2  0
 12 14  1  0
 14 15  2  0
 15 16  1  0
 16 17  1  0
 17 18  1  0
 17 19  2  0
 19 20  1  0
 19 21  1  0
 21 22  1  0
 11 23  1  0
 23 24  1  0
 23 25  2  0
 25 26  1  0
 25  6  1  0
 21 15  1  0
M  CHG  1   2  -1
M  END
>  <UniqueID>  (48) 
48

>  <SMILES>  (48) 
[NH-]S(=O)(=O)c1ccc(C(=O)/N=c2/[nH]ccs2)cc1

>  <Energy>  (48) 
60.44469274324919

>  <Genealogy>  (48) 
[NH-]S(=O)(=O)c1ccc(C(=O)N=c2[nH]ccs2)cc1 (protonated)
[NH-]S(=O)(=O)c1ccc(C(=O)/N=c2/[nH]ccs2)cc1 (cis-trans isomerization)
[NH-]S(=O)(=O)c1ccc(C(=O)/N=c2/[nH]ccs2)cc1 (3D coordinates assigned)
[NH-]S(=O)(=O)c1ccc(C(=O)/N=c2/[nH]ccs2)cc1 (optimized conformer: 60.44469274324919 kcal/mol)

>  <smiles>  (48) 
NS(=O)(=O)c1ccc(C(=O)N=c2[nH]ccs2)cc1

>  <score_type>  (48) 
oracle

>  <origin>  (48) 
adg

>  <m_score__min__energy>  (48) 
-9.8499999999999996

>  <m_primary>  (48) 
energy

$$$$
48:0
     RDKit          3D

 41 43  0  0  0  0  0  0  0  0999 V2000
   57.7680   27.4440   44.5070 C   0  0  0  0  0  0  0  0  0  0  0  0
   57.6000   28.9330   44.4870 C   0  0  0  0  0  0  0  0  0  0  0  0
   58.7170   29.7770   44.5300 C   0  0  0  0  0  0  0  0  0  0  0  0
   58.5480   31.1620   44.5480 C   0  0  0  0  0  0  0  0  0  0  0  0
   57.2480   31.7010   44.5370 C   0  0  0  0  0  0  0  0  0  0  0  0
   57.0100   33.0830   44.5520 O   0  0  0  0  0  0  0  0  0  0  0  0
   57.3410   33.9470   45.6380 C   0  0  0  0  0  0  0  0  0  0  0  0
   58.7010   34.5450   45.4800 C   0  0  0  0  0  0  0  0  0  0  0  0
   59.3200   33.8250   46.6090 N   0  0  0  0  0  0  0  0  0  0  0  0
   60.6000   33.7480   47.2380 C   0  0  0  0  0  0  0  0  0  0  0  0
   60.7180   33.9380   48.6200 C   0  0  0  0  0  0  0  0  0  0  0  0
   61.9700   33.8640   49.2380 C   0  0  0  0  0  0  0  0  0  0  0  0
   63.1240   33.5950   48.4740 C   0  0  0  0  0  0  0  0  0  0  0  0
   64.4110   33.5110   49.0340 O   0  0  0  0  0  0  0  0  0  0  0  0
   64.9430   32.3960   49.7510 C   0  0  0  0  0  0  0  0  0  0  0  0
   66.1520   32.8080   50.5910 C   0  0  0  0  0  0  0  0  0  0  0  0
   66.5150   31.7690   51.4300 F   0  0  0  0  0  0  0  0  0  0  0  0
   67.2140   33.1020   49.7560 F   0  0  0  0  0  0  0  0  0  0  0  0
   65.8590   33.9220   51.3530 F   0  0  0  0  0  0  0  0  0  0  0  0
   62.9960   33.4120   47.0910 C   0  0  0  0  0  0  0  0  0  0  0  0
   61.7440   33.4870   46.4750 C   0  0  0  0  0  0  0  0  0  0  0  0
   57.9830   33.2250   46.7800 C   0  0  0  0  0  0  0  0  0  0  0  0
   56.1800   30.8600   44.5130 N   0  0  0  0  0  0  0  0  0  0  0  0
   56.3220   29.5070   44.4950 C   0  0  0  0  0  0  0  0  0  0  0  0
   57.8076   27.0934   45.5489 H   0  0  0  0  0  0  0  0  0  0  0  0
   56.9174   26.9721   43.9934 H   0  0  0  0  0  0  0  0  0  0  0  0
   58.7024   27.1735   43.9934 H   0  0  0  0  0  0  0  0  0  0  0  0
   59.7294   29.3472   44.5496 H   0  0  0  0  0  0  0  0  0  0  0  0
   59.4238   31.8272   44.5706 H   0  0  0  0  0  0  0  0  0  0  0  0
   56.4096   34.5257   45.7251 H   0  0  0  0  0  0  0  0  0  0  0  0
   59.1641   34.2975   44.5134 H   0  0  0  0  0  0  0  0  0  0  0  0
   58.7697   35.6428   45.4876 H   0  0  0  0  0  0  0  0  0  0  0  0
   59.8216   34.1465   49.2225 H   0  0  0  0  0  0  0  0  0  0  0  0
   62.0549   34.0162   50.3241 H   0  0  0  0  0  0  0  0  0  0  0  0
   64.1650   31.9917   50.4153 H   0  0  0  0  0  0  0  0  0  0  0  0
   65.2650   31.6351   49.0248 H   0  0  0  0  0  0  0  0  0  0  0  0
   63.8901   33.2072   46.4839 H   0  0  0  0  0  0  0  0  0  0  0  0
   61.6573   33.3406   45.3882 H   0  0  0  0  0  0  0  0  0  0  0  0
   57.9865   32.1334   46.6446 H   0  0  0  0  0  0  0  0  0  0  0  0
   57.5098   33.3266   47.7678 H   0  0  0  0  0  0  0  0  0  0  0  0
   55.4310   28.8620   44.4867 H   0  0  0  0  0  0  0  0  0  0  0  0
  1  2  1  0
  2  3  2  0
  3  4  1  0
  4  5  2  0
  5  6  1  0
  6  7  1  0
  7  8  1  0
  8  9  1  0
  9 10  1  0
 10 11  2  0
 11 12  1  0
 12 13  2  0
 13 14  1  0
 14 15  1  0
 15 16  1  0
 16 17  1  0
 16 18  1  0
 16 19  1  0
 13 20  1  0
 20 21  2  0
  9 22  1  0
  5 23  1  0
 23 24  2  0
 24  2  1  0
 22  7  1  0
 21 10  1  0
  1 25  1  0
  1 26  1  0
  1 27  1  0
  3 28  1  0
  4 29  1  0
  7 30  1  0
  8 31  1  0
  8 32  1  0
 11 33  1  0
 12 34  1  0
 15 35  1  0
 15 36  1  0
 20 37  1  0
 21 38  1  0
 22 39  1  0
 22 40  1  0
 24 41  1  0
M  END
>  <UniqueID>  (49) 
49

>  <SMILES>  (49) 
Cc1ccc(OC2CN(c3ccc(OCC(F)(F)F)cc3)C2)nc1

>  <Energy>  (49) 
85.10774734623728

>  <Genealogy>  (49) 
Cc1ccc(OC2CN(c3ccc(OCC(F)(F)F)cc3)C2)nc1 (3D coordinates assigned)
Cc1ccc(OC2CN(c3ccc(OCC(F)(F)F)cc3)C2)nc1 (nonaromatic ring conformer: 85.10774734623728 kcal/mol)

>  <smiles>  (49) 
Cc1ccc(OC2CN(c3ccc(OCC(F)(F)F)cc3)C2)nc1

>  <score_type>  (49) 
oracle

>  <origin>  (49) 
adg

>  <m_score__min__energy>  (49) 
-6.5999999999999996

>  <m_primary>  (49) 
energy

$$$$
49:0
     RDKit          3D

 25 26  0  0  0  0  0  0  0  0999 V2000
   57.4314   27.0152   43.5771 H   0  0  0  0  0  0  0  0  0  0  0  0
   57.5050   27.2000   44.6590 C   0  0  0  0  0  0  0  0  0  0  0  0
   57.0180   29.5100   45.4420 C   0  0  0  0  0  0  0  0  0  0  0  0
   56.3103   29.3392   46.2666 H   0  0  0  0  0  0  0  0  0  0  0  0
   57.1320   26.1000   45.5670 C   0  0  0  0  0  0  0  0  0  0  0  0
   58.2170   24.9560   46.1570 S   0  0  0  0  0  0  0  0  0  0  0  0
   57.0560   24.2280   47.1290 C   0  0  0  0  0  0  0  0  0  0  0  0
   57.2710   23.2290   47.8630 O   0  0  0  0  0  0  0  0  0  0  0  0
   55.8560   24.8400   47.0510 N   0  0  0  0  0  0  0  0  0  0  0  0
   55.9000   25.8920   46.1920 C   0  0  0  0  0  0  0  0  0  0  0  0
   54.7960   26.7130   45.9970 O   0  0  0  0  0  0  0  0  0  0  0  0
   57.9270   28.4080   45.0550 C   0  0  0  0  0  0  0  0  0  0  0  0
   59.0109   28.5914   45.0948 H   0  0  0  0  0  0  0  0  0  0  0  0
   57.0150   30.6720   44.8540 N   0  0  0  0  0  0  0  0  0  0  0  0
   57.6820   31.8660   45.2920 C   0  0  0  0  0  0  0  0  0  0  0  0
   57.7600   32.9600   44.4190 C   0  0  0  0  0  0  0  0  0  0  0  0
   57.3452   32.8808   43.4033 H   0  0  0  0  0  0  0  0  0  0  0  0
   58.3630   34.1520   44.8340 C   0  0  0  0  0  0  0  0  0  0  0  0
   58.4381   35.0008   44.1383 H   0  0  0  0  0  0  0  0  0  0  0  0
   58.8700   34.2660   46.1310 C   0  0  0  0  0  0  0  0  0  0  0  0
   59.3517   35.2010   46.4531 H   0  0  0  0  0  0  0  0  0  0  0  0
   58.7650   33.1920   47.0190 C   0  0  0  0  0  0  0  0  0  0  0  0
   59.1559   33.2857   48.0429 H   0  0  0  0  0  0  0  0  0  0  0  0
   58.1640   31.9990   46.6080 C   0  0  0  0  0  0  0  0  0  0  0  0
   58.0673   31.1617   47.3148 H   0  0  0  0  0  0  0  0  0  0  0  0
  1  2  1  0
  2  3  2  0
  3  4  1  0
  3  5  1  0
  5  6  1  0
  6  7  1  0
  7  8  2  0
  7  9  1  0
  9 10  1  0
 10 11  1  0
  2 12  1  0
 12 13  1  0
 12 14  2  0
 14 15  1  0
 15 16  2  0
 16 17  1  0
 16 18  1  0
 18 19  1  0
 18 20  2  0
 20 21  1  0
 20 22  1  0
 22 23  1  0
 22 24  2  0
 24 25  1  0
 10  5  2  0
 24 15  1  0
M  CHG  2   9  -1  11  -1
M  END
>  <UniqueID>  (50) 
50

>  <SMILES>  (50) 
O=c1[n-]c([O-])c(C=C/C=N\c2ccccc2)s1

>  <Energy>  (50) 
69.49352313912078

>  <Genealogy>  (50) 
O=c1[n-]c([O-])c(C=CC=Nc2ccccc2)s1 (protonated)
O=c1[n-]c([O-])c(C=C/C=N\c2ccccc2)s1 (cis-trans isomerization)
O=c1[n-]c([O-])c(C=C/C=N\c2ccccc2)s1 (3D coordinates assigned)
O=c1[n-]c([O-])c(C=C/C=N\c2ccccc2)s1 (optimized conformer: 69.49352313912078 kcal/mol)

>  <smiles>  (50) 
O=c1[nH]c(O)c(C=CC=Nc2ccccc2)s1

>  <score_type>  (50) 
oracle

>  <origin>  (50) 
adg

>  <m_score__min__energy>  (50) 
-13.83

>  <m_primary>  (50) 
energy

$$$$
50:0
     RDKit          3D

 33 35  0  0  0  0  0  0  0  0999 V2000
   60.9868   29.1925   43.9908 H   0  0  0  0  0  0  0  0  0  0  0  0
   60.1550   28.9660   44.6740 C   0  0  0  0  0  0  0  0  0  0  0  0
   58.9090   29.4430   44.4090 N   0  0  0  0  0  0  0  0  0  0  0  0
   57.8470   29.1880   45.2260 C   0  0  0  0  0  0  0  0  0  0  0  0
   56.5220   29.7350   44.8810 C   0  0  0  0  0  0  0  0  0  0  0  0
   55.5230   28.9660   44.8860 O   0  0  0  0  0  0  0  0  0  0  0  0
   56.3840   31.1260   44.5430 N   0  0  0  0  0  0  0  0  0  0  0  0
   57.2370   32.0860   44.7560 C   0  0  0  0  0  0  0  0  0  0  0  0
   57.8830   32.7010   43.7410 N   0  0  0  0  0  0  0  0  0  0  0  0
   58.7210   33.6740   44.1880 C   0  0  0  0  0  0  0  0  0  0  0  0
   59.3270   34.2926   43.5096 H   0  0  0  0  0  0  0  0  0  0  0  0
   58.7520   33.8260   45.5710 C   0  0  0  0  0  0  0  0  0  0  0  0
   59.5230   34.8640   46.3220 C   0  0  0  0  0  0  0  0  0  0  0  0
   59.9187   35.6066   45.6136 H   0  0  0  0  0  0  0  0  0  0  0  0
   58.8554   35.3551   47.0452 H   0  0  0  0  0  0  0  0  0  0  0  0
   60.6650   34.2250   47.0620 C   0  0  0  0  0  0  0  0  0  0  0  0
   61.8420   33.8750   46.3820 C   0  0  0  0  0  0  0  0  0  0  0  0
   61.9186   34.0425   45.2975 H   0  0  0  0  0  0  0  0  0  0  0  0
   62.9180   33.3140   47.0780 C   0  0  0  0  0  0  0  0  0  0  0  0
   63.8350   33.0338   46.5389 H   0  0  0  0  0  0  0  0  0  0  0  0
   62.8290   33.1090   48.4590 C   0  0  0  0  0  0  0  0  0  0  0  0
   64.1810   32.4090   49.3310 Cl  0  0  0  0  0  0  0  0  0  0  0  0
   61.6640   33.4680   49.1450 C   0  0  0  0  0  0  0  0  0  0  0  0
   61.5945   33.3088   50.2312 H   0  0  0  0  0  0  0  0  0  0  0  0
   60.5880   34.0290   48.4510 C   0  0  0  0  0  0  0  0  0  0  0  0
   59.6768   34.3183   48.9950 H   0  0  0  0  0  0  0  0  0  0  0  0
   57.6770   32.7280   46.2560 S   0  0  0  0  0  0  0  0  0  0  0  0
   58.0400   28.4090   46.3800 C   0  0  0  0  0  0  0  0  0  0  0  0
   57.1951   28.1925   47.0503 H   0  0  0  0  0  0  0  0  0  0  0  0
   59.3130   27.9120   46.6690 C   0  0  0  0  0  0  0  0  0  0  0  0
   59.4754   27.3030   47.5705 H   0  0  0  0  0  0  0  0  0  0  0  0
   60.3790   28.1900   45.8110 C   0  0  0  0  0  0  0  0  0  0  0  0
   61.3845   27.8012   46.0295 H   0  0  0  0  0  0  0  0  0  0  0  0
  1  2  1  0
  2  3  2  0
  3  4  1  0
  4  5  1  0
  5  6  2  0
  5  7  1  0
  7  8  2  0
  8  9  1  0
  9 10  1  0
 10 11  1  0
 10 12  2  0
 12 13  1  0
 13 14  1  0
 13 15  1  0
 13 16  1  0
 16 17  2  0
 17 18  1  0
 17 19  1  0
 19 20  1  0
 19 21  2  0
 21 22  1  0
 21 23  1  0
 23 24  1  0
 23 25  2  0
 25 26  1  0
 12 27  1  0
  4 28  2  0
 28 29  1  0
 28 30  1  0
 30 31  1  0
 30 32  2  0
 32 33  1  0
 32  2  1  0
 27  8  1  0
 25 16  1  0
M  CHG  1   9  -1
M  END
>  <UniqueID>  (51) 
51

>  <SMILES>  (51) 
O=C(/N=c1/[n-]cc(Cc2ccc(Cl)cc2)s1)c1ccccn1

>  <Energy>  (51) 
67.89387282120869

>  <Genealogy>  (51) 
O=C(N=c1[n-]cc(Cc2ccc(Cl)cc2)s1)c1ccccn1 (protonated)
O=C(/N=c1/[n-]cc(Cc2ccc(Cl)cc2)s1)c1ccccn1 (cis-trans isomerization)
O=C(/N=c1/[n-]cc(Cc2ccc(Cl)cc2)s1)c1ccccn1 (3D coordinates assigned)
O=C(/N=c1/[n-]cc(Cc2ccc(Cl)cc2)s1)c1ccccn1 (optimized conformer: 67.89387282120869 kcal/mol)

>  <smiles>  (51) 
O=C(N=c1[nH]cc(Cc2ccc(Cl)cc2)s1)c1ccccn1

>  <score_type>  (51) 
oracle

>  <origin>  (51) 
adg

>  <m_score__min__energy>  (51) 
-10.029999999999999

>  <m_primary>  (51) 
energy

$$$$
51:0
     RDKit          3D

 38 40  0  0  0  0  0  0  0  0999 V2000
   54.3990   30.1390   44.5220 H   0  0  0  0  0  0  0  0  0  0  0  0
   55.3850   30.0930   44.1810 N   0  0  0  0  0  0  0  0  0  0  0  0
   56.3800   29.6530   44.8900 C   0  0  0  0  0  0  0  0  0  0  0  0
   56.4360   28.3250   45.1670 N   0  0  0  0  0  0  0  0  0  0  0  0
   57.4390   27.7610   45.8920 C   0  0  0  0  0  0  0  0  0  0  0  0
   57.4180   26.2960   46.1440 C   0  0  0  0  0  0  0  0  0  0  0  0
   58.5340   25.5110   45.8010 C   0  0  0  0  0  0  0  0  0  0  0  0
   59.4142   25.9861   45.3434 H   0  0  0  0  0  0  0  0  0  0  0  0
   58.5350   24.1340   46.0360 C   0  0  0  0  0  0  0  0  0  0  0  0
   59.4116   23.5318   45.7551 H   0  0  0  0  0  0  0  0  0  0  0  0
   57.4210   23.5130   46.6300 C   0  0  0  0  0  0  0  0  0  0  0  0
   57.3740   22.1350   46.8870 O   0  0  0  0  0  0  0  0  0  0  0  0
   57.4400   21.1280   45.8820 C   0  0  0  0  0  0  0  0  0  0  0  0
   57.5048   20.1385   46.3581 H   0  0  0  0  0  0  0  0  0  0  0  0
   56.5368   21.1751   45.2558 H   0  0  0  0  0  0  0  0  0  0  0  0
   58.3293   21.2926   45.2558 H   0  0  0  0  0  0  0  0  0  0  0  0
   56.3150   24.2930   46.9830 C   0  0  0  0  0  0  0  0  0  0  0  0
   55.4398   23.8180   47.4504 H   0  0  0  0  0  0  0  0  0  0  0  0
   56.3120   25.6710   46.7470 C   0  0  0  0  0  0  0  0  0  0  0  0
   55.4368   26.2716   47.0355 H   0  0  0  0  0  0  0  0  0  0  0  0
   58.4560   28.5810   46.4020 C   0  0  0  0  0  0  0  0  0  0  0  0
   59.2677   28.1412   47.0001 H   0  0  0  0  0  0  0  0  0  0  0  0
   58.4400   29.9600   46.1510 C   0  0  0  0  0  0  0  0  0  0  0  0
   59.5250   30.7980   46.7180 C   0  0  0  0  0  0  0  0  0  0  0  0
   59.2250   31.9640   47.4440 C   0  0  0  0  0  0  0  0  0  0  0  0
   58.1768   32.2665   47.5847 H   0  0  0  0  0  0  0  0  0  0  0  0
   60.2520   32.7410   47.9880 C   0  0  0  0  0  0  0  0  0  0  0  0
   60.0092   33.6558   48.5484 H   0  0  0  0  0  0  0  0  0  0  0  0
   61.5870   32.3590   47.8220 C   0  0  0  0  0  0  0  0  0  0  0  0
   62.5990   33.1430   48.3700 O   0  0  0  0  0  0  0  0  0  0  0  0
   62.8710   33.0530   49.3430 H   0  0  0  0  0  0  0  0  0  0  0  0
   61.8930   31.1910   47.1100 C   0  0  0  0  0  0  0  0  0  0  0  0
   62.9419   30.8860   46.9806 H   0  0  0  0  0  0  0  0  0  0  0  0
   60.8680   30.4130   46.5640 C   0  0  0  0  0  0  0  0  0  0  0  0
   61.1138   29.4945   46.0108 H   0  0  0  0  0  0  0  0  0  0  0  0
   57.3950   30.5110   45.3730 C   0  0  0  0  0  0  0  0  0  0  0  0
   57.3940   31.9220   45.0430 C   0  0  0  0  0  0  0  0  0  0  0  0
   57.3930   33.0490   44.7810 N   0  0  0  0  0  0  0  0  0  0  0  0
  1  2  1  0
  2  3  2  0
  3  4  1  0
  4  5  1  0
  5  6  1  0
  6  7  2  0
  7  8  1  0
  7  9  1  0
  9 10  1  0
  9 11  2  0
 11 12  1  0
 12 13  1  0
 13 14  1  0
 13 15  1  0
 13 16  1  0
 11 17  1  0
 17 18  1  0
 17 19  2  0
 19 20  1  0
  5 21  2  0
 21 22  1  0
 21 23  1  0
 23 24  1  0
 24 25  2  0
 25 26  1  0
 25 27  1  0
 27 28  1  0
 27 29  2  0
 29 30  1  0
 30 31  1  0
 29 32  1  0
 32 33  1  0
 32 34  2  0
 34 35  1  0
 23 36  2  0
 36 37  1  0
 37 38  3  0
 36  3  1  0
 19  6  1  0
 34 24  1  0
M  CHG  1   4  -1
M  END
>  <UniqueID>  (52) 
52

>  <SMILES>  (52) 
[H]/N=c1/[n-]c(-c2ccc(OC)cc2)cc(-c2ccc(O)cc2)c1C#N

>  <Energy>  (52) 
53.847561937962965

>  <Genealogy>  (52) 
COc1ccc(-c2cc(-c3ccc(O)cc3)c(C#N)c(=N)[n-]2)cc1 (protonated)
[H]/N=c1/[n-]c(-c2ccc(OC)cc2)cc(-c2ccc(O)cc2)c1C#N (cis-trans isomerization)
[H]/N=c1/[n-]c(-c2ccc(OC)cc2)cc(-c2ccc(O)cc2)c1C#N (3D coordinates assigned)
[H]/N=c1/[n-]c(-c2ccc(OC)cc2)cc(-c2ccc(O)cc2)c1C#N (optimized conformer: 53.847561937962965 kcal/mol)

>  <smiles>  (52) 
COc1ccc(-c2cc(-c3ccc(O)cc3)c(C#N)c(=N)[nH]2)cc1

>  <score_type>  (52) 
oracle

>  <origin>  (52) 
adg

>  <m_score__min__energy>  (52) 
-7.9800000000000004

>  <m_primary>  (52) 
energy

$$$$
52:0
     RDKit          3D

 46 49  0  0  0  0  0  0  0  0999 V2000
   62.3290   32.4784   48.1604 H   0  0  0  0  0  0  0  0  0  0  0  0
   61.7100   31.5770   48.0410 C   0  0  0  0  0  0  0  0  0  0  0  0
   61.7040   30.8900   46.8250 C   0  0  0  0  0  0  0  0  0  0  0  0
   62.3247   31.2469   45.9899 H   0  0  0  0  0  0  0  0  0  0  0  0
   60.9110   29.7500   46.6670 C   0  0  0  0  0  0  0  0  0  0  0  0
   60.9132   29.2132   45.7069 H   0  0  0  0  0  0  0  0  0  0  0  0
   60.1100   29.2830   47.7250 C   0  0  0  0  0  0  0  0  0  0  0  0
   59.3070   28.0970   47.5410 N   0  0  0  0  0  0  0  0  0  0  0  0
   59.6270   26.9080   48.0470 N   0  0  0  0  0  0  0  0  0  0  0  0
   58.6730   26.0090   47.6930 C   0  0  0  0  0  0  0  0  0  0  0  0
   58.6576   24.9428   47.9633 H   0  0  0  0  0  0  0  0  0  0  0  0
   57.7290   26.6650   46.9370 C   0  0  0  0  0  0  0  0  0  0  0  0
   56.5570   26.2780   46.3040 C   0  0  0  0  0  0  0  0  0  0  0  0
   56.1420   25.0900   46.3580 O   0  0  0  0  0  0  0  0  0  0  0  0
   55.8590   27.2290   45.6170 N   0  0  0  0  0  0  0  0  0  0  0  0
   56.3070   28.5280   45.5400 C   0  0  0  0  0  0  0  0  0  0  0  0
   55.6170   29.4350   44.9210 N   0  0  0  0  0  0  0  0  0  0  0  0
   55.6520   29.6730   43.4810 C   0  0  0  0  0  0  0  0  0  0  0  0
   54.6847   30.0830   43.1551 H   0  0  0  0  0  0  0  0  0  0  0  0
   55.8465   28.7236   42.9607 H   0  0  0  0  0  0  0  0  0  0  0  0
   56.7710   30.6750   43.1450 C   0  0  0  0  0  0  0  0  0  0  0  0
   56.3788   31.6949   43.2718 H   0  0  0  0  0  0  0  0  0  0  0  0
   57.0856   30.4838   42.1084 H   0  0  0  0  0  0  0  0  0  0  0  0
   57.9590   30.5170   44.0050 N   0  0  0  0  0  0  0  0  0  0  0  0
   57.7780   29.7420   44.6860 H   0  0  0  0  0  0  0  0  0  0  0  0
   58.7780   30.2240   43.4200 H   0  0  0  0  0  0  0  0  0  0  0  0
   58.2650   31.7200   44.7430 C   0  0  0  0  0  0  0  0  0  0  0  0
   58.5160   32.9280   44.0670 C   0  0  0  0  0  0  0  0  0  0  0  0
   58.4404   32.9661   42.9703 H   0  0  0  0  0  0  0  0  0  0  0  0
   58.8610   34.0810   44.7800 C   0  0  0  0  0  0  0  0  0  0  0  0
   59.0405   35.0239   44.2427 H   0  0  0  0  0  0  0  0  0  0  0  0
   58.9790   34.0400   46.1770 C   0  0  0  0  0  0  0  0  0  0  0  0
   59.3190   35.2810   46.9490 C   0  0  0  0  0  0  0  0  0  0  0  0
   59.2611   35.0696   48.0270 H   0  0  0  0  0  0  0  0  0  0  0  0
   60.3388   35.6042   46.6930 H   0  0  0  0  0  0  0  0  0  0  0  0
   58.6064   36.0789   46.6930 H   0  0  0  0  0  0  0  0  0  0  0  0
   58.7140   32.8410   46.8560 C   0  0  0  0  0  0  0  0  0  0  0  0
   58.7856   32.8064   47.9531 H   0  0  0  0  0  0  0  0  0  0  0  0
   58.3600   31.6920   46.1470 C   0  0  0  0  0  0  0  0  0  0  0  0
   58.1537   30.7576   46.6896 H   0  0  0  0  0  0  0  0  0  0  0  0
   57.4720   28.8900   46.1570 N   0  0  0  0  0  0  0  0  0  0  0  0
   58.1530   27.9510   46.8590 C   0  0  0  0  0  0  0  0  0  0  0  0
   60.1410   29.9760   48.9540 C   0  0  0  0  0  0  0  0  0  0  0  0
   59.5391   29.6135   49.8004 H   0  0  0  0  0  0  0  0  0  0  0  0
   60.9310   31.1200   49.1040 C   0  0  0  0  0  0  0  0  0  0  0  0
   60.9381   31.6605   50.0620 H   0  0  0  0  0  0  0  0  0  0  0  0
  1  2  1  0
  2  3  2  0
  3  4  1  0
  3  5  1  0
  5  6  1  0
  5  7  2  0
  7  8  1  0
  8  9  1  0
  9 10  2  0
 10 11  1  0
 10 12  1  0
 12 13  1  0
 13 14  2  0
 13 15  1  0
 15 16  1  0
 16 17  2  0
 17 18  1  0
 18 19  1  0
 18 20  1  0
 18 21  1  0
 21 22  1  0
 21 23  1  0
 21 24  1  0
 24 25  1  0
 24 26  1  0
 24 27  1  0
 27 28  2  0
 28 29  1  0
 28 30  1  0
 30 31  1  0
 30 32  2  0
 32 33  1  0
 33 34  1  0
 33 35  1  0
 33 36  1  0
 32 37  1  0
 37 38  1  0
 37 39  2  0
 39 40  1  0
 16 41  1  0
 41 42  1  0
  7 43  1  0
 43 44  1  0
 43 45  2  0
 45 46  1  0
 45  2  1  0
 42  8  1  0
 42 12  2  0
 39 27  1  0
M  CHG  3  15  -1  24   1  41  -1
M  END
>  <UniqueID>  (53) 
53

>  <SMILES>  (53) 
Cc1ccc([NH2+]CC/N=c2\[n-]c(=O)c3cnn(-c4ccccc4)c3[n-]2)cc1

>  <Energy>  (53) 
93.43961419693007

>  <Genealogy>  (53) 
Cc1ccc([NH2+]CCN=c2[n-]c(=O)c3cnn(-c4ccccc4)c3[n-]2)cc1 (protonated)
Cc1ccc([NH2+]CC/N=c2\[n-]c(=O)c3cnn(-c4ccccc4)c3[n-]2)cc1 (cis-trans isomerization)
Cc1ccc([NH2+]CC/N=c2\[n-]c(=O)c3cnn(-c4ccccc4)c3[n-]2)cc1 (3D coordinates assigned)
Cc1ccc([NH2+]CC/N=c2\[n-]c(=O)c3cnn(-c4ccccc4)c3[n-]2)cc1 (optimized conformer: 93.43961419693007 kcal/mol)

>  <smiles>  (53) 
Cc1ccc(NCCN=c2[nH]c(=O)c3cnn(-c4ccccc4)c3[nH]2)cc1

>  <score_type>  (53) 
oracle

>  <origin>  (53) 
adg

>  <m_score__min__energy>  (53) 
-9.8399999999999999

>  <m_primary>  (53) 
energy

$$$$
53:0
     RDKit          3D

 27 28  0  0  0  0  0  0  0  0999 V2000
   54.7730   29.3320   44.4830 N   0  0  0  0  0  0  0  0  0  0  0  0
   56.1640   30.2940   44.1190 S   0  0  0  0  0  0  0  0  0  0  0  0
   56.1930   30.5550   42.6400 O   0  0  0  0  0  0  0  0  0  0  0  0
   56.0520   31.5980   44.8580 O   0  0  0  0  0  0  0  0  0  0  0  0
   57.6500   29.4590   44.6020 C   0  0  0  0  0  0  0  0  0  0  0  0
   57.7210   28.0600   44.4970 C   0  0  0  0  0  0  0  0  0  0  0  0
   58.8810   27.3770   44.8700 C   0  0  0  0  0  0  0  0  0  0  0  0
   59.9850   28.0830   45.3510 C   0  0  0  0  0  0  0  0  0  0  0  0
   59.9330   29.4730   45.4560 C   0  0  0  0  0  0  0  0  0  0  0  0
   58.7740   30.1720   45.0830 C   0  0  0  0  0  0  0  0  0  0  0  0
   58.7700   31.6460   45.2040 C   0  0  0  0  0  0  0  0  0  0  0  0
   58.5220   32.4520   44.0700 C   0  0  0  0  0  0  0  0  0  0  0  0
   58.2810   31.8990   42.8110 O   0  0  0  0  0  0  0  0  0  0  0  0
   58.5180   33.8430   44.1960 C   0  0  0  0  0  0  0  0  0  0  0  0
   58.7500   34.4420   45.4350 C   0  0  0  0  0  0  0  0  0  0  0  0
   58.9840   33.6560   46.5660 C   0  0  0  0  0  0  0  0  0  0  0  0
   59.2650   34.4560   48.1060 Cl  0  0  0  0  0  0  0  0  0  0  0  0
   58.9910   32.2540   46.4590 C   0  0  0  0  0  0  0  0  0  0  0  0
   59.2720   31.2640   47.8940 Cl  0  0  0  0  0  0  0  0  0  0  0  0
   54.6100   29.4060   45.5120 H   0  0  0  0  0  0  0  0  0  0  0  0
   56.8553   27.4973   44.1176 H   0  0  0  0  0  0  0  0  0  0  0  0
   58.9246   26.2812   44.7846 H   0  0  0  0  0  0  0  0  0  0  0  0
   60.8964   27.5430   45.6474 H   0  0  0  0  0  0  0  0  0  0  0  0
   60.8061   30.0253   45.8337 H   0  0  0  0  0  0  0  0  0  0  0  0
   58.1510   30.9060   42.6630 H   0  0  0  0  0  0  0  0  0  0  0  0
   58.3307   34.4708   43.3124 H   0  0  0  0  0  0  0  0  0  0  0  0
   58.7486   35.5386   45.5215 H   0  0  0  0  0  0  0  0  0  0  0  0
  1  2  1  0
  2  3  2  0
  2  4  2  0
  2  5  1  0
  5  6  2  0
  6  7  1  0
  7  8  2  0
  8  9  1  0
  9 10  2  0
 10 11  1  0
 11 12  2  0
 12 13  1  0
 12 14  1  0
 14 15  2  0
 15 16  1  0
 16 17  1  0
 16 18  2  0
 18 19  1  0
 10  5  1  0
 18 11  1  0
  1 20  1  0
  6 21  1  0
  7 22  1  0
  8 23  1  0
  9 24  1  0
 13 25  1  0
 14 26  1  0
 15 27  1  0
M  CHG  1   1  -1
M  END
>  <UniqueID>  (54) 
54

>  <SMILES>  (54) 
[NH-]S(=O)(=O)c1ccccc1-c1c(O)ccc(Cl)c1Cl

>  <Energy>  (54) 
38.574330521660336

>  <Genealogy>  (54) 
[NH-]S(=O)(=O)c1ccccc1-c1c(O)ccc(Cl)c1Cl (protonated)
[NH-]S(=O)(=O)c1ccccc1-c1c(O)ccc(Cl)c1Cl (3D coordinates assigned)
[NH-]S(=O)(=O)c1ccccc1-c1c(O)ccc(Cl)c1Cl (optimized conformer: 38.574330521660336 kcal/mol)

>  <smiles>  (54) 
NS(=O)(=O)c1ccccc1-c1c(O)ccc(Cl)c1Cl

>  <score_type>  (54) 
oracle

>  <origin>  (54) 
adg

>  <m_score__min__energy>  (54) 
-10.09

>  <m_primary>  (54) 
energy

$$$$
54:0
     RDKit          3D

 31 33  0  0  0  0  0  0  0  0999 V2000
   55.6110   29.0290   44.7780 O   0  0  0  0  0  0  0  0  0  0  0  0
   56.5540   29.8600   44.8670 C   0  0  0  0  0  0  0  0  0  0  0  0
   56.2830   31.2360   44.5660 N   0  0  0  0  0  0  0  0  0  0  0  0
   57.1650   32.3440   44.7980 C   0  0  0  0  0  0  0  0  0  0  0  0
   57.0190   33.0950   45.9720 C   0  0  0  0  0  0  0  0  0  0  0  0
   57.8640   34.1780   46.2260 C   0  0  0  0  0  0  0  0  0  0  0  0
   58.8500   34.5310   45.3000 C   0  0  0  0  0  0  0  0  0  0  0  0
   59.6710   35.5820   45.5490 F   0  0  0  0  0  0  0  0  0  0  0  0
   58.9840   33.8050   44.1130 C   0  0  0  0  0  0  0  0  0  0  0  0
   58.1400   32.7210   43.8550 C   0  0  0  0  0  0  0  0  0  0  0  0
   57.8640   29.4330   45.4090 C   0  0  0  0  0  0  0  0  0  0  0  0
   58.6480   30.3760   45.9950 N   0  0  0  0  0  0  0  0  0  0  0  0
   59.8500   30.0710   46.5470 C   0  0  0  0  0  0  0  0  0  0  0  0
   60.6780   31.1300   47.1410 C   0  0  0  0  0  0  0  0  0  0  0  0
   62.0680   31.1790   47.1320 C   0  0  0  0  0  0  0  0  0  0  0  0
   62.5830   32.3030   47.7900 C   0  0  0  0  0  0  0  0  0  0  0  0
   61.6060   33.1380   48.3170 C   0  0  0  0  0  0  0  0  0  0  0  0
   60.1000   32.4770   47.9670 S   0  0  0  0  0  0  0  0  0  0  0  0
   60.2850   28.7860   46.5390 N   0  0  0  0  0  0  0  0  0  0  0  0
   59.5480   27.7990   45.9680 C   0  0  0  0  0  0  0  0  0  0  0  0
   59.9840   26.6180   45.9700 O   0  0  0  0  0  0  0  0  0  0  0  0
   58.3210   28.0970   45.3640 C   0  0  0  0  0  0  0  0  0  0  0  0
   57.6180   27.0760   44.7180 O   0  0  0  0  0  0  0  0  0  0  0  0
   56.2352   32.8305   46.6971 H   0  0  0  0  0  0  0  0  0  0  0  0
   57.7533   34.7542   47.1565 H   0  0  0  0  0  0  0  0  0  0  0  0
   59.7549   34.0872   43.3808 H   0  0  0  0  0  0  0  0  0  0  0  0
   58.2379   32.1613   42.9131 H   0  0  0  0  0  0  0  0  0  0  0  0
   62.6985   30.4131   46.6566 H   0  0  0  0  0  0  0  0  0  0  0  0
   63.6604   32.5056   47.8810 H   0  0  0  0  0  0  0  0  0  0  0  0
   61.7867   34.0721   48.8690 H   0  0  0  0  0  0  0  0  0  0  0  0
   56.7380   27.2200   44.2430 H   0  0  0  0  0  0  0  0  0  0  0  0
  1  2  2  0
  2  3  1  0
  3  4  1  0
  4  5  2  0
  5  6  1  0
  6  7  2  0
  7  8  1  0
  7  9  1  0
  9 10  2  0
  2 11  1  0
 11 12  1  0
 12 13  1  0
 13 14  1  0
 14 15  2  0
 15 16  1  0
 16 17  2  0
 17 18  1  0
 13 19  2  0
 19 20  1  0
 20 21  2  0
 20 22  1  0
 22 23  1  0
 10  4  1  0
 22 11  2  0
 18 14  1  0
  5 24  1  0
  6 25  1  0
  9 26  1  0
 10 27  1  0
 15 28  1  0
 16 29  1  0
 17 30  1  0
 23 31  1  0
M  CHG  2   3  -1  12  -1
M  END
>  <UniqueID>  (55) 
55

>  <SMILES>  (55) 
O=C([N-]c1ccc(F)cc1)c1[n-]c(-c2cccs2)nc(=O)c1O

>  <Energy>  (55) 
68.60090246204417

>  <Genealogy>  (55) 
O=C([N-]c1ccc(F)cc1)c1[n-]c(-c2cccs2)nc(=O)c1O (protonated)
O=C([N-]c1ccc(F)cc1)c1[n-]c(-c2cccs2)nc(=O)c1O (3D coordinates assigned)
O=C([N-]c1ccc(F)cc1)c1[n-]c(-c2cccs2)nc(=O)c1O (optimized conformer: 68.60090246204417 kcal/mol)

>  <smiles>  (55) 
O=C(Nc1ccc(F)cc1)c1[nH]c(-c2cccs2)nc(=O)c1O

>  <score_type>  (55) 
oracle

>  <origin>  (55) 
adg

>  <m_score__min__energy>  (55) 
-10.42

>  <m_primary>  (55) 
energy

$$$$
55:0
     RDKit          3D

 45 47  0  0  0  0  0  0  0  0999 V2000
   59.1390   32.7190   49.6520 C   0  0  0  0  0  0  0  0  0  0  0  0
   60.3680   32.1050   49.2760 O   0  0  0  0  0  0  0  0  0  0  0  0
   61.3800   32.7350   48.5350 C   0  0  0  0  0  0  0  0  0  0  0  0
   62.6180   33.0800   49.1150 C   0  0  0  0  0  0  0  0  0  0  0  0
   63.6300   33.6490   48.3370 C   0  0  0  0  0  0  0  0  0  0  0  0
   63.4250   33.8690   46.9750 C   0  0  0  0  0  0  0  0  0  0  0  0
   62.2010   33.5390   46.3900 C   0  0  0  0  0  0  0  0  0  0  0  0
   61.1620   33.0060   47.1670 C   0  0  0  0  0  0  0  0  0  0  0  0
   59.9070   32.7090   46.5350 N   0  0  0  0  0  0  0  0  0  0  0  0
   58.9580   33.7210   46.1600 C   0  0  0  0  0  0  0  0  0  0  0  0
   59.1690   34.9320   46.4440 O   0  0  0  0  0  0  0  0  0  0  0  0
   57.7090   33.3420   45.4100 C   0  0  1  0  0  0  0  0  0  0  0  0
   56.8480   34.5790   45.1690 C   0  0  0  0  0  0  0  0  0  0  0  0
   58.1250   32.5620   43.8050 S   0  0  0  0  0  0  0  0  0  0  0  0
   57.5020   30.9430   44.2520 C   0  0  0  0  0  0  0  0  0  0  0  0
   56.2400   30.7140   44.6750 N   0  0  0  0  0  0  0  0  0  0  0  0
   55.9990   29.4290   44.9330 N   0  0  0  0  0  0  0  0  0  0  0  0
   57.0720   28.6340   44.7260 C   0  0  0  0  0  0  0  0  0  0  0  0
   57.0220   27.3460   44.8910 N   0  0  0  0  0  0  0  0  0  0  0  0
   56.7450   26.6500   46.1160 C   0  0  0  0  0  0  0  0  0  0  0  0
   55.5560   26.3210   46.3700 O   0  0  0  0  0  0  0  0  0  0  0  0
   57.8030   26.4430   47.1670 C   0  0  0  0  0  0  0  0  0  0  0  0
   58.7750   27.5840   47.2340 C   0  0  0  0  0  0  0  0  0  0  0  0
   58.5790   28.8040   47.8750 C   0  0  0  0  0  0  0  0  0  0  0  0
   59.6270   29.7100   47.6710 C   0  0  0  0  0  0  0  0  0  0  0  0
   60.6380   29.2220   46.8550 C   0  0  0  0  0  0  0  0  0  0  0  0
   60.2260   27.6620   46.3830 S   0  0  0  0  0  0  0  0  0  0  0  0
   58.3960   29.5210   44.1700 S   0  0  0  0  0  0  0  0  0  0  0  0
   59.0675   32.7547   50.7491 H   0  0  0  0  0  0  0  0  0  0  0  0
   59.1016   33.7417   49.2486 H   0  0  0  0  0  0  0  0  0  0  0  0
   58.2988   32.1348   49.2486 H   0  0  0  0  0  0  0  0  0  0  0  0
   62.7884   32.9001   50.1867 H   0  0  0  0  0  0  0  0  0  0  0  0
   64.5895   33.9237   48.7994 H   0  0  0  0  0  0  0  0  0  0  0  0
   64.2283   34.3028   46.3613 H   0  0  0  0  0  0  0  0  0  0  0  0
   62.0504   33.6981   45.3120 H   0  0  0  0  0  0  0  0  0  0  0  0
   59.7780   31.7490   46.1440 H   0  0  0  0  0  0  0  0  0  0  0  0
   57.1485   32.6178   46.0194 H   0  0  0  0  0  0  0  0  0  0  0  0
   56.5476   35.0106   46.1352 H   0  0  0  0  0  0  0  0  0  0  0  0
   57.4251   35.3221   44.5991 H   0  0  0  0  0  0  0  0  0  0  0  0
   55.9508   34.2959   44.5991 H   0  0  0  0  0  0  0  0  0  0  0  0
   57.3125   26.3391   48.1461 H   0  0  0  0  0  0  0  0  0  0  0  0
   58.3675   25.5373   46.9002 H   0  0  0  0  0  0  0  0  0  0  0  0
   57.6901   29.0333   48.4810 H   0  0  0  0  0  0  0  0  0  0  0  0
   59.6471   30.7156   48.1164 H   0  0  0  0  0  0  0  0  0  0  0  0
   61.5515   29.7628   46.5668 H   0  0  0  0  0  0  0  0  0  0  0  0
  1  2  1  0
  2  3  1  0
  3  4  2  0
  4  5  1  0
  5  6  2  0
  6  7  1  0
  7  8  2  0
  8  9  1  0
  9 10  1  0
 10 11  2  0
 10 12  1  0
 12 13  1  0
 12 14  1  0
 14 15  1  0
 15 16  2  0
 16 17  1  0
 17 18  1  0
 18 19  2  3
 19 20  1  0
 20 21  2  0
 20 22  1  0
 22 23  1  0
 23 24  2  0
 24 25  1  0
 25 26  2  0
 26 27  1  0
 18 28  1  0
  8  3  1  0
 28 15  1  0
 27 23  1  0
  1 29  1  0
  1 30  1  0
  1 31  1  0
  4 32  1  0
  5 33  1  0
  6 34  1  0
  7 35  1  0
  9 36  1  0
 12 37  1  1
 13 38  1  0
 13 39  1  0
 13 40  1  0
 22 41  1  0
 22 42  1  0
 24 43  1  0
 25 44  1  0
 26 45  1  0
M  CHG  1  17  -1
M  END
>  <UniqueID>  (56) 
56

>  <SMILES>  (56) 
COc1ccccc1NC(=O)[C@@H](C)Sc1n[n-]c(=NC(=O)Cc2cccs2)s1

>  <Energy>  (56) 
106.08988450564145

>  <Genealogy>  (56) 
COc1ccccc1NC(=O)C(C)Sc1n[n-]c(=NC(=O)Cc2cccs2)s1 (protonated)
COc1ccccc1NC(=O)[C@@H](C)Sc1n[n-]c(=NC(=O)Cc2cccs2)s1 (chirality)
COc1ccccc1NC(=O)[C@@H](C)Sc1n[n-]c(=NC(=O)Cc2cccs2)s1 (3D coordinates assigned)
COc1ccccc1NC(=O)[C@@H](C)Sc1n[n-]c(=NC(=O)Cc2cccs2)s1 (optimized conformer: 106.08988450564145 kcal/mol)

>  <smiles>  (56) 
COc1ccccc1NC(=O)C(C)Sc1n[nH]c(=NC(=O)Cc2cccs2)s1

>  <score_type>  (56) 
oracle

>  <origin>  (56) 
adg

>  <m_score__min__energy>  (56) 
-10.859999999999999

>  <m_primary>  (56) 
energy

$$$$
56:0
     RDKit          3D

 51 54  0  0  0  0  0  0  0  0999 V2000
   55.8310   27.1140   45.9760 N   0  0  0  0  0  0  0  0  0  0  0  0
   57.3880   27.4270   45.2910 S   0  0  0  0  0  0  0  0  0  0  0  0
   58.4480   27.3150   46.3510 O   0  0  0  0  0  0  0  0  0  0  0  0
   57.6510   26.3910   44.2340 O   0  0  0  0  0  0  0  0  0  0  0  0
   57.4280   29.0470   44.5720 C   0  0  0  0  0  0  0  0  0  0  0  0
   56.7190   29.2760   43.3800 C   0  0  0  0  0  0  0  0  0  0  0  0
   56.6860   30.5480   42.8070 C   0  0  0  0  0  0  0  0  0  0  0  0
   57.3570   31.6080   43.4140 C   0  0  0  0  0  0  0  0  0  0  0  0
   58.0720   31.3980   44.5930 C   0  0  0  0  0  0  0  0  0  0  0  0
   58.1270   30.1220   45.1780 C   0  0  0  0  0  0  0  0  0  0  0  0
   58.9180   29.9490   46.4100 C   0  0  0  0  0  0  0  0  0  0  0  0
   60.3190   29.9710   46.3610 C   0  0  0  0  0  0  0  0  0  0  0  0
   61.0660   29.8130   47.5320 C   0  0  0  0  0  0  0  0  0  0  0  0
   60.4210   29.6470   48.7690 C   0  0  0  0  0  0  0  0  0  0  0  0
   61.2340   29.4890   50.0340 C   0  0  0  0  0  0  0  0  0  0  0  0
   62.2880   30.5140   50.1500 N   0  0  0  0  0  0  0  0  0  0  0  0
   61.7610   31.8930   50.1540 C   0  0  0  0  0  0  0  0  0  0  0  0
   62.0120   32.6050   48.8360 C   0  0  0  0  0  0  0  0  0  0  0  0
   63.3400   32.7280   48.3900 C   0  0  0  0  0  0  0  0  0  0  0  0
   63.6360   33.3500   47.1780 C   0  0  0  0  0  0  0  0  0  0  0  0
   62.6140   33.8660   46.3850 C   0  0  0  0  0  0  0  0  0  0  0  0
   61.2800   33.7660   46.8000 C   0  0  0  0  0  0  0  0  0  0  0  0
   60.2590   34.2940   45.9940 C   0  0  0  0  0  0  0  0  0  0  0  0
   58.9260   34.2060   46.3980 C   0  0  0  0  0  0  0  0  0  0  0  0
   58.6020   33.5940   47.6080 C   0  0  0  0  0  0  0  0  0  0  0  0
   59.6050   33.0640   48.4220 C   0  0  0  0  0  0  0  0  0  0  0  0
   60.9610   33.1350   48.0340 C   0  0  0  0  0  0  0  0  0  0  0  0
   59.0180   29.6380   48.8160 C   0  0  0  0  0  0  0  0  0  0  0  0
   58.2710   29.7960   47.6450 C   0  0  0  0  0  0  0  0  0  0  0  0
   55.1450   27.0650   45.1900 H   0  0  0  0  0  0  0  0  0  0  0  0
   56.1856   28.4454   42.8947 H   0  0  0  0  0  0  0  0  0  0  0  0
   56.1287   30.7145   41.8734 H   0  0  0  0  0  0  0  0  0  0  0  0
   57.3227   32.6107   42.9631 H   0  0  0  0  0  0  0  0  0  0  0  0
   58.5975   32.2390   45.0690 H   0  0  0  0  0  0  0  0  0  0  0  0
   60.8319   30.1130   45.3983 H   0  0  0  0  0  0  0  0  0  0  0  0
   62.1650   29.8187   47.4846 H   0  0  0  0  0  0  0  0  0  0  0  0
   60.5613   29.5729   50.9003 H   0  0  0  0  0  0  0  0  0  0  0  0
   61.7227   28.5041   50.0007 H   0  0  0  0  0  0  0  0  0  0  0  0
   62.9640   30.4150   49.3570 H   0  0  0  0  0  0  0  0  0  0  0  0
   62.8250   30.3340   51.0290 H   0  0  0  0  0  0  0  0  0  0  0  0
   60.6769   31.8578   50.3372 H   0  0  0  0  0  0  0  0  0  0  0  0
   62.2818   32.4521   50.9453 H   0  0  0  0  0  0  0  0  0  0  0  0
   64.1578   32.3273   49.0070 H   0  0  0  0  0  0  0  0  0  0  0  0
   64.6815   33.4336   46.8465 H   0  0  0  0  0  0  0  0  0  0  0  0
   62.8554   34.3539   45.4291 H   0  0  0  0  0  0  0  0  0  0  0  0
   60.5108   34.7794   45.0395 H   0  0  0  0  0  0  0  0  0  0  0  0
   58.1303   34.6199   45.7611 H   0  0  0  0  0  0  0  0  0  0  0  0
   57.5502   33.5283   47.9232 H   0  0  0  0  0  0  0  0  0  0  0  0
   59.3361   32.5861   49.3756 H   0  0  0  0  0  0  0  0  0  0  0  0
   58.5037   29.5059   49.7794 H   0  0  0  0  0  0  0  0  0  0  0  0
   57.1720   29.8003   47.6923 H   0  0  0  0  0  0  0  0  0  0  0  0
  1  2  1  0
  2  3  2  0
  2  4  2  0
  2  5  1  0
  5  6  2  0
  6  7  1  0
  7  8  2  0
  8  9  1  0
  9 10  2  0
 10 11  1  0
 11 12  2  0
 12 13  1  0
 13 14  2  0
 14 15  1  0
 15 16  1  0
 16 17  1  0
 17 18  1  0
 18 19  2  0
 19 20  1  0
 20 21  2  0
 21 22  1  0
 22 23  2  0
 23 24  1  0
 24 25  2  0
 25 26  1  0
 26 27  2  0
 14 28  1  0
 28 29  2  0
 10  5  1  0
 29 11  1  0
 27 18  1  0
 27 22  1  0
  1 30  1  0
  6 31  1  0
  7 32  1  0
  8 33  1  0
  9 34  1  0
 12 35  1  0
 13 36  1  0
 15 37  1  0
 15 38  1  0
 16 39  1  0
 16 40  1  0
 17 41  1  0
 17 42  1  0
 19 43  1  0
 20 44  1  0
 21 45  1  0
 23 46  1  0
 24 47  1  0
 25 48  1  0
 26 49  1  0
 28 50  1  0
 29 51  1  0
M  CHG  2   1  -1  16   1
M  END
>  <UniqueID>  (57) 
57

>  <SMILES>  (57) 
[NH-]S(=O)(=O)c1ccccc1-c1ccc(C[NH2+]Cc2cccc3ccccc23)cc1

>  <Energy>  (57) 
70.29391472446189

>  <Genealogy>  (57) 
[NH-]S(=O)(=O)c1ccccc1-c1ccc(C[NH2+]Cc2cccc3ccccc23)cc1 (protonated)
[NH-]S(=O)(=O)c1ccccc1-c1ccc(C[NH2+]Cc2cccc3ccccc23)cc1 (3D coordinates assigned)
[NH-]S(=O)(=O)c1ccccc1-c1ccc(C[NH2+]Cc2cccc3ccccc23)cc1 (optimized conformer: 70.29391472446189 kcal/mol)

>  <smiles>  (57) 
NS(=O)(=O)c1ccccc1-c1ccc(CNCc2cccc3ccccc23)cc1

>  <score_type>  (57) 
oracle

>  <origin>  (57) 
adg

>  <m_score__min__energy>  (57) 
-10.34

>  <m_primary>  (57) 
energy

$$$$
57:0
     RDKit          3D

 62 66  0  0  0  0  0  0  0  0999 V2000
   63.5340   33.8280   46.3880 C   0  0  0  0  0  0  0  0  0  0  0  0
   62.1540   33.9660   46.8450 N   0  0  0  0  0  0  0  0  0  0  0  0
   61.0620   34.1090   46.0600 C   0  0  0  0  0  0  0  0  0  0  0  0
   59.9050   34.1730   46.8430 C   0  0  0  0  0  0  0  0  0  0  0  0
   58.4560   34.2790   46.3940 C   0  0  0  0  0  0  0  0  0  0  0  0
   58.3420   34.5490   44.8810 C   0  0  0  0  0  0  0  0  0  0  0  0
   58.5470   33.2750   44.0630 C   0  0  0  0  0  0  0  0  0  0  0  0
   57.5450   32.2580   44.4410 N   0  0  0  0  0  0  0  0  0  0  0  0
   57.6710   31.0870   43.5440 C   0  0  0  0  0  0  0  0  0  0  0  0
   56.3100   30.4040   43.2890 C   0  0  0  0  0  0  0  0  0  0  0  0
   55.5330   30.0760   44.5800 C   0  0  0  0  0  0  0  0  0  0  0  0
   55.5430   28.6390   44.8580 N   0  0  0  0  0  0  0  0  0  0  0  0
   56.6430   27.8780   45.3750 C   0  0  0  0  0  0  0  0  0  0  0  0
   56.5090   26.6320   45.5020 O   0  0  0  0  0  0  0  0  0  0  0  0
   57.9230   28.5000   45.7590 C   0  0  0  0  0  0  0  0  0  0  0  0
   58.9220   28.6920   44.7930 C   0  0  0  0  0  0  0  0  0  0  0  0
   60.1180   29.3340   45.1280 C   0  0  0  0  0  0  0  0  0  0  0  0
   60.3360   29.7770   46.4400 C   0  0  0  0  0  0  0  0  0  0  0  0
   61.5280   30.4340   46.7840 C   0  0  0  0  0  0  0  0  0  0  0  0
   61.7410   30.8560   48.0990 C   0  0  0  0  0  0  0  0  0  0  0  0
   60.7720   30.6240   49.0780 C   0  0  0  0  0  0  0  0  0  0  0  0
   59.5760   29.9820   48.7460 C   0  0  0  0  0  0  0  0  0  0  0  0
   59.3480   29.5540   47.4290 C   0  0  0  0  0  0  0  0  0  0  0  0
   58.1520   28.9080   47.0830 C   0  0  0  0  0  0  0  0  0  0  0  0
   57.7500   31.8660   45.8520 C   0  0  0  0  0  0  0  0  0  0  0  0
   57.5790   33.0720   46.7930 C   0  0  0  0  0  0  0  0  0  0  0  0
   60.3470   34.0460   48.1520 C   0  0  0  0  0  0  0  0  0  0  0  0
   59.6410   33.9810   49.3570 C   0  0  0  0  0  0  0  0  0  0  0  0
   60.3760   33.8240   50.5450 C   0  0  0  0  0  0  0  0  0  0  0  0
   61.7820   33.7230   50.5080 C   0  0  0  0  0  0  0  0  0  0  0  0
   62.4670   33.7720   49.2810 C   0  0  0  0  0  0  0  0  0  0  0  0
   61.7130   33.9340   48.1150 C   0  0  0  0  0  0  0  0  0  0  0  0
   64.2035   33.7611   47.2582 H   0  0  0  0  0  0  0  0  0  0  0  0
   63.6297   32.9158   45.7808 H   0  0  0  0  0  0  0  0  0  0  0  0
   63.8084   34.7032   45.7808 H   0  0  0  0  0  0  0  0  0  0  0  0
   61.0812   34.1668   44.9617 H   0  0  0  0  0  0  0  0  0  0  0  0
   58.0575   35.1452   46.9426 H   0  0  0  0  0  0  0  0  0  0  0  0
   57.3423   34.9541   44.6654 H   0  0  0  0  0  0  0  0  0  0  0  0
   59.1269   35.2668   44.6005 H   0  0  0  0  0  0  0  0  0  0  0  0
   58.4410   33.5092   42.9935 H   0  0  0  0  0  0  0  0  0  0  0  0
   59.5533   32.8785   44.2633 H   0  0  0  0  0  0  0  0  0  0  0  0
   58.0869   31.4201   42.5817 H   0  0  0  0  0  0  0  0  0  0  0  0
   58.3320   30.3553   44.0316 H   0  0  0  0  0  0  0  0  0  0  0  0
   55.6937   31.0756   42.6732 H   0  0  0  0  0  0  0  0  0  0  0  0
   56.5177   29.4483   42.7856 H   0  0  0  0  0  0  0  0  0  0  0  0
   55.9991   30.6070   45.4231 H   0  0  0  0  0  0  0  0  0  0  0  0
   54.4890   30.3959   44.4468 H   0  0  0  0  0  0  0  0  0  0  0  0
   58.7632   28.3349   43.7647 H   0  0  0  0  0  0  0  0  0  0  0  0
   60.8897   29.4919   44.3602 H   0  0  0  0  0  0  0  0  0  0  0  0
   62.2954   30.6168   46.0174 H   0  0  0  0  0  0  0  0  0  0  0  0
   62.6751   31.3728   48.3642 H   0  0  0  0  0  0  0  0  0  0  0  0
   60.9510   30.9478   50.1139 H   0  0  0  0  0  0  0  0  0  0  0  0
   58.8117   29.8117   49.5185 H   0  0  0  0  0  0  0  0  0  0  0  0
   57.3893   28.7200   47.8530 H   0  0  0  0  0  0  0  0  0  0  0  0
   57.0144   31.0936   46.1207 H   0  0  0  0  0  0  0  0  0  0  0  0
   58.7741   31.4798   45.9619 H   0  0  0  0  0  0  0  0  0  0  0  0
   56.5243   33.3840   46.7746 H   0  0  0  0  0  0  0  0  0  0  0  0
   57.8959   32.7531   47.7969 H   0  0  0  0  0  0  0  0  0  0  0  0
   58.5434   34.0506   49.3749 H   0  0  0  0  0  0  0  0  0  0  0  0
   59.8506   33.7796   51.5104 H   0  0  0  0  0  0  0  0  0  0  0  0
   62.3464   33.6052   51.4448 H   0  0  0  0  0  0  0  0  0  0  0  0
   63.5628   33.6855   49.2398 H   0  0  0  0  0  0  0  0  0  0  0  0
  1  2  1  0
  2  3  1  0
  3  4  2  0
  4  5  1  0
  5  6  1  0
  6  7  1  0
  7  8  1  0
  8  9  1  0
  9 10  1  0
 10 11  1  0
 11 12  1  0
 12 13  1  0
 13 14  2  0
 13 15  1  0
 15 16  2  0
 16 17  1  0
 17 18  2  0
 18 19  1  0
 19 20  2  0
 20 21  1  0
 21 22  2  0
 22 23  1  0
 23 24  2  0
  8 25  1  0
 25 26  1  0
  4 27  1  0
 27 28  2  0
 28 29  1  0
 29 30  2  0
 30 31  1  0
 31 32  2  0
 32  2  1  0
 26  5  1  0
 32 27  1  0
 24 15  1  0
 23 18  1  0
  1 33  1  0
  1 34  1  0
  1 35  1  0
  3 36  1  0
  5 37  1  0
  6 38  1  0
  6 39  1  0
  7 40  1  0
  7 41  1  0
  9 42  1  0
  9 43  1  0
 10 44  1  0
 10 45  1  0
 11 46  1  0
 11 47  1  0
 16 48  1  0
 17 49  1  0
 19 50  1  0
 20 51  1  0
 21 52  1  0
 22 53  1  0
 24 54  1  0
 25 55  1  0
 25 56  1  0
 26 57  1  0
 26 58  1  0
 28 59  1  0
 29 60  1  0
 30 61  1  0
 31 62  1  0
M  CHG  1  12  -1
M  END
>  <UniqueID>  (58) 
58

>  <SMILES>  (58) 
Cn1cc(C2CCN(CCC[N-]C(=O)c3ccc4ccccc4c3)CC2)c2ccccc21

>  <Energy>  (58) 
106.11260480881955

>  <Genealogy>  (58) 
Cn1cc(C2CCN(CCC[N-]C(=O)c3ccc4ccccc4c3)CC2)c2ccccc21 (protonated)
Cn1cc(C2CCN(CCC[N-]C(=O)c3ccc4ccccc4c3)CC2)c2ccccc21 (3D coordinates assigned)
Cn1cc(C2CCN(CCC[N-]C(=O)c3ccc4ccccc4c3)CC2)c2ccccc21 (nonaromatic ring conformer: 106.11260480881955 kcal/mol)

>  <smiles>  (58) 
Cn1cc(C2CCN(CCCNC(=O)c3ccc4ccccc4c3)CC2)c2ccccc21

>  <score_type>  (58) 
oracle

>  <origin>  (58) 
adg

>  <m_score__min__energy>  (58) 
-12.1

>  <m_primary>  (58) 
energy

$$$$
58:0
     RDKit          3D

 65 68  0  0  0  0  0  0  0  0999 V2000
   59.9410   27.5960   48.4670 N   0  0  0  0  0  0  0  0  0  0  0  0
   59.9960   29.0420   48.6710 C   0  0  0  0  0  0  0  0  0  0  0  0
   58.8670   29.8110   47.9410 C   0  0  0  0  0  0  0  0  0  0  0  0
   59.1670   30.5210   46.5570 C   0  0  0  0  0  0  0  0  0  0  0  0
   59.6860   31.9230   46.7290 N   0  0  0  0  0  0  0  0  0  0  0  0
   58.9750   32.9670   45.9610 C   0  0  0  0  0  0  0  0  0  0  0  0
   59.1390   34.3340   46.6460 C   0  0  0  0  0  0  0  0  0  0  0  0
   60.5600   34.5570   47.2380 C   0  0  0  0  0  0  0  0  0  0  0  0
   60.5420   34.4570   48.7850 C   0  0  0  0  0  0  0  0  0  0  0  0
   61.7200   33.6820   49.3230 C   0  0  0  0  0  0  0  0  0  0  0  0
   63.0150   34.2170   49.2340 C   0  0  0  0  0  0  0  0  0  0  0  0
   64.1100   33.4920   49.7080 C   0  0  0  0  0  0  0  0  0  0  0  0
   63.9280   32.2250   50.2730 C   0  0  0  0  0  0  0  0  0  0  0  0
   65.3340   31.3410   50.8460 Cl  0  0  0  0  0  0  0  0  0  0  0  0
   62.6360   31.6820   50.3650 C   0  0  0  0  0  0  0  0  0  0  0  0
   62.3620   30.0930   51.0650 Cl  0  0  0  0  0  0  0  0  0  0  0  0
   61.5390   32.4110   49.8930 C   0  0  0  0  0  0  0  0  0  0  0  0
   61.5770   33.5890   46.5950 C   0  0  0  0  0  0  0  0  0  0  0  0
   61.1590   32.1150   46.7690 C   0  0  0  0  0  0  0  0  0  0  0  0
   57.9210   30.5000   45.6050 C   0  0  0  0  0  0  0  0  0  0  0  0
   57.4040   29.0800   45.3110 C   0  0  0  0  0  0  0  0  0  0  0  0
   58.5110   28.1210   45.2200 N   0  0  0  0  0  0  0  0  0  0  0  0
   58.3640   26.7780   45.7270 C   0  0  0  0  0  0  0  0  0  0  0  0
   59.3260   26.2360   46.3360 O   0  0  0  0  0  0  0  0  0  0  0  0
   57.0930   26.0360   45.5860 C   0  0  0  0  0  0  0  0  0  0  0  0
   57.0670   24.7900   44.9420 C   0  0  0  0  0  0  0  0  0  0  0  0
   55.8650   24.0880   44.8250 C   0  0  0  0  0  0  0  0  0  0  0  0
   54.6930   24.6480   45.3400 C   0  0  0  0  0  0  0  0  0  0  0  0
   53.6000   24.0280   45.2460 O   0  0  0  0  0  0  0  0  0  0  0  0
   54.7290   25.8660   45.9440 N   0  0  0  0  0  0  0  0  0  0  0  0
   55.8880   26.5650   46.0760 C   0  0  0  0  0  0  0  0  0  0  0  0
   59.8270   28.6300   44.8350 C   0  0  0  0  0  0  0  0  0  0  0  0
   60.3060   29.7040   45.8310 C   0  0  0  0  0  0  0  0  0  0  0  0
   60.5910   27.3030   47.7040 H   0  0  0  0  0  0  0  0  0  0  0  0
   58.9710   27.3380   48.1690 H   0  0  0  0  0  0  0  0  0  0  0  0
   60.1610   27.0860   49.3540 H   0  0  0  0  0  0  0  0  0  0  0  0
   59.9152   29.2451   49.7491 H   0  0  0  0  0  0  0  0  0  0  0  0
   60.9506   29.3924   48.2515 H   0  0  0  0  0  0  0  0  0  0  0  0
   58.0558   29.0904   47.7603 H   0  0  0  0  0  0  0  0  0  0  0  0
   58.6511   30.6510   48.6176 H   0  0  0  0  0  0  0  0  0  0  0  0
   59.3919   33.0176   44.9443 H   0  0  0  0  0  0  0  0  0  0  0  0
   57.9055   32.7139   45.9159 H   0  0  0  0  0  0  0  0  0  0  0  0
   58.9416   35.1223   45.9046 H   0  0  0  0  0  0  0  0  0  0  0  0
   58.4272   34.3668   47.4841 H   0  0  0  0  0  0  0  0  0  0  0  0
   60.8862   35.5784   46.9922 H   0  0  0  0  0  0  0  0  0  0  0  0
   60.5655   35.4732   49.2054 H   0  0  0  0  0  0  0  0  0  0  0  0
   59.6260   33.9223   49.0769 H   0  0  0  0  0  0  0  0  0  0  0  0
   63.1675   35.2114   48.7890 H   0  0  0  0  0  0  0  0  0  0  0  0
   65.1212   33.9192   49.6369 H   0  0  0  0  0  0  0  0  0  0  0  0
   60.5274   31.9857   49.9688 H   0  0  0  0  0  0  0  0  0  0  0  0
   61.6506   33.8131   45.5206 H   0  0  0  0  0  0  0  0  0  0  0  0
   62.5454   33.7297   47.0974 H   0  0  0  0  0  0  0  0  0  0  0  0
   61.6121   31.5238   45.9596 H   0  0  0  0  0  0  0  0  0  0  0  0
   61.5077   31.7878   47.7596 H   0  0  0  0  0  0  0  0  0  0  0  0
   57.1112   31.0758   46.0769 H   0  0  0  0  0  0  0  0  0  0  0  0
   58.2359   30.9374   44.6461 H   0  0  0  0  0  0  0  0  0  0  0  0
   56.7263   28.7701   46.1201 H   0  0  0  0  0  0  0  0  0  0  0  0
   56.8751   29.0944   44.3466 H   0  0  0  0  0  0  0  0  0  0  0  0
   57.9939   24.3655   44.5288 H   0  0  0  0  0  0  0  0  0  0  0  0
   55.8414   23.1046   44.3326 H   0  0  0  0  0  0  0  0  0  0  0  0
   55.8816   27.5486   46.5685 H   0  0  0  0  0  0  0  0  0  0  0  0
   60.5474   27.7988   44.8255 H   0  0  0  0  0  0  0  0  0  0  0  0
   59.7537   29.0816   43.8347 H   0  0  0  0  0  0  0  0  0  0  0  0
   60.9081   29.2037   46.6038 H   0  0  0  0  0  0  0  0  0  0  0  0
   60.8672   30.4378   45.2338 H   0  0  0  0  0  0  0  0  0  0  0  0
  1  2  1  0
  2  3  1  0
  3  4  1  0
  4  5  1  0
  5  6  1  0
  6  7  1  0
  7  8  1  0
  8  9  1  0
  9 10  1  0
 10 11  2  0
 11 12  1  0
 12 13  2  0
 13 14  1  0
 13 15  1  0
 15 16  1  0
 15 17  2  0
  8 18  1  0
 18 19  1  0
  4 20  1  0
 20 21  1  0
 21 22  1  0
 22 23  1  0
 23 24  2  0
 23 25  1  0
 25 26  1  0
 26 27  2  0
 27 28  1  0
 28 29  2  0
 28 30  1  0
 30 31  1  0
 22 32  1  0
 32 33  1  0
 33  4  1  0
 19  5  1  0
 31 25  2  0
 17 10  1  0
  1 34  1  0
  1 35  1  0
  1 36  1  0
  2 37  1  0
  2 38  1  0
  3 39  1  0
  3 40  1  0
  6 41  1  0
  6 42  1  0
  7 43  1  0
  7 44  1  0
  8 45  1  0
  9 46  1  0
  9 47  1  0
 11 48  1  0
 12 49  1  0
 17 50  1  0
 18 51  1  0
 18 52  1  0
 19 53  1  0
 19 54  1  0
 20 55  1  0
 20 56  1  0
 21 57  1  0
 21 58  1  0
 26 59  1  0
 27 60  1  0
 31 61  1  0
 32 62  1  0
 32 63  1  0
 33 64  1  0
 33 65  1  0
M  CHG  2   1   1  30  -1
M  END
>  <UniqueID>  (59) 
59

>  <SMILES>  (59) 
[NH3+]CCC1(N2CCC(Cc3ccc(Cl)c(Cl)c3)CC2)CCN(C(=O)c2ccc(=O)[n-]c2)CC1

>  <Energy>  (59) 
100.54220000203043

>  <Genealogy>  (59) 
[NH3+]CCC1(N2CCC(Cc3ccc(Cl)c(Cl)c3)CC2)CCN(C(=O)c2ccc(=O)[n-]c2)CC1 (protonated)
[NH3+]CCC1(N2CCC(Cc3ccc(Cl)c(Cl)c3)CC2)CCN(C(=O)c2ccc(=O)[n-]c2)CC1 (3D coordinates assigned)
[NH3+]CCC1(N2CCC(Cc3ccc(Cl)c(Cl)c3)CC2)CCN(C(=O)c2ccc(=O)[n-]c2)CC1 (nonaromatic ring conformer: 100.54220000203043 kcal/mol)

>  <smiles>  (59) 
NCCC1(N2CCC(Cc3ccc(Cl)c(Cl)c3)CC2)CCN(C(=O)c2ccc(=O)[nH]c2)CC1

>  <score_type>  (59) 
oracle

>  <origin>  (59) 
adg

>  <m_score__min__energy>  (59) 
-11.109999999999999

>  <m_primary>  (59) 
energy

$$$$
59:0
     RDKit          3D

 25 26  0  0  0  0  0  0  0  0999 V2000
   55.2530   30.0020   44.7160 O   0  0  0  0  0  0  0  0  0  0  0  0
   56.4270   29.5450   44.7870 C   0  0  0  0  0  0  0  0  0  0  0  0
   56.6230   28.2340   45.2420 C   0  0  0  0  0  0  0  0  0  0  0  0
   55.5390   27.4470   45.6170 O   0  0  0  0  0  0  0  0  0  0  0  0
   57.9150   27.7180   45.3170 C   0  0  0  0  0  0  0  0  0  0  0  0
   58.9960   28.5070   44.9360 C   0  0  0  0  0  0  0  0  0  0  0  0
   58.7720   29.8090   44.4870 C   0  0  0  0  0  0  0  0  0  0  0  0
   57.5030   30.3190   44.4210 N   0  0  0  0  0  0  0  0  0  0  0  0
   57.3110   31.6870   43.9110 C   0  0  0  0  0  0  0  0  0  0  0  0
   57.9280   32.6870   44.8530 C   0  0  0  0  0  0  0  0  0  0  0  0
   57.6810   32.6120   46.2350 C   0  0  0  0  0  0  0  0  0  0  0  0
   58.2300   33.5620   47.1020 C   0  0  0  0  0  0  0  0  0  0  0  0
   59.0230   34.5950   46.5960 C   0  0  0  0  0  0  0  0  0  0  0  0
   59.2670   34.6820   45.2230 C   0  0  0  0  0  0  0  0  0  0  0  0
   58.7190   33.7340   44.3520 C   0  0  0  0  0  0  0  0  0  0  0  0
   58.0798   26.6913   45.6759 H   0  0  0  0  0  0  0  0  0  0  0  0
   60.0195   28.1073   44.9884 H   0  0  0  0  0  0  0  0  0  0  0  0
   59.6250   30.4331   44.1824 H   0  0  0  0  0  0  0  0  0  0  0  0
   57.7876   31.7765   42.9236 H   0  0  0  0  0  0  0  0  0  0  0  0
   56.2331   31.8904   43.8288 H   0  0  0  0  0  0  0  0  0  0  0  0
   57.0532   31.8026   46.6360 H   0  0  0  0  0  0  0  0  0  0  0  0
   58.0374   33.4959   48.1830 H   0  0  0  0  0  0  0  0  0  0  0  0
   59.4557   35.3406   47.2793 H   0  0  0  0  0  0  0  0  0  0  0  0
   59.8906   35.4967   44.8264 H   0  0  0  0  0  0  0  0  0  0  0  0
   58.9083   33.8089   43.2710 H   0  0  0  0  0  0  0  0  0  0  0  0
  1  2  2  0
  2  3  1  0
  3  4  1  0
  3  5  2  0
  5  6  1  0
  6  7  2  0
  7  8  1  0
  8  9  1  0
  9 10  1  0
 10 11  2  0
 11 12  1  0
 12 13  2  0
 13 14  1  0
 14 15  2  0
  8  2  1  0
 15 10  1  0
  5 16  1  0
  6 17  1  0
  7 18  1  0
  9 19  1  0
  9 20  1  0
 11 21  1  0
 12 22  1  0
 13 23  1  0
 14 24  1  0
 15 25  1  0
M  CHG  1   4  -1
M  END
>  <UniqueID>  (60) 
60

>  <SMILES>  (60) 
O=c1c([O-])cccn1Cc1ccccc1

>  <Energy>  (60) 
27.6481962938099

>  <Genealogy>  (60) 
O=c1c([O-])cccn1Cc1ccccc1 (protonated)
O=c1c([O-])cccn1Cc1ccccc1 (3D coordinates assigned)
O=c1c([O-])cccn1Cc1ccccc1 (optimized conformer: 27.6481962938099 kcal/mol)

>  <smiles>  (60) 
O=c1c(O)cccn1Cc1ccccc1

>  <score_type>  (60) 
oracle

>  <origin>  (60) 
adg

>  <m_score__min__energy>  (60) 
-10.199999999999999

>  <m_primary>  (60) 
energy

$$$$
60:0
     RDKit          3D

 47 49  0  0  0  0  0  0  0  0999 V2000
   55.8650   29.3540   42.6040 O   0  0  0  0  0  0  0  0  0  0  0  0
   56.1620   29.5900   43.8140 C   0  0  0  0  0  0  0  0  0  0  0  0
   55.8210   28.7360   44.8530 O   0  0  0  0  0  0  0  0  0  0  0  0
   56.8890   28.1690   45.6030 C   0  0  0  0  0  0  0  0  0  0  0  0
   56.6400   26.7390   45.8950 C   0  0  0  0  0  0  0  0  0  0  0  0
   55.4430   26.3910   46.0660 O   0  0  0  0  0  0  0  0  0  0  0  0
   57.6360   25.7460   45.9980 N   0  0  0  0  0  0  0  0  0  0  0  0
   57.1820   24.3900   46.3020 C   0  0  0  0  0  0  0  0  0  0  0  0
   57.0310   23.5380   45.1120 C   0  0  0  0  0  0  0  0  0  0  0  0
   56.0620   23.8520   44.1520 C   0  0  0  0  0  0  0  0  0  0  0  0
   55.8860   23.0770   43.0220 C   0  0  0  0  0  0  0  0  0  0  0  0
   56.6540   21.9600   42.7820 C   0  0  0  0  0  0  0  0  0  0  0  0
   57.6120   21.6390   43.7180 C   0  0  0  0  0  0  0  0  0  0  0  0
   57.7840   22.4170   44.8480 C   0  0  0  0  0  0  0  0  0  0  0  0
   59.0520   25.9560   45.8360 C   0  0  0  0  0  0  0  0  0  0  0  0
   59.5570   27.2600   46.2590 C   0  0  0  0  0  0  0  0  0  0  0  0
   59.5790   27.7350   47.5480 C   0  0  0  0  0  0  0  0  0  0  0  0
   60.0690   28.9860   47.8930 C   0  0  0  0  0  0  0  0  0  0  0  0
   60.5650   29.8180   46.9290 C   0  0  0  0  0  0  0  0  0  0  0  0
   60.5620   29.3830   45.6330 C   0  0  0  0  0  0  0  0  0  0  0  0
   60.0690   28.1240   45.2850 C   0  0  0  0  0  0  0  0  0  0  0  0
   56.9040   30.8260   44.1220 C   0  0  0  0  0  0  0  0  0  0  0  0
   57.4400   31.5860   43.1050 C   0  0  0  0  0  0  0  0  0  0  0  0
   58.1420   32.7520   43.3460 C   0  0  0  0  0  0  0  0  0  0  0  0
   58.2770   33.1140   44.6790 C   0  0  0  0  0  0  0  0  0  0  0  0
   58.9100   34.1710   44.9420 O   0  0  0  0  0  0  0  0  0  0  0  0
   57.7330   32.3340   45.6220 N   0  0  0  0  0  0  0  0  0  0  0  0
   57.0670   31.2270   45.3870 N   0  0  0  0  0  0  0  0  0  0  0  0
   57.8207   28.2600   45.0253 H   0  0  0  0  0  0  0  0  0  0  0  0
   56.9691   28.7099   46.5575 H   0  0  0  0  0  0  0  0  0  0  0  0
   57.9148   23.9207   46.9748 H   0  0  0  0  0  0  0  0  0  0  0  0
   56.1872   24.4790   46.7630 H   0  0  0  0  0  0  0  0  0  0  0  0
   55.4256   24.7368   44.3008 H   0  0  0  0  0  0  0  0  0  0  0  0
   55.1112   23.3601   42.2943 H   0  0  0  0  0  0  0  0  0  0  0  0
   56.5084   21.3486   41.8792 H   0  0  0  0  0  0  0  0  0  0  0  0
   58.2472   20.7541   43.5649 H   0  0  0  0  0  0  0  0  0  0  0  0
   58.5603   22.1257   45.5709 H   0  0  0  0  0  0  0  0  0  0  0  0
   59.5759   25.1859   46.4212 H   0  0  0  0  0  0  0  0  0  0  0  0
   59.2386   25.9019   44.7533 H   0  0  0  0  0  0  0  0  0  0  0  0
   59.1876   27.0896   48.3482 H   0  0  0  0  0  0  0  0  0  0  0  0
   60.0583   29.3089   48.9445 H   0  0  0  0  0  0  0  0  0  0  0  0
   60.9567   30.8124   47.1892 H   0  0  0  0  0  0  0  0  0  0  0  0
   60.9576   30.0409   44.8452 H   0  0  0  0  0  0  0  0  0  0  0  0
   60.0833   27.8074   44.2317 H   0  0  0  0  0  0  0  0  0  0  0  0
   57.3044   31.2531   42.0654 H   0  0  0  0  0  0  0  0  0  0  0  0
   58.5676   33.3561   42.5312 H   0  0  0  0  0  0  0  0  0  0  0  0
   57.8460   32.6270   46.6190 H   0  0  0  0  0  0  0  0  0  0  0  0
  1  2  2  0
  2  3  1  0
  3  4  1  0
  4  5  1  0
  5  6  2  0
  5  7  1  0
  7  8  1  0
  8  9  1  0
  9 10  2  0
 10 11  1  0
 11 12  2  0
 12 13  1  0
 13 14  2  0
  7 15  1  0
 15 16  1  0
 16 17  2  0
 17 18  1  0
 18 19  2  0
 19 20  1  0
 20 21  2  0
  2 22  1  0
 22 23  1  0
 23 24  2  0
 24 25  1  0
 25 26  2  0
 25 27  1  0
 27 28  1  0
 14  9  1  0
 21 16  1  0
 28 22  2  0
  4 29  1  0
  4 30  1  0
  8 31  1  0
  8 32  1  0
 10 33  1  0
 11 34  1  0
 12 35  1  0
 13 36  1  0
 14 37  1  0
 15 38  1  0
 15 39  1  0
 17 40  1  0
 18 41  1  0
 19 42  1  0
 20 43  1  0
 21 44  1  0
 23 45  1  0
 24 46  1  0
 27 47  1  0
M  END
>  <smiles>  (61) 
O=C(OCC(=O)N(Cc1ccccc1)Cc1ccccc1)c1ccc(=O)[nH]n1

>  <score_type>  (61) 
oracle

>  <origin>  (61) 
adg

>  <m_score__min__energy>  (61) 
-9.0399999999999991

>  <m_primary>  (61) 
energy

$$$$
61:0
     RDKit          3D

 50 54  0  0  0  0  0  0  0  0999 V2000
   60.3810   28.9810   45.8680 O   0  0  0  0  0  0  0  0  0  0  0  0
   59.5260   29.1230   46.7850 C   0  0  0  0  0  0  0  0  0  0  0  0
   59.8840   28.7320   48.1850 C   0  0  0  0  0  0  0  0  0  0  0  0
   60.0800   29.9270   48.9970 N   0  0  0  0  0  0  0  0  0  0  0  0
   59.1760   30.8890   49.2450 C   0  0  0  0  0  0  0  0  0  0  0  0
   59.7870   31.7660   50.1130 C   0  0  0  0  0  0  0  0  0  0  0  0
   59.1840   32.9950   50.7160 C   0  0  0  0  0  0  0  0  0  0  0  0
   59.6280   34.1630   50.0240 O   0  0  0  0  0  0  0  0  0  0  0  0
   59.9920   34.2360   48.6680 C   0  0  0  0  0  0  0  0  0  0  0  0
   59.0200   34.4960   47.6860 C   0  0  0  0  0  0  0  0  0  0  0  0
   59.3610   34.4120   46.3410 C   0  0  0  0  0  0  0  0  0  0  0  0
   58.4940   34.6360   45.4570 O   0  0  0  0  0  0  0  0  0  0  0  0
   60.5900   34.0780   45.9830 O   0  0  0  0  0  0  0  0  0  0  0  0
   61.5600   33.8480   46.8600 C   0  0  0  0  0  0  0  0  0  0  0  0
   62.8030   33.4530   46.3720 C   0  0  0  0  0  0  0  0  0  0  0  0
   63.8490   33.1770   47.2400 C   0  0  0  0  0  0  0  0  0  0  0  0
   63.6950   33.3680   48.6160 C   0  0  0  0  0  0  0  0  0  0  0  0
   64.7920   33.1360   49.4620 C   0  0  0  0  0  0  0  0  0  0  0  0
   64.6970   33.3970   50.8250 C   0  0  0  0  0  0  0  0  0  0  0  0
   63.5220   33.9210   51.3530 C   0  0  0  0  0  0  0  0  0  0  0  0
   62.4180   34.1500   50.5290 C   0  0  0  0  0  0  0  0  0  0  0  0
   62.4530   33.8250   49.1480 C   0  0  0  0  0  0  0  0  0  0  0  0
   61.3360   33.9880   48.2590 C   0  0  0  0  0  0  0  0  0  0  0  0
   61.0260   31.3090   50.3840 N   0  0  0  0  0  0  0  0  0  0  0  0
   61.1760   30.1870   49.6940 N   0  0  0  0  0  0  0  0  0  0  0  0
   58.1930   29.5630   46.4820 N   0  0  0  0  0  0  0  0  0  0  0  0
   57.7890   30.0840   45.2040 C   0  0  0  0  0  0  0  0  0  0  0  0
   58.4950   31.1350   44.5880 C   0  0  0  0  0  0  0  0  0  0  0  0
   58.0730   31.6430   43.3570 C   0  0  0  0  0  0  0  0  0  0  0  0
   56.9370   31.1190   42.7350 C   0  0  0  0  0  0  0  0  0  0  0  0
   56.2180   30.0910   43.3480 C   0  0  0  0  0  0  0  0  0  0  0  0
   56.6350   29.5780   44.5800 C   0  0  0  0  0  0  0  0  0  0  0  0
   55.9250   28.5770   45.1580 F   0  0  0  0  0  0  0  0  0  0  0  0
   59.0712   28.1279   48.6146 H   0  0  0  0  0  0  0  0  0  0  0  0
   60.8145   28.1456   48.1715 H   0  0  0  0  0  0  0  0  0  0  0  0
   58.1566   30.9614   48.8381 H   0  0  0  0  0  0  0  0  0  0  0  0
   58.0879   32.9300   50.6497 H   0  0  0  0  0  0  0  0  0  0  0  0
   59.4975   33.0649   51.7681 H   0  0  0  0  0  0  0  0  0  0  0  0
   57.9948   34.7646   47.9806 H   0  0  0  0  0  0  0  0  0  0  0  0
   62.9569   33.3589   45.2869 H   0  0  0  0  0  0  0  0  0  0  0  0
   64.8053   32.8056   46.8432 H   0  0  0  0  0  0  0  0  0  0  0  0
   65.7317   32.7456   49.0442 H   0  0  0  0  0  0  0  0  0  0  0  0
   65.5516   33.1888   51.4855 H   0  0  0  0  0  0  0  0  0  0  0  0
   63.4619   34.1564   52.4258 H   0  0  0  0  0  0  0  0  0  0  0  0
   61.5055   34.5899   50.9578 H   0  0  0  0  0  0  0  0  0  0  0  0
   57.4570   29.4170   47.2090 H   0  0  0  0  0  0  0  0  0  0  0  0
   59.3837   31.5584   45.0788 H   0  0  0  0  0  0  0  0  0  0  0  0
   58.6360   32.4568   42.8767 H   0  0  0  0  0  0  0  0  0  0  0  0
   56.6092   31.5161   41.7629 H   0  0  0  0  0  0  0  0  0  0  0  0
   55.3204   29.6833   42.8600 H   0  0  0  0  0  0  0  0  0  0  0  0
  1  2  2  0
  2  3  1  0
  3  4  1  0
  4  5  1  0
  5  6  2  0
  6  7  1  0
  7  8  1  0
  8  9  1  0
  9 10  2  0
 10 11  1  0
 11 12  2  0
 11 13  1  0
 13 14  1  0
 14 15  2  0
 15 16  1  0
 16 17  2  0
 17 18  1  0
 18 19  2  0
 19 20  1  0
 20 21  2  0
 21 22  1  0
 22 23  2  0
  6 24  1  0
 24 25  2  0
  2 26  1  0
 26 27  1  0
 27 28  2  0
 28 29  1  0
 29 30  2  0
 30 31  1  0
 31 32  2  0
 32 33  1  0
 25  4  1  0
 32 27  1  0
 23  9  1  0
 23 14  1  0
 22 17  1  0
  3 34  1  0
  3 35  1  0
  5 36  1  0
  7 37  1  0
  7 38  1  0
 10 39  1  0
 15 40  1  0
 16 41  1  0
 18 42  1  0
 19 43  1  0
 20 44  1  0
 21 45  1  0
 26 46  1  0
 28 47  1  0
 29 48  1  0
 30 49  1  0
 31 50  1  0
M  END
>  <UniqueID>  (62) 
61

>  <SMILES>  (62) 
O=C(Cn1cc(COc2cc(=O)oc3ccc4ccccc4c23)nn1)Nc1ccccc1F

>  <Energy>  (62) 
110.35282978745303

>  <Genealogy>  (62) 
O=C(Cn1cc(COc2cc(=O)oc3ccc4ccccc4c23)nn1)Nc1ccccc1F (3D coordinates assigned)
O=C(Cn1cc(COc2cc(=O)oc3ccc4ccccc4c23)nn1)Nc1ccccc1F (optimized conformer: 110.35282978745303 kcal/mol)

>  <smiles>  (62) 
O=C(Cn1cc(COc2cc(=O)oc3ccc4ccccc4c23)nn1)Nc1ccccc1F

>  <score_type>  (62) 
oracle

>  <origin>  (62) 
adg

>  <m_score__min__energy>  (62) 
-9.4399999999999995

>  <m_primary>  (62) 
energy

$$$$
62:0
     RDKit          3D

 44 45  0  0  0  0  0  0  0  0999 V2000
   56.3990   30.4080   52.4330 C   0  0  0  0  0  0  0  0  0  0  0  0
   57.3600   30.0800   51.4370 O   0  0  0  0  0  0  0  0  0  0  0  0
   58.2340   31.0240   50.8890 C   0  0  0  0  0  0  0  0  0  0  0  0
   57.7920   31.9910   50.2090 O   0  0  0  0  0  0  0  0  0  0  0  0
   59.7020   30.9120   51.1550 C   0  0  0  0  0  0  0  0  0  0  0  0
   60.4320   30.7550   49.9030 N   0  0  0  0  0  0  0  0  0  0  0  0
   60.0490   29.8300   48.8810 C   0  0  0  0  0  0  0  0  0  0  0  0
   60.7330   28.7870   48.7150 O   0  0  0  0  0  0  0  0  0  0  0  0
   58.9460   30.1390   48.0160 N   0  0  0  0  0  0  0  0  0  0  0  0
   58.8350   29.9600   46.7290 C   0  0  0  0  0  0  0  0  0  0  0  0
   59.2870   28.6870   46.0380 C   0  0  0  0  0  0  0  0  0  0  0  0
   58.3490   27.5500   46.3570 C   0  0  0  0  0  0  0  0  0  0  0  0
   58.8360   26.3850   46.9720 C   0  0  0  0  0  0  0  0  0  0  0  0
   57.9740   25.3240   47.2580 C   0  0  0  0  0  0  0  0  0  0  0  0
   56.6160   25.4100   46.9360 C   0  0  0  0  0  0  0  0  0  0  0  0
   55.7780   24.3360   47.2300 O   0  0  0  0  0  0  0  0  0  0  0  0
   56.1210   26.5730   46.3230 C   0  0  0  0  0  0  0  0  0  0  0  0
   54.7730   26.6800   45.9980 O   0  0  0  0  0  0  0  0  0  0  0  0
   56.9840   27.6370   46.0380 C   0  0  0  0  0  0  0  0  0  0  0  0
   58.0670   30.9670   45.9680 C   0  0  0  0  0  0  0  0  0  0  0  0
   57.1180   30.6130   45.2180 O   0  0  0  0  0  0  0  0  0  0  0  0
   58.4310   32.3510   46.0660 N   0  0  0  0  0  0  0  0  0  0  0  0
   59.4160   32.9070   46.9490 C   0  0  0  0  0  0  0  0  0  0  0  0
   59.0590   33.6990   48.0550 C   0  0  0  0  0  0  0  0  0  0  0  0
   60.0470   34.2020   48.9060 C   0  0  0  0  0  0  0  0  0  0  0  0
   61.3950   33.9130   48.6720 C   0  0  0  0  0  0  0  0  0  0  0  0
   62.6080   34.5650   49.7650 Cl  0  0  0  0  0  0  0  0  0  0  0  0
   61.7550   33.1010   47.5840 C   0  0  0  0  0  0  0  0  0  0  0  0
   63.4370   32.6980   47.2650 Cl  0  0  0  0  0  0  0  0  0  0  0  0
   60.7640   32.5960   46.7350 C   0  0  0  0  0  0  0  0  0  0  0  0
   56.8386   30.2580   53.4301 H   0  0  0  0  0  0  0  0  0  0  0  0
   56.0977   31.4598   52.3196 H   0  0  0  0  0  0  0  0  0  0  0  0
   55.5175   29.7598   52.3196 H   0  0  0  0  0  0  0  0  0  0  0  0
   60.0488   31.8224   51.6657 H   0  0  0  0  0  0  0  0  0  0  0  0
   59.8849   30.0318   51.7889 H   0  0  0  0  0  0  0  0  0  0  0  0
   59.3002   28.8508   44.9503 H   0  0  0  0  0  0  0  0  0  0  0  0
   60.2945   28.4273   46.3952 H   0  0  0  0  0  0  0  0  0  0  0  0
   59.9025   26.3078   47.2299 H   0  0  0  0  0  0  0  0  0  0  0  0
   58.3655   24.4156   47.7392 H   0  0  0  0  0  0  0  0  0  0  0  0
   54.7690   24.4260   47.2240 H   0  0  0  0  0  0  0  0  0  0  0  0
   56.5909   28.5471   45.5612 H   0  0  0  0  0  0  0  0  0  0  0  0
   58.0000   33.9230   48.2507 H   0  0  0  0  0  0  0  0  0  0  0  0
   59.7627   34.8285   49.7643 H   0  0  0  0  0  0  0  0  0  0  0  0
   61.0468   31.9487   45.8917 H   0  0  0  0  0  0  0  0  0  0  0  0
  1  2  1  0
  2  3  1  0
  3  4  2  0
  3  5  1  0
  5  6  1  0
  6  7  1  0
  7  8  2  0
  7  9  1  0
  9 10  2  3
 10 11  1  0
 11 12  1  0
 12 13  2  0
 13 14  1  0
 14 15  2  0
 15 16  1  0
 15 17  1  0
 17 18  1  0
 17 19  2  0
 10 20  1  0
 20 21  2  0
 20 22  1  0
 22 23  1  0
 23 24  2  0
 24 25  1  0
 25 26  2  0
 26 27  1  0
 26 28  1  0
 28 29  1  0
 28 30  2  0
 19 12  1  0
 30 23  1  0
  1 31  1  0
  1 32  1  0
  1 33  1  0
  5 34  1  0
  5 35  1  0
 11 36  1  0
 11 37  1  0
 13 38  1  0
 14 39  1  0
 16 40  1  0
 19 41  1  0
 24 42  1  0
 25 43  1  0
 30 44  1  0
M  CHG  3   6  -1  18  -1  22  -1
M  END
>  <UniqueID>  (63) 
62

>  <SMILES>  (63) 
COC(=O)C[N-]C(=O)N=C(Cc1ccc(O)c([O-])c1)C(=O)[N-]c1ccc(Cl)c(Cl)c1

>  <Energy>  (63) 
43.98718054599234

>  <Genealogy>  (63) 
COC(=O)C[N-]C(=O)N=C(Cc1ccc(O)c([O-])c1)C(=O)[N-]c1ccc(Cl)c(Cl)c1 (protonated)
COC(=O)C[N-]C(=O)N=C(Cc1ccc(O)c([O-])c1)C(=O)[N-]c1ccc(Cl)c(Cl)c1 (3D coordinates assigned)
COC(=O)C[N-]C(=O)N=C(Cc1ccc(O)c([O-])c1)C(=O)[N-]c1ccc(Cl)c(Cl)c1 (optimized conformer: 43.98718054599234 kcal/mol)

>  <smiles>  (63) 
COC(=O)CNC(=O)N=C(Cc1ccc(O)c(O)c1)C(=O)Nc1ccc(Cl)c(Cl)c1

>  <score_type>  (63) 
oracle

>  <origin>  (63) 
adg

>  <m_score__min__energy>  (63) 
-13.57

>  <m_primary>  (63) 
energy

$$$$
63:0
     RDKit          3D

 60 63  0  0  0  0  0  0  0  0999 V2000
   63.4300   32.2190   47.4330 C   0  0  0  0  0  0  0  0  0  0  0  0
   63.2950   32.1250   48.8480 O   0  0  0  0  0  0  0  0  0  0  0  0
   64.1160   32.7890   49.7740 C   0  0  0  0  0  0  0  0  0  0  0  0
   65.5210   32.6750   49.7330 C   0  0  0  0  0  0  0  0  0  0  0  0
   66.3140   33.3490   50.6640 C   0  0  0  0  0  0  0  0  0  0  0  0
   65.7220   34.1450   51.6440 C   0  0  0  0  0  0  0  0  0  0  0  0
   64.3330   34.2700   51.6970 C   0  0  0  0  0  0  0  0  0  0  0  0
   63.5200   33.5930   50.7720 C   0  0  0  0  0  0  0  0  0  0  0  0
   62.0250   33.7790   50.8450 C   0  0  0  0  0  0  0  0  0  0  0  0
   61.4580   33.8250   49.4990 N   0  0  0  0  0  0  0  0  0  0  0  0
   60.0400   33.8320   49.2620 C   0  0  0  0  0  0  0  0  0  0  0  0
   59.2460   33.9880   50.2300 O   0  0  0  0  0  0  0  0  0  0  0  0
   59.4950   33.6900   47.8920 C   0  0  0  0  0  0  0  0  0  0  0  0
   60.2390   34.0920   46.7700 C   0  0  0  0  0  0  0  0  0  0  0  0
   59.7050   33.9750   45.4850 C   0  0  0  0  0  0  0  0  0  0  0  0
   58.4110   33.4570   45.2930 C   0  0  0  0  0  0  0  0  0  0  0  0
   57.8010   33.3990   43.9870 N   0  0  0  0  0  0  0  0  0  0  0  0
   58.0270   32.3250   43.0120 C   0  0  2  0  0  0  0  0  0  0  0  0
   57.2990   32.5960   41.8430 O   0  0  0  0  0  0  0  0  0  0  0  0
   57.6460   30.9900   43.6020 C   0  0  0  0  0  0  0  0  0  0  0  0
   56.3790   30.5740   43.9820 C   0  0  0  0  0  0  0  0  0  0  0  0
   56.5660   29.3760   44.6380 C   0  0  0  0  0  0  0  0  0  0  0  0
   55.5580   28.6380   45.2460 O   0  0  0  0  0  0  0  0  0  0  0  0
   57.8690   29.0310   44.6510 N   0  0  0  0  0  0  0  0  0  0  0  0
   58.4780   27.9520   45.4240 C   0  0  0  0  0  0  0  0  0  0  0  0
   58.9880   28.4940   46.7340 C   0  0  0  0  0  0  0  0  0  0  0  0
   58.9130   29.8680   47.0120 C   0  0  0  0  0  0  0  0  0  0  0  0
   59.4360   30.3750   48.2050 C   0  0  0  0  0  0  0  0  0  0  0  0
   60.0450   29.5160   49.1240 C   0  0  0  0  0  0  0  0  0  0  0  0
   60.1430   28.1500   48.8460 C   0  0  0  0  0  0  0  0  0  0  0  0
   59.6220   27.6390   47.6540 C   0  0  0  0  0  0  0  0  0  0  0  0
   58.5360   30.0130   44.0160 C   0  0  0  0  0  0  0  0  0  0  0  0
   57.6840   33.0200   46.4100 C   0  0  0  0  0  0  0  0  0  0  0  0
   58.2190   33.1340   47.6960 C   0  0  0  0  0  0  0  0  0  0  0  0
   64.3102   32.8318   47.1886 H   0  0  0  0  0  0  0  0  0  0  0  0
   63.5553   31.2118   47.0089 H   0  0  0  0  0  0  0  0  0  0  0  0
   62.5288   32.6859   47.0089 H   0  0  0  0  0  0  0  0  0  0  0  0
   65.9958   32.0505   48.9619 H   0  0  0  0  0  0  0  0  0  0  0  0
   67.4090   33.2517   50.6242 H   0  0  0  0  0  0  0  0  0  0  0  0
   66.3500   34.6746   52.3755 H   0  0  0  0  0  0  0  0  0  0  0  0
   63.8710   34.9033   52.4687 H   0  0  0  0  0  0  0  0  0  0  0  0
   61.5805   32.9387   51.3984 H   0  0  0  0  0  0  0  0  0  0  0  0
   61.8049   34.7253   51.3608 H   0  0  0  0  0  0  0  0  0  0  0  0
   62.1180   33.9200   48.6960 H   0  0  0  0  0  0  0  0  0  0  0  0
   61.2506   34.5023   46.9049 H   0  0  0  0  0  0  0  0  0  0  0  0
   60.3009   34.2904   44.6158 H   0  0  0  0  0  0  0  0  0  0  0  0
   57.3000   34.2500   43.6430 H   0  0  0  0  0  0  0  0  0  0  0  0
   59.0956   32.2792   42.7551 H   0  0  0  0  0  0  0  0  0  0  0  0
   57.3400   31.7770   41.2820 H   0  0  0  0  0  0  0  0  0  0  0  0
   55.4255   31.0910   43.7986 H   0  0  0  0  0  0  0  0  0  0  0  0
   57.7272   27.1719   45.6181 H   0  0  0  0  0  0  0  0  0  0  0  0
   59.3161   27.5232   44.8551 H   0  0  0  0  0  0  0  0  0  0  0  0
   58.4407   30.5484   46.2881 H   0  0  0  0  0  0  0  0  0  0  0  0
   59.3682   31.4515   48.4208 H   0  0  0  0  0  0  0  0  0  0  0  0
   60.4474   29.9154   50.0666 H   0  0  0  0  0  0  0  0  0  0  0  0
   60.6306   27.4763   49.5660 H   0  0  0  0  0  0  0  0  0  0  0  0
   59.7080   26.5646   47.4344 H   0  0  0  0  0  0  0  0  0  0  0  0
   59.6233   30.0359   43.8510 H   0  0  0  0  0  0  0  0  0  0  0  0
   56.6837   32.5836   46.2726 H   0  0  0  0  0  0  0  0  0  0  0  0
   57.6368   32.7858   48.5619 H   0  0  0  0  0  0  0  0  0  0  0  0
  1  2  1  0
  2  3  1  0
  3  4  2  0
  4  5  1  0
  5  6  2  0
  6  7  1  0
  7  8  2  0
  8  9  1  0
  9 10  1  0
 10 11  1  0
 11 12  2  0
 11 13  1  0
 13 14  2  0
 14 15  1  0
 15 16  2  0
 16 17  1  0
 17 18  1  0
 18 19  1  0
 18 20  1  0
 20 21  1  0
 21 22  2  0
 22 23  1  0
 22 24  1  0
 24 25  1  0
 25 26  1  0
 26 27  2  0
 27 28  1  0
 28 29  2  0
 29 30  1  0
 30 31  2  0
 24 32  1  0
 16 33  1  0
 33 34  2  0
  8  3  1  0
 34 13  1  0
 32 20  2  0
 31 26  1  0
  1 35  1  0
  1 36  1  0
  1 37  1  0
  4 38  1  0
  5 39  1  0
  6 40  1  0
  7 41  1  0
  9 42  1  0
  9 43  1  0
 10 44  1  0
 14 45  1  0
 15 46  1  0
 17 47  1  0
 18 48  1  6
 19 49  1  0
 21 50  1  0
 25 51  1  0
 25 52  1  0
 27 53  1  0
 28 54  1  0
 29 55  1  0
 30 56  1  0
 31 57  1  0
 32 58  1  0
 33 59  1  0
 34 60  1  0
M  CHG  1  23  -1
M  END
>  <UniqueID>  (64) 
63

>  <SMILES>  (64) 
COc1ccccc1CNC(=O)c1ccc(N[C@H](O)c2cc([O-])n(Cc3ccccc3)c2)cc1

>  <Energy>  (64) 
86.60540337747707

>  <Genealogy>  (64) 
COc1ccccc1CNC(=O)c1ccc(NC(O)c2cc([O-])n(Cc3ccccc3)c2)cc1 (protonated)
COc1ccccc1CNC(=O)c1ccc(N[C@H](O)c2cc([O-])n(Cc3ccccc3)c2)cc1 (chirality)
COc1ccccc1CNC(=O)c1ccc(N[C@H](O)c2cc([O-])n(Cc3ccccc3)c2)cc1 (3D coordinates assigned)
COc1ccccc1CNC(=O)c1ccc(N[C@H](O)c2cc([O-])n(Cc3ccccc3)c2)cc1 (optimized conformer: 86.60540337747707 kcal/mol)

>  <smiles>  (64) 
COc1ccccc1CNC(=O)c1ccc(NC(O)c2cc(O)n(Cc3ccccc3)c2)cc1

>  <score_type>  (64) 
oracle

>  <origin>  (64) 
adg

>  <m_score__min__energy>  (64) 
-11.529999999999999

>  <m_primary>  (64) 
energy

$$$$
64:0
     RDKit          3D

 53 55  0  0  0  0  0  0  0  0999 V2000
   56.3350   22.7780   42.9910 C   0  0  0  0  0  0  0  0  0  0  0  0
   56.7780   22.1840   44.1010 C   0  0  0  0  0  0  0  0  0  0  0  0
   55.8300   21.4980   45.0460 C   0  0  0  0  0  0  0  0  0  0  0  0
   55.5770   22.3430   46.2200 N   0  0  0  0  0  0  0  0  0  0  0  0
   55.2140   21.7420   47.5050 C   0  0  0  0  0  0  0  0  0  0  0  0
   55.6580   23.7770   46.1270 C   0  0  0  0  0  0  0  0  0  0  0  0
   56.8090   24.5370   46.1070 C   0  0  0  0  0  0  0  0  0  0  0  0
   56.3340   25.8300   45.9830 C   0  0  0  0  0  0  0  0  0  0  0  0
   57.1410   27.0530   45.8440 C   0  0  0  0  0  0  0  0  0  0  0  0
   57.4030   27.7330   46.8720 O   0  0  0  0  0  0  0  0  0  0  0  0
   57.6100   27.4840   44.5570 N   0  0  0  0  0  0  0  0  0  0  0  0
   57.8120   28.9000   44.2410 C   0  0  2  0  0  0  0  0  0  0  0  0
   59.2740   29.3050   44.5040 C   0  0  0  0  0  0  0  0  0  0  0  0
   59.8230   28.6070   45.7220 C   0  0  0  0  0  0  0  0  0  0  0  0
   59.8130   29.2490   46.9730 C   0  0  0  0  0  0  0  0  0  0  0  0
   60.2480   28.5730   48.1160 C   0  0  0  0  0  0  0  0  0  0  0  0
   60.6960   27.2540   48.0200 C   0  0  0  0  0  0  0  0  0  0  0  0
   60.7110   26.6080   46.7820 C   0  0  0  0  0  0  0  0  0  0  0  0
   60.2730   27.2800   45.6360 C   0  0  0  0  0  0  0  0  0  0  0  0
   56.8740   29.7380   45.0640 C   0  0  0  0  0  0  0  0  0  0  0  0
   55.6330   29.6940   44.8420 O   0  0  0  0  0  0  0  0  0  0  0  0
   57.4080   30.6410   46.0400 N   0  0  0  0  0  0  0  0  0  0  0  0
   57.8750   31.9750   45.7980 C   0  0  0  0  0  0  0  0  0  0  0  0
   57.0280   32.8760   45.1370 C   0  0  0  0  0  0  0  0  0  0  0  0
   57.4530   34.1790   44.8640 C   0  0  0  0  0  0  0  0  0  0  0  0
   58.7360   34.5880   45.2370 C   0  0  0  0  0  0  0  0  0  0  0  0
   59.5980   33.6920   45.8760 C   0  0  0  0  0  0  0  0  0  0  0  0
   59.1750   32.3870   46.1510 C   0  0  0  0  0  0  0  0  0  0  0  0
   54.9860   25.8140   45.9320 N   0  0  0  0  0  0  0  0  0  0  0  0
   54.6160   24.5700   46.0250 O   0  0  0  0  0  0  0  0  0  0  0  0
   57.0442   23.2745   42.3124 H   0  0  0  0  0  0  0  0  0  0  0  0
   55.2607   22.7711   42.7548 H   0  0  0  0  0  0  0  0  0  0  0  0
   57.8541   22.1963   44.3285 H   0  0  0  0  0  0  0  0  0  0  0  0
   54.8794   21.3032   44.5279 H   0  0  0  0  0  0  0  0  0  0  0  0
   56.2802   20.5509   45.3783 H   0  0  0  0  0  0  0  0  0  0  0  0
   55.5936   22.3705   48.3240 H   0  0  0  0  0  0  0  0  0  0  0  0
   54.1190   21.6663   47.5781 H   0  0  0  0  0  0  0  0  0  0  0  0
   55.6566   20.7376   47.5781 H   0  0  0  0  0  0  0  0  0  0  0  0
   57.8529   24.1967   46.1736 H   0  0  0  0  0  0  0  0  0  0  0  0
   57.6250   26.7990   43.7680 H   0  0  0  0  0  0  0  0  0  0  0  0
   57.5979   29.0668   43.1750 H   0  0  0  0  0  0  0  0  0  0  0  0
   59.8841   29.0339   43.6298 H   0  0  0  0  0  0  0  0  0  0  0  0
   59.3082   30.3903   44.6798 H   0  0  0  0  0  0  0  0  0  0  0  0
   59.4611   30.2882   47.0522 H   0  0  0  0  0  0  0  0  0  0  0  0
   60.2375   29.0803   49.0920 H   0  0  0  0  0  0  0  0  0  0  0  0
   61.0376   26.7230   48.9208 H   0  0  0  0  0  0  0  0  0  0  0  0
   61.0675   25.5700   46.7080 H   0  0  0  0  0  0  0  0  0  0  0  0
   60.2812   26.7665   44.6633 H   0  0  0  0  0  0  0  0  0  0  0  0
   56.0214   32.5548   44.8310 H   0  0  0  0  0  0  0  0  0  0  0  0
   56.7775   34.8827   44.3555 H   0  0  0  0  0  0  0  0  0  0  0  0
   59.0679   35.6156   45.0277 H   0  0  0  0  0  0  0  0  0  0  0  0
   60.6101   34.0133   46.1630 H   0  0  0  0  0  0  0  0  0  0  0  0
   59.8593   31.6809   46.6441 H   0  0  0  0  0  0  0  0  0  0  0  0
  1  2  2  0
  2  3  1  0
  3  4  1  0
  4  5  1  0
  4  6  1  0
  6  7  2  0
  7  8  1  0
  8  9  1  0
  9 10  2  0
  9 11  1  0
 11 12  1  0
 12 13  1  0
 13 14  1  0
 14 15  2  0
 15 16  1  0
 16 17  2  0
 17 18  1  0
 18 19  2  0
 12 20  1  0
 20 21  2  0
 20 22  1  0
 22 23  1  0
 23 24  2  0
 24 25  1  0
 25 26  2  0
 26 27  1  0
 27 28  2  0
  8 29  2  0
 29 30  1  0
 30  6  1  0
 19 14  1  0
 28 23  1  0
  1 31  1  0
  1 32  1  0
  2 33  1  0
  3 34  1  0
  3 35  1  0
  5 36  1  0
  5 37  1  0
  5 38  1  0
  7 39  1  0
 11 40  1  0
 12 41  1  6
 13 42  1  0
 13 43  1  0
 15 44  1  0
 16 45  1  0
 17 46  1  0
 18 47  1  0
 19 48  1  0
 24 49  1  0
 25 50  1  0
 26 51  1  0
 27 52  1  0
 28 53  1  0
M  CHG  1  22  -1
M  END
>  <UniqueID>  (65) 
64

>  <SMILES>  (65) 
C=CCN(C)c1cc(C(=O)N[C@H](Cc2ccccc2)C(=O)[N-]c2ccccc2)no1

>  <Energy>  (65) 
77.65771440616923

>  <Genealogy>  (65) 
C=CCN(C)c1cc(C(=O)NC(Cc2ccccc2)C(=O)[N-]c2ccccc2)no1 (protonated)
C=CCN(C)c1cc(C(=O)N[C@H](Cc2ccccc2)C(=O)[N-]c2ccccc2)no1 (chirality)
C=CCN(C)c1cc(C(=O)N[C@H](Cc2ccccc2)C(=O)[N-]c2ccccc2)no1 (3D coordinates assigned)
C=CCN(C)c1cc(C(=O)N[C@H](Cc2ccccc2)C(=O)[N-]c2ccccc2)no1 (optimized conformer: 77.65771440616923 kcal/mol)

>  <smiles>  (65) 
C=CCN(C)c1cc(C(=O)NC(Cc2ccccc2)C(=O)Nc2ccccc2)no1

>  <score_type>  (65) 
oracle

>  <origin>  (65) 
adg

>  <m_score__min__energy>  (65) 
-9.9700000000000006

>  <m_primary>  (65) 
energy

$$$$
65:0
     RDKit          3D

 27 27  0  0  0  0  0  0  0  0999 V2000
   57.7070   23.7310   44.2310 C   0  0  0  0  0  0  0  0  0  0  0  0
   56.2320   23.8730   44.5240 C   0  0  0  0  0  0  0  0  0  0  0  0
   55.7420   24.7760   45.5040 C   0  0  0  0  0  0  0  0  0  0  0  0
   56.6230   25.6080   46.3610 C   0  0  0  0  0  0  0  0  0  0  0  0
   57.0450   25.1600   47.4600 O   0  0  0  0  0  0  0  0  0  0  0  0
   56.9630   26.9460   45.9510 N   0  0  0  0  0  0  0  0  0  0  0  0
   57.7740   27.8430   46.7280 C   0  0  0  0  0  0  0  0  0  0  0  0
   58.2210   27.4980   47.8550 O   0  0  0  0  0  0  0  0  0  0  0  0
   58.1360   29.1930   46.1790 C   0  0  0  0  0  0  0  0  0  0  0  0
   57.6190   29.3770   44.7480 C   0  0  0  0  0  0  0  0  0  0  0  0
   56.1860   29.8130   44.7300 C   0  0  0  0  0  0  0  0  0  0  0  0
   55.2640   28.9660   44.8670 O   0  0  0  0  0  0  0  0  0  0  0  0
   55.8660   31.1480   44.5180 O   0  0  0  0  0  0  0  0  0  0  0  0
   54.3980   24.8880   45.6850 N   0  0  0  0  0  0  0  0  0  0  0  0
   53.5150   24.1470   44.9720 C   0  0  0  0  0  0  0  0  0  0  0  0
   51.9130   24.3180   45.2300 S   0  0  0  0  0  0  0  0  0  0  0  0
   53.9630   23.2570   44.0550 N   0  0  0  0  0  0  0  0  0  0  0  0
   55.2880   23.0990   43.8170 C   0  0  0  0  0  0  0  0  0  0  0  0
   55.6580   22.2570   42.9560 O   0  0  0  0  0  0  0  0  0  0  0  0
   58.2653   23.6773   45.1773 H   0  0  0  0  0  0  0  0  0  0  0  0
   57.8789   22.8122   43.6512 H   0  0  0  0  0  0  0  0  0  0  0  0
   58.0510   24.6002   43.6512 H   0  0  0  0  0  0  0  0  0  0  0  0
   56.6270   27.2810   45.0200 H   0  0  0  0  0  0  0  0  0  0  0  0
   57.6943   29.9696   46.8208 H   0  0  0  0  0  0  0  0  0  0  0  0
   59.2328   29.2747   46.1618 H   0  0  0  0  0  0  0  0  0  0  0  0
   58.2303   30.1395   44.2431 H   0  0  0  0  0  0  0  0  0  0  0  0
   57.6902   28.4093   44.2299 H   0  0  0  0  0  0  0  0  0  0  0  0
  1  2  1  0
  2  3  2  0
  3  4  1  0
  4  5  2  0
  4  6  1  0
  6  7  1  0
  7  8  2  0
  7  9  1  0
  9 10  1  0
 10 11  1  0
 11 12  2  0
 11 13  1  0
  3 14  1  0
 14 15  1  0
 15 16  2  0
 15 17  1  0
 17 18  1  0
 18 19  2  0
 18  2  1  0
  1 20  1  0
  1 21  1  0
  1 22  1  0
  6 23  1  0
  9 24  1  0
  9 25  1  0
 10 26  1  0
 10 27  1  0
M  CHG  3  13  -1  14  -1  17  -1
M  END
>  <UniqueID>  (66) 
65

>  <SMILES>  (66) 
Cc1c(C(=O)NC(=O)CCC(=O)[O-])[n-]c(=S)[n-]c1=O

>  <Energy>  (66) 
26.900359979728428

>  <Genealogy>  (66) 
Cc1c(C(=O)NC(=O)CCC(=O)[O-])[n-]c(=S)[n-]c1=O (protonated)
Cc1c(C(=O)NC(=O)CCC(=O)[O-])[n-]c(=S)[n-]c1=O (3D coordinates assigned)
Cc1c(C(=O)NC(=O)CCC(=O)[O-])[n-]c(=S)[n-]c1=O (optimized conformer: 26.900359979728428 kcal/mol)

>  <smiles>  (66) 
Cc1c(C(=O)NC(=O)CCC(=O)O)[nH]c(=S)[nH]c1=O

>  <score_type>  (66) 
oracle

>  <origin>  (66) 
adg

>  <m_score__min__energy>  (66) 
-12.789999999999999

>  <m_primary>  (66) 
energy

$$$$
66:0
     RDKit          3D

 41 43  0  0  1  0  0  0  0  0999 V2000
   56.2470   21.8060   42.2990 N   0  0  0  0  0  0  0  0  0  0  0  0
   57.0230   21.9580   43.2920 C   0  0  0  0  0  0  0  0  0  0  0  0
   57.7520   21.0730   44.0170 N   0  0  0  0  0  0  0  0  0  0  0  0
   58.4340   21.6880   44.9640 N   0  0  0  0  0  0  0  0  0  0  0  0
   58.1850   23.0030   44.9050 C   0  0  0  0  0  0  0  0  0  0  0  0
   58.6000   24.0910   45.6190 C   0  0  0  0  0  0  0  0  0  0  0  0
   58.1240   25.3200   45.2620 C   0  0  0  0  0  0  0  0  0  0  0  0
   58.5620   26.3570   45.9840 N   0  0  0  0  0  0  0  0  0  0  0  0
   58.0690   27.5920   45.7980 C   0  0  0  0  0  0  0  0  0  0  0  0
   56.6920   27.5500   45.5570 O   0  0  0  0  0  0  0  0  0  0  0  0
   58.3110   28.8620   45.7390 N   0  0  0  0  0  0  0  0  0  0  0  0
   58.2820   30.2850   45.6470 C   0  0  0  0  0  0  0  0  0  0  0  0
   57.0300   30.5430   45.5070 O   0  0  0  0  0  0  0  0  0  0  0  0
   59.4430   30.8930   45.7350 N   0  0  0  0  0  0  0  0  0  0  0  0
   58.8320   32.4870   45.9470 C   0  0  0  0  0  0  0  0  0  0  0  0
   57.6640   32.6020   45.9830 O   0  0  0  0  0  0  0  0  0  0  0  0
   59.8900   33.4770   46.0700 C   0  0  0  0  0  0  0  0  0  0  0  0
   60.3310   33.6120   47.5150 C   0  0  0  0  0  0  0  0  0  0  0  0
   59.4780   33.5770   48.5770 C   0  0  0  0  0  0  0  0  0  0  0  0
   59.9700   33.7220   49.8610 C   0  0  0  0  0  0  0  0  0  0  0  0
   61.3450   33.9020   50.1040 C   0  0  0  0  0  0  0  0  0  0  0  0
   62.1810   33.9330   49.0170 C   0  0  0  0  0  0  0  0  0  0  0  0
   61.7190   33.7920   47.7280 C   0  0  0  0  0  0  0  0  0  0  0  0
   62.8260   33.8400   46.3540 Cl  0  0  0  0  0  0  0  0  0  0  0  0
   57.2720   25.4980   44.2470 N   0  0  0  0  0  0  0  0  0  0  0  0
   56.8260   24.4570   43.5080 C   0  0  0  0  0  0  0  0  0  0  0  0
   57.3120   23.2090   43.8730 C   0  0  0  0  0  0  0  0  0  0  0  0
   56.2110   22.4760   41.4720 H   0  0  0  0  0  0  0  0  0  0  0  0
   57.7620   20.0480   43.8450 H   0  0  0  0  0  0  0  0  0  0  0  0
   59.0680   21.2820   45.6740 H   0  0  0  0  0  0  0  0  0  0  0  0
   59.2999   23.9799   46.4603 H   0  0  0  0  0  0  0  0  0  0  0  0
   57.0200   29.0410   45.5920 H   0  0  0  0  0  0  0  0  0  0  0  0
   60.2300   31.3060   45.7930 H   0  0  0  0  0  0  0  0  0  0  0  0
   60.7491   33.1657   45.4576 H   0  0  0  0  0  0  0  0  0  0  0  0
   59.5077   34.4487   45.7241 H   0  0  0  0  0  0  0  0  0  0  0  0
   58.3998   33.4336   48.4131 H   0  0  0  0  0  0  0  0  0  0  0  0
   59.2721   33.6962   50.7109 H   0  0  0  0  0  0  0  0  0  0  0  0
   61.7341   34.0136   51.1268 H   0  0  0  0  0  0  0  0  0  0  0  0
   63.2593   34.0756   49.1812 H   0  0  0  0  0  0  0  0  0  0  0  0
   56.9020   26.4360   43.9820 H   0  0  0  0  0  0  0  0  0  0  0  0
   56.1237   24.5905   42.6720 H   0  0  0  0  0  0  0  0  0  0  0  0
  1  2  2  3
  2  3  1  0
  3  4  1  0
  4  5  1  0
  5  6  2  0
  6  7  1  0
  7  8  2  0
  8  9  1  0
  9 10  2  0
  9 11  1  0
 11 12  1  0
 12 13  2  0
 12 14  1  0
 14 15  1  0
 15 16  2  0
 15 17  1  0
 17 18  1  0
 18 19  2  0
 19 20  1  0
 20 21  2  0
 21 22  1  0
 22 23  2  0
 23 24  1  0
  7 25  1  0
 25 26  1  0
 26 27  2  0
 27  2  1  0
 27  5  1  0
 23 18  1  0
  1 28  1  0
  3 29  1  0
  4 30  1  0
  6 31  1  0
 11 32  1  0
 14 33  1  0
 17 34  1  0
 17 35  1  0
 19 36  1  0
 20 37  1  0
 21 38  1  0
 22 39  1  0
 25 40  1  0
 26 41  1  0
M  END
>  <smiles>  (67) 
N=c1[nH][nH]c2cc(=NC(=O)NC(=O)NC(=O)Cc3ccccc3Cl)[nH]cc12

>  <score_type>  (67) 
oracle

>  <origin>  (67) 
adg

>  <m_score__min__energy>  (67) 
-9.1099999999999994

>  <m_primary>  (67) 
energy

$$$$
67:0
     RDKit          3D

 52 55  0  0  0  0  0  0  0  0999 V2000
   58.0940   28.0370   44.4470 O   0  0  0  0  0  0  0  0  0  0  0  0
   57.5820   28.4800   45.5090 C   0  0  0  0  0  0  0  0  0  0  0  0
   57.5450   27.5980   46.7260 C   0  0  0  0  0  0  0  0  0  0  0  0
   57.1260   26.2480   46.3540 N   0  0  0  0  0  0  0  0  0  0  0  0
   55.8780   25.8570   46.0150 C   0  0  0  0  0  0  0  0  0  0  0  0
   54.7710   26.6980   46.0040 O   0  0  0  0  0  0  0  0  0  0  0  0
   55.8700   24.5200   45.6680 C   0  0  0  0  0  0  0  0  0  0  0  0
   57.1750   24.0890   45.7500 C   0  0  0  0  0  0  0  0  0  0  0  0
   57.9190   25.1660   46.1890 C   0  0  0  0  0  0  0  0  0  0  0  0
   59.2900   25.1570   46.4220 O   0  0  0  0  0  0  0  0  0  0  0  0
   57.6090   22.6780   45.4910 C   0  0  0  0  0  0  0  0  0  0  0  0
   56.5430   21.9340   44.6620 C   0  0  0  0  0  0  0  0  0  0  0  0
   55.1170   22.1890   45.2000 C   0  0  0  0  0  0  0  0  0  0  0  0
   54.7430   23.6840   45.1460 C   0  0  0  0  0  0  0  0  0  0  0  0
   56.9900   29.7840   45.5000 N   0  0  0  0  0  0  0  0  0  0  0  0
   57.5430   30.9660   44.9010 C   0  0  0  0  0  0  0  0  0  0  0  0
   57.3010   31.2430   43.5420 C   0  0  0  0  0  0  0  0  0  0  0  0
   57.7820   32.4150   42.9590 C   0  0  0  0  0  0  0  0  0  0  0  0
   58.4930   33.3340   43.7270 C   0  0  0  0  0  0  0  0  0  0  0  0
   58.7220   33.0880   45.0820 C   0  0  0  0  0  0  0  0  0  0  0  0
   58.2510   31.9080   45.6910 C   0  0  0  0  0  0  0  0  0  0  0  0
   58.5260   31.6800   47.1360 C   0  0  0  0  0  0  0  0  0  0  0  0
   59.0020   30.5820   47.5350 O   0  0  0  0  0  0  0  0  0  0  0  0
   58.2650   32.7180   48.0860 N   0  0  0  0  0  0  0  0  0  0  0  0
   59.2750   33.2250   49.0050 C   0  0  0  0  0  0  0  0  0  0  0  0
   60.6290   33.1090   48.3690 C   0  0  0  0  0  0  0  0  0  0  0  0
   61.5030   32.0760   48.7460 C   0  0  0  0  0  0  0  0  0  0  0  0
   62.7500   31.9470   48.1250 C   0  0  0  0  0  0  0  0  0  0  0  0
   63.1260   32.8390   47.1170 C   0  0  0  0  0  0  0  0  0  0  0  0
   62.2550   33.8590   46.7250 C   0  0  0  0  0  0  0  0  0  0  0  0
   61.0070   33.9920   47.3440 C   0  0  0  0  0  0  0  0  0  0  0  0
   58.5477   27.5568   47.1764 H   0  0  0  0  0  0  0  0  0  0  0  0
   56.8271   28.0118   47.4495 H   0  0  0  0  0  0  0  0  0  0  0  0
   58.5590   22.6865   44.9366 H   0  0  0  0  0  0  0  0  0  0  0  0
   57.7389   22.1612   46.4533 H   0  0  0  0  0  0  0  0  0  0  0  0
   56.5974   22.2800   43.6193 H   0  0  0  0  0  0  0  0  0  0  0  0
   56.7470   20.8553   44.7316 H   0  0  0  0  0  0  0  0  0  0  0  0
   54.3995   21.6203   44.5903 H   0  0  0  0  0  0  0  0  0  0  0  0
   55.0856   21.8666   46.2512 H   0  0  0  0  0  0  0  0  0  0  0  0
   54.5324   23.9681   44.1044 H   0  0  0  0  0  0  0  0  0  0  0  0
   53.8528   23.8532   45.7697 H   0  0  0  0  0  0  0  0  0  0  0  0
   56.7270   30.5281   42.9342 H   0  0  0  0  0  0  0  0  0  0  0  0
   57.5999   32.6137   41.8925 H   0  0  0  0  0  0  0  0  0  0  0  0
   58.8751   34.2561   43.2647 H   0  0  0  0  0  0  0  0  0  0  0  0
   59.2770   33.8245   45.6816 H   0  0  0  0  0  0  0  0  0  0  0  0
   59.0662   34.2804   49.2343 H   0  0  0  0  0  0  0  0  0  0  0  0
   59.2539   32.6381   49.9351 H   0  0  0  0  0  0  0  0  0  0  0  0
   61.2060   31.3662   49.5321 H   0  0  0  0  0  0  0  0  0  0  0  0
   63.4353   31.1426   48.4305 H   0  0  0  0  0  0  0  0  0  0  0  0
   64.1081   32.7381   46.6319 H   0  0  0  0  0  0  0  0  0  0  0  0
   62.5507   34.5582   45.9289 H   0  0  0  0  0  0  0  0  0  0  0  0
   60.3200   34.7904   47.0270 H   0  0  0  0  0  0  0  0  0  0  0  0
  1  2  2  0
  2  3  1  0
  3  4  1  0
  4  5  1  0
  5  6  1  0
  5  7  2  0
  7  8  1  0
  8  9  2  0
  9 10  1  0
  8 11  1  0
 11 12  1  0
 12 13  1  0
 13 14  1  0
  2 15  1  0
 15 16  1  0
 16 17  2  0
 17 18  1  0
 18 19  2  0
 19 20  1  0
 20 21  2  0
 21 22  1  0
 22 23  2  0
 22 24  1  0
 24 25  1  0
 25 26  1  0
 26 27  2  0
 27 28  1  0
 28 29  2  0
 29 30  1  0
 30 31  2  0
  9  4  1  0
 21 16  1  0
 31 26  1  0
 14  7  1  0
  3 32  1  0
  3 33  1  0
 11 34  1  0
 11 35  1  0
 12 36  1  0
 12 37  1  0
 13 38  1  0
 13 39  1  0
 14 40  1  0
 14 41  1  0
 17 42  1  0
 18 43  1  0
 19 44  1  0
 20 45  1  0
 25 46  1  0
 25 47  1  0
 27 48  1  0
 28 49  1  0
 29 50  1  0
 30 51  1  0
 31 52  1  0
M  CHG  4   6  -1  10  -1  15  -1  24  -1
M  END
>  <UniqueID>  (68) 
66

>  <SMILES>  (68) 
O=C(Cn1c([O-])c2c(c1[O-])CCCC2)[N-]c1ccccc1C(=O)[N-]Cc1ccccc1

>  <Energy>  (68) 
88.18842598251376

>  <Genealogy>  (68) 
O=C(Cn1c([O-])c2c(c1[O-])CCCC2)[N-]c1ccccc1C(=O)[N-]Cc1ccccc1 (protonated)
O=C(Cn1c([O-])c2c(c1[O-])CCCC2)[N-]c1ccccc1C(=O)[N-]Cc1ccccc1 (3D coordinates assigned)
O=C(Cn1c([O-])c2c(c1[O-])CCCC2)[N-]c1ccccc1C(=O)[N-]Cc1ccccc1 (nonaromatic ring conformer: 88.18842598251376 kcal/mol)

>  <smiles>  (68) 
O=C(Cn1c(O)c2c(c1O)CCCC2)Nc1ccccc1C(=O)NCc1ccccc1

>  <score_type>  (68) 
oracle

>  <origin>  (68) 
adg

>  <m_score__min__energy>  (68) 
-16.41

>  <m_primary>  (68) 
energy

$$$$
68:0
     RDKit          3D

 28 30  0  0  0  0  0  0  0  0999 V2000
   62.6860   32.2080   47.3270 O   0  0  0  0  0  0  0  0  0  0  0  0
   61.6830   32.4250   48.0550 C   0  0  0  0  0  0  0  0  0  0  0  0
   60.5880   33.2950   47.6030 C   0  0  0  0  0  0  0  0  0  0  0  0
   60.3850   34.6100   48.0080 C   0  0  0  0  0  0  0  0  0  0  0  0
   59.2910   35.1280   47.4070 N   0  0  0  0  0  0  0  0  0  0  0  0
   58.8000   34.1510   46.6240 C   0  0  0  0  0  0  0  0  0  0  0  0
   57.6730   34.2180   45.8100 C   0  0  0  0  0  0  0  0  0  0  0  0
   57.3260   33.0770   45.0680 C   0  0  0  0  0  0  0  0  0  0  0  0
   58.1040   31.8910   45.1490 C   0  0  0  0  0  0  0  0  0  0  0  0
   57.7270   30.6900   44.3600 C   0  0  0  0  0  0  0  0  0  0  0  0
   56.7360   30.7680   43.3660 C   0  0  0  0  0  0  0  0  0  0  0  0
   56.3970   29.6270   42.6360 C   0  0  0  0  0  0  0  0  0  0  0  0
   57.0200   28.4440   42.8830 N   0  0  0  0  0  0  0  0  0  0  0  0
   57.9830   28.3380   43.8370 C   0  0  0  0  0  0  0  0  0  0  0  0
   58.3530   29.4540   44.5920 C   0  0  0  0  0  0  0  0  0  0  0  0
   59.2430   31.8630   45.9890 C   0  0  0  0  0  0  0  0  0  0  0  0
   59.5620   33.0150   46.7130 C   0  0  0  0  0  0  0  0  0  0  0  0
   61.6246   31.9550   49.0478 H   0  0  0  0  0  0  0  0  0  0  0  0
   61.0257   35.1528   48.7185 H   0  0  0  0  0  0  0  0  0  0  0  0
   58.9090   36.0910   47.5290 H   0  0  0  0  0  0  0  0  0  0  0  0
   57.0719   35.1372   45.7496 H   0  0  0  0  0  0  0  0  0  0  0  0
   56.4405   33.1020   44.4158 H   0  0  0  0  0  0  0  0  0  0  0  0
   56.2299   31.7236   43.1642 H   0  0  0  0  0  0  0  0  0  0  0  0
   55.6222   29.6855   41.8574 H   0  0  0  0  0  0  0  0  0  0  0  0
   56.7550   27.6000   42.3280 H   0  0  0  0  0  0  0  0  0  0  0  0
   58.4730   27.3694   44.0152 H   0  0  0  0  0  0  0  0  0  0  0  0
   59.1310   29.3651   45.3646 H   0  0  0  0  0  0  0  0  0  0  0  0
   59.8616   30.9570   46.0699 H   0  0  0  0  0  0  0  0  0  0  0  0
  1  2  2  0
  2  3  1  0
  3  4  2  0
  4  5  1  0
  5  6  1  0
  6  7  2  0
  7  8  1  0
  8  9  2  0
  9 10  1  0
 10 11  2  0
 11 12  1  0
 12 13  2  0
 13 14  1  0
 14 15  2  0
  9 16  1  0
 16 17  2  0
 17  3  1  0
 17  6  1  0
 15 10  1  0
  2 18  1  0
  4 19  1  0
  5 20  1  0
  7 21  1  0
  8 22  1  0
 11 23  1  0
 12 24  1  0
 13 25  1  0
 14 26  1  0
 15 27  1  0
 16 28  1  0
M  CHG  1  13   1
M  END
>  <UniqueID>  (69) 
67

>  <SMILES>  (69) 
O=Cc1c[nH]c2ccc(-c3cc[nH+]cc3)cc12

>  <Energy>  (69) 
68.930034781627

>  <Genealogy>  (69) 
O=Cc1c[nH]c2ccc(-c3cc[nH+]cc3)cc12 (protonated)
O=Cc1c[nH]c2ccc(-c3cc[nH+]cc3)cc12 (3D coordinates assigned)
O=Cc1c[nH]c2ccc(-c3cc[nH+]cc3)cc12 (optimized conformer: 68.930034781627 kcal/mol)

>  <smiles>  (69) 
O=Cc1c[nH]c2ccc(-c3ccncc3)cc12

>  <score_type>  (69) 
oracle

>  <origin>  (69) 
adg

>  <m_score__min__energy>  (69) 
-5.3200000000000003

>  <m_primary>  (69) 
energy

$$$$
69:0
     RDKit          3D

 43 45  0  0  0  0  0  0  0  0999 V2000
   54.8550   26.1820   45.9890 N   0  0  0  0  0  0  0  0  0  0  0  0
   56.4720   25.6240   46.2430 S   0  0  0  0  0  0  0  0  0  0  0  0
   56.9160   24.8050   45.0650 O   0  0  0  0  0  0  0  0  0  0  0  0
   56.5010   24.7620   47.4750 O   0  0  0  0  0  0  0  0  0  0  0  0
   57.5470   27.0080   46.4400 C   0  0  0  0  0  0  0  0  0  0  0  0
   58.6560   26.9390   47.2950 C   0  0  0  0  0  0  0  0  0  0  0  0
   59.4820   28.0510   47.4630 C   0  0  0  0  0  0  0  0  0  0  0  0
   59.2070   29.2400   46.7850 C   0  0  0  0  0  0  0  0  0  0  0  0
   58.1020   29.3270   45.9180 C   0  0  0  0  0  0  0  0  0  0  0  0
   57.8090   30.5870   45.1960 C   0  0  0  0  0  0  0  0  0  0  0  0
   56.6210   30.8670   44.8760 O   0  0  0  0  0  0  0  0  0  0  0  0
   58.8670   31.5150   44.9220 N   0  0  0  0  0  0  0  0  0  0  0  0
   59.1560   32.7210   45.6420 C   0  0  0  0  0  0  0  0  0  0  0  0
   58.9310   33.9930   45.0860 C   0  0  0  0  0  0  0  0  0  0  0  0
   59.2520   35.1410   45.8120 C   0  0  0  0  0  0  0  0  0  0  0  0
   59.7950   35.0350   47.0950 C   0  0  0  0  0  0  0  0  0  0  0  0
   60.0300   33.7720   47.6630 C   0  0  0  0  0  0  0  0  0  0  0  0
   60.6040   33.6630   49.0260 C   0  0  0  0  0  0  0  0  0  0  0  0
   61.8130   33.3410   49.1630 O   0  0  0  0  0  0  0  0  0  0  0  0
   59.8070   33.8660   50.2030 N   0  0  0  0  0  0  0  0  0  0  0  0
   58.9770   32.8790   50.8350 C   0  0  0  0  0  0  0  0  0  0  0  0
   58.9330   31.5520   50.3680 C   0  0  0  0  0  0  0  0  0  0  0  0
   58.1240   30.6070   51.0060 C   0  0  0  0  0  0  0  0  0  0  0  0
   57.3420   30.9800   52.1000 C   0  0  0  0  0  0  0  0  0  0  0  0
   57.3570   32.3020   52.5530 C   0  0  0  0  0  0  0  0  0  0  0  0
   58.1670   33.2550   51.9190 C   0  0  0  0  0  0  0  0  0  0  0  0
   58.1830   34.5750   52.3700 O   0  0  0  0  0  0  0  0  0  0  0  0
   59.7290   32.6200   46.9150 C   0  0  0  0  0  0  0  0  0  0  0  0
   57.2790   28.1970   45.7480 C   0  0  0  0  0  0  0  0  0  0  0  0
   54.7690   27.0990   46.4830 H   0  0  0  0  0  0  0  0  0  0  0  0
   58.8755   26.0060   47.8347 H   0  0  0  0  0  0  0  0  0  0  0  0
   60.3530   27.9906   48.1321 H   0  0  0  0  0  0  0  0  0  0  0  0
   59.8584   30.1146   46.9295 H   0  0  0  0  0  0  0  0  0  0  0  0
   58.5014   34.0833   44.0774 H   0  0  0  0  0  0  0  0  0  0  0  0
   59.0767   36.1338   45.3720 H   0  0  0  0  0  0  0  0  0  0  0  0
   60.0396   35.9448   47.6629 H   0  0  0  0  0  0  0  0  0  0  0  0
   59.5375   31.2572   49.4976 H   0  0  0  0  0  0  0  0  0  0  0  0
   58.1038   29.5681   50.6452 H   0  0  0  0  0  0  0  0  0  0  0  0
   56.7132   30.2328   52.6062 H   0  0  0  0  0  0  0  0  0  0  0  0
   56.7318   32.5957   53.4091 H   0  0  0  0  0  0  0  0  0  0  0  0
   58.6170   35.3150   51.8310 H   0  0  0  0  0  0  0  0  0  0  0  0
   59.9466   31.6271   47.3355 H   0  0  0  0  0  0  0  0  0  0  0  0
   56.4177   28.2480   45.0657 H   0  0  0  0  0  0  0  0  0  0  0  0
  1  2  1  0
  2  3  2  0
  2  4  2  0
  2  5  1  0
  5  6  2  0
  6  7  1  0
  7  8  2  0
  8  9  1  0
  9 10  1  0
 10 11  2  0
 10 12  1  0
 12 13  1  0
 13 14  2  0
 14 15  1  0
 15 16  2  0
 16 17  1  0
 17 18  1  0
 18 19  2  0
 18 20  1  0
 20 21  1  0
 21 22  2  0
 22 23  1  0
 23 24  2  0
 24 25  1  0
 25 26  2  0
 26 27  1  0
 17 28  2  0
  9 29  2  0
 29  5  1  0
 28 13  1  0
 26 21  1  0
  1 30  1  0
  6 31  1  0
  7 32  1  0
  8 33  1  0
 14 34  1  0
 15 35  1  0
 16 36  1  0
 22 37  1  0
 23 38  1  0
 24 39  1  0
 25 40  1  0
 27 41  1  0
 28 42  1  0
 29 43  1  0
M  CHG  3   1  -1  12  -1  20  -1
M  END
>  <UniqueID>  (70) 
68

>  <SMILES>  (70) 
[NH-]S(=O)(=O)c1cccc(C(=O)[N-]c2cccc(C(=O)[N-]c3ccccc3O)c2)c1

>  <Energy>  (70) 
56.99869930647079

>  <Genealogy>  (70) 
[NH-]S(=O)(=O)c1cccc(C(=O)[N-]c2cccc(C(=O)[N-]c3ccccc3O)c2)c1 (protonated)
[NH-]S(=O)(=O)c1cccc(C(=O)[N-]c2cccc(C(=O)[N-]c3ccccc3O)c2)c1 (3D coordinates assigned)
[NH-]S(=O)(=O)c1cccc(C(=O)[N-]c2cccc(C(=O)[N-]c3ccccc3O)c2)c1 (optimized conformer: 56.99869930647079 kcal/mol)

>  <smiles>  (70) 
NS(=O)(=O)c1cccc(C(=O)Nc2cccc(C(=O)Nc3ccccc3O)c2)c1

>  <score_type>  (70) 
oracle

>  <origin>  (70) 
adg

>  <m_score__min__energy>  (70) 
-14.32

>  <m_primary>  (70) 
energy

$$$$
70:0
     RDKit          3D

 55 58  0  0  0  0  0  0  0  0999 V2000
   59.1660   28.1420   44.4200 C   0  0  0  0  0  0  0  0  0  0  0  0
   58.0280   27.4990   45.1530 C   0  0  0  0  0  0  0  0  0  0  0  0
   58.0630   26.2750   45.7870 C   0  0  0  0  0  0  0  0  0  0  0  0
   56.7880   26.0680   46.2720 C   0  0  0  0  0  0  0  0  0  0  0  0
   56.0240   27.0900   45.9640 O   0  0  0  0  0  0  0  0  0  0  0  0
   56.7310   27.9670   45.2860 C   0  0  0  0  0  0  0  0  0  0  0  0
   56.1850   29.2450   44.7850 C   0  0  0  0  0  0  0  0  0  0  0  0
   54.9620   29.3420   44.5120 O   0  0  0  0  0  0  0  0  0  0  0  0
   57.0350   30.3700   44.5310 N   0  0  0  0  0  0  0  0  0  0  0  0
   57.7370   31.1320   45.5230 C   0  0  0  0  0  0  0  0  0  0  0  0
   58.4870   30.5080   46.5360 C   0  0  0  0  0  0  0  0  0  0  0  0
   59.1420   31.2760   47.5030 C   0  0  0  0  0  0  0  0  0  0  0  0
   59.0470   32.6730   47.4780 C   0  0  0  0  0  0  0  0  0  0  0  0
   59.9180   33.6150   48.6870 S   0  0  0  0  0  0  0  0  0  0  0  0
   59.8650   32.8480   49.9790 O   0  0  0  0  0  0  0  0  0  0  0  0
   59.2710   34.9570   48.8880 O   0  0  0  0  0  0  0  0  0  0  0  0
   61.5620   33.8480   48.1430 N   0  0  0  0  0  0  0  0  0  0  0  0
   61.7710   33.8760   46.6830 C   0  0  0  0  0  0  0  0  0  0  0  0
   63.2570   33.8530   46.2920 C   0  0  0  0  0  0  0  0  0  0  0  0
   64.0170   32.8210   47.1330 C   0  0  0  0  0  0  0  0  0  0  0  0
   63.8930   33.1860   48.5870 C   0  0  0  0  0  0  0  0  0  0  0  0
   64.9720   33.0020   49.4680 C   0  0  0  0  0  0  0  0  0  0  0  0
   64.8800   33.4230   50.8100 C   0  0  0  0  0  0  0  0  0  0  0  0
   65.9630   33.2530   51.7470 N   0  0  0  0  0  0  0  0  0  0  0  0
   67.5460   32.6590   51.3400 S   0  0  0  0  0  0  0  0  0  0  0  0
   68.6050   32.6830   52.7750 C   0  0  0  0  0  0  0  0  0  0  0  0
   68.1330   33.4920   50.2240 O   0  0  0  0  0  0  0  0  0  0  0  0
   67.4260   31.2340   50.8610 O   0  0  0  0  0  0  0  0  0  0  0  0
   63.6990   34.0420   51.2450 C   0  0  0  0  0  0  0  0  0  0  0  0
   62.6160   34.2070   50.3760 C   0  0  0  0  0  0  0  0  0  0  0  0
   62.6820   33.7300   49.0550 C   0  0  0  0  0  0  0  0  0  0  0  0
   58.2740   33.2980   46.4900 C   0  0  0  0  0  0  0  0  0  0  0  0
   57.6150   32.5280   45.5230 C   0  0  0  0  0  0  0  0  0  0  0  0
   59.8861   28.5489   45.1452 H   0  0  0  0  0  0  0  0  0  0  0  0
   59.6654   27.3926   43.7884 H   0  0  0  0  0  0  0  0  0  0  0  0
   58.7818   28.9565   43.7884 H   0  0  0  0  0  0  0  0  0  0  0  0
   58.9282   25.6029   45.8857 H   0  0  0  0  0  0  0  0  0  0  0  0
   56.4609   25.1799   46.8326 H   0  0  0  0  0  0  0  0  0  0  0  0
   58.5585   29.4108   46.5675 H   0  0  0  0  0  0  0  0  0  0  0  0
   59.7344   30.7811   48.2867 H   0  0  0  0  0  0  0  0  0  0  0  0
   61.2779   32.9978   46.2408 H   0  0  0  0  0  0  0  0  0  0  0  0
   61.3446   34.8173   46.3061 H   0  0  0  0  0  0  0  0  0  0  0  0
   63.3473   33.5901   45.2277 H   0  0  0  0  0  0  0  0  0  0  0  0
   63.6885   34.8482   46.4744 H   0  0  0  0  0  0  0  0  0  0  0  0
   63.5886   31.8217   46.9659 H   0  0  0  0  0  0  0  0  0  0  0  0
   65.0776   32.8128   46.8414 H   0  0  0  0  0  0  0  0  0  0  0  0
   65.8957   32.5257   49.1076 H   0  0  0  0  0  0  0  0  0  0  0  0
   65.7960   33.4750   52.7520 H   0  0  0  0  0  0  0  0  0  0  0  0
   67.9885   32.6690   53.6859 H   0  0  0  0  0  0  0  0  0  0  0  0
   69.2601   31.7995   52.7620 H   0  0  0  0  0  0  0  0  0  0  0  0
   69.2194   33.5953   52.7620 H   0  0  0  0  0  0  0  0  0  0  0  0
   63.6238   34.4018   52.2818 H   0  0  0  0  0  0  0  0  0  0  0  0
   61.7056   34.7138   50.7285 H   0  0  0  0  0  0  0  0  0  0  0  0
   58.1847   34.3943   46.4739 H   0  0  0  0  0  0  0  0  0  0  0  0
   56.9976   33.0225   44.7586 H   0  0  0  0  0  0  0  0  0  0  0  0
  1  2  1  0
  2  3  1  0
  3  4  2  0
  4  5  1  0
  5  6  1  0
  6  7  1  0
  7  8  2  0
  7  9  1  0
  9 10  1  0
 10 11  2  0
 11 12  1  0
 12 13  2  0
 13 14  1  0
 14 15  2  0
 14 16  2  0
 14 17  1  0
 17 18  1  0
 18 19  1  0
 19 20  1  0
 20 21  1  0
 21 22  2  0
 22 23  1  0
 23 24  1  0
 24 25  1  0
 25 26  1  0
 25 27  2  0
 25 28  2  0
 23 29  2  0
 29 30  1  0
 30 31  2  0
 13 32  1  0
 32 33  2  0
  6  2  2  0
 33 10  1  0
 31 17  1  0
 31 21  1  0
  1 34  1  0
  1 35  1  0
  1 36  1  0
  3 37  1  0
  4 38  1  0
 11 39  1  0
 12 40  1  0
 18 41  1  0
 18 42  1  0
 19 43  1  0
 19 44  1  0
 20 45  1  0
 20 46  1  0
 22 47  1  0
 24 48  1  0
 26 49  1  0
 26 50  1  0
 26 51  1  0
 29 52  1  0
 30 53  1  0
 32 54  1  0
 33 55  1  0
M  CHG  1   9  -1
M  END
>  <UniqueID>  (71) 
69

>  <SMILES>  (71) 
Cc1ccoc1C(=O)[N-]c1ccc(S(=O)(=O)N2CCCc3cc(NS(C)(=O)=O)ccc32)cc1

>  <Energy>  (71) 
94.54899388488519

>  <Genealogy>  (71) 
Cc1ccoc1C(=O)[N-]c1ccc(S(=O)(=O)N2CCCc3cc(NS(C)(=O)=O)ccc32)cc1 (protonated)
Cc1ccoc1C(=O)[N-]c1ccc(S(=O)(=O)N2CCCc3cc(NS(C)(=O)=O)ccc32)cc1 (3D coordinates assigned)
Cc1ccoc1C(=O)[N-]c1ccc(S(=O)(=O)N2CCCc3cc(NS(C)(=O)=O)ccc32)cc1 (nonaromatic ring conformer: 94.54899388488519 kcal/mol)

>  <smiles>  (71) 
Cc1ccoc1C(=O)Nc1ccc(S(=O)(=O)N2CCCc3cc(NS(C)(=O)=O)ccc32)cc1

>  <score_type>  (71) 
oracle

>  <origin>  (71) 
adg

>  <m_score__min__energy>  (71) 
-11.49

>  <m_primary>  (71) 
energy

$$$$
71:0
     RDKit          3D

 46 48  0  0  0  0  0  0  0  0999 V2000
   58.4280   26.4520   47.2420 C   0  0  0  0  0  0  0  0  0  0  0  0
   57.6800   25.4260   46.4370 C   0  0  0  0  0  0  0  0  0  0  0  0
   58.2000   24.1280   46.2970 C   0  0  0  0  0  0  0  0  0  0  0  0
   57.5090   23.1650   45.5590 C   0  0  0  0  0  0  0  0  0  0  0  0
   56.2950   23.4890   44.9500 C   0  0  0  0  0  0  0  0  0  0  0  0
   55.7660   24.7750   45.0840 C   0  0  0  0  0  0  0  0  0  0  0  0
   56.4400   25.7460   45.8460 C   0  0  0  0  0  0  0  0  0  0  0  0
   55.9070   27.0730   45.9810 N   0  0  0  0  0  0  0  0  0  0  0  0
   56.3350   28.2280   45.2470 C   0  0  0  0  0  0  0  0  0  0  0  0
   55.5130   29.1690   45.0770 O   0  0  0  0  0  0  0  0  0  0  0  0
   57.6820   28.3040   44.6260 C   0  0  0  0  0  0  0  0  0  0  0  0
   57.9550   27.5020   43.4540 C   0  0  0  0  0  0  0  0  0  0  0  0
   58.1740   26.8600   42.5160 N   0  0  0  0  0  0  0  0  0  0  0  0
   58.6020   29.1670   45.0960 C   0  0  0  0  0  0  0  0  0  0  0  0
   58.3790   30.6290   45.1960 C   0  0  0  0  0  0  0  0  0  0  0  0
   57.7700   31.3630   44.1630 C   0  0  0  0  0  0  0  0  0  0  0  0
   57.3800   30.7700   42.9610 O   0  0  0  0  0  0  0  0  0  0  0  0
   57.5720   32.6930   44.3200 N   0  0  0  0  0  0  0  0  0  0  0  0
   57.9640   33.3500   45.4390 C   0  0  0  0  0  0  0  0  0  0  0  0
   57.7470   34.5890   45.5220 O   0  0  0  0  0  0  0  0  0  0  0  0
   58.5880   32.6750   46.4580 N   0  0  0  0  0  0  0  0  0  0  0  0
   59.0600   33.4000   47.6560 C   0  0  0  0  0  0  0  0  0  0  0  0
   60.5610   33.5370   47.6330 C   0  0  0  0  0  0  0  0  0  0  0  0
   61.2430   33.6790   46.4130 C   0  0  0  0  0  0  0  0  0  0  0  0
   62.6330   33.8380   46.3960 C   0  0  0  0  0  0  0  0  0  0  0  0
   63.3490   33.8600   47.5960 C   0  0  0  0  0  0  0  0  0  0  0  0
   62.6780   33.7220   48.8140 C   0  0  0  0  0  0  0  0  0  0  0  0
   61.2890   33.5640   48.8340 C   0  0  0  0  0  0  0  0  0  0  0  0
   58.8050   31.3240   46.3400 C   0  0  0  0  0  0  0  0  0  0  0  0
   59.3790   30.6880   47.2690 O   0  0  0  0  0  0  0  0  0  0  0  0
   58.2833   26.2535   48.3142 H   0  0  0  0  0  0  0  0  0  0  0  0
   59.4998   26.3975   47.0004 H   0  0  0  0  0  0  0  0  0  0  0  0
   58.0483   27.4557   47.0004 H   0  0  0  0  0  0  0  0  0  0  0  0
   59.1578   23.8689   46.7720 H   0  0  0  0  0  0  0  0  0  0  0  0
   57.9213   22.1503   45.4573 H   0  0  0  0  0  0  0  0  0  0  0  0
   55.7546   22.7309   44.3641 H   0  0  0  0  0  0  0  0  0  0  0  0
   54.8165   25.0297   44.5905 H   0  0  0  0  0  0  0  0  0  0  0  0
   59.5722   28.7654   45.4237 H   0  0  0  0  0  0  0  0  0  0  0  0
   57.7810   29.9070   42.6200 H   0  0  0  0  0  0  0  0  0  0  0  0
   58.6054   34.4015   47.6755 H   0  0  0  0  0  0  0  0  0  0  0  0
   58.7682   32.8335   48.5526 H   0  0  0  0  0  0  0  0  0  0  0  0
   60.6818   33.6651   45.4670 H   0  0  0  0  0  0  0  0  0  0  0  0
   63.1624   33.9457   45.4378 H   0  0  0  0  0  0  0  0  0  0  0  0
   64.4417   33.9861   47.5817 H   0  0  0  0  0  0  0  0  0  0  0  0
   63.2430   33.7377   49.7577 H   0  0  0  0  0  0  0  0  0  0  0  0
   60.7637   33.4603   49.7949 H   0  0  0  0  0  0  0  0  0  0  0  0
  1  2  1  0
  2  3  2  0
  3  4  1  0
  4  5  2  0
  5  6  1  0
  6  7  2  0
  7  8  1  0
  8  9  1  0
  9 10  2  0
  9 11  1  0
 11 12  1  0
 12 13  3  0
 11 14  2  3
 14 15  1  0
 15 16  2  0
 16 17  1  0
 16 18  1  0
 18 19  1  0
 19 20  2  0
 19 21  1  0
 21 22  1  0
 22 23  1  0
 23 24  2  0
 24 25  1  0
 25 26  2  0
 26 27  1  0
 27 28  2  0
 21 29  1  0
 29 30  2  0
  7  2  1  0
 29 15  1  0
 28 23  1  0
  1 31  1  0
  1 32  1  0
  1 33  1  0
  3 34  1  0
  4 35  1  0
  5 36  1  0
  6 37  1  0
 14 38  1  0
 17 39  1  0
 22 40  1  0
 22 41  1  0
 24 42  1  0
 25 43  1  0
 26 44  1  0
 27 45  1  0
 28 46  1  0
M  CHG  2   8  -1  18  -1
M  END
>  <UniqueID>  (72) 
70

>  <SMILES>  (72) 
Cc1ccccc1[N-]C(=O)C(C#N)=Cc1c(O)[n-]c(=O)n(Cc2ccccc2)c1=O

>  <Energy>  (72) 
66.91227465104441

>  <Genealogy>  (72) 
Cc1ccccc1[N-]C(=O)C(C#N)=Cc1c(O)[n-]c(=O)n(Cc2ccccc2)c1=O (protonated)
Cc1ccccc1[N-]C(=O)C(C#N)=Cc1c(O)[n-]c(=O)n(Cc2ccccc2)c1=O (3D coordinates assigned)
Cc1ccccc1[N-]C(=O)C(C#N)=Cc1c(O)[n-]c(=O)n(Cc2ccccc2)c1=O (optimized conformer: 66.91227465104441 kcal/mol)

>  <smiles>  (72) 
Cc1ccccc1NC(=O)C(C#N)=Cc1c(O)[nH]c(=O)n(Cc2ccccc2)c1=O

>  <score_type>  (72) 
oracle

>  <origin>  (72) 
adg

>  <m_score__min__energy>  (72) 
-12.539999999999999

>  <m_primary>  (72) 
energy

$$$$
72:0
     RDKit          3D

 39 41  0  0  0  0  0  0  0  0999 V2000
   57.2080   33.8340   45.8460 C   0  0  0  0  0  0  0  0  0  0  0  0
   58.8710   34.3830   46.1520 S   0  0  0  0  0  0  0  0  0  0  0  0
   59.4160   35.0320   44.9090 O   0  0  0  0  0  0  0  0  0  0  0  0
   58.8760   35.3910   47.2650 O   0  0  0  0  0  0  0  0  0  0  0  0
   59.8670   33.0020   46.6020 C   0  0  0  0  0  0  0  0  0  0  0  0
   60.9710   33.1650   47.4490 C   0  0  0  0  0  0  0  0  0  0  0  0
   61.7480   32.0610   47.8070 C   0  0  0  0  0  0  0  0  0  0  0  0
   61.4380   30.7940   47.3080 C   0  0  0  0  0  0  0  0  0  0  0  0
   60.3620   30.6200   46.4290 C   0  0  0  0  0  0  0  0  0  0  0  0
   60.0680   29.2960   45.9530 N   0  0  0  0  0  0  0  0  0  0  0  0
   58.8930   28.7440   45.8800 C   0  0  0  0  0  0  0  0  0  0  0  0
   57.8100   29.3250   45.3160 N   0  0  0  0  0  0  0  0  0  0  0  0
   56.7290   28.5030   45.3440 C   0  0  0  0  0  0  0  0  0  0  0  0
   55.4920   28.9360   44.8740 O   0  0  0  0  0  0  0  0  0  0  0  0
   56.9630   27.2410   45.9080 C   0  0  0  0  0  0  0  0  0  0  0  0
   56.0180   26.1190   46.0410 C   0  0  0  0  0  0  0  0  0  0  0  0
   54.7850   26.3440   45.9330 O   0  0  0  0  0  0  0  0  0  0  0  0
   56.4550   24.7740   46.2810 N   0  0  0  0  0  0  0  0  0  0  0  0
   56.6400   23.7530   45.2890 C   0  0  0  0  0  0  0  0  0  0  0  0
   56.0560   23.8450   44.0120 C   0  0  0  0  0  0  0  0  0  0  0  0
   56.2670   22.8350   43.0680 C   0  0  0  0  0  0  0  0  0  0  0  0
   57.0730   21.7380   43.3830 C   0  0  0  0  0  0  0  0  0  0  0  0
   57.6750   21.6540   44.6420 C   0  0  0  0  0  0  0  0  0  0  0  0
   57.4660   22.6620   45.5880 C   0  0  0  0  0  0  0  0  0  0  0  0
   58.5690   27.1870   46.4150 S   0  0  0  0  0  0  0  0  0  0  0  0
   59.5600   31.7300   46.0970 C   0  0  0  0  0  0  0  0  0  0  0  0
   56.6955   33.6648   46.8045 H   0  0  0  0  0  0  0  0  0  0  0  0
   56.6682   34.6016   45.2721 H   0  0  0  0  0  0  0  0  0  0  0  0
   57.2313   32.8959   45.2721 H   0  0  0  0  0  0  0  0  0  0  0  0
   61.2262   34.1639   47.8326 H   0  0  0  0  0  0  0  0  0  0  0  0
   62.6059   32.1897   48.4834 H   0  0  0  0  0  0  0  0  0  0  0  0
   62.0437   29.9261   47.6078 H   0  0  0  0  0  0  0  0  0  0  0  0
   54.7720   28.2900   44.5790 H   0  0  0  0  0  0  0  0  0  0  0  0
   55.4318   24.7137   43.7556 H   0  0  0  0  0  0  0  0  0  0  0  0
   55.7975   22.9043   42.0756 H   0  0  0  0  0  0  0  0  0  0  0  0
   57.2337   20.9416   42.6414 H   0  0  0  0  0  0  0  0  0  0  0  0
   58.3142   20.7934   44.8887 H   0  0  0  0  0  0  0  0  0  0  0  0
   57.9528   22.5980   46.5723 H   0  0  0  0  0  0  0  0  0  0  0  0
   58.6888   31.5983   45.4385 H   0  0  0  0  0  0  0  0  0  0  0  0
  1  2  1  0
  2  3  2  0
  2  4  2  0
  2  5  1  0
  5  6  2  0
  6  7  1  0
  7  8  2  0
  8  9  1  0
  9 10  1  0
 10 11  2  3
 11 12  1  0
 12 13  1  0
 13 14  1  0
 13 15  2  0
 15 16  1  0
 16 17  2  0
 16 18  1  0
 18 19  1  0
 19 20  2  0
 20 21  1  0
 21 22  2  0
 22 23  1  0
 23 24  2  0
 15 25  1  0
  9 26  2  0
 26  5  1  0
 25 11  1  0
 24 19  1  0
  1 27  1  0
  1 28  1  0
  1 29  1  0
  6 30  1  0
  7 31  1  0
  8 32  1  0
 14 33  1  0
 20 34  1  0
 21 35  1  0
 22 36  1  0
 23 37  1  0
 24 38  1  0
 26 39  1  0
M  CHG  2  12  -1  18  -1
M  END
>  <UniqueID>  (73) 
71

>  <SMILES>  (73) 
CS(=O)(=O)c1cccc(N=c2[n-]c(O)c(C(=O)[N-]c3ccccc3)s2)c1

>  <Energy>  (73) 
82.03953517551834

>  <Genealogy>  (73) 
CS(=O)(=O)c1cccc(N=c2[n-]c(O)c(C(=O)[N-]c3ccccc3)s2)c1 (protonated)
CS(=O)(=O)c1cccc(N=c2[n-]c(O)c(C(=O)[N-]c3ccccc3)s2)c1 (3D coordinates assigned)
CS(=O)(=O)c1cccc(N=c2[n-]c(O)c(C(=O)[N-]c3ccccc3)s2)c1 (optimized conformer: 82.03953517551834 kcal/mol)

>  <smiles>  (73) 
CS(=O)(=O)c1cccc(N=c2[nH]c(O)c(C(=O)Nc3ccccc3)s2)c1

>  <score_type>  (73) 
oracle

>  <origin>  (73) 
adg

>  <m_score__min__energy>  (73) 
-12.220000000000001

>  <m_primary>  (73) 
energy

$$$$
73:0
     RDKit          3D

 42 45  0  0  0  0  0  0  0  0999 V2000
   59.8560   33.9810   52.9300 O   0  0  0  0  0  0  0  0  0  0  0  0
   60.9950   33.4640   52.9510 C   0  0  0  0  0  0  0  0  0  0  0  0
   61.8820   33.3300   51.8140 C   0  0  0  0  0  0  0  0  0  0  0  0
   63.1810   32.8660   52.0110 C   0  0  0  0  0  0  0  0  0  0  0  0
   64.0960   32.7710   50.9850 C   0  0  0  0  0  0  0  0  0  0  0  0
   65.4180   32.3390   50.9820 C   0  0  0  0  0  0  0  0  0  0  0  0
   65.8400   32.4550   49.7080 N   0  0  0  0  0  0  0  0  0  0  0  0
   64.8530   32.9260   48.9620 N   0  0  0  0  0  0  0  0  0  0  0  0
   63.7590   33.1370   49.6990 C   0  0  0  0  0  0  0  0  0  0  0  0
   62.4880   33.5950   49.4850 C   0  0  0  0  0  0  0  0  0  0  0  0
   61.5600   33.6900   50.5280 C   0  0  0  0  0  0  0  0  0  0  0  0
   60.2820   34.1790   50.1800 N   0  0  0  0  0  0  0  0  0  0  0  0
   59.6900   34.0510   48.8950 C   0  0  0  0  0  0  0  0  0  0  0  0
   59.9170   34.9240   47.8510 C   0  0  0  0  0  0  0  0  0  0  0  0
   59.3350   34.7850   46.6070 C   0  0  0  0  0  0  0  0  0  0  0  0
   58.4830   33.7200   46.3980 C   0  0  0  0  0  0  0  0  0  0  0  0
   57.6900   33.4610   44.8370 S   0  0  0  0  0  0  0  0  0  0  0  0
   58.7700   33.3320   43.7780 O   0  0  0  0  0  0  0  0  0  0  0  0
   56.8560   34.6390   44.5040 O   0  0  0  0  0  0  0  0  0  0  0  0
   56.8540   31.9780   44.9020 N   0  0  0  0  0  0  0  0  0  0  0  0
   57.3660   30.8100   44.8450 C   0  0  0  0  0  0  0  0  0  0  0  0
   56.5360   29.7630   45.0530 N   0  0  0  0  0  0  0  0  0  0  0  0
   56.9750   28.4910   45.0150 C   0  0  0  0  0  0  0  0  0  0  0  0
   58.3170   28.1970   44.7570 C   0  0  0  0  0  0  0  0  0  0  0  0
   59.1350   29.2900   44.5500 C   0  0  0  0  0  0  0  0  0  0  0  0
   58.6630   30.5540   44.5950 N   0  0  0  0  0  0  0  0  0  0  0  0
   58.2210   32.8170   47.4080 C   0  0  0  0  0  0  0  0  0  0  0  0
   58.8290   32.9980   48.6340 C   0  0  0  0  0  0  0  0  0  0  0  0
   58.5020   31.8620   49.9080 Cl  0  0  0  0  0  0  0  0  0  0  0  0
   61.3538   33.0778   53.9165 H   0  0  0  0  0  0  0  0  0  0  0  0
   63.4876   32.5642   53.0234 H   0  0  0  0  0  0  0  0  0  0  0  0
   65.9994   31.9771   51.8428 H   0  0  0  0  0  0  0  0  0  0  0  0
   64.8780   33.1250   47.9270 H   0  0  0  0  0  0  0  0  0  0  0  0
   62.1886   33.8954   48.4701 H   0  0  0  0  0  0  0  0  0  0  0  0
   59.7450   34.6700   50.9330 H   0  0  0  0  0  0  0  0  0  0  0  0
   60.5957   35.7733   48.0183 H   0  0  0  0  0  0  0  0  0  0  0  0
   59.5452   35.5052   45.8025 H   0  0  0  0  0  0  0  0  0  0  0  0
   56.2655   27.6688   45.1900 H   0  0  0  0  0  0  0  0  0  0  0  0
   58.6957   27.1649   44.7213 H   0  0  0  0  0  0  0  0  0  0  0  0
   60.2027   29.1260   44.3423 H   0  0  0  0  0  0  0  0  0  0  0  0
   59.3060   31.3570   44.4350 H   0  0  0  0  0  0  0  0  0  0  0  0
   57.5407   31.9692   47.2394 H   0  0  0  0  0  0  0  0  0  0  0  0
  1  2  2  0
  2  3  1  0
  3  4  2  0
  4  5  1  0
  5  6  1  0
  6  7  2  0
  7  8  1  0
  8  9  1  0
  9 10  1  0
 10 11  2  0
 11 12  1  0
 12 13  1  0
 13 14  2  0
 14 15  1  0
 15 16  2  0
 16 17  1  0
 17 18  2  0
 17 19  2  0
 17 20  1  0
 20 21  2  3
 21 22  1  0
 22 23  2  0
 23 24  1  0
 24 25  2  0
 25 26  1  0
 16 27  1  0
 27 28  2  0
 28 29  1  0
 11  3  1  0
 28 13  1  0
  9  5  2  0
 26 21  1  0
  2 30  1  0
  4 31  1  0
  6 32  1  0
  8 33  1  0
 10 34  1  0
 12 35  1  0
 14 36  1  0
 15 37  1  0
 23 38  1  0
 24 39  1  0
 25 40  1  0
 26 41  1  0
 27 42  1  0
M  END
>  <smiles>  (74) 
O=Cc1cc2cn[nH]c2cc1Nc1ccc(S(=O)(=O)N=c2nccc[nH]2)cc1Cl

>  <score_type>  (74) 
oracle

>  <origin>  (74) 
adg

>  <m_score__min__energy>  (74) 
-9.2200000000000006

>  <m_primary>  (74) 
energy

$$$$
74:0
     RDKit          3D

 47 49  0  0  0  0  0  0  0  0999 V2000
   60.9200   26.5920   50.0260 O   0  0  0  0  0  0  0  0  0  0  0  0
   60.3770   27.2610   49.1080 C   0  0  0  0  0  0  0  0  0  0  0  0
   59.8430   26.5650   47.9740 N   0  0  0  0  0  0  0  0  0  0  0  0
   59.9820   26.9660   46.5750 C   0  0  0  0  0  0  0  0  0  0  0  0
   58.7320   27.6230   46.0390 C   0  0  0  0  0  0  0  0  0  0  0  0
   58.7370   28.9650   45.6090 C   0  0  0  0  0  0  0  0  0  0  0  0
   57.5600   29.5620   45.1500 C   0  0  0  0  0  0  0  0  0  0  0  0
   56.3580   28.8490   45.1510 C   0  0  0  0  0  0  0  0  0  0  0  0
   55.1970   29.4760   44.7000 O   0  0  0  0  0  0  0  0  0  0  0  0
   56.3360   27.5230   45.6160 C   0  0  0  0  0  0  0  0  0  0  0  0
   55.1460   26.8070   45.6560 O   0  0  0  0  0  0  0  0  0  0  0  0
   57.5180   26.9160   46.0540 C   0  0  0  0  0  0  0  0  0  0  0  0
   60.2520   28.6840   49.2520 N   0  0  0  0  0  0  0  0  0  0  0  0
   61.2980   29.4620   49.9260 C   0  0  0  0  0  0  0  0  0  0  0  0
   60.6660   30.4080   50.9510 C   0  0  0  0  0  0  0  0  0  0  0  0
   59.5140   31.2620   50.3760 C   0  0  0  0  0  0  0  0  0  0  0  0
   59.0580   30.8510   48.9600 C   0  0  1  0  0  0  0  0  0  0  0  0
   59.9600   31.3650   47.9930 O   0  0  0  0  0  0  0  0  0  0  0  0
   59.9820   32.7750   48.0250 C   0  0  0  0  0  0  0  0  0  0  0  0
   59.1130   33.3170   46.9260 C   0  0  0  0  0  0  0  0  0  0  0  0
   59.6470   34.1380   45.9230 C   0  0  0  0  0  0  0  0  0  0  0  0
   58.8270   34.5960   44.8890 C   0  0  0  0  0  0  0  0  0  0  0  0
   57.4820   34.2240   44.8640 C   0  0  0  0  0  0  0  0  0  0  0  0
   56.9760   33.4300   45.8440 N   0  0  0  0  0  0  0  0  0  0  0  0
   57.7510   32.9720   46.8640 C   0  0  0  0  0  0  0  0  0  0  0  0
   58.9970   29.3220   48.8290 C   0  0  0  0  0  0  0  0  0  0  0  0
   60.8180   27.6761   46.4922 H   0  0  0  0  0  0  0  0  0  0  0  0
   60.1652   26.0580   45.9818 H   0  0  0  0  0  0  0  0  0  0  0  0
   59.6713   29.5449   45.6348 H   0  0  0  0  0  0  0  0  0  0  0  0
   57.5796   30.5997   44.7856 H   0  0  0  0  0  0  0  0  0  0  0  0
   54.3450   28.9610   44.5120 H   0  0  0  0  0  0  0  0  0  0  0  0
   57.4967   25.8765   46.4131 H   0  0  0  0  0  0  0  0  0  0  0  0
   61.9884   28.7767   50.4395 H   0  0  0  0  0  0  0  0  0  0  0  0
   61.8476   30.0531   49.1787 H   0  0  0  0  0  0  0  0  0  0  0  0
   60.2711   29.8061   51.7827 H   0  0  0  0  0  0  0  0  0  0  0  0
   61.4531   31.1045   51.2757 H   0  0  0  0  0  0  0  0  0  0  0  0
   58.6515   31.1761   51.0532 H   0  0  0  0  0  0  0  0  0  0  0  0
   59.8967   32.2901   50.2954 H   0  0  0  0  0  0  0  0  0  0  0  0
   58.0530   31.2647   48.7902 H   0  0  0  0  0  0  0  0  0  0  0  0
   59.6043   33.1252   48.9970 H   0  0  0  0  0  0  0  0  0  0  0  0
   61.0141   33.1278   47.8826 H   0  0  0  0  0  0  0  0  0  0  0  0
   60.7096   34.4210   45.9502 H   0  0  0  0  0  0  0  0  0  0  0  0
   59.2379   35.2444   44.1011 H   0  0  0  0  0  0  0  0  0  0  0  0
   56.8305   34.5741   44.0498 H   0  0  0  0  0  0  0  0  0  0  0  0
   57.3114   32.3304   47.6419 H   0  0  0  0  0  0  0  0  0  0  0  0
   58.1768   28.9439   49.4570 H   0  0  0  0  0  0  0  0  0  0  0  0
   58.8311   29.0775   47.7694 H   0  0  0  0  0  0  0  0  0  0  0  0
  1  2  2  0
  2  3  1  0
  3  4  1  0
  4  5  1  0
  5  6  2  0
  6  7  1  0
  7  8  2  0
  8  9  1  0
  8 10  1  0
 10 11  1  0
 10 12  2  0
  2 13  1  0
 13 14  1  0
 14 15  1  0
 15 16  1  0
 16 17  1  0
 17 18  1  0
 18 19  1  0
 19 20  1  0
 20 21  2  0
 21 22  1  0
 22 23  2  0
 23 24  1  0
 24 25  2  0
 17 26  1  0
 12  5  1  0
 26 13  1  0
 25 20  1  0
  4 27  1  0
  4 28  1  0
  6 29  1  0
  7 30  1  0
  9 31  1  0
 12 32  1  0
 14 33  1  0
 14 34  1  0
 15 35  1  0
 15 36  1  0
 16 37  1  0
 16 38  1  0
 17 39  1  6
 19 40  1  0
 19 41  1  0
 21 42  1  0
 22 43  1  0
 23 44  1  0
 25 45  1  0
 26 46  1  0
 26 47  1  0
M  CHG  2   3  -1  11  -1
M  END
>  <UniqueID>  (75) 
72

>  <SMILES>  (75) 
O=C([N-]Cc1ccc(O)c([O-])c1)N1CCC[C@@H](OCc2cccnc2)C1

>  <Energy>  (75) 
51.12733233416718

>  <Genealogy>  (75) 
O=C([N-]Cc1ccc(O)c([O-])c1)N1CCCC(OCc2cccnc2)C1 (protonated)
O=C([N-]Cc1ccc(O)c([O-])c1)N1CCC[C@@H](OCc2cccnc2)C1 (chirality)
O=C([N-]Cc1ccc(O)c([O-])c1)N1CCC[C@@H](OCc2cccnc2)C1 (3D coordinates assigned)
O=C([N-]Cc1ccc(O)c([O-])c1)N1CCC[C@@H](OCc2cccnc2)C1 (nonaromatic ring conformer: 51.12733233416718 kcal/mol)

>  <smiles>  (75) 
O=C(NCc1ccc(O)c(O)c1)N1CCCC(OCc2cccnc2)C1

>  <score_type>  (75) 
oracle

>  <origin>  (75) 
adg

>  <m_score__min__energy>  (75) 
-13.44

>  <m_primary>  (75) 
energy

$$$$
75:0
     RDKit          3D

 48 52  0  0  0  0  0  0  0  0999 V2000
   56.3634   25.3541   47.2306 H   0  0  0  0  0  0  0  0  0  0  0  0
   57.0270   26.1750   46.9210 C   0  0  0  0  0  0  0  0  0  0  0  0
   56.5840   27.1100   46.0510 N   0  0  0  0  0  0  0  0  0  0  0  0
   57.3800   28.1150   45.6050 C   0  0  0  0  0  0  0  0  0  0  0  0
   56.8590   29.0210   44.6750 C   0  0  0  0  0  0  0  0  0  0  0  0
   55.8053   28.9452   44.3684 H   0  0  0  0  0  0  0  0  0  0  0  0
   57.6680   30.0190   44.1350 C   0  0  0  0  0  0  0  0  0  0  0  0
   57.0120   31.1450   42.9610 Cl  0  0  0  0  0  0  0  0  0  0  0  0
   59.0120   30.0930   44.4970 C   0  0  0  0  0  0  0  0  0  0  0  0
   59.6580   30.8608   44.0462 H   0  0  0  0  0  0  0  0  0  0  0  0
   59.5440   29.1980   45.4290 C   0  0  0  0  0  0  0  0  0  0  0  0
   60.6134   29.2513   45.6810 H   0  0  0  0  0  0  0  0  0  0  0  0
   58.7290   28.2240   46.0540 C   0  0  0  0  0  0  0  0  0  0  0  0
   59.1750   27.3000   47.0570 C   0  0  0  0  0  0  0  0  0  0  0  0
   60.2830   27.3890   47.7470 N   0  0  0  0  0  0  0  0  0  0  0  0
   60.7410   26.7370   48.9720 C   0  0  0  0  0  0  0  0  0  0  0  0
   61.8310   26.5959   48.9274 H   0  0  0  0  0  0  0  0  0  0  0  0
   60.2498   25.7580   49.0735 H   0  0  0  0  0  0  0  0  0  0  0  0
   60.3870   27.6170   50.1800 C   0  0  0  0  0  0  0  0  0  0  0  0
   60.4867   27.0118   51.0931 H   0  0  0  0  0  0  0  0  0  0  0  0
   59.3584   27.9765   50.0290 H   0  0  0  0  0  0  0  0  0  0  0  0
   61.4600   29.0990   50.3440 S   0  0  0  0  0  0  0  0  0  0  0  0
   60.5980   30.1040   49.1390 C   0  0  0  0  0  0  0  0  0  0  0  0
   59.2390   29.9720   48.9950 N   0  0  0  0  0  0  0  0  0  0  0  0
   58.5460   30.7470   48.1500 N   0  0  0  0  0  0  0  0  0  0  0  0
   59.2250   31.6590   47.4210 C   0  0  0  0  0  0  0  0  0  0  0  0
   58.7840   32.6600   46.5950 C   0  0  0  0  0  0  0  0  0  0  0  0
   57.5070   33.0400   46.1960 C   0  0  0  0  0  0  0  0  0  0  0  0
   56.6201   32.4620   46.4949 H   0  0  0  0  0  0  0  0  0  0  0  0
   57.3920   34.1910   45.3960 C   0  0  0  0  0  0  0  0  0  0  0  0
   56.4003   34.5179   45.0500 H   0  0  0  0  0  0  0  0  0  0  0  0
   58.5400   34.9310   45.0330 C   0  0  0  0  0  0  0  0  0  0  0  0
   58.4328   35.8285   44.4061 H   0  0  0  0  0  0  0  0  0  0  0  0
   59.8200   34.5320   45.4650 C   0  0  0  0  0  0  0  0  0  0  0  0
   60.7154   35.1106   45.1939 H   0  0  0  0  0  0  0  0  0  0  0  0
   59.9180   33.3780   46.2490 C   0  0  0  0  0  0  0  0  0  0  0  0
   61.0320   32.8460   46.8200 N   0  0  0  0  0  0  0  0  0  0  0  0
   62.3960   33.3790   46.8110 C   0  0  0  0  0  0  0  0  0  0  0  0
   62.4443   34.2403   46.1285 H   0  0  0  0  0  0  0  0  0  0  0  0
   63.0854   32.5911   46.4735 H   0  0  0  0  0  0  0  0  0  0  0  0
   62.8000   33.8240   48.2110 C   0  0  0  0  0  0  0  0  0  0  0  0
   62.2567   33.2255   48.9570 H   0  0  0  0  0  0  0  0  0  0  0  0
   63.8825   33.6802   48.3434 H   0  0  0  0  0  0  0  0  0  0  0  0
   62.5525   34.8876   48.3434 H   0  0  0  0  0  0  0  0  0  0  0  0
   60.5740   31.8020   47.5470 C   0  0  0  0  0  0  0  0  0  0  0  0
   61.2820   31.0360   48.4100 N   0  0  0  0  0  0  0  0  0  0  0  0
   58.3210   26.2500   47.4250 C   0  0  0  0  0  0  0  0  0  0  0  0
   58.6790   25.4766   48.1205 H   0  0  0  0  0  0  0  0  0  0  0  0
  1  2  1  0
  2  3  1  0
  3  4  1  0
  4  5  2  0
  5  6  1  0
  5  7  1  0
  7  8  1  0
  7  9  2  0
  9 10  1  0
  9 11  1  0
 11 12  1  0
 11 13  2  0
 13 14  1  0
 14 15  2  0
 15 16  1  0
 16 17  1  0
 16 18  1  0
 16 19  1  0
 19 20  1  0
 19 21  1  0
 19 22  1  0
 22 23  1  0
 23 24  2  0
 24 25  1  0
 25 26  2  0
 26 27  1  0
 27 28  2  0
 28 29  1  0
 28 30  1  0
 30 31  1  0
 30 32  2  0
 32 33  1  0
 32 34  1  0
 34 35  1  0
 34 36  2  0
 36 37  1  0
 37 38  1  0
 38 39  1  0
 38 40  1  0
 38 41  1  0
 41 42  1  0
 41 43  1  0
 41 44  1  0
 37 45  1  0
 45 46  2  0
 14 47  1  0
 47 48  1  0
 47  2  2  0
 13  4  1  0
 46 23  1  0
 45 26  1  0
 36 27  1  0
M  CHG  1   3  -1
M  END
>  <UniqueID>  (76) 
73

>  <SMILES>  (76) 
CCn1c2ccccc2c2nnc(SCC/N=c3/cc[n-]c4cc(Cl)ccc34)nc21

>  <Energy>  (76) 
108.61148451978104

>  <Genealogy>  (76) 
CCn1c2ccccc2c2nnc(SCCN=c3cc[n-]c4cc(Cl)ccc34)nc21 (protonated)
CCn1c2ccccc2c2nnc(SCC/N=c3/cc[n-]c4cc(Cl)ccc34)nc21 (cis-trans isomerization)
CCn1c2ccccc2c2nnc(SCC/N=c3/cc[n-]c4cc(Cl)ccc34)nc21 (3D coordinates assigned)
CCn1c2ccccc2c2nnc(SCC/N=c3/cc[n-]c4cc(Cl)ccc34)nc21 (optimized conformer: 108.61148451978104 kcal/mol)

>  <smiles>  (76) 
CCn1c2ccccc2c2nnc(SCCN=c3cc[nH]c4cc(Cl)ccc34)nc21

>  <score_type>  (76) 
oracle

>  <origin>  (76) 
adg

>  <m_score__min__energy>  (76) 
-11.029999999999999

>  <m_primary>  (76) 
energy

$$$$
76:0
     RDKit          3D

 41 42  0  0  0  0  0  0  0  0999 V2000
   55.1740   26.9410   45.2590 H   0  0  0  0  0  0  0  0  0  0  0  0
   54.7290   26.3400   45.9880 N   0  0  0  0  0  0  0  0  0  0  0  0
   55.2860   24.7250   45.7220 S   0  0  0  0  0  0  0  0  0  0  0  0
   54.8440   24.2580   44.3630 O   0  0  0  0  0  0  0  0  0  0  0  0
   54.6990   23.8120   46.7620 O   0  0  0  0  0  0  0  0  0  0  0  0
   57.0430   24.6910   45.8220 C   0  0  0  0  0  0  0  0  0  0  0  0
   57.7420   23.5070   45.5510 C   0  0  0  0  0  0  0  0  0  0  0  0
   57.1920   22.5977   45.2668 H   0  0  0  0  0  0  0  0  0  0  0  0
   59.1360   23.4790   45.6410 C   0  0  0  0  0  0  0  0  0  0  0  0
   59.6812   22.5478   45.4271 H   0  0  0  0  0  0  0  0  0  0  0  0
   59.8390   24.6310   46.0020 C   0  0  0  0  0  0  0  0  0  0  0  0
   60.9366   24.6057   46.0705 H   0  0  0  0  0  0  0  0  0  0  0  0
   59.1480   25.8190   46.2770 C   0  0  0  0  0  0  0  0  0  0  0  0
   60.0260   27.2750   46.7350 S   0  0  0  0  0  0  0  0  0  0  0  0
   60.6700   27.0550   48.0750 O   0  0  0  0  0  0  0  0  0  0  0  0
   61.0940   27.5750   45.7190 O   0  0  0  0  0  0  0  0  0  0  0  0
   58.9340   28.6240   46.8380 N   0  0  0  0  0  0  0  0  0  0  0  0
   59.3840   29.3180   47.4780 H   0  0  0  0  0  0  0  0  0  0  0  0
   58.7870   29.2470   45.5190 C   0  0  0  0  0  0  0  0  0  0  0  0
   59.5952   28.8943   44.8614 H   0  0  0  0  0  0  0  0  0  0  0  0
   58.8390   30.3394   45.6371 H   0  0  0  0  0  0  0  0  0  0  0  0
   57.4320   28.8830   44.8920 C   0  0  0  0  0  0  0  0  0  0  0  0
   56.6898   28.7880   45.6983 H   0  0  0  0  0  0  0  0  0  0  0  0
   57.5734   27.9414   44.3412 H   0  0  0  0  0  0  0  0  0  0  0  0
   56.9230   29.9240   43.8830 C   0  0  0  0  0  0  0  0  0  0  0  0
   56.0692   29.5009   43.3335 H   0  0  0  0  0  0  0  0  0  0  0  0
   57.7474   30.1711   43.1980 H   0  0  0  0  0  0  0  0  0  0  0  0
   56.4960   31.1560   44.5490 N   0  0  0  0  0  0  0  0  0  0  0  0
   57.2880   32.1200   44.9220 C   0  0  0  0  0  0  0  0  0  0  0  0
   57.3970   32.4550   46.2410 N   0  0  0  0  0  0  0  0  0  0  0  0
   58.2140   33.4550   46.6660 C   0  0  0  0  0  0  0  0  0  0  0  0
   58.2758   33.6959   47.7375 H   0  0  0  0  0  0  0  0  0  0  0  0
   58.9740   34.1760   45.7450 C   0  0  0  0  0  0  0  0  0  0  0  0
   59.6357   34.9868   46.0839 H   0  0  0  0  0  0  0  0  0  0  0  0
   58.8860   33.8580   44.3900 C   0  0  0  0  0  0  0  0  0  0  0  0
   59.4805   34.4195   43.6542 H   0  0  0  0  0  0  0  0  0  0  0  0
   58.0420   32.8250   43.9650 C   0  0  0  0  0  0  0  0  0  0  0  0
   57.9570   32.5090   42.5590 C   0  0  0  0  0  0  0  0  0  0  0  0
   57.8890   32.2560   41.4320 N   0  0  0  0  0  0  0  0  0  0  0  0
   57.7500   25.8430   46.1950 C   0  0  0  0  0  0  0  0  0  0  0  0
   57.2041   26.7700   46.4243 H   0  0  0  0  0  0  0  0  0  0  0  0
  1  2  1  0
  2  3  1  0
  3  4  2  0
  3  5  2  0
  3  6  1  0
  6  7  2  0
  7  8  1  0
  7  9  1  0
  9 10  1  0
  9 11  2  0
 11 12  1  0
 11 13  1  0
 13 14  1  0
 14 15  2  0
 14 16  2  0
 14 17  1  0
 17 18  1  0
 17 19  1  0
 19 20  1  0
 19 21  1  0
 19 22  1  0
 22 23  1  0
 22 24  1  0
 22 25  1  0
 25 26  1  0
 25 27  1  0
 25 28  1  0
 28 29  2  0
 29 30  1  0
 30 31  1  0
 31 32  1  0
 31 33  2  0
 33 34  1  0
 33 35  1  0
 35 36  1  0
 35 37  2  0
 37 38  1  0
 38 39  3  0
 13 40  2  0
 40 41  1  0
 40  6  1  0
 37 29  1  0
M  CHG  2   2  -1  30  -1
M  END
>  <UniqueID>  (77) 
74

>  <SMILES>  (77) 
N#Cc1ccc[n-]/c1=N\CCCNS(=O)(=O)c1cccc(S([NH-])(=O)=O)c1

>  <Energy>  (77) 
36.33867184452154

>  <Genealogy>  (77) 
N#Cc1ccc[n-]c1=NCCCNS(=O)(=O)c1cccc(S([NH-])(=O)=O)c1 (protonated)
N#Cc1ccc[n-]/c1=N\CCCNS(=O)(=O)c1cccc(S([NH-])(=O)=O)c1 (cis-trans isomerization)
N#Cc1ccc[n-]/c1=N\CCCNS(=O)(=O)c1cccc(S([NH-])(=O)=O)c1 (3D coordinates assigned)
N#Cc1ccc[n-]/c1=N\CCCNS(=O)(=O)c1cccc(S([NH-])(=O)=O)c1 (optimized conformer: 36.33867184452154 kcal/mol)

>  <smiles>  (77) 
N#Cc1ccc[nH]c1=NCCCNS(=O)(=O)c1cccc(S(N)(=O)=O)c1

>  <score_type>  (77) 
oracle

>  <origin>  (77) 
adg

>  <m_score__min__energy>  (77) 
-12.460000000000001

>  <m_primary>  (77) 
energy

$$$$
77:0
     RDKit          3D

 79 81  0  0  0  0  0  0  0  0999 V2000
   63.8240   34.0954   49.1226 H   0  0  0  0  0  0  0  0  0  0  0  0
   63.1530   33.2750   48.8280 C   0  0  0  0  0  0  0  0  0  0  0  0
   63.1230   32.9270   47.5230 C   0  0  0  0  0  0  0  0  0  0  0  0
   63.3210   33.9340   46.4150 C   0  0  0  0  0  0  0  0  0  0  0  0
   63.5159   34.9250   46.8507 H   0  0  0  0  0  0  0  0  0  0  0  0
   64.1769   33.6319   45.7936 H   0  0  0  0  0  0  0  0  0  0  0  0
   62.4144   33.9785   45.7936 H   0  0  0  0  0  0  0  0  0  0  0  0
   62.8650   31.4820   47.1760 C   0  0  0  0  0  0  0  0  0  0  0  0
   62.7603   30.8958   48.1009 H   0  0  0  0  0  0  0  0  0  0  0  0
   61.9391   31.4060   46.5870 H   0  0  0  0  0  0  0  0  0  0  0  0
   63.7074   31.0903   46.5870 H   0  0  0  0  0  0  0  0  0  0  0  0
   62.3310   32.6180   49.9110 C   0  0  0  0  0  0  0  0  0  0  0  0
   61.6624   31.8748   49.4521 H   0  0  0  0  0  0  0  0  0  0  0  0
   63.0170   32.1371   50.6238 H   0  0  0  0  0  0  0  0  0  0  0  0
   61.4850   33.6490   50.6730 C   0  0  0  0  0  0  0  0  0  0  0  0
   61.5011   33.3990   51.7441 H   0  0  0  0  0  0  0  0  0  0  0  0
   61.9165   34.6439   50.4889 H   0  0  0  0  0  0  0  0  0  0  0  0
   60.2450   29.5350   47.4220 C   0  0  0  0  0  0  0  0  0  0  0  0
   60.0450   33.6690   50.1970 C   0  0  0  0  0  0  0  0  0  0  0  0
   60.5781   30.3263   46.7343 H   0  0  0  0  0  0  0  0  0  0  0  0
   58.6570   31.5350   50.2450 C   0  0  0  0  0  0  0  0  0  0  0  0
   59.0831   30.7712   50.9121 H   0  0  0  0  0  0  0  0  0  0  0  0
   57.5581   31.4865   50.2439 H   0  0  0  0  0  0  0  0  0  0  0  0
   59.1530   31.2770   48.8070 C   0  0  0  0  0  0  0  0  0  0  0  0
   58.2952   31.3459   48.1218 H   0  0  0  0  0  0  0  0  0  0  0  0
   59.9186   32.0336   48.5803 H   0  0  0  0  0  0  0  0  0  0  0  0
   59.7970   29.9120   48.6420 C   0  0  0  0  0  0  0  0  0  0  0  0
   59.0690   32.9010   50.7380 C   0  0  0  0  0  0  0  0  0  0  0  0
   58.5323   33.3063   51.6085 H   0  0  0  0  0  0  0  0  0  0  0  0
   60.3210   28.1080   46.9360 C   0  0  0  0  0  0  0  0  0  0  0  0
   60.9342   28.0829   46.0231 H   0  0  0  0  0  0  0  0  0  0  0  0
   60.7605   27.5113   47.7489 H   0  0  0  0  0  0  0  0  0  0  0  0
   58.9690   27.5070   46.6220 C   0  0  0  0  0  0  0  0  0  0  0  0
   58.6230   26.2690   47.1930 C   0  0  0  0  0  0  0  0  0  0  0  0
   59.3506   25.7397   47.8258 H   0  0  0  0  0  0  0  0  0  0  0  0
   57.3680   25.7050   46.9660 C   0  0  0  0  0  0  0  0  0  0  0  0
   57.1152   24.7333   47.4154 H   0  0  0  0  0  0  0  0  0  0  0  0
   56.4260   26.3710   46.1670 C   0  0  0  0  0  0  0  0  0  0  0  0
   55.1430   25.8560   45.9180 O   0  0  0  0  0  0  0  0  0  0  0  0
   54.7780   24.4770   45.9850 C   0  0  0  0  0  0  0  0  0  0  0  0
   54.8350   24.1396   47.0304 H   0  0  0  0  0  0  0  0  0  0  0  0
   53.7533   24.3652   45.6010 H   0  0  0  0  0  0  0  0  0  0  0  0
   55.7010   23.6370   45.1450 C   0  0  0  0  0  0  0  0  0  0  0  0
   55.5820   23.6410   43.7440 C   0  0  0  0  0  0  0  0  0  0  0  0
   54.8273   24.2785   43.2603 H   0  0  0  0  0  0  0  0  0  0  0  0
   56.4190   22.8380   42.9630 C   0  0  0  0  0  0  0  0  0  0  0  0
   56.3276   22.8521   41.8669 H   0  0  0  0  0  0  0  0  0  0  0  0
   57.3710   22.0180   43.5730 C   0  0  0  0  0  0  0  0  0  0  0  0
   58.0273   21.3854   42.9573 H   0  0  0  0  0  0  0  0  0  0  0  0
   57.4900   22.0010   44.9650 C   0  0  0  0  0  0  0  0  0  0  0  0
   58.2417   21.3565   45.4441 H   0  0  0  0  0  0  0  0  0  0  0  0
   56.6550   22.8020   45.7500 C   0  0  0  0  0  0  0  0  0  0  0  0
   56.7455   22.7782   46.8460 H   0  0  0  0  0  0  0  0  0  0  0  0
   56.7630   27.6030   45.5980 C   0  0  0  0  0  0  0  0  0  0  0  0
   56.0294   28.1257   44.9666 H   0  0  0  0  0  0  0  0  0  0  0  0
   58.0280   28.1870   45.8200 C   0  0  0  0  0  0  0  0  0  0  0  0
   58.3720   29.4290   45.2590 O   0  0  0  0  0  0  0  0  0  0  0  0
   57.4250   30.3940   44.8030 C   0  0  0  0  0  0  0  0  0  0  0  0
   57.2997   30.2952   43.7146 H   0  0  0  0  0  0  0  0  0  0  0  0
   56.4626   30.2211   45.3069 H   0  0  0  0  0  0  0  0  0  0  0  0
   57.9070   31.7790   45.1240 C   0  0  0  0  0  0  0  0  0  0  0  0
   57.0620   32.8870   44.9510 C   0  0  0  0  0  0  0  0  0  0  0  0
   56.0504   32.7469   44.5422 H   0  0  0  0  0  0  0  0  0  0  0  0
   57.5030   34.1680   45.2970 C   0  0  0  0  0  0  0  0  0  0  0  0
   56.8398   35.0340   45.1547 H   0  0  0  0  0  0  0  0  0  0  0  0
   58.7840   34.3500   45.8230 C   0  0  0  0  0  0  0  0  0  0  0  0
   59.1235   35.3571   46.1068 H   0  0  0  0  0  0  0  0  0  0  0  0
   59.6340   33.2550   45.9890 C   0  0  0  0  0  0  0  0  0  0  0  0
   60.6472   33.4018   46.3913 H   0  0  0  0  0  0  0  0  0  0  0  0
   59.1980   31.9710   45.6440 C   0  0  0  0  0  0  0  0  0  0  0  0
   59.8680   31.1093   45.7803 H   0  0  0  0  0  0  0  0  0  0  0  0
   59.8600   28.9820   49.8310 C   0  0  0  0  0  0  0  0  0  0  0  0
   59.8201   29.5706   50.7594 H   0  0  0  0  0  0  0  0  0  0  0  0
   59.0068   28.2884   49.7996 H   0  0  0  0  0  0  0  0  0  0  0  0
   60.7990   28.4098   49.7996 H   0  0  0  0  0  0  0  0  0  0  0  0
   59.7290   34.4940   48.9750 C   0  0  0  0  0  0  0  0  0  0  0  0
   59.3515   35.4795   49.2855 H   0  0  0  0  0  0  0  0  0  0  0  0
   60.6412   34.6234   48.3740 H   0  0  0  0  0  0  0  0  0  0  0  0
   58.9637   33.9809   48.3740 H   0  0  0  0  0  0  0  0  0  0  0  0
  1  2  1  0
  2  3  2  3
  3  4  1  0
  4  5  1  0
  4  6  1  0
  4  7  1  0
  3  8  1  0
  8  9  1  0
  8 10  1  0
  8 11  1  0
  2 12  1  0
 12 13  1  0
 12 14  1  0
 12 15  1  0
 15 16  1  0
 15 17  1  0
 15 18  1  0
 18 19  2  0
 19 20  1  0
 19 21  1  0
 21 22  1  0
 21 23  1  0
 21 24  1  0
 24 25  1  0
 24 26  1  0
 24 27  1  0
 27 28  2  0
 28 29  1  0
 28 30  1  0
 30 31  1  0
 30 32  1  0
 30 33  1  0
 33 34  2  0
 34 35  1  0
 34 36  1  0
 36 37  1  0
 36 38  2  0
 38 39  1  0
 39 40  1  0
 40 41  1  0
 40 42  1  0
 40 43  1  0
 43 44  2  0
 44 45  1  0
 44 46  1  0
 46 47  1  0
 46 48  2  0
 48 49  1  0
 48 50  1  0
 50 51  1  0
 50 52  2  0
 52 53  1  0
 38 54  1  0
 54 55  1  0
 54 56  2  0
 56 57  1  0
 57 58  1  0
 58 59  1  0
 58 60  1  0
 58 61  1  0
 61 62  2  0
 62 63  1  0
 62 64  1  0
 64 65  1  0
 64 66  2  0
 66 67  1  0
 66 68  1  0
 68 69  1  0
 68 70  2  0
 70 71  1  0
 27 72  1  0
 72 73  1  0
 72 74  1  0
 72 75  1  0
 18 76  1  0
 76 77  1  0
 76 78  1  0
 76 79  1  0
 56 33  1  0
 70 61  1  0
 52 43  1  0
M  END
>  <UniqueID>  (78) 
75

>  <SMILES>  (78) 
CC(C)=CCC/C(C)=C\CC/C(C)=C/Cc1ccc(OCc2ccccc2)cc1OCc1ccccc1

>  <Energy>  (78) 
64.41226993516607

>  <Genealogy>  (78) 
CC(C)=CCC/C(C)=C\CC/C(C)=C/Cc1ccc(OCc2ccccc2)cc1OCc1ccccc1 (cis-trans isomerization)
CC(C)=CCC/C(C)=C\CC/C(C)=C/Cc1ccc(OCc2ccccc2)cc1OCc1ccccc1 (3D coordinates assigned)
CC(C)=CCC/C(C)=C\CC/C(C)=C/Cc1ccc(OCc2ccccc2)cc1OCc1ccccc1 (optimized conformer: 64.41226993516607 kcal/mol)

>  <smiles>  (78) 
CC(C)=CCCC(C)=CCCC(C)=CCc1ccc(OCc2ccccc2)cc1OCc1ccccc1

>  <score_type>  (78) 
oracle

>  <origin>  (78) 
adg

>  <m_score__min__energy>  (78) 
-8.8900000000000006

>  <m_primary>  (78) 
energy

$$$$
78:0
     RDKit          3D

 39 41  0  0  0  0  0  0  0  0999 V2000
   59.2380   33.9360   48.2480 C   0  0  0  0  0  0  0  0  0  0  0  0
   58.8630   33.6540   46.8230 C   0  0  0  0  0  0  0  0  0  0  0  0
   59.5340   34.2990   45.7730 C   0  0  0  0  0  0  0  0  0  0  0  0
   59.1580   34.0610   44.4500 C   0  0  0  0  0  0  0  0  0  0  0  0
   58.1050   33.1890   44.1650 C   0  0  0  0  0  0  0  0  0  0  0  0
   57.4130   32.5510   45.2010 C   0  0  0  0  0  0  0  0  0  0  0  0
   56.3310   31.6740   44.8640 N   0  0  0  0  0  0  0  0  0  0  0  0
   56.4970   30.0170   44.3800 S   0  0  0  0  0  0  0  0  0  0  0  0
   57.0570   29.9610   42.9860 O   0  0  0  0  0  0  0  0  0  0  0  0
   55.1600   29.3330   44.4170 O   0  0  0  0  0  0  0  0  0  0  0  0
   57.5860   29.2060   45.5010 C   0  0  0  0  0  0  0  0  0  0  0  0
   57.3710   27.8600   45.8170 C   0  0  0  0  0  0  0  0  0  0  0  0
   58.2250   27.2020   46.7030 C   0  0  0  0  0  0  0  0  0  0  0  0
   59.3000   27.8830   47.2790 C   0  0  0  0  0  0  0  0  0  0  0  0
   59.5330   29.2370   46.9730 C   0  0  0  0  0  0  0  0  0  0  0  0
   60.6700   29.9640   47.5880 C   0  0  0  0  0  0  0  0  0  0  0  0
   61.1520   29.5580   48.6810 O   0  0  0  0  0  0  0  0  0  0  0  0
   61.2090   31.1270   46.9360 N   0  0  0  0  0  0  0  0  0  0  0  0
   62.1400   31.9260   47.3710 C   0  0  0  0  0  0  0  0  0  0  0  0
   62.9120   31.6220   48.4360 N   0  0  0  0  0  0  0  0  0  0  0  0
   63.8140   32.5980   48.7230 C   0  0  0  0  0  0  0  0  0  0  0  0
   63.7690   33.7010   47.8770 C   0  0  0  0  0  0  0  0  0  0  0  0
   62.5550   33.4360   46.7390 S   0  0  0  0  0  0  0  0  0  0  0  0
   58.6660   29.8910   46.0770 C   0  0  0  0  0  0  0  0  0  0  0  0
   57.7930   32.7920   46.5350 C   0  0  0  0  0  0  0  0  0  0  0  0
   58.5424   33.4129   48.9206 H   0  0  0  0  0  0  0  0  0  0  0  0
   60.2631   33.5831   48.4341 H   0  0  0  0  0  0  0  0  0  0  0  0
   59.1835   35.0188   48.4341 H   0  0  0  0  0  0  0  0  0  0  0  0
   60.3581   34.9937   45.9929 H   0  0  0  0  0  0  0  0  0  0  0  0
   59.6927   34.5618   43.6294 H   0  0  0  0  0  0  0  0  0  0  0  0
   57.8176   33.0024   43.1197 H   0  0  0  0  0  0  0  0  0  0  0  0
   56.5263   27.3189   45.3657 H   0  0  0  0  0  0  0  0  0  0  0  0
   58.0511   26.1439   46.9485 H   0  0  0  0  0  0  0  0  0  0  0  0
   59.9690   27.3576   47.9764 H   0  0  0  0  0  0  0  0  0  0  0  0
   62.8280   30.7370   48.9840 H   0  0  0  0  0  0  0  0  0  0  0  0
   64.5243   32.5212   49.5594 H   0  0  0  0  0  0  0  0  0  0  0  0
   64.4131   34.5905   47.9398 H   0  0  0  0  0  0  0  0  0  0  0  0
   58.8371   30.9483   45.8265 H   0  0  0  0  0  0  0  0  0  0  0  0
   57.2487   32.3023   47.3559 H   0  0  0  0  0  0  0  0  0  0  0  0
  1  2  1  0
  2  3  2  0
  3  4  1  0
  4  5  2  0
  5  6  1  0
  6  7  1  0
  7  8  1  0
  8  9  2  0
  8 10  2  0
  8 11  1  0
 11 12  2  0
 12 13  1  0
 13 14  2  0
 14 15  1  0
 15 16  1  0
 16 17  2  0
 16 18  1  0
 18 19  2  3
 19 20  1  0
 20 21  1  0
 21 22  2  0
 22 23  1  0
 15 24  2  0
  6 25  2  0
 25  2  1  0
 24 11  1  0
 23 19  1  0
  1 26  1  0
  1 27  1  0
  1 28  1  0
  3 29  1  0
  4 30  1  0
  5 31  1  0
 12 32  1  0
 13 33  1  0
 14 34  1  0
 20 35  1  0
 21 36  1  0
 22 37  1  0
 24 38  1  0
 25 39  1  0
M  CHG  1   7  -1
M  END
>  <UniqueID>  (79) 
76

>  <SMILES>  (79) 
Cc1cccc([N-]S(=O)(=O)c2cccc(C(=O)N=c3[nH]ccs3)c2)c1

>  <Energy>  (79) 
79.0394219375999

>  <Genealogy>  (79) 
Cc1cccc([N-]S(=O)(=O)c2cccc(C(=O)N=c3[nH]ccs3)c2)c1 (protonated)
Cc1cccc([N-]S(=O)(=O)c2cccc(C(=O)N=c3[nH]ccs3)c2)c1 (3D coordinates assigned)
Cc1cccc([N-]S(=O)(=O)c2cccc(C(=O)N=c3[nH]ccs3)c2)c1 (optimized conformer: 79.0394219375999 kcal/mol)

>  <smiles>  (79) 
Cc1cccc(NS(=O)(=O)c2cccc(C(=O)N=c3[nH]ccs3)c2)c1

>  <score_type>  (79) 
oracle

>  <origin>  (79) 
adg

>  <m_score__min__energy>  (79) 
-9.9499999999999993

>  <m_primary>  (79) 
energy

$$$$
79:0
     RDKit          3D

 42 43  0  0  0  0  0  0  0  0999 V2000
   60.0070   34.1140   49.2900 C   0  0  0  0  0  0  0  0  0  0  0  0
   59.8820   34.3280   47.7800 C   0  0  0  0  0  0  0  0  0  0  0  0
   58.8450   33.4990   47.1310 N   0  0  0  0  0  0  0  0  0  0  0  0
   58.0770   34.1340   46.0380 C   0  0  0  0  0  0  0  0  0  0  0  0
   58.9310   34.8640   44.9930 C   0  0  0  0  0  0  0  0  0  0  0  0
   59.2860   31.8210   46.8840 S   0  0  0  0  0  0  0  0  0  0  0  0
   60.7120   31.7360   46.4180 O   0  0  0  0  0  0  0  0  0  0  0  0
   59.1400   31.0540   48.1680 O   0  0  0  0  0  0  0  0  0  0  0  0
   58.2600   31.1030   45.6450 C   0  0  0  0  0  0  0  0  0  0  0  0
   58.1890   31.6670   44.3640 C   0  0  0  0  0  0  0  0  0  0  0  0
   57.3560   31.1010   43.3950 C   0  0  0  0  0  0  0  0  0  0  0  0
   56.6010   29.9640   43.6950 C   0  0  0  0  0  0  0  0  0  0  0  0
   56.6800   29.3780   44.9640 C   0  0  0  0  0  0  0  0  0  0  0  0
   55.9010   28.2060   45.2410 N   0  0  0  0  0  0  0  0  0  0  0  0
   56.3460   27.0850   46.0110 C   0  0  0  0  0  0  0  0  0  0  0  0
   57.3980   27.1920   46.6950 O   0  0  0  0  0  0  0  0  0  0  0  0
   55.5470   25.8960   46.0840 N   0  0  0  0  0  0  0  0  0  0  0  0
   55.6660   24.7310   45.2560 C   0  0  0  0  0  0  0  0  0  0  0  0
   56.7990   24.5860   44.4510 C   0  0  0  0  0  0  0  0  0  0  0  0
   56.9580   23.4470   43.6600 C   0  0  0  0  0  0  0  0  0  0  0  0
   55.9810   22.4490   43.6960 C   0  0  0  0  0  0  0  0  0  0  0  0
   56.1050   21.4150   42.9890 O   0  0  0  0  0  0  0  0  0  0  0  0
   54.8940   22.5920   44.5000 N   0  0  0  0  0  0  0  0  0  0  0  0
   54.7160   23.6940   45.2760 C   0  0  0  0  0  0  0  0  0  0  0  0
   57.4870   29.9740   45.9490 C   0  0  0  0  0  0  0  0  0  0  0  0
   59.5208   34.9464   49.8198 H   0  0  0  0  0  0  0  0  0  0  0  0
   59.5195   33.1679   49.5678 H   0  0  0  0  0  0  0  0  0  0  0  0
   61.0706   34.0739   49.5678 H   0  0  0  0  0  0  0  0  0  0  0  0
   59.6389   35.3858   47.6011 H   0  0  0  0  0  0  0  0  0  0  0  0
   60.8446   34.0295   47.3393 H   0  0  0  0  0  0  0  0  0  0  0  0
   57.5020   33.3502   45.5233 H   0  0  0  0  0  0  0  0  0  0  0  0
   57.4419   34.8989   46.5088 H   0  0  0  0  0  0  0  0  0  0  0  0
   59.6720   35.4974   45.5027 H   0  0  0  0  0  0  0  0  0  0  0  0
   59.4502   34.1263   44.3636 H   0  0  0  0  0  0  0  0  0  0  0  0
   58.2830   35.4917   44.3636 H   0  0  0  0  0  0  0  0  0  0  0  0
   58.7895   32.5560   44.1210 H   0  0  0  0  0  0  0  0  0  0  0  0
   57.2945   31.5517   42.3935 H   0  0  0  0  0  0  0  0  0  0  0  0
   55.9415   29.5274   42.9305 H   0  0  0  0  0  0  0  0  0  0  0  0
   57.5683   25.3722   44.4407 H   0  0  0  0  0  0  0  0  0  0  0  0
   57.8426   23.3364   43.0156 H   0  0  0  0  0  0  0  0  0  0  0  0
   53.8280   23.7747   45.9202 H   0  0  0  0  0  0  0  0  0  0  0  0
   57.5119   29.5517   46.9644 H   0  0  0  0  0  0  0  0  0  0  0  0
  1  2  1  0
  2  3  1  0
  3  4  1  0
  4  5  1  0
  3  6  1  0
  6  7  2  0
  6  8  2  0
  6  9  1  0
  9 10  2  0
 10 11  1  0
 11 12  2  0
 12 13  1  0
 13 14  1  0
 14 15  1  0
 15 16  2  0
 15 17  1  0
 17 18  1  0
 18 19  1  0
 19 20  2  0
 20 21  1  0
 21 22  2  0
 21 23  1  0
 23 24  1  0
 13 25  2  0
 25  9  1  0
 24 18  2  0
  1 26  1  0
  1 27  1  0
  1 28  1  0
  2 29  1  0
  2 30  1  0
  4 31  1  0
  4 32  1  0
  5 33  1  0
  5 34  1  0
  5 35  1  0
 10 36  1  0
 11 37  1  0
 12 38  1  0
 19 39  1  0
 20 40  1  0
 24 41  1  0
 25 42  1  0
M  CHG  3  14  -1  17  -1  23  -1
M  END
>  <UniqueID>  (80) 
77

>  <SMILES>  (80) 
CCN(CC)S(=O)(=O)c1cccc([N-]C(=O)[N-]c2ccc(=O)[n-]c2)c1

>  <Energy>  (80) 
53.651246455654864

>  <Genealogy>  (80) 
CCN(CC)S(=O)(=O)c1cccc([N-]C(=O)[N-]c2ccc(=O)[n-]c2)c1 (protonated)
CCN(CC)S(=O)(=O)c1cccc([N-]C(=O)[N-]c2ccc(=O)[n-]c2)c1 (3D coordinates assigned)
CCN(CC)S(=O)(=O)c1cccc([N-]C(=O)[N-]c2ccc(=O)[n-]c2)c1 (optimized conformer: 53.651246455654864 kcal/mol)

>  <smiles>  (80) 
CCN(CC)S(=O)(=O)c1cccc(NC(=O)Nc2ccc(=O)[nH]c2)c1

>  <score_type>  (80) 
oracle

>  <origin>  (80) 
adg

>  <m_score__min__energy>  (80) 
-13.4

>  <m_primary>  (80) 
energy

$$$$
80:0
     RDKit          3D

 46 48  0  0  0  0  0  0  0  0999 V2000
   53.9290   21.5510   46.5290 C   0  0  0  0  0  0  0  0  0  0  0  0
   54.3420   23.1630   45.8850 S   0  0  0  0  0  0  0  0  0  0  0  0
   54.9250   23.0130   44.5100 O   0  0  0  0  0  0  0  0  0  0  0  0
   53.1010   24.0070   45.8090 O   0  0  0  0  0  0  0  0  0  0  0  0
   55.5020   23.9260   46.9180 N   0  0  0  0  0  0  0  0  0  0  0  0
   56.3030   25.0000   46.4230 C   0  0  0  0  0  0  0  0  0  0  0  0
   57.6980   24.8820   46.4450 C   0  0  0  0  0  0  0  0  0  0  0  0
   58.5010   25.9570   46.0530 C   0  0  0  0  0  0  0  0  0  0  0  0
   57.9130   27.1520   45.6320 C   0  0  0  0  0  0  0  0  0  0  0  0
   56.5170   27.2740   45.5920 C   0  0  0  0  0  0  0  0  0  0  0  0
   55.9190   28.5220   45.2450 N   0  0  0  0  0  0  0  0  0  0  0  0
   56.7220   29.5860   44.1400 S   0  0  0  0  0  0  0  0  0  0  0  0
   55.7040   30.4860   43.4970 O   0  0  0  0  0  0  0  0  0  0  0  0
   57.4120   28.7890   43.0690 O   0  0  0  0  0  0  0  0  0  0  0  0
   57.8960   30.5550   45.0270 C   0  0  0  0  0  0  0  0  0  0  0  0
   59.0230   29.9410   45.5890 C   0  0  0  0  0  0  0  0  0  0  0  0
   59.9330   30.6850   46.3430 C   0  0  0  0  0  0  0  0  0  0  0  0
   59.7380   32.0690   46.5470 C   0  0  0  0  0  0  0  0  0  0  0  0
   60.6810   32.8470   47.3240 N   0  0  0  0  0  0  0  0  0  0  0  0
   62.1230   32.6090   47.3740 C   0  0  0  0  0  0  0  0  0  0  0  0
   62.8080   33.8370   48.0150 C   0  0  0  0  0  0  0  0  0  0  0  0
   61.8440   34.5420   48.9780 C   0  0  0  0  0  0  0  0  0  0  0  0
   60.2400   34.1380   48.3760 S   0  0  0  0  0  0  0  0  0  0  0  0
   59.3540   33.6800   49.5040 O   0  0  0  0  0  0  0  0  0  0  0  0
   59.6240   35.2780   47.6130 O   0  0  0  0  0  0  0  0  0  0  0  0
   58.6090   32.6790   45.9590 C   0  0  0  0  0  0  0  0  0  0  0  0
   57.6930   31.9260   45.2180 C   0  0  0  0  0  0  0  0  0  0  0  0
   55.7040   26.1960   45.9820 C   0  0  0  0  0  0  0  0  0  0  0  0
   54.3120   26.3390   45.9450 O   0  0  0  0  0  0  0  0  0  0  0  0
   53.9370   21.5823   47.6285 H   0  0  0  0  0  0  0  0  0  0  0  0
   52.9276   21.2614   46.1777 H   0  0  0  0  0  0  0  0  0  0  0  0
   54.6677   20.8155   46.1777 H   0  0  0  0  0  0  0  0  0  0  0  0
   58.1635   23.9404   46.7718 H   0  0  0  0  0  0  0  0  0  0  0  0
   59.5966   25.8618   46.0761 H   0  0  0  0  0  0  0  0  0  0  0  0
   58.5467   27.9993   45.3312 H   0  0  0  0  0  0  0  0  0  0  0  0
   59.1923   28.8650   45.4352 H   0  0  0  0  0  0  0  0  0  0  0  0
   60.8105   30.1882   46.7825 H   0  0  0  0  0  0  0  0  0  0  0  0
   62.3292   31.7132   47.9782 H   0  0  0  0  0  0  0  0  0  0  0  0
   62.5117   32.4525   46.3569 H   0  0  0  0  0  0  0  0  0  0  0  0
   63.6987   33.5072   48.5699 H   0  0  0  0  0  0  0  0  0  0  0  0
   63.0981   34.5402   47.2205 H   0  0  0  0  0  0  0  0  0  0  0  0
   61.9788   34.1695   50.0042 H   0  0  0  0  0  0  0  0  0  0  0  0
   62.0135   35.6282   49.0169 H   0  0  0  0  0  0  0  0  0  0  0  0
   58.4479   33.7598   46.0852 H   0  0  0  0  0  0  0  0  0  0  0  0
   56.8083   32.4140   44.7830 H   0  0  0  0  0  0  0  0  0  0  0  0
   53.6860   25.6660   46.3730 H   0  0  0  0  0  0  0  0  0  0  0  0
  1  2  1  0
  2  3  2  0
  2  4  2  0
  2  5  1  0
  5  6  1  0
  6  7  2  0
  7  8  1  0
  8  9  2  0
  9 10  1  0
 10 11  1  0
 11 12  1  0
 12 13  2  0
 12 14  2  0
 12 15  1  0
 15 16  2  0
 16 17  1  0
 17 18  2  0
 18 19  1  0
 19 20  1  0
 20 21  1  0
 21 22  1  0
 22 23  1  0
 23 24  2  0
 23 25  2  0
 18 26  1  0
 26 27  2  0
 10 28  2  0
 28 29  1  0
 28  6  1  0
 27 15  1  0
 23 19  1  0
  1 30  1  0
  1 31  1  0
  1 32  1  0
  7 33  1  0
  8 34  1  0
  9 35  1  0
 16 36  1  0
 17 37  1  0
 20 38  1  0
 20 39  1  0
 21 40  1  0
 21 41  1  0
 22 42  1  0
 22 43  1  0
 26 44  1  0
 27 45  1  0
 29 46  1  0
M  CHG  2   5  -1  11  -1
M  END
>  <UniqueID>  (81) 
78

>  <SMILES>  (81) 
CS(=O)(=O)[N-]c1cccc([N-]S(=O)(=O)c2ccc(N3CCCS3(=O)=O)cc2)c1O

>  <Energy>  (81) 
67.25342438732983

>  <Genealogy>  (81) 
CS(=O)(=O)[N-]c1cccc([N-]S(=O)(=O)c2ccc(N3CCCS3(=O)=O)cc2)c1O (protonated)
CS(=O)(=O)[N-]c1cccc([N-]S(=O)(=O)c2ccc(N3CCCS3(=O)=O)cc2)c1O (3D coordinates assigned)
CS(=O)(=O)[N-]c1cccc([N-]S(=O)(=O)c2ccc(N3CCCS3(=O)=O)cc2)c1O (nonaromatic ring conformer: 67.25342438732983 kcal/mol)

>  <smiles>  (81) 
CS(=O)(=O)Nc1cccc(NS(=O)(=O)c2ccc(N3CCCS3(=O)=O)cc2)c1O

>  <score_type>  (81) 
oracle

>  <origin>  (81) 
adg

>  <m_score__min__energy>  (81) 
-13.69

>  <m_primary>  (81) 
energy

$$$$
81:0
     RDKit          3D

 36 37  0  0  0  0  0  0  0  0999 V2000
   56.2870   24.3160   44.4420 C   0  0  0  0  0  0  0  0  0  0  0  0
   55.3760   25.1420   45.7290 S   0  0  0  0  0  0  0  0  0  0  0  0
   53.9110   24.8220   45.6230 O   0  0  0  0  0  0  0  0  0  0  0  0
   55.8800   24.6630   47.0600 O   0  0  0  0  0  0  0  0  0  0  0  0
   55.6180   26.8570   45.6270 N   0  0  0  0  0  0  0  0  0  0  0  0
   56.8090   27.5600   46.0070 C   0  0  0  0  0  0  0  0  0  0  0  0
   57.6990   27.0640   46.9760 C   0  0  0  0  0  0  0  0  0  0  0  0
   58.8480   27.7840   47.3130 C   0  0  0  0  0  0  0  0  0  0  0  0
   59.1360   29.0060   46.6800 C   0  0  0  0  0  0  0  0  0  0  0  0
   60.3520   29.7770   47.0300 C   0  0  0  0  0  0  0  0  0  0  0  0
   61.1300   29.3320   47.9170 O   0  0  0  0  0  0  0  0  0  0  0  0
   60.7060   30.9910   46.3560 N   0  0  0  0  0  0  0  0  0  0  0  0
   60.2360   32.3100   46.6820 C   0  0  0  0  0  0  0  0  0  0  0  0
   58.8580   32.5950   46.6910 C   0  0  0  0  0  0  0  0  0  0  0  0
   58.3950   33.8510   47.0840 C   0  0  0  0  0  0  0  0  0  0  0  0
   59.2980   34.8310   47.4950 C   0  0  0  0  0  0  0  0  0  0  0  0
   60.6660   34.5580   47.5110 C   0  0  0  0  0  0  0  0  0  0  0  0
   61.1530   33.3050   47.0980 C   0  0  0  0  0  0  0  0  0  0  0  0
   62.6130   33.0640   47.1140 C   0  0  0  0  0  0  0  0  0  0  0  0
   63.1490   31.7730   47.4160 N   0  0  0  0  0  0  0  0  0  0  0  0
   63.4030   34.0010   46.8190 O   0  0  0  0  0  0  0  0  0  0  0  0
   58.2370   29.5050   45.7230 C   0  0  0  0  0  0  0  0  0  0  0  0
   57.0870   28.7840   45.3870 C   0  0  0  0  0  0  0  0  0  0  0  0
   57.0301   23.6422   44.8934 H   0  0  0  0  0  0  0  0  0  0  0  0
   55.5936   23.7323   43.8187 H   0  0  0  0  0  0  0  0  0  0  0  0
   56.8002   25.0631   43.8187 H   0  0  0  0  0  0  0  0  0  0  0  0
   57.4896   26.1043   47.4712 H   0  0  0  0  0  0  0  0  0  0  0  0
   59.5326   27.3918   48.0795 H   0  0  0  0  0  0  0  0  0  0  0  0
   58.1393   31.8204   46.3854 H   0  0  0  0  0  0  0  0  0  0  0  0
   57.3168   34.0685   47.0697 H   0  0  0  0  0  0  0  0  0  0  0  0
   58.9313   35.8201   47.8068 H   0  0  0  0  0  0  0  0  0  0  0  0
   61.3712   35.3310   47.8503 H   0  0  0  0  0  0  0  0  0  0  0  0
   62.5300   30.9360   47.4950 H   0  0  0  0  0  0  0  0  0  0  0  0
   64.1820   31.6360   47.4700 H   0  0  0  0  0  0  0  0  0  0  0  0
   58.4391   30.4696   45.2345 H   0  0  0  0  0  0  0  0  0  0  0  0
   56.3954   29.1816   44.6297 H   0  0  0  0  0  0  0  0  0  0  0  0
  1  2  1  0
  2  3  2  0
  2  4  2  0
  2  5  1  0
  5  6  1  0
  6  7  2  0
  7  8  1  0
  8  9  2  0
  9 10  1  0
 10 11  2  0
 10 12  1  0
 12 13  1  0
 13 14  2  0
 14 15  1  0
 15 16  2  0
 16 17  1  0
 17 18  2  0
 18 19  1  0
 19 20  1  0
 19 21  2  0
  9 22  1  0
 22 23  2  0
 23  6  1  0
 18 13  1  0
  1 24  1  0
  1 25  1  0
  1 26  1  0
  7 27  1  0
  8 28  1  0
 14 29  1  0
 15 30  1  0
 16 31  1  0
 17 32  1  0
 20 33  1  0
 20 34  1  0
 22 35  1  0
 23 36  1  0
M  CHG  2   5  -1  12  -1
M  END
>  <UniqueID>  (82) 
79

>  <SMILES>  (82) 
CS(=O)(=O)[N-]c1ccc(C(=O)[N-]c2ccccc2C(N)=O)cc1

>  <Energy>  (82) 
45.832135331674145

>  <Genealogy>  (82) 
CS(=O)(=O)[N-]c1ccc(C(=O)[N-]c2ccccc2C(N)=O)cc1 (protonated)
CS(=O)(=O)[N-]c1ccc(C(=O)[N-]c2ccccc2C(N)=O)cc1 (3D coordinates assigned)
CS(=O)(=O)[N-]c1ccc(C(=O)[N-]c2ccccc2C(N)=O)cc1 (optimized conformer: 45.832135331674145 kcal/mol)

>  <smiles>  (82) 
CS(=O)(=O)Nc1ccc(C(=O)Nc2ccccc2C(N)=O)cc1

>  <score_type>  (82) 
oracle

>  <origin>  (82) 
adg

>  <m_score__min__energy>  (82) 
-10.48

>  <m_primary>  (82) 
energy

$$$$
82:0
     RDKit          3D

 43 47  0  0  0  0  0  0  0  0999 V2000
   59.3860   26.7040   47.0900 C   0  0  0  0  0  0  0  0  0  0  0  0
   58.7260   27.0190   45.7880 C   0  0  0  0  0  0  0  0  0  0  0  0
   58.4060   26.0900   44.8570 N   0  0  0  0  0  0  0  0  0  0  0  0
   57.8370   26.7220   43.8330 N   0  0  0  0  0  0  0  0  0  0  0  0
   57.8210   28.0260   44.1620 C   0  0  0  0  0  0  0  0  0  0  0  0
   57.3190   29.0910   43.3970 C   0  0  0  0  0  0  0  0  0  0  0  0
   57.3970   30.3600   43.9140 N   0  0  0  0  0  0  0  0  0  0  0  0
   57.9550   30.5630   45.1460 C   0  0  0  0  0  0  0  0  0  0  0  0
   58.0990   31.7880   45.7980 C   0  0  0  0  0  0  0  0  0  0  0  0
   58.7360   31.6530   47.0280 C   0  0  0  0  0  0  0  0  0  0  0  0
   59.0790   30.0220   47.3490 S   0  0  0  0  0  0  0  0  0  0  0  0
   58.4440   29.4950   45.8810 C   0  0  0  0  0  0  0  0  0  0  0  0
   58.3640   28.2440   45.3690 N   0  0  0  0  0  0  0  0  0  0  0  0
   58.9530   32.8070   47.9600 C   0  0  0  0  0  0  0  0  0  0  0  0
   58.9460   34.0980   47.2330 N   0  0  0  0  0  0  0  0  0  0  0  0
   60.2300   34.3420   46.5370 C   0  0  0  0  0  0  0  0  0  0  0  0
   61.3900   33.8140   47.3400 C   0  0  0  0  0  0  0  0  0  0  0  0
   62.2530   32.8490   46.7980 C   0  0  0  0  0  0  0  0  0  0  0  0
   63.3400   32.3780   47.5410 C   0  0  0  0  0  0  0  0  0  0  0  0
   63.5820   32.8670   48.8330 C   0  0  0  0  0  0  0  0  0  0  0  0
   64.7340   32.3590   49.6000 C   0  0  0  0  0  0  0  0  0  0  0  0
   65.7810   33.0470   49.7350 O   0  0  0  0  0  0  0  0  0  0  0  0
   62.7200   33.8370   49.3740 C   0  0  0  0  0  0  0  0  0  0  0  0
   61.6340   34.3080   48.6300 C   0  0  0  0  0  0  0  0  0  0  0  0
   57.7610   34.2120   46.3420 C   0  0  0  0  0  0  0  0  0  0  0  0
   57.7100   33.1250   45.2450 C   0  0  0  0  0  0  0  0  0  0  0  0
   58.7320   27.0161   47.9176 H   0  0  0  0  0  0  0  0  0  0  0  0
   59.5692   25.6214   47.1557 H   0  0  0  0  0  0  0  0  0  0  0  0
   60.3429   27.2425   47.1557 H   0  0  0  0  0  0  0  0  0  0  0  0
   56.8739   28.9126   42.4070 H   0  0  0  0  0  0  0  0  0  0  0  0
   58.1503   32.8154   48.7120 H   0  0  0  0  0  0  0  0  0  0  0  0
   59.9356   32.6849   48.4391 H   0  0  0  0  0  0  0  0  0  0  0  0
   60.2104   33.8379   45.5595 H   0  0  0  0  0  0  0  0  0  0  0  0
   60.3580   35.4271   46.4094 H   0  0  0  0  0  0  0  0  0  0  0  0
   62.0735   32.4615   45.7843 H   0  0  0  0  0  0  0  0  0  0  0  0
   64.0094   31.6193   47.1094 H   0  0  0  0  0  0  0  0  0  0  0  0
   64.6786   31.3624   50.0623 H   0  0  0  0  0  0  0  0  0  0  0  0
   62.9007   34.2269   50.3866 H   0  0  0  0  0  0  0  0  0  0  0  0
   60.9670   35.0704   49.0588 H   0  0  0  0  0  0  0  0  0  0  0  0
   56.8530   34.1290   46.9574 H   0  0  0  0  0  0  0  0  0  0  0  0
   57.8309   35.1842   45.8322 H   0  0  0  0  0  0  0  0  0  0  0  0
   56.6872   33.0653   44.8446 H   0  0  0  0  0  0  0  0  0  0  0  0
   58.4193   33.3957   44.4490 H   0  0  0  0  0  0  0  0  0  0  0  0
  1  2  1  0
  2  3  2  0
  3  4  1  0
  4  5  2  0
  5  6  1  0
  6  7  2  0
  7  8  1  0
  8  9  1  0
  9 10  2  0
 10 11  1  0
 11 12  1  0
 12 13  1  0
 10 14  1  0
 14 15  1  0
 15 16  1  0
 16 17  1  0
 17 18  2  0
 18 19  1  0
 19 20  2  0
 20 21  1  0
 21 22  2  0
 20 23  1  0
 23 24  2  0
 15 25  1  0
 25 26  1  0
 13  2  1  0
 24 17  1  0
 13  5  1  0
 12  8  2  0
 26  9  1  0
  1 27  1  0
  1 28  1  0
  1 29  1  0
  6 30  1  0
 14 31  1  0
 14 32  1  0
 16 33  1  0
 16 34  1  0
 18 35  1  0
 19 36  1  0
 21 37  1  0
 23 38  1  0
 24 39  1  0
 25 40  1  0
 25 41  1  0
 26 42  1  0
 26 43  1  0
M  END
>  <UniqueID>  (83) 
80

>  <SMILES>  (83) 
Cc1nnc2cnc3c4c(sc3n12)CN(Cc1ccc(C=O)cc1)CC4

>  <Energy>  (83) 
131.1861355309176

>  <Genealogy>  (83) 
Cc1nnc2cnc3c4c(sc3n12)CN(Cc1ccc(C=O)cc1)CC4 (3D coordinates assigned)
Cc1nnc2cnc3c4c(sc3n12)CN(Cc1ccc(C=O)cc1)CC4 (nonaromatic ring conformer: 131.1861355309176 kcal/mol)

>  <smiles>  (83) 
Cc1nnc2cnc3c4c(sc3n12)CN(Cc1ccc(C=O)cc1)CC4

>  <score_type>  (83) 
oracle

>  <origin>  (83) 
adg

>  <m_score__min__energy>  (83) 
-8.3900000000000006

>  <m_primary>  (83) 
energy

$$$$
83:0
     RDKit          3D

 47 49  0  0  0  0  0  0  0  0999 V2000
   55.1470   27.3530   46.0320 H   0  0  0  0  0  0  0  0  0  0  0  0
   54.9520   26.3290   45.9610 N   0  0  0  0  0  0  0  0  0  0  0  0
   56.4550   25.5110   46.1990 S   0  0  0  0  0  0  0  0  0  0  0  0
   56.4940   24.9170   47.5780 O   0  0  0  0  0  0  0  0  0  0  0  0
   56.5820   24.4030   45.1920 O   0  0  0  0  0  0  0  0  0  0  0  0
   57.7820   26.6550   46.0090 C   0  0  0  0  0  0  0  0  0  0  0  0
   58.2800   26.9610   44.7350 C   0  0  0  0  0  0  0  0  0  0  0  0
   57.8352   26.4931   43.8444 H   0  0  0  0  0  0  0  0  0  0  0  0
   59.3400   27.8590   44.5950 C   0  0  0  0  0  0  0  0  0  0  0  0
   59.7377   28.0870   43.5951 H   0  0  0  0  0  0  0  0  0  0  0  0
   59.8970   28.4690   45.7230 C   0  0  0  0  0  0  0  0  0  0  0  0
   60.7448   29.1604   45.6082 H   0  0  0  0  0  0  0  0  0  0  0  0
   59.3820   28.2050   46.9980 C   0  0  0  0  0  0  0  0  0  0  0  0
   60.0000   28.8340   48.1340 N   0  0  0  0  0  0  0  0  0  0  0  0
   59.6090   29.9230   48.7310 C   0  0  0  0  0  0  0  0  0  0  0  0
   58.5370   29.9270   49.5680 N   0  0  0  0  0  0  0  0  0  0  0  0
   58.1350   31.0800   50.1590 C   0  0  0  0  0  0  0  0  0  0  0  0
   57.2719   31.0767   50.8410 H   0  0  0  0  0  0  0  0  0  0  0  0
   58.7970   32.2360   49.9090 N   0  0  0  0  0  0  0  0  0  0  0  0
   59.8620   32.2450   49.0680 C   0  0  0  0  0  0  0  0  0  0  0  0
   60.4830   33.3620   48.8370 N   0  0  0  0  0  0  0  0  0  0  0  0
   60.1380   34.3180   47.7830 C   0  0  0  0  0  0  0  0  0  0  0  0
   59.0964   34.6417   47.9252 H   0  0  0  0  0  0  0  0  0  0  0  0
   60.8339   35.1668   47.8554 H   0  0  0  0  0  0  0  0  0  0  0  0
   60.2800   33.7090   46.3790 C   0  0  0  0  0  0  0  0  0  0  0  0
   60.7531   34.4587   45.7277 H   0  0  0  0  0  0  0  0  0  0  0  0
   60.8801   32.7949   46.4988 H   0  0  0  0  0  0  0  0  0  0  0  0
   58.9550   33.2730   45.7230 C   0  0  0  0  0  0  0  0  0  0  0  0
   58.1516   33.9184   46.1076 H   0  0  0  0  0  0  0  0  0  0  0  0
   59.0960   33.3670   44.6361 H   0  0  0  0  0  0  0  0  0  0  0  0
   58.5660   31.8060   45.9920 C   0  0  0  0  0  0  0  0  0  0  0  0
   59.4860   31.2223   46.1434 H   0  0  0  0  0  0  0  0  0  0  0  0
   57.9201   31.7967   46.8823 H   0  0  0  0  0  0  0  0  0  0  0  0
   57.7830   31.1830   44.8630 C   0  0  0  0  0  0  0  0  0  0  0  0
   57.7870   31.7660   43.5840 C   0  0  0  0  0  0  0  0  0  0  0  0
   58.3707   32.6804   43.4016 H   0  0  0  0  0  0  0  0  0  0  0  0
   57.0530   31.1900   42.5420 C   0  0  0  0  0  0  0  0  0  0  0  0
   57.0697   31.6457   41.5410 H   0  0  0  0  0  0  0  0  0  0  0  0
   56.2990   30.0370   42.7710 C   0  0  0  0  0  0  0  0  0  0  0  0
   55.7291   29.5806   41.9483 H   0  0  0  0  0  0  0  0  0  0  0  0
   56.2680   29.4630   44.0440 C   0  0  0  0  0  0  0  0  0  0  0  0
   55.6669   28.5597   44.2247 H   0  0  0  0  0  0  0  0  0  0  0  0
   57.0000   30.0350   45.0890 C   0  0  0  0  0  0  0  0  0  0  0  0
   56.9639   29.5859   46.0925 H   0  0  0  0  0  0  0  0  0  0  0  0
   60.2610   31.0850   48.4770 N   0  0  0  0  0  0  0  0  0  0  0  0
   58.3370   27.2730   47.1390 C   0  0  0  0  0  0  0  0  0  0  0  0
   57.9536   27.0280   48.1405 H   0  0  0  0  0  0  0  0  0  0  0  0
  1  2  1  0
  2  3  1  0
  3  4  2  0
  3  5  2  0
  3  6  1  0
  6  7  2  0
  7  8  1  0
  7  9  1  0
  9 10  1  0
  9 11  2  0
 11 12  1  0
 11 13  1  0
 13 14  1  0
 14 15  2  0
 15 16  1  0
 16 17  1  0
 17 18  1  0
 17 19  2  0
 19 20  1  0
 20 21  2  0
 21 22  1  0
 22 23  1  0
 22 24  1  0
 22 25  1  0
 25 26  1  0
 25 27  1  0
 25 28  1  0
 28 29  1  0
 28 30  1  0
 28 31  1  0
 31 32  1  0
 31 33  1  0
 31 34  1  0
 34 35  2  0
 35 36  1  0
 35 37  1  0
 37 38  1  0
 37 39  2  0
 39 40  1  0
 39 41  1  0
 41 42  1  0
 41 43  2  0
 43 44  1  0
 20 45  1  0
 13 46  2  0
 46 47  1  0
 46  6  1  0
 45 15  1  0
 43 34  1  0
M  CHG  3   2  -1  16  -1  45  -1
M  END
>  <UniqueID>  (84) 
81

>  <SMILES>  (84) 
[NH-]S(=O)(=O)c1cccc(/N=c2\[n-]cn/c(=N/CCCCc3ccccc3)[n-]2)c1

>  <Energy>  (84) 
52.32314754124996

>  <Genealogy>  (84) 
[NH-]S(=O)(=O)c1cccc(N=c2[n-]cnc(=NCCCCc3ccccc3)[n-]2)c1 (protonated)
[NH-]S(=O)(=O)c1cccc(/N=c2\[n-]cn/c(=N/CCCCc3ccccc3)[n-]2)c1 (cis-trans isomerization)
[NH-]S(=O)(=O)c1cccc(/N=c2\[n-]cn/c(=N/CCCCc3ccccc3)[n-]2)c1 (3D coordinates assigned)
[NH-]S(=O)(=O)c1cccc(/N=c2\[n-]cn/c(=N/CCCCc3ccccc3)[n-]2)c1 (optimized conformer: 52.32314754124996 kcal/mol)

>  <smiles>  (84) 
NS(=O)(=O)c1cccc(N=c2[nH]cnc(=NCCCCc3ccccc3)[nH]2)c1

>  <score_type>  (84) 
oracle

>  <origin>  (84) 
adg

>  <m_score__min__energy>  (84) 
-13.949999999999999

>  <m_primary>  (84) 
energy

$$$$
84:0
     RDKit          3D

 34 35  0  0  0  0  0  0  0  0999 V2000
   50.9280   22.8280   46.3570 C   0  0  0  0  0  0  0  0  0  0  0  0
   52.0940   22.9580   45.3820 C   0  0  0  0  0  0  0  0  0  0  0  0
   53.0930   21.9740   45.6530 O   0  0  0  0  0  0  0  0  0  0  0  0
   54.4770   22.2060   45.7090 C   0  0  0  0  0  0  0  0  0  0  0  0
   55.1150   22.6630   44.5520 C   0  0  0  0  0  0  0  0  0  0  0  0
   56.4900   22.9100   44.5480 C   0  0  0  0  0  0  0  0  0  0  0  0
   57.2580   22.6940   45.7040 C   0  0  0  0  0  0  0  0  0  0  0  0
   58.7160   22.9660   45.6860 C   0  0  0  0  0  0  0  0  0  0  0  0
   59.5210   22.0190   45.4740 O   0  0  0  0  0  0  0  0  0  0  0  0
   59.2500   24.2660   45.9700 N   0  0  0  0  0  0  0  0  0  0  0  0
   58.5630   25.5170   45.8180 C   0  0  0  0  0  0  0  0  0  0  0  0
   59.2920   26.6470   45.4380 C   0  0  0  0  0  0  0  0  0  0  0  0
   58.6540   27.8780   45.2700 C   0  0  0  0  0  0  0  0  0  0  0  0
   57.2640   28.0000   45.4620 C   0  0  0  0  0  0  0  0  0  0  0  0
   56.6120   29.3230   45.2810 C   0  0  0  0  0  0  0  0  0  0  0  0
   57.2640   30.3850   45.4650 O   0  0  0  0  0  0  0  0  0  0  0  0
   55.2760   29.4180   44.9100 O   0  0  0  0  0  0  0  0  0  0  0  0
   56.5260   26.8500   45.8190 C   0  0  0  0  0  0  0  0  0  0  0  0
   55.1490   26.9080   46.0090 O   0  0  0  0  0  0  0  0  0  0  0  0
   57.1730   25.6210   45.9870 C   0  0  0  0  0  0  0  0  0  0  0  0
   56.6190   22.2360   46.8730 C   0  0  0  0  0  0  0  0  0  0  0  0
   57.3450   22.0020   48.0350 O   0  0  0  0  0  0  0  0  0  0  0  0
   55.2400   21.9940   46.8730 C   0  0  0  0  0  0  0  0  0  0  0  0
   51.3065   22.8702   47.3890 H   0  0  0  0  0  0  0  0  0  0  0  0
   50.2188   23.6526   46.1925 H   0  0  0  0  0  0  0  0  0  0  0  0
   50.4179   21.8674   46.1925 H   0  0  0  0  0  0  0  0  0  0  0  0
   51.7228   22.8220   44.3555 H   0  0  0  0  0  0  0  0  0  0  0  0
   52.5413   23.9562   45.4980 H   0  0  0  0  0  0  0  0  0  0  0  0
   54.5288   22.8296   43.6362 H   0  0  0  0  0  0  0  0  0  0  0  0
   56.9754   23.2768   43.6316 H   0  0  0  0  0  0  0  0  0  0  0  0
   60.3761   26.5664   45.2700 H   0  0  0  0  0  0  0  0  0  0  0  0
   59.2434   28.7618   44.9846 H   0  0  0  0  0  0  0  0  0  0  0  0
   56.5878   24.7286   46.2537 H   0  0  0  0  0  0  0  0  0  0  0  0
   54.7489   21.6354   47.7896 H   0  0  0  0  0  0  0  0  0  0  0  0
  1  2  1  0
  2  3  1  0
  3  4  1  0
  4  5  2  0
  5  6  1  0
  6  7  2  0
  7  8  1  0
  8  9  2  0
  8 10  1  0
 10 11  1  0
 11 12  2  0
 12 13  1  0
 13 14  2  0
 14 15  1  0
 15 16  2  0
 15 17  1  0
 14 18  1  0
 18 19  1  0
 18 20  2  0
  7 21  1  0
 21 22  1  0
 21 23  2  0
 23  4  1  0
 20 11  1  0
  1 24  1  0
  1 25  1  0
  1 26  1  0
  2 27  1  0
  2 28  1  0
  5 29  1  0
  6 30  1  0
 12 31  1  0
 13 32  1  0
 20 33  1  0
 23 34  1  0
M  CHG  4  10  -1  17  -1  19  -1  22  -1
M  END
>  <UniqueID>  (85) 
82

>  <SMILES>  (85) 
CCOc1ccc(C(=O)[N-]c2ccc(C(=O)[O-])c([O-])c2)c([O-])c1

>  <Energy>  (85) 
43.13206611383118

>  <Genealogy>  (85) 
CCOc1ccc(C(=O)[N-]c2ccc(C(=O)[O-])c([O-])c2)c([O-])c1 (protonated)
CCOc1ccc(C(=O)[N-]c2ccc(C(=O)[O-])c([O-])c2)c([O-])c1 (3D coordinates assigned)
CCOc1ccc(C(=O)[N-]c2ccc(C(=O)[O-])c([O-])c2)c([O-])c1 (optimized conformer: 43.13206611383118 kcal/mol)

>  <smiles>  (85) 
CCOc1ccc(C(=O)Nc2ccc(C(=O)O)c(O)c2)c(O)c1

>  <score_type>  (85) 
oracle

>  <origin>  (85) 
adg

>  <m_score__min__energy>  (85) 
-15.81

>  <m_primary>  (85) 
energy

$$$$
85:0
     RDKit          3D

 41 42  0  0  0  0  0  0  0  0999 V2000
   60.2886   32.1855   50.8656 H   0  0  0  0  0  0  0  0  0  0  0  0
   60.1550   31.5010   50.0150 C   0  0  0  0  0  0  0  0  0  0  0  0
   60.6130   31.9190   48.8150 C   0  0  0  0  0  0  0  0  0  0  0  0
   61.0920   31.0230   47.7580 C   0  0  0  0  0  0  0  0  0  0  0  0
   62.1500   31.3020   47.1340 O   0  0  0  0  0  0  0  0  0  0  0  0
   60.3130   29.8720   47.4150 N   0  0  0  0  0  0  0  0  0  0  0  0
   59.2260   29.8230   46.4810 C   0  0  0  0  0  0  0  0  0  0  0  0
   58.2630   28.7970   46.5090 C   0  0  0  0  0  0  0  0  0  0  0  0
   58.3190   28.0132   47.2788 H   0  0  0  0  0  0  0  0  0  0  0  0
   57.2350   28.7710   45.5610 C   0  0  0  0  0  0  0  0  0  0  0  0
   56.4786   27.9730   45.5932 H   0  0  0  0  0  0  0  0  0  0  0  0
   57.1670   29.7580   44.5720 C   0  0  0  0  0  0  0  0  0  0  0  0
   55.8780   29.7220   43.3830 Cl  0  0  0  0  0  0  0  0  0  0  0  0
   58.1350   30.7660   44.5250 C   0  0  0  0  0  0  0  0  0  0  0  0
   58.0864   31.5388   43.7437 H   0  0  0  0  0  0  0  0  0  0  0  0
   59.1650   30.7920   45.4710 C   0  0  0  0  0  0  0  0  0  0  0  0
   59.9323   31.5786   45.4216 H   0  0  0  0  0  0  0  0  0  0  0  0
   60.5130   33.6290   48.4110 S   0  0  0  0  0  0  0  0  0  0  0  0
   61.8630   34.1310   47.9810 O   0  0  0  0  0  0  0  0  0  0  0  0
   60.0820   34.4230   49.6140 O   0  0  0  0  0  0  0  0  0  0  0  0
   59.3590   33.8350   47.1000 C   0  0  0  0  0  0  0  0  0  0  0  0
   58.0510   33.3460   47.2260 C   0  0  0  0  0  0  0  0  0  0  0  0
   57.7373   32.8506   48.1567 H   0  0  0  0  0  0  0  0  0  0  0  0
   57.1440   33.4870   46.1700 C   0  0  0  0  0  0  0  0  0  0  0  0
   56.1168   33.1072   46.2734 H   0  0  0  0  0  0  0  0  0  0  0  0
   57.5420   34.1100   44.9840 C   0  0  0  0  0  0  0  0  0  0  0  0
   56.8272   34.2227   44.1555 H   0  0  0  0  0  0  0  0  0  0  0  0
   58.8480   34.5900   44.8500 C   0  0  0  0  0  0  0  0  0  0  0  0
   59.1618   35.0764   43.9146 H   0  0  0  0  0  0  0  0  0  0  0  0
   59.7560   34.4520   45.9050 C   0  0  0  0  0  0  0  0  0  0  0  0
   60.7839   34.8284   45.7970 H   0  0  0  0  0  0  0  0  0  0  0  0
   59.5030   30.2330   50.2870 N   0  0  0  0  0  0  0  0  0  0  0  0
   59.3840   29.7630   49.3580 H   0  0  0  0  0  0  0  0  0  0  0  0
   60.3280   29.3290   51.1060 C   0  0  0  0  0  0  0  0  0  0  0  0
   60.1446   29.5300   52.1718 H   0  0  0  0  0  0  0  0  0  0  0  0
   60.0644   28.2855   50.8790 H   0  0  0  0  0  0  0  0  0  0  0  0
   61.3912   29.4963   50.8790 H   0  0  0  0  0  0  0  0  0  0  0  0
   58.1480   30.4000   50.8410 C   0  0  0  0  0  0  0  0  0  0  0  0
   58.1978   30.3939   51.9399 H   0  0  0  0  0  0  0  0  0  0  0  0
   57.7271   31.3568   50.4984 H   0  0  0  0  0  0  0  0  0  0  0  0
   57.5074   29.5740   50.4984 H   0  0  0  0  0  0  0  0  0  0  0  0
  1  2  1  0
  2  3  2  0
  3  4  1  0
  4  5  2  0
  4  6  1  0
  6  7  1  0
  7  8  2  0
  8  9  1  0
  8 10  1  0
 10 11  1  0
 10 12  2  0
 12 13  1  0
 12 14  1  0
 14 15  1  0
 14 16  2  0
 16 17  1  0
  3 18  1  0
 18 19  2  0
 18 20  2  0
 18 21  1  0
 21 22  2  0
 22 23  1  0
 22 24  1  0
 24 25  1  0
 24 26  2  0
 26 27  1  0
 26 28  1  0
 28 29  1  0
 28 30  2  0
 30 31  1  0
  2 32  1  0
 32 33  1  0
 32 34  1  0
 34 35  1  0
 34 36  1  0
 34 37  1  0
 32 38  1  0
 38 39  1  0
 38 40  1  0
 38 41  1  0
 16  7  1  0
 30 21  1  0
M  CHG  2   6  -1  32   1
M  END
>  <UniqueID>  (86) 
83

>  <SMILES>  (86) 
C[NH+](C)/C=C(\C(=O)[N-]c1ccc(Cl)cc1)S(=O)(=O)c1ccccc1

>  <Energy>  (86) 
57.49367562550056

>  <Genealogy>  (86) 
C[NH+](C)C=C(C(=O)[N-]c1ccc(Cl)cc1)S(=O)(=O)c1ccccc1 (protonated)
C[NH+](C)/C=C(\C(=O)[N-]c1ccc(Cl)cc1)S(=O)(=O)c1ccccc1 (cis-trans isomerization)
C[NH+](C)/C=C(\C(=O)[N-]c1ccc(Cl)cc1)S(=O)(=O)c1ccccc1 (3D coordinates assigned)
C[NH+](C)/C=C(\C(=O)[N-]c1ccc(Cl)cc1)S(=O)(=O)c1ccccc1 (optimized conformer: 57.49367562550056 kcal/mol)

>  <smiles>  (86) 
CN(C)C=C(C(=O)Nc1ccc(Cl)cc1)S(=O)(=O)c1ccccc1

>  <score_type>  (86) 
oracle

>  <origin>  (86) 
adg

>  <m_score__min__energy>  (86) 
-7.96

>  <m_primary>  (86) 
energy

$$$$
86:0
     RDKit          3D

 46 49  0  0  1  0  0  0  0  0999 V2000
   60.9960   26.5040   46.8070 F   0  0  0  0  0  0  0  0  0  0  0  0
   60.0510   27.1780   46.1070 C   0  0  0  0  0  0  0  0  0  0  0  0
   58.7160   26.8670   46.2250 C   0  0  0  0  0  0  0  0  0  0  0  0
   57.7660   27.5630   45.5050 C   0  0  0  0  0  0  0  0  0  0  0  0
   58.1210   28.6030   44.6360 C   0  0  0  0  0  0  0  0  0  0  0  0
   57.0750   29.3490   43.8610 C   0  0  0  0  0  0  0  0  0  0  0  0
   56.6750   30.5520   44.5080 N   0  0  0  0  0  0  0  0  0  0  0  0
   57.3990   31.3320   45.2200 C   0  0  0  0  0  0  0  0  0  0  0  0
   57.7930   30.9220   46.4160 N   0  0  0  0  0  0  0  0  0  0  0  0
   58.5490   31.7210   47.1750 C   0  0  0  0  0  0  0  0  0  0  0  0
   58.9740   31.4280   48.3230 N   0  0  0  0  0  0  0  0  0  0  0  0
   60.0990   30.5640   48.5660 C   0  0  0  0  0  0  0  0  0  0  0  0
   61.3660   31.3500   48.3550 C   0  0  0  0  0  0  0  0  0  0  0  0
   62.1070   31.2600   47.2020 C   0  0  0  0  0  0  0  0  0  0  0  0
   63.2630   32.0390   47.1290 C   0  0  0  0  0  0  0  0  0  0  0  0
   63.6460   32.8650   48.1730 C   0  0  0  0  0  0  0  0  0  0  0  0
   62.8990   32.9470   49.3210 C   0  0  0  0  0  0  0  0  0  0  0  0
   61.7610   32.1880   49.4030 C   0  0  0  0  0  0  0  0  0  0  0  0
   58.8900   32.9700   46.6570 C   0  0  0  0  0  0  0  0  0  0  0  0
   59.6700   33.8350   47.4020 C   0  0  0  0  0  0  0  0  0  0  0  0
   60.0080   35.0760   46.8850 C   0  0  0  0  0  0  0  0  0  0  0  0
   59.5760   35.4680   45.6290 C   0  0  0  0  0  0  0  0  0  0  0  0
   58.7950   34.6150   44.8720 C   0  0  0  0  0  0  0  0  0  0  0  0
   58.4740   33.3870   45.4090 C   0  0  0  0  0  0  0  0  0  0  0  0
   57.7160   32.5270   44.7060 N   0  0  0  0  0  0  0  0  0  0  0  0
   59.4570   28.8820   44.5480 C   0  0  0  0  0  0  0  0  0  0  0  0
   60.4280   28.1990   45.2590 C   0  0  0  0  0  0  0  0  0  0  0  0
   58.4028   26.0563   46.8993 H   0  0  0  0  0  0  0  0  0  0  0  0
   56.7050   27.2947   45.6162 H   0  0  0  0  0  0  0  0  0  0  0  0
   57.4812   29.5992   42.8698 H   0  0  0  0  0  0  0  0  0  0  0  0
   56.1900   28.7005   43.7821 H   0  0  0  0  0  0  0  0  0  0  0  0
   57.5330   30.0060   46.7770 H   0  0  0  0  0  0  0  0  0  0  0  0
   60.0627   30.1911   49.6002 H   0  0  0  0  0  0  0  0  0  0  0  0
   60.0699   29.7078   47.8760 H   0  0  0  0  0  0  0  0  0  0  0  0
   61.8031   30.6035   46.3733 H   0  0  0  0  0  0  0  0  0  0  0  0
   63.8838   31.9960   46.2220 H   0  0  0  0  0  0  0  0  0  0  0  0
   64.5635   33.4647   48.0802 H   0  0  0  0  0  0  0  0  0  0  0  0
   63.2043   33.6020   50.1503 H   0  0  0  0  0  0  0  0  0  0  0  0
   61.1447   32.2388   50.3127 H   0  0  0  0  0  0  0  0  0  0  0  0
   60.0212   33.5394   48.4016 H   0  0  0  0  0  0  0  0  0  0  0  0
   60.6291   35.7602   47.4818 H   0  0  0  0  0  0  0  0  0  0  0  0
   59.8539   36.4565   45.2345 H   0  0  0  0  0  0  0  0  0  0  0  0
   58.4408   34.9071   43.8724 H   0  0  0  0  0  0  0  0  0  0  0  0
   57.3900   32.8010   43.7790 H   0  0  0  0  0  0  0  0  0  0  0  0
   59.7766   29.6924   43.8764 H   0  0  0  0  0  0  0  0  0  0  0  0
   61.4891   28.4672   45.1493 H   0  0  0  0  0  0  0  0  0  0  0  0
  1  2  1  0
  2  3  2  0
  3  4  1  0
  4  5  2  0
  5  6  1  0
  6  7  1  0
  7  8  2  0
  8  9  1  0
  9 10  1  0
 10 11  2  0
 11 12  1  0
 12 13  1  0
 13 14  2  0
 14 15  1  0
 15 16  2  0
 16 17  1  0
 17 18  2  0
 10 19  1  0
 19 20  2  0
 20 21  1  0
 21 22  2  0
 22 23  1  0
 23 24  2  0
 24 25  1  0
  5 26  1  0
 26 27  2  0
 27  2  1  0
 25  8  1  0
 18 13  1  0
 24 19  1  0
  3 28  1  0
  4 29  1  0
  6 30  1  0
  6 31  1  0
  9 32  1  0
 12 33  1  0
 12 34  1  0
 14 35  1  0
 15 36  1  0
 16 37  1  0
 17 38  1  0
 18 39  1  0
 20 40  1  0
 21 41  1  0
 22 42  1  0
 23 43  1  0
 25 44  1  0
 26 45  1  0
 27 46  1  0
M  END
>  <smiles>  (87) 
Fc1ccc(CN=c2[nH]c(=NCc3ccccc3)c3ccccc3[nH]2)cc1

>  <score_type>  (87) 
oracle

>  <origin>  (87) 
adg

>  <m_score__min__energy>  (87) 
-8.7899999999999991

>  <m_primary>  (87) 
energy

$$$$
87:0
     RDKit          3D

 50 53  0  0  1  0  0  0  0  0999 V2000
   55.8390   24.5830   46.9460 O   0  0  0  0  0  0  0  0  0  0  0  0
   55.9420   25.7040   46.4190 N   0  0  0  0  0  0  0  0  0  0  0  0
   54.7730   26.3180   45.9800 O   0  0  0  0  0  0  0  0  0  0  0  0
   57.1550   26.3890   46.2390 C   0  0  0  0  0  0  0  0  0  0  0  0
   58.3280   25.6950   46.0180 C   0  0  0  0  0  0  0  0  0  0  0  0
   59.5210   26.3970   45.8410 C   0  0  0  0  0  0  0  0  0  0  0  0
   59.5380   27.7850   45.8860 C   0  0  0  0  0  0  0  0  0  0  0  0
   58.3460   28.4760   46.1110 C   0  0  0  0  0  0  0  0  0  0  0  0
   58.3180   29.9330   46.1660 C   0  0  0  0  0  0  0  0  0  0  0  0
   57.4380   30.6490   45.5940 N   0  0  0  0  0  0  0  0  0  0  0  0
   57.5840   31.3150   44.3770 N   0  0  0  0  0  0  0  0  0  0  0  0
   58.1340   32.4790   44.0650 C   0  0  0  0  0  0  0  0  0  0  0  0
   58.7580   33.3780   45.0310 C   0  0  0  0  0  0  0  0  0  0  0  0
   59.0480   34.7120   44.7130 C   0  0  0  0  0  0  0  0  0  0  0  0
   59.6400   35.5500   45.6390 C   0  0  0  0  0  0  0  0  0  0  0  0
   59.9640   35.1020   46.9060 C   0  0  0  0  0  0  0  0  0  0  0  0
   59.6850   33.7880   47.2380 C   0  0  0  0  0  0  0  0  0  0  0  0
   60.0500   33.1290   48.7960 S   0  0  0  0  0  0  0  0  0  0  0  0
   59.5400   31.6960   48.8640 O   0  0  0  0  0  0  0  0  0  0  0  0
   59.3210   33.9290   49.8550 O   0  0  0  0  0  0  0  0  0  0  0  0
   61.7170   33.0650   49.1420 N   0  0  0  0  0  0  0  0  0  0  0  0
   62.0340   31.7120   49.5650 C   0  0  0  0  0  0  0  0  0  0  0  0
   63.5290   31.6520   49.8000 C   0  0  0  0  0  0  0  0  0  0  0  0
   64.2100   31.9150   48.6340 O   0  0  0  0  0  0  0  0  0  0  0  0
   63.9230   33.2220   48.2410 C   0  0  0  0  0  0  0  0  0  0  0  0
   62.4460   33.2800   47.9100 C   0  0  0  0  0  0  0  0  0  0  0  0
   59.0850   32.9300   46.3080 C   0  0  0  0  0  0  0  0  0  0  0  0
   58.0370   32.7160   42.7240 N   0  0  0  0  0  0  0  0  0  0  0  0
   57.4090   31.6690   42.1990 N   0  0  0  0  0  0  0  0  0  0  0  0
   57.1250   30.8010   43.2070 C   0  0  0  0  0  0  0  0  0  0  0  0
   56.3550   29.3730   43.0160 S   0  0  0  0  0  0  0  0  0  0  0  0
   57.1600   27.7610   46.2860 C   0  0  0  0  0  0  0  0  0  0  0  0
   58.3222   24.5956   45.9817 H   0  0  0  0  0  0  0  0  0  0  0  0
   60.4565   25.8460   45.6642 H   0  0  0  0  0  0  0  0  0  0  0  0
   60.4808   28.3341   45.7458 H   0  0  0  0  0  0  0  0  0  0  0  0
   59.1071   30.4434   46.7377 H   0  0  0  0  0  0  0  0  0  0  0  0
   58.8010   35.0972   43.7127 H   0  0  0  0  0  0  0  0  0  0  0  0
   59.8573   36.5924   45.3628 H   0  0  0  0  0  0  0  0  0  0  0  0
   60.4345   35.7770   47.6361 H   0  0  0  0  0  0  0  0  0  0  0  0
   61.4969   31.4727   50.4947 H   0  0  0  0  0  0  0  0  0  0  0  0
   61.7308   30.9834   48.7987 H   0  0  0  0  0  0  0  0  0  0  0  0
   63.8067   32.3991   50.5580 H   0  0  0  0  0  0  0  0  0  0  0  0
   63.7947   30.6428   50.1478 H   0  0  0  0  0  0  0  0  0  0  0  0
   64.1528   33.9200   49.0595 H   0  0  0  0  0  0  0  0  0  0  0  0
   64.5287   33.5077   47.3683 H   0  0  0  0  0  0  0  0  0  0  0  0
   62.1932   34.2650   47.4906 H   0  0  0  0  0  0  0  0  0  0  0  0
   62.1847   32.5136   47.1655 H   0  0  0  0  0  0  0  0  0  0  0  0
   58.8693   31.8889   46.5900 H   0  0  0  0  0  0  0  0  0  0  0  0
   57.1650   31.5190   41.1870 H   0  0  0  0  0  0  0  0  0  0  0  0
   56.2192   28.3027   46.4635 H   0  0  0  0  0  0  0  0  0  0  0  0
  1  2  2  0
  2  3  1  0
  2  4  1  0
  4  5  2  0
  5  6  1  0
  6  7  2  0
  7  8  1  0
  8  9  1  0
  9 10  2  0
 10 11  1  0
 11 12  1  0
 12 13  1  0
 13 14  2  0
 14 15  1  0
 15 16  2  0
 16 17  1  0
 17 18  1  0
 18 19  2  0
 18 20  2  0
 18 21  1  0
 21 22  1  0
 22 23  1  0
 23 24  1  0
 24 25  1  0
 25 26  1  0
 17 27  2  0
 12 28  2  0
 28 29  1  0
 29 30  1  0
 30 31  2  0
  8 32  2  0
 32  4  1  0
 30 11  1  0
 27 13  1  0
 26 21  1  0
  5 33  1  0
  6 34  1  0
  7 35  1  0
  9 36  1  0
 14 37  1  0
 15 38  1  0
 16 39  1  0
 22 40  1  0
 22 41  1  0
 23 42  1  0
 23 43  1  0
 25 44  1  0
 25 45  1  0
 26 46  1  0
 26 47  1  0
 27 48  1  0
 29 49  1  0
 32 50  1  0
M  CHG  2   2   1   3  -1
M  END
>  <smiles>  (88) 
O=[N+]([O-])c1cccc(C=Nn2c(-c3cccc(S(=O)(=O)N4CCOCC4)c3)n[nH]c2=S)c1

>  <score_type>  (88) 
oracle

>  <origin>  (88) 
adg

>  <m_score__min__energy>  (88) 
-11.24

>  <m_primary>  (88) 
energy

$$$$
88:0
     RDKit          3D

 41 42  0  0  0  0  0  0  0  0999 V2000
   55.5320   24.0010   46.6780 C   0  0  0  0  0  0  0  0  0  0  0  0
   55.0090   24.9630   45.6180 C   0  0  0  0  0  0  0  0  0  0  0  0
   55.2150   26.3500   46.0420 N   0  0  0  0  0  0  0  0  0  0  0  0
   56.8750   26.8290   45.8410 S   0  0  0  0  0  0  0  0  0  0  0  0
   57.7110   25.6210   45.5300 O   0  0  0  0  0  0  0  0  0  0  0  0
   57.3760   27.4510   47.1140 O   0  0  0  0  0  0  0  0  0  0  0  0
   57.0200   27.9790   44.5490 N   0  0  0  0  0  0  0  0  0  0  0  0
   57.3130   29.3720   44.7510 C   0  0  0  0  0  0  0  0  0  0  0  0
   56.6650   30.3300   43.9550 C   0  0  0  0  0  0  0  0  0  0  0  0
   56.9430   31.6900   44.1120 C   0  0  0  0  0  0  0  0  0  0  0  0
   57.8650   32.1140   45.0750 C   0  0  0  0  0  0  0  0  0  0  0  0
   58.2350   33.8280   45.2330 S   0  0  0  0  0  0  0  0  0  0  0  0
   57.0220   34.6690   44.9420 O   0  0  0  0  0  0  0  0  0  0  0  0
   59.3200   34.1840   44.2570 O   0  0  0  0  0  0  0  0  0  0  0  0
   58.7850   34.1600   46.8430 N   0  0  0  0  0  0  0  0  0  0  0  0
   60.1260   33.9690   47.3120 C   0  0  0  0  0  0  0  0  0  0  0  0
   61.1790   33.6130   46.4490 C   0  0  0  0  0  0  0  0  0  0  0  0
   62.4750   33.4490   46.9470 C   0  0  0  0  0  0  0  0  0  0  0  0
   62.7400   33.6480   48.3100 C   0  0  0  0  0  0  0  0  0  0  0  0
   64.1220   33.4360   48.8540 C   0  0  0  0  0  0  0  0  0  0  0  0
   61.6870   33.9790   49.1740 C   0  0  0  0  0  0  0  0  0  0  0  0
   60.3910   34.1420   48.6760 C   0  0  0  0  0  0  0  0  0  0  0  0
   58.5010   31.1670   45.8870 C   0  0  0  0  0  0  0  0  0  0  0  0
   58.2270   29.8050   45.7290 C   0  0  0  0  0  0  0  0  0  0  0  0
   55.3133   24.4033   47.6782 H   0  0  0  0  0  0  0  0  0  0  0  0
   55.0410   23.0237   46.5605 H   0  0  0  0  0  0  0  0  0  0  0  0
   56.6192   23.8817   46.5605 H   0  0  0  0  0  0  0  0  0  0  0  0
   55.5459   24.7889   44.6738 H   0  0  0  0  0  0  0  0  0  0  0  0
   53.9320   24.7886   45.4777 H   0  0  0  0  0  0  0  0  0  0  0  0
   56.9900   27.6030   43.5760 H   0  0  0  0  0  0  0  0  0  0  0  0
   55.9320   30.0068   43.2012 H   0  0  0  0  0  0  0  0  0  0  0  0
   56.4352   32.4301   43.4762 H   0  0  0  0  0  0  0  0  0  0  0  0
   60.9814   33.4630   45.3773 H   0  0  0  0  0  0  0  0  0  0  0  0
   63.2907   33.1626   46.2668 H   0  0  0  0  0  0  0  0  0  0  0  0
   64.0881   33.4412   49.9535 H   0  0  0  0  0  0  0  0  0  0  0  0
   64.5094   32.4679   48.5037 H   0  0  0  0  0  0  0  0  0  0  0  0
   64.7818   34.2434   48.5037 H   0  0  0  0  0  0  0  0  0  0  0  0
   61.8813   34.1111   50.2486 H   0  0  0  0  0  0  0  0  0  0  0  0
   59.5727   34.4083   49.3612 H   0  0  0  0  0  0  0  0  0  0  0  0
   59.2192   31.4959   46.6525 H   0  0  0  0  0  0  0  0  0  0  0  0
   58.7289   29.0679   46.3730 H   0  0  0  0  0  0  0  0  0  0  0  0
  1  2  1  0
  2  3  1  0
  3  4  1  0
  4  5  2  0
  4  6  2  0
  4  7  1  0
  7  8  1  0
  8  9  2  0
  9 10  1  0
 10 11  2  0
 11 12  1  0
 12 13  2  0
 12 14  2  0
 12 15  1  0
 15 16  1  0
 16 17  2  0
 17 18  1  0
 18 19  2  0
 19 20  1  0
 19 21  1  0
 21 22  2  0
 11 23  1  0
 23 24  2  0
 24  8  1  0
 22 16  1  0
  1 25  1  0
  1 26  1  0
  1 27  1  0
  2 28  1  0
  2 29  1  0
  7 30  1  0
  9 31  1  0
 10 32  1  0
 17 33  1  0
 18 34  1  0
 20 35  1  0
 20 36  1  0
 20 37  1  0
 21 38  1  0
 22 39  1  0
 23 40  1  0
 24 41  1  0
M  CHG  2   3  -1  15  -1
M  END
>  <UniqueID>  (89) 
84

>  <SMILES>  (89) 
CC[N-]S(=O)(=O)Nc1ccc(S(=O)(=O)[N-]c2ccc(C)cc2)cc1

>  <Energy>  (89) 
41.085114777371565

>  <Genealogy>  (89) 
CC[N-]S(=O)(=O)Nc1ccc(S(=O)(=O)[N-]c2ccc(C)cc2)cc1 (protonated)
CC[N-]S(=O)(=O)Nc1ccc(S(=O)(=O)[N-]c2ccc(C)cc2)cc1 (3D coordinates assigned)
CC[N-]S(=O)(=O)Nc1ccc(S(=O)(=O)[N-]c2ccc(C)cc2)cc1 (optimized conformer: 41.085114777371565 kcal/mol)

>  <smiles>  (89) 
CCNS(=O)(=O)Nc1ccc(S(=O)(=O)Nc2ccc(C)cc2)cc1

>  <score_type>  (89) 
oracle

>  <origin>  (89) 
adg

>  <m_score__min__energy>  (89) 
-11.25

>  <m_primary>  (89) 
energy

$$$$
89:0
     RDKit          3D

 39 41  0  0  0  0  0  0  0  0999 V2000
   59.7620   35.9690   46.3850 N   0  0  0  0  0  0  0  0  0  0  0  0
   59.8890   34.3450   46.9620 S   0  0  0  0  0  0  0  0  0  0  0  0
   59.3120   34.2630   48.3470 O   0  0  0  0  0  0  0  0  0  0  0  0
   61.3360   33.9430   47.0190 O   0  0  0  0  0  0  0  0  0  0  0  0
   59.0150   33.2660   45.8790 C   0  0  0  0  0  0  0  0  0  0  0  0
   58.4370   33.7600   44.7020 C   0  0  0  0  0  0  0  0  0  0  0  0
   57.7390   32.9020   43.8500 C   0  0  0  0  0  0  0  0  0  0  0  0
   57.6240   31.5450   44.1610 C   0  0  0  0  0  0  0  0  0  0  0  0
   58.2250   31.0280   45.3200 C   0  0  0  0  0  0  0  0  0  0  0  0
   58.0790   29.6310   45.6250 N   0  0  0  0  0  0  0  0  0  0  0  0
   58.9410   28.6020   45.1160 C   0  0  0  0  0  0  0  0  0  0  0  0
   59.7410   28.8420   44.1700 O   0  0  0  0  0  0  0  0  0  0  0  0
   58.8280   27.2070   45.6420 C   0  0  0  0  0  0  0  0  0  0  0  0
   57.6480   27.1050   46.4880 N   0  0  0  0  0  0  0  0  0  0  0  0
   56.3180   27.1550   45.9710 C   0  0  0  0  0  0  0  0  0  0  0  0
   55.9590   28.1200   45.2430 O   0  0  0  0  0  0  0  0  0  0  0  0
   55.4230   26.0720   46.2450 N   0  0  0  0  0  0  0  0  0  0  0  0
   55.5140   24.7350   45.7320 C   0  0  0  0  0  0  0  0  0  0  0  0
   54.9890   23.6750   46.5130 C   0  0  0  0  0  0  0  0  0  0  0  0
   55.0310   22.3460   46.0500 C   0  0  0  0  0  0  0  0  0  0  0  0
   55.5920   22.1170   44.7980 C   0  0  0  0  0  0  0  0  0  0  0  0
   55.7250   20.9450   44.1550 N   0  0  0  0  0  0  0  0  0  0  0  0
   56.2970   21.2050   42.9810 N   0  0  0  0  0  0  0  0  0  0  0  0
   56.5250   22.5360   42.8790 C   0  0  0  0  0  0  0  0  0  0  0  0
   56.0810   23.1330   44.0330 C   0  0  0  0  0  0  0  0  0  0  0  0
   56.0580   24.4590   44.4530 C   0  0  0  0  0  0  0  0  0  0  0  0
   58.9060   31.9030   46.1860 C   0  0  0  0  0  0  0  0  0  0  0  0
   59.1730   36.4920   47.0710 H   0  0  0  0  0  0  0  0  0  0  0  0
   58.5334   34.8261   44.4487 H   0  0  0  0  0  0  0  0  0  0  0  0
   57.2786   33.2955   42.9317 H   0  0  0  0  0  0  0  0  0  0  0  0
   57.0591   30.8773   43.4938 H   0  0  0  0  0  0  0  0  0  0  0  0
   57.2450   29.3340   46.1810 H   0  0  0  0  0  0  0  0  0  0  0  0
   58.7389   26.5035   44.8011 H   0  0  0  0  0  0  0  0  0  0  0  0
   59.7247   26.9615   46.2299 H   0  0  0  0  0  0  0  0  0  0  0  0
   54.5426   23.8937   47.4943 H   0  0  0  0  0  0  0  0  0  0  0  0
   54.6344   21.5185   46.6566 H   0  0  0  0  0  0  0  0  0  0  0  0
   56.9853   23.0490   42.0217 H   0  0  0  0  0  0  0  0  0  0  0  0
   56.4485   25.2651   43.8145 H   0  0  0  0  0  0  0  0  0  0  0  0
   59.3564   31.5143   47.1112 H   0  0  0  0  0  0  0  0  0  0  0  0
  1  2  1  0
  2  3  2  0
  2  4  2  0
  2  5  1  0
  5  6  2  0
  6  7  1  0
  7  8  2  0
  8  9  1  0
  9 10  1  0
 10 11  1  0
 11 12  2  0
 11 13  1  0
 13 14  1  0
 14 15  1  0
 15 16  2  0
 15 17  1  0
 17 18  1  0
 18 19  2  0
 19 20  1  0
 20 21  2  0
 21 22  1  0
 22 23  1  0
 23 24  2  0
 24 25  1  0
 25 26  2  0
  9 27  2  0
 27  5  1  0
 26 18  1  0
 25 21  1  0
  1 28  1  0
  6 29  1  0
  7 30  1  0
  8 31  1  0
 10 32  1  0
 13 33  1  0
 13 34  1  0
 19 35  1  0
 20 36  1  0
 24 37  1  0
 26 38  1  0
 27 39  1  0
M  CHG  4   1  -1  14  -1  17  -1  22  -1
M  END
>  <UniqueID>  (90) 
85

>  <SMILES>  (90) 
[NH-]S(=O)(=O)c1cccc(NC(=O)C[N-]C(=O)[N-]c2ccc3[n-]ncc3c2)c1

>  <Energy>  (90) 
81.88713183137394

>  <Genealogy>  (90) 
[NH-]S(=O)(=O)c1cccc(NC(=O)C[N-]C(=O)[N-]c2ccc3[n-]ncc3c2)c1 (protonated)
[NH-]S(=O)(=O)c1cccc(NC(=O)C[N-]C(=O)[N-]c2ccc3[n-]ncc3c2)c1 (3D coordinates assigned)
[NH-]S(=O)(=O)c1cccc(NC(=O)C[N-]C(=O)[N-]c2ccc3[n-]ncc3c2)c1 (optimized conformer: 81.88713183137394 kcal/mol)

>  <smiles>  (90) 
NS(=O)(=O)c1cccc(NC(=O)CNC(=O)Nc2ccc3[nH]ncc3c2)c1

>  <score_type>  (90) 
oracle

>  <origin>  (90) 
adg

>  <m_score__min__energy>  (90) 
-14.66

>  <m_primary>  (90) 
energy

$$$$
90:0
     RDKit          3D

 48 52  0  0  0  0  0  0  0  0999 V2000
   55.5370   25.7910   45.9950 N   0  0  0  0  0  0  0  0  0  0  0  0
   57.2510   25.8800   46.2070 S   0  0  0  0  0  0  0  0  0  0  0  0
   57.8990   24.6850   45.5640 O   0  0  0  0  0  0  0  0  0  0  0  0
   57.5800   25.8760   47.6740 O   0  0  0  0  0  0  0  0  0  0  0  0
   57.8540   27.3600   45.4690 C   0  0  0  0  0  0  0  0  0  0  0  0
   59.2050   27.4620   45.1080 C   0  0  0  0  0  0  0  0  0  0  0  0
   59.6930   28.6440   44.5440 C   0  0  0  0  0  0  0  0  0  0  0  0
   58.8380   29.7310   44.3430 C   0  0  0  0  0  0  0  0  0  0  0  0
   57.4900   29.6390   44.7100 C   0  0  0  0  0  0  0  0  0  0  0  0
   56.3970   31.0400   44.4730 S   0  0  0  0  0  0  0  0  0  0  0  0
   57.6480   32.2050   44.9970 C   0  0  0  0  0  0  0  0  0  0  0  0
   58.6220   31.9040   45.8800 N   0  0  0  0  0  0  0  0  0  0  0  0
   59.4380   32.9690   46.1240 C   0  0  0  0  0  0  0  0  0  0  0  0
   60.5990   32.8940   47.1030 C   0  0  2  0  0  0  0  0  0  0  0  0
   61.8010   33.7530   46.6120 C   0  0  0  0  0  0  0  0  0  0  0  0
   62.9720   33.6630   47.6150 C   0  0  1  0  0  0  0  0  0  0  0  0
   62.5100   34.1850   48.9920 C   0  0  0  0  0  0  0  0  0  0  0  0
   61.3300   33.3280   49.4990 C   0  0  2  0  0  0  0  0  0  0  0  0
   61.7810   31.8560   49.6280 C   0  0  0  0  0  0  0  0  0  0  0  0
   62.2440   31.3330   48.2520 C   0  0  2  0  0  0  0  0  0  0  0  0
   63.4220   32.1920   47.7450 C   0  0  0  0  0  0  0  0  0  0  0  0
   61.0730   31.4200   47.2470 C   0  0  0  0  0  0  0  0  0  0  0  0
   60.1560   33.4210   48.4980 C   0  0  0  0  0  0  0  0  0  0  0  0
   59.0950   34.1290   45.4240 C   0  0  0  0  0  0  0  0  0  0  0  0
   57.7430   33.7990   44.4820 S   0  0  0  0  0  0  0  0  0  0  0  0
   56.9990   28.4540   45.2710 C   0  0  0  0  0  0  0  0  0  0  0  0
   55.1090   26.3490   46.7670 H   0  0  0  0  0  0  0  0  0  0  0  0
   55.3140   26.2960   45.1060 H   0  0  0  0  0  0  0  0  0  0  0  0
   59.8821   26.6101   45.2690 H   0  0  0  0  0  0  0  0  0  0  0  0
   60.7524   28.7189   44.2577 H   0  0  0  0  0  0  0  0  0  0  0  0
   59.2242   30.6591   43.8963 H   0  0  0  0  0  0  0  0  0  0  0  0
   62.1344   33.3828   45.6313 H   0  0  0  0  0  0  0  0  0  0  0  0
   61.4804   34.8021   46.5308 H   0  0  0  0  0  0  0  0  0  0  0  0
   63.8133   34.2740   47.2559 H   0  0  0  0  0  0  0  0  0  0  0  0
   63.3435   34.1205   49.7069 H   0  0  0  0  0  0  0  0  0  0  0  0
   62.1878   35.2325   48.8973 H   0  0  0  0  0  0  0  0  0  0  0  0
   61.0035   33.6996   50.4815 H   0  0  0  0  0  0  0  0  0  0  0  0
   62.6137   31.7898   50.3437 H   0  0  0  0  0  0  0  0  0  0  0  0
   60.9382   31.2461   49.9855 H   0  0  0  0  0  0  0  0  0  0  0  0
   62.5680   30.2862   48.3477 H   0  0  0  0  0  0  0  0  0  0  0  0
   64.2567   32.1262   48.4584 H   0  0  0  0  0  0  0  0  0  0  0  0
   63.7478   31.8214   46.7619 H   0  0  0  0  0  0  0  0  0  0  0  0
   61.4065   31.0480   46.2670 H   0  0  0  0  0  0  0  0  0  0  0  0
   60.2367   30.8079   47.6156 H   0  0  0  0  0  0  0  0  0  0  0  0
   59.3154   32.8143   48.8659 H   0  0  0  0  0  0  0  0  0  0  0  0
   59.8461   34.4722   48.4036 H   0  0  0  0  0  0  0  0  0  0  0  0
   59.6205   35.0937   45.4801 H   0  0  0  0  0  0  0  0  0  0  0  0
   55.9395   28.3807   45.5574 H   0  0  0  0  0  0  0  0  0  0  0  0
  1  2  1  0
  2  3  2  0
  2  4  2  0
  2  5  1  0
  5  6  2  0
  6  7  1  0
  7  8  2  0
  8  9  1  0
  9 10  1  0
 10 11  1  0
 11 12  2  0
 12 13  1  0
 14 13  1  6
 14 15  1  0
 15 16  1  0
 16 17  1  0
 17 18  1  0
 18 19  1  0
 19 20  1  0
 20 21  1  0
 20 22  1  0
 18 23  1  0
 13 24  2  0
 24 25  1  0
  9 26  2  0
 26  5  1  0
 25 11  1  0
 22 14  1  0
 23 14  1  0
 21 16  1  0
  1 27  1  0
  1 28  1  0
  6 29  1  0
  7 30  1  0
  8 31  1  0
 15 32  1  0
 15 33  1  0
 16 34  1  6
 17 35  1  0
 17 36  1  0
 18 37  1  1
 19 38  1  0
 19 39  1  0
 20 40  1  1
 21 41  1  0
 21 42  1  0
 22 43  1  0
 22 44  1  0
 23 45  1  0
 23 46  1  0
 24 47  1  0
 26 48  1  0
M  END
>  <UniqueID>  (91) 
86

>  <SMILES>  (91) 
NS(=O)(=O)c1cccc(Sc2nc(C34CC5CC(CC(C5)C3)C4)cs2)c1

>  <Energy>  (91) 
74.15039285399354

>  <Genealogy>  (91) 
NS(=O)(=O)c1cccc(Sc2nc(C34CC5CC(CC(C5)C3)C4)cs2)c1 (3D coordinates assigned)
NS(=O)(=O)c1cccc(Sc2nc(C34CC5CC(CC(C5)C3)C4)cs2)c1 (nonaromatic ring conformer: 74.15039285399354 kcal/mol)

>  <smiles>  (91) 
NS(=O)(=O)c1cccc(Sc2nc(C34CC5CC(CC(C5)C3)C4)cs2)c1

>  <score_type>  (91) 
oracle

>  <origin>  (91) 
adg

>  <m_score__min__energy>  (91) 
-10.52

>  <m_primary>  (91) 
energy

$$$$
91:0
     RDKit          3D

 49 52  0  0  0  0  0  0  0  0999 V2000
   54.8120   28.2980   52.4570 O   0  0  0  0  0  0  0  0  0  0  0  0
   54.8090   29.5360   52.6970 C   0  0  0  0  0  0  0  0  0  0  0  0
   53.6800   30.1660   53.3330 N   0  0  0  0  0  0  0  0  0  0  0  0
   52.7050   30.8760   52.8280 C   0  0  0  0  0  0  0  0  0  0  0  0
   51.6140   31.3670   53.5820 C   0  0  0  0  0  0  0  0  0  0  0  0
   50.6220   32.1280   52.9510 C   0  0  0  0  0  0  0  0  0  0  0  0
   50.7020   32.3850   51.6190 N   0  0  0  0  0  0  0  0  0  0  0  0
   51.7280   31.9130   50.8650 C   0  0  0  0  0  0  0  0  0  0  0  0
   52.7410   31.1480   51.4520 C   0  0  0  0  0  0  0  0  0  0  0  0
   56.0090   30.3440   52.3780 C   0  0  0  0  0  0  0  0  0  0  0  0
   55.9310   31.7410   52.3060 C   0  0  0  0  0  0  0  0  0  0  0  0
   57.0640   32.5010   52.0150 C   0  0  0  0  0  0  0  0  0  0  0  0
   58.2970   31.8770   51.7820 C   0  0  0  0  0  0  0  0  0  0  0  0
   59.4230   32.6550   51.5070 O   0  0  0  0  0  0  0  0  0  0  0  0
   58.3870   30.4720   51.8340 C   0  0  0  0  0  0  0  0  0  0  0  0
   59.9080   29.6100   51.5780 S   0  0  0  0  0  0  0  0  0  0  0  0
   60.2910   28.7670   52.7610 O   0  0  0  0  0  0  0  0  0  0  0  0
   60.9950   30.6190   51.3440 O   0  0  0  0  0  0  0  0  0  0  0  0
   59.7590   28.6020   50.1760 N   0  0  0  0  0  0  0  0  0  0  0  0
   59.2650   29.0260   48.9020 C   0  0  0  0  0  0  0  0  0  0  0  0
   59.3410   30.3870   48.5710 C   0  0  0  0  0  0  0  0  0  0  0  0
   58.8810   30.8420   47.3320 C   0  0  0  0  0  0  0  0  0  0  0  0
   58.3510   29.9350   46.3950 C   0  0  0  0  0  0  0  0  0  0  0  0
   57.8980   30.4050   45.0640 C   0  0  0  0  0  0  0  0  0  0  0  0
   57.0820   29.5830   44.2640 C   0  0  0  0  0  0  0  0  0  0  0  0
   56.6500   30.0240   43.0100 C   0  0  0  0  0  0  0  0  0  0  0  0
   57.0230   31.2890   42.5460 C   0  0  0  0  0  0  0  0  0  0  0  0
   57.8290   32.1160   43.3340 C   0  0  0  0  0  0  0  0  0  0  0  0
   58.2700   31.6750   44.5870 C   0  0  0  0  0  0  0  0  0  0  0  0
   58.2750   28.5720   46.7290 C   0  0  0  0  0  0  0  0  0  0  0  0
   58.7230   28.1220   47.9730 C   0  0  0  0  0  0  0  0  0  0  0  0
   57.2450   29.7200   52.1300 C   0  0  0  0  0  0  0  0  0  0  0  0
   51.5449   31.1523   54.6586 H   0  0  0  0  0  0  0  0  0  0  0  0
   49.7758   32.5187   53.5352 H   0  0  0  0  0  0  0  0  0  0  0  0
   51.7625   32.1333   49.7878 H   0  0  0  0  0  0  0  0  0  0  0  0
   53.5652   30.7599   50.8355 H   0  0  0  0  0  0  0  0  0  0  0  0
   54.9679   32.2430   52.4805 H   0  0  0  0  0  0  0  0  0  0  0  0
   56.9891   33.5974   51.9681 H   0  0  0  0  0  0  0  0  0  0  0  0
   60.3330   32.2380   51.3340 H   0  0  0  0  0  0  0  0  0  0  0  0
   59.7657   31.1013   49.2917 H   0  0  0  0  0  0  0  0  0  0  0  0
   58.9334   31.9133   47.0881 H   0  0  0  0  0  0  0  0  0  0  0  0
   56.7829   28.5888   44.6275 H   0  0  0  0  0  0  0  0  0  0  0  0
   56.0161   29.3753   42.3877 H   0  0  0  0  0  0  0  0  0  0  0  0
   56.6816   31.6343   41.5590 H   0  0  0  0  0  0  0  0  0  0  0  0
   58.1165   33.1132   42.9693 H   0  0  0  0  0  0  0  0  0  0  0  0
   58.9105   32.3246   45.2017 H   0  0  0  0  0  0  0  0  0  0  0  0
   57.8598   27.8547   46.0057 H   0  0  0  0  0  0  0  0  0  0  0  0
   58.6511   27.0541   48.2268 H   0  0  0  0  0  0  0  0  0  0  0  0
   57.3148   28.6229   52.1694 H   0  0  0  0  0  0  0  0  0  0  0  0
  1  2  2  0
  2  3  1  0
  3  4  2  3
  4  5  1  0
  5  6  2  0
  6  7  1  0
  7  8  1  0
  8  9  2  0
  2 10  1  0
 10 11  2  0
 11 12  1  0
 12 13  2  0
 13 14  1  0
 13 15  1  0
 15 16  1  0
 16 17  2  0
 16 18  2  0
 16 19  1  0
 19 20  1  0
 20 21  2  0
 21 22  1  0
 22 23  2  0
 23 24  1  0
 24 25  2  0
 25 26  1  0
 26 27  2  0
 27 28  1  0
 28 29  2  0
 23 30  1  0
 30 31  2  0
 15 32  2  0
  9  4  1  0
 32 10  1  0
 31 20  1  0
 29 24  1  0
  5 33  1  0
  6 34  1  0
  8 35  1  0
  9 36  1  0
 11 37  1  0
 12 38  1  0
 14 39  1  0
 21 40  1  0
 22 41  1  0
 25 42  1  0
 26 43  1  0
 27 44  1  0
 28 45  1  0
 29 46  1  0
 30 47  1  0
 31 48  1  0
 32 49  1  0
M  CHG  2   7  -1  19  -1
M  END
>  <UniqueID>  (92) 
87

>  <SMILES>  (92) 
O=C(N=c1cc[n-]cc1)c1ccc(O)c(S(=O)(=O)[N-]c2ccc(-c3ccccc3)cc2)c1

>  <Energy>  (92) 
73.47264398200822

>  <Genealogy>  (92) 
O=C(N=c1cc[n-]cc1)c1ccc(O)c(S(=O)(=O)[N-]c2ccc(-c3ccccc3)cc2)c1 (protonated)
O=C(N=c1cc[n-]cc1)c1ccc(O)c(S(=O)(=O)[N-]c2ccc(-c3ccccc3)cc2)c1 (3D coordinates assigned)
O=C(N=c1cc[n-]cc1)c1ccc(O)c(S(=O)(=O)[N-]c2ccc(-c3ccccc3)cc2)c1 (optimized conformer: 73.47264398200822 kcal/mol)

>  <smiles>  (92) 
O=C(N=c1cc[nH]cc1)c1ccc(O)c(S(=O)(=O)Nc2ccc(-c3ccccc3)cc2)c1

>  <score_type>  (92) 
oracle

>  <origin>  (92) 
adg

>  <m_score__min__energy>  (92) 
-12.49

>  <m_primary>  (92) 
energy

$$$$
92:0
     RDKit          3D

 42 45  0  0  0  0  0  0  0  0999 V2000
   64.6560   32.8870   49.6110 C   0  0  0  0  0  0  0  0  0  0  0  0
   63.3480   32.7710   48.8870 C   0  0  0  0  0  0  0  0  0  0  0  0
   62.5240   31.6450   49.0890 C   0  0  0  0  0  0  0  0  0  0  0  0
   61.3200   31.5220   48.3790 C   0  0  0  0  0  0  0  0  0  0  0  0
   60.9770   32.5010   47.4940 N   0  0  0  0  0  0  0  0  0  0  0  0
   61.7660   33.5820   47.2750 C   0  0  0  0  0  0  0  0  0  0  0  0
   62.9710   33.7520   47.9540 C   0  0  0  0  0  0  0  0  0  0  0  0
   61.2640   34.4320   46.3540 N   0  0  0  0  0  0  0  0  0  0  0  0
   60.1070   33.8520   45.9840 C   0  0  0  0  0  0  0  0  0  0  0  0
   59.2010   34.3300   45.0480 C   0  0  0  0  0  0  0  0  0  0  0  0
   58.0510   33.5710   44.8020 C   0  0  0  0  0  0  0  0  0  0  0  0
   57.8170   32.3490   45.4870 C   0  0  0  0  0  0  0  0  0  0  0  0
   56.6690   31.5800   45.2380 O   0  0  0  0  0  0  0  0  0  0  0  0
   56.6020   30.1980   44.2290 S   0  0  0  0  0  0  0  0  0  0  0  0
   56.8940   30.6080   42.8120 O   0  0  0  0  0  0  0  0  0  0  0  0
   55.2240   29.6050   44.2960 O   0  0  0  0  0  0  0  0  0  0  0  0
   57.7710   28.9980   44.7710 C   0  0  0  0  0  0  0  0  0  0  0  0
   57.3460   27.8620   45.4750 C   0  0  0  0  0  0  0  0  0  0  0  0
   58.2780   26.9080   45.8950 C   0  0  0  0  0  0  0  0  0  0  0  0
   59.6360   27.0850   45.6160 C   0  0  0  0  0  0  0  0  0  0  0  0
   60.0640   28.2180   44.9190 C   0  0  0  0  0  0  0  0  0  0  0  0
   59.1340   29.1750   44.4980 C   0  0  0  0  0  0  0  0  0  0  0  0
   58.7610   31.8820   46.4470 C   0  0  0  0  0  0  0  0  0  0  0  0
   58.5220   30.5890   47.1800 C   0  0  0  0  0  0  0  0  0  0  0  0
   59.9130   32.6740   46.6680 C   0  0  0  0  0  0  0  0  0  0  0  0
   64.4771   32.8711   50.6962 H   0  0  0  0  0  0  0  0  0  0  0  0
   65.3046   32.0429   49.3339 H   0  0  0  0  0  0  0  0  0  0  0  0
   65.1459   33.8321   49.3339 H   0  0  0  0  0  0  0  0  0  0  0  0
   62.8247   30.8637   49.8025 H   0  0  0  0  0  0  0  0  0  0  0  0
   60.6650   30.6519   48.5335 H   0  0  0  0  0  0  0  0  0  0  0  0
   63.6084   34.6284   47.7652 H   0  0  0  0  0  0  0  0  0  0  0  0
   61.6760   35.3270   46.0090 H   0  0  0  0  0  0  0  0  0  0  0  0
   59.3809   35.2758   44.5160 H   0  0  0  0  0  0  0  0  0  0  0  0
   57.3157   33.9271   44.0654 H   0  0  0  0  0  0  0  0  0  0  0  0
   56.2779   27.7213   45.6971 H   0  0  0  0  0  0  0  0  0  0  0  0
   57.9419   26.0171   46.4457 H   0  0  0  0  0  0  0  0  0  0  0  0
   60.3678   26.3325   45.9450 H   0  0  0  0  0  0  0  0  0  0  0  0
   61.1331   28.3577   44.7011 H   0  0  0  0  0  0  0  0  0  0  0  0
   59.4733   30.0676   43.9519 H   0  0  0  0  0  0  0  0  0  0  0  0
   58.5556   30.7706   48.2644 H   0  0  0  0  0  0  0  0  0  0  0  0
   57.5347   30.1890   46.9056 H   0  0  0  0  0  0  0  0  0  0  0  0
   59.3011   29.8625   46.9056 H   0  0  0  0  0  0  0  0  0  0  0  0
  1  2  1  0
  2  3  1  0
  3  4  2  0
  4  5  1  0
  5  6  1  0
  6  7  1  0
  6  8  2  0
  8  9  1  0
  9 10  2  0
 10 11  1  0
 11 12  2  0
 12 13  1  0
 13 14  1  0
 14 15  2  0
 14 16  2  0
 14 17  1  0
 17 18  2  0
 18 19  1  0
 19 20  2  0
 20 21  1  0
 21 22  2  0
 12 23  1  0
 23 24  1  0
 23 25  2  0
  7  2  2  0
 25  9  1  0
 25  5  1  0
 22 17  1  0
  1 26  1  0
  1 27  1  0
  1 28  1  0
  3 29  1  0
  4 30  1  0
  7 31  1  0
  8 32  1  0
 10 33  1  0
 11 34  1  0
 18 35  1  0
 19 36  1  0
 20 37  1  0
 21 38  1  0
 22 39  1  0
 24 40  1  0
 24 41  1  0
 24 42  1  0
M  CHG  1   8   1
M  END
>  <UniqueID>  (93) 
88

>  <SMILES>  (93) 
Cc1ccn2c(c1)[nH+]c1ccc(OS(=O)(=O)c3ccccc3)c(C)c12

>  <Energy>  (93) 
93.8287731595037

>  <Genealogy>  (93) 
Cc1ccn2c(c1)[nH+]c1ccc(OS(=O)(=O)c3ccccc3)c(C)c12 (protonated)
Cc1ccn2c(c1)[nH+]c1ccc(OS(=O)(=O)c3ccccc3)c(C)c12 (3D coordinates assigned)
Cc1ccn2c(c1)[nH+]c1ccc(OS(=O)(=O)c3ccccc3)c(C)c12 (optimized conformer: 93.8287731595037 kcal/mol)

>  <smiles>  (93) 
Cc1ccn2c(c1)nc1ccc(OS(=O)(=O)c3ccccc3)c(C)c12

>  <score_type>  (93) 
oracle

>  <origin>  (93) 
adg

>  <m_score__min__energy>  (93) 
-7.7000000000000002

>  <m_primary>  (93) 
energy

$$$$
93:0
     RDKit          3D

 24 25  0  0  0  0  0  0  0  0999 V2000
   58.2049   29.7843   46.4573 H   0  0  0  0  0  0  0  0  0  0  0  0
   58.1530   29.2900   45.4760 C   0  0  0  0  0  0  0  0  0  0  0  0
   58.4390   27.9800   45.4300 C   0  0  0  0  0  0  0  0  0  0  0  0
   59.4171   27.6874   45.0206 H   0  0  0  0  0  0  0  0  0  0  0  0
   57.5370   26.8970   45.8890 C   0  0  0  0  0  0  0  0  0  0  0  0
   56.1380   27.0040   45.7900 C   0  0  0  0  0  0  0  0  0  0  0  0
   55.5460   28.1380   45.2450 O   0  0  0  0  0  0  0  0  0  0  0  0
   55.3490   25.9830   46.2110 N   0  0  0  0  0  0  0  0  0  0  0  0
   55.8870   24.8420   46.7120 C   0  0  0  0  0  0  0  0  0  0  0  0
   55.1340   23.9100   47.1000 O   0  0  0  0  0  0  0  0  0  0  0  0
   57.2340   24.7010   46.7890 N   0  0  0  0  0  0  0  0  0  0  0  0
   58.0670   25.6940   46.3840 C   0  0  0  0  0  0  0  0  0  0  0  0
   59.3130   25.5280   46.4670 O   0  0  0  0  0  0  0  0  0  0  0  0
   57.7730   30.1250   44.3130 C   0  0  0  0  0  0  0  0  0  0  0  0
   58.3070   31.4080   44.1110 C   0  0  0  0  0  0  0  0  0  0  0  0
   59.0153   31.8299   44.8393 H   0  0  0  0  0  0  0  0  0  0  0  0
   57.9390   32.1480   42.9860 C   0  0  0  0  0  0  0  0  0  0  0  0
   58.3410   33.1601   42.8310 H   0  0  0  0  0  0  0  0  0  0  0  0
   57.0560   31.5910   42.0600 C   0  0  0  0  0  0  0  0  0  0  0  0
   56.7539   32.1687   41.1740 H   0  0  0  0  0  0  0  0  0  0  0  0
   56.5680   30.3360   42.2500 N   0  0  0  0  0  0  0  0  0  0  0  0
   55.9150   29.9300   41.5430 H   0  0  0  0  0  0  0  0  0  0  0  0
   56.9120   29.5960   43.3410 C   0  0  0  0  0  0  0  0  0  0  0  0
   56.5122   28.5782   43.4599 H   0  0  0  0  0  0  0  0  0  0  0  0
  1  2  1  0
  2  3  2  0
  3  4  1  0
  3  5  1  0
  5  6  2  0
  6  7  1  0
  6  8  1  0
  8  9  1  0
  9 10  2  0
  9 11  1  0
 11 12  1  0
 12 13  2  0
  2 14  1  0
 14 15  2  0
 15 16  1  0
 15 17  1  0
 17 18  1  0
 17 19  2  0
 19 20  1  0
 19 21  1  0
 21 22  1  0
 21 23  2  0
 23 24  1  0
 12  5  1  0
 23 14  1  0
M  CHG  4   7  -1   8  -1  11  -1  21   1
M  END
>  <UniqueID>  (94) 
89

>  <SMILES>  (94) 
O=c1[n-]c([O-])c(/C=C\c2ccc[nH+]c2)c(=O)[n-]1

>  <Energy>  (94) 
37.95220419186662

>  <Genealogy>  (94) 
O=c1[n-]c([O-])c(C=Cc2ccc[nH+]c2)c(=O)[n-]1 (protonated)
O=c1[n-]c([O-])c(/C=C\c2ccc[nH+]c2)c(=O)[n-]1 (cis-trans isomerization)
O=c1[n-]c([O-])c(/C=C\c2ccc[nH+]c2)c(=O)[n-]1 (3D coordinates assigned)
O=c1[n-]c([O-])c(/C=C\c2ccc[nH+]c2)c(=O)[n-]1 (optimized conformer: 37.95220419186662 kcal/mol)

>  <smiles>  (94) 
O=c1[nH]c(O)c(C=Cc2cccnc2)c(=O)[nH]1

>  <score_type>  (94) 
oracle

>  <origin>  (94) 
adg

>  <m_score__min__energy>  (94) 
-13.4

>  <m_primary>  (94) 
energy

$$$$
