0:0
     RDKit          3D

 53 56  0  0  0  0  0  0  0  0999 V2000
   55.1470   29.0640   44.6770 O   0  0  0  0  0  0  0  0  0  0  0  0
   56.3680   29.3770   44.7300 C   0  0  0  0  0  0  0  0  0  0  0  0
   57.0780   29.8630   43.4910 C   0  0  0  0  0  0  0  0  0  0  0  0
   57.3890   31.3670   43.5080 C   0  0  0  0  0  0  0  0  0  0  0  0
   57.0240   31.9600   44.7980 N   0  0  0  0  0  0  0  0  0  0  0  0
   57.7280   33.5430   44.9360 S   0  0  0  0  0  0  0  0  0  0  0  0
   56.6510   34.5930   44.9300 O   0  0  0  0  0  0  0  0  0  0  0  0
   58.6310   33.7850   43.7610 O   0  0  0  0  0  0  0  0  0  0  0  0
   58.6720   33.6570   46.4180 C   0  0  0  0  0  0  0  0  0  0  0  0
   59.8710   34.4110   46.4290 C   0  0  0  0  0  0  0  0  0  0  0  0
   60.6410   34.5170   47.6010 C   0  0  0  0  0  0  0  0  0  0  0  0
   60.1920   33.8510   48.7380 C   0  0  0  0  0  0  0  0  0  0  0  0
   60.7740   33.8300   49.9530 N   0  0  0  0  0  0  0  0  0  0  0  0
   59.9660   33.0650   50.7200 C   0  0  0  0  0  0  0  0  0  0  0  0
   58.8960   32.5770   49.9880 C   0  0  0  0  0  0  0  0  0  0  0  0
   59.0370   33.1050   48.7240 C   0  0  0  0  0  0  0  0  0  0  0  0
   58.2460   32.9890   47.5840 C   0  0  0  0  0  0  0  0  0  0  0  0
   57.7850   31.7500   50.5610 C   0  0  0  0  0  0  0  0  0  0  0  0
   58.2300   31.1130   51.8940 C   0  0  0  0  0  0  0  0  0  0  0  0
   58.9430   32.1350   52.8060 C   0  0  0  0  0  0  0  0  0  0  0  0
   60.2240   32.6900   52.1490 C   0  0  0  0  0  0  0  0  0  0  0  0
   57.0230   29.3400   45.9990 N   0  0  0  0  0  0  0  0  0  0  0  0
   58.1140   28.4390   46.3660 C   0  0  0  0  0  0  0  0  0  0  0  0
   59.2480   29.2020   47.0020 C   0  0  0  0  0  0  0  0  0  0  0  0
   59.9990   30.1190   46.2480 C   0  0  0  0  0  0  0  0  0  0  0  0
   61.0330   30.8450   46.8480 C   0  0  0  0  0  0  0  0  0  0  0  0
   61.3240   30.6620   48.2040 C   0  0  0  0  0  0  0  0  0  0  0  0
   62.3300   31.3640   48.7840 F   0  0  0  0  0  0  0  0  0  0  0  0
   60.5760   29.7600   48.9630 C   0  0  0  0  0  0  0  0  0  0  0  0
   59.5370   29.0370   48.3690 C   0  0  0  0  0  0  0  0  0  0  0  0
   58.0260   29.3133   43.3958 H   0  0  0  0  0  0  0  0  0  0  0  0
   56.4021   29.6839   42.6418 H   0  0  0  0  0  0  0  0  0  0  0  0
   58.4652   31.5146   43.3350 H   0  0  0  0  0  0  0  0  0  0  0  0
   56.8029   31.8570   42.7165 H   0  0  0  0  0  0  0  0  0  0  0  0
   57.4460   31.3850   45.5620 H   0  0  0  0  0  0  0  0  0  0  0  0
   60.2032   34.9188   45.5115 H   0  0  0  0  0  0  0  0  0  0  0  0
   61.5689   35.1076   47.6187 H   0  0  0  0  0  0  0  0  0  0  0  0
   61.6610   34.3000   50.2410 H   0  0  0  0  0  0  0  0  0  0  0  0
   57.3196   32.3959   47.5929 H   0  0  0  0  0  0  0  0  0  0  0  0
   56.9090   32.3910   50.7389 H   0  0  0  0  0  0  0  0  0  0  0  0
   57.5270   30.9518   49.8494 H   0  0  0  0  0  0  0  0  0  0  0  0
   57.3434   30.7259   52.4175 H   0  0  0  0  0  0  0  0  0  0  0  0
   58.9389   30.3031   51.6670 H   0  0  0  0  0  0  0  0  0  0  0  0
   58.2567   32.9700   53.0104 H   0  0  0  0  0  0  0  0  0  0  0  0
   59.2291   31.6230   53.7366 H   0  0  0  0  0  0  0  0  0  0  0  0
   60.5567   33.5809   52.7019 H   0  0  0  0  0  0  0  0  0  0  0  0
   61.0013   31.9122   52.1761 H   0  0  0  0  0  0  0  0  0  0  0  0
   57.7388   27.6901   47.0789 H   0  0  0  0  0  0  0  0  0  0  0  0
   58.4869   27.9478   45.4551 H   0  0  0  0  0  0  0  0  0  0  0  0
   59.7730   30.2666   45.1816 H   0  0  0  0  0  0  0  0  0  0  0  0
   61.6184   31.5611   46.2526 H   0  0  0  0  0  0  0  0  0  0  0  0
   60.8043   29.6179   50.0296 H   0  0  0  0  0  0  0  0  0  0  0  0
   58.9427   28.3359   48.9734 H   0  0  0  0  0  0  0  0  0  0  0  0
  1  2  2  0
  2  3  1  0
  3  4  1  0
  4  5  1  0
  5  6  1  0
  6  7  2  0
  6  8  2  0
  6  9  1  0
  9 10  2  0
 10 11  1  0
 11 12  2  0
 12 13  1  0
 13 14  1  0
 14 15  2  0
 15 16  1  0
 16 17  2  0
 15 18  1  0
 18 19  1  0
 19 20  1  0
 20 21  1  0
  2 22  1  0
 22 23  1  0
 23 24  1  0
 24 25  2  0
 25 26  1  0
 26 27  2  0
 27 28  1  0
 27 29  1  0
 29 30  2  0
 17  9  1  0
 30 24  1  0
 16 12  1  0
 21 14  1  0
  3 31  1  0
  3 32  1  0
  4 33  1  0
  4 34  1  0
  5 35  1  0
 10 36  1  0
 11 37  1  0
 13 38  1  0
 17 39  1  0
 18 40  1  0
 18 41  1  0
 19 42  1  0
 19 43  1  0
 20 44  1  0
 20 45  1  0
 21 46  1  0
 21 47  1  0
 23 48  1  0
 23 49  1  0
 25 50  1  0
 26 51  1  0
 29 52  1  0
 30 53  1  0
M  CHG  1  22  -1
M  END
>  <UniqueID>  (1) 
1

>  <SMILES>  (1) 
O=C(CCNS(=O)(=O)c1ccc2[nH]c3c(c2c1)CCCC3)[N-]Cc1ccc(F)cc1

>  <Energy>  (1) 
83.00292534040997

>  <Genealogy>  (1) 
O=C(CCNS(=O)(=O)c1ccc2[nH]c3c(c2c1)CCCC3)[N-]Cc1ccc(F)cc1 (protonated)
O=C(CCNS(=O)(=O)c1ccc2[nH]c3c(c2c1)CCCC3)[N-]Cc1ccc(F)cc1 (3D coordinates assigned)
O=C(CCNS(=O)(=O)c1ccc2[nH]c3c(c2c1)CCCC3)[N-]Cc1ccc(F)cc1 (nonaromatic ring conformer: 83.00292534040997 kcal/mol)

>  <smiles>  (1) 
O=C(CCNS(=O)(=O)c1ccc2[nH]c3c(c2c1)CCCC3)NCc1ccc(F)cc1

>  <score_type>  (1) 
oracle

>  <origin>  (1) 
adg

>  <m_score__min__energy>  (1) 
-12.460000000000001

>  <m_primary>  (1) 
energy

$$$$
1:0
     RDKit          3D

 38 40  0  0  0  0  0  0  0  0999 V2000
   54.7720   27.4620   46.3590 H   0  0  0  0  0  0  0  0  0  0  0  0
   54.8260   26.5100   46.0210 O   0  0  0  0  0  0  0  0  0  0  0  0
   55.8590   25.6540   46.3970 C   0  0  0  0  0  0  0  0  0  0  0  0
   55.7740   24.3170   46.3060 N   0  0  0  0  0  0  0  0  0  0  0  0
   56.9750   23.9090   46.7650 C   0  0  0  0  0  0  0  0  0  0  0  0
   57.2960   22.6940   46.8380 O   0  0  0  0  0  0  0  0  0  0  0  0
   57.8060   24.9050   47.1350 N   0  0  0  0  0  0  0  0  0  0  0  0
   57.0870   26.0200   46.9120 C   0  0  0  0  0  0  0  0  0  0  0  0
   57.5820   27.4010   47.0890 C   0  0  0  0  0  0  0  0  0  0  0  0
   58.0560   27.6498   48.0500 H   0  0  0  0  0  0  0  0  0  0  0  0
   57.4990   28.3770   46.1690 C   0  0  0  0  0  0  0  0  0  0  0  0
   58.2090   29.5640   46.2390 C   0  0  0  0  0  0  0  0  0  0  0  0
   58.9018   29.8696   47.0369 H   0  0  0  0  0  0  0  0  0  0  0  0
   57.8770   30.2900   45.1100 C   0  0  0  0  0  0  0  0  0  0  0  0
   58.4620   31.6290   44.7490 C   0  0  0  0  0  0  0  0  0  0  0  0
   59.2705   31.4861   44.0169 H   0  0  0  0  0  0  0  0  0  0  0  0
   57.6708   32.2605   44.3188 H   0  0  0  0  0  0  0  0  0  0  0  0
   59.0170   32.3070   45.9770 C   0  0  0  0  0  0  0  0  0  0  0  0
   60.2670   31.9050   46.4810 C   0  0  0  0  0  0  0  0  0  0  0  0
   60.8136   31.0842   45.9936 H   0  0  0  0  0  0  0  0  0  0  0  0
   60.8190   32.5390   47.5940 C   0  0  0  0  0  0  0  0  0  0  0  0
   61.7942   32.2128   47.9847 H   0  0  0  0  0  0  0  0  0  0  0  0
   60.1360   33.5860   48.2120 C   0  0  0  0  0  0  0  0  0  0  0  0
   60.5723   34.0824   49.0914 H   0  0  0  0  0  0  0  0  0  0  0  0
   58.8990   34.0060   47.7170 C   0  0  0  0  0  0  0  0  0  0  0  0
   58.3664   34.8342   48.2073 H   0  0  0  0  0  0  0  0  0  0  0  0
   58.3290   33.3740   46.5920 C   0  0  0  0  0  0  0  0  0  0  0  0
   57.0930   33.7800   46.0660 O   0  0  0  0  0  0  0  0  0  0  0  0
   56.9310   34.5690   44.8920 C   0  0  0  0  0  0  0  0  0  0  0  0
   56.7173   35.6099   45.1764 H   0  0  0  0  0  0  0  0  0  0  0  0
   57.8551   34.5340   44.2963 H   0  0  0  0  0  0  0  0  0  0  0  0
   56.0955   34.1727   44.2963 H   0  0  0  0  0  0  0  0  0  0  0  0
   56.9840   29.5040   44.3890 C   0  0  0  0  0  0  0  0  0  0  0  0
   56.4110   29.8070   43.2230 C   0  0  0  0  0  0  0  0  0  0  0  0
   56.6300   30.7687   42.7360 H   0  0  0  0  0  0  0  0  0  0  0  0
   55.7196   29.0951   42.7485 H   0  0  0  0  0  0  0  0  0  0  0  0
   56.7590   28.3440   45.0380 N   0  0  0  0  0  0  0  0  0  0  0  0
   56.1540   27.5680   44.6890 H   0  0  0  0  0  0  0  0  0  0  0  0
  1  2  1  0
  2  3  1  0
  3  4  1  0
  4  5  1  0
  5  6  2  0
  5  7  1  0
  7  8  1  0
  8  9  1  0
  9 10  1  0
  9 11  2  0
 11 12  1  0
 12 13  1  0
 12 14  2  0
 14 15  1  0
 15 16  1  0
 15 17  1  0
 15 18  1  0
 18 19  2  0
 19 20  1  0
 19 21  1  0
 21 22  1  0
 21 23  2  0
 23 24  1  0
 23 25  1  0
 25 26  1  0
 25 27  2  0
 27 28  1  0
 28 29  1  0
 29 30  1  0
 29 31  1  0
 29 32  1  0
 14 33  1  0
 33 34  2  0
 34 35  1  0
 34 36  1  0
 33 37  1  0
 37 38  1  0
  8  3  2  0
 37 11  1  0
 27 18  1  0
M  CHG  2   4  -1   7  -1
M  END
>  <UniqueID>  (2) 
2

>  <SMILES>  (2) 
C=c1[nH]/c(=C\c2[n-]c(=O)[n-]c2O)cc1Cc1ccccc1OC

>  <Energy>  (2) 
97.41699117276096

>  <Genealogy>  (2) 
C=c1[nH]c(=Cc2[n-]c(=O)[n-]c2O)cc1Cc1ccccc1OC (protonated)
C=c1[nH]/c(=C\c2[n-]c(=O)[n-]c2O)cc1Cc1ccccc1OC (cis-trans isomerization)
C=c1[nH]/c(=C\c2[n-]c(=O)[n-]c2O)cc1Cc1ccccc1OC (3D coordinates assigned)
C=c1[nH]/c(=C\c2[n-]c(=O)[n-]c2O)cc1Cc1ccccc1OC (optimized conformer: 97.41699117276096 kcal/mol)

>  <smiles>  (2) 
C=c1[nH]c(=Cc2[nH]c(=O)[nH]c2O)cc1Cc1ccccc1OC

>  <score_type>  (2) 
oracle

>  <origin>  (2) 
adg

>  <m_score__min__energy>  (2) 
-12.24

>  <m_primary>  (2) 
energy

$$$$
2:0
     RDKit          3D

 29 30  0  0  0  0  0  0  0  0999 V2000
   57.5485   33.5109   44.8915 H   0  0  0  0  0  0  0  0  0  0  0  0
   57.8230   32.4460   44.8650 C   0  0  0  0  0  0  0  0  0  0  0  0
   56.9810   31.5130   44.0970 C   0  0  0  0  0  0  0  0  0  0  0  0
   57.0500   31.4550   42.8400 O   0  0  0  0  0  0  0  0  0  0  0  0
   56.0980   30.6800   44.7710 O   0  0  0  0  0  0  0  0  0  0  0  0
   58.9130   32.0410   45.5330 C   0  0  0  0  0  0  0  0  0  0  0  0
   59.6973   32.7827   45.7445 H   0  0  0  0  0  0  0  0  0  0  0  0
   59.1210   30.6490   46.0030 C   0  0  0  0  0  0  0  0  0  0  0  0
   58.5850   30.2720   47.2470 C   0  0  0  0  0  0  0  0  0  0  0  0
   58.0215   31.0052   47.8427 H   0  0  0  0  0  0  0  0  0  0  0  0
   58.7620   28.9740   47.7330 C   0  0  0  0  0  0  0  0  0  0  0  0
   58.3342   28.6896   48.7057 H   0  0  0  0  0  0  0  0  0  0  0  0
   59.4810   28.0360   46.9870 C   0  0  0  0  0  0  0  0  0  0  0  0
   59.7030   26.3680   47.6080 S   0  0  0  0  0  0  0  0  0  0  0  0
   58.2920   25.7350   46.6970 C   0  0  0  0  0  0  0  0  0  0  0  0
   57.0890   26.4540   46.6990 C   0  0  0  0  0  0  0  0  0  0  0  0
   57.0173   27.4018   47.2527 H   0  0  0  0  0  0  0  0  0  0  0  0
   55.9780   25.9690   45.9980 C   0  0  0  0  0  0  0  0  0  0  0  0
   54.7870   26.6830   46.0060 O   0  0  0  0  0  0  0  0  0  0  0  0
   56.0700   24.7670   45.2900 C   0  0  0  0  0  0  0  0  0  0  0  0
   55.1972   24.3852   44.7401 H   0  0  0  0  0  0  0  0  0  0  0  0
   57.2710   24.0490   45.2800 C   0  0  0  0  0  0  0  0  0  0  0  0
   57.3413   23.1042   44.7211 H   0  0  0  0  0  0  0  0  0  0  0  0
   58.3830   24.5310   45.9800 C   0  0  0  0  0  0  0  0  0  0  0  0
   59.5710   23.8100   45.9580 O   0  0  0  0  0  0  0  0  0  0  0  0
   60.0380   28.4040   45.7580 C   0  0  0  0  0  0  0  0  0  0  0  0
   60.6151   27.6707   45.1755 H   0  0  0  0  0  0  0  0  0  0  0  0
   59.8630   29.7020   45.2680 C   0  0  0  0  0  0  0  0  0  0  0  0
   60.3073   29.9860   44.3026 H   0  0  0  0  0  0  0  0  0  0  0  0
  1  2  1  0
  2  3  1  0
  3  4  2  0
  3  5  1  0
  2  6  2  0
  6  7  1  0
  6  8  1  0
  8  9  2  0
  9 10  1  0
  9 11  1  0
 11 12  1  0
 11 13  2  0
 13 14  1  0
 14 15  1  0
 15 16  2  0
 16 17  1  0
 16 18  1  0
 18 19  1  0
 18 20  2  0
 20 21  1  0
 20 22  1  0
 22 23  1  0
 22 24  2  0
 24 25  1  0
 13 26  1  0
 26 27  1  0
 26 28  2  0
 28 29  1  0
 28  8  1  0
 24 15  1  0
M  CHG  3   5  -1  19  -1  25  -1
M  END
>  <UniqueID>  (3) 
3

>  <SMILES>  (3) 
O=C([O-])/C=C/c1ccc(Sc2cc([O-])ccc2[O-])cc1

>  <Energy>  (3) 
27.142850058150508

>  <Genealogy>  (3) 
O=C([O-])C=Cc1ccc(Sc2cc([O-])ccc2[O-])cc1 (protonated)
O=C([O-])/C=C/c1ccc(Sc2cc([O-])ccc2[O-])cc1 (cis-trans isomerization)
O=C([O-])/C=C/c1ccc(Sc2cc([O-])ccc2[O-])cc1 (3D coordinates assigned)
O=C([O-])/C=C/c1ccc(Sc2cc([O-])ccc2[O-])cc1 (optimized conformer: 27.142850058150508 kcal/mol)

>  <smiles>  (3) 
O=C(O)C=Cc1ccc(Sc2cc(O)ccc2O)cc1

>  <score_type>  (3) 
oracle

>  <origin>  (3) 
adg

>  <m_score__min__energy>  (3) 
-13.6

>  <m_primary>  (3) 
energy

$$$$
3:0
     RDKit          3D

 42 44  0  0  0  0  0  0  0  0999 V2000
   58.1260   27.0840   43.3140 C   0  0  0  0  0  0  0  0  0  0  0  0
   57.6070   27.6670   44.3920 C   0  0  0  0  0  0  0  0  0  0  0  0
   57.6820   29.1280   44.6020 C   0  0  0  0  0  0  0  0  0  0  0  0
   58.9080   29.8140   44.7840 C   0  0  0  0  0  0  0  0  0  0  0  0
   60.2340   29.1080   44.8960 C   0  0  0  0  0  0  0  0  0  0  0  0
   60.3410   28.3990   46.2190 C   0  0  0  0  0  0  0  0  0  0  0  0
   60.3370   29.1370   47.4160 C   0  0  0  0  0  0  0  0  0  0  0  0
   60.4090   28.4810   48.6490 C   0  0  0  0  0  0  0  0  0  0  0  0
   60.4830   27.0850   48.6970 C   0  0  0  0  0  0  0  0  0  0  0  0
   60.4840   26.3450   47.5120 C   0  0  0  0  0  0  0  0  0  0  0  0
   60.4120   26.9970   46.2770 C   0  0  0  0  0  0  0  0  0  0  0  0
   58.8890   31.1580   44.9940 N   0  0  0  0  0  0  0  0  0  0  0  0
   57.7290   31.8580   45.0280 C   0  0  0  0  0  0  0  0  0  0  0  0
   57.7600   33.6220   45.3220 S   0  0  0  0  0  0  0  0  0  0  0  0
   58.2570   33.4360   47.0650 C   0  0  0  0  0  0  0  0  0  0  0  0
   59.7450   33.2490   47.1440 C   0  0  0  0  0  0  0  0  0  0  0  0
   60.3020   32.4140   48.1250 C   0  0  0  0  0  0  0  0  0  0  0  0
   61.6900   32.2680   48.2190 C   0  0  0  0  0  0  0  0  0  0  0  0
   62.5330   32.9610   47.3430 C   0  0  0  0  0  0  0  0  0  0  0  0
   63.9130   32.8060   47.4480 O   0  0  0  0  0  0  0  0  0  0  0  0
   61.9800   33.8060   46.3720 C   0  0  0  0  0  0  0  0  0  0  0  0
   60.5930   33.9540   46.2760 C   0  0  0  0  0  0  0  0  0  0  0  0
   56.5440   31.2180   44.8710 N   0  0  0  0  0  0  0  0  0  0  0  0
   56.4940   29.8780   44.6650 C   0  0  0  0  0  0  0  0  0  0  0  0
   55.3730   29.3180   44.5260 O   0  0  0  0  0  0  0  0  0  0  0  0
   58.0524   25.9936   43.1892 H   0  0  0  0  0  0  0  0  0  0  0  0
   58.6286   27.6926   42.5478 H   0  0  0  0  0  0  0  0  0  0  0  0
   57.1079   27.0435   45.1484 H   0  0  0  0  0  0  0  0  0  0  0  0
   60.3230   28.3728   44.0826 H   0  0  0  0  0  0  0  0  0  0  0  0
   61.0413   29.8516   44.8235 H   0  0  0  0  0  0  0  0  0  0  0  0
   60.2770   30.2348   47.3824 H   0  0  0  0  0  0  0  0  0  0  0  0
   60.4074   29.0635   49.5821 H   0  0  0  0  0  0  0  0  0  0  0  0
   60.5404   26.5701   49.6673 H   0  0  0  0  0  0  0  0  0  0  0  0
   60.5415   25.2472   47.5505 H   0  0  0  0  0  0  0  0  0  0  0  0
   60.4109   26.4097   45.3469 H   0  0  0  0  0  0  0  0  0  0  0  0
   57.9704   34.3376   47.6262 H   0  0  0  0  0  0  0  0  0  0  0  0
   57.7537   32.5591   47.4982 H   0  0  0  0  0  0  0  0  0  0  0  0
   59.6452   31.8728   48.8219 H   0  0  0  0  0  0  0  0  0  0  0  0
   62.1206   31.6058   48.9846 H   0  0  0  0  0  0  0  0  0  0  0  0
   64.4260   32.1930   46.8270 H   0  0  0  0  0  0  0  0  0  0  0  0
   62.6390   34.3547   45.6830 H   0  0  0  0  0  0  0  0  0  0  0  0
   60.1648   34.6256   45.5173 H   0  0  0  0  0  0  0  0  0  0  0  0
  1  2  2  0
  2  3  1  0
  3  4  2  0
  4  5  1  0
  5  6  1  0
  6  7  2  0
  7  8  1  0
  8  9  2  0
  9 10  1  0
 10 11  2  0
  4 12  1  0
 12 13  1  0
 13 14  1  0
 14 15  1  0
 15 16  1  0
 16 17  2  0
 17 18  1  0
 18 19  2  0
 19 20  1  0
 19 21  1  0
 21 22  2  0
 13 23  2  0
 23 24  1  0
 24 25  2  0
 24  3  1  0
 11  6  1  0
 22 16  1  0
  1 26  1  0
  1 27  1  0
  2 28  1  0
  5 29  1  0
  5 30  1  0
  7 31  1  0
  8 32  1  0
  9 33  1  0
 10 34  1  0
 11 35  1  0
 15 36  1  0
 15 37  1  0
 17 38  1  0
 18 39  1  0
 20 40  1  0
 21 41  1  0
 22 42  1  0
M  CHG  1  12  -1
M  END
>  <UniqueID>  (4) 
4

>  <SMILES>  (4) 
C=Cc1c(Cc2ccccc2)[n-]c(SCc2ccc(O)cc2)nc1=O

>  <Energy>  (4) 
46.20921093997715

>  <Genealogy>  (4) 
C=Cc1c(Cc2ccccc2)[n-]c(SCc2ccc(O)cc2)nc1=O (protonated)
C=Cc1c(Cc2ccccc2)[n-]c(SCc2ccc(O)cc2)nc1=O (3D coordinates assigned)
C=Cc1c(Cc2ccccc2)[n-]c(SCc2ccc(O)cc2)nc1=O (optimized conformer: 46.20921093997715 kcal/mol)

>  <smiles>  (4) 
C=Cc1c(Cc2ccccc2)[nH]c(SCc2ccc(O)cc2)nc1=O

>  <score_type>  (4) 
oracle

>  <origin>  (4) 
adg

>  <m_score__min__energy>  (4) 
-9.6099999999999994

>  <m_primary>  (4) 
energy

$$$$
4:0
     RDKit          3D

 56 59  0  0  0  0  0  0  0  0999 V2000
   56.4020   31.3610   44.5060 O   0  0  0  0  0  0  0  0  0  0  0  0
   57.5420   30.9450   44.8570 C   0  0  0  0  0  0  0  0  0  0  0  0
   58.1580   29.7860   44.1350 C   0  0  0  0  0  0  0  0  0  0  0  0
   58.1490   28.5700   45.0110 C   0  0  0  0  0  0  0  0  0  0  0  0
   57.0500   27.3040   44.8800 S   0  0  0  0  0  0  0  0  0  0  0  0
   57.6120   26.4520   46.2180 C   0  0  0  0  0  0  0  0  0  0  0  0
   57.0480   24.8580   46.6930 S   0  0  0  0  0  0  0  0  0  0  0  0
   57.5330   24.5810   48.0890 O   0  0  0  0  0  0  0  0  0  0  0  0
   55.5450   24.8710   46.7270 O   0  0  0  0  0  0  0  0  0  0  0  0
   57.6000   23.5750   45.6360 N   0  0  0  0  0  0  0  0  0  0  0  0
   57.5710   23.9460   44.2070 C   0  0  0  0  0  0  0  0  0  0  0  0
   56.2380   23.5900   43.5290 C   0  0  0  0  0  0  0  0  0  0  0  0
   55.9010   22.2380   43.7580 O   0  0  0  0  0  0  0  0  0  0  0  0
   55.6830   22.0460   45.1380 C   0  0  0  0  0  0  0  0  0  0  0  0
   56.9790   22.2670   45.9270 C   0  0  0  0  0  0  0  0  0  0  0  0
   58.6810   27.1350   46.7790 C   0  0  0  0  0  0  0  0  0  0  0  0
   58.9730   28.3340   46.1110 C   0  0  0  0  0  0  0  0  0  0  0  0
   60.0880   29.1790   46.4270 N   0  0  0  0  0  0  0  0  0  0  0  0
   60.3320   29.7840   47.6990 C   0  0  0  0  0  0  0  0  0  0  0  0
   59.6690   29.3920   48.6960 O   0  0  0  0  0  0  0  0  0  0  0  0
   61.4050   30.7770   47.8940 C   0  0  0  0  0  0  0  0  0  0  0  0
   62.1160   30.9890   49.0670 C   0  0  0  0  0  0  0  0  0  0  0  0
   62.9120   32.0930   48.8370 C   0  0  0  0  0  0  0  0  0  0  0  0
   63.9770   32.8640   49.9990 Cl  0  0  0  0  0  0  0  0  0  0  0  0
   62.6580   32.5050   47.5450 C   0  0  0  0  0  0  0  0  0  0  0  0
   63.3820   33.8870   46.7440 Cl  0  0  0  0  0  0  0  0  0  0  0  0
   61.7320   31.7100   46.9790 N   0  0  0  0  0  0  0  0  0  0  0  0
   58.2330   31.5620   45.9530 N   0  0  0  0  0  0  0  0  0  0  0  0
   57.7540   32.7730   46.6080 C   0  0  0  0  0  0  0  0  0  0  0  0
   58.6290   33.0900   47.7870 C   0  0  0  0  0  0  0  0  0  0  0  0
   59.5170   34.1780   47.7340 C   0  0  0  0  0  0  0  0  0  0  0  0
   60.2920   34.5080   48.8500 C   0  0  0  0  0  0  0  0  0  0  0  0
   60.1790   33.7620   50.0270 C   0  0  0  0  0  0  0  0  0  0  0  0
   60.9270   34.0890   51.1100 F   0  0  0  0  0  0  0  0  0  0  0  0
   59.2910   32.6860   50.0890 C   0  0  0  0  0  0  0  0  0  0  0  0
   58.5170   32.3510   48.9760 C   0  0  0  0  0  0  0  0  0  0  0  0
   57.5828   29.5798   43.2204 H   0  0  0  0  0  0  0  0  0  0  0  0
   59.1975   30.0349   43.8752 H   0  0  0  0  0  0  0  0  0  0  0  0
   57.7305   25.0310   44.1217 H   0  0  0  0  0  0  0  0  0  0  0  0
   58.3643   23.3773   43.6997 H   0  0  0  0  0  0  0  0  0  0  0  0
   55.4439   24.2330   43.9363 H   0  0  0  0  0  0  0  0  0  0  0  0
   56.3421   23.7474   42.4453 H   0  0  0  0  0  0  0  0  0  0  0  0
   54.9220   22.7599   45.4862 H   0  0  0  0  0  0  0  0  0  0  0  0
   55.3408   21.0135   45.3018 H   0  0  0  0  0  0  0  0  0  0  0  0
   56.7511   22.2156   47.0019 H   0  0  0  0  0  0  0  0  0  0  0  0
   57.6912   21.4839   45.6277 H   0  0  0  0  0  0  0  0  0  0  0  0
   59.2406   26.7749   47.6548 H   0  0  0  0  0  0  0  0  0  0  0  0
   62.0571   30.3972   49.9924 H   0  0  0  0  0  0  0  0  0  0  0  0
   61.3380   31.8020   46.0140 H   0  0  0  0  0  0  0  0  0  0  0  0
   59.1920   31.2240   46.1960 H   0  0  0  0  0  0  0  0  0  0  0  0
   57.7831   33.6103   45.8952 H   0  0  0  0  0  0  0  0  0  0  0  0
   56.7209   32.6171   46.9522 H   0  0  0  0  0  0  0  0  0  0  0  0
   59.6026   34.7717   46.8119 H   0  0  0  0  0  0  0  0  0  0  0  0
   60.9915   35.3556   48.8019 H   0  0  0  0  0  0  0  0  0  0  0  0
   59.2010   32.1012   51.0163 H   0  0  0  0  0  0  0  0  0  0  0  0
   57.8165   31.5046   49.0308 H   0  0  0  0  0  0  0  0  0  0  0  0
  1  2  2  0
  2  3  1  0
  3  4  1  0
  4  5  1  0
  5  6  1  0
  6  7  1  0
  7  8  2  0
  7  9  2  0
  7 10  1  0
 10 11  1  0
 11 12  1  0
 12 13  1  0
 13 14  1  0
 14 15  1  0
  6 16  2  0
 16 17  1  0
 17 18  1  0
 18 19  1  0
 19 20  2  0
 19 21  1  0
 21 22  2  0
 22 23  1  0
 23 24  1  0
 23 25  2  0
 25 26  1  0
 25 27  1  0
  2 28  1  0
 28 29  1  0
 29 30  1  0
 30 31  2  0
 31 32  1  0
 32 33  2  0
 33 34  1  0
 33 35  1  0
 35 36  2  0
 17  4  2  0
 27 21  1  0
 36 30  1  0
 15 10  1  0
  3 37  1  0
  3 38  1  0
 11 39  1  0
 11 40  1  0
 12 41  1  0
 12 42  1  0
 14 43  1  0
 14 44  1  0
 15 45  1  0
 15 46  1  0
 16 47  1  0
 22 48  1  0
 27 49  1  0
 28 50  1  0
 29 51  1  0
 29 52  1  0
 31 53  1  0
 32 54  1  0
 35 55  1  0
 36 56  1  0
M  CHG  1  18  -1
M  END
>  <UniqueID>  (5) 
5

>  <SMILES>  (5) 
O=C(Cc1sc(S(=O)(=O)N2CCOCC2)cc1[N-]C(=O)c1cc(Cl)c(Cl)[nH]1)NCc1ccc(F)cc1

>  <Energy>  (5) 
113.30898350857571

>  <Genealogy>  (5) 
O=C(Cc1sc(S(=O)(=O)N2CCOCC2)cc1[N-]C(=O)c1cc(Cl)c(Cl)[nH]1)NCc1ccc(F)cc1 (protonated)
O=C(Cc1sc(S(=O)(=O)N2CCOCC2)cc1[N-]C(=O)c1cc(Cl)c(Cl)[nH]1)NCc1ccc(F)cc1 (3D coordinates assigned)
O=C(Cc1sc(S(=O)(=O)N2CCOCC2)cc1[N-]C(=O)c1cc(Cl)c(Cl)[nH]1)NCc1ccc(F)cc1 (nonaromatic ring conformer: 113.30898350857571 kcal/mol)

>  <smiles>  (5) 
O=C(Cc1sc(S(=O)(=O)N2CCOCC2)cc1NC(=O)c1cc(Cl)c(Cl)[nH]1)NCc1ccc(F)cc1

>  <score_type>  (5) 
oracle

>  <origin>  (5) 
adg

>  <m_score__min__energy>  (5) 
-11.449999999999999

>  <m_primary>  (5) 
energy

$$$$
5:0
     RDKit          3D

 43 45  0  0  0  0  0  0  0  0999 V2000
   54.4340   26.7170   46.8540 H   0  0  0  0  0  0  0  0  0  0  0  0
   54.3680   26.3180   45.9250 O   0  0  0  0  0  0  0  0  0  0  0  0
   55.0000   25.1170   45.6160 C   0  0  0  0  0  0  0  0  0  0  0  0
   56.3250   24.7930   45.8460 C   0  0  0  0  0  0  0  0  0  0  0  0
   57.3680   25.6310   46.4700 C   0  0  0  0  0  0  0  0  0  0  0  0
   58.0265   25.1656   47.2182 H   0  0  0  0  0  0  0  0  0  0  0  0
   57.5610   26.9300   46.1780 C   0  0  0  0  0  0  0  0  0  0  0  0
   56.5770   27.7590   45.7700 N   0  0  0  0  0  0  0  0  0  0  0  0
   57.1800   28.9580   45.6350 C   0  0  0  0  0  0  0  0  0  0  0  0
   56.5110   30.1180   45.2290 O   0  0  0  0  0  0  0  0  0  0  0  0
   56.4860   30.5680   43.8760 C   0  0  0  0  0  0  0  0  0  0  0  0
   56.6692   29.7127   43.2090 H   0  0  0  0  0  0  0  0  0  0  0  0
   55.5001   31.0113   43.6722 H   0  0  0  0  0  0  0  0  0  0  0  0
   57.5420   31.6150   43.6360 C   0  0  0  0  0  0  0  0  0  0  0  0
   58.1710   31.5840   42.5430 O   0  0  0  0  0  0  0  0  0  0  0  0
   57.8450   32.6410   44.6110 N   0  0  0  0  0  0  0  0  0  0  0  0
   57.1380   32.6940   45.8990 C   0  0  0  0  0  0  0  0  0  0  0  0
   56.1791   33.2160   45.7645 H   0  0  0  0  0  0  0  0  0  0  0  0
   56.9641   31.6668   46.2521 H   0  0  0  0  0  0  0  0  0  0  0  0
   57.9770   33.4410   46.9410 C   0  0  0  0  0  0  0  0  0  0  0  0
   57.3708   33.6004   47.8449 H   0  0  0  0  0  0  0  0  0  0  0  0
   58.8654   32.8367   47.1769 H   0  0  0  0  0  0  0  0  0  0  0  0
   58.4010   34.6930   46.4410 O   0  0  0  0  0  0  0  0  0  0  0  0
   59.2920   34.4920   45.3630 C   0  0  0  0  0  0  0  0  0  0  0  0
   59.7017   35.4630   45.0478 H   0  0  0  0  0  0  0  0  0  0  0  0
   60.1012   33.8244   45.6939 H   0  0  0  0  0  0  0  0  0  0  0  0
   58.5730   33.8420   44.1780 C   0  0  0  0  0  0  0  0  0  0  0  0
   57.8605   34.5616   43.7485 H   0  0  0  0  0  0  0  0  0  0  0  0
   59.3206   33.5517   43.4252 H   0  0  0  0  0  0  0  0  0  0  0  0
   58.4930   28.9310   45.9410 N   0  0  0  0  0  0  0  0  0  0  0  0
   59.4200   30.0630   45.9210 C   0  0  0  0  0  0  0  0  0  0  0  0
   59.6613   30.3576   46.9530 H   0  0  0  0  0  0  0  0  0  0  0  0
   60.3427   29.7721   45.3975 H   0  0  0  0  0  0  0  0  0  0  0  0
   58.9529   30.9102   45.3975 H   0  0  0  0  0  0  0  0  0  0  0  0
   58.7480   27.6520   46.2920 C   0  0  0  0  0  0  0  0  0  0  0  0
   59.9490   27.1960   46.6760 C   0  0  0  0  0  0  0  0  0  0  0  0
   60.8085   27.8810   46.7218 H   0  0  0  0  0  0  0  0  0  0  0  0
   60.0748   26.1369   46.9452 H   0  0  0  0  0  0  0  0  0  0  0  0
   56.5930   23.5740   45.3340 N   0  0  0  0  0  0  0  0  0  0  0  0
   55.4310   23.1230   44.8150 C   0  0  0  0  0  0  0  0  0  0  0  0
   55.3057   22.1437   44.3300 H   0  0  0  0  0  0  0  0  0  0  0  0
   54.4210   24.0500   44.9720 C   0  0  0  0  0  0  0  0  0  0  0  0
   53.3736   23.9550   44.6497 H   0  0  0  0  0  0  0  0  0  0  0  0
  1  2  1  0
  2  3  1  0
  3  4  2  0
  4  5  1  0
  5  6  1  0
  5  7  2  0
  7  8  1  0
  8  9  2  0
  9 10  1  0
 10 11  1  0
 11 12  1  0
 11 13  1  0
 11 14  1  0
 14 15  2  0
 14 16  1  0
 16 17  1  0
 17 18  1  0
 17 19  1  0
 17 20  1  0
 20 21  1  0
 20 22  1  0
 20 23  1  0
 23 24  1  0
 24 25  1  0
 24 26  1  0
 24 27  1  0
 27 28  1  0
 27 29  1  0
  9 30  1  0
 30 31  1  0
 31 32  1  0
 31 33  1  0
 31 34  1  0
 30 35  1  0
 35 36  2  0
 36 37  1  0
 36 38  1  0
  4 39  1  0
 39 40  1  0
 40 41  1  0
 40 42  2  0
 42 43  1  0
 42  3  1  0
 35  7  1  0
 27 16  1  0
M  CHG  1  39  -1
M  END
>  <UniqueID>  (6) 
6

>  <SMILES>  (6) 
C=c1/c(=C/c2[n-]ccc2O)nc(OCC(=O)N2CCOCC2)n1C

>  <Energy>  (6) 
104.6816090648823

>  <Genealogy>  (6) 
C=c1c(=Cc2[n-]ccc2O)nc(OCC(=O)N2CCOCC2)n1C (protonated)
C=c1/c(=C/c2[n-]ccc2O)nc(OCC(=O)N2CCOCC2)n1C (cis-trans isomerization)
C=c1/c(=C/c2[n-]ccc2O)nc(OCC(=O)N2CCOCC2)n1C (3D coordinates assigned)
C=c1/c(=C/c2[n-]ccc2O)nc(OCC(=O)N2CCOCC2)n1C (nonaromatic ring conformer: 104.6816090648823 kcal/mol)

>  <smiles>  (6) 
C=c1c(=Cc2[nH]ccc2O)nc(OCC(=O)N2CCOCC2)n1C

>  <score_type>  (6) 
oracle

>  <origin>  (6) 
adg

>  <m_score__min__energy>  (6) 
-9.4299999999999997

>  <m_primary>  (6) 
energy

$$$$
6:0
     RDKit          3D

 37 39  0  0  0  0  0  0  0  0999 V2000
   60.0450   28.8620   45.7640 O   0  0  0  0  0  0  0  0  0  0  0  0
   58.8210   28.6210   45.5670 C   0  0  0  0  0  0  0  0  0  0  0  0
   58.3920   27.3630   44.8640 C   0  0  0  0  0  0  0  0  0  0  0  0
   57.2100   26.7160   45.5210 C   0  0  0  0  0  0  0  0  0  0  0  0
   57.2190   25.4770   46.0430 N   0  0  0  0  0  0  0  0  0  0  0  0
   55.9440   25.3050   46.4550 C   0  0  0  0  0  0  0  0  0  0  0  0
   55.5490   24.2490   47.0140 O   0  0  0  0  0  0  0  0  0  0  0  0
   55.1230   26.3510   46.2160 N   0  0  0  0  0  0  0  0  0  0  0  0
   55.9410   27.2340   45.6190 C   0  0  0  0  0  0  0  0  0  0  0  0
   55.5320   28.4810   45.1650 O   0  0  0  0  0  0  0  0  0  0  0  0
   57.8270   29.5610   45.9970 N   0  0  0  0  0  0  0  0  0  0  0  0
   58.1530   30.8940   46.4160 C   0  0  0  0  0  0  0  0  0  0  0  0
   58.5190   31.1120   47.7520 C   0  0  0  0  0  0  0  0  0  0  0  0
   58.8840   32.3880   48.1860 C   0  0  0  0  0  0  0  0  0  0  0  0
   58.8720   33.4600   47.2930 C   0  0  0  0  0  0  0  0  0  0  0  0
   58.4810   33.2630   45.9670 C   0  0  0  0  0  0  0  0  0  0  0  0
   58.1070   31.9860   45.5160 C   0  0  0  0  0  0  0  0  0  0  0  0
   57.6160   31.8240   44.1760 N   0  0  0  0  0  0  0  0  0  0  0  0
   56.6460   30.8100   43.7930 C   0  0  0  0  0  0  0  0  0  0  0  0
   56.6330   30.8070   42.2700 C   0  0  0  0  0  0  0  0  0  0  0  0
   57.3580   32.0790   41.8360 C   0  0  0  0  0  0  0  0  0  0  0  0
   58.1910   32.5130   43.0330 C   0  0  0  0  0  0  0  0  0  0  0  0
   58.1270   27.6114   43.8257 H   0  0  0  0  0  0  0  0  0  0  0  0
   59.2304   26.6522   44.9069 H   0  0  0  0  0  0  0  0  0  0  0  0
   56.8450   29.2250   46.1240 H   0  0  0  0  0  0  0  0  0  0  0  0
   58.5186   30.2724   48.4627 H   0  0  0  0  0  0  0  0  0  0  0  0
   59.1813   32.5482   49.2329 H   0  0  0  0  0  0  0  0  0  0  0  0
   59.1711   34.4621   47.6341 H   0  0  0  0  0  0  0  0  0  0  0  0
   58.4657   34.1141   45.2703 H   0  0  0  0  0  0  0  0  0  0  0  0
   56.9497   29.8246   44.1760 H   0  0  0  0  0  0  0  0  0  0  0  0
   55.6497   31.0240   44.2072 H   0  0  0  0  0  0  0  0  0  0  0  0
   57.1569   29.9194   41.8858 H   0  0  0  0  0  0  0  0  0  0  0  0
   55.6058   30.7770   41.8777 H   0  0  0  0  0  0  0  0  0  0  0  0
   58.0073   31.8736   40.9722 H   0  0  0  0  0  0  0  0  0  0  0  0
   56.6498   32.8635   41.5309 H   0  0  0  0  0  0  0  0  0  0  0  0
   59.2424   32.2199   42.8964 H   0  0  0  0  0  0  0  0  0  0  0  0
   58.1775   33.6049   43.1654 H   0  0  0  0  0  0  0  0  0  0  0  0
  1  2  2  0
  2  3  1  0
  3  4  1  0
  4  5  1  0
  5  6  1  0
  6  7  2  0
  6  8  1  0
  8  9  1  0
  9 10  1  0
  2 11  1  0
 11 12  1  0
 12 13  2  0
 13 14  1  0
 14 15  2  0
 15 16  1  0
 16 17  2  0
 17 18  1  0
 18 19  1  0
 19 20  1  0
 20 21  1  0
 21 22  1  0
  9  4  2  0
 17 12  1  0
 22 18  1  0
  3 23  1  0
  3 24  1  0
 11 25  1  0
 13 26  1  0
 14 27  1  0
 15 28  1  0
 16 29  1  0
 19 30  1  0
 19 31  1  0
 20 32  1  0
 20 33  1  0
 21 34  1  0
 21 35  1  0
 22 36  1  0
 22 37  1  0
M  CHG  3   5  -1   8  -1  10  -1
M  END
>  <UniqueID>  (7) 
7

>  <SMILES>  (7) 
O=C(Cc1[n-]c(=O)[n-]c1[O-])Nc1ccccc1N1CCCC1

>  <Energy>  (7) 
75.53525053900988

>  <Genealogy>  (7) 
O=C(Cc1[n-]c(=O)[n-]c1[O-])Nc1ccccc1N1CCCC1 (protonated)
O=C(Cc1[n-]c(=O)[n-]c1[O-])Nc1ccccc1N1CCCC1 (3D coordinates assigned)
O=C(Cc1[n-]c(=O)[n-]c1[O-])Nc1ccccc1N1CCCC1 (nonaromatic ring conformer: 75.53525053900988 kcal/mol)

>  <smiles>  (7) 
O=C(Cc1[nH]c(=O)[nH]c1O)Nc1ccccc1N1CCCC1

>  <score_type>  (7) 
oracle

>  <origin>  (7) 
adg

>  <m_score__min__energy>  (7) 
-15.16

>  <m_primary>  (7) 
energy

$$$$
7:0
     RDKit          3D

 66 70  0  0  0  0  0  0  0  0999 V2000
   66.8280   29.6370   52.5020 C   0  0  0  0  0  0  0  0  0  0  0  0
   66.7650   30.9500   51.7660 C   0  0  0  0  0  0  0  0  0  0  0  0
   67.9180   31.7480   51.6950 C   0  0  0  0  0  0  0  0  0  0  0  0
   67.8950   32.9710   51.0290 C   0  0  0  0  0  0  0  0  0  0  0  0
   66.7220   33.4180   50.4270 C   0  0  0  0  0  0  0  0  0  0  0  0
   65.5570   32.6420   50.4780 C   0  0  0  0  0  0  0  0  0  0  0  0
   64.3690   33.1460   49.8510 N   0  0  0  0  0  0  0  0  0  0  0  0
   63.9660   32.6100   48.5450 C   0  0  0  0  0  0  0  0  0  0  0  0
   62.7980   33.4070   47.9610 C   0  0  0  0  0  0  0  0  0  0  0  0
   61.7430   33.5680   48.9740 N   0  0  0  0  0  0  0  0  0  0  0  0
   60.3530   33.5260   48.5960 C   0  0  0  0  0  0  0  0  0  0  0  0
   59.5460   34.3550   49.1010 O   0  0  0  0  0  0  0  0  0  0  0  0
   59.8390   32.5190   47.6410 C   0  0  0  0  0  0  0  0  0  0  0  0
   58.9880   32.9000   46.5890 C   0  0  0  0  0  0  0  0  0  0  0  0
   58.5240   31.9490   45.6760 C   0  0  0  0  0  0  0  0  0  0  0  0
   58.8880   30.6050   45.8080 C   0  0  0  0  0  0  0  0  0  0  0  0
   58.3930   29.6550   44.8530 N   0  0  0  0  0  0  0  0  0  0  0  0
   57.2390   28.8230   45.0290 C   0  0  0  0  0  0  0  0  0  0  0  0
   56.0820   29.3230   44.9820 O   0  0  0  0  0  0  0  0  0  0  0  0
   57.4080   27.3680   45.2600 C   0  0  0  0  0  0  0  0  0  0  0  0
   57.3900   26.9260   46.5880 C   0  0  0  0  0  0  0  0  0  0  0  0
   57.3930   25.5660   46.8740 C   0  0  0  0  0  0  0  0  0  0  0  0
   57.3750   25.1920   48.0790 O   0  0  0  0  0  0  0  0  0  0  0  0
   57.3910   24.6350   45.8270 C   0  0  0  0  0  0  0  0  0  0  0  0
   57.3320   23.2520   46.0920 C   0  0  0  0  0  0  0  0  0  0  0  0
   57.2950   22.3320   45.0450 C   0  0  0  0  0  0  0  0  0  0  0  0
   57.3130   22.7740   43.7260 C   0  0  0  0  0  0  0  0  0  0  0  0
   57.3820   24.1390   43.4430 C   0  0  0  0  0  0  0  0  0  0  0  0
   57.4390   25.1000   44.4850 C   0  0  0  0  0  0  0  0  0  0  0  0
   57.5230   26.4580   44.2250 N   0  0  0  0  0  0  0  0  0  0  0  0
   57.7860   26.9330   42.8500 C   0  0  0  0  0  0  0  0  0  0  0  0
   59.7680   30.2280   46.8370 C   0  0  0  0  0  0  0  0  0  0  0  0
   60.2400   31.1780   47.7450 C   0  0  0  0  0  0  0  0  0  0  0  0
   62.0970   33.9630   50.3470 C   0  0  0  0  0  0  0  0  0  0  0  0
   63.6020   34.2120   50.5040 C   0  0  0  0  0  0  0  0  0  0  0  0
   65.5710   31.3850   51.1330 C   0  0  0  0  0  0  0  0  0  0  0  0
   64.3250   30.5310   51.1900 C   0  0  0  0  0  0  0  0  0  0  0  0
   66.8191   29.8235   53.5860 H   0  0  0  0  0  0  0  0  0  0  0  0
   65.9584   29.0213   52.2287 H   0  0  0  0  0  0  0  0  0  0  0  0
   67.7526   29.1074   52.2287 H   0  0  0  0  0  0  0  0  0  0  0  0
   68.8486   31.4039   52.1700 H   0  0  0  0  0  0  0  0  0  0  0  0
   68.8061   33.5853   50.9785 H   0  0  0  0  0  0  0  0  0  0  0  0
   66.7100   34.3876   49.9076 H   0  0  0  0  0  0  0  0  0  0  0  0
   64.8203   32.6657   47.8543 H   0  0  0  0  0  0  0  0  0  0  0  0
   63.6454   31.5663   48.6788 H   0  0  0  0  0  0  0  0  0  0  0  0
   63.1549   34.3986   47.6458 H   0  0  0  0  0  0  0  0  0  0  0  0
   62.3883   32.8659   47.0954 H   0  0  0  0  0  0  0  0  0  0  0  0
   58.6856   33.9524   46.4838 H   0  0  0  0  0  0  0  0  0  0  0  0
   57.8687   32.2593   44.8488 H   0  0  0  0  0  0  0  0  0  0  0  0
   57.3734   27.6582   47.4087 H   0  0  0  0  0  0  0  0  0  0  0  0
   57.3150   22.8958   47.1326 H   0  0  0  0  0  0  0  0  0  0  0  0
   57.2515   21.2546   45.2623 H   0  0  0  0  0  0  0  0  0  0  0  0
   57.2727   22.0451   42.9032 H   0  0  0  0  0  0  0  0  0  0  0  0
   57.3923   24.4749   42.3956 H   0  0  0  0  0  0  0  0  0  0  0  0
   58.3185   27.8947   42.8899 H   0  0  0  0  0  0  0  0  0  0  0  0
   58.4033   26.1938   42.3185 H   0  0  0  0  0  0  0  0  0  0  0  0
   56.8319   27.0639   42.3185 H   0  0  0  0  0  0  0  0  0  0  0  0
   60.0866   29.1790   46.9275 H   0  0  0  0  0  0  0  0  0  0  0  0
   60.9298   30.8738   48.5460 H   0  0  0  0  0  0  0  0  0  0  0  0
   61.5560   34.8863   50.6014 H   0  0  0  0  0  0  0  0  0  0  0  0
   61.8172   33.1391   51.0200 H   0  0  0  0  0  0  0  0  0  0  0  0
   63.8593   35.1774   50.0437 H   0  0  0  0  0  0  0  0  0  0  0  0
   63.8510   34.2249   51.5754 H   0  0  0  0  0  0  0  0  0  0  0  0
   64.0550   30.3460   52.2402 H   0  0  0  0  0  0  0  0  0  0  0  0
   63.4989   31.0536   50.6856 H   0  0  0  0  0  0  0  0  0  0  0  0
   64.5144   29.5720   50.6856 H   0  0  0  0  0  0  0  0  0  0  0  0
  1  2  1  0
  2  3  2  0
  3  4  1  0
  4  5  2  0
  5  6  1  0
  6  7  1  0
  7  8  1  0
  8  9  1  0
  9 10  1  0
 10 11  1  0
 11 12  2  0
 11 13  1  0
 13 14  2  0
 14 15  1  0
 15 16  2  0
 16 17  1  0
 17 18  1  0
 18 19  2  0
 18 20  1  0
 20 21  2  0
 21 22  1  0
 22 23  2  0
 22 24  1  0
 24 25  2  0
 25 26  1  0
 26 27  2  0
 27 28  1  0
 28 29  2  0
 29 30  1  0
 30 31  1  0
 16 32  1  0
 32 33  2  0
 10 34  1  0
 34 35  1  0
  6 36  2  0
 36 37  1  0
 36  2  1  0
 35  7  1  0
 33 13  1  0
 30 20  1  0
 29 24  1  0
  1 38  1  0
  1 39  1  0
  1 40  1  0
  3 41  1  0
  4 42  1  0
  5 43  1  0
  8 44  1  0
  8 45  1  0
  9 46  1  0
  9 47  1  0
 14 48  1  0
 15 49  1  0
 21 50  1  0
 25 51  1  0
 26 52  1  0
 27 53  1  0
 28 54  1  0
 31 55  1  0
 31 56  1  0
 31 57  1  0
 32 58  1  0
 33 59  1  0
 34 60  1  0
 34 61  1  0
 35 62  1  0
 35 63  1  0
 37 64  1  0
 37 65  1  0
 37 66  1  0
M  CHG  1  17  -1
M  END
>  <UniqueID>  (8) 
8

>  <SMILES>  (8) 
Cc1cccc(N2CCN(C(=O)c3ccc([N-]C(=O)c4cc(=O)c5ccccc5n4C)cc3)CC2)c1C

>  <Energy>  (8) 
105.30674320608841

>  <Genealogy>  (8) 
Cc1cccc(N2CCN(C(=O)c3ccc([N-]C(=O)c4cc(=O)c5ccccc5n4C)cc3)CC2)c1C (protonated)
Cc1cccc(N2CCN(C(=O)c3ccc([N-]C(=O)c4cc(=O)c5ccccc5n4C)cc3)CC2)c1C (3D coordinates assigned)
Cc1cccc(N2CCN(C(=O)c3ccc([N-]C(=O)c4cc(=O)c5ccccc5n4C)cc3)CC2)c1C (nonaromatic ring conformer: 105.30674320608841 kcal/mol)

>  <smiles>  (8) 
Cc1cccc(N2CCN(C(=O)c3ccc(NC(=O)c4cc(=O)c5ccccc5n4C)cc3)CC2)c1C

>  <score_type>  (8) 
oracle

>  <origin>  (8) 
adg

>  <m_score__min__energy>  (8) 
-10.74

>  <m_primary>  (8) 
energy

$$$$
8:0
     RDKit          3D

 37 39  0  0  0  0  0  0  0  0999 V2000
   55.3670   27.1100   46.7580 H   0  0  0  0  0  0  0  0  0  0  0  0
   54.7840   26.3430   46.3550 N   0  0  0  0  0  0  0  0  0  0  0  0
   55.3090   25.3880   45.6540 C   0  0  0  0  0  0  0  0  0  0  0  0
   54.6460   24.2070   45.5300 N   0  0  0  0  0  0  0  0  0  0  0  0
   55.1570   23.1560   44.8380 C   0  0  0  0  0  0  0  0  0  0  0  0
   54.5819   22.2218   44.7572 H   0  0  0  0  0  0  0  0  0  0  0  0
   56.4150   23.2570   44.2260 C   0  0  0  0  0  0  0  0  0  0  0  0
   56.9880   22.1180   43.4760 C   0  0  0  0  0  0  0  0  0  0  0  0
   56.2550   21.4250   42.7180 O   0  0  0  0  0  0  0  0  0  0  0  0
   58.3470   21.8110   43.6070 O   0  0  0  0  0  0  0  0  0  0  0  0
   59.0250   21.8480   44.8570 C   0  0  0  0  0  0  0  0  0  0  0  0
   58.2898   21.8079   45.6742 H   0  0  0  0  0  0  0  0  0  0  0  0
   59.7037   20.9856   44.9317 H   0  0  0  0  0  0  0  0  0  0  0  0
   59.6058   22.7792   44.9317 H   0  0  0  0  0  0  0  0  0  0  0  0
   57.1180   24.4650   44.3400 C   0  0  0  0  0  0  0  0  0  0  0  0
   58.1108   24.5624   43.8764 H   0  0  0  0  0  0  0  0  0  0  0  0
   56.5690   25.5510   45.0390 C   0  0  0  0  0  0  0  0  0  0  0  0
   57.3380   26.8190   45.1310 C   0  0  0  0  0  0  0  0  0  0  0  0
   58.5770   26.7990   44.9120 O   0  0  0  0  0  0  0  0  0  0  0  0
   56.7270   28.0620   45.5110 N   0  0  0  0  0  0  0  0  0  0  0  0
   56.9320   29.2200   44.9550 C   0  0  0  0  0  0  0  0  0  0  0  0
   57.4640   30.2550   45.6350 N   0  0  0  0  0  0  0  0  0  0  0  0
   57.6230   31.3610   44.8530 C   0  0  0  0  0  0  0  0  0  0  0  0
   58.1940   32.6190   45.4000 C   0  0  0  0  0  0  0  0  0  0  0  0
   58.6010   33.6730   44.5570 C   0  0  0  0  0  0  0  0  0  0  0  0
   58.4982   33.5706   43.4666 H   0  0  0  0  0  0  0  0  0  0  0  0
   59.1350   34.8490   45.0970 C   0  0  0  0  0  0  0  0  0  0  0  0
   59.4536   35.6637   44.4302 H   0  0  0  0  0  0  0  0  0  0  0  0
   59.2640   34.9900   46.4790 C   0  0  0  0  0  0  0  0  0  0  0  0
   59.6850   35.9147   46.9004 H   0  0  0  0  0  0  0  0  0  0  0  0
   58.8590   33.9580   47.3270 C   0  0  0  0  0  0  0  0  0  0  0  0
   58.9601   34.0709   48.4165 H   0  0  0  0  0  0  0  0  0  0  0  0
   58.3250   32.7810   46.7940 C   0  0  0  0  0  0  0  0  0  0  0  0
   58.0041   31.9738   47.4689 H   0  0  0  0  0  0  0  0  0  0  0  0
   57.2210   31.1890   43.5230 C   0  0  0  0  0  0  0  0  0  0  0  0
   57.2674   31.9523   42.7323 H   0  0  0  0  0  0  0  0  0  0  0  0
   56.6550   29.6160   43.3410 S   0  0  0  0  0  0  0  0  0  0  0  0
  1  2  1  0
  2  3  2  0
  3  4  1  0
  4  5  1  0
  5  6  1  0
  5  7  2  0
  7  8  1  0
  8  9  2  0
  8 10  1  0
 10 11  1  0
 11 12  1  0
 11 13  1  0
 11 14  1  0
  7 15  1  0
 15 16  1  0
 15 17  2  0
 17 18  1  0
 18 19  2  0
 18 20  1  0
 20 21  2  0
 21 22  1  0
 22 23  1  0
 23 24  1  0
 24 25  2  0
 25 26  1  0
 25 27  1  0
 27 28  1  0
 27 29  2  0
 29 30  1  0
 29 31  1  0
 31 32  1  0
 31 33  2  0
 33 34  1  0
 23 35  2  0
 35 36  1  0
 35 37  1  0
 17  3  1  0
 37 21  1  0
 33 24  1  0
M  CHG  2   4  -1  22  -1
M  END
>  <UniqueID>  (9) 
9

>  <SMILES>  (9) 
[H]/N=c1\[n-]cc(C(=O)OC)cc1C(=O)/N=c1/[n-]c(-c2ccccc2)cs1

>  <Energy>  (9) 
81.78525247443153

>  <Genealogy>  (9) 
COC(=O)c1c[n-]c(=N)c(C(=O)N=c2[n-]c(-c3ccccc3)cs2)c1 (protonated)
[H]/N=c1\[n-]cc(C(=O)OC)cc1C(=O)/N=c1/[n-]c(-c2ccccc2)cs1 (cis-trans isomerization)
[H]/N=c1\[n-]cc(C(=O)OC)cc1C(=O)/N=c1/[n-]c(-c2ccccc2)cs1 (3D coordinates assigned)
[H]/N=c1\[n-]cc(C(=O)OC)cc1C(=O)/N=c1/[n-]c(-c2ccccc2)cs1 (optimized conformer: 81.78525247443153 kcal/mol)

>  <smiles>  (9) 
COC(=O)c1c[nH]c(=N)c(C(=O)N=c2[nH]c(-c3ccccc3)cs2)c1

>  <score_type>  (9) 
oracle

>  <origin>  (9) 
adg

>  <m_score__min__energy>  (9) 
-12.529999999999999

>  <m_primary>  (9) 
energy

$$$$
9:0
     RDKit          3D

 49 51  0  0  0  0  0  0  0  0999 V2000
   56.3850   21.7430   48.3810 C   0  0  0  0  0  0  0  0  0  0  0  0
   57.3730   22.2120   47.4710 O   0  0  0  0  0  0  0  0  0  0  0  0
   57.1380   22.5050   46.1170 C   0  0  0  0  0  0  0  0  0  0  0  0
   57.3310   21.5430   45.1060 C   0  0  0  0  0  0  0  0  0  0  0  0
   57.0790   21.8630   43.7700 C   0  0  0  0  0  0  0  0  0  0  0  0
   56.6350   23.1380   43.4260 C   0  0  0  0  0  0  0  0  0  0  0  0
   56.4410   24.1030   44.4170 C   0  0  0  0  0  0  0  0  0  0  0  0
   56.7000   23.8000   45.7650 C   0  0  0  0  0  0  0  0  0  0  0  0
   56.4500   24.8470   46.8250 C   0  0  0  0  0  0  0  0  0  0  0  0
   55.9940   26.1500   46.2180 C   0  0  0  0  0  0  0  0  0  0  0  0
   54.7690   26.3310   45.9880 O   0  0  0  0  0  0  0  0  0  0  0  0
   56.9210   27.1590   45.7940 N   0  0  0  0  0  0  0  0  0  0  0  0
   57.8910   27.0380   44.7090 C   0  0  0  0  0  0  0  0  0  0  0  0
   58.9950   28.0940   44.8360 C   0  0  0  0  0  0  0  0  0  0  0  0
   58.4420   29.4550   44.7190 N   0  0  0  0  0  0  0  0  0  0  0  0
   57.4350   29.6800   43.8190 C   0  0  0  0  0  0  0  0  0  0  0  0
   56.9000   30.9540   43.6530 C   0  0  0  0  0  0  0  0  0  0  0  0
   57.3930   32.0080   44.4120 C   0  0  0  0  0  0  0  0  0  0  0  0
   58.4240   31.7930   45.3370 C   0  0  0  0  0  0  0  0  0  0  0  0
   58.9360   32.9310   46.1410 C   0  0  0  0  0  0  0  0  0  0  0  0
   58.5920   34.2660   45.9810 C   0  0  0  0  0  0  0  0  0  0  0  0
   59.2810   34.9330   46.9740 C   0  0  0  0  0  0  0  0  0  0  0  0
   59.9970   34.0330   47.6750 N   0  0  0  0  0  0  0  0  0  0  0  0
   60.7850   34.3110   48.8690 C   0  0  0  0  0  0  0  0  0  0  0  0
   59.7810   32.8230   47.1870 N   0  0  0  0  0  0  0  0  0  0  0  0
   58.9540   30.4900   45.4640 C   0  0  0  0  0  0  0  0  0  0  0  0
   59.9190   30.2800   46.2510 O   0  0  0  0  0  0  0  0  0  0  0  0
   56.7296   21.9066   49.4127 H   0  0  0  0  0  0  0  0  0  0  0  0
   55.4456   22.2913   48.2169 H   0  0  0  0  0  0  0  0  0  0  0  0
   56.2159   20.6685   48.2169 H   0  0  0  0  0  0  0  0  0  0  0  0
   57.6820   20.5345   45.3702 H   0  0  0  0  0  0  0  0  0  0  0  0
   57.2316   21.1058   42.9868 H   0  0  0  0  0  0  0  0  0  0  0  0
   56.4370   23.3850   42.3725 H   0  0  0  0  0  0  0  0  0  0  0  0
   56.0834   25.1060   44.1410 H   0  0  0  0  0  0  0  0  0  0  0  0
   55.6728   24.4814   47.5122 H   0  0  0  0  0  0  0  0  0  0  0  0
   57.3934   25.0274   47.3612 H   0  0  0  0  0  0  0  0  0  0  0  0
   58.3456   26.0369   44.7434 H   0  0  0  0  0  0  0  0  0  0  0  0
   57.3680   27.1922   43.7537 H   0  0  0  0  0  0  0  0  0  0  0  0
   59.4833   27.9874   45.8159 H   0  0  0  0  0  0  0  0  0  0  0  0
   59.7210   27.9404   44.0240 H   0  0  0  0  0  0  0  0  0  0  0  0
   57.0443   28.8441   43.2202 H   0  0  0  0  0  0  0  0  0  0  0  0
   56.0925   31.1252   42.9260 H   0  0  0  0  0  0  0  0  0  0  0  0
   56.9721   33.0165   44.2864 H   0  0  0  0  0  0  0  0  0  0  0  0
   57.9174   34.6983   45.2273 H   0  0  0  0  0  0  0  0  0  0  0  0
   59.2504   36.0165   47.1611 H   0  0  0  0  0  0  0  0  0  0  0  0
   60.1820   34.0983   49.7640 H   0  0  0  0  0  0  0  0  0  0  0  0
   61.6827   33.6753   48.8721 H   0  0  0  0  0  0  0  0  0  0  0  0
   61.0851   35.3693   48.8721 H   0  0  0  0  0  0  0  0  0  0  0  0
   60.1700   31.9440   47.5940 H   0  0  0  0  0  0  0  0  0  0  0  0
  1  2  1  0
  2  3  1  0
  3  4  2  0
  4  5  1  0
  5  6  2  0
  6  7  1  0
  7  8  2  0
  8  9  1  0
  9 10  1  0
 10 11  2  0
 10 12  1  0
 12 13  1  0
 13 14  1  0
 14 15  1  0
 15 16  1  0
 16 17  2  0
 17 18  1  0
 18 19  2  0
 19 20  1  0
 20 21  1  0
 21 22  2  0
 22 23  1  0
 23 24  1  0
 23 25  1  0
 19 26  1  0
 26 27  2  0
  8  3  1  0
 26 15  1  0
 25 20  2  0
  1 28  1  0
  1 29  1  0
  1 30  1  0
  4 31  1  0
  5 32  1  0
  6 33  1  0
  7 34  1  0
  9 35  1  0
  9 36  1  0
 13 37  1  0
 13 38  1  0
 14 39  1  0
 14 40  1  0
 16 41  1  0
 17 42  1  0
 18 43  1  0
 21 44  1  0
 22 45  1  0
 24 46  1  0
 24 47  1  0
 24 48  1  0
 25 49  1  0
M  CHG  2  12  -1  25   1
M  END
>  <UniqueID>  (10) 
10

>  <SMILES>  (10) 
COc1ccccc1CC(=O)[N-]CCn1cccc(-c2ccn(C)[nH+]2)c1=O

>  <Energy>  (10) 
82.19299601163777

>  <Genealogy>  (10) 
COc1ccccc1CC(=O)[N-]CCn1cccc(-c2ccn(C)[nH+]2)c1=O (protonated)
COc1ccccc1CC(=O)[N-]CCn1cccc(-c2ccn(C)[nH+]2)c1=O (3D coordinates assigned)
COc1ccccc1CC(=O)[N-]CCn1cccc(-c2ccn(C)[nH+]2)c1=O (optimized conformer: 82.19299601163777 kcal/mol)

>  <smiles>  (10) 
COc1ccccc1CC(=O)NCCn1cccc(-c2ccn(C)n2)c1=O

>  <score_type>  (10) 
oracle

>  <origin>  (10) 
adg

>  <m_score__min__energy>  (10) 
-9.3100000000000005

>  <m_primary>  (10) 
energy

$$$$
10:0
     RDKit          3D

 40 42  0  0  0  0  0  0  0  0999 V2000
   59.9371   30.6071   44.2438 H   0  0  0  0  0  0  0  0  0  0  0  0
   59.3870   29.6880   44.4940 C   0  0  0  0  0  0  0  0  0  0  0  0
   59.0368   29.0212   43.6923 H   0  0  0  0  0  0  0  0  0  0  0  0
   59.1430   29.3800   45.7780 C   0  0  0  0  0  0  0  0  0  0  0  0
   58.4610   28.2540   46.2470 C   0  0  0  0  0  0  0  0  0  0  0  0
   57.8610   27.2980   45.5130 C   0  0  0  0  0  0  0  0  0  0  0  0
   57.8325   27.4281   44.4211 H   0  0  0  0  0  0  0  0  0  0  0  0
   57.2400   26.0880   46.0810 C   0  0  0  0  0  0  0  0  0  0  0  0
   57.9490   25.0650   46.5910 N   0  0  0  0  0  0  0  0  0  0  0  0
   57.0000   24.2310   47.0670 C   0  0  0  0  0  0  0  0  0  0  0  0
   57.2760   23.1340   47.6180 O   0  0  0  0  0  0  0  0  0  0  0  0
   55.7320   24.6690   46.9150 N   0  0  0  0  0  0  0  0  0  0  0  0
   55.9010   25.8520   46.3010 C   0  0  0  0  0  0  0  0  0  0  0  0
   54.8550   26.7140   45.9950 O   0  0  0  0  0  0  0  0  0  0  0  0
   58.4720   28.3420   47.6350 C   0  0  0  0  0  0  0  0  0  0  0  0
   58.0259   27.6274   48.3424 H   0  0  0  0  0  0  0  0  0  0  0  0
   59.1520   29.5010   47.9520 C   0  0  0  0  0  0  0  0  0  0  0  0
   59.3780   29.9940   49.3500 C   0  0  0  0  0  0  0  0  0  0  0  0
   59.0303   29.2356   50.0669 H   0  0  0  0  0  0  0  0  0  0  0  0
   60.4512   30.1797   49.5043 H   0  0  0  0  0  0  0  0  0  0  0  0
   58.8183   30.9283   49.5043 H   0  0  0  0  0  0  0  0  0  0  0  0
   59.5730   30.1230   46.8280 N   0  0  0  0  0  0  0  0  0  0  0  0
   60.3070   31.3560   46.7740 C   0  0  0  0  0  0  0  0  0  0  0  0
   61.5670   31.3260   46.7650 O   0  0  0  0  0  0  0  0  0  0  0  0
   59.6140   32.6140   46.7430 N   0  0  0  0  0  0  0  0  0  0  0  0
   59.7730   33.6130   47.7850 C   0  0  0  0  0  0  0  0  0  0  0  0
   59.1450   33.3650   48.6534 H   0  0  0  0  0  0  0  0  0  0  0  0
   60.8118   33.6652   48.1430 H   0  0  0  0  0  0  0  0  0  0  0  0
   59.3250   34.9290   47.1640 C   0  0  0  0  0  0  0  0  0  0  0  0
   58.7126   35.4999   47.8775 H   0  0  0  0  0  0  0  0  0  0  0  0
   60.1838   35.5612   46.8940 H   0  0  0  0  0  0  0  0  0  0  0  0
   58.4990   34.5530   45.9380 C   0  0  0  0  0  0  0  0  0  0  0  0
   57.4254   34.5836   46.1755 H   0  0  0  0  0  0  0  0  0  0  0  0
   58.6674   35.2532   45.1065 H   0  0  0  0  0  0  0  0  0  0  0  0
   58.9230   33.1280   45.5690 C   0  0  2  0  0  0  0  0  0  0  0  0
   59.5670   33.1215   44.6772 H   0  0  0  0  0  0  0  0  0  0  0  0
   57.7150   32.2520   45.2160 C   0  0  0  0  0  0  0  0  0  0  0  0
   57.2329   31.9024   46.1408 H   0  0  0  0  0  0  0  0  0  0  0  0
   56.9955   32.8397   44.6270 H   0  0  0  0  0  0  0  0  0  0  0  0
   58.0500   31.3855   44.6270 H   0  0  0  0  0  0  0  0  0  0  0  0
  1  2  1  0
  2  3  1  0
  2  4  2  0
  4  5  1  0
  5  6  2  0
  6  7  1  0
  6  8  1  0
  8  9  1  0
  9 10  1  0
 10 11  2  0
 10 12  1  0
 12 13  1  0
 13 14  1  0
  5 15  1  0
 15 16  1  0
 15 17  2  0
 17 18  1  0
 18 19  1  0
 18 20  1  0
 18 21  1  0
 17 22  1  0
 22 23  1  0
 23 24  2  0
 23 25  1  0
 25 26  1  0
 26 27  1  0
 26 28  1  0
 26 29  1  0
 29 30  1  0
 29 31  1  0
 29 32  1  0
 32 33  1  0
 32 34  1  0
 32 35  1  0
 35 36  1  6
 35 37  1  0
 37 38  1  0
 37 39  1  0
 37 40  1  0
 22  4  1  0
 35 25  1  0
 13  8  2  0
M  CHG  3   9  -1  12  -1  14  -1
M  END
>  <UniqueID>  (11) 
11

>  <SMILES>  (11) 
C=c1/c(=C/c2[n-]c(=O)[n-]c2[O-])cc(C)n1C(=O)N1CCC[C@@H]1C

>  <Energy>  (11) 
108.90249416244019

>  <Genealogy>  (11) 
C=c1c(=Cc2[n-]c(=O)[n-]c2[O-])cc(C)n1C(=O)N1CCCC1C (protonated)
C=c1c(=Cc2[n-]c(=O)[n-]c2[O-])cc(C)n1C(=O)N1CCC[C@@H]1C (chirality)
C=c1/c(=C/c2[n-]c(=O)[n-]c2[O-])cc(C)n1C(=O)N1CCC[C@@H]1C (cis-trans isomerization)
C=c1/c(=C/c2[n-]c(=O)[n-]c2[O-])cc(C)n1C(=O)N1CCC[C@@H]1C (3D coordinates assigned)
C=c1/c(=C/c2[n-]c(=O)[n-]c2[O-])cc(C)n1C(=O)N1CCC[C@@H]1C (nonaromatic ring conformer: 108.90249416244019 kcal/mol)

>  <smiles>  (11) 
C=c1c(=Cc2[nH]c(=O)[nH]c2O)cc(C)n1C(=O)N1CCCC1C

>  <score_type>  (11) 
oracle

>  <origin>  (11) 
adg

>  <m_score__min__energy>  (11) 
-15.220000000000001

>  <m_primary>  (11) 
energy

$$$$
11:0
     RDKit          3D

 51 53  0  0  0  0  0  0  0  0999 V2000
   59.9370   30.7520   45.9750 N   0  0  0  0  0  0  0  0  0  0  0  0
   59.1970   29.8470   46.5380 C   0  0  0  0  0  0  0  0  0  0  0  0
   59.0690   29.8100   48.3210 S   0  0  0  0  0  0  0  0  0  0  0  0
   59.9580   28.2120   48.3920 C   0  0  0  0  0  0  0  0  0  0  0  0
   59.3630   27.1030   47.4700 C   0  0  0  0  0  0  0  0  0  0  0  0
   58.2190   27.5650   46.5470 C   0  0  0  0  0  0  0  0  0  0  0  0
   58.5930   28.7730   45.7940 N   0  0  0  0  0  0  0  0  0  0  0  0
   58.1380   28.9490   44.4090 C   0  0  0  0  0  0  0  0  0  0  0  0
   57.4780   30.2880   44.2630 C   0  0  0  0  0  0  0  0  0  0  0  0
   56.3880   30.5050   44.8580 O   0  0  0  0  0  0  0  0  0  0  0  0
   58.0870   31.3150   43.4630 N   0  0  0  0  0  0  0  0  0  0  0  0
   57.8120   32.7340   43.6820 C   0  0  0  0  0  0  0  0  0  0  0  0
   58.2490   33.1250   45.0740 C   0  0  0  0  0  0  0  0  0  0  0  0
   57.4080   32.9050   46.1760 C   0  0  0  0  0  0  0  0  0  0  0  0
   57.8550   33.1960   47.4710 C   0  0  0  0  0  0  0  0  0  0  0  0
   59.1570   33.7110   47.6590 C   0  0  0  0  0  0  0  0  0  0  0  0
   59.6450   34.0090   48.8330 N   0  0  0  0  0  0  0  0  0  0  0  0
   59.6030   33.2440   50.0470 C   0  0  0  0  0  0  0  0  0  0  0  0
   58.4950   32.7880   50.4420 O   0  0  0  0  0  0  0  0  0  0  0  0
   60.7430   33.0980   50.8420 O   0  0  0  0  0  0  0  0  0  0  0  0
   61.9590   33.7850   50.5630 C   0  0  0  0  0  0  0  0  0  0  0  0
   62.5120   33.3220   49.2410 C   0  0  0  0  0  0  0  0  0  0  0  0
   62.3730   31.9790   48.8380 C   0  0  0  0  0  0  0  0  0  0  0  0
   62.8840   31.5540   47.6050 C   0  0  0  0  0  0  0  0  0  0  0  0
   63.5400   32.4630   46.7690 C   0  0  0  0  0  0  0  0  0  0  0  0
   63.7070   33.7940   47.1750 C   0  0  0  0  0  0  0  0  0  0  0  0
   63.2050   34.2210   48.4110 C   0  0  0  0  0  0  0  0  0  0  0  0
   59.9400   33.9360   46.5670 N   0  0  0  0  0  0  0  0  0  0  0  0
   59.5320   33.6480   45.3000 C   0  0  0  0  0  0  0  0  0  0  0  0
   60.0140   31.7290   46.3370 H   0  0  0  0  0  0  0  0  0  0  0  0
   61.0021   28.3853   48.0922 H   0  0  0  0  0  0  0  0  0  0  0  0
   59.8642   27.8457   49.4250 H   0  0  0  0  0  0  0  0  0  0  0  0
   60.1747   26.7135   46.8380 H   0  0  0  0  0  0  0  0  0  0  0  0
   58.9291   26.3469   48.1409 H   0  0  0  0  0  0  0  0  0  0  0  0
   57.9840   26.7586   45.8367 H   0  0  0  0  0  0  0  0  0  0  0  0
   57.3444   27.8020   47.1707 H   0  0  0  0  0  0  0  0  0  0  0  0
   59.0012   28.8902   43.7297 H   0  0  0  0  0  0  0  0  0  0  0  0
   57.4173   28.1569   44.1576 H   0  0  0  0  0  0  0  0  0  0  0  0
   58.9140   31.0690   42.8740 H   0  0  0  0  0  0  0  0  0  0  0  0
   58.3648   33.3325   42.9429 H   0  0  0  0  0  0  0  0  0  0  0  0
   56.7332   32.9186   43.5720 H   0  0  0  0  0  0  0  0  0  0  0  0
   56.3956   32.5032   46.0222 H   0  0  0  0  0  0  0  0  0  0  0  0
   57.1969   33.0248   48.3356 H   0  0  0  0  0  0  0  0  0  0  0  0
   61.7660   34.8671   50.5198 H   0  0  0  0  0  0  0  0  0  0  0  0
   62.6887   33.5713   51.3579 H   0  0  0  0  0  0  0  0  0  0  0  0
   61.8606   31.2607   49.4949 H   0  0  0  0  0  0  0  0  0  0  0  0
   62.7693   30.5051   47.2943 H   0  0  0  0  0  0  0  0  0  0  0  0
   63.9250   32.1334   45.7927 H   0  0  0  0  0  0  0  0  0  0  0  0
   64.2336   34.5050   46.5214 H   0  0  0  0  0  0  0  0  0  0  0  0
   63.3533   35.2623   48.7332 H   0  0  0  0  0  0  0  0  0  0  0  0
   60.2094   33.8256   44.4517 H   0  0  0  0  0  0  0  0  0  0  0  0
  1  2  2  3
  2  3  1  0
  3  4  1  0
  4  5  1  0
  5  6  1  0
  6  7  1  0
  7  8  1  0
  8  9  1  0
  9 10  2  0
  9 11  1  0
 11 12  1  0
 12 13  1  0
 13 14  1  0
 14 15  2  0
 15 16  1  0
 16 17  2  3
 17 18  1  0
 18 19  2  0
 18 20  1  0
 20 21  1  0
 21 22  1  0
 22 23  2  0
 23 24  1  0
 24 25  2  0
 25 26  1  0
 26 27  2  0
 16 28  1  0
 28 29  1  0
  7  2  1  0
 29 13  2  0
 27 22  1  0
  1 30  1  0
  4 31  1  0
  4 32  1  0
  5 33  1  0
  5 34  1  0
  6 35  1  0
  6 36  1  0
  8 37  1  0
  8 38  1  0
 11 39  1  0
 12 40  1  0
 12 41  1  0
 14 42  1  0
 15 43  1  0
 21 44  1  0
 21 45  1  0
 23 46  1  0
 24 47  1  0
 25 48  1  0
 26 49  1  0
 27 50  1  0
 29 51  1  0
M  CHG  1  28  -1
M  END
>  <UniqueID>  (12) 
12

>  <SMILES>  (12) 
N=C1SCCCN1CC(=O)NCc1ccc(=NC(=O)OCc2ccccc2)[n-]c1

>  <Energy>  (12) 
54.93808790566407

>  <Genealogy>  (12) 
N=C1SCCCN1CC(=O)NCc1ccc(=NC(=O)OCc2ccccc2)[n-]c1 (protonated)
N=C1SCCCN1CC(=O)NCc1ccc(=NC(=O)OCc2ccccc2)[n-]c1 (3D coordinates assigned)
N=C1SCCCN1CC(=O)NCc1ccc(=NC(=O)OCc2ccccc2)[n-]c1 (nonaromatic ring conformer: 54.93808790566407 kcal/mol)

>  <smiles>  (12) 
N=C1SCCCN1CC(=O)NCc1ccc(=NC(=O)OCc2ccccc2)[nH]c1

>  <score_type>  (12) 
oracle

>  <origin>  (12) 
adg

>  <m_score__min__energy>  (12) 
-9.8300000000000001

>  <m_primary>  (12) 
energy

$$$$
12:0
     RDKit          3D

 49 52  0  0  0  0  0  0  0  0999 V2000
   54.0090   22.2260   47.1860 O   0  0  0  0  0  0  0  0  0  0  0  0
   53.8700   23.0980   46.2880 C   0  0  0  0  0  0  0  0  0  0  0  0
   54.9600   23.9890   46.0210 N   0  0  0  0  0  0  0  0  0  0  0  0
   56.2870   23.6080   45.6230 C   0  0  0  0  0  0  0  0  0  0  0  0
   56.5250   22.4020   44.9390 C   0  0  0  0  0  0  0  0  0  0  0  0
   57.8240   22.0420   44.5760 C   0  0  0  0  0  0  0  0  0  0  0  0
   58.8970   22.8750   44.8960 C   0  0  0  0  0  0  0  0  0  0  0  0
   58.6750   24.0640   45.5940 C   0  0  0  0  0  0  0  0  0  0  0  0
   57.3730   24.4250   45.9860 C   0  0  0  0  0  0  0  0  0  0  0  0
   57.1230   25.6470   46.7000 N   0  0  0  0  0  0  0  0  0  0  0  0
   56.4270   26.7950   46.1970 C   0  0  0  0  0  0  0  0  0  0  0  0
   55.1830   26.7150   46.0140 O   0  0  0  0  0  0  0  0  0  0  0  0
   57.1180   28.0830   45.9360 C   0  0  0  0  0  0  0  0  0  0  0  0
   56.4570   29.1200   45.2690 C   0  0  0  0  0  0  0  0  0  0  0  0
   55.1450   28.9700   44.8330 O   0  0  0  0  0  0  0  0  0  0  0  0
   57.1030   30.2850   45.0250 N   0  0  0  0  0  0  0  0  0  0  0  0
   58.3860   30.4840   45.4140 C   0  0  0  0  0  0  0  0  0  0  0  0
   58.9350   31.5880   45.1530 O   0  0  0  0  0  0  0  0  0  0  0  0
   59.0720   29.4970   46.0790 N   0  0  0  0  0  0  0  0  0  0  0  0
   60.4590   29.7340   46.5290 C   0  0  0  0  0  0  0  0  0  0  0  0
   60.5310   30.9680   47.3910 C   0  0  0  0  0  0  0  0  0  0  0  0
   59.5800   31.1860   48.4030 C   0  0  0  0  0  0  0  0  0  0  0  0
   59.6300   32.3470   49.1800 C   0  0  0  0  0  0  0  0  0  0  0  0
   60.6260   33.2990   48.9530 C   0  0  0  0  0  0  0  0  0  0  0  0
   61.5740   33.0930   47.9480 C   0  0  0  0  0  0  0  0  0  0  0  0
   61.5280   31.9340   47.1680 C   0  0  0  0  0  0  0  0  0  0  0  0
   58.4430   28.3060   46.3560 C   0  0  0  0  0  0  0  0  0  0  0  0
   59.0480   27.4080   47.0050 O   0  0  0  0  0  0  0  0  0  0  0  0
   52.5780   23.1940   45.5760 C   0  0  0  0  0  0  0  0  0  0  0  0
   52.1350   24.4060   45.0200 C   0  0  0  0  0  0  0  0  0  0  0  0
   50.9030   24.4500   44.3640 C   0  0  0  0  0  0  0  0  0  0  0  0
   50.1190   23.2990   44.2780 C   0  0  0  0  0  0  0  0  0  0  0  0
   50.5790   22.1160   44.8590 C   0  0  0  0  0  0  0  0  0  0  0  0
   51.7830   22.0910   45.4910 N   0  0  0  0  0  0  0  0  0  0  0  0
   55.6834   21.7394   44.6889 H   0  0  0  0  0  0  0  0  0  0  0  0
   58.0022   21.1000   44.0367 H   0  0  0  0  0  0  0  0  0  0  0  0
   59.9182   22.5949   44.5982 H   0  0  0  0  0  0  0  0  0  0  0  0
   59.5223   24.7215   45.8385 H   0  0  0  0  0  0  0  0  0  0  0  0
   60.8043   28.8661   47.1099 H   0  0  0  0  0  0  0  0  0  0  0  0
   61.0993   29.8789   45.6464 H   0  0  0  0  0  0  0  0  0  0  0  0
   58.7927   30.4395   48.5844 H   0  0  0  0  0  0  0  0  0  0  0  0
   58.8837   32.5109   49.9713 H   0  0  0  0  0  0  0  0  0  0  0  0
   60.6641   34.2116   49.5659 H   0  0  0  0  0  0  0  0  0  0  0  0
   62.3579   33.8439   47.7702 H   0  0  0  0  0  0  0  0  0  0  0  0
   62.2752   31.7770   46.3761 H   0  0  0  0  0  0  0  0  0  0  0  0
   52.7532   25.3122   45.1008 H   0  0  0  0  0  0  0  0  0  0  0  0
   50.5511   25.3908   43.9157 H   0  0  0  0  0  0  0  0  0  0  0  0
   49.1497   23.3235   43.7584 H   0  0  0  0  0  0  0  0  0  0  0  0
   49.9672   21.2034   44.8056 H   0  0  0  0  0  0  0  0  0  0  0  0
  1  2  2  0
  2  3  1  0
  3  4  1  0
  4  5  2  0
  5  6  1  0
  6  7  2  0
  7  8  1  0
  8  9  2  0
  9 10  1  0
 10 11  1  0
 11 12  2  0
 11 13  1  0
 13 14  2  0
 14 15  1  0
 14 16  1  0
 16 17  1  0
 17 18  2  0
 17 19  1  0
 19 20  1  0
 20 21  1  0
 21 22  2  0
 22 23  1  0
 23 24  2  0
 24 25  1  0
 25 26  2  0
 19 27  1  0
 27 28  2  0
  2 29  1  0
 29 30  2  0
 30 31  1  0
 31 32  2  0
 32 33  1  0
 33 34  2  0
  9  4  1  0
 27 13  1  0
 34 29  1  0
 26 21  1  0
  5 35  1  0
  6 36  1  0
  7 37  1  0
  8 38  1  0
 20 39  1  0
 20 40  1  0
 22 41  1  0
 23 42  1  0
 24 43  1  0
 25 44  1  0
 26 45  1  0
 30 46  1  0
 31 47  1  0
 32 48  1  0
 33 49  1  0
M  CHG  4   3  -1  10  -1  15  -1  16  -1
M  END
>  <UniqueID>  (13) 
13

>  <SMILES>  (13) 
O=C([N-]c1ccccc1[N-]C(=O)c1c([O-])[n-]c(=O)n(Cc2ccccc2)c1=O)c1ccccn1

>  <Energy>  (13) 
74.88641164080376

>  <Genealogy>  (13) 
O=C([N-]c1ccccc1[N-]C(=O)c1c([O-])[n-]c(=O)n(Cc2ccccc2)c1=O)c1ccccn1 (protonated)
O=C([N-]c1ccccc1[N-]C(=O)c1c([O-])[n-]c(=O)n(Cc2ccccc2)c1=O)c1ccccn1 (3D coordinates assigned)
O=C([N-]c1ccccc1[N-]C(=O)c1c([O-])[n-]c(=O)n(Cc2ccccc2)c1=O)c1ccccn1 (optimized conformer: 74.88641164080376 kcal/mol)

>  <smiles>  (13) 
O=C(Nc1ccccc1NC(=O)c1c(O)[nH]c(=O)n(Cc2ccccc2)c1=O)c1ccccn1

>  <score_type>  (13) 
oracle

>  <origin>  (13) 
adg

>  <m_score__min__energy>  (13) 
-16.23

>  <m_primary>  (13) 
energy

$$$$
13:0
     RDKit          3D

 75 79  0  0  0  0  0  0  0  0999 V2000
   58.6460   34.0850   45.6910 O   0  0  0  0  0  0  0  0  0  0  0  0
   58.6910   33.0380   46.3950 C   0  0  0  0  0  0  0  0  0  0  0  0
   58.4140   31.7630   45.7910 N   0  0  0  0  0  0  0  0  0  0  0  0
   57.9660   31.6510   44.4330 C   0  0  0  0  0  0  0  0  0  0  0  0
   58.4280   32.5950   43.5050 C   0  0  0  0  0  0  0  0  0  0  0  0
   57.9880   32.5640   42.1810 C   0  0  0  0  0  0  0  0  0  0  0  0
   57.0890   31.5840   41.7690 C   0  0  0  0  0  0  0  0  0  0  0  0
   56.6400   30.6200   42.6730 C   0  0  0  0  0  0  0  0  0  0  0  0
   57.0800   30.6240   44.0130 C   0  0  0  0  0  0  0  0  0  0  0  0
   56.6330   29.5300   44.9180 C   0  0  0  0  0  0  0  0  0  0  0  0
   55.4570   29.0820   44.8590 O   0  0  0  0  0  0  0  0  0  0  0  0
   57.5370   29.0040   45.8960 N   0  0  0  0  0  0  0  0  0  0  0  0
   57.4480   27.6500   46.4290 C   0  0  0  0  0  0  0  0  0  0  0  0
   58.6990   26.8490   46.0600 C   0  0  0  0  0  0  0  0  0  0  0  0
   58.3520   25.5530   45.3710 C   0  0  0  0  0  0  0  0  0  0  0  0
   58.8960   24.3400   45.8210 C   0  0  0  0  0  0  0  0  0  0  0  0
   58.5430   23.1360   45.1980 C   0  0  0  0  0  0  0  0  0  0  0  0
   57.6390   23.1370   44.1320 C   0  0  0  0  0  0  0  0  0  0  0  0
   57.0820   24.3390   43.6890 C   0  0  0  0  0  0  0  0  0  0  0  0
   57.4350   25.5450   44.3040 C   0  0  0  0  0  0  0  0  0  0  0  0
   59.0350   33.1390   47.8340 C   0  0  0  0  0  0  0  0  0  0  0  0
   59.9380   34.1230   48.2750 C   0  0  0  0  0  0  0  0  0  0  0  0
   60.2580   34.2310   49.6300 C   0  0  0  0  0  0  0  0  0  0  0  0
   59.6780   33.3680   50.5620 C   0  0  0  0  0  0  0  0  0  0  0  0
   58.7670   32.3900   50.1420 C   0  0  0  0  0  0  0  0  0  0  0  0
   57.9840   31.3270   51.3130 S   0  0  0  0  0  0  0  0  0  0  0  0
   56.4980   31.5640   51.2820 O   0  0  0  0  0  0  0  0  0  0  0  0
   58.4860   31.6570   52.6910 O   0  0  0  0  0  0  0  0  0  0  0  0
   58.3540   29.6630   50.8840 N   0  0  0  0  0  0  0  0  0  0  0  0
   58.8680   29.5300   49.5020 C   0  0  0  0  0  0  0  0  0  0  0  0
   60.4070   29.5470   49.4240 C   0  0  0  0  0  0  0  0  0  0  0  0
   60.9590   30.2920   50.5660 N   0  0  0  0  0  0  0  0  0  0  0  0
   62.4090   30.5260   50.3960 C   0  0  0  0  0  0  0  0  0  0  0  0
   62.6470   31.6120   49.3790 C   0  0  0  0  0  0  0  0  0  0  0  0
   63.2290   32.8280   49.7770 C   0  0  0  0  0  0  0  0  0  0  0  0
   63.4900   33.8260   48.8320 C   0  0  0  0  0  0  0  0  0  0  0  0
   63.1790   33.6140   47.4860 C   0  0  0  0  0  0  0  0  0  0  0  0
   62.6120   32.4010   47.0800 C   0  0  0  0  0  0  0  0  0  0  0  0
   62.3470   31.4010   48.0220 C   0  0  0  0  0  0  0  0  0  0  0  0
   60.6770   29.5740   51.8290 C   0  0  0  0  0  0  0  0  0  0  0  0
   59.2360   29.0140   51.8690 C   0  0  0  0  0  0  0  0  0  0  0  0
   58.4510   32.2800   48.7800 C   0  0  0  0  0  0  0  0  0  0  0  0
   58.7880   30.8970   46.2450 H   0  0  0  0  0  0  0  0  0  0  0  0
   59.1438   33.3671   43.8234 H   0  0  0  0  0  0  0  0  0  0  0  0
   58.3515   33.3138   41.4629 H   0  0  0  0  0  0  0  0  0  0  0  0
   56.7318   31.5694   40.7287 H   0  0  0  0  0  0  0  0  0  0  0  0
   55.9337   29.8470   42.3359 H   0  0  0  0  0  0  0  0  0  0  0  0
   57.3573   27.6967   47.5243 H   0  0  0  0  0  0  0  0  0  0  0  0
   56.5660   27.1537   45.9979 H   0  0  0  0  0  0  0  0  0  0  0  0
   59.3233   27.4543   45.3863 H   0  0  0  0  0  0  0  0  0  0  0  0
   59.2371   26.6087   46.9888 H   0  0  0  0  0  0  0  0  0  0  0  0
   59.6014   24.3347   46.6651 H   0  0  0  0  0  0  0  0  0  0  0  0
   58.9779   22.1883   45.5483 H   0  0  0  0  0  0  0  0  0  0  0  0
   57.3661   22.1909   43.6417 H   0  0  0  0  0  0  0  0  0  0  0  0
   56.3646   24.3373   42.8551 H   0  0  0  0  0  0  0  0  0  0  0  0
   56.9944   26.4896   43.9524 H   0  0  0  0  0  0  0  0  0  0  0  0
   60.3947   34.8113   47.5486 H   0  0  0  0  0  0  0  0  0  0  0  0
   60.9703   34.9995   49.9647 H   0  0  0  0  0  0  0  0  0  0  0  0
   59.9367   33.4562   51.6275 H   0  0  0  0  0  0  0  0  0  0  0  0
   58.5070   28.5785   49.0845 H   0  0  0  0  0  0  0  0  0  0  0  0
   58.5016   30.3962   48.9315 H   0  0  0  0  0  0  0  0  0  0  0  0
   60.7845   28.5141   49.4458 H   0  0  0  0  0  0  0  0  0  0  0  0
   60.7164   30.0369   48.4890 H   0  0  0  0  0  0  0  0  0  0  0  0
   62.8431   30.8299   51.3599 H   0  0  0  0  0  0  0  0  0  0  0  0
   62.8830   29.5972   50.0457 H   0  0  0  0  0  0  0  0  0  0  0  0
   63.4800   32.9954   50.8348 H   0  0  0  0  0  0  0  0  0  0  0  0
   63.9404   34.7783   49.1486 H   0  0  0  0  0  0  0  0  0  0  0  0
   63.3802   34.4017   46.7450 H   0  0  0  0  0  0  0  0  0  0  0  0
   62.3743   32.2334   46.0191 H   0  0  0  0  0  0  0  0  0  0  0  0
   61.9029   30.4475   47.7000 H   0  0  0  0  0  0  0  0  0  0  0  0
   61.3854   28.7383   51.9280 H   0  0  0  0  0  0  0  0  0  0  0  0
   60.7862   30.2892   52.6576 H   0  0  0  0  0  0  0  0  0  0  0  0
   59.2701   27.9354   51.6560 H   0  0  0  0  0  0  0  0  0  0  0  0
   58.8259   29.2144   52.8698 H   0  0  0  0  0  0  0  0  0  0  0  0
   57.7371   31.5117   48.4483 H   0  0  0  0  0  0  0  0  0  0  0  0
  1  2  2  0
  2  3  1  0
  3  4  1  0
  4  5  2  0
  5  6  1  0
  6  7  2  0
  7  8  1  0
  8  9  2  0
  9 10  1  0
 10 11  2  0
 10 12  1  0
 12 13  1  0
 13 14  1  0
 14 15  1  0
 15 16  2  0
 16 17  1  0
 17 18  2  0
 18 19  1  0
 19 20  2  0
  2 21  1  0
 21 22  2  0
 22 23  1  0
 23 24  2  0
 24 25  1  0
 25 26  1  0
 26 27  2  0
 26 28  2  0
 26 29  1  0
 29 30  1  0
 30 31  1  0
 31 32  1  0
 32 33  1  0
 33 34  1  0
 34 35  2  0
 35 36  1  0
 36 37  2  0
 37 38  1  0
 38 39  2  0
 32 40  1  0
 40 41  1  0
 25 42  2  0
  9  4  1  0
 20 15  1  0
 42 21  1  0
 41 29  1  0
 39 34  1  0
  3 43  1  0
  5 44  1  0
  6 45  1  0
  7 46  1  0
  8 47  1  0
 13 48  1  0
 13 49  1  0
 14 50  1  0
 14 51  1  0
 16 52  1  0
 17 53  1  0
 18 54  1  0
 19 55  1  0
 20 56  1  0
 22 57  1  0
 23 58  1  0
 24 59  1  0
 30 60  1  0
 30 61  1  0
 31 62  1  0
 31 63  1  0
 33 64  1  0
 33 65  1  0
 35 66  1  0
 36 67  1  0
 37 68  1  0
 38 69  1  0
 39 70  1  0
 40 71  1  0
 40 72  1  0
 41 73  1  0
 41 74  1  0
 42 75  1  0
M  CHG  1  12  -1
M  END
>  <UniqueID>  (14) 
14

>  <SMILES>  (14) 
O=C(Nc1ccccc1C(=O)[N-]CCc1ccccc1)c1cccc(S(=O)(=O)N2CCN(Cc3ccccc3)CC2)c1

>  <Energy>  (14) 
97.55999089072601

>  <Genealogy>  (14) 
O=C(Nc1ccccc1C(=O)[N-]CCc1ccccc1)c1cccc(S(=O)(=O)N2CCN(Cc3ccccc3)CC2)c1 (protonated)
O=C(Nc1ccccc1C(=O)[N-]CCc1ccccc1)c1cccc(S(=O)(=O)N2CCN(Cc3ccccc3)CC2)c1 (3D coordinates assigned)
O=C(Nc1ccccc1C(=O)[N-]CCc1ccccc1)c1cccc(S(=O)(=O)N2CCN(Cc3ccccc3)CC2)c1 (nonaromatic ring conformer: 97.55999089072601 kcal/mol)

>  <smiles>  (14) 
O=C(Nc1ccccc1C(=O)NCCc1ccccc1)c1cccc(S(=O)(=O)N2CCN(Cc3ccccc3)CC2)c1

>  <score_type>  (14) 
oracle

>  <origin>  (14) 
adg

>  <m_score__min__energy>  (14) 
-12.56

>  <m_primary>  (14) 
energy

$$$$
14:0
     RDKit          3D

 32 34  0  0  0  0  0  0  0  0999 V2000
   57.5389   33.3520   43.6423 H   0  0  0  0  0  0  0  0  0  0  0  0
   57.7530   32.3900   44.1310 C   0  0  0  0  0  0  0  0  0  0  0  0
   57.3870   31.1930   43.5090 C   0  0  0  0  0  0  0  0  0  0  0  0
   56.8773   31.2139   42.5345 H   0  0  0  0  0  0  0  0  0  0  0  0
   57.6680   29.9690   44.1240 C   0  0  0  0  0  0  0  0  0  0  0  0
   57.3631   29.0303   43.6382 H   0  0  0  0  0  0  0  0  0  0  0  0
   58.3360   29.9310   45.3560 C   0  0  0  0  0  0  0  0  0  0  0  0
   58.5770   28.6520   45.9680 N   0  0  0  0  0  0  0  0  0  0  0  0
   57.7730   27.6300   45.9720 C   0  0  0  0  0  0  0  0  0  0  0  0
   56.4230   27.7210   45.9380 N   0  0  0  0  0  0  0  0  0  0  0  0
   55.8460   26.4930   46.0010 C   0  0  0  0  0  0  0  0  0  0  0  0
   54.4670   26.3340   45.9830 O   0  0  0  0  0  0  0  0  0  0  0  0
   56.7340   25.4220   46.0880 C   0  0  0  0  0  0  0  0  0  0  0  0
   56.3730   23.9760   46.2240 C   0  0  0  0  0  0  0  0  0  0  0  0
   55.4075   23.8913   46.7443 H   0  0  0  0  0  0  0  0  0  0  0  0
   57.1596   23.4654   46.7990 H   0  0  0  0  0  0  0  0  0  0  0  0
   56.2640   23.3320   44.8720 C   0  0  0  0  0  0  0  0  0  0  0  0
   56.6950   23.8170   43.6490 C   0  0  0  0  0  0  0  0  0  0  0  0
   57.3920   25.1150   43.3900 C   0  0  0  0  0  0  0  0  0  0  0  0
   57.6478   25.5914   44.3479 H   0  0  0  0  0  0  0  0  0  0  0  0
   58.3117   24.9292   42.8158 H   0  0  0  0  0  0  0  0  0  0  0  0
   56.7291   25.7790   42.8158 H   0  0  0  0  0  0  0  0  0  0  0  0
   56.4850   22.8730   42.7090 N   0  0  0  0  0  0  0  0  0  0  0  0
   56.7290   22.9460   41.6960 H   0  0  0  0  0  0  0  0  0  0  0  0
   55.9330   21.8050   43.2630 N   0  0  0  0  0  0  0  0  0  0  0  0
   55.7960   22.0680   44.5750 C   0  0  0  0  0  0  0  0  0  0  0  0
   55.3130   21.2500   45.4020 O   0  0  0  0  0  0  0  0  0  0  0  0
   58.3000   26.0410   46.1040 S   0  0  0  0  0  0  0  0  0  0  0  0
   58.6750   31.1430   45.9910 C   0  0  0  0  0  0  0  0  0  0  0  0
   59.1649   31.1274   46.9758 H   0  0  0  0  0  0  0  0  0  0  0  0
   58.3910   32.3640   45.3740 C   0  0  0  0  0  0  0  0  0  0  0  0
   58.6701   33.3066   45.8676 H   0  0  0  0  0  0  0  0  0  0  0  0
  1  2  1  0
  2  3  2  0
  3  4  1  0
  3  5  1  0
  5  6  1  0
  5  7  2  0
  7  8  1  0
  8  9  2  0
  9 10  1  0
 10 11  1  0
 11 12  1  0
 11 13  2  0
 13 14  1  0
 14 15  1  0
 14 16  1  0
 14 17  1  0
 17 18  2  0
 18 19  1  0
 19 20  1  0
 19 21  1  0
 19 22  1  0
 18 23  1  0
 23 24  1  0
 23 25  1  0
 25 26  1  0
 26 27  2  0
 13 28  1  0
  7 29  1  0
 29 30  1  0
 29 31  2  0
 31 32  1  0
 31  2  1  0
 28  9  1  0
 26 17  1  0
M  CHG  3  10  -1  12  -1  25  -1
M  END
>  <UniqueID>  (15) 
15

>  <SMILES>  (15) 
Cc1[nH][n-]c(=O)c1Cc1s/c(=N/c2ccccc2)[n-]c1[O-]

>  <Energy>  (15) 
98.83939244608341

>  <Genealogy>  (15) 
Cc1[nH][n-]c(=O)c1Cc1sc(=Nc2ccccc2)[n-]c1[O-] (protonated)
Cc1[nH][n-]c(=O)c1Cc1s/c(=N/c2ccccc2)[n-]c1[O-] (cis-trans isomerization)
Cc1[nH][n-]c(=O)c1Cc1s/c(=N/c2ccccc2)[n-]c1[O-] (3D coordinates assigned)
Cc1[nH][n-]c(=O)c1Cc1s/c(=N/c2ccccc2)[n-]c1[O-] (optimized conformer: 98.83939244608341 kcal/mol)

>  <smiles>  (15) 
Cc1[nH][nH]c(=O)c1Cc1sc(=Nc2ccccc2)[nH]c1O

>  <score_type>  (15) 
oracle

>  <origin>  (15) 
adg

>  <m_score__min__energy>  (15) 
-14.779999999999999

>  <m_primary>  (15) 
energy

$$$$
15:0
     RDKit          3D

 58 61  0  0  1  0  0  0  0  0999 V2000
   59.8150   30.0800   50.6870 C   0  0  0  0  0  0  0  0  0  0  0  0
   59.9350   29.7250   49.2630 C   0  0  0  0  0  0  0  0  0  0  0  0
   60.0220   30.7230   48.3170 C   0  0  0  0  0  0  0  0  0  0  0  0
   60.0640   28.1180   47.6330 C   0  0  0  0  0  0  0  0  0  0  0  0
   60.0910   26.8940   47.2260 N   0  0  0  0  0  0  0  0  0  0  0  0
   59.2480   32.2540   45.9070 C   0  0  0  0  0  0  0  0  0  0  0  0
   59.5320   33.5720   46.1810 C   0  0  0  0  0  0  0  0  0  0  0  0
   58.6020   34.5810   46.0570 C   0  0  0  0  0  0  0  0  0  0  0  0
   57.3190   34.2870   45.6460 C   0  0  0  0  0  0  0  0  0  0  0  0
   57.0210   32.9790   45.3700 C   0  0  0  0  0  0  0  0  0  0  0  0
   57.9600   31.9610   45.4940 C   0  0  0  0  0  0  0  0  0  0  0  0
   57.5820   30.2960   45.1450 S   0  0  0  0  0  0  0  0  0  0  0  0
   58.8140   29.6570   44.1190 N   0  0  0  0  0  0  0  0  0  0  0  0
   57.4750   29.4630   46.3800 O   0  0  0  0  0  0  0  0  0  0  0  0
   56.2740   30.2670   44.4050 O   0  0  0  0  0  0  0  0  0  0  0  0
   60.1530   29.0650   46.6670 N   0  0  0  0  0  0  0  0  0  0  0  0
   60.1330   30.3700   47.0040 C   0  0  0  0  0  0  0  0  0  0  0  0
   60.2200   31.2230   46.0400 N   0  0  0  0  0  0  0  0  0  0  0  0
   59.1370   26.3770   46.3240 C   0  0  0  0  0  0  0  0  0  0  0  0
   58.8020   26.9740   45.1250 C   0  0  0  0  0  0  0  0  0  0  0  0
   57.8460   26.3720   44.3160 C   0  0  0  0  0  0  0  0  0  0  0  0
   57.2220   25.1880   44.6840 C   0  0  0  0  0  0  0  0  0  0  0  0
   57.5600   24.5810   45.8950 C   0  0  0  0  0  0  0  0  0  0  0  0
   56.8230   23.1220   46.3990 S   0  0  0  0  0  0  0  0  0  0  0  0
   55.3350   23.2400   46.1730 O   0  0  0  0  0  0  0  0  0  0  0  0
   57.0120   22.9830   47.8970 O   0  0  0  0  0  0  0  0  0  0  0  0
   57.3540   21.7030   45.6570 N   0  0  0  0  0  0  0  0  0  0  0  0
   56.3970   20.6600   45.5280 C   0  0  0  0  0  0  0  0  0  0  0  0
   56.2850   20.2940   44.0530 C   0  0  0  0  0  0  0  0  0  0  0  0
   55.9060   21.4210   43.3600 O   0  0  0  0  0  0  0  0  0  0  0  0
   56.9680   22.3200   43.3130 C   0  0  0  0  0  0  0  0  0  0  0  0
   57.9880   22.0460   44.3960 C   0  0  0  0  0  0  0  0  0  0  0  0
   58.5110   25.1830   46.6980 C   0  0  0  0  0  0  0  0  0  0  0  0
   59.9550   28.4080   48.9350 N   0  0  0  0  0  0  0  0  0  0  0  0
   60.1063   29.2183   51.3055 H   0  0  0  0  0  0  0  0  0  0  0  0
   60.4754   30.9311   50.9096 H   0  0  0  0  0  0  0  0  0  0  0  0
   58.7737   30.3558   50.9096 H   0  0  0  0  0  0  0  0  0  0  0  0
   60.0024   31.7819   48.6142 H   0  0  0  0  0  0  0  0  0  0  0  0
   60.5476   33.8320   46.5142 H   0  0  0  0  0  0  0  0  0  0  0  0
   58.8826   35.6198   46.2856 H   0  0  0  0  0  0  0  0  0  0  0  0
   56.5601   35.0767   45.5432 H   0  0  0  0  0  0  0  0  0  0  0  0
   56.0033   32.7250   45.0387 H   0  0  0  0  0  0  0  0  0  0  0  0
   59.7360   30.0970   44.2690 H   0  0  0  0  0  0  0  0  0  0  0  0
   58.5070   29.6660   43.1230 H   0  0  0  0  0  0  0  0  0  0  0  0
   60.2370   28.7900   45.6590 H   0  0  0  0  0  0  0  0  0  0  0  0
   59.2848   27.9124   44.8147 H   0  0  0  0  0  0  0  0  0  0  0  0
   57.5770   26.8455   43.3602 H   0  0  0  0  0  0  0  0  0  0  0  0
   56.4672   24.7316   44.0267 H   0  0  0  0  0  0  0  0  0  0  0  0
   56.7231   19.7823   46.1054 H   0  0  0  0  0  0  0  0  0  0  0  0
   55.4208   20.9914   45.9117 H   0  0  0  0  0  0  0  0  0  0  0  0
   57.2576   19.9380   43.6824 H   0  0  0  0  0  0  0  0  0  0  0  0
   55.5428   19.4940   43.9143 H   0  0  0  0  0  0  0  0  0  0  0  0
   57.4598   22.2383   42.3325 H   0  0  0  0  0  0  0  0  0  0  0  0
   56.5656   23.3313   43.4720 H   0  0  0  0  0  0  0  0  0  0  0  0
   58.6279   21.2091   44.0795 H   0  0  0  0  0  0  0  0  0  0  0  0
   58.5808   22.9601   44.5478 H   0  0  0  0  0  0  0  0  0  0  0  0
   58.7820   24.7117   47.6542 H   0  0  0  0  0  0  0  0  0  0  0  0
   59.8900   27.6440   49.6290 H   0  0  0  0  0  0  0  0  0  0  0  0
  1  2  1  0
  2  3  2  0
  3  4  1  0
  4  5  2  0
  5  6  1  0
  6  7  2  0
  7  8  1  0
  8  9  2  0
  9 10  1  0
 10 11  2  0
 11 12  1  0
 12 13  1  0
 12 14  2  0
 12 15  2  0
  4 16  1  0
 16 17  1  0
 17 18  2  0
 18 19  1  0
 19 20  2  0
 20 21  1  0
 21 22  2  0
 22 23  1  0
 23 24  1  0
 24 25  2  0
 24 26  2  0
 24 27  1  0
 27 28  1  0
 28 29  1  0
 29 30  1  0
 30 31  1  0
 31 32  1  0
 23 33  2  0
 17 34  1  0
 34  2  1  0
 11  6  1  0
 33 19  1  0
 32 27  1  0
  1 35  1  0
  1 36  1  0
  1 37  1  0
  3 38  1  0
  7 39  1  0
  8 40  1  0
  9 41  1  0
 10 42  1  0
 13 43  1  0
 13 44  1  0
 16 45  1  0
 20 46  1  0
 21 47  1  0
 22 48  1  0
 28 49  1  0
 28 50  1  0
 29 51  1  0
 29 52  1  0
 31 53  1  0
 31 54  1  0
 32 55  1  0
 32 56  1  0
 33 57  1  0
 34 58  1  0
M  END
>  <smiles>  (16) 
Cc1cc(=Nc2ccccc2S(N)(=O)=O)[nH]c(=Nc2cccc(S(=O)(=O)N3CCOCC3)c2)[nH]1

>  <score_type>  (16) 
oracle

>  <origin>  (16) 
adg

>  <m_score__min__energy>  (16) 
-11.23

>  <m_primary>  (16) 
energy

$$$$
16:0
     RDKit          3D

 27 28  0  0  0  0  0  0  0  0999 V2000
   57.6490   22.2200   48.8510 H   0  0  0  0  0  0  0  0  0  0  0  0
   57.0150   22.2660   48.0220 N   0  0  0  0  0  0  0  0  0  0  0  0
   56.8570   23.3670   47.3640 C   0  0  0  0  0  0  0  0  0  0  0  0
   55.7120   24.0830   47.3770 N   0  0  0  0  0  0  0  0  0  0  0  0
   55.7850   25.1810   46.6280 N   0  0  0  0  0  0  0  0  0  0  0  0
   56.9810   25.3320   46.0140 C   0  0  0  0  0  0  0  0  0  0  0  0
   57.3320   26.5160   45.1680 C   0  0  0  0  0  0  0  0  0  0  0  0
   58.4012   26.4715   44.9132 H   0  0  0  0  0  0  0  0  0  0  0  0
   56.7167   26.4897   44.2566 H   0  0  0  0  0  0  0  0  0  0  0  0
   57.0490   27.8220   45.9080 C   0  0  0  0  0  0  0  0  0  0  0  0
   56.7364   27.5957   46.9381 H   0  0  0  0  0  0  0  0  0  0  0  0
   57.9631   28.4338   45.9190 H   0  0  0  0  0  0  0  0  0  0  0  0
   55.9880   28.5630   45.2340 N   0  0  0  0  0  0  0  0  0  0  0  0
   56.1570   29.8420   44.6120 C   0  0  0  0  0  0  0  0  0  0  0  0
   55.1380   30.5460   44.3850 O   0  0  0  0  0  0  0  0  0  0  0  0
   57.5050   30.3480   44.1800 C   0  0  0  0  0  0  0  0  0  0  0  0
   58.2763   29.6254   44.4850 H   0  0  0  0  0  0  0  0  0  0  0  0
   57.5033   30.4671   43.0865 H   0  0  0  0  0  0  0  0  0  0  0  0
   57.8010   31.6790   44.8090 C   0  0  0  0  0  0  0  0  0  0  0  0
   58.1460   31.8260   46.1490 C   0  0  0  0  0  0  0  0  0  0  0  0
   58.2382   31.0146   46.8860 H   0  0  0  0  0  0  0  0  0  0  0  0
   58.3970   33.4610   46.4430 S   0  0  0  0  0  0  0  0  0  0  0  0
   58.0780   33.9960   44.8820 C   0  0  0  0  0  0  0  0  0  0  0  0
   58.1088   35.0405   44.5385 H   0  0  0  0  0  0  0  0  0  0  0  0
   57.7690   32.8910   44.1020 C   0  0  0  0  0  0  0  0  0  0  0  0
   57.5226   32.9584   43.0321 H   0  0  0  0  0  0  0  0  0  0  0  0
   58.0420   24.0770   46.4060 S   0  0  0  0  0  0  0  0  0  0  0  0
  1  2  1  0
  2  3  2  0
  3  4  1  0
  4  5  1  0
  5  6  2  0
  6  7  1  0
  7  8  1  0
  7  9  1  0
  7 10  1  0
 10 11  1  0
 10 12  1  0
 10 13  1  0
 13 14  1  0
 14 15  2  0
 14 16  1  0
 16 17  1  0
 16 18  1  0
 16 19  1  0
 19 20  2  0
 20 21  1  0
 20 22  1  0
 22 23  1  0
 23 24  1  0
 23 25  2  0
 25 26  1  0
  6 27  1  0
 27  3  1  0
 25 19  1  0
M  CHG  2   4  -1  13  -1
M  END
>  <UniqueID>  (17) 
16

>  <SMILES>  (17) 
[H]/N=c1\[n-]nc(CC[N-]C(=O)Cc2ccsc2)s1

>  <Energy>  (17) 
79.05518007360908

>  <Genealogy>  (17) 
N=c1[n-]nc(CC[N-]C(=O)Cc2ccsc2)s1 (protonated)
[H]/N=c1\[n-]nc(CC[N-]C(=O)Cc2ccsc2)s1 (cis-trans isomerization)
[H]/N=c1\[n-]nc(CC[N-]C(=O)Cc2ccsc2)s1 (3D coordinates assigned)
[H]/N=c1\[n-]nc(CC[N-]C(=O)Cc2ccsc2)s1 (optimized conformer: 79.05518007360908 kcal/mol)

>  <smiles>  (17) 
N=c1[nH]nc(CCNC(=O)Cc2ccsc2)s1

>  <score_type>  (17) 
oracle

>  <origin>  (17) 
adg

>  <m_score__min__energy>  (17) 
-10.4

>  <m_primary>  (17) 
energy

$$$$
17:0
     RDKit          3D

 51 54  0  0  0  0  0  0  0  0999 V2000
   55.5330   29.2840   44.8740 O   0  0  0  0  0  0  0  0  0  0  0  0
   56.6550   29.8310   45.0450 C   0  0  0  0  0  0  0  0  0  0  0  0
   56.9280   31.0640   44.3630 N   0  0  0  0  0  0  0  0  0  0  0  0
   57.3440   32.1710   44.9040 C   0  0  0  0  0  0  0  0  0  0  0  0
   56.5380   33.1950   45.2690 N   0  0  0  0  0  0  0  0  0  0  0  0
   57.2480   34.2130   45.8240 C   0  0  0  0  0  0  0  0  0  0  0  0
   58.6210   33.9980   45.8870 C   0  0  0  0  0  0  0  0  0  0  0  0
   59.6240   34.9170   46.5090 C   0  0  0  0  0  0  0  0  0  0  0  0
   60.6870   34.1210   47.2130 C   0  0  0  0  0  0  0  0  0  0  0  0
   60.4450   33.5930   48.4930 C   0  0  0  0  0  0  0  0  0  0  0  0
   61.4200   32.8240   49.1340 C   0  0  0  0  0  0  0  0  0  0  0  0
   62.6390   32.5660   48.4990 C   0  0  0  0  0  0  0  0  0  0  0  0
   62.8870   33.0740   47.2190 C   0  0  0  0  0  0  0  0  0  0  0  0
   64.1020   32.8010   46.5940 O   0  0  0  0  0  0  0  0  0  0  0  0
   61.9100   33.8480   46.5760 C   0  0  0  0  0  0  0  0  0  0  0  0
   58.9590   32.4750   45.2540 S   0  0  0  0  0  0  0  0  0  0  0  0
   57.6500   29.2060   45.8700 N   0  0  0  0  0  0  0  0  0  0  0  0
   57.9820   27.8100   45.9150 C   0  0  0  0  0  0  0  0  0  0  0  0
   59.3320   27.4470   45.9820 C   0  0  0  0  0  0  0  0  0  0  0  0
   59.7020   26.1040   46.0560 C   0  0  0  0  0  0  0  0  0  0  0  0
   58.7240   25.1070   46.0730 C   0  0  0  0  0  0  0  0  0  0  0  0
   57.3610   25.4470   46.0130 C   0  0  0  0  0  0  0  0  0  0  0  0
   56.3200   24.3940   46.0530 C   0  0  0  0  0  0  0  0  0  0  0  0
   55.5060   24.3610   47.0170 O   0  0  0  0  0  0  0  0  0  0  0  0
   56.2340   23.3930   45.0240 N   0  0  0  0  0  0  0  0  0  0  0  0
   55.8220   22.0320   45.3760 C   0  0  0  0  0  0  0  0  0  0  0  0
   56.3790   21.0460   44.3440 C   0  0  0  0  0  0  0  0  0  0  0  0
   56.0330   21.4410   43.0280 O   0  0  0  0  0  0  0  0  0  0  0  0
   56.6470   22.6790   42.7210 C   0  0  0  0  0  0  0  0  0  0  0  0
   56.1020   23.7930   43.6200 C   0  0  0  0  0  0  0  0  0  0  0  0
   56.9970   26.8050   45.9570 C   0  0  0  0  0  0  0  0  0  0  0  0
   56.7741   35.1341   46.1941 H   0  0  0  0  0  0  0  0  0  0  0  0
   60.0895   35.5320   45.7247 H   0  0  0  0  0  0  0  0  0  0  0  0
   59.1156   35.5637   47.2392 H   0  0  0  0  0  0  0  0  0  0  0  0
   59.4840   33.7859   48.9923 H   0  0  0  0  0  0  0  0  0  0  0  0
   61.2284   32.4211   50.1394 H   0  0  0  0  0  0  0  0  0  0  0  0
   63.4051   31.9620   49.0072 H   0  0  0  0  0  0  0  0  0  0  0  0
   64.8630   32.3520   47.0910 H   0  0  0  0  0  0  0  0  0  0  0  0
   62.1018   34.2436   45.5677 H   0  0  0  0  0  0  0  0  0  0  0  0
   60.1076   28.2270   45.9763 H   0  0  0  0  0  0  0  0  0  0  0  0
   60.7663   25.8296   46.1011 H   0  0  0  0  0  0  0  0  0  0  0  0
   59.0218   24.0498   46.1337 H   0  0  0  0  0  0  0  0  0  0  0  0
   56.2108   21.7776   46.3731 H   0  0  0  0  0  0  0  0  0  0  0  0
   54.7237   21.9723   45.3842 H   0  0  0  0  0  0  0  0  0  0  0  0
   57.4748   21.0122   44.4333 H   0  0  0  0  0  0  0  0  0  0  0  0
   55.9465   20.0533   44.5378 H   0  0  0  0  0  0  0  0  0  0  0  0
   57.7328   22.5909   42.8736 H   0  0  0  0  0  0  0  0  0  0  0  0
   56.4274   22.9317   41.6732 H   0  0  0  0  0  0  0  0  0  0  0  0
   56.6728   24.7172   43.4463 H   0  0  0  0  0  0  0  0  0  0  0  0
   55.0417   23.9689   43.3859 H   0  0  0  0  0  0  0  0  0  0  0  0
   55.9330   27.0840   45.9459 H   0  0  0  0  0  0  0  0  0  0  0  0
  1  2  2  0
  2  3  1  0
  3  4  2  3
  4  5  1  0
  5  6  1  0
  6  7  2  0
  7  8  1  0
  8  9  1  0
  9 10  2  0
 10 11  1  0
 11 12  2  0
 12 13  1  0
 13 14  1  0
 13 15  2  0
  7 16  1  0
  2 17  1  0
 17 18  1  0
 18 19  2  0
 19 20  1  0
 20 21  2  0
 21 22  1  0
 22 23  1  0
 23 24  2  0
 23 25  1  0
 25 26  1  0
 26 27  1  0
 27 28  1  0
 28 29  1  0
 29 30  1  0
 22 31  2  0
 16  4  1  0
 31 18  1  0
 15  9  1  0
 30 25  1  0
  6 32  1  0
  8 33  1  0
  8 34  1  0
 10 35  1  0
 11 36  1  0
 12 37  1  0
 14 38  1  0
 15 39  1  0
 19 40  1  0
 20 41  1  0
 21 42  1  0
 26 43  1  0
 26 44  1  0
 27 45  1  0
 27 46  1  0
 29 47  1  0
 29 48  1  0
 30 49  1  0
 30 50  1  0
 31 51  1  0
M  CHG  2   5  -1  17  -1
M  END
>  <UniqueID>  (18) 
17

>  <SMILES>  (18) 
O=C(N=c1[n-]cc(Cc2cccc(O)c2)s1)[N-]c1cccc(C(=O)N2CCOCC2)c1

>  <Energy>  (18) 
93.33415753283866

>  <Genealogy>  (18) 
O=C(N=c1[n-]cc(Cc2cccc(O)c2)s1)[N-]c1cccc(C(=O)N2CCOCC2)c1 (protonated)
O=C(N=c1[n-]cc(Cc2cccc(O)c2)s1)[N-]c1cccc(C(=O)N2CCOCC2)c1 (3D coordinates assigned)
O=C(N=c1[n-]cc(Cc2cccc(O)c2)s1)[N-]c1cccc(C(=O)N2CCOCC2)c1 (nonaromatic ring conformer: 93.33415753283866 kcal/mol)

>  <smiles>  (18) 
O=C(N=c1[nH]cc(Cc2cccc(O)c2)s1)Nc1cccc(C(=O)N2CCOCC2)c1

>  <score_type>  (18) 
oracle

>  <origin>  (18) 
adg

>  <m_score__min__energy>  (18) 
-12.94

>  <m_primary>  (18) 
energy

$$$$
18:0
     RDKit          3D

 41 42  0  0  0  0  0  0  0  0999 V2000
   59.4900   27.1950   47.9030 C   0  0  0  0  0  0  0  0  0  0  0  0
   59.1350   28.1250   46.9970 C   0  0  0  0  0  0  0  0  0  0  0  0
   59.5060   29.4580   47.2640 C   0  0  0  0  0  0  0  0  0  0  0  0
   58.9820   30.5270   46.5200 C   0  0  0  0  0  0  0  0  0  0  0  0
   59.3740   31.8560   46.7590 O   0  0  0  0  0  0  0  0  0  0  0  0
   59.7920   32.3670   48.0210 C   0  0  0  0  0  0  0  0  0  0  0  0
   58.0460   30.2650   45.5070 C   0  0  0  0  0  0  0  0  0  0  0  0
   57.4160   31.3610   44.7380 C   0  0  0  0  0  0  0  0  0  0  0  0
   56.1680   31.3500   44.5600 O   0  0  0  0  0  0  0  0  0  0  0  0
   58.2220   32.5170   44.2060 C   0  0  0  0  0  0  0  0  0  0  0  0
   57.8370   33.8470   44.8870 C   0  0  0  0  0  0  0  0  0  0  0  0
   59.0980   34.6480   45.2340 C   0  0  0  0  0  0  0  0  0  0  0  0
   57.0000   33.6080   46.1530 C   0  0  0  0  0  0  0  0  0  0  0  0
   57.7310   28.9400   45.1800 C   0  0  0  0  0  0  0  0  0  0  0  0
   58.3160   27.8480   45.8540 C   0  0  0  0  0  0  0  0  0  0  0  0
   58.0720   26.6150   45.3410 C   0  0  0  0  0  0  0  0  0  0  0  0
   57.3140   25.5290   45.9890 C   0  0  0  0  0  0  0  0  0  0  0  0
   57.8780   24.3780   46.3940 N   0  0  0  0  0  0  0  0  0  0  0  0
   56.8570   23.7160   46.9780 C   0  0  0  0  0  0  0  0  0  0  0  0
   56.9900   22.5690   47.4770 O   0  0  0  0  0  0  0  0  0  0  0  0
   55.6840   24.3830   46.9910 N   0  0  0  0  0  0  0  0  0  0  0  0
   55.9880   25.5360   46.3760 C   0  0  0  0  0  0  0  0  0  0  0  0
   55.0750   26.5760   46.2120 O   0  0  0  0  0  0  0  0  0  0  0  0
   59.2242   26.1399   47.7412 H   0  0  0  0  0  0  0  0  0  0  0  0
   60.0459   27.4901   48.8052 H   0  0  0  0  0  0  0  0  0  0  0  0
   60.2218   29.6655   48.0731 H   0  0  0  0  0  0  0  0  0  0  0  0
   59.3178   31.7873   48.8266 H   0  0  0  0  0  0  0  0  0  0  0  0
   60.8857   32.2855   48.1055 H   0  0  0  0  0  0  0  0  0  0  0  0
   59.4953   33.4229   48.1055 H   0  0  0  0  0  0  0  0  0  0  0  0
   59.2890   32.3202   44.3873 H   0  0  0  0  0  0  0  0  0  0  0  0
   58.0141   32.6117   43.1300 H   0  0  0  0  0  0  0  0  0  0  0  0
   57.2239   34.4232   44.1785 H   0  0  0  0  0  0  0  0  0  0  0  0
   59.2014   34.7137   46.3272 H   0  0  0  0  0  0  0  0  0  0  0  0
   59.9801   34.1443   44.8119 H   0  0  0  0  0  0  0  0  0  0  0  0
   59.0169   35.6605   44.8119 H   0  0  0  0  0  0  0  0  0  0  0  0
   57.6220   33.7856   47.0427 H   0  0  0  0  0  0  0  0  0  0  0  0
   56.1428   34.2973   46.1614 H   0  0  0  0  0  0  0  0  0  0  0  0
   56.6360   32.5700   46.1614 H   0  0  0  0  0  0  0  0  0  0  0  0
   57.0070   28.7457   44.3749 H   0  0  0  0  0  0  0  0  0  0  0  0
   58.4808   26.4051   44.3416 H   0  0  0  0  0  0  0  0  0  0  0  0
   55.1410   27.4310   46.7470 H   0  0  0  0  0  0  0  0  0  0  0  0
  1  2  2  0
  2  3  1  0
  3  4  2  0
  4  5  1  0
  5  6  1  0
  4  7  1  0
  7  8  1  0
  8  9  2  0
  8 10  1  0
 10 11  1  0
 11 12  1  0
 11 13  1  0
  7 14  2  0
 14 15  1  0
 15 16  2  3
 16 17  1  0
 17 18  1  0
 18 19  1  0
 19 20  2  0
 19 21  1  0
 21 22  1  0
 22 23  1  0
 15  2  1  0
 22 17  2  0
  1 24  1  0
  1 25  1  0
  3 26  1  0
  6 27  1  0
  6 28  1  0
  6 29  1  0
 10 30  1  0
 10 31  1  0
 11 32  1  0
 12 33  1  0
 12 34  1  0
 12 35  1  0
 13 36  1  0
 13 37  1  0
 13 38  1  0
 14 39  1  0
 16 40  1  0
 23 41  1  0
M  CHG  2  18  -1  21  -1
M  END
>  <UniqueID>  (19) 
18

>  <SMILES>  (19) 
C=c1cc(OC)c(C(=O)CC(C)C)cc1=Cc1[n-]c(=O)[n-]c1O

>  <Energy>  (19) 
89.66079297702689

>  <Genealogy>  (19) 
C=c1cc(OC)c(C(=O)CC(C)C)cc1=Cc1[n-]c(=O)[n-]c1O (protonated)
C=c1cc(OC)c(C(=O)CC(C)C)cc1=Cc1[n-]c(=O)[n-]c1O (3D coordinates assigned)
C=c1cc(OC)c(C(=O)CC(C)C)cc1=Cc1[n-]c(=O)[n-]c1O (optimized conformer: 89.66079297702689 kcal/mol)

>  <smiles>  (19) 
C=c1cc(OC)c(C(=O)CC(C)C)cc1=Cc1[nH]c(=O)[nH]c1O

>  <score_type>  (19) 
oracle

>  <origin>  (19) 
adg

>  <m_score__min__energy>  (19) 
-12.65

>  <m_primary>  (19) 
energy

$$$$
19:0
     RDKit          3D

 34 35  0  0  0  0  0  0  0  0999 V2000
   58.5560   26.0140   45.6130 C   0  0  0  0  0  0  0  0  0  0  0  0
   58.2850   27.2910   45.3300 C   0  0  0  0  0  0  0  0  0  0  0  0
   59.3490   28.1960   45.0010 N   0  0  0  0  0  0  0  0  0  0  0  0
   59.1010   29.5760   44.6900 C   0  0  0  0  0  0  0  0  0  0  0  0
   57.8580   30.0990   44.6910 C   0  0  0  0  0  0  0  0  0  0  0  0
   57.6690   31.5360   44.3610 C   0  0  0  0  0  0  0  0  0  0  0  0
   58.1930   32.0270   43.3240 O   0  0  0  0  0  0  0  0  0  0  0  0
   56.9050   32.3510   45.2040 O   0  0  0  0  0  0  0  0  0  0  0  0
   57.2030   33.7220   45.4330 C   0  0  0  0  0  0  0  0  0  0  0  0
   58.4790   33.8220   46.2040 C   0  0  0  0  0  0  0  0  0  0  0  0
   58.5550   34.6090   47.1850 O   0  0  0  0  0  0  0  0  0  0  0  0
   59.6000   33.0060   45.8370 N   0  0  0  0  0  0  0  0  0  0  0  0
   60.7970   32.9410   46.6230 C   0  0  0  0  0  0  0  0  0  0  0  0
   61.8320   33.8530   46.3690 C   0  0  0  0  0  0  0  0  0  0  0  0
   63.0100   33.8140   47.1180 C   0  0  0  0  0  0  0  0  0  0  0  0
   63.1720   32.8510   48.1170 C   0  0  0  0  0  0  0  0  0  0  0  0
   62.1600   31.9180   48.3600 C   0  0  0  0  0  0  0  0  0  0  0  0
   60.9750   31.9510   47.6140 C   0  0  0  0  0  0  0  0  0  0  0  0
   59.7740   30.6940   47.8880 Cl  0  0  0  0  0  0  0  0  0  0  0  0
   56.6950   29.2280   45.0210 C   0  0  0  0  0  0  0  0  0  0  0  0
   55.5230   29.6910   45.0290 O   0  0  0  0  0  0  0  0  0  0  0  0
   56.9080   27.8100   45.3450 C   0  0  0  0  0  0  0  0  0  0  0  0
   55.9280   27.0670   45.6250 O   0  0  0  0  0  0  0  0  0  0  0  0
   57.7395   25.3213   45.8650 H   0  0  0  0  0  0  0  0  0  0  0  0
   59.5956   25.6551   45.5940 H   0  0  0  0  0  0  0  0  0  0  0  0
   60.3370   27.8570   44.9810 H   0  0  0  0  0  0  0  0  0  0  0  0
   59.9524   30.2273   44.4430 H   0  0  0  0  0  0  0  0  0  0  0  0
   57.3130   34.2411   44.4695 H   0  0  0  0  0  0  0  0  0  0  0  0
   56.3869   34.1886   46.0042 H   0  0  0  0  0  0  0  0  0  0  0  0
   59.6080   32.5720   44.8860 H   0  0  0  0  0  0  0  0  0  0  0  0
   61.7149   34.6043   45.5741 H   0  0  0  0  0  0  0  0  0  0  0  0
   63.8108   34.5420   46.9212 H   0  0  0  0  0  0  0  0  0  0  0  0
   64.0964   32.8270   48.7127 H   0  0  0  0  0  0  0  0  0  0  0  0
   62.2948   31.1546   49.1404 H   0  0  0  0  0  0  0  0  0  0  0  0
  1  2  2  0
  2  3  1  0
  3  4  1  0
  4  5  2  0
  5  6  1  0
  6  7  2  0
  6  8  1  0
  8  9  1  0
  9 10  1  0
 10 11  2  0
 10 12  1  0
 12 13  1  0
 13 14  2  0
 14 15  1  0
 15 16  2  0
 16 17  1  0
 17 18  2  0
 18 19  1  0
  5 20  1  0
 20 21  2  0
 20 22  1  0
 22 23  2  0
 22  2  1  0
 18 13  1  0
  1 24  1  0
  1 25  1  0
  3 26  1  0
  4 27  1  0
  9 28  1  0
  9 29  1  0
 12 30  1  0
 14 31  1  0
 15 32  1  0
 16 33  1  0
 17 34  1  0
M  END
>  <UniqueID>  (20) 
19

>  <SMILES>  (20) 
C=C1NC=C(C(=O)OCC(=O)Nc2ccccc2Cl)C(=O)C1=O

>  <Energy>  (20) 
36.236465563733766

>  <Genealogy>  (20) 
C=C1NC=C(C(=O)OCC(=O)Nc2ccccc2Cl)C(=O)C1=O (3D coordinates assigned)
C=C1NC=C(C(=O)OCC(=O)Nc2ccccc2Cl)C(=O)C1=O (nonaromatic ring conformer: 36.236465563733766 kcal/mol)

>  <smiles>  (20) 
C=C1NC=C(C(=O)OCC(=O)Nc2ccccc2Cl)C(=O)C1=O

>  <score_type>  (20) 
oracle

>  <origin>  (20) 
adg

>  <m_score__min__energy>  (20) 
-7.7300000000000004

>  <m_primary>  (20) 
energy

$$$$
20:0
     RDKit          3D

 38 40  0  0  0  0  0  0  0  0999 V2000
   54.7370   29.6420   43.3800 O   0  0  0  0  0  0  0  0  0  0  0  0
   55.7340   29.8200   44.1280 C   0  0  0  0  0  0  0  0  0  0  0  0
   55.9290   28.9360   45.2390 N   0  0  0  0  0  0  0  0  0  0  0  0
   57.1700   28.8060   45.9920 C   0  0  0  0  0  0  0  0  0  0  0  0
   57.5650   27.3680   46.0460 C   0  0  0  0  0  0  0  0  0  0  0  0
   58.7300   26.8300   45.5510 C   0  0  0  0  0  0  0  0  0  0  0  0
   58.7700   25.5230   45.8570 N   0  0  0  0  0  0  0  0  0  0  0  0
   57.6190   25.3100   46.5320 C   0  0  0  0  0  0  0  0  0  0  0  0
   57.2610   23.9910   47.1350 C   0  0  0  0  0  0  0  0  0  0  0  0
   57.0270   22.9770   46.0490 C   0  0  0  0  0  0  0  0  0  0  0  0
   57.1420   21.6050   46.3230 C   0  0  0  0  0  0  0  0  0  0  0  0
   56.8880   20.6630   45.3210 C   0  0  0  0  0  0  0  0  0  0  0  0
   56.5100   21.0810   44.0410 C   0  0  0  0  0  0  0  0  0  0  0  0
   56.2610   20.1310   43.0530 O   0  0  0  0  0  0  0  0  0  0  0  0
   56.3820   22.4480   43.7660 C   0  0  0  0  0  0  0  0  0  0  0  0
   56.6340   23.3930   44.7650 C   0  0  0  0  0  0  0  0  0  0  0  0
   56.8630   26.4180   46.6870 N   0  0  0  0  0  0  0  0  0  0  0  0
   56.6370   30.9560   43.8580 C   0  0  0  0  0  0  0  0  0  0  0  0
   57.1260   31.1660   42.5580 C   0  0  0  0  0  0  0  0  0  0  0  0
   57.9920   32.2320   42.2950 C   0  0  0  0  0  0  0  0  0  0  0  0
   58.3870   33.0850   43.3270 C   0  0  0  0  0  0  0  0  0  0  0  0
   57.9230   32.8700   44.6290 C   0  0  0  0  0  0  0  0  0  0  0  0
   58.4850   34.0230   46.0450 Br  0  0  0  0  0  0  0  0  0  0  0  0
   57.0570   31.8050   44.8960 C   0  0  0  0  0  0  0  0  0  0  0  0
   57.9626   29.3866   45.4973 H   0  0  0  0  0  0  0  0  0  0  0  0
   57.0231   29.1867   47.0135 H   0  0  0  0  0  0  0  0  0  0  0  0
   59.5031   27.3806   44.9950 H   0  0  0  0  0  0  0  0  0  0  0  0
   58.0836   23.6502   47.7809 H   0  0  0  0  0  0  0  0  0  0  0  0
   56.3424   24.1026   47.7297 H   0  0  0  0  0  0  0  0  0  0  0  0
   57.4329   21.2696   47.3294 H   0  0  0  0  0  0  0  0  0  0  0  0
   56.9859   19.5896   45.5404 H   0  0  0  0  0  0  0  0  0  0  0  0
   56.6370   19.1910   43.1150 H   0  0  0  0  0  0  0  0  0  0  0  0
   56.0822   22.7794   42.7608 H   0  0  0  0  0  0  0  0  0  0  0  0
   56.5244   24.4653   44.5456 H   0  0  0  0  0  0  0  0  0  0  0  0
   56.8266   30.4895   41.7439 H   0  0  0  0  0  0  0  0  0  0  0  0
   58.3627   32.3987   41.2728 H   0  0  0  0  0  0  0  0  0  0  0  0
   59.0634   33.9265   43.1163 H   0  0  0  0  0  0  0  0  0  0  0  0
   56.7031   31.6311   45.9229 H   0  0  0  0  0  0  0  0  0  0  0  0
  1  2  2  0
  2  3  1  0
  3  4  1  0
  4  5  1  0
  5  6  2  0
  6  7  1  0
  7  8  1  0
  8  9  1  0
  9 10  1  0
 10 11  2  0
 11 12  1  0
 12 13  2  0
 13 14  1  0
 13 15  1  0
 15 16  2  0
  8 17  2  0
  2 18  1  0
 18 19  2  0
 19 20  1  0
 20 21  2  0
 21 22  1  0
 22 23  1  0
 22 24  2  0
 17  5  1  0
 24 18  1  0
 16 10  1  0
  4 25  1  0
  4 26  1  0
  6 27  1  0
  9 28  1  0
  9 29  1  0
 11 30  1  0
 12 31  1  0
 14 32  1  0
 15 33  1  0
 16 34  1  0
 19 35  1  0
 20 36  1  0
 21 37  1  0
 24 38  1  0
M  CHG  2   3  -1   7  -1
M  END
>  <UniqueID>  (21) 
20

>  <SMILES>  (21) 
O=C([N-]Cc1c[n-]c(Cc2ccc(O)cc2)n1)c1cccc(Br)c1

>  <Energy>  (21) 
68.02201353845464

>  <Genealogy>  (21) 
O=C([N-]Cc1c[n-]c(Cc2ccc(O)cc2)n1)c1cccc(Br)c1 (protonated)
O=C([N-]Cc1c[n-]c(Cc2ccc(O)cc2)n1)c1cccc(Br)c1 (3D coordinates assigned)
O=C([N-]Cc1c[n-]c(Cc2ccc(O)cc2)n1)c1cccc(Br)c1 (optimized conformer: 68.02201353845464 kcal/mol)

>  <smiles>  (21) 
O=C(NCc1c[nH]c(Cc2ccc(O)cc2)n1)c1cccc(Br)c1

>  <score_type>  (21) 
oracle

>  <origin>  (21) 
adg

>  <m_score__min__energy>  (21) 
-11.83

>  <m_primary>  (21) 
energy

$$$$
21:0
     RDKit          3D

 58 61  0  0  0  0  0  0  0  0999 V2000
   56.9130   30.9020   52.1280 C   0  0  0  0  0  0  0  0  0  0  0  0
   57.9430   30.9610   51.0390 C   0  0  0  0  0  0  0  0  0  0  0  0
   58.4470   29.7890   50.4740 C   0  0  0  0  0  0  0  0  0  0  0  0
   59.4410   29.8500   49.4840 C   0  0  0  0  0  0  0  0  0  0  0  0
   59.9480   28.5600   48.9600 C   0  0  0  0  0  0  0  0  0  0  0  0
   61.1460   28.2190   49.1570 O   0  0  0  0  0  0  0  0  0  0  0  0
   59.0600   27.7020   48.2310 N   0  0  0  0  0  0  0  0  0  0  0  0
   58.7510   27.7860   46.8330 C   0  0  0  0  0  0  0  0  0  0  0  0
   58.8660   26.6770   45.9760 C   0  0  0  0  0  0  0  0  0  0  0  0
   58.5240   26.7950   44.6260 C   0  0  0  0  0  0  0  0  0  0  0  0
   58.0530   28.0100   44.1240 C   0  0  0  0  0  0  0  0  0  0  0  0
   57.9100   29.1140   44.9750 C   0  0  0  0  0  0  0  0  0  0  0  0
   57.3220   30.6550   44.3580 S   0  0  0  0  0  0  0  0  0  0  0  0
   57.3050   30.6360   42.8540 O   0  0  0  0  0  0  0  0  0  0  0  0
   55.9150   30.8650   44.8490 O   0  0  0  0  0  0  0  0  0  0  0  0
   58.3490   31.9490   44.9300 N   0  0  0  0  0  0  0  0  0  0  0  0
   58.1300   32.1620   46.3770 C   0  0  0  0  0  0  0  0  0  0  0  0
   58.5410   33.5860   46.7890 C   0  0  0  0  0  0  0  0  0  0  0  0
   57.8130   34.6110   46.1250 O   0  0  0  0  0  0  0  0  0  0  0  0
   57.2720   34.2120   44.8730 C   0  0  0  0  0  0  0  0  0  0  0  0
   58.1470   33.1850   44.1300 C   0  0  0  0  0  0  0  0  0  0  0  0
   58.2560   28.9940   46.3280 C   0  0  0  0  0  0  0  0  0  0  0  0
   59.9100   31.0770   49.0510 N   0  0  0  0  0  0  0  0  0  0  0  0
   60.8720   31.1980   47.9320 C   0  0  0  0  0  0  0  0  0  0  0  0
   62.2070   31.7380   48.3940 C   0  0  0  0  0  0  0  0  0  0  0  0
   62.7190   31.3460   49.6430 C   0  0  0  0  0  0  0  0  0  0  0  0
   63.9360   31.8570   50.1020 C   0  0  0  0  0  0  0  0  0  0  0  0
   64.6460   32.7780   49.3260 C   0  0  0  0  0  0  0  0  0  0  0  0
   65.8240   33.2750   49.7730 F   0  0  0  0  0  0  0  0  0  0  0  0
   64.1370   33.1870   48.0900 C   0  0  0  0  0  0  0  0  0  0  0  0
   62.9230   32.6740   47.6260 C   0  0  0  0  0  0  0  0  0  0  0  0
   59.4380   32.2340   49.6310 C   0  0  0  0  0  0  0  0  0  0  0  0
   59.8730   33.3600   49.2670 O   0  0  0  0  0  0  0  0  0  0  0  0
   58.4630   32.1870   50.6300 C   0  0  0  0  0  0  0  0  0  0  0  0
   57.4129   30.9306   53.1074 H   0  0  0  0  0  0  0  0  0  0  0  0
   56.2341   31.7627   52.0376 H   0  0  0  0  0  0  0  0  0  0  0  0
   56.3368   29.9694   52.0376 H   0  0  0  0  0  0  0  0  0  0  0  0
   58.0639   28.8127   50.8056 H   0  0  0  0  0  0  0  0  0  0  0  0
   59.2259   25.7147   46.3690 H   0  0  0  0  0  0  0  0  0  0  0  0
   58.6262   25.9280   43.9568 H   0  0  0  0  0  0  0  0  0  0  0  0
   57.7938   28.1006   43.0588 H   0  0  0  0  0  0  0  0  0  0  0  0
   59.3370   31.6320   44.7930 H   0  0  0  0  0  0  0  0  0  0  0  0
   57.0643   32.0140   46.6059 H   0  0  0  0  0  0  0  0  0  0  0  0
   58.7458   31.4421   46.9361 H   0  0  0  0  0  0  0  0  0  0  0  0
   58.3804   33.6931   47.8719 H   0  0  0  0  0  0  0  0  0  0  0  0
   59.5964   33.7085   46.5042 H   0  0  0  0  0  0  0  0  0  0  0  0
   56.2817   33.7659   45.0469 H   0  0  0  0  0  0  0  0  0  0  0  0
   57.2169   35.1106   44.2409 H   0  0  0  0  0  0  0  0  0  0  0  0
   57.6564   32.9191   43.1821 H   0  0  0  0  0  0  0  0  0  0  0  0
   59.1320   33.6411   43.9517 H   0  0  0  0  0  0  0  0  0  0  0  0
   58.1374   29.8573   46.9993 H   0  0  0  0  0  0  0  0  0  0  0  0
   61.0252   30.2045   47.4854 H   0  0  0  0  0  0  0  0  0  0  0  0
   60.4545   31.9021   47.1972 H   0  0  0  0  0  0  0  0  0  0  0  0
   62.1577   30.6319   50.2635 H   0  0  0  0  0  0  0  0  0  0  0  0
   64.3357   31.5343   51.0747 H   0  0  0  0  0  0  0  0  0  0  0  0
   64.6936   33.9146   47.4811 H   0  0  0  0  0  0  0  0  0  0  0  0
   62.5251   33.0038   46.6550 H   0  0  0  0  0  0  0  0  0  0  0  0
   58.1057   33.1182   51.0939 H   0  0  0  0  0  0  0  0  0  0  0  0
  1  2  1  0
  2  3  1  0
  3  4  2  0
  4  5  1  0
  5  6  2  0
  5  7  1  0
  7  8  1  0
  8  9  2  0
  9 10  1  0
 10 11  2  0
 11 12  1  0
 12 13  1  0
 13 14  2  0
 13 15  2  0
 13 16  1  0
 16 17  1  0
 17 18  1  0
 18 19  1  0
 19 20  1  0
 20 21  1  0
 12 22  2  0
  4 23  1  0
 23 24  1  0
 24 25  1  0
 25 26  2  0
 26 27  1  0
 27 28  2  0
 28 29  1  0
 28 30  1  0
 30 31  2  0
 23 32  1  0
 32 33  2  0
 32 34  1  0
 34  2  2  0
 22  8  1  0
 31 25  1  0
 21 16  1  0
  1 35  1  0
  1 36  1  0
  1 37  1  0
  3 38  1  0
  9 39  1  0
 10 40  1  0
 11 41  1  0
 16 42  1  0
 17 43  1  0
 17 44  1  0
 18 45  1  0
 18 46  1  0
 20 47  1  0
 20 48  1  0
 21 49  1  0
 21 50  1  0
 22 51  1  0
 24 52  1  0
 24 53  1  0
 26 54  1  0
 27 55  1  0
 30 56  1  0
 31 57  1  0
 34 58  1  0
M  CHG  2   7  -1  16   1
M  END
>  <UniqueID>  (22) 
21

>  <SMILES>  (22) 
Cc1cc(C(=O)[N-]c2cccc(S(=O)(=O)[NH+]3CCOCC3)c2)n(Cc2ccc(F)cc2)c(=O)c1

>  <Energy>  (22) 
87.52466891875056

>  <Genealogy>  (22) 
Cc1cc(C(=O)[N-]c2cccc(S(=O)(=O)[NH+]3CCOCC3)c2)n(Cc2ccc(F)cc2)c(=O)c1 (protonated)
Cc1cc(C(=O)[N-]c2cccc(S(=O)(=O)[NH+]3CCOCC3)c2)n(Cc2ccc(F)cc2)c(=O)c1 (3D coordinates assigned)
Cc1cc(C(=O)[N-]c2cccc(S(=O)(=O)[NH+]3CCOCC3)c2)n(Cc2ccc(F)cc2)c(=O)c1 (nonaromatic ring conformer: 87.52466891875056 kcal/mol)

>  <smiles>  (22) 
Cc1cc(C(=O)Nc2cccc(S(=O)(=O)N3CCOCC3)c2)n(Cc2ccc(F)cc2)c(=O)c1

>  <score_type>  (22) 
oracle

>  <origin>  (22) 
adg

>  <m_score__min__energy>  (22) 
-9.4299999999999997

>  <m_primary>  (22) 
energy

$$$$
22:0
     RDKit          3D

 40 42  0  0  0  0  0  0  0  0999 V2000
   57.7790   32.0430   42.3550 C   0  0  0  0  0  0  0  0  0  0  0  0
   57.9590   32.6570   43.5240 C   0  0  0  0  0  0  0  0  0  0  0  0
   57.3220   32.1970   44.7680 C   0  0  0  0  0  0  0  0  0  0  0  0
   57.0860   33.0100   45.7040 O   0  0  0  0  0  0  0  0  0  0  0  0
   56.9260   30.8250   44.8760 N   0  0  0  0  0  0  0  0  0  0  0  0
   57.7880   29.7030   45.1180 C   0  0  0  0  0  0  0  0  0  0  0  0
   59.0830   29.7260   44.5890 C   0  0  0  0  0  0  0  0  0  0  0  0
   59.9580   28.6610   44.8110 C   0  0  0  0  0  0  0  0  0  0  0  0
   59.5530   27.5720   45.5870 C   0  0  0  0  0  0  0  0  0  0  0  0
   58.2740   27.5500   46.1660 C   0  0  0  0  0  0  0  0  0  0  0  0
   57.8440   26.3800   47.0170 C   0  0  0  0  0  0  0  0  0  0  0  0
   56.6790   25.6490   46.4000 C   0  0  0  0  0  0  0  0  0  0  0  0
   55.4770   26.2860   46.3530 N   0  0  0  0  0  0  0  0  0  0  0  0
   54.3970   25.7240   45.8120 N   0  0  0  0  0  0  0  0  0  0  0  0
   54.4370   24.4820   45.2700 C   0  0  0  0  0  0  0  0  0  0  0  0
   53.3880   23.9840   44.7830 O   0  0  0  0  0  0  0  0  0  0  0  0
   55.6460   23.7720   45.2620 C   0  0  0  0  0  0  0  0  0  0  0  0
   56.7860   24.3570   45.8360 C   0  0  0  0  0  0  0  0  0  0  0  0
   58.0530   23.5310   45.8600 C   0  0  0  0  0  0  0  0  0  0  0  0
   58.2920   22.8720   44.4930 C   0  0  0  0  0  0  0  0  0  0  0  0
   57.0370   22.1970   43.8830 C   0  0  0  0  0  0  0  0  0  0  0  0
   55.7520   22.3700   44.7110 C   0  0  0  0  0  0  0  0  0  0  0  0
   57.3900   28.6160   45.9200 C   0  0  0  0  0  0  0  0  0  0  0  0
   58.2768   32.4242   41.4512 H   0  0  0  0  0  0  0  0  0  0  0  0
   57.1327   31.1550   42.2939 H   0  0  0  0  0  0  0  0  0  0  0  0
   58.6098   33.5431   43.5603 H   0  0  0  0  0  0  0  0  0  0  0  0
   59.4142   30.5897   43.9937 H   0  0  0  0  0  0  0  0  0  0  0  0
   60.9675   28.6793   44.3744 H   0  0  0  0  0  0  0  0  0  0  0  0
   60.2398   26.7274   45.7452 H   0  0  0  0  0  0  0  0  0  0  0  0
   58.6890   25.6834   47.1208 H   0  0  0  0  0  0  0  0  0  0  0  0
   57.5308   26.7634   47.9993 H   0  0  0  0  0  0  0  0  0  0  0  0
   58.9055   24.1828   46.1016 H   0  0  0  0  0  0  0  0  0  0  0  0
   57.9499   22.7436   46.6212 H   0  0  0  0  0  0  0  0  0  0  0  0
   58.6413   23.6459   43.7937 H   0  0  0  0  0  0  0  0  0  0  0  0
   59.0328   22.0747   44.6525 H   0  0  0  0  0  0  0  0  0  0  0  0
   56.8643   22.6300   42.8867 H   0  0  0  0  0  0  0  0  0  0  0  0
   57.2464   21.1175   43.8532 H   0  0  0  0  0  0  0  0  0  0  0  0
   54.8813   22.1691   44.0695 H   0  0  0  0  0  0  0  0  0  0  0  0
   55.7815   21.6641   45.5541 H   0  0  0  0  0  0  0  0  0  0  0  0
   56.3807   28.6005   46.3571 H   0  0  0  0  0  0  0  0  0  0  0  0
  1  2  2  0
  2  3  1  0
  3  4  2  0
  3  5  1  0
  5  6  1  0
  6  7  2  0
  7  8  1  0
  8  9  2  0
  9 10  1  0
 10 11  1  0
 11 12  1  0
 12 13  2  0
 13 14  1  0
 14 15  1  0
 15 16  2  0
 15 17  1  0
 17 18  2  0
 18 19  1  0
 19 20  1  0
 20 21  1  0
 21 22  1  0
 10 23  2  0
 23  6  1  0
 18 12  1  0
 22 17  1  0
  1 24  1  0
  1 25  1  0
  2 26  1  0
  7 27  1  0
  8 28  1  0
  9 29  1  0
 11 30  1  0
 11 31  1  0
 19 32  1  0
 19 33  1  0
 20 34  1  0
 20 35  1  0
 21 36  1  0
 21 37  1  0
 22 38  1  0
 22 39  1  0
 23 40  1  0
M  CHG  2   5  -1  14  -1
M  END
>  <UniqueID>  (23) 
22

>  <SMILES>  (23) 
C=CC(=O)[N-]c1cccc(Cc2n[n-]c(=O)c3c2CCCC3)c1

>  <Energy>  (23) 
50.31123623704256

>  <Genealogy>  (23) 
C=CC(=O)[N-]c1cccc(Cc2n[n-]c(=O)c3c2CCCC3)c1 (protonated)
C=CC(=O)[N-]c1cccc(Cc2n[n-]c(=O)c3c2CCCC3)c1 (3D coordinates assigned)
C=CC(=O)[N-]c1cccc(Cc2n[n-]c(=O)c3c2CCCC3)c1 (nonaromatic ring conformer: 50.31123623704256 kcal/mol)

>  <smiles>  (23) 
C=CC(=O)Nc1cccc(Cc2n[nH]c(=O)c3c2CCCC3)c1

>  <score_type>  (23) 
oracle

>  <origin>  (23) 
adg

>  <m_score__min__energy>  (23) 
-12.26

>  <m_primary>  (23) 
energy

$$$$
23:0
     RDKit          3D

 49 52  0  0  0  0  0  0  0  0999 V2000
   57.3806   31.0003   43.1141 H   0  0  0  0  0  0  0  0  0  0  0  0
   57.6960   30.1660   43.7580 C   0  0  0  0  0  0  0  0  0  0  0  0
   57.8066   29.1565   43.3354 H   0  0  0  0  0  0  0  0  0  0  0  0
   57.9460   30.3800   45.0600 C   0  0  0  0  0  0  0  0  0  0  0  0
   58.3540   29.4270   46.0070 C   0  0  0  0  0  0  0  0  0  0  0  0
   58.3740   28.0810   45.9550 C   0  0  0  0  0  0  0  0  0  0  0  0
   59.3482   27.5994   45.7849 H   0  0  0  0  0  0  0  0  0  0  0  0
   57.2060   27.1990   46.1060 C   0  0  0  0  0  0  0  0  0  0  0  0
   57.2490   25.9440   46.5910 N   0  0  0  0  0  0  0  0  0  0  0  0
   55.9890   25.4950   46.4090 C   0  0  0  0  0  0  0  0  0  0  0  0
   55.6210   24.3430   46.7580 O   0  0  0  0  0  0  0  0  0  0  0  0
   55.1540   26.3760   45.8150 N   0  0  0  0  0  0  0  0  0  0  0  0
   55.9460   27.4420   45.6180 C   0  0  0  0  0  0  0  0  0  0  0  0
   55.5260   28.6120   44.9970 O   0  0  0  0  0  0  0  0  0  0  0  0
   58.7580   30.1390   47.1220 C   0  0  0  0  0  0  0  0  0  0  0  0
   59.1684   29.7205   48.0528 H   0  0  0  0  0  0  0  0  0  0  0  0
   58.5480   31.4750   46.8440 C   0  0  0  0  0  0  0  0  0  0  0  0
   58.8330   32.5790   47.7860 C   0  0  0  0  0  0  0  0  0  0  0  0
   58.2480   32.5620   48.9040 O   0  0  0  0  0  0  0  0  0  0  0  0
   59.6790   33.7130   47.4450 N   0  0  0  0  0  0  0  0  0  0  0  0
   59.0310   34.4340   47.0450 H   0  0  0  0  0  0  0  0  0  0  0  0
   60.2960   34.3770   48.6270 C   0  0  0  0  0  0  0  0  0  0  0  0
   60.4853   35.4308   48.3745 H   0  0  0  0  0  0  0  0  0  0  0  0
   59.5901   34.2677   49.4635 H   0  0  0  0  0  0  0  0  0  0  0  0
   61.6270   33.7350   49.0710 C   0  0  0  0  0  0  0  0  0  0  0  0
   62.1564   34.4343   49.7349 H   0  0  0  0  0  0  0  0  0  0  0  0
   61.3974   32.7943   49.5929 H   0  0  0  0  0  0  0  0  0  0  0  0
   62.4880   33.4240   47.9230 N   0  0  0  0  0  0  0  0  0  0  0  0
   63.5030   32.4080   48.0480 C   0  0  0  0  0  0  0  0  0  0  0  0
   63.6340   31.5400   47.1440 O   0  0  0  0  0  0  0  0  0  0  0  0
   64.3860   32.3330   49.2240 C   0  0  0  0  0  0  0  0  0  0  0  0
   65.4850   33.0410   49.3500 O   0  0  0  0  0  0  0  0  0  0  0  0
   66.0330   32.7650   50.5110 C   0  0  0  0  0  0  0  0  0  0  0  0
   66.9670   33.2044   50.8912 H   0  0  0  0  0  0  0  0  0  0  0  0
   65.2600   31.8410   51.1810 C   0  0  0  0  0  0  0  0  0  0  0  0
   65.4560   31.4125   52.1750 H   0  0  0  0  0  0  0  0  0  0  0  0
   64.1930   31.5620   50.3560 C   0  0  0  0  0  0  0  0  0  0  0  0
   63.3612   30.8705   50.5556 H   0  0  0  0  0  0  0  0  0  0  0  0
   62.0540   33.8660   46.5980 C   0  0  0  0  0  0  0  0  0  0  0  0
   62.0659   34.9650   46.5517 H   0  0  0  0  0  0  0  0  0  0  0  0
   62.7329   33.4695   45.8286 H   0  0  0  0  0  0  0  0  0  0  0  0
   60.6320   33.3550   46.3540 C   0  0  0  0  0  0  0  0  0  0  0  0
   60.2627   33.7875   45.4124 H   0  0  0  0  0  0  0  0  0  0  0  0
   60.6835   32.2569   46.3147 H   0  0  0  0  0  0  0  0  0  0  0  0
   58.0040   31.6200   45.6140 N   0  0  0  0  0  0  0  0  0  0  0  0
   57.6490   32.8870   44.9680 C   0  0  0  0  0  0  0  0  0  0  0  0
   57.4369   33.6440   45.7374 H   0  0  0  0  0  0  0  0  0  0  0  0
   58.4867   33.2262   44.3409 H   0  0  0  0  0  0  0  0  0  0  0  0
   56.7570   32.7416   44.3409 H   0  0  0  0  0  0  0  0  0  0  0  0
  1  2  1  0
  2  3  1  0
  2  4  2  0
  4  5  1  0
  5  6  2  0
  6  7  1  0
  6  8  1  0
  8  9  1  0
  9 10  1  0
 10 11  2  0
 10 12  1  0
 12 13  1  0
 13 14  1  0
  5 15  1  0
 15 16  1  0
 15 17  2  0
 17 18  1  0
 18 19  2  0
 18 20  1  0
 20 21  1  0
 20 22  1  0
 22 23  1  0
 22 24  1  0
 22 25  1  0
 25 26  1  0
 25 27  1  0
 25 28  1  0
 28 29  1  0
 29 30  2  0
 29 31  1  0
 31 32  1  0
 32 33  1  0
 33 34  1  0
 33 35  2  0
 35 36  1  0
 35 37  1  0
 37 38  1  0
 28 39  1  0
 39 40  1  0
 39 41  1  0
 39 42  1  0
 42 43  1  0
 42 44  1  0
 17 45  1  0
 45 46  1  0
 46 47  1  0
 46 48  1  0
 46 49  1  0
 45  4  1  0
 13  8  2  0
 42 20  1  0
 37 31  2  0
M  CHG  4   9  -1  12  -1  14  -1  20   1
M  END
>  <UniqueID>  (24) 
23

>  <SMILES>  (24) 
C=c1/c(=C\c2[n-]c(=O)[n-]c2[O-])cc(C(=O)[NH+]2CCN(C(=O)c3ccco3)CC2)n1C

>  <Energy>  (24) 
169.36294288103085

>  <Genealogy>  (24) 
C=c1c(=Cc2[n-]c(=O)[n-]c2[O-])cc(C(=O)[NH+]2CCN(C(=O)c3ccco3)CC2)n1C (protonated)
C=c1/c(=C\c2[n-]c(=O)[n-]c2[O-])cc(C(=O)[NH+]2CCN(C(=O)c3ccco3)CC2)n1C (cis-trans isomerization)
C=c1/c(=C\c2[n-]c(=O)[n-]c2[O-])cc(C(=O)[NH+]2CCN(C(=O)c3ccco3)CC2)n1C (3D coordinates assigned)
C=c1/c(=C\c2[n-]c(=O)[n-]c2[O-])cc(C(=O)[NH+]2CCN(C(=O)c3ccco3)CC2)n1C (nonaromatic ring conformer: 169.36294288103085 kcal/mol)

>  <smiles>  (24) 
C=c1c(=Cc2[nH]c(=O)[nH]c2O)cc(C(=O)N2CCN(C(=O)c3ccco3)CC2)n1C

>  <score_type>  (24) 
oracle

>  <origin>  (24) 
adg

>  <m_score__min__energy>  (24) 
-16.489999999999998

>  <m_primary>  (24) 
energy

$$$$
24:0
     RDKit          3D

 31 33  0  0  0  0  0  0  0  0999 V2000
   59.6657   22.9398   45.7448 H   0  0  0  0  0  0  0  0  0  0  0  0
   58.9390   23.7620   45.8210 C   0  0  0  0  0  0  0  0  0  0  0  0
   57.6300   23.5680   46.0760 N   0  0  0  0  0  0  0  0  0  0  0  0
   57.1070   24.8070   46.0910 C   0  0  0  0  0  0  0  0  0  0  0  0
   55.6590   25.0630   46.2270 C   0  0  0  0  0  0  0  0  0  0  0  0
   55.2090   26.2170   45.9960 O   0  0  0  0  0  0  0  0  0  0  0  0
   54.7310   24.0010   46.4890 N   0  0  0  0  0  0  0  0  0  0  0  0
   53.6380   23.7500   45.8280 C   0  0  0  0  0  0  0  0  0  0  0  0
   53.1920   22.5000   45.6130 N   0  0  0  0  0  0  0  0  0  0  0  0
   52.1140   22.6110   44.8940 O   0  0  0  0  0  0  0  0  0  0  0  0
   51.8430   23.8680   44.6230 C   0  0  0  0  0  0  0  0  0  0  0  0
   50.9880   24.2261   44.0308 H   0  0  0  0  0  0  0  0  0  0  0  0
   52.8080   24.6640   45.2040 C   0  0  0  0  0  0  0  0  0  0  0  0
   52.8962   25.7601   45.1776 H   0  0  0  0  0  0  0  0  0  0  0  0
   58.1160   25.7220   45.8450 C   0  0  0  0  0  0  0  0  0  0  0  0
   58.0270   27.1930   45.8200 C   0  0  0  0  0  0  0  0  0  0  0  0
   58.6620   27.8570   46.6840 O   0  0  0  0  0  0  0  0  0  0  0  0
   57.1550   27.8600   44.8950 N   0  0  0  0  0  0  0  0  0  0  0  0
   56.3370   27.3240   44.5260 H   0  0  0  0  0  0  0  0  0  0  0  0
   57.2650   29.2510   44.5480 C   0  0  0  0  0  0  0  0  0  0  0  0
   56.9220   29.7170   43.2650 C   0  0  0  0  0  0  0  0  0  0  0  0
   56.5790   29.0066   42.4984 H   0  0  0  0  0  0  0  0  0  0  0  0
   57.0150   31.0780   42.9600 C   0  0  0  0  0  0  0  0  0  0  0  0
   56.7547   31.4339   41.9522 H   0  0  0  0  0  0  0  0  0  0  0  0
   57.4380   31.9870   43.9330 C   0  0  0  0  0  0  0  0  0  0  0  0
   57.5170   33.0567   43.6890 H   0  0  0  0  0  0  0  0  0  0  0  0
   57.7610   31.5370   45.2170 C   0  0  0  0  0  0  0  0  0  0  0  0
   58.2780   32.6800   46.4430 Cl  0  0  0  0  0  0  0  0  0  0  0  0
   57.6690   30.1750   45.5250 C   0  0  0  0  0  0  0  0  0  0  0  0
   57.9147   29.8261   46.5389 H   0  0  0  0  0  0  0  0  0  0  0  0
   59.2740   25.0600   45.6680 N   0  0  0  0  0  0  0  0  0  0  0  0
  1  2  1  0
  2  3  2  0
  3  4  1  0
  4  5  1  0
  5  6  2  0
  5  7  1  0
  7  8  2  0
  8  9  1  0
  9 10  1  0
 10 11  1  0
 11 12  1  0
 11 13  2  0
 13 14  1  0
  4 15  2  0
 15 16  1  0
 16 17  2  0
 16 18  1  0
 18 19  1  0
 18 20  1  0
 20 21  2  0
 21 22  1  0
 21 23  1  0
 23 24  1  0
 23 25  2  0
 25 26  1  0
 25 27  1  0
 27 28  1  0
 27 29  2  0
 29 30  1  0
 15 31  1  0
 31  2  1  0
 13  8  1  0
 29 20  1  0
M  CHG  2   9  -1  31  -1
M  END
>  <UniqueID>  (25) 
24

>  <SMILES>  (25) 
O=C(/N=c1\cco[n-]1)c1nc[n-]c1C(=O)Nc1cccc(Cl)c1

>  <Energy>  (25) 
105.49549213114027

>  <Genealogy>  (25) 
O=C(N=c1cco[n-]1)c1nc[n-]c1C(=O)Nc1cccc(Cl)c1 (protonated)
O=C(/N=c1\cco[n-]1)c1nc[n-]c1C(=O)Nc1cccc(Cl)c1 (cis-trans isomerization)
O=C(/N=c1\cco[n-]1)c1nc[n-]c1C(=O)Nc1cccc(Cl)c1 (3D coordinates assigned)
O=C(/N=c1\cco[n-]1)c1nc[n-]c1C(=O)Nc1cccc(Cl)c1 (optimized conformer: 105.49549213114027 kcal/mol)

>  <smiles>  (25) 
O=C(N=c1cco[nH]1)c1nc[nH]c1C(=O)Nc1cccc(Cl)c1

>  <score_type>  (25) 
oracle

>  <origin>  (25) 
adg

>  <m_score__min__energy>  (25) 
-11.52

>  <m_primary>  (25) 
energy

$$$$
25:0
     RDKit          3D

 40 42  0  0  0  0  0  0  0  0999 V2000
   61.1420   26.6860   50.2830 C   0  0  0  0  0  0  0  0  0  0  0  0
   60.4410   27.2960   49.1120 C   0  0  0  0  0  0  0  0  0  0  0  0
   60.7350   28.5960   48.7070 C   0  0  0  0  0  0  0  0  0  0  0  0
   60.0850   29.1390   47.5920 C   0  0  0  0  0  0  0  0  0  0  0  0
   60.4150   30.5190   47.1440 C   0  0  0  0  0  0  0  0  0  0  0  0
   61.5900   30.9600   47.2820 O   0  0  0  0  0  0  0  0  0  0  0  0
   59.4150   31.3420   46.5220 N   0  0  0  0  0  0  0  0  0  0  0  0
   59.5120   32.7720   46.4040 C   0  0  0  0  0  0  0  0  0  0  0  0
   59.9650   33.5670   47.4740 C   0  0  0  0  0  0  0  0  0  0  0  0
   60.0290   34.9580   47.3410 C   0  0  0  0  0  0  0  0  0  0  0  0
   59.6310   35.5670   46.1480 C   0  0  0  0  0  0  0  0  0  0  0  0
   59.1610   34.7880   45.0890 C   0  0  0  0  0  0  0  0  0  0  0  0
   59.0950   33.3970   45.2170 C   0  0  0  0  0  0  0  0  0  0  0  0
   59.1480   28.3370   46.9080 C   0  0  0  0  0  0  0  0  0  0  0  0
   58.5640   28.7830   45.8800 O   0  0  0  0  0  0  0  0  0  0  0  0
   58.8820   27.0660   47.3550 N   0  0  0  0  0  0  0  0  0  0  0  0
   57.9250   26.2170   46.6940 C   0  0  0  0  0  0  0  0  0  0  0  0
   58.3040   24.9690   46.1780 C   0  0  0  0  0  0  0  0  0  0  0  0
   57.3730   24.1630   45.5190 C   0  0  0  0  0  0  0  0  0  0  0  0
   56.0440   24.5910   45.3490 C   0  0  0  0  0  0  0  0  0  0  0  0
   55.0800   23.7080   44.6430 C   0  0  0  0  0  0  0  0  0  0  0  0
   55.4070   23.1000   43.5900 O   0  0  0  0  0  0  0  0  0  0  0  0
   53.7910   23.5400   45.1380 O   0  0  0  0  0  0  0  0  0  0  0  0
   55.6680   25.8560   45.8540 C   0  0  0  0  0  0  0  0  0  0  0  0
   54.3700   26.3330   45.7090 O   0  0  0  0  0  0  0  0  0  0  0  0
   56.6060   26.6580   46.5130 C   0  0  0  0  0  0  0  0  0  0  0  0
   59.5260   26.5740   48.4170 N   0  0  0  0  0  0  0  0  0  0  0  0
   60.7011   27.0697   51.2149 H   0  0  0  0  0  0  0  0  0  0  0  0
   61.0308   25.5922   50.2479 H   0  0  0  0  0  0  0  0  0  0  0  0
   62.2099   26.9473   50.2479 H   0  0  0  0  0  0  0  0  0  0  0  0
   61.4744   29.1933   49.2606 H   0  0  0  0  0  0  0  0  0  0  0  0
   58.6230   30.8640   46.0340 H   0  0  0  0  0  0  0  0  0  0  0  0
   60.2698   33.0924   48.4184 H   0  0  0  0  0  0  0  0  0  0  0  0
   60.3932   35.5734   48.1768 H   0  0  0  0  0  0  0  0  0  0  0  0
   59.6880   36.6605   46.0432 H   0  0  0  0  0  0  0  0  0  0  0  0
   58.8421   35.2691   44.1526 H   0  0  0  0  0  0  0  0  0  0  0  0
   58.7143   32.7887   44.3833 H   0  0  0  0  0  0  0  0  0  0  0  0
   59.3417   24.6227   46.2932 H   0  0  0  0  0  0  0  0  0  0  0  0
   57.6826   23.1824   45.1285 H   0  0  0  0  0  0  0  0  0  0  0  0
   56.3056   27.6455   46.8934 H   0  0  0  0  0  0  0  0  0  0  0  0
  1  2  1  0
  2  3  1  0
  3  4  2  0
  4  5  1  0
  5  6  2  0
  5  7  1  0
  7  8  1  0
  8  9  2  0
  9 10  1  0
 10 11  2  0
 11 12  1  0
 12 13  2  0
  4 14  1  0
 14 15  2  0
 14 16  1  0
 16 17  1  0
 17 18  2  0
 18 19  1  0
 19 20  2  0
 20 21  1  0
 21 22  2  0
 21 23  1  0
 20 24  1  0
 24 25  1  0
 24 26  2  0
 16 27  1  0
 27  2  2  0
 13  8  1  0
 26 17  1  0
  1 28  1  0
  1 29  1  0
  1 30  1  0
  3 31  1  0
  7 32  1  0
  9 33  1  0
 10 34  1  0
 11 35  1  0
 12 36  1  0
 13 37  1  0
 18 38  1  0
 19 39  1  0
 26 40  1  0
M  CHG  2  23  -1  25  -1
M  END
>  <UniqueID>  (26) 
25

>  <SMILES>  (26) 
Cc1cc(C(=O)Nc2ccccc2)c(=O)n(-c2ccc(C(=O)[O-])c([O-])c2)n1

>  <Energy>  (26) 
59.22414897881983

>  <Genealogy>  (26) 
Cc1cc(C(=O)Nc2ccccc2)c(=O)n(-c2ccc(C(=O)[O-])c([O-])c2)n1 (protonated)
Cc1cc(C(=O)Nc2ccccc2)c(=O)n(-c2ccc(C(=O)[O-])c([O-])c2)n1 (3D coordinates assigned)
Cc1cc(C(=O)Nc2ccccc2)c(=O)n(-c2ccc(C(=O)[O-])c([O-])c2)n1 (optimized conformer: 59.22414897881983 kcal/mol)

>  <smiles>  (26) 
Cc1cc(C(=O)Nc2ccccc2)c(=O)n(-c2ccc(C(=O)O)c(O)c2)n1

>  <score_type>  (26) 
oracle

>  <origin>  (26) 
adg

>  <m_score__min__energy>  (26) 
-14.039999999999999

>  <m_primary>  (26) 
energy

$$$$
26:0
     RDKit          3D

 28 29  0  0  0  0  0  0  0  0999 V2000
   55.2250   29.3710   44.8980 N   0  0  0  0  0  0  0  0  0  0  0  0
   56.4810   29.5670   44.2490 C   0  0  0  0  0  0  0  0  0  0  0  0
   56.4880   29.9100   43.0360 O   0  0  0  0  0  0  0  0  0  0  0  0
   57.7540   29.3770   44.9990 C   0  0  0  0  0  0  0  0  0  0  0  0
   58.3780   30.4990   45.5810 C   0  0  0  0  0  0  0  0  0  0  0  0
   59.5770   30.3660   46.2840 C   0  0  0  0  0  0  0  0  0  0  0  0
   60.1680   29.1140   46.4280 C   0  0  0  0  0  0  0  0  0  0  0  0
   59.5670   27.9890   45.8650 C   0  0  0  0  0  0  0  0  0  0  0  0
   58.3700   28.1050   45.1330 C   0  0  0  0  0  0  0  0  0  0  0  0
   57.7450   26.9340   44.5830 N   0  0  0  0  0  0  0  0  0  0  0  0
   57.6980   25.6330   45.1870 C   0  0  0  0  0  0  0  0  0  0  0  0
   58.7450   25.1730   45.7120 O   0  0  0  0  0  0  0  0  0  0  0  0
   56.4510   24.8350   45.2400 C   0  0  0  0  0  0  0  0  0  0  0  0
   56.4860   23.4700   44.9170 C   0  0  0  0  0  0  0  0  0  0  0  0
   55.3160   22.7100   44.9470 C   0  0  0  0  0  0  0  0  0  0  0  0
   54.1150   23.3200   45.3130 C   0  0  0  0  0  0  0  0  0  0  0  0
   53.0490   22.6510   45.3410 O   0  0  0  0  0  0  0  0  0  0  0  0
   54.0950   24.6370   45.6460 N   0  0  0  0  0  0  0  0  0  0  0  0
   55.2210   25.4030   45.6270 C   0  0  0  0  0  0  0  0  0  0  0  0
   55.1440   26.7380   46.0170 O   0  0  0  0  0  0  0  0  0  0  0  0
   55.1250   28.6830   45.6770 H   0  0  0  0  0  0  0  0  0  0  0  0
   57.9146   31.4915   45.4801 H   0  0  0  0  0  0  0  0  0  0  0  0
   60.0557   31.2527   46.7251 H   0  0  0  0  0  0  0  0  0  0  0  0
   61.1101   29.0121   46.9865 H   0  0  0  0  0  0  0  0  0  0  0  0
   60.0327   27.0009   45.9940 H   0  0  0  0  0  0  0  0  0  0  0  0
   57.4395   22.9971   44.6390 H   0  0  0  0  0  0  0  0  0  0  0  0
   55.3399   21.6419   44.6851 H   0  0  0  0  0  0  0  0  0  0  0  0
   55.1340   27.4810   45.3290 H   0  0  0  0  0  0  0  0  0  0  0  0
  1  2  1  0
  2  3  2  0
  2  4  1  0
  4  5  2  0
  5  6  1  0
  6  7  2  0
  7  8  1  0
  8  9  2  0
  9 10  1  0
 10 11  1  0
 11 12  2  0
 11 13  1  0
 13 14  1  0
 14 15  2  0
 15 16  1  0
 16 17  2  0
 16 18  1  0
 18 19  1  0
 19 20  1  0
  9  4  1  0
 19 13  2  0
  1 21  1  0
  5 22  1  0
  6 23  1  0
  7 24  1  0
  8 25  1  0
 14 26  1  0
 15 27  1  0
 20 28  1  0
M  CHG  3   1  -1  10  -1  18  -1
M  END
>  <UniqueID>  (27) 
26

>  <SMILES>  (27) 
[NH-]C(=O)c1ccccc1[N-]C(=O)c1ccc(=O)[n-]c1O

>  <Energy>  (27) 
40.09163326770423

>  <Genealogy>  (27) 
[NH-]C(=O)c1ccccc1[N-]C(=O)c1ccc(=O)[n-]c1O (protonated)
[NH-]C(=O)c1ccccc1[N-]C(=O)c1ccc(=O)[n-]c1O (3D coordinates assigned)
[NH-]C(=O)c1ccccc1[N-]C(=O)c1ccc(=O)[n-]c1O (optimized conformer: 40.09163326770423 kcal/mol)

>  <smiles>  (27) 
NC(=O)c1ccccc1NC(=O)c1ccc(=O)[nH]c1O

>  <score_type>  (27) 
oracle

>  <origin>  (27) 
adg

>  <m_score__min__energy>  (27) 
-13.92

>  <m_primary>  (27) 
energy

$$$$
27:0
     RDKit          3D

 32 35  0  0  0  0  0  0  0  0999 V2000
   58.4840   30.6980   47.6410 O   0  0  0  0  0  0  0  0  0  0  0  0
   58.4110   31.4700   46.6490 C   0  0  0  0  0  0  0  0  0  0  0  0
   58.9150   32.8370   46.6000 C   0  0  0  0  0  0  0  0  0  0  0  0
   59.5880   33.5960   47.5570 C   0  0  0  0  0  0  0  0  0  0  0  0
   59.9390   34.9170   47.2240 C   0  0  0  0  0  0  0  0  0  0  0  0
   59.6110   35.4480   45.9570 C   0  0  0  0  0  0  0  0  0  0  0  0
   58.9280   34.6630   45.0110 C   0  0  0  0  0  0  0  0  0  0  0  0
   58.5940   33.3570   45.3640 C   0  0  0  0  0  0  0  0  0  0  0  0
   57.8860   32.3210   44.6200 C   0  0  0  0  0  0  0  0  0  0  0  0
   57.4140   32.4450   43.4590 O   0  0  0  0  0  0  0  0  0  0  0  0
   57.7870   31.1310   45.4070 N   0  0  0  0  0  0  0  0  0  0  0  0
   56.8800   30.0100   45.1770 C   0  0  0  0  0  0  0  0  0  0  0  0
   57.6050   28.7100   45.3770 C   0  0  0  0  0  0  0  0  0  0  0  0
   58.9730   28.7070   45.3960 N   0  0  0  0  0  0  0  0  0  0  0  0
   59.6880   27.5700   45.6140 C   0  0  0  0  0  0  0  0  0  0  0  0
   60.9480   27.6000   45.6190 O   0  0  0  0  0  0  0  0  0  0  0  0
   58.9920   26.3830   45.8330 C   0  0  0  0  0  0  0  0  0  0  0  0
   59.4900   25.1190   46.0800 C   0  0  0  0  0  0  0  0  0  0  0  0
   58.3790   24.3020   46.2300 C   0  0  0  0  0  0  0  0  0  0  0  0
   57.2600   25.1040   46.0710 C   0  0  0  0  0  0  0  0  0  0  0  0
   55.4570   24.4710   46.1870 Br  0  0  0  0  0  0  0  0  0  0  0  0
   57.6460   26.3740   45.8270 N   0  0  0  0  0  0  0  0  0  0  0  0
   56.9120   27.5020   45.6090 C   0  0  0  0  0  0  0  0  0  0  0  0
   55.5220   27.4640   45.6130 O   0  0  0  0  0  0  0  0  0  0  0  0
   59.8368   33.1746   48.5422 H   0  0  0  0  0  0  0  0  0  0  0  0
   60.4729   35.5410   47.9558 H   0  0  0  0  0  0  0  0  0  0  0  0
   59.8916   36.4822   45.7086 H   0  0  0  0  0  0  0  0  0  0  0  0
   58.6654   35.0676   44.0224 H   0  0  0  0  0  0  0  0  0  0  0  0
   56.0399   30.0706   45.8845 H   0  0  0  0  0  0  0  0  0  0  0  0
   56.5039   30.0573   44.1444 H   0  0  0  0  0  0  0  0  0  0  0  0
   60.5472   24.8219   46.1444 H   0  0  0  0  0  0  0  0  0  0  0  0
   58.3851   23.2215   46.4362 H   0  0  0  0  0  0  0  0  0  0  0  0
  1  2  2  0
  2  3  1  0
  3  4  2  0
  4  5  1  0
  5  6  2  0
  6  7  1  0
  7  8  2  0
  8  9  1  0
  9 10  2  0
  9 11  1  0
 11 12  1  0
 12 13  1  0
 13 14  1  0
 14 15  1  0
 15 16  2  0
 15 17  1  0
 17 18  2  0
 18 19  1  0
 19 20  2  0
 20 21  1  0
 20 22  1  0
 22 23  1  0
 23 24  1  0
 11  2  1  0
 23 13  2  0
  8  3  1  0
 22 17  1  0
  4 25  1  0
  5 26  1  0
  6 27  1  0
  7 28  1  0
 12 29  1  0
 12 30  1  0
 18 31  1  0
 19 32  1  0
M  CHG  2  14  -1  24  -1
M  END
>  <UniqueID>  (28) 
27

>  <SMILES>  (28) 
O=C1c2ccccc2C(=O)N1Cc1[n-]c(=O)c2ccc(Br)n2c1[O-]

>  <Energy>  (28) 
102.19864032091891

>  <Genealogy>  (28) 
O=C1c2ccccc2C(=O)N1Cc1[n-]c(=O)c2ccc(Br)n2c1[O-] (protonated)
O=C1c2ccccc2C(=O)N1Cc1[n-]c(=O)c2ccc(Br)n2c1[O-] (3D coordinates assigned)
O=C1c2ccccc2C(=O)N1Cc1[n-]c(=O)c2ccc(Br)n2c1[O-] (nonaromatic ring conformer: 102.19864032091891 kcal/mol)

>  <smiles>  (28) 
O=C1c2ccccc2C(=O)N1Cc1[nH]c(=O)c2ccc(Br)n2c1O

>  <score_type>  (28) 
oracle

>  <origin>  (28) 
adg

>  <m_score__min__energy>  (28) 
-11.66

>  <m_primary>  (28) 
energy

$$$$
28:0
     RDKit          3D

 56 59  0  0  0  0  0  0  0  0999 V2000
   66.9450   29.7370   51.3250 C   0  0  0  0  0  0  0  0  0  0  0  0
   67.5640   31.1310   51.4000 C   0  0  0  0  0  0  0  0  0  0  0  0
   66.6150   32.1550   51.9710 C   0  0  0  0  0  0  0  0  0  0  0  0
   66.5350   32.3000   53.2230 O   0  0  0  0  0  0  0  0  0  0  0  0
   65.7590   32.9340   51.1090 N   0  0  0  0  0  0  0  0  0  0  0  0
   65.2040   32.3780   49.8680 C   0  0  0  0  0  0  0  0  0  0  0  0
   63.6940   32.1930   50.0330 C   0  0  0  0  0  0  0  0  0  0  0  0
   63.0860   33.4310   50.5470 N   0  0  0  0  0  0  0  0  0  0  0  0
   61.7430   33.7830   50.1640 C   0  0  0  0  0  0  0  0  0  0  0  0
   60.9000   34.0700   51.0580 O   0  0  0  0  0  0  0  0  0  0  0  0
   61.3370   33.8400   48.7390 C   0  0  0  0  0  0  0  0  0  0  0  0
   62.3110   33.8480   47.7260 C   0  0  0  0  0  0  0  0  0  0  0  0
   61.9330   33.8880   46.3820 C   0  0  0  0  0  0  0  0  0  0  0  0
   60.5820   33.9230   46.0320 C   0  0  0  0  0  0  0  0  0  0  0  0
   59.5950   33.9190   47.0300 C   0  0  0  0  0  0  0  0  0  0  0  0
   58.1390   33.9250   46.6560 C   0  0  0  0  0  0  0  0  0  0  0  0
   57.7770   32.6440   45.9740 C   0  0  0  0  0  0  0  0  0  0  0  0
   56.8860   32.5080   44.9140 C   0  0  0  0  0  0  0  0  0  0  0  0
   56.6790   31.2280   44.5040 N   0  0  0  0  0  0  0  0  0  0  0  0
   57.3950   30.3470   45.2340 C   0  0  0  0  0  0  0  0  0  0  0  0
   57.3180   29.0640   45.0350 N   0  0  0  0  0  0  0  0  0  0  0  0
   57.4230   28.0570   46.0510 C   0  0  0  0  0  0  0  0  0  0  0  0
   58.1090   28.2990   47.0790 O   0  0  0  0  0  0  0  0  0  0  0  0
   56.6970   26.7760   45.9600 C   0  0  0  0  0  0  0  0  0  0  0  0
   57.2720   25.5280   45.7830 C   0  0  0  0  0  0  0  0  0  0  0  0
   56.2320   24.6280   45.7250 C   0  0  0  0  0  0  0  0  0  0  0  0
   55.0840   25.3770   45.8590 C   0  0  0  0  0  0  0  0  0  0  0  0
   53.7910   24.8650   45.8550 O   0  0  0  0  0  0  0  0  0  0  0  0
   55.3520   26.6900   45.9970 N   0  0  0  0  0  0  0  0  0  0  0  0
   58.3010   31.1140   46.4380 S   0  0  0  0  0  0  0  0  0  0  0  0
   59.9780   33.8540   48.3800 C   0  0  0  0  0  0  0  0  0  0  0  0
   63.6710   34.0360   51.7510 C   0  0  0  0  0  0  0  0  0  0  0  0
   65.1820   34.2010   51.5700 C   0  0  0  0  0  0  0  0  0  0  0  0
   66.7757   29.3557   52.3428 H   0  0  0  0  0  0  0  0  0  0  0  0
   65.9859   29.7901   50.7891 H   0  0  0  0  0  0  0  0  0  0  0  0
   67.6276   29.0611   50.7891 H   0  0  0  0  0  0  0  0  0  0  0  0
   68.4592   31.0855   52.0377 H   0  0  0  0  0  0  0  0  0  0  0  0
   67.8130   31.4415   50.3745 H   0  0  0  0  0  0  0  0  0  0  0  0
   65.4016   33.0682   49.0346 H   0  0  0  0  0  0  0  0  0  0  0  0
   65.6749   31.4072   49.6540 H   0  0  0  0  0  0  0  0  0  0  0  0
   63.2489   31.9468   49.0577 H   0  0  0  0  0  0  0  0  0  0  0  0
   63.5071   31.3769   50.7465 H   0  0  0  0  0  0  0  0  0  0  0  0
   63.3777   33.8226   47.9932 H   0  0  0  0  0  0  0  0  0  0  0  0
   62.7028   33.8919   45.5963 H   0  0  0  0  0  0  0  0  0  0  0  0
   60.2904   33.9538   44.9718 H   0  0  0  0  0  0  0  0  0  0  0  0
   57.5305   34.0373   47.5654 H   0  0  0  0  0  0  0  0  0  0  0  0
   57.9473   34.7638   45.9707 H   0  0  0  0  0  0  0  0  0  0  0  0
   56.3878   33.3689   44.4442 H   0  0  0  0  0  0  0  0  0  0  0  0
   58.3456   25.3015   45.7045 H   0  0  0  0  0  0  0  0  0  0  0  0
   56.3030   23.5377   45.5981 H   0  0  0  0  0  0  0  0  0  0  0  0
   53.6110   23.9120   45.5590 H   0  0  0  0  0  0  0  0  0  0  0  0
   59.2071   33.8137   49.1636 H   0  0  0  0  0  0  0  0  0  0  0  0
   63.2144   35.0220   51.9223 H   0  0  0  0  0  0  0  0  0  0  0  0
   63.4791   33.3821   52.6145 H   0  0  0  0  0  0  0  0  0  0  0  0
   65.3787   34.9863   50.8253 H   0  0  0  0  0  0  0  0  0  0  0  0
   65.6381   34.4845   52.5300 H   0  0  0  0  0  0  0  0  0  0  0  0
  1  2  1  0
  2  3  1  0
  3  4  2  0
  3  5  1  0
  5  6  1  0
  6  7  1  0
  7  8  1  0
  8  9  1  0
  9 10  2  0
  9 11  1  0
 11 12  2  0
 12 13  1  0
 13 14  2  0
 14 15  1  0
 15 16  1  0
 16 17  1  0
 17 18  2  0
 18 19  1  0
 19 20  1  0
 20 21  2  3
 21 22  1  0
 22 23  2  0
 22 24  1  0
 24 25  2  0
 25 26  1  0
 26 27  2  0
 27 28  1  0
 27 29  1  0
 20 30  1  0
 15 31  2  0
  8 32  1  0
 32 33  1  0
 33  5  1  0
 31 11  1  0
 30 17  1  0
 29 24  1  0
  1 34  1  0
  1 35  1  0
  1 36  1  0
  2 37  1  0
  2 38  1  0
  6 39  1  0
  6 40  1  0
  7 41  1  0
  7 42  1  0
 12 43  1  0
 13 44  1  0
 14 45  1  0
 16 46  1  0
 16 47  1  0
 18 48  1  0
 25 49  1  0
 26 50  1  0
 28 51  1  0
 31 52  1  0
 32 53  1  0
 32 54  1  0
 33 55  1  0
 33 56  1  0
M  CHG  2  19  -1  29  -1
M  END
>  <UniqueID>  (29) 
28

>  <SMILES>  (29) 
CCC(=O)N1CCN(C(=O)c2cccc(Cc3c[n-]c(=NC(=O)c4ccc(O)[n-]4)s3)c2)CC1

>  <Energy>  (29) 
121.27758608587281

>  <Genealogy>  (29) 
CCC(=O)N1CCN(C(=O)c2cccc(Cc3c[n-]c(=NC(=O)c4ccc(O)[n-]4)s3)c2)CC1 (protonated)
CCC(=O)N1CCN(C(=O)c2cccc(Cc3c[n-]c(=NC(=O)c4ccc(O)[n-]4)s3)c2)CC1 (3D coordinates assigned)
CCC(=O)N1CCN(C(=O)c2cccc(Cc3c[n-]c(=NC(=O)c4ccc(O)[n-]4)s3)c2)CC1 (nonaromatic ring conformer: 121.27758608587281 kcal/mol)

>  <smiles>  (29) 
CCC(=O)N1CCN(C(=O)c2cccc(Cc3c[nH]c(=NC(=O)c4ccc(O)[nH]4)s3)c2)CC1

>  <score_type>  (29) 
oracle

>  <origin>  (29) 
adg

>  <m_score__min__energy>  (29) 
-13.17

>  <m_primary>  (29) 
energy

$$$$
29:0
     RDKit          3D

 47 50  0  0  0  0  0  0  0  0999 V2000
   55.8480   29.7330   43.2770 C   0  0  0  0  0  0  0  0  0  0  0  0
   56.7230   29.5360   44.2660 C   0  0  0  0  0  0  0  0  0  0  0  0
   56.7800   28.3960   44.9820 N   0  0  0  0  0  0  0  0  0  0  0  0
   57.7140   28.5780   45.9390 C   0  0  0  0  0  0  0  0  0  0  0  0
   58.0450   27.6250   46.8230 C   0  0  0  0  0  0  0  0  0  0  0  0
   57.3630   26.3230   46.9370 C   0  0  0  0  0  0  0  0  0  0  0  0
   57.9830   25.2000   47.3410 N   0  0  0  0  0  0  0  0  0  0  0  0
   57.0270   24.2530   47.2180 C   0  0  0  0  0  0  0  0  0  0  0  0
   57.2270   23.0470   47.5200 O   0  0  0  0  0  0  0  0  0  0  0  0
   55.8470   24.6970   46.7380 N   0  0  0  0  0  0  0  0  0  0  0  0
   56.0780   26.0070   46.5530 C   0  0  0  0  0  0  0  0  0  0  0  0
   55.1490   26.8790   45.9980 O   0  0  0  0  0  0  0  0  0  0  0  0
   58.2760   29.8430   45.8260 C   0  0  0  0  0  0  0  0  0  0  0  0
   57.6540   30.4500   44.7500 C   0  0  0  0  0  0  0  0  0  0  0  0
   57.9520   31.8090   44.2580 C   0  0  0  0  0  0  0  0  0  0  0  0
   57.7450   32.0780   43.0440 O   0  0  0  0  0  0  0  0  0  0  0  0
   58.4410   32.8340   45.1400 N   0  0  0  0  0  0  0  0  0  0  0  0
   58.0240   34.2270   44.9340 C   0  0  0  0  0  0  0  0  0  0  0  0
   59.1870   35.2040   45.1910 C   0  0  0  0  0  0  0  0  0  0  0  0
   60.1770   34.7260   46.2740 C   0  0  0  0  0  0  0  0  0  0  0  0
   59.5530   33.6740   47.2060 C   0  0  2  0  0  0  0  0  0  0  0  0
   60.4790   33.3020   48.3860 C   0  0  0  0  0  0  0  0  0  0  0  0
   61.7840   32.8140   47.9440 N   0  0  0  0  0  0  0  0  0  0  0  0
   62.0810   31.5720   47.5130 C   0  0  0  0  0  0  0  0  0  0  0  0
   63.4260   31.5700   47.2090 C   0  0  0  0  0  0  0  0  0  0  0  0
   63.8910   32.8080   47.4600 N   0  0  0  0  0  0  0  0  0  0  0  0
   62.8850   33.5480   47.9010 N   0  0  0  0  0  0  0  0  0  0  0  0
   59.1280   32.4430   46.3810 C   0  0  0  0  0  0  0  0  0  0  0  0
   55.8465   30.6847   42.7254 H   0  0  0  0  0  0  0  0  0  0  0  0
   55.1286   28.9436   43.0138 H   0  0  0  0  0  0  0  0  0  0  0  0
   56.1960   27.5420   44.8380 H   0  0  0  0  0  0  0  0  0  0  0  0
   58.8809   27.8285   47.5085 H   0  0  0  0  0  0  0  0  0  0  0  0
   59.0597   30.2760   46.4650 H   0  0  0  0  0  0  0  0  0  0  0  0
   57.6774   34.3475   43.8970 H   0  0  0  0  0  0  0  0  0  0  0  0
   57.2155   34.4557   45.6440 H   0  0  0  0  0  0  0  0  0  0  0  0
   59.7410   35.3382   44.2502 H   0  0  0  0  0  0  0  0  0  0  0  0
   58.7420   36.1413   45.5563 H   0  0  0  0  0  0  0  0  0  0  0  0
   61.0563   34.2858   45.7810 H   0  0  0  0  0  0  0  0  0  0  0  0
   60.4557   35.5968   46.8855 H   0  0  0  0  0  0  0  0  0  0  0  0
   58.6564   34.1106   47.6703 H   0  0  0  0  0  0  0  0  0  0  0  0
   60.6298   34.1948   49.0106 H   0  0  0  0  0  0  0  0  0  0  0  0
   59.9929   32.4910   48.9482 H   0  0  0  0  0  0  0  0  0  0  0  0
   61.3856   30.7246   47.4215 H   0  0  0  0  0  0  0  0  0  0  0  0
   64.0094   30.7170   46.8322 H   0  0  0  0  0  0  0  0  0  0  0  0
   64.8700   33.1470   47.3360 H   0  0  0  0  0  0  0  0  0  0  0  0
   60.0239   31.8586   46.1243 H   0  0  0  0  0  0  0  0  0  0  0  0
   58.4305   31.8464   46.9873 H   0  0  0  0  0  0  0  0  0  0  0  0
  1  2  2  0
  2  3  1  0
  3  4  1  0
  4  5  2  3
  5  6  1  0
  6  7  1  0
  7  8  1  0
  8  9  2  0
  8 10  1  0
 10 11  1  0
 11 12  1  0
  4 13  1  0
 13 14  2  0
 14 15  1  0
 15 16  2  0
 15 17  1  0
 17 18  1  0
 18 19  1  0
 19 20  1  0
 20 21  1  0
 21 22  1  0
 22 23  1  0
 23 24  1  0
 24 25  2  0
 25 26  1  0
 26 27  2  0
 21 28  1  0
 14  2  1  0
 28 17  1  0
 11  6  2  0
 27 23  1  0
  1 29  1  0
  1 30  1  0
  3 31  1  0
  5 32  1  0
 13 33  1  0
 18 34  1  0
 18 35  1  0
 19 36  1  0
 19 37  1  0
 20 38  1  0
 20 39  1  0
 21 40  1  1
 22 41  1  0
 22 42  1  0
 24 43  1  0
 25 44  1  0
 26 45  1  0
 28 46  1  0
 28 47  1  0
M  CHG  4   7  -1  10  -1  12  -1  26   1
M  END
>  <UniqueID>  (30) 
29

>  <SMILES>  (30) 
C=c1[nH]c(=Cc2[n-]c(=O)[n-]c2[O-])cc1C(=O)N1CCC[C@H](Cn2cc[nH+]n2)C1

>  <Energy>  (30) 
151.208992336392

>  <Genealogy>  (30) 
C=c1[nH]c(=Cc2[n-]c(=O)[n-]c2[O-])cc1C(=O)N1CCCC(Cn2cc[nH+]n2)C1 (protonated)
C=c1[nH]c(=Cc2[n-]c(=O)[n-]c2[O-])cc1C(=O)N1CCC[C@H](Cn2cc[nH+]n2)C1 (chirality)
C=c1[nH]c(=Cc2[n-]c(=O)[n-]c2[O-])cc1C(=O)N1CCC[C@H](Cn2cc[nH+]n2)C1 (3D coordinates assigned)
C=c1[nH]c(=Cc2[n-]c(=O)[n-]c2[O-])cc1C(=O)N1CCC[C@H](Cn2cc[nH+]n2)C1 (nonaromatic ring conformer: 151.208992336392 kcal/mol)

>  <smiles>  (30) 
C=c1[nH]c(=Cc2[nH]c(=O)[nH]c2O)cc1C(=O)N1CCCC(Cn2ccnn2)C1

>  <score_type>  (30) 
oracle

>  <origin>  (30) 
adg

>  <m_score__min__energy>  (30) 
-16.32

>  <m_primary>  (30) 
energy

$$$$
30:0
     RDKit          3D

 23 24  0  0  0  0  0  0  0  0999 V2000
   53.1543   31.7083   52.8841 H   0  0  0  0  0  0  0  0  0  0  0  0
   53.4190   31.1340   51.9840 C   0  0  0  0  0  0  0  0  0  0  0  0
   54.6150   30.5310   51.9220 C   0  0  0  0  0  0  0  0  0  0  0  0
   54.6959   29.6223   51.3074 H   0  0  0  0  0  0  0  0  0  0  0  0
   55.8410   31.0000   52.6230 C   0  0  0  0  0  0  0  0  0  0  0  0
   56.2760   30.4770   53.8610 C   0  0  0  0  0  0  0  0  0  0  0  0
   55.6966   29.6816   54.3525 H   0  0  0  0  0  0  0  0  0  0  0  0
   57.4400   30.9650   54.4660 C   0  0  0  0  0  0  0  0  0  0  0  0
   57.7715   30.5509   55.4296 H   0  0  0  0  0  0  0  0  0  0  0  0
   58.1810   31.9740   53.8520 C   0  0  0  0  0  0  0  0  0  0  0  0
   59.0947   32.3549   54.3316 H   0  0  0  0  0  0  0  0  0  0  0  0
   57.7630   32.5010   52.6280 C   0  0  0  0  0  0  0  0  0  0  0  0
   58.3480   33.2968   52.1437 H   0  0  0  0  0  0  0  0  0  0  0  0
   56.6020   32.0180   52.0180 C   0  0  0  0  0  0  0  0  0  0  0  0
   56.2792   32.4382   51.0540 H   0  0  0  0  0  0  0  0  0  0  0  0
   52.4500   31.0470   50.8770 C   0  0  0  0  0  0  0  0  0  0  0  0
   52.4210   30.0690   49.9470 N   0  0  0  0  0  0  0  0  0  0  0  0
   51.3790   30.4120   49.1590 C   0  0  0  0  0  0  0  0  0  0  0  0
   51.0250   29.7340   48.1580 O   0  0  0  0  0  0  0  0  0  0  0  0
   50.7520   31.5430   49.5380 N   0  0  0  0  0  0  0  0  0  0  0  0
   49.9290   32.0040   49.0930 H   0  0  0  0  0  0  0  0  0  0  0  0
   51.4320   31.9390   50.6230 C   0  0  0  0  0  0  0  0  0  0  0  0
   51.1330   33.0800   51.3590 O   0  0  0  0  0  0  0  0  0  0  0  0
  1  2  1  0
  2  3  2  0
  3  4  1  0
  3  5  1  0
  5  6  2  0
  6  7  1  0
  6  8  1  0
  8  9  1  0
  8 10  2  0
 10 11  1  0
 10 12  1  0
 12 13  1  0
 12 14  2  0
 14 15  1  0
  2 16  1  0
 16 17  1  0
 17 18  1  0
 18 19  2  0
 18 20  1  0
 20 21  1  0
 20 22  1  0
 22 23  1  0
 14  5  1  0
 22 16  2  0
M  CHG  2  17  -1  23  -1
M  END
>  <UniqueID>  (31) 
30

>  <SMILES>  (31) 
O=c1[n-]c(/C=C/c2ccccc2)c([O-])[nH]1

>  <Energy>  (31) 
56.44794180979345

>  <Genealogy>  (31) 
O=c1[n-]c(C=Cc2ccccc2)c([O-])[nH]1 (protonated)
O=c1[n-]c(/C=C/c2ccccc2)c([O-])[nH]1 (cis-trans isomerization)
O=c1[n-]c(/C=C/c2ccccc2)c([O-])[nH]1 (3D coordinates assigned)
O=c1[n-]c(/C=C/c2ccccc2)c([O-])[nH]1 (optimized conformer: 56.44794180979345 kcal/mol)

>  <smiles>  (31) 
O=c1[nH]c(O)c(C=Cc2ccccc2)[nH]1

>  <score_type>  (31) 
oracle

>  <origin>  (31) 
adg

>  <m_score__min__energy>  (31) 
-12.699999999999999

>  <m_primary>  (31) 
energy

$$$$
31:0
     RDKit          3D

 34 35  0  0  0  0  0  0  0  0999 V2000
   57.4640   33.3580   45.1610 C   0  0  0  0  0  0  0  0  0  0  0  0
   57.7930   32.0650   45.2280 C   0  0  0  0  0  0  0  0  0  0  0  0
   57.0460   31.0160   44.4520 C   0  0  0  0  0  0  0  0  0  0  0  0
   57.2270   29.6560   45.0810 C   0  0  0  0  0  0  0  0  0  0  0  0
   58.4490   29.3410   45.6990 C   0  0  0  0  0  0  0  0  0  0  0  0
   58.6460   28.0900   46.3030 C   0  0  0  0  0  0  0  0  0  0  0  0
   59.9360   27.7740   46.9550 C   0  0  0  0  0  0  0  0  0  0  0  0
   60.7680   27.0430   46.3500 O   0  0  0  0  0  0  0  0  0  0  0  0
   60.2430   28.2640   48.2710 N   0  0  0  0  0  0  0  0  0  0  0  0
   60.5000   27.4120   49.4220 C   0  0  0  0  0  0  0  0  0  0  0  0
   61.1950   28.3410   50.4290 C   0  0  0  0  0  0  0  0  0  0  0  0
   61.2940   29.6280   49.7530 N   0  0  0  0  0  0  0  0  0  0  0  0
   60.7610   29.5510   48.5840 C   0  0  0  0  0  0  0  0  0  0  0  0
   60.7310   30.7190   47.6510 C   0  0  0  0  0  0  0  0  0  0  0  0
   57.5930   27.1620   46.3180 C   0  0  0  0  0  0  0  0  0  0  0  0
   56.3680   27.4650   45.7170 C   0  0  0  0  0  0  0  0  0  0  0  0
   55.3460   26.5180   45.7530 O   0  0  0  0  0  0  0  0  0  0  0  0
   56.1810   28.7120   45.0960 C   0  0  0  0  0  0  0  0  0  0  0  0
   54.9590   29.0080   44.5010 O   0  0  0  0  0  0  0  0  0  0  0  0
   58.0310   34.1006   45.7416 H   0  0  0  0  0  0  0  0  0  0  0  0
   56.6261   33.6801   44.5252 H   0  0  0  0  0  0  0  0  0  0  0  0
   58.6335   31.7594   45.8685 H   0  0  0  0  0  0  0  0  0  0  0  0
   55.9756   31.2690   44.4411 H   0  0  0  0  0  0  0  0  0  0  0  0
   57.4421   30.9864   43.4262 H   0  0  0  0  0  0  0  0  0  0  0  0
   59.2604   30.0836   45.7094 H   0  0  0  0  0  0  0  0  0  0  0  0
   59.5589   27.0213   49.8364 H   0  0  0  0  0  0  0  0  0  0  0  0
   61.1104   26.5328   49.1682 H   0  0  0  0  0  0  0  0  0  0  0  0
   60.5962   28.4322   51.3472 H   0  0  0  0  0  0  0  0  0  0  0  0
   62.1807   27.9574   50.7311 H   0  0  0  0  0  0  0  0  0  0  0  0
   60.7070   31.6524   48.2326 H   0  0  0  0  0  0  0  0  0  0  0  0
   61.6298   30.7050   47.0170 H   0  0  0  0  0  0  0  0  0  0  0  0
   59.8341   30.6589   47.0170 H   0  0  0  0  0  0  0  0  0  0  0  0
   57.7332   26.1869   46.8074 H   0  0  0  0  0  0  0  0  0  0  0  0
   54.3910   26.7630   45.9850 H   0  0  0  0  0  0  0  0  0  0  0  0
  1  2  2  0
  2  3  1  0
  3  4  1  0
  4  5  2  0
  5  6  1  0
  6  7  1  0
  7  8  2  0
  7  9  1  0
  9 10  1  0
 10 11  1  0
 11 12  1  0
 12 13  2  0
 13 14  1  0
  6 15  2  0
 15 16  1  0
 16 17  1  0
 16 18  2  0
 18 19  1  0
 18  4  1  0
 13  9  1  0
  1 20  1  0
  1 21  1  0
  2 22  1  0
  3 23  1  0
  3 24  1  0
  5 25  1  0
 10 26  1  0
 10 27  1  0
 11 28  1  0
 11 29  1  0
 14 30  1  0
 14 31  1  0
 14 32  1  0
 15 33  1  0
 17 34  1  0
M  CHG  1  19  -1
M  END
>  <UniqueID>  (32) 
31

>  <SMILES>  (32) 
C=CCc1cc(C(=O)N2CCN=C2C)cc(O)c1[O-]

>  <Energy>  (32) 
47.42455273496456

>  <Genealogy>  (32) 
C=CCc1cc(C(=O)N2CCN=C2C)cc(O)c1[O-] (protonated)
C=CCc1cc(C(=O)N2CCN=C2C)cc(O)c1[O-] (3D coordinates assigned)
C=CCc1cc(C(=O)N2CCN=C2C)cc(O)c1[O-] (nonaromatic ring conformer: 47.42455273496456 kcal/mol)

>  <smiles>  (32) 
C=CCc1cc(C(=O)N2CCN=C2C)cc(O)c1O

>  <score_type>  (32) 
oracle

>  <origin>  (32) 
adg

>  <m_score__min__energy>  (32) 
-10.1

>  <m_primary>  (32) 
energy

$$$$
32:0
     RDKit          3D

 43 46  0  0  0  0  0  0  0  0999 V2000
   54.0480   26.7140   46.3880 H   0  0  0  0  0  0  0  0  0  0  0  0
   54.6280   26.0440   45.8350 N   0  0  0  0  0  0  0  0  0  0  0  0
   55.8910   25.5930   46.3210 C   0  0  0  0  0  0  0  0  0  0  0  0
   55.9920   24.4180   46.7660 O   0  0  0  0  0  0  0  0  0  0  0  0
   57.0700   26.4920   46.3040 C   0  0  0  0  0  0  0  0  0  0  0  0
   58.0020   26.4610   47.3570 C   0  0  0  0  0  0  0  0  0  0  0  0
   57.8645   25.7531   48.1876 H   0  0  0  0  0  0  0  0  0  0  0  0
   59.1020   27.3240   47.3550 C   0  0  0  0  0  0  0  0  0  0  0  0
   60.2670   27.2940   48.7180 S   0  0  0  0  0  0  0  0  0  0  0  0
   59.8490   28.9600   49.2180 C   0  0  0  0  0  0  0  0  0  0  0  0
   60.1280   30.3430   48.3020 S   0  0  0  0  0  0  0  0  0  0  0  0
   59.4850   31.3470   49.4880 C   0  0  0  0  0  0  0  0  0  0  0  0
   59.3770   32.6350   49.3490 N   0  0  0  0  0  0  0  0  0  0  0  0
   59.1260   33.3470   48.1260 C   0  0  0  0  0  0  0  0  0  0  0  0
   57.9710   33.0920   47.4490 N   0  0  0  0  0  0  0  0  0  0  0  0
   57.6750   33.6990   46.2690 C   0  0  0  0  0  0  0  0  0  0  0  0
   56.7263   33.4762   45.7587 H   0  0  0  0  0  0  0  0  0  0  0  0
   58.5750   34.6050   45.7050 C   0  0  0  0  0  0  0  0  0  0  0  0
   58.3378   35.1060   44.7549 H   0  0  0  0  0  0  0  0  0  0  0  0
   59.7790   34.8680   46.3600 C   0  0  0  0  0  0  0  0  0  0  0  0
   60.5006   35.5743   45.9238 H   0  0  0  0  0  0  0  0  0  0  0  0
   60.0660   34.2330   47.5700 C   0  0  0  0  0  0  0  0  0  0  0  0
   61.0195   34.4242   48.0841 H   0  0  0  0  0  0  0  0  0  0  0  0
   59.0440   30.6560   50.5640 N   0  0  0  0  0  0  0  0  0  0  0  0
   59.2520   29.3210   50.4180 C   0  0  0  0  0  0  0  0  0  0  0  0
   58.9705   28.5870   51.1874 H   0  0  0  0  0  0  0  0  0  0  0  0
   59.2930   28.2130   46.2940 C   0  0  0  0  0  0  0  0  0  0  0  0
   60.1570   28.8937   46.3003 H   0  0  0  0  0  0  0  0  0  0  0  0
   58.3910   28.2430   45.2220 C   0  0  0  0  0  0  0  0  0  0  0  0
   58.5960   29.1860   44.1570 N   0  0  0  0  0  0  0  0  0  0  0  0
   59.1590   28.8780   43.3330 H   0  0  0  0  0  0  0  0  0  0  0  0
   57.9710   30.4780   44.0940 C   0  0  0  0  0  0  0  0  0  0  0  0
   57.0810   30.8050   44.9260 O   0  0  0  0  0  0  0  0  0  0  0  0
   58.3860   31.4570   43.0370 C   0  0  0  0  0  0  0  0  0  0  0  0
   59.4198   31.0935   42.9415 H   0  0  0  0  0  0  0  0  0  0  0  0
   57.7320   32.8280   43.1350 C   0  0  0  0  0  0  0  0  0  0  0  0
   57.0706   33.0624   43.9821 H   0  0  0  0  0  0  0  0  0  0  0  0
   58.0971   33.8656   43.1327 H   0  0  0  0  0  0  0  0  0  0  0  0
   57.2800   31.8470   42.0680 C   0  0  0  0  0  0  0  0  0  0  0  0
   56.2910   31.3711   42.1422 H   0  0  0  0  0  0  0  0  0  0  0  0
   57.1822   31.8803   40.9729 H   0  0  0  0  0  0  0  0  0  0  0  0
   57.2690   27.3940   45.2430 C   0  0  0  0  0  0  0  0  0  0  0  0
   56.5395   27.4361   44.4207 H   0  0  0  0  0  0  0  0  0  0  0  0
  1  2  1  0
  2  3  1  0
  3  4  2  0
  3  5  1  0
  5  6  2  0
  6  7  1  0
  6  8  1  0
  8  9  1  0
  9 10  1  0
 10 11  1  0
 11 12  1  0
 12 13  2  0
 13 14  1  0
 14 15  2  0
 15 16  1  0
 16 17  1  0
 16 18  2  0
 18 19  1  0
 18 20  1  0
 20 21  1  0
 20 22  2  0
 22 23  1  0
 12 24  1  0
 24 25  1  0
 25 26  1  0
  8 27  2  0
 27 28  1  0
 27 29  1  0
 29 30  1  0
 30 31  1  0
 30 32  1  0
 32 33  2  0
 32 34  1  0
 34 35  1  0
 34 36  1  0
 36 37  1  0
 36 38  1  0
 36 39  1  0
 39 40  1  0
 39 41  1  0
 29 42  2  0
 42 43  1  0
 42  5  1  0
 25 10  2  0
 39 34  1  0
 22 14  1  0
M  CHG  2   2  -1  24  -1
M  END
>  <UniqueID>  (33) 
32

>  <SMILES>  (33) 
[NH-]C(=O)c1cc(NC(=O)C2CC2)cc(Sc2c[n-]/c(=N\c3ccccn3)s2)c1

>  <Energy>  (33) 
345.5446669241958

>  <Genealogy>  (33) 
[NH-]C(=O)c1cc(NC(=O)C2CC2)cc(Sc2c[n-]c(=Nc3ccccn3)s2)c1 (protonated)
[NH-]C(=O)c1cc(NC(=O)C2CC2)cc(Sc2c[n-]/c(=N\c3ccccn3)s2)c1 (cis-trans isomerization)
[NH-]C(=O)c1cc(NC(=O)C2CC2)cc(Sc2c[n-]/c(=N\c3ccccn3)s2)c1 (3D coordinates assigned)
[NH-]C(=O)c1cc(NC(=O)C2CC2)cc(Sc2c[n-]/c(=N\c3ccccn3)s2)c1 (nonaromatic ring conformer: 345.5446669241958 kcal/mol)

>  <smiles>  (33) 
NC(=O)c1cc(NC(=O)C2CC2)cc(Sc2c[nH]c(=Nc3ccccn3)s2)c1

>  <score_type>  (33) 
oracle

>  <origin>  (33) 
adg

>  <m_score__min__energy>  (33) 
-13.31

>  <m_primary>  (33) 
energy

$$$$
33:0
     RDKit          3D

 26 28  0  0  0  0  0  0  0  0999 V2000
   51.4130   32.8400   48.6730 H   0  0  0  0  0  0  0  0  0  0  0  0
   50.7120   32.4170   49.3220 N   0  0  0  0  0  0  0  0  0  0  0  0
   51.0690   31.9170   50.4600 C   0  0  0  0  0  0  0  0  0  0  0  0
   51.0220   32.6130   51.6140 N   0  0  0  0  0  0  0  0  0  0  0  0
   51.4690   31.7340   52.5290 C   0  0  0  0  0  0  0  0  0  0  0  0
   51.5726   31.9320   53.6061 H   0  0  0  0  0  0  0  0  0  0  0  0
   51.7770   30.5440   51.9010 C   0  0  0  0  0  0  0  0  0  0  0  0
   52.2470   29.2970   52.5370 C   0  0  0  0  0  0  0  0  0  0  0  0
   53.4560   29.0360   53.0470 C   0  0  0  0  0  0  0  0  0  0  0  0
   54.6720   29.8720   52.9620 C   0  0  0  0  0  0  0  0  0  0  0  0
   55.0490   30.4670   51.7460 C   0  0  0  0  0  0  0  0  0  0  0  0
   54.4268   30.3242   50.8502 H   0  0  0  0  0  0  0  0  0  0  0  0
   56.2120   31.2400   51.6700 C   0  0  0  0  0  0  0  0  0  0  0  0
   56.4971   31.7115   50.7179 H   0  0  0  0  0  0  0  0  0  0  0  0
   57.0120   31.4140   52.8020 C   0  0  0  0  0  0  0  0  0  0  0  0
   57.9247   32.0250   52.7417 H   0  0  0  0  0  0  0  0  0  0  0  0
   56.6530   30.8120   54.0110 C   0  0  0  0  0  0  0  0  0  0  0  0
   57.2854   30.9468   54.9009 H   0  0  0  0  0  0  0  0  0  0  0  0
   55.4900   30.0380   54.0910 C   0  0  0  0  0  0  0  0  0  0  0  0
   55.2156   29.5579   55.0419 H   0  0  0  0  0  0  0  0  0  0  0  0
   53.4000   27.6950   53.6330 C   0  0  0  0  0  0  0  0  0  0  0  0
   54.3660   27.1100   54.1900 O   0  0  0  0  0  0  0  0  0  0  0  0
   52.1200   27.0970   53.4720 N   0  0  0  0  0  0  0  0  0  0  0  0
   51.4140   28.1170   52.7790 C   0  0  0  0  0  0  0  0  0  0  0  0
   50.2070   28.0040   52.4370 O   0  0  0  0  0  0  0  0  0  0  0  0
   51.5120   30.6500   50.5860 N   0  0  0  0  0  0  0  0  0  0  0  0
  1  2  1  0
  2  3  2  0
  3  4  1  0
  4  5  1  0
  5  6  1  0
  5  7  2  0
  7  8  1  0
  8  9  2  0
  9 10  1  0
 10 11  2  0
 11 12  1  0
 11 13  1  0
 13 14  1  0
 13 15  2  0
 15 16  1  0
 15 17  1  0
 17 18  1  0
 17 19  2  0
 19 20  1  0
  9 21  1  0
 21 22  2  0
 21 23  1  0
 23 24  1  0
 24 25  2  0
  7 26  1  0
 26  3  1  0
 24  8  1  0
 19 10  1  0
M  CHG  3   4  -1  23  -1  26  -1
M  END
>  <UniqueID>  (34) 
33

>  <SMILES>  (34) 
[H]/N=c1\[n-]cc(C2=C(c3ccccc3)C(=O)[N-]C2=O)[n-]1

>  <Energy>  (34) 
88.43265902876753

>  <Genealogy>  (34) 
N=c1[n-]cc(C2=C(c3ccccc3)C(=O)[N-]C2=O)[n-]1 (protonated)
[H]/N=c1\[n-]cc(C2=C(c3ccccc3)C(=O)[N-]C2=O)[n-]1 (cis-trans isomerization)
[H]/N=c1\[n-]cc(C2=C(c3ccccc3)C(=O)[N-]C2=O)[n-]1 (3D coordinates assigned)
[H]/N=c1\[n-]cc(C2=C(c3ccccc3)C(=O)[N-]C2=O)[n-]1 (nonaromatic ring conformer: 88.43265902876753 kcal/mol)

>  <smiles>  (34) 
N=c1[nH]cc(C2=C(c3ccccc3)C(=O)NC2=O)[nH]1

>  <score_type>  (34) 
oracle

>  <origin>  (34) 
adg

>  <m_score__min__energy>  (34) 
-12.24

>  <m_primary>  (34) 
energy

$$$$
34:0
     RDKit          3D

 35 37  0  0  0  0  0  0  0  0999 V2000
   57.5110   27.7210   44.1050 C   0  0  0  0  0  0  0  0  0  0  0  0
   57.9080   28.0480   45.3430 C   0  0  0  0  0  0  0  0  0  0  0  0
   57.8730   27.2540   46.4990 C   0  0  0  0  0  0  0  0  0  0  0  0
   57.6510   25.9340   46.6420 C   0  0  0  0  0  0  0  0  0  0  0  0
   56.6640   25.1400   45.8910 C   0  0  0  0  0  0  0  0  0  0  0  0
   56.8510   23.8720   45.4800 N   0  0  0  0  0  0  0  0  0  0  0  0
   55.6460   23.5290   44.9770 C   0  0  0  0  0  0  0  0  0  0  0  0
   55.4200   22.3980   44.4710 O   0  0  0  0  0  0  0  0  0  0  0  0
   54.6990   24.4860   45.0670 N   0  0  0  0  0  0  0  0  0  0  0  0
   55.3580   25.4940   45.6610 C   0  0  0  0  0  0  0  0  0  0  0  0
   54.7730   26.7100   45.9930 O   0  0  0  0  0  0  0  0  0  0  0  0
   58.1250   28.0330   47.5730 N   0  0  0  0  0  0  0  0  0  0  0  0
   58.3560   29.2550   47.0560 C   0  0  0  0  0  0  0  0  0  0  0  0
   58.6210   30.2570   47.7720 O   0  0  0  0  0  0  0  0  0  0  0  0
   58.2600   29.3030   45.7120 N   0  0  0  0  0  0  0  0  0  0  0  0
   58.3530   30.5080   44.8800 C   0  0  0  0  0  0  0  0  0  0  0  0
   57.0300   31.2020   44.8270 C   0  0  0  0  0  0  0  0  0  0  0  0
   55.9990   30.5570   44.4930 O   0  0  0  0  0  0  0  0  0  0  0  0
   56.9590   32.6070   45.0980 N   0  0  0  0  0  0  0  0  0  0  0  0
   57.9860   33.4100   45.6980 C   0  0  0  0  0  0  0  0  0  0  0  0
   58.6400   34.4350   44.9870 C   0  0  0  0  0  0  0  0  0  0  0  0
   59.6170   35.2120   45.6170 C   0  0  0  0  0  0  0  0  0  0  0  0
   59.9390   34.9840   46.9580 C   0  0  0  0  0  0  0  0  0  0  0  0
   59.2760   33.9840   47.6760 C   0  0  0  0  0  0  0  0  0  0  0  0
   59.6680   33.7090   49.3630 Cl  0  0  0  0  0  0  0  0  0  0  0  0
   58.2970   33.2050   47.0480 C   0  0  0  0  0  0  0  0  0  0  0  0
   57.5986   28.4525   43.2881 H   0  0  0  0  0  0  0  0  0  0  0  0
   57.0976   26.7212   43.9061 H   0  0  0  0  0  0  0  0  0  0  0  0
   58.2612   25.4010   47.3861 H   0  0  0  0  0  0  0  0  0  0  0  0
   59.1034   31.1885   45.3087 H   0  0  0  0  0  0  0  0  0  0  0  0
   58.6476   30.2185   43.8605 H   0  0  0  0  0  0  0  0  0  0  0  0
   58.3818   34.6245   43.9347 H   0  0  0  0  0  0  0  0  0  0  0  0
   60.1335   36.0047   45.0559 H   0  0  0  0  0  0  0  0  0  0  0  0
   60.7140   35.5913   47.4484 H   0  0  0  0  0  0  0  0  0  0  0  0
   57.7687   32.4269   47.6185 H   0  0  0  0  0  0  0  0  0  0  0  0
  1  2  2  0
  2  3  1  0
  3  4  2  3
  4  5  1  0
  5  6  1  0
  6  7  1  0
  7  8  2  0
  7  9  1  0
  9 10  1  0
 10 11  1  0
  3 12  1  0
 12 13  1  0
 13 14  2  0
 13 15  1  0
 15 16  1  0
 16 17  1  0
 17 18  2  0
 17 19  1  0
 19 20  1  0
 20 21  2  0
 21 22  1  0
 22 23  2  0
 23 24  1  0
 24 25  1  0
 24 26  2  0
 15  2  1  0
 26 20  1  0
 10  5  2  0
  1 27  1  0
  1 28  1  0
  4 29  1  0
 16 30  1  0
 16 31  1  0
 21 32  1  0
 22 33  1  0
 23 34  1  0
 26 35  1  0
M  CHG  5   6  -1   9  -1  11  -1  12  -1  19  -1
M  END
>  <UniqueID>  (35) 
34

>  <SMILES>  (35) 
C=c1c(=Cc2[n-]c(=O)[n-]c2[O-])[n-]c(=O)n1CC(=O)[N-]c1cccc(Cl)c1

>  <Energy>  (35) 
112.40589834163507

>  <Genealogy>  (35) 
C=c1c(=Cc2[n-]c(=O)[n-]c2[O-])[n-]c(=O)n1CC(=O)[N-]c1cccc(Cl)c1 (protonated)
C=c1c(=Cc2[n-]c(=O)[n-]c2[O-])[n-]c(=O)n1CC(=O)[N-]c1cccc(Cl)c1 (3D coordinates assigned)
C=c1c(=Cc2[n-]c(=O)[n-]c2[O-])[n-]c(=O)n1CC(=O)[N-]c1cccc(Cl)c1 (optimized conformer: 112.40589834163507 kcal/mol)

>  <smiles>  (35) 
C=c1c(=Cc2[nH]c(=O)[nH]c2O)[nH]c(=O)n1CC(=O)Nc1cccc(Cl)c1

>  <score_type>  (35) 
oracle

>  <origin>  (35) 
adg

>  <m_score__min__energy>  (35) 
-18.43

>  <m_primary>  (35) 
energy

$$$$
35:0
     RDKit          3D

 49 52  0  0  0  0  0  0  0  0999 V2000
   58.1480   33.7180   52.3640 C   0  0  0  0  0  0  0  0  0  0  0  0
   57.9450   32.4270   51.7160 N   0  0  0  0  0  0  0  0  0  0  0  0
   57.0670   31.4740   52.0880 C   0  0  0  0  0  0  0  0  0  0  0  0
   57.1840   30.3440   51.3590 N   0  0  0  0  0  0  0  0  0  0  0  0
   58.1900   30.6010   50.4980 C   0  0  0  0  0  0  0  0  0  0  0  0
   58.6670   31.8740   50.7220 C   0  0  0  0  0  0  0  0  0  0  0  0
   59.8040   32.5350   49.9930 C   0  0  0  0  0  0  0  0  0  0  0  0
   59.3000   33.4440   48.9440 N   0  0  0  0  0  0  0  0  0  0  0  0
   60.3890   34.2100   48.3000 C   0  0  0  0  0  0  0  0  0  0  0  0
   59.8660   35.0110   47.1110 C   0  0  0  0  0  0  0  0  0  0  0  0
   59.2580   34.1100   46.0250 C   0  0  0  0  0  0  0  0  0  0  0  0
   58.8370   32.6970   46.5280 C   0  0  2  0  0  0  0  0  0  0  0  0
   59.9610   31.6420   46.3760 C   0  0  0  0  0  0  0  0  0  0  0  0
   59.2670   30.3330   46.0270 C   0  0  0  0  0  0  0  0  0  0  0  0
   57.9480   30.6980   45.5410 N   0  0  0  0  0  0  0  0  0  0  0  0
   56.9880   29.8030   44.9390 C   0  0  0  0  0  0  0  0  0  0  0  0
   55.9010   30.2840   44.5160 O   0  0  0  0  0  0  0  0  0  0  0  0
   57.2160   28.3380   44.7990 C   0  0  0  0  0  0  0  0  0  0  0  0
   57.9200   27.8230   43.6940 C   0  0  0  0  0  0  0  0  0  0  0  0
   58.1280   26.4840   43.5910 N   0  0  0  0  0  0  0  0  0  0  0  0
   57.6660   25.6240   44.5340 C   0  0  0  0  0  0  0  0  0  0  0  0
   56.9570   26.1230   45.6250 C   0  0  0  0  0  0  0  0  0  0  0  0
   56.7510   27.4620   45.7310 N   0  0  0  0  0  0  0  0  0  0  0  0
   57.7070   32.1290   45.6430 C   0  0  0  0  0  0  0  0  0  0  0  0
   58.3540   32.7750   48.0080 C   0  0  0  0  0  0  0  0  0  0  0  0
   58.1275   33.5874   53.4560 H   0  0  0  0  0  0  0  0  0  0  0  0
   59.1221   34.1306   52.0623 H   0  0  0  0  0  0  0  0  0  0  0  0
   57.3476   34.4096   52.0623 H   0  0  0  0  0  0  0  0  0  0  0  0
   56.3343   31.6033   52.8982 H   0  0  0  0  0  0  0  0  0  0  0  0
   58.5699   29.9038   49.7367 H   0  0  0  0  0  0  0  0  0  0  0  0
   60.4052   33.1120   50.7111 H   0  0  0  0  0  0  0  0  0  0  0  0
   60.4171   31.7553   49.5175 H   0  0  0  0  0  0  0  0  0  0  0  0
   60.8258   34.9017   49.0354 H   0  0  0  0  0  0  0  0  0  0  0  0
   61.1488   33.5017   47.9381 H   0  0  0  0  0  0  0  0  0  0  0  0
   59.0929   35.7081   47.4663 H   0  0  0  0  0  0  0  0  0  0  0  0
   60.7165   35.5483   46.6661 H   0  0  0  0  0  0  0  0  0  0  0  0
   58.3666   34.6116   45.6201 H   0  0  0  0  0  0  0  0  0  0  0  0
   60.0413   33.9552   45.2683 H   0  0  0  0  0  0  0  0  0  0  0  0
   60.6523   31.9339   45.5717 H   0  0  0  0  0  0  0  0  0  0  0  0
   60.5528   31.5495   47.2986 H   0  0  0  0  0  0  0  0  0  0  0  0
   59.8281   29.7990   45.2460 H   0  0  0  0  0  0  0  0  0  0  0  0
   59.2052   29.6643   46.8982 H   0  0  0  0  0  0  0  0  0  0  0  0
   58.3004   28.5020   42.9167 H   0  0  0  0  0  0  0  0  0  0  0  0
   57.8495   24.5437   44.4380 H   0  0  0  0  0  0  0  0  0  0  0  0
   56.5676   25.4391   46.3935 H   0  0  0  0  0  0  0  0  0  0  0  0
   57.7352   32.5920   44.6456 H   0  0  0  0  0  0  0  0  0  0  0  0
   56.7174   32.3378   46.0755 H   0  0  0  0  0  0  0  0  0  0  0  0
   57.4043   33.3296   48.0283 H   0  0  0  0  0  0  0  0  0  0  0  0
   58.2601   31.7358   48.3561 H   0  0  0  0  0  0  0  0  0  0  0  0
  1  2  1  0
  2  3  1  0
  3  4  2  0
  4  5  1  0
  5  6  2  0
  6  7  1  0
  7  8  1  0
  8  9  1  0
  9 10  1  0
 10 11  1  0
 12 11  1  6
 12 13  1  0
 13 14  1  0
 14 15  1  0
 15 16  1  0
 16 17  2  0
 16 18  1  0
 18 19  2  0
 19 20  1  0
 20 21  2  0
 21 22  1  0
 22 23  2  0
 15 24  1  0
 12 25  1  0
  6  2  1  0
 25  8  1  0
 24 12  1  0
 23 18  1  0
  1 26  1  0
  1 27  1  0
  1 28  1  0
  3 29  1  0
  5 30  1  0
  7 31  1  0
  7 32  1  0
  9 33  1  0
  9 34  1  0
 10 35  1  0
 10 36  1  0
 11 37  1  0
 11 38  1  0
 13 39  1  0
 13 40  1  0
 14 41  1  0
 14 42  1  0
 19 43  1  0
 21 44  1  0
 22 45  1  0
 24 46  1  0
 24 47  1  0
 25 48  1  0
 25 49  1  0
M  END
>  <UniqueID>  (36) 
35

>  <SMILES>  (36) 
Cn1cncc1CN1CCC[C@@]2(CCN(C(=O)c3cnccn3)C2)C1

>  <Energy>  (36) 
97.96706628857737

>  <Genealogy>  (36) 
Cn1cncc1CN1CCC[C@@]2(CCN(C(=O)c3cnccn3)C2)C1 (chirality)
Cn1cncc1CN1CCC[C@@]2(CCN(C(=O)c3cnccn3)C2)C1 (3D coordinates assigned)
Cn1cncc1CN1CCC[C@@]2(CCN(C(=O)c3cnccn3)C2)C1 (nonaromatic ring conformer: 97.96706628857737 kcal/mol)

>  <smiles>  (36) 
Cn1cncc1CN1CCCC2(CCN(C(=O)c3cnccn3)C2)C1

>  <score_type>  (36) 
oracle

>  <origin>  (36) 
adg

>  <m_score__min__energy>  (36) 
-7.9400000000000004

>  <m_primary>  (36) 
energy

$$$$
36:0
     RDKit          3D

 63 67  0  0  1  0  0  0  0  0999 V2000
   58.0880   32.7210   43.5530 C   0  0  0  0  0  0  0  0  0  0  0  0
   58.2950   31.9630   42.3900 O   0  0  0  0  0  0  0  0  0  0  0  0
   57.0710   31.6000   41.8580 C   0  0  0  0  0  0  0  0  0  0  0  0
   56.5020   30.3620   42.5130 C   0  0  0  0  0  0  0  0  0  0  0  0
   57.3920   29.7910   43.5050 N   0  0  0  0  0  0  0  0  0  0  0  0
   56.9150   29.1100   44.6420 C   0  0  0  0  0  0  0  0  0  0  0  0
   55.6450   29.0190   44.7560 O   0  0  0  0  0  0  0  0  0  0  0  0
   57.7970   28.5310   45.6470 C   0  0  0  0  0  0  0  0  0  0  0  0
   57.4040   27.5610   46.5390 C   0  0  0  0  0  0  0  0  0  0  0  0
   58.3120   27.0560   47.4740 C   0  0  0  0  0  0  0  0  0  0  0  0
   59.6160   27.5100   47.5320 C   0  0  0  0  0  0  0  0  0  0  0  0
   60.4740   26.9410   48.5150 N   0  0  0  0  0  0  0  0  0  0  0  0
   60.7180   27.5020   49.6510 C   0  0  0  0  0  0  0  0  0  0  0  0
   60.2780   28.7870   49.8820 C   0  0  0  0  0  0  0  0  0  0  0  0
   60.5340   29.3960   51.0920 C   0  0  0  0  0  0  0  0  0  0  0  0
   60.1020   30.7490   51.4110 C   0  0  0  0  0  0  0  0  0  0  0  0
   59.8750   31.6260   50.4200 N   0  0  0  0  0  0  0  0  0  0  0  0
   59.4760   32.8880   50.6540 C   0  0  0  0  0  0  0  0  0  0  0  0
   59.2740   33.6850   49.6700 N   0  0  0  0  0  0  0  0  0  0  0  0
   59.6080   33.3640   48.2800 C   0  0  1  0  0  0  0  0  0  0  0  0
   58.6390   32.3220   47.7850 C   0  0  0  0  0  0  0  0  0  0  0  0
   57.6870   33.0600   46.8690 C   0  0  0  0  0  0  0  0  0  0  0  0
   58.4010   34.2340   46.4100 N   0  0  0  0  0  0  0  0  0  0  0  0
   59.4220   34.5300   47.3660 C   0  0  0  0  0  0  0  0  0  0  0  0
   59.2750   33.3480   51.9480 C   0  0  0  0  0  0  0  0  0  0  0  0
   58.8910   34.5110   52.4990 N   0  0  0  0  0  0  0  0  0  0  0  0
   58.8790   34.3580   53.8370 C   0  0  0  0  0  0  0  0  0  0  0  0
   59.2600   33.0760   54.1770 C   0  0  0  0  0  0  0  0  0  0  0  0
   59.5100   32.4400   52.9600 C   0  0  0  0  0  0  0  0  0  0  0  0
   59.9110   31.1850   52.6660 N   0  0  0  0  0  0  0  0  0  0  0  0
   61.2330   28.6590   52.0240 C   0  0  0  0  0  0  0  0  0  0  0  0
   61.6760   27.3730   51.7990 C   0  0  0  0  0  0  0  0  0  0  0  0
   61.3930   26.8310   50.5900 N   0  0  0  0  0  0  0  0  0  0  0  0
   60.0070   28.4750   46.6450 C   0  0  0  0  0  0  0  0  0  0  0  0
   59.1000   28.9710   45.7200 C   0  0  0  0  0  0  0  0  0  0  0  0
   58.2603   32.0900   44.4374 H   0  0  0  0  0  0  0  0  0  0  0  0
   58.7872   33.5701   43.5665 H   0  0  0  0  0  0  0  0  0  0  0  0
   57.0543   33.0969   43.5665 H   0  0  0  0  0  0  0  0  0  0  0  0
   56.3641   32.4309   41.9991 H   0  0  0  0  0  0  0  0  0  0  0  0
   57.2220   31.3759   40.7917 H   0  0  0  0  0  0  0  0  0  0  0  0
   55.5539   30.6281   43.0032 H   0  0  0  0  0  0  0  0  0  0  0  0
   56.3569   29.6079   41.7254 H   0  0  0  0  0  0  0  0  0  0  0  0
   58.4120   29.9080   43.3380 H   0  0  0  0  0  0  0  0  0  0  0  0
   56.3718   27.1813   46.5166 H   0  0  0  0  0  0  0  0  0  0  0  0
   57.9812   26.2797   48.1796 H   0  0  0  0  0  0  0  0  0  0  0  0
   59.7225   29.3270   49.1011 H   0  0  0  0  0  0  0  0  0  0  0  0
   60.6587   33.0386   48.2715 H   0  0  0  0  0  0  0  0  0  0  0  0
   59.1710   31.5336   47.2324 H   0  0  0  0  0  0  0  0  0  0  0  0
   58.1094   31.8298   48.6140 H   0  0  0  0  0  0  0  0  0  0  0  0
   57.4086   32.4244   46.0155 H   0  0  0  0  0  0  0  0  0  0  0  0
   56.7577   33.3329   47.3904 H   0  0  0  0  0  0  0  0  0  0  0  0
   57.7050   35.0270   46.3630 H   0  0  0  0  0  0  0  0  0  0  0  0
   60.3660   34.7372   46.8407 H   0  0  0  0  0  0  0  0  0  0  0  0
   59.1261   35.4110   47.9545 H   0  0  0  0  0  0  0  0  0  0  0  0
   58.6510   35.3670   51.9550 H   0  0  0  0  0  0  0  0  0  0  0  0
   58.6045   35.1434   54.5566 H   0  0  0  0  0  0  0  0  0  0  0  0
   59.3476   32.6486   55.1868 H   0  0  0  0  0  0  0  0  0  0  0  0
   60.0690   30.5550   53.4780 H   0  0  0  0  0  0  0  0  0  0  0  0
   61.4487   29.1214   52.9985 H   0  0  0  0  0  0  0  0  0  0  0  0
   62.2329   26.8134   52.5649 H   0  0  0  0  0  0  0  0  0  0  0  0
   61.7240   25.8580   50.4120 H   0  0  0  0  0  0  0  0  0  0  0  0
   61.0384   28.8569   46.6651 H   0  0  0  0  0  0  0  0  0  0  0  0
   59.4351   29.7472   45.0163 H   0  0  0  0  0  0  0  0  0  0  0  0
  1  2  1  0
  2  3  1  0
  3  4  1  0
  4  5  1  0
  5  6  1  0
  6  7  2  0
  6  8  1  0
  8  9  2  0
  9 10  1  0
 10 11  2  0
 11 12  1  0
 12 13  2  0
 13 14  1  0
 14 15  2  0
 15 16  1  0
 16 17  2  0
 17 18  1  0
 18 19  2  0
 19 20  1  0
 20 21  1  0
 21 22  1  0
 22 23  1  0
 23 24  1  0
 18 25  1  0
 25 26  1  0
 26 27  1  0
 27 28  2  0
 28 29  1  0
 29 30  1  0
 15 31  1  0
 31 32  2  0
 32 33  1  0
 11 34  1  0
 34 35  2  0
 35  8  1  0
 33 13  1  0
 30 16  1  0
 24 20  1  0
 29 25  2  0
  1 36  1  0
  1 37  1  0
  1 38  1  0
  3 39  1  0
  3 40  1  0
  4 41  1  0
  4 42  1  0
  5 43  1  0
  9 44  1  0
 10 45  1  0
 14 46  1  0
 20 47  1  1
 21 48  1  0
 21 49  1  0
 22 50  1  0
 22 51  1  0
 23 52  1  0
 24 53  1  0
 24 54  1  0
 26 55  1  0
 27 56  1  0
 28 57  1  0
 30 58  1  0
 31 59  1  0
 32 60  1  0
 33 61  1  0
 34 62  1  0
 35 63  1  0
M  END
>  <smiles>  (37) 
COCCNC(=O)c1ccc(N=c2cc(-c3nc(=NC4CCNC4)c4[nH]ccc4[nH]3)cc[nH]2)cc1

>  <score_type>  (37) 
oracle

>  <origin>  (37) 
adg

>  <m_score__min__energy>  (37) 
-9.5299999999999994

>  <m_primary>  (37) 
energy

$$$$
37:0
     RDKit          3D

 90 95  0  0  0  0  0  0  0  0999 V2000
   63.6581   33.7543   46.7819 H   0  0  0  0  0  0  0  0  0  0  0  0
   62.6270   33.4400   47.0010 C   0  0  0  0  0  0  0  0  0  0  0  0
   61.6020   33.9300   46.2670 N   0  0  0  0  0  0  0  0  0  0  0  0
   60.3140   33.5900   46.5120 C   0  0  0  0  0  0  0  0  0  0  0  0
   59.3110   34.1610   45.7210 C   0  0  0  0  0  0  0  0  0  0  0  0
   59.5841   34.8228   44.8859 H   0  0  0  0  0  0  0  0  0  0  0  0
   57.9700   33.8970   45.9840 C   0  0  0  0  0  0  0  0  0  0  0  0
   56.7230   34.6030   44.9750 Cl  0  0  0  0  0  0  0  0  0  0  0  0
   57.6190   33.0830   47.0650 C   0  0  0  0  0  0  0  0  0  0  0  0
   56.5581   32.9098   47.2983 H   0  0  0  0  0  0  0  0  0  0  0  0
   58.6110   32.4880   47.8510 C   0  0  0  0  0  0  0  0  0  0  0  0
   58.3190   31.8539   48.7011 H   0  0  0  0  0  0  0  0  0  0  0  0
   59.9870   32.6880   47.5710 C   0  0  0  0  0  0  0  0  0  0  0  0
   61.0750   32.1060   48.3130 C   0  0  0  0  0  0  0  0  0  0  0  0
   60.9730   31.1740   49.2300 N   0  0  0  0  0  0  0  0  0  0  0  0
   60.7730   29.7670   49.1040 C   0  0  0  0  0  0  0  0  0  0  0  0
   60.3800   29.2380   47.8710 C   0  0  0  0  0  0  0  0  0  0  0  0
   60.1571   29.9130   47.0316 H   0  0  0  0  0  0  0  0  0  0  0  0
   60.2690   27.8540   47.7000 C   0  0  0  0  0  0  0  0  0  0  0  0
   60.0510   27.3270   46.3860 N   0  0  0  0  0  0  0  0  0  0  0  0
   58.7650   27.0800   45.8070 C   0  0  0  0  0  0  0  0  0  0  0  0
   58.2510   25.9240   45.8460 O   0  0  0  0  0  0  0  0  0  0  0  0
   58.0840   28.1600   45.0230 C   0  0  0  0  0  0  0  0  0  0  0  0
   57.3376   27.6981   44.3600 H   0  0  0  0  0  0  0  0  0  0  0  0
   58.8553   28.6958   44.4503 H   0  0  0  0  0  0  0  0  0  0  0  0
   57.3780   29.1800   45.9240 C   0  0  0  0  0  0  0  0  0  0  0  0
   57.9869   29.3476   46.8246 H   0  0  0  0  0  0  0  0  0  0  0  0
   56.3894   28.7829   46.1977 H   0  0  0  0  0  0  0  0  0  0  0  0
   57.1920   30.4690   45.2170 N   0  0  0  0  0  0  0  0  0  0  0  0
   56.1430   30.4000   44.1660 C   0  0  0  0  0  0  0  0  0  0  0  0
   55.5725   31.3405   44.1724 H   0  0  0  0  0  0  0  0  0  0  0  0
   55.4965   29.5386   44.3896 H   0  0  0  0  0  0  0  0  0  0  0  0
   56.7420   30.1910   42.7580 C   0  0  0  0  0  0  0  0  0  0  0  0
   55.9227   30.1631   42.0245 H   0  0  0  0  0  0  0  0  0  0  0  0
   57.3032   29.2450   42.7655 H   0  0  0  0  0  0  0  0  0  0  0  0
   57.6860   31.2820   42.3830 N   0  0  0  0  0  0  0  0  0  0  0  0
   58.4690   30.8410   41.8340 H   0  0  0  0  0  0  0  0  0  0  0  0
   57.0340   32.2770   41.5020 C   0  0  0  0  0  0  0  0  0  0  0  0
   56.5342   33.0397   42.1172 H   0  0  0  0  0  0  0  0  0  0  0  0
   57.7929   32.7576   40.8671 H   0  0  0  0  0  0  0  0  0  0  0  0
   56.2904   31.7731   40.8671 H   0  0  0  0  0  0  0  0  0  0  0  0
   58.3000   31.9560   43.5540 C   0  0  0  0  0  0  0  0  0  0  0  0
   57.6438   32.7772   43.8780 H   0  0  0  0  0  0  0  0  0  0  0  0
   59.2869   32.3376   43.2534 H   0  0  0  0  0  0  0  0  0  0  0  0
   58.4960   30.9890   44.7190 C   0  0  0  0  0  0  0  0  0  0  0  0
   59.0085   31.5145   45.5383 H   0  0  0  0  0  0  0  0  0  0  0  0
   59.0968   30.1379   44.3660 H   0  0  0  0  0  0  0  0  0  0  0  0
   60.4360   27.0110   48.8030 C   0  0  0  0  0  0  0  0  0  0  0  0
   60.2836   25.9282   48.6836 H   0  0  0  0  0  0  0  0  0  0  0  0
   60.7950   27.5230   50.0610 C   0  0  0  0  0  0  0  0  0  0  0  0
   61.0440   26.5800   51.1820 C   0  0  0  0  0  0  0  0  0  0  0  0
   61.9570   25.7170   51.0450 O   0  0  0  0  0  0  0  0  0  0  0  0
   60.2440   26.6460   52.4770 C   0  0  0  0  0  0  0  0  0  0  0  0
   59.2039   26.3669   52.2529 H   0  0  0  0  0  0  0  0  0  0  0  0
   60.7321   25.9566   53.1817 H   0  0  0  0  0  0  0  0  0  0  0  0
   60.2360   27.9830   53.1300 N   0  0  0  0  0  0  0  0  0  0  0  0
   61.5950   28.5820   53.2030 C   0  0  0  0  0  0  0  0  0  0  0  0
   62.1935   28.0099   53.9272 H   0  0  0  0  0  0  0  0  0  0  0  0
   62.0310   28.5418   52.1939 H   0  0  0  0  0  0  0  0  0  0  0  0
   61.5700   30.0510   53.6390 C   0  0  0  0  0  0  0  0  0  0  0  0
   61.2406   30.1218   54.6861 H   0  0  0  0  0  0  0  0  0  0  0  0
   62.5763   30.4870   53.5533 H   0  0  0  0  0  0  0  0  0  0  0  0
   60.6290   30.7790   52.7720 N   0  0  0  0  0  0  0  0  0  0  0  0
   60.7430   32.2430   52.9320 C   0  0  0  0  0  0  0  0  0  0  0  0
   60.5202   32.7316   51.9720 H   0  0  0  0  0  0  0  0  0  0  0  0
   60.0281   32.5765   53.6987 H   0  0  0  0  0  0  0  0  0  0  0  0
   62.1670   32.6210   53.3760 C   0  0  0  0  0  0  0  0  0  0  0  0
   62.1442   33.6182   53.8397 H   0  0  0  0  0  0  0  0  0  0  0  0
   62.5178   31.8643   54.0932 H   0  0  0  0  0  0  0  0  0  0  0  0
   63.1190   32.6450   52.2100 C   0  0  0  0  0  0  0  0  0  0  0  0
   63.2920   33.8190   51.4580 C   0  0  0  0  0  0  0  0  0  0  0  0
   62.7485   34.7337   51.7372 H   0  0  0  0  0  0  0  0  0  0  0  0
   64.1540   33.8290   50.3540 C   0  0  0  0  0  0  0  0  0  0  0  0
   64.2977   34.7549   49.7777 H   0  0  0  0  0  0  0  0  0  0  0  0
   64.8330   32.6620   49.9830 C   0  0  0  0  0  0  0  0  0  0  0  0
   65.5198   32.6762   49.1239 H   0  0  0  0  0  0  0  0  0  0  0  0
   64.6400   31.4790   50.7020 C   0  0  0  0  0  0  0  0  0  0  0  0
   65.1579   30.5581   50.3958 H   0  0  0  0  0  0  0  0  0  0  0  0
   63.7880   31.4670   51.8110 C   0  0  0  0  0  0  0  0  0  0  0  0
   63.6381   30.5349   52.3756 H   0  0  0  0  0  0  0  0  0  0  0  0
   59.2690   30.3100   53.0670 C   0  0  0  0  0  0  0  0  0  0  0  0
   59.0797   30.3870   54.1479 H   0  0  0  0  0  0  0  0  0  0  0  0
   58.5391   30.9292   52.5250 H   0  0  0  0  0  0  0  0  0  0  0  0
   59.1320   28.8430   52.6240 C   0  0  0  0  0  0  0  0  0  0  0  0
   58.1775   28.4490   53.0030 H   0  0  0  0  0  0  0  0  0  0  0  0
   59.1736   28.8234   51.5250 H   0  0  0  0  0  0  0  0  0  0  0  0
   60.9600   28.9130   50.2060 C   0  0  0  0  0  0  0  0  0  0  0  0
   61.2361   29.3331   51.1844 H   0  0  0  0  0  0  0  0  0  0  0  0
   62.3800   32.5380   48.0340 C   0  0  0  0  0  0  0  0  0  0  0  0
   63.2183   32.1603   48.6378 H   0  0  0  0  0  0  0  0  0  0  0  0
  1  2  1  0
  2  3  1  0
  3  4  1  0
  4  5  2  0
  5  6  1  0
  5  7  1  0
  7  8  1  0
  7  9  2  0
  9 10  1  0
  9 11  1  0
 11 12  1  0
 11 13  2  0
 13 14  1  0
 14 15  2  0
 15 16  1  0
 16 17  2  0
 17 18  1  0
 17 19  1  0
 19 20  1  0
 20 21  1  0
 21 22  2  0
 21 23  1  0
 23 24  1  0
 23 25  1  0
 23 26  1  0
 26 27  1  0
 26 28  1  0
 26 29  1  0
 29 30  1  0
 30 31  1  0
 30 32  1  0
 30 33  1  0
 33 34  1  0
 33 35  1  0
 33 36  1  0
 36 37  1  0
 36 38  1  0
 38 39  1  0
 38 40  1  0
 38 41  1  0
 36 42  1  0
 42 43  1  0
 42 44  1  0
 42 45  1  0
 45 46  1  0
 45 47  1  0
 19 48  2  0
 48 49  1  0
 48 50  1  0
 50 51  1  0
 51 52  2  0
 51 53  1  0
 53 54  1  0
 53 55  1  0
 53 56  1  0
 56 57  1  0
 57 58  1  0
 57 59  1  0
 57 60  1  0
 60 61  1  0
 60 62  1  0
 60 63  1  0
 63 64  1  0
 64 65  1  0
 64 66  1  0
 64 67  1  0
 67 68  1  0
 67 69  1  0
 67 70  1  0
 70 71  2  0
 71 72  1  0
 71 73  1  0
 73 74  1  0
 73 75  2  0
 75 76  1  0
 75 77  1  0
 77 78  1  0
 77 79  2  0
 79 80  1  0
 63 81  1  0
 81 82  1  0
 81 83  1  0
 81 84  1  0
 84 85  1  0
 84 86  1  0
 50 87  2  0
 87 88  1  0
 14 89  1  0
 89 90  1  0
 89  2  2  0
 13  4  1  0
 87 16  1  0
 45 29  1  0
 84 56  1  0
 79 70  1  0
M  CHG  3   3  -1  20  -1  36   1
M  END
>  <UniqueID>  (38) 
36

>  <SMILES>  (38) 
C[NH+]1CCN(CCC(=O)[N-]c2cc(/N=c3/cc[n-]c4cc(Cl)ccc34)cc(C(=O)CN3CCN(CCc4ccccc4)CC3)c2)CC1

>  <Energy>  (38) 
147.32544035065771

>  <Genealogy>  (38) 
C[NH+]1CCN(CCC(=O)[N-]c2cc(N=c3cc[n-]c4cc(Cl)ccc34)cc(C(=O)CN3CCN(CCc4ccccc4)CC3)c2)CC1 (protonated)
C[NH+]1CCN(CCC(=O)[N-]c2cc(/N=c3/cc[n-]c4cc(Cl)ccc34)cc(C(=O)CN3CCN(CCc4ccccc4)CC3)c2)CC1 (cis-trans isomerization)
C[NH+]1CCN(CCC(=O)[N-]c2cc(/N=c3/cc[n-]c4cc(Cl)ccc34)cc(C(=O)CN3CCN(CCc4ccccc4)CC3)c2)CC1 (3D coordinates assigned)
C[NH+]1CCN(CCC(=O)[N-]c2cc(/N=c3/cc[n-]c4cc(Cl)ccc34)cc(C(=O)CN3CCN(CCc4ccccc4)CC3)c2)CC1 (nonaromatic ring conformer: 147.32544035065771 kcal/mol)

>  <smiles>  (38) 
CN1CCN(CCC(=O)Nc2cc(N=c3cc[nH]c4cc(Cl)ccc34)cc(C(=O)CN3CCN(CCc4ccccc4)CC3)c2)CC1

>  <score_type>  (38) 
oracle

>  <origin>  (38) 
adg

>  <m_score__min__energy>  (38) 
-12.43

>  <m_primary>  (38) 
energy

$$$$
38:0
     RDKit          3D

 54 57  0  0  0  0  0  0  0  0999 V2000
   55.2980   22.6590   42.3000 O   0  0  0  0  0  0  0  0  0  0  0  0
   55.8900   22.4950   43.4010 C   0  0  0  0  0  0  0  0  0  0  0  0
   56.1870   21.2030   43.8200 O   0  0  0  0  0  0  0  0  0  0  0  0
   56.2660   23.6580   44.2340 C   0  0  0  0  0  0  0  0  0  0  0  0
   57.2810   24.5390   43.8210 C   0  0  0  0  0  0  0  0  0  0  0  0
   57.6300   25.6370   44.6110 C   0  0  0  0  0  0  0  0  0  0  0  0
   56.9580   25.8850   45.8200 C   0  0  0  0  0  0  0  0  0  0  0  0
   57.3040   26.9930   46.6630 N   0  0  0  0  0  0  0  0  0  0  0  0
   57.4100   28.3600   46.2480 C   0  0  0  0  0  0  0  0  0  0  0  0
   56.4720   28.8630   45.5740 O   0  0  0  0  0  0  0  0  0  0  0  0
   58.6100   29.1690   46.5300 C   0  0  0  0  0  0  0  0  0  0  0  0
   59.6930   29.3350   45.6720 C   0  0  0  0  0  0  0  0  0  0  0  0
   60.7210   30.1140   46.2160 C   0  0  0  0  0  0  0  0  0  0  0  0
   60.4500   30.5670   47.5050 C   0  0  0  0  0  0  0  0  0  0  0  0
   61.3570   31.3640   48.3600 C   0  0  0  0  0  0  0  0  0  0  0  0
   62.0190   30.7140   49.4170 C   0  0  0  0  0  0  0  0  0  0  0  0
   62.9470   31.3970   50.2050 C   0  0  0  0  0  0  0  0  0  0  0  0
   63.2270   32.7380   49.9490 C   0  0  0  0  0  0  0  0  0  0  0  0
   62.5680   33.4070   48.9170 C   0  0  0  0  0  0  0  0  0  0  0  0
   61.6190   32.7400   48.1200 C   0  0  0  0  0  0  0  0  0  0  0  0
   60.8640   33.5250   47.1140 C   0  0  0  0  0  0  0  0  0  0  0  0
   61.3940   33.7850   45.9990 O   0  0  0  0  0  0  0  0  0  0  0  0
   59.5270   33.9660   47.3920 N   0  0  0  0  0  0  0  0  0  0  0  0
   58.6760   34.5890   46.3790 C   0  0  0  0  0  0  0  0  0  0  0  0
   57.3680   33.8080   46.1940 C   0  0  0  0  0  0  0  0  0  0  0  0
   57.3890   32.9930   44.9260 C   0  0  0  0  0  0  0  0  0  0  0  0
   56.7280   31.7540   44.8710 C   0  0  0  0  0  0  0  0  0  0  0  0
   56.7830   30.9800   43.7090 C   0  0  0  0  0  0  0  0  0  0  0  0
   57.5010   31.4310   42.5980 C   0  0  0  0  0  0  0  0  0  0  0  0
   58.1670   32.6580   42.6490 C   0  0  0  0  0  0  0  0  0  0  0  0
   58.1130   33.4380   43.8080 C   0  0  0  0  0  0  0  0  0  0  0  0
   58.9490   29.9670   47.9740 S   0  0  0  0  0  0  0  0  0  0  0  0
   55.9630   24.9960   46.2450 C   0  0  0  0  0  0  0  0  0  0  0  0
   55.6120   23.8960   45.4560 C   0  0  0  0  0  0  0  0  0  0  0  0
   57.8038   24.3625   42.8694 H   0  0  0  0  0  0  0  0  0  0  0  0
   58.4355   26.3114   44.2848 H   0  0  0  0  0  0  0  0  0  0  0  0
   59.7370   28.8966   44.6641 H   0  0  0  0  0  0  0  0  0  0  0  0
   61.6520   30.3458   45.6780 H   0  0  0  0  0  0  0  0  0  0  0  0
   61.8031   29.6557   49.6251 H   0  0  0  0  0  0  0  0  0  0  0  0
   63.4576   30.8764   51.0286 H   0  0  0  0  0  0  0  0  0  0  0  0
   63.9693   33.2703   50.5620 H   0  0  0  0  0  0  0  0  0  0  0  0
   62.7925   34.4665   48.7244 H   0  0  0  0  0  0  0  0  0  0  0  0
   59.1550   33.8840   48.3650 H   0  0  0  0  0  0  0  0  0  0  0  0
   58.4388   35.6164   46.6925 H   0  0  0  0  0  0  0  0  0  0  0  0
   59.2185   34.5901   45.4221 H   0  0  0  0  0  0  0  0  0  0  0  0
   57.2300   33.1327   47.0513 H   0  0  0  0  0  0  0  0  0  0  0  0
   56.5402   34.5294   46.1283 H   0  0  0  0  0  0  0  0  0  0  0  0
   56.1660   31.3927   45.7448 H   0  0  0  0  0  0  0  0  0  0  0  0
   56.2598   30.0132   43.6685 H   0  0  0  0  0  0  0  0  0  0  0  0
   57.5417   30.8203   41.6840 H   0  0  0  0  0  0  0  0  0  0  0  0
   58.7349   33.0111   41.7756 H   0  0  0  0  0  0  0  0  0  0  0  0
   58.6393   34.4033   43.8443 H   0  0  0  0  0  0  0  0  0  0  0  0
   55.4542   25.1640   47.2057 H   0  0  0  0  0  0  0  0  0  0  0  0
   54.8191   23.2124   45.7935 H   0  0  0  0  0  0  0  0  0  0  0  0
  1  2  2  0
  2  3  1  0
  2  4  1  0
  4  5  2  0
  5  6  1  0
  6  7  2  0
  7  8  1  0
  8  9  1  0
  9 10  2  0
  9 11  1  0
 11 12  2  0
 12 13  1  0
 13 14  2  0
 14 15  1  0
 15 16  2  0
 16 17  1  0
 17 18  2  0
 18 19  1  0
 19 20  2  0
 20 21  1  0
 21 22  2  0
 21 23  1  0
 23 24  1  0
 24 25  1  0
 25 26  1  0
 26 27  2  0
 27 28  1  0
 28 29  2  0
 29 30  1  0
 30 31  2  0
 14 32  1  0
  7 33  1  0
 33 34  2  0
 34  4  1  0
 32 11  1  0
 20 15  1  0
 31 26  1  0
  5 35  1  0
  6 36  1  0
 12 37  1  0
 13 38  1  0
 16 39  1  0
 17 40  1  0
 18 41  1  0
 19 42  1  0
 23 43  1  0
 24 44  1  0
 24 45  1  0
 25 46  1  0
 25 47  1  0
 27 48  1  0
 28 49  1  0
 29 50  1  0
 30 51  1  0
 31 52  1  0
 33 53  1  0
 34 54  1  0
M  CHG  2   3  -1   8  -1
M  END
>  <UniqueID>  (39) 
37

>  <SMILES>  (39) 
O=C([O-])c1ccc([N-]C(=O)c2ccc(-c3ccccc3C(=O)NCCc3ccccc3)s2)cc1

>  <Energy>  (39) 
94.71886898782485

>  <Genealogy>  (39) 
O=C([O-])c1ccc([N-]C(=O)c2ccc(-c3ccccc3C(=O)NCCc3ccccc3)s2)cc1 (protonated)
O=C([O-])c1ccc([N-]C(=O)c2ccc(-c3ccccc3C(=O)NCCc3ccccc3)s2)cc1 (3D coordinates assigned)
O=C([O-])c1ccc([N-]C(=O)c2ccc(-c3ccccc3C(=O)NCCc3ccccc3)s2)cc1 (optimized conformer: 94.71886898782485 kcal/mol)

>  <smiles>  (39) 
O=C(O)c1ccc(NC(=O)c2ccc(-c3ccccc3C(=O)NCCc3ccccc3)s2)cc1

>  <score_type>  (39) 
oracle

>  <origin>  (39) 
adg

>  <m_score__min__energy>  (39) 
-13.83

>  <m_primary>  (39) 
energy

$$$$
39:0
     RDKit          3D

 30 32  0  0  0  0  0  0  0  0999 V2000
   60.1190   26.4015   45.7537 H   0  0  0  0  0  0  0  0  0  0  0  0
   60.3810   27.4420   45.9960 C   0  0  0  0  0  0  0  0  0  0  0  0
   61.3450   27.6693   46.4745 H   0  0  0  0  0  0  0  0  0  0  0  0
   59.5280   28.4300   45.7090 C   0  0  0  0  0  0  0  0  0  0  0  0
   58.2130   28.3400   45.2190 C   0  0  0  0  0  0  0  0  0  0  0  0
   57.4950   27.2920   44.7720 C   0  0  0  0  0  0  0  0  0  0  0  0
   57.1602   27.3196   43.7245 H   0  0  0  0  0  0  0  0  0  0  0  0
   57.1220   26.1150   45.5680 C   0  0  0  0  0  0  0  0  0  0  0  0
   58.2050   24.9370   46.0920 S   0  0  0  0  0  0  0  0  0  0  0  0
   57.0370   24.1570   47.0160 C   0  0  0  0  0  0  0  0  0  0  0  0
   57.2460   23.1150   47.6890 O   0  0  0  0  0  0  0  0  0  0  0  0
   55.8400   24.7780   46.9750 N   0  0  0  0  0  0  0  0  0  0  0  0
   55.8920   25.8810   46.1810 C   0  0  0  0  0  0  0  0  0  0  0  0
   54.7920   26.7140   46.0210 O   0  0  0  0  0  0  0  0  0  0  0  0
   57.7540   29.6470   45.2830 C   0  0  0  0  0  0  0  0  0  0  0  0
   56.6130   30.0400   44.9200 O   0  0  0  0  0  0  0  0  0  0  0  0
   58.7290   30.4600   45.7410 N   0  0  0  0  0  0  0  0  0  0  0  0
   58.6620   31.8850   45.9430 C   0  0  0  0  0  0  0  0  0  0  0  0
   58.0540   32.7060   44.9770 C   0  0  0  0  0  0  0  0  0  0  0  0
   57.6261   32.2567   44.0687 H   0  0  0  0  0  0  0  0  0  0  0  0
   57.9900   34.0900   45.1640 C   0  0  0  0  0  0  0  0  0  0  0  0
   57.5078   34.7247   44.4060 H   0  0  0  0  0  0  0  0  0  0  0  0
   58.5370   34.6680   46.3110 C   0  0  0  0  0  0  0  0  0  0  0  0
   58.4846   35.7571   46.4566 H   0  0  0  0  0  0  0  0  0  0  0  0
   59.1510   33.8630   47.2740 C   0  0  0  0  0  0  0  0  0  0  0  0
   59.5847   34.3196   48.1759 H   0  0  0  0  0  0  0  0  0  0  0  0
   59.2150   32.4780   47.0930 C   0  0  0  0  0  0  0  0  0  0  0  0
   59.7002   31.8487   47.8536 H   0  0  0  0  0  0  0  0  0  0  0  0
   59.8020   29.7240   45.9860 N   0  0  0  0  0  0  0  0  0  0  0  0
   60.6940   30.0890   46.3920 H   0  0  0  0  0  0  0  0  0  0  0  0
  1  2  1  0
  2  3  1  0
  2  4  2  0
  4  5  1  0
  5  6  2  0
  6  7  1  0
  6  8  1  0
  8  9  1  0
  9 10  1  0
 10 11  2  0
 10 12  1  0
 12 13  1  0
 13 14  1  0
  5 15  1  0
 15 16  2  0
 15 17  1  0
 17 18  1  0
 18 19  2  0
 19 20  1  0
 19 21  1  0
 21 22  1  0
 21 23  2  0
 23 24  1  0
 23 25  1  0
 25 26  1  0
 25 27  2  0
 27 28  1  0
 17 29  1  0
 29 30  1  0
 29  4  1  0
 13  8  2  0
 27 18  1  0
M  CHG  2  12  -1  14  -1
M  END
>  <UniqueID>  (40) 
38

>  <SMILES>  (40) 
C=c1[nH]n(-c2ccccc2)c(=O)/c1=C/c1sc(=O)[n-]c1[O-]

>  <Energy>  (40) 
114.19144266273292

>  <Genealogy>  (40) 
C=c1[nH]n(-c2ccccc2)c(=O)c1=Cc1sc(=O)[n-]c1[O-] (protonated)
C=c1[nH]n(-c2ccccc2)c(=O)/c1=C/c1sc(=O)[n-]c1[O-] (cis-trans isomerization)
C=c1[nH]n(-c2ccccc2)c(=O)/c1=C/c1sc(=O)[n-]c1[O-] (3D coordinates assigned)
C=c1[nH]n(-c2ccccc2)c(=O)/c1=C/c1sc(=O)[n-]c1[O-] (optimized conformer: 114.19144266273292 kcal/mol)

>  <smiles>  (40) 
C=c1[nH]n(-c2ccccc2)c(=O)c1=Cc1sc(=O)[nH]c1O

>  <score_type>  (40) 
oracle

>  <origin>  (40) 
adg

>  <m_score__min__energy>  (40) 
-14.140000000000001

>  <m_primary>  (40) 
energy

$$$$
40:0
     RDKit          3D

 55 58  0  0  0  0  0  0  0  0999 V2000
   56.7870   32.8170   44.3390 H   0  0  0  0  0  0  0  0  0  0  0  0
   57.0840   33.6570   44.8830 N   0  0  0  0  0  0  0  0  0  0  0  0
   58.1550   33.6510   45.6120 C   0  0  0  0  0  0  0  0  0  0  0  0
   58.7490   34.8290   45.9390 N   0  0  0  0  0  0  0  0  0  0  0  0
   59.9000   34.8770   46.6560 C   0  0  0  0  0  0  0  0  0  0  0  0
   60.3502   35.8463   46.9164 H   0  0  0  0  0  0  0  0  0  0  0  0
   60.5120   33.6820   47.0630 C   0  0  0  0  0  0  0  0  0  0  0  0
   61.7790   33.6680   47.8380 C   0  0  0  0  0  0  0  0  0  0  0  0
   61.8010   34.1720   49.1520 C   0  0  0  0  0  0  0  0  0  0  0  0
   60.8799   34.5769   49.5966 H   0  0  0  0  0  0  0  0  0  0  0  0
   62.9850   34.1620   49.8970 C   0  0  0  0  0  0  0  0  0  0  0  0
   62.9932   34.5644   50.9207 H   0  0  0  0  0  0  0  0  0  0  0  0
   64.1560   33.6420   49.3430 C   0  0  0  0  0  0  0  0  0  0  0  0
   65.0873   33.6388   49.9284 H   0  0  0  0  0  0  0  0  0  0  0  0
   64.1450   33.1260   48.0460 C   0  0  0  0  0  0  0  0  0  0  0  0
   65.0669   32.7103   47.6133 H   0  0  0  0  0  0  0  0  0  0  0  0
   62.9650   33.1360   47.2950 C   0  0  0  0  0  0  0  0  0  0  0  0
   62.9631   32.7260   46.2743 H   0  0  0  0  0  0  0  0  0  0  0  0
   59.9060   32.5040   46.7480 N   0  0  0  0  0  0  0  0  0  0  0  0
   58.7410   32.4430   46.0480 C   0  0  0  0  0  0  0  0  0  0  0  0
   58.1670   31.1100   45.7520 C   0  0  0  0  0  0  0  0  0  0  0  0
   57.0140   31.0430   45.2480 O   0  0  0  0  0  0  0  0  0  0  0  0
   58.9300   29.9090   45.9510 N   0  0  0  0  0  0  0  0  0  0  0  0
   59.9720   29.9730   45.8770 H   0  0  0  0  0  0  0  0  0  0  0  0
   58.3420   28.6040   46.0900 C   0  0  0  0  0  0  0  0  0  0  0  0
   58.9540   27.6560   46.9200 C   0  0  0  0  0  0  0  0  0  0  0  0
   59.8856   27.9122   47.4458 H   0  0  0  0  0  0  0  0  0  0  0  0
   58.3910   26.3870   47.0860 C   0  0  0  0  0  0  0  0  0  0  0  0
   58.8819   25.6528   47.7417 H   0  0  0  0  0  0  0  0  0  0  0  0
   57.2030   26.0440   46.4210 C   0  0  0  0  0  0  0  0  0  0  0  0
   56.5920   24.6660   46.5920 C   0  0  0  0  0  0  0  0  0  0  0  0
   57.3858   23.9720   46.9054 H   0  0  0  0  0  0  0  0  0  0  0  0
   55.7936   24.7624   47.3425 H   0  0  0  0  0  0  0  0  0  0  0  0
   55.9630   24.1300   45.3630 N   0  0  0  0  0  0  0  0  0  0  0  0
   55.2540   22.8410   45.5440 C   0  0  0  0  0  0  0  0  0  0  0  0
   55.1764   22.6252   46.6198 H   0  0  0  0  0  0  0  0  0  0  0  0
   54.2578   22.9312   45.0864 H   0  0  0  0  0  0  0  0  0  0  0  0
   55.9920   21.6840   44.8570 C   0  0  0  0  0  0  0  0  0  0  0  0
   56.9979   21.5918   45.2926 H   0  0  0  0  0  0  0  0  0  0  0  0
   55.4136   20.7616   45.0140 H   0  0  0  0  0  0  0  0  0  0  0  0
   56.1170   21.9150   43.3980 N   0  0  0  0  0  0  0  0  0  0  0  0
   57.2110   21.1030   42.8440 C   0  0  0  0  0  0  0  0  0  0  0  0
   57.7974   20.6677   43.6666 H   0  0  0  0  0  0  0  0  0  0  0  0
   56.7916   20.2958   42.2255 H   0  0  0  0  0  0  0  0  0  0  0  0
   57.8622   21.7382   42.2255 H   0  0  0  0  0  0  0  0  0  0  0  0
   56.2660   23.3470   43.0270 C   0  0  0  0  0  0  0  0  0  0  0  0
   56.9401   23.4200   42.1608 H   0  0  0  0  0  0  0  0  0  0  0  0
   55.2661   23.7400   42.7911 H   0  0  0  0  0  0  0  0  0  0  0  0
   56.8430   24.1870   44.1740 C   0  0  0  0  0  0  0  0  0  0  0  0
   57.8363   23.7975   44.4417 H   0  0  0  0  0  0  0  0  0  0  0  0
   56.9181   25.2328   43.8413 H   0  0  0  0  0  0  0  0  0  0  0  0
   56.5620   27.0110   45.6290 C   0  0  0  0  0  0  0  0  0  0  0  0
   55.6087   26.7687   45.1366 H   0  0  0  0  0  0  0  0  0  0  0  0
   57.1260   28.2780   45.4620 C   0  0  0  0  0  0  0  0  0  0  0  0
   56.6164   29.0252   44.8358 H   0  0  0  0  0  0  0  0  0  0  0  0
  1  2  1  0
  2  3  2  0
  3  4  1  0
  4  5  1  0
  5  6  1  0
  5  7  2  0
  7  8  1  0
  8  9  2  0
  9 10  1  0
  9 11  1  0
 11 12  1  0
 11 13  2  0
 13 14  1  0
 13 15  1  0
 15 16  1  0
 15 17  2  0
 17 18  1  0
  7 19  1  0
 19 20  2  0
 20 21  1  0
 21 22  2  0
 21 23  1  0
 23 24  1  0
 23 25  1  0
 25 26  2  0
 26 27  1  0
 26 28  1  0
 28 29  1  0
 28 30  2  0
 30 31  1  0
 31 32  1  0
 31 33  1  0
 31 34  1  0
 34 35  1  0
 35 36  1  0
 35 37  1  0
 35 38  1  0
 38 39  1  0
 38 40  1  0
 38 41  1  0
 41 42  1  0
 42 43  1  0
 42 44  1  0
 42 45  1  0
 41 46  1  0
 46 47  1  0
 46 48  1  0
 46 49  1  0
 49 50  1  0
 49 51  1  0
 30 52  1  0
 52 53  1  0
 52 54  2  0
 54 55  1  0
 20  3  1  0
 54 25  1  0
 17  8  1  0
 49 34  1  0
M  CHG  1   4  -1
M  END
>  <UniqueID>  (41) 
39

>  <SMILES>  (41) 
[H]/N=c1\[n-]cc(-c2ccccc2)nc1C(=O)Nc1ccc(CN2CCN(C)CC2)cc1

>  <Energy>  (41) 
85.38915776070468

>  <Genealogy>  (41) 
CN1CCN(Cc2ccc(NC(=O)c3nc(-c4ccccc4)c[n-]c3=N)cc2)CC1 (protonated)
[H]/N=c1\[n-]cc(-c2ccccc2)nc1C(=O)Nc1ccc(CN2CCN(C)CC2)cc1 (cis-trans isomerization)
[H]/N=c1\[n-]cc(-c2ccccc2)nc1C(=O)Nc1ccc(CN2CCN(C)CC2)cc1 (3D coordinates assigned)
[H]/N=c1\[n-]cc(-c2ccccc2)nc1C(=O)Nc1ccc(CN2CCN(C)CC2)cc1 (nonaromatic ring conformer: 85.38915776070468 kcal/mol)

>  <smiles>  (41) 
CN1CCN(Cc2ccc(NC(=O)c3nc(-c4ccccc4)c[nH]c3=N)cc2)CC1

>  <score_type>  (41) 
oracle

>  <origin>  (41) 
adg

>  <m_score__min__energy>  (41) 
-9.8900000000000006

>  <m_primary>  (41) 
energy

$$$$
41:0
     RDKit          3D

 38 40  0  0  0  0  0  0  0  0999 V2000
   54.7670   30.2970   45.1250 H   0  0  0  0  0  0  0  0  0  0  0  0
   55.1680   29.3530   44.9290 N   0  0  0  0  0  0  0  0  0  0  0  0
   56.5210   29.2050   44.4970 C   0  0  0  0  0  0  0  0  0  0  0  0
   56.9000   29.8040   43.4550 O   0  0  0  0  0  0  0  0  0  0  0  0
   57.4650   28.3590   45.2640 C   0  0  0  0  0  0  0  0  0  0  0  0
   57.4760   26.9510   45.1110 C   0  0  0  0  0  0  0  0  0  0  0  0
   56.7737   26.4751   44.4107 H   0  0  0  0  0  0  0  0  0  0  0  0
   58.3770   26.1510   45.8460 C   0  0  0  0  0  0  0  0  0  0  0  0
   58.3711   25.0591   45.7129 H   0  0  0  0  0  0  0  0  0  0  0  0
   59.2820   26.7390   46.7470 C   0  0  0  0  0  0  0  0  0  0  0  0
   59.9879   26.1261   47.3268 H   0  0  0  0  0  0  0  0  0  0  0  0
   59.2530   28.1220   46.8790 C   0  0  0  0  0  0  0  0  0  0  0  0
   60.0190   28.8800   47.6760 N   0  0  0  0  0  0  0  0  0  0  0  0
   59.5780   30.1380   47.4120 C   0  0  0  0  0  0  0  0  0  0  0  0
   60.0910   31.3620   48.0650 C   0  0  0  0  0  0  0  0  0  0  0  0
   60.9974   31.8124   47.6342 H   0  0  0  0  0  0  0  0  0  0  0  0
   59.5540   31.9800   49.1390 C   0  0  0  0  0  0  0  0  0  0  0  0
   59.6440   33.4600   49.2350 C   0  0  0  0  0  0  0  0  0  0  0  0
   60.2210   33.9850   50.2250 O   0  0  0  0  0  0  0  0  0  0  0  0
   59.0380   34.3200   48.2600 N   0  0  0  0  0  0  0  0  0  0  0  0
   58.7550   33.9830   46.8950 C   0  0  0  0  0  0  0  0  0  0  0  0
   59.5250   34.4920   45.8330 C   0  0  0  0  0  0  0  0  0  0  0  0
   60.3762   35.1567   46.0419 H   0  0  0  0  0  0  0  0  0  0  0  0
   59.2110   34.1550   44.5130 C   0  0  0  0  0  0  0  0  0  0  0  0
   59.8243   34.5441   43.6869 H   0  0  0  0  0  0  0  0  0  0  0  0
   58.1200   33.3250   44.2400 C   0  0  0  0  0  0  0  0  0  0  0  0
   57.8795   33.0562   43.2008 H   0  0  0  0  0  0  0  0  0  0  0  0
   57.3320   32.8350   45.2920 C   0  0  0  0  0  0  0  0  0  0  0  0
   56.2360   32.0150   45.0340 O   0  0  0  0  0  0  0  0  0  0  0  0
   56.2560   31.0240   45.2450 H   0  0  0  0  0  0  0  0  0  0  0  0
   57.6490   33.1710   46.6130 C   0  0  0  0  0  0  0  0  0  0  0  0
   57.0246   32.7944   47.4366 H   0  0  0  0  0  0  0  0  0  0  0  0
   58.8900   31.2220   50.2600 C   0  0  0  0  0  0  0  0  0  0  0  0
   59.2367   31.6178   51.2260 H   0  0  0  0  0  0  0  0  0  0  0  0
   57.7988   31.3393   50.1860 H   0  0  0  0  0  0  0  0  0  0  0  0
   59.1500   30.1557   50.1860 H   0  0  0  0  0  0  0  0  0  0  0  0
   58.5730   30.1910   46.5000 N   0  0  0  0  0  0  0  0  0  0  0  0
   58.3870   28.9020   46.1740 C   0  0  0  0  0  0  0  0  0  0  0  0
  1  2  1  0
  2  3  1  0
  3  4  2  0
  3  5  1  0
  5  6  2  0
  6  7  1  0
  6  8  1  0
  8  9  1  0
  8 10  2  0
 10 11  1  0
 10 12  1  0
 12 13  1  0
 13 14  1  0
 14 15  1  0
 15 16  1  0
 15 17  2  0
 17 18  1  0
 18 19  2  0
 18 20  1  0
 20 21  1  0
 21 22  2  0
 22 23  1  0
 22 24  1  0
 24 25  1  0
 24 26  2  0
 26 27  1  0
 26 28  1  0
 28 29  1  0
 29 30  1  0
 28 31  2  0
 31 32  1  0
 17 33  1  0
 33 34  1  0
 33 35  1  0
 33 36  1  0
 14 37  2  0
 37 38  1  0
 38  5  1  0
 38 12  2  0
 31 21  1  0
M  CHG  3   2  -1  13  -1  20  -1
M  END
>  <UniqueID>  (42) 
40

>  <SMILES>  (42) 
C/C(=C\c1nc2c(C([NH-])=O)cccc2[n-]1)C(=O)[N-]c1cccc(O)c1

>  <Energy>  (42) 
83.9603875623146

>  <Genealogy>  (42) 
CC(=Cc1nc2c(C([NH-])=O)cccc2[n-]1)C(=O)[N-]c1cccc(O)c1 (protonated)
C/C(=C\c1nc2c(C([NH-])=O)cccc2[n-]1)C(=O)[N-]c1cccc(O)c1 (cis-trans isomerization)
C/C(=C\c1nc2c(C([NH-])=O)cccc2[n-]1)C(=O)[N-]c1cccc(O)c1 (3D coordinates assigned)
C/C(=C\c1nc2c(C([NH-])=O)cccc2[n-]1)C(=O)[N-]c1cccc(O)c1 (optimized conformer: 83.9603875623146 kcal/mol)

>  <smiles>  (42) 
CC(=Cc1nc2c(C(N)=O)cccc2[nH]1)C(=O)Nc1cccc(O)c1

>  <score_type>  (42) 
oracle

>  <origin>  (42) 
adg

>  <m_score__min__energy>  (42) 
-13.06

>  <m_primary>  (42) 
energy

$$$$
42:0
     RDKit          3D

 48 51  0  0  1  0  0  0  0  0999 V2000
   54.9290   26.3470   45.7820 N   0  0  0  0  0  0  0  0  0  0  0  0
   56.2630   25.8850   45.9040 C   0  0  0  0  0  0  0  0  0  0  0  0
   56.5940   24.5550   46.0580 C   0  0  0  0  0  0  0  0  0  0  0  0
   57.9240   24.1840   46.1710 C   0  0  0  0  0  0  0  0  0  0  0  0
   58.9580   25.1110   46.1330 C   0  0  0  0  0  0  0  0  0  0  0  0
   58.6260   26.4180   45.9810 C   0  0  0  0  0  0  0  0  0  0  0  0
   59.6110   27.5160   45.9240 C   0  0  0  0  0  0  0  0  0  0  0  0
   59.8310   27.9960   44.7940 O   0  0  0  0  0  0  0  0  0  0  0  0
   60.2030   27.9160   47.1300 N   0  0  0  0  0  0  0  0  0  0  0  0
   60.0900   29.1310   47.5320 C   0  0  0  0  0  0  0  0  0  0  0  0
   60.7060   29.6560   48.6330 C   0  0  0  0  0  0  0  0  0  0  0  0
   60.4980   30.9760   48.9740 C   0  0  0  0  0  0  0  0  0  0  0  0
   61.0870   31.5700   50.0730 O   0  0  0  0  0  0  0  0  0  0  0  0
   62.3120   32.1740   50.1210 C   0  0  0  0  0  0  0  0  0  0  0  0
   63.3490   31.8220   49.2680 C   0  0  0  0  0  0  0  0  0  0  0  0
   64.5660   32.4750   49.3710 C   0  0  0  0  0  0  0  0  0  0  0  0
   64.7380   33.4670   50.3150 C   0  0  0  0  0  0  0  0  0  0  0  0
   63.7020   33.8260   51.1740 C   0  0  0  0  0  0  0  0  0  0  0  0
   62.4880   33.1800   51.0770 C   0  0  0  0  0  0  0  0  0  0  0  0
   59.6620   31.8050   48.2150 C   0  0  0  0  0  0  0  0  0  0  0  0
   59.0640   31.2260   47.1140 C   0  0  0  0  0  0  0  0  0  0  0  0
   58.2240   31.9910   46.3180 O   0  0  0  0  0  0  0  0  0  0  0  0
   57.7140   31.3650   45.1670 C   0  0  0  0  0  0  0  0  0  0  0  0
   57.8660   31.9100   43.9080 C   0  0  0  0  0  0  0  0  0  0  0  0
   57.3650   31.2960   42.7720 C   0  0  0  0  0  0  0  0  0  0  0  0
   56.6920   30.0980   42.9360 C   0  0  0  0  0  0  0  0  0  0  0  0
   56.2320   29.5290   41.9140 O   0  0  0  0  0  0  0  0  0  0  0  0
   56.5570   29.5850   44.1770 N   0  0  0  0  0  0  0  0  0  0  0  0
   57.0510   30.2020   45.2490 N   0  0  0  0  0  0  0  0  0  0  0  0
   59.2930   29.9390   46.8160 N   0  0  0  0  0  0  0  0  0  0  0  0
   57.2940   26.8290   45.8650 C   0  0  0  0  0  0  0  0  0  0  0  0
   54.1320   26.0400   46.3630 H   0  0  0  0  0  0  0  0  0  0  0  0
   54.7460   27.0690   45.0300 H   0  0  0  0  0  0  0  0  0  0  0  0
   55.8038   23.7905   46.0910 H   0  0  0  0  0  0  0  0  0  0  0  0
   58.1697   23.1190   46.2951 H   0  0  0  0  0  0  0  0  0  0  0  0
   60.0083   24.7968   46.2229 H   0  0  0  0  0  0  0  0  0  0  0  0
   61.3671   29.0264   49.2467 H   0  0  0  0  0  0  0  0  0  0  0  0
   63.2054   31.0314   48.5168 H   0  0  0  0  0  0  0  0  0  0  0  0
   65.3949   32.2032   48.7009 H   0  0  0  0  0  0  0  0  0  0  0  0
   65.7073   33.9816   50.3901 H   0  0  0  0  0  0  0  0  0  0  0  0
   63.8511   34.6177   51.9229 H   0  0  0  0  0  0  0  0  0  0  0  0
   61.6611   33.4545   51.7486 H   0  0  0  0  0  0  0  0  0  0  0  0
   59.4916   32.8585   48.4815 H   0  0  0  0  0  0  0  0  0  0  0  0
   58.4032   32.8642   43.8033 H   0  0  0  0  0  0  0  0  0  0  0  0
   57.4972   31.7441   41.7762 H   0  0  0  0  0  0  0  0  0  0  0  0
   56.0340   28.6640   44.2570 H   0  0  0  0  0  0  0  0  0  0  0  0
   58.8030   29.5720   45.9630 H   0  0  0  0  0  0  0  0  0  0  0  0
   57.0572   27.8962   45.7429 H   0  0  0  0  0  0  0  0  0  0  0  0
  1  2  1  0
  2  3  2  0
  3  4  1  0
  4  5  2  0
  5  6  1  0
  6  7  1  0
  7  8  2  0
  7  9  1  0
  9 10  2  0
 10 11  1  0
 11 12  2  0
 12 13  1  0
 13 14  1  0
 14 15  2  0
 15 16  1  0
 16 17  2  0
 17 18  1  0
 18 19  2  0
 12 20  1  0
 20 21  2  0
 21 22  1  0
 22 23  1  0
 23 24  1  0
 24 25  2  0
 25 26  1  0
 26 27  2  0
 26 28  1  0
 28 29  1  0
 21 30  1  0
  6 31  2  0
 31  2  1  0
 30 10  1  0
 19 14  1  0
 29 23  2  0
  1 32  1  0
  1 33  1  0
  3 34  1  0
  4 35  1  0
  5 36  1  0
 11 37  1  0
 15 38  1  0
 16 39  1  0
 17 40  1  0
 18 41  1  0
 19 42  1  0
 20 43  1  0
 24 44  1  0
 25 45  1  0
 28 46  1  0
 30 47  1  0
 31 48  1  0
M  END
>  <smiles>  (43) 
Nc1cccc(C(=O)N=c2cc(Oc3ccccc3)cc(Oc3ccc(=O)[nH]n3)[nH]2)c1

>  <score_type>  (43) 
oracle

>  <origin>  (43) 
adg

>  <m_score__min__energy>  (43) 
-9.5399999999999991

>  <m_primary>  (43) 
energy

$$$$
43:0
     RDKit          3D

 47 48  0  0  0  0  0  0  0  0999 V2000
   57.0327   31.4202   41.1795 H   0  0  0  0  0  0  0  0  0  0  0  0
   57.0160   31.1720   42.2510 C   0  0  0  0  0  0  0  0  0  0  0  0
   57.5554   31.8053   42.9707 H   0  0  0  0  0  0  0  0  0  0  0  0
   56.3410   30.1020   42.6780 C   0  0  0  0  0  0  0  0  0  0  0  0
   55.8065   29.4783   41.9464 H   0  0  0  0  0  0  0  0  0  0  0  0
   56.2930   29.7280   44.1340 C   0  0  0  0  0  0  0  0  0  0  0  0
   55.7597   30.5132   44.6900 H   0  0  0  0  0  0  0  0  0  0  0  0
   55.7706   28.7649   44.2321 H   0  0  0  0  0  0  0  0  0  0  0  0
   57.6840   29.5810   44.6990 C   0  0  0  0  0  0  0  0  0  0  0  0
   58.4780   28.4860   44.3190 C   0  0  0  0  0  0  0  0  0  0  0  0
   58.0833   27.7449   43.6084 H   0  0  0  0  0  0  0  0  0  0  0  0
   59.7650   28.3330   44.8380 C   0  0  0  0  0  0  0  0  0  0  0  0
   60.3792   27.4710   44.5385 H   0  0  0  0  0  0  0  0  0  0  0  0
   60.2730   29.2720   45.7360 C   0  0  0  0  0  0  0  0  0  0  0  0
   61.2859   29.1468   46.1464 H   0  0  0  0  0  0  0  0  0  0  0  0
   59.4990   30.3700   46.1150 C   0  0  0  0  0  0  0  0  0  0  0  0
   59.9061   31.1083   46.8216 H   0  0  0  0  0  0  0  0  0  0  0  0
   58.2000   30.5380   45.5980 C   0  0  0  0  0  0  0  0  0  0  0  0
   57.3960   31.6360   45.9470 O   0  0  0  0  0  0  0  0  0  0  0  0
   57.2630   32.8440   45.1940 C   0  0  0  0  0  0  0  0  0  0  0  0
   56.5399   32.6787   44.3817 H   0  0  0  0  0  0  0  0  0  0  0  0
   56.9191   33.6347   45.8770 H   0  0  0  0  0  0  0  0  0  0  0  0
   58.6040   33.2920   44.5830 C   0  0  0  0  0  0  0  0  0  0  0  0
   59.2586   32.4132   44.4870 H   0  0  0  0  0  0  0  0  0  0  0  0
   58.3892   33.7464   43.6046 H   0  0  0  0  0  0  0  0  0  0  0  0
   59.2800   34.2890   45.3920 N   0  0  0  0  0  0  0  0  0  0  0  0
   60.0080   34.0750   46.4420 C   0  0  0  0  0  0  0  0  0  0  0  0
   59.2800   33.9970   47.7650 C   0  0  0  0  0  0  0  0  0  0  0  0
   58.5703   34.8359   47.8157 H   0  0  0  0  0  0  0  0  0  0  0  0
   58.7891   33.0130   47.7922 H   0  0  0  0  0  0  0  0  0  0  0  0
   60.1710   34.0620   48.9780 C   0  0  0  0  0  0  0  0  0  0  0  0
   59.6550   34.1840   50.0780 O   0  0  0  0  0  0  0  0  0  0  0  0
   61.6720   34.0100   48.8850 C   0  0  0  0  0  0  0  0  0  0  0  0
   62.0611   35.0388   48.8974 H   0  0  0  0  0  0  0  0  0  0  0  0
   62.0377   33.4261   49.7425 H   0  0  0  0  0  0  0  0  0  0  0  0
   62.1660   33.3110   47.6010 C   0  0  0  0  0  0  0  0  0  0  0  0
   63.7000   33.4640   47.5100 C   0  0  0  0  0  0  0  0  0  0  0  0
   64.1250   33.5064   48.5237 H   0  0  0  0  0  0  0  0  0  0  0  0
   64.1230   32.6036   46.9707 H   0  0  0  0  0  0  0  0  0  0  0  0
   63.9447   34.3910   46.9707 H   0  0  0  0  0  0  0  0  0  0  0  0
   61.8330   31.8010   47.6360 C   0  0  0  0  0  0  0  0  0  0  0  0
   61.7591   31.4660   48.6811 H   0  0  0  0  0  0  0  0  0  0  0  0
   60.8745   31.6250   47.1259 H   0  0  0  0  0  0  0  0  0  0  0  0
   62.6286   31.2381   47.1259 H   0  0  0  0  0  0  0  0  0  0  0  0
   61.5240   33.9810   46.3630 C   0  0  0  0  0  0  0  0  0  0  0  0
   61.9314   34.9983   46.2671 H   0  0  0  0  0  0  0  0  0  0  0  0
   61.7643   33.3517   45.4934 H   0  0  0  0  0  0  0  0  0  0  0  0
  1  2  1  0
  2  3  1  0
  2  4  2  0
  4  5  1  0
  4  6  1  0
  6  7  1  0
  6  8  1  0
  6  9  1  0
  9 10  2  0
 10 11  1  0
 10 12  1  0
 12 13  1  0
 12 14  2  0
 14 15  1  0
 14 16  1  0
 16 17  1  0
 16 18  2  0
 18 19  1  0
 19 20  1  0
 20 21  1  0
 20 22  1  0
 20 23  1  0
 23 24  1  0
 23 25  1  0
 23 26  1  0
 26 27  2  0
 27 28  1  0
 28 29  1  0
 28 30  1  0
 28 31  1  0
 31 32  2  0
 31 33  1  0
 33 34  1  0
 33 35  1  0
 33 36  1  0
 36 37  1  0
 37 38  1  0
 37 39  1  0
 37 40  1  0
 36 41  1  0
 41 42  1  0
 41 43  1  0
 41 44  1  0
 36 45  1  0
 45 46  1  0
 45 47  1  0
 18  9  1  0
 45 27  1  0
M  END
>  <UniqueID>  (44) 
41

>  <SMILES>  (44) 
C=CCc1ccccc1OCC/N=C1/CC(=O)CC(C)(C)C1

>  <Energy>  (44) 
39.88488873889389

>  <Genealogy>  (44) 
C=CCc1ccccc1OCC/N=C1/CC(=O)CC(C)(C)C1 (cis-trans isomerization)
C=CCc1ccccc1OCC/N=C1/CC(=O)CC(C)(C)C1 (3D coordinates assigned)
C=CCc1ccccc1OCC/N=C1/CC(=O)CC(C)(C)C1 (nonaromatic ring conformer: 39.88488873889389 kcal/mol)

>  <smiles>  (44) 
C=CCc1ccccc1OCCN=C1CC(=O)CC(C)(C)C1

>  <score_type>  (44) 
oracle

>  <origin>  (44) 
adg

>  <m_score__min__energy>  (44) 
-7.5800000000000001

>  <m_primary>  (44) 
energy

$$$$
44:0
     RDKit          3D

 55 58  0  0  0  0  0  0  0  0999 V2000
   54.5983   29.6290   55.7375 H   0  0  0  0  0  0  0  0  0  0  0  0
   53.9590   29.7600   54.8520 C   0  0  0  0  0  0  0  0  0  0  0  0
   52.9009   29.4616   54.8885 H   0  0  0  0  0  0  0  0  0  0  0  0
   54.4700   30.2840   53.7270 C   0  0  0  0  0  0  0  0  0  0  0  0
   53.7900   30.5140   52.5210 C   0  0  0  0  0  0  0  0  0  0  0  0
   52.4750   30.5020   52.2280 C   0  0  0  0  0  0  0  0  0  0  0  0
   51.7889   30.1496   53.0123 H   0  0  0  0  0  0  0  0  0  0  0  0
   51.8760   30.9200   50.9480 C   0  0  0  0  0  0  0  0  0  0  0  0
   51.7590   30.1340   49.8610 N   0  0  0  0  0  0  0  0  0  0  0  0
   51.0340   30.8900   49.0080 C   0  0  0  0  0  0  0  0  0  0  0  0
   50.7240   30.4970   47.8520 O   0  0  0  0  0  0  0  0  0  0  0  0
   50.6600   32.0930   49.4940 N   0  0  0  0  0  0  0  0  0  0  0  0
   51.1870   32.0880   50.7280 C   0  0  0  0  0  0  0  0  0  0  0  0
   51.0360   33.1270   51.6390 O   0  0  0  0  0  0  0  0  0  0  0  0
   54.7610   30.8040   51.5790 C   0  0  0  0  0  0  0  0  0  0  0  0
   54.5964   31.0025   50.5097 H   0  0  0  0  0  0  0  0  0  0  0  0
   55.9750   30.7970   52.2350 C   0  0  0  0  0  0  0  0  0  0  0  0
   57.2670   31.0380   51.5630 C   0  0  0  0  0  0  0  0  0  0  0  0
   57.4260   32.1030   50.9060 O   0  0  0  0  0  0  0  0  0  0  0  0
   58.3110   30.0540   51.5960 N   0  0  0  0  0  0  0  0  0  0  0  0
   58.1030   29.1020   51.9690 H   0  0  0  0  0  0  0  0  0  0  0  0
   59.6140   30.2730   50.9750 C   0  0  0  0  0  0  0  0  0  0  0  0
   59.7740   31.3524   50.8362 H   0  0  0  0  0  0  0  0  0  0  0  0
   60.3974   29.8591   51.6268 H   0  0  0  0  0  0  0  0  0  0  0  0
   59.6720   29.5860   49.6390 C   0  0  0  0  0  0  0  0  0  0  0  0
   60.0360   28.2320   49.5620 C   0  0  0  0  0  0  0  0  0  0  0  0
   60.2941   27.6818   50.4789 H   0  0  0  0  0  0  0  0  0  0  0  0
   60.0720   27.5800   48.3270 C   0  0  0  0  0  0  0  0  0  0  0  0
   60.3683   26.5219   48.2755 H   0  0  0  0  0  0  0  0  0  0  0  0
   59.7320   28.2680   47.1510 C   0  0  0  0  0  0  0  0  0  0  0  0
   59.7740   27.5630   45.8100 C   0  0  0  0  0  0  0  0  0  0  0  0
   59.7231   28.3239   45.0173 H   0  0  0  0  0  0  0  0  0  0  0  0
   60.7098   26.9855   45.7829 H   0  0  0  0  0  0  0  0  0  0  0  0
   58.6690   26.5990   45.6020 N   0  0  0  0  0  0  0  0  0  0  0  0
   57.4040   27.0330   46.2300 C   0  0  0  0  0  0  0  0  0  0  0  0
   57.1153   28.0134   45.8231 H   0  0  0  0  0  0  0  0  0  0  0  0
   57.5521   27.1031   47.3177 H   0  0  0  0  0  0  0  0  0  0  0  0
   56.3120   26.0410   45.9510 C   0  0  0  0  0  0  0  0  0  0  0  0
   55.1060   26.3980   45.9990 O   0  0  0  0  0  0  0  0  0  0  0  0
   56.6390   24.6680   45.7210 N   0  0  0  0  0  0  0  0  0  0  0  0
   58.0010   24.2500   45.3980 C   0  0  0  0  0  0  0  0  0  0  0  0
   58.1215   24.2265   44.3049 H   0  0  0  0  0  0  0  0  0  0  0  0
   58.1736   23.2504   45.8235 H   0  0  0  0  0  0  0  0  0  0  0  0
   59.0230   25.2210   45.9950 C   0  0  0  0  0  0  0  0  0  0  0  0
   60.0269   24.9769   45.6173 H   0  0  0  0  0  0  0  0  0  0  0  0
   59.0173   25.1360   47.0917 H   0  0  0  0  0  0  0  0  0  0  0  0
   59.3640   29.6210   47.2300 C   0  0  0  0  0  0  0  0  0  0  0  0
   59.1016   30.1703   46.3138 H   0  0  0  0  0  0  0  0  0  0  0  0
   59.3290   30.2740   48.4650 C   0  0  0  0  0  0  0  0  0  0  0  0
   59.0314   31.3317   48.5171 H   0  0  0  0  0  0  0  0  0  0  0  0
   55.7970   30.5210   53.5500 N   0  0  0  0  0  0  0  0  0  0  0  0
   56.8390   30.4750   54.5840 C   0  0  0  0  0  0  0  0  0  0  0  0
   56.3697   30.4957   55.5787 H   0  0  0  0  0  0  0  0  0  0  0  0
   57.4243   29.5501   54.4739 H   0  0  0  0  0  0  0  0  0  0  0  0
   57.5035   31.3447   54.4739 H   0  0  0  0  0  0  0  0  0  0  0  0
  1  2  1  0
  2  3  1  0
  2  4  2  0
  4  5  1  0
  5  6  2  0
  6  7  1  0
  6  8  1  0
  8  9  1  0
  9 10  1  0
 10 11  2  0
 10 12  1  0
 12 13  1  0
 13 14  1  0
  5 15  1  0
 15 16  1  0
 15 17  2  0
 17 18  1  0
 18 19  2  0
 18 20  1  0
 20 21  1  0
 20 22  1  0
 22 23  1  0
 22 24  1  0
 22 25  1  0
 25 26  2  0
 26 27  1  0
 26 28  1  0
 28 29  1  0
 28 30  2  0
 30 31  1  0
 31 32  1  0
 31 33  1  0
 31 34  1  0
 34 35  1  0
 35 36  1  0
 35 37  1  0
 35 38  1  0
 38 39  2  0
 38 40  1  0
 40 41  1  0
 41 42  1  0
 41 43  1  0
 41 44  1  0
 44 45  1  0
 44 46  1  0
 30 47  1  0
 47 48  1  0
 47 49  2  0
 49 50  1  0
 17 51  1  0
 51 52  1  0
 52 53  1  0
 52 54  1  0
 52 55  1  0
 51  4  1  0
 13  8  2  0
 49 25  1  0
 44 34  1  0
M  CHG  4   9  -1  12  -1  14  -1  40  -1
M  END
>  <UniqueID>  (45) 
42

>  <SMILES>  (45) 
C=c1/c(=C\c2[n-]c(=O)[n-]c2[O-])cc(C(=O)NCc2ccc(CN3CC[N-]C(=O)C3)cc2)n1C

>  <Energy>  (45) 
132.46749297529695

>  <Genealogy>  (45) 
C=c1c(=Cc2[n-]c(=O)[n-]c2[O-])cc(C(=O)NCc2ccc(CN3CC[N-]C(=O)C3)cc2)n1C (protonated)
C=c1/c(=C\c2[n-]c(=O)[n-]c2[O-])cc(C(=O)NCc2ccc(CN3CC[N-]C(=O)C3)cc2)n1C (cis-trans isomerization)
C=c1/c(=C\c2[n-]c(=O)[n-]c2[O-])cc(C(=O)NCc2ccc(CN3CC[N-]C(=O)C3)cc2)n1C (3D coordinates assigned)
C=c1/c(=C\c2[n-]c(=O)[n-]c2[O-])cc(C(=O)NCc2ccc(CN3CC[N-]C(=O)C3)cc2)n1C (nonaromatic ring conformer: 132.46749297529695 kcal/mol)

>  <smiles>  (45) 
C=c1c(=Cc2[nH]c(=O)[nH]c2O)cc(C(=O)NCc2ccc(CN3CCNC(=O)C3)cc2)n1C

>  <score_type>  (45) 
oracle

>  <origin>  (45) 
adg

>  <m_score__min__energy>  (45) 
-20.93

>  <m_primary>  (45) 
energy

$$$$
45:0
     RDKit          3D

 39 41  0  0  0  0  0  0  0  0999 V2000
   59.7190   27.0290   47.7890 O   0  0  0  0  0  0  0  0  0  0  0  0
   58.7230   26.9550   47.0190 C   0  0  0  0  0  0  0  0  0  0  0  0
   57.9190   25.7720   47.0080 N   0  0  0  0  0  0  0  0  0  0  0  0
   57.5940   24.8670   45.5680 S   0  0  0  0  0  0  0  0  0  0  0  0
   57.8800   25.7330   44.3730 O   0  0  0  0  0  0  0  0  0  0  0  0
   58.5010   23.6700   45.5020 O   0  0  0  0  0  0  0  0  0  0  0  0
   55.8960   24.3850   45.5460 C   0  0  0  0  0  0  0  0  0  0  0  0
   55.5750   23.0280   45.4020 C   0  0  0  0  0  0  0  0  0  0  0  0
   54.2390   22.6180   45.3600 C   0  0  0  0  0  0  0  0  0  0  0  0
   53.2130   23.5610   45.4540 C   0  0  0  0  0  0  0  0  0  0  0  0
   53.5230   24.9160   45.5950 C   0  0  0  0  0  0  0  0  0  0  0  0
   54.8580   25.3350   45.6400 C   0  0  0  0  0  0  0  0  0  0  0  0
   55.1360   26.6900   45.7720 O   0  0  0  0  0  0  0  0  0  0  0  0
   58.3930   28.0910   46.1290 C   0  0  0  0  0  0  0  0  0  0  0  0
   59.2240   29.2250   46.0840 C   0  0  0  0  0  0  0  0  0  0  0  0
   58.8960   30.2880   45.2430 C   0  0  0  0  0  0  0  0  0  0  0  0
   57.7450   30.2230   44.4570 C   0  0  0  0  0  0  0  0  0  0  0  0
   57.2980   31.5910   43.3880 S   0  0  0  0  0  0  0  0  0  0  0  0
   57.8770   32.8150   44.5620 C   0  0  0  0  0  0  0  0  0  0  0  0
   58.8700   33.7300   44.1890 C   0  0  0  0  0  0  0  0  0  0  0  0
   59.3310   34.6760   45.1100 C   0  0  0  0  0  0  0  0  0  0  0  0
   58.7960   34.7150   46.4020 C   0  0  0  0  0  0  0  0  0  0  0  0
   59.2420   35.6340   47.2930 F   0  0  0  0  0  0  0  0  0  0  0  0
   57.8000   33.8050   46.7740 C   0  0  0  0  0  0  0  0  0  0  0  0
   57.3420   32.8550   45.8570 C   0  0  0  0  0  0  0  0  0  0  0  0
   56.9410   29.0810   44.5190 C   0  0  0  0  0  0  0  0  0  0  0  0
   57.2740   28.0500   45.3430 N   0  0  0  0  0  0  0  0  0  0  0  0
   56.3789   22.2815   45.3216 H   0  0  0  0  0  0  0  0  0  0  0  0
   53.9955   21.5507   45.2527 H   0  0  0  0  0  0  0  0  0  0  0  0
   52.1624   23.2373   45.4171 H   0  0  0  0  0  0  0  0  0  0  0  0
   52.7139   25.6574   45.6710 H   0  0  0  0  0  0  0  0  0  0  0  0
   60.1279   29.2731   46.7090 H   0  0  0  0  0  0  0  0  0  0  0  0
   59.5435   31.1761   45.1994 H   0  0  0  0  0  0  0  0  0  0  0  0
   59.2872   33.7044   43.1715 H   0  0  0  0  0  0  0  0  0  0  0  0
   60.1151   35.3902   44.8182 H   0  0  0  0  0  0  0  0  0  0  0  0
   57.3773   33.8375   47.7890 H   0  0  0  0  0  0  0  0  0  0  0  0
   56.5613   32.1383   46.1516 H   0  0  0  0  0  0  0  0  0  0  0  0
   56.0349   29.0153   43.8989 H   0  0  0  0  0  0  0  0  0  0  0  0
   56.6430   27.2180   45.3660 H   0  0  0  0  0  0  0  0  0  0  0  0
  1  2  2  0
  2  3  1  0
  3  4  1  0
  4  5  2  0
  4  6  2  0
  4  7  1  0
  7  8  2  0
  8  9  1  0
  9 10  2  0
 10 11  1  0
 11 12  2  0
 12 13  1  0
  2 14  1  0
 14 15  2  0
 15 16  1  0
 16 17  2  0
 17 18  1  0
 18 19  1  0
 19 20  2  0
 20 21  1  0
 21 22  2  0
 22 23  1  0
 22 24  1  0
 24 25  2  0
 17 26  1  0
 26 27  2  0
 12  7  1  0
 27 14  1  0
 25 19  1  0
  8 28  1  0
  9 29  1  0
 10 30  1  0
 11 31  1  0
 15 32  1  0
 16 33  1  0
 20 34  1  0
 21 35  1  0
 24 36  1  0
 25 37  1  0
 26 38  1  0
 27 39  1  0
M  CHG  3   3  -1  13  -1  27   1
M  END
>  <UniqueID>  (46) 
43

>  <SMILES>  (46) 
O=C([N-]S(=O)(=O)c1ccccc1[O-])c1ccc(Sc2ccc(F)cc2)c[nH+]1

>  <Energy>  (46) 
41.6384660209528

>  <Genealogy>  (46) 
O=C([N-]S(=O)(=O)c1ccccc1[O-])c1ccc(Sc2ccc(F)cc2)c[nH+]1 (protonated)
O=C([N-]S(=O)(=O)c1ccccc1[O-])c1ccc(Sc2ccc(F)cc2)c[nH+]1 (3D coordinates assigned)
O=C([N-]S(=O)(=O)c1ccccc1[O-])c1ccc(Sc2ccc(F)cc2)c[nH+]1 (optimized conformer: 41.6384660209528 kcal/mol)

>  <smiles>  (46) 
O=C(NS(=O)(=O)c1ccccc1O)c1ccc(Sc2ccc(F)cc2)cn1

>  <score_type>  (46) 
oracle

>  <origin>  (46) 
adg

>  <m_score__min__energy>  (46) 
-12.539999999999999

>  <m_primary>  (46) 
energy

$$$$
46:0
     RDKit          3D

 37 38  0  0  0  0  0  0  0  0999 V2000
   59.8780   26.9490   46.4990 C   0  0  0  0  0  0  0  0  0  0  0  0
   58.5270   27.4620   46.0630 C   0  0  0  0  0  0  0  0  0  0  0  0
   57.4060   26.6420   46.2580 C   0  0  0  0  0  0  0  0  0  0  0  0
   56.1440   27.0750   45.8420 C   0  0  0  0  0  0  0  0  0  0  0  0
   55.0960   26.3340   46.0160 N   0  0  0  0  0  0  0  0  0  0  0  0
   56.0120   28.2850   45.2460 N   0  0  0  0  0  0  0  0  0  0  0  0
   57.0660   29.1170   45.0300 C   0  0  0  0  0  0  0  0  0  0  0  0
   56.7950   30.4230   44.3400 C   0  0  0  0  0  0  0  0  0  0  0  0
   58.3710   28.7210   45.4260 C   0  0  0  0  0  0  0  0  0  0  0  0
   59.5550   29.6510   45.2350 C   0  0  0  0  0  0  0  0  0  0  0  0
   59.5070   30.7250   46.2260 N   0  0  0  0  0  0  0  0  0  0  0  0
   60.1680   30.6600   47.4970 C   0  0  0  0  0  0  0  0  0  0  0  0
   60.9620   29.7140   47.7540 O   0  0  0  0  0  0  0  0  0  0  0  0
   59.9850   31.7380   48.4940 C   0  0  0  0  0  0  0  0  0  0  0  0
   58.9200   31.6180   49.4010 C   0  0  0  0  0  0  0  0  0  0  0  0
   58.7390   32.5400   50.3800 N   0  0  0  0  0  0  0  0  0  0  0  0
   59.5640   33.6080   50.5160 C   0  0  0  0  0  0  0  0  0  0  0  0
   59.3680   34.4340   51.4460 O   0  0  0  0  0  0  0  0  0  0  0  0
   60.6250   33.7900   49.6290 C   0  0  0  0  0  0  0  0  0  0  0  0
   60.8340   32.8760   48.5780 C   0  0  0  0  0  0  0  0  0  0  0  0
   61.9650   33.1380   47.6000 C   0  0  0  0  0  0  0  0  0  0  0  0
   62.7470   32.0110   47.4290 F   0  0  0  0  0  0  0  0  0  0  0  0
   62.7510   34.1760   48.0650 F   0  0  0  0  0  0  0  0  0  0  0  0
   61.4680   33.4890   46.3570 F   0  0  0  0  0  0  0  0  0  0  0  0
   59.9261   26.9307   47.5978 H   0  0  0  0  0  0  0  0  0  0  0  0
   60.0274   25.9316   46.1085 H   0  0  0  0  0  0  0  0  0  0  0  0
   60.6650   27.6109   46.1085 H   0  0  0  0  0  0  0  0  0  0  0  0
   57.5200   25.6588   46.7380 H   0  0  0  0  0  0  0  0  0  0  0  0
   54.2410   26.6770   46.5100 H   0  0  0  0  0  0  0  0  0  0  0  0
   56.6320   31.2084   45.0927 H   0  0  0  0  0  0  0  0  0  0  0  0
   57.6566   30.6911   43.7110 H   0  0  0  0  0  0  0  0  0  0  0  0
   55.8978   30.3261   43.7110 H   0  0  0  0  0  0  0  0  0  0  0  0
   60.4889   29.0828   45.3574 H   0  0  0  0  0  0  0  0  0  0  0  0
   59.5152   30.0865   44.2257 H   0  0  0  0  0  0  0  0  0  0  0  0
   59.0210   31.6110   45.9650 H   0  0  0  0  0  0  0  0  0  0  0  0
   58.2259   30.7687   49.3172 H   0  0  0  0  0  0  0  0  0  0  0  0
   61.3003   34.6497   49.7507 H   0  0  0  0  0  0  0  0  0  0  0  0
  1  2  1  0
  2  3  2  0
  3  4  1  0
  4  5  2  3
  4  6  1  0
  6  7  1  0
  7  8  1  0
  7  9  2  0
  9 10  1  0
 10 11  1  0
 11 12  1  0
 12 13  2  0
 12 14  1  0
 14 15  2  0
 15 16  1  0
 16 17  1  0
 17 18  2  0
 17 19  1  0
 19 20  2  0
 20 21  1  0
 21 22  1  0
 21 23  1  0
 21 24  1  0
  9  2  1  0
 20 14  1  0
  1 25  1  0
  1 26  1  0
  1 27  1  0
  3 28  1  0
  5 29  1  0
  8 30  1  0
  8 31  1  0
  8 32  1  0
 10 33  1  0
 10 34  1  0
 11 35  1  0
 15 36  1  0
 19 37  1  0
M  CHG  2   6  -1  16  -1
M  END
>  <UniqueID>  (47) 
44

>  <SMILES>  (47) 
Cc1cc(=N)[n-]c(C)c1CNC(=O)c1c[n-]c(=O)cc1C(F)(F)F

>  <Energy>  (47) 
47.492818794884286

>  <Genealogy>  (47) 
Cc1cc(=N)[n-]c(C)c1CNC(=O)c1c[n-]c(=O)cc1C(F)(F)F (protonated)
Cc1cc(=N)[n-]c(C)c1CNC(=O)c1c[n-]c(=O)cc1C(F)(F)F (3D coordinates assigned)
Cc1cc(=N)[n-]c(C)c1CNC(=O)c1c[n-]c(=O)cc1C(F)(F)F (optimized conformer: 47.492818794884286 kcal/mol)

>  <smiles>  (47) 
Cc1cc(=N)[nH]c(C)c1CNC(=O)c1c[nH]c(=O)cc1C(F)(F)F

>  <score_type>  (47) 
oracle

>  <origin>  (47) 
adg

>  <m_score__min__energy>  (47) 
-9.9700000000000006

>  <m_primary>  (47) 
energy

$$$$
47:0
     RDKit          3D

 34 36  0  0  0  0  0  0  0  0999 V2000
   56.4460   29.6460   43.7850 C   0  0  0  0  0  0  0  0  0  0  0  0
   57.3880   30.1750   44.5690 C   0  0  0  0  0  0  0  0  0  0  0  0
   57.4480   31.5040   44.8050 N   0  0  0  0  0  0  0  0  0  0  0  0
   58.5440   31.7560   45.5040 N   0  0  0  0  0  0  0  0  0  0  0  0
   58.9170   33.0790   45.9370 C   0  0  0  0  0  0  0  0  0  0  0  0
   59.2100   34.0700   44.9830 C   0  0  0  0  0  0  0  0  0  0  0  0
   59.5830   35.3560   45.3870 C   0  0  0  0  0  0  0  0  0  0  0  0
   59.6760   35.6620   46.7460 C   0  0  0  0  0  0  0  0  0  0  0  0
   59.4040   34.6830   47.7040 C   0  0  0  0  0  0  0  0  0  0  0  0
   59.0290   33.3960   47.3050 C   0  0  0  0  0  0  0  0  0  0  0  0
   59.1900   30.5940   45.7330 C   0  0  0  0  0  0  0  0  0  0  0  0
   60.2470   30.4860   46.4130 O   0  0  0  0  0  0  0  0  0  0  0  0
   58.4860   29.5420   45.1730 C   0  0  0  0  0  0  0  0  0  0  0  0
   58.8410   28.2460   45.2550 C   0  0  0  0  0  0  0  0  0  0  0  0
   57.9920   27.1600   45.7740 C   0  0  0  0  0  0  0  0  0  0  0  0
   58.5670   25.9870   46.2890 C   0  0  0  0  0  0  0  0  0  0  0  0
   57.7520   24.9400   46.7290 C   0  0  0  0  0  0  0  0  0  0  0  0
   56.3590   25.0440   46.6380 C   0  0  0  0  0  0  0  0  0  0  0  0
   55.5680   23.9860   47.0870 O   0  0  0  0  0  0  0  0  0  0  0  0
   55.7820   26.2040   46.0940 C   0  0  0  0  0  0  0  0  0  0  0  0
   54.4020   26.3200   45.9850 O   0  0  0  0  0  0  0  0  0  0  0  0
   56.5990   27.2510   45.6540 C   0  0  0  0  0  0  0  0  0  0  0  0
   56.4215   28.5602   43.6106 H   0  0  0  0  0  0  0  0  0  0  0  0
   55.6942   30.2959   43.3133 H   0  0  0  0  0  0  0  0  0  0  0  0
   59.1453   33.8319   43.9110 H   0  0  0  0  0  0  0  0  0  0  0  0
   59.8032   36.1267   44.6336 H   0  0  0  0  0  0  0  0  0  0  0  0
   59.9638   36.6754   47.0625 H   0  0  0  0  0  0  0  0  0  0  0  0
   59.4848   34.9244   48.7741 H   0  0  0  0  0  0  0  0  0  0  0  0
   58.8204   32.6272   48.0635 H   0  0  0  0  0  0  0  0  0  0  0  0
   59.8484   27.9757   44.9055 H   0  0  0  0  0  0  0  0  0  0  0  0
   59.6614   25.8918   46.3463 H   0  0  0  0  0  0  0  0  0  0  0  0
   58.2071   24.0307   47.1485 H   0  0  0  0  0  0  0  0  0  0  0  0
   54.5620   23.9820   46.9740 H   0  0  0  0  0  0  0  0  0  0  0  0
   56.1454   28.1502   45.2116 H   0  0  0  0  0  0  0  0  0  0  0  0
  1  2  2  0
  2  3  1  0
  3  4  1  0
  4  5  1  0
  5  6  2  0
  6  7  1  0
  7  8  2  0
  8  9  1  0
  9 10  2  0
  4 11  1  0
 11 12  2  0
 11 13  1  0
 13 14  2  3
 14 15  1  0
 15 16  2  0
 16 17  1  0
 17 18  2  0
 18 19  1  0
 18 20  1  0
 20 21  1  0
 20 22  2  0
 13  2  1  0
 22 15  1  0
 10  5  1  0
  1 23  1  0
  1 24  1  0
  6 25  1  0
  7 26  1  0
  8 27  1  0
  9 28  1  0
 10 29  1  0
 14 30  1  0
 16 31  1  0
 17 32  1  0
 19 33  1  0
 22 34  1  0
M  CHG  2   3  -1  21  -1
M  END
>  <UniqueID>  (48) 
45

>  <SMILES>  (48) 
C=c1[n-]n(-c2ccccc2)c(=O)c1=Cc1ccc(O)c([O-])c1

>  <Energy>  (48) 
86.50162406585378

>  <Genealogy>  (48) 
C=c1[n-]n(-c2ccccc2)c(=O)c1=Cc1ccc(O)c([O-])c1 (protonated)
C=c1[n-]n(-c2ccccc2)c(=O)c1=Cc1ccc(O)c([O-])c1 (3D coordinates assigned)
C=c1[n-]n(-c2ccccc2)c(=O)c1=Cc1ccc(O)c([O-])c1 (optimized conformer: 86.50162406585378 kcal/mol)

>  <smiles>  (48) 
C=c1[nH]n(-c2ccccc2)c(=O)c1=Cc1ccc(O)c(O)c1

>  <score_type>  (48) 
oracle

>  <origin>  (48) 
adg

>  <m_score__min__energy>  (48) 
-12.4

>  <m_primary>  (48) 
energy

$$$$
48:0
     RDKit          3D

 38 39  0  0  0  0  0  0  0  0999 V2000
   59.1780   34.5920   45.5120 C   0  0  0  0  0  0  0  0  0  0  0  0
   58.2700   33.4710   45.7670 N   0  0  0  0  0  0  0  0  0  0  0  0
   57.7840   33.1990   47.1240 C   0  0  0  0  0  0  0  0  0  0  0  0
   57.8450   32.6320   44.6750 C   0  0  0  0  0  0  0  0  0  0  0  0
   56.9960   31.5910   44.8970 N   0  0  0  0  0  0  0  0  0  0  0  0
   56.5810   30.7800   43.8880 C   0  0  0  0  0  0  0  0  0  0  0  0
   55.6580   29.6610   44.1670 C   0  0  0  0  0  0  0  0  0  0  0  0
   54.6350   29.5160   43.4460 O   0  0  0  0  0  0  0  0  0  0  0  0
   55.8900   28.7170   45.2240 N   0  0  0  0  0  0  0  0  0  0  0  0
   57.1830   28.3890   45.8180 C   0  0  0  0  0  0  0  0  0  0  0  0
   57.4340   26.9040   45.7710 C   0  0  0  0  0  0  0  0  0  0  0  0
   57.5940   26.2530   44.5360 C   0  0  0  0  0  0  0  0  0  0  0  0
   57.8490   24.8800   44.4890 C   0  0  0  0  0  0  0  0  0  0  0  0
   57.9420   24.1390   45.6750 C   0  0  0  0  0  0  0  0  0  0  0  0
   58.2640   22.4100   45.6200 S   0  0  0  0  0  0  0  0  0  0  0  0
   57.6650   21.6560   47.0560 N   0  0  0  0  0  0  0  0  0  0  0  0
   59.7440   22.1650   45.5280 O   0  0  0  0  0  0  0  0  0  0  0  0
   57.5860   21.8120   44.4200 O   0  0  0  0  0  0  0  0  0  0  0  0
   57.7600   24.7800   46.9070 C   0  0  0  0  0  0  0  0  0  0  0  0
   57.5040   26.1530   46.9550 C   0  0  0  0  0  0  0  0  0  0  0  0
   57.0190   31.0350   42.5830 C   0  0  0  0  0  0  0  0  0  0  0  0
   57.8930   32.1010   42.3680 C   0  0  0  0  0  0  0  0  0  0  0  0
   58.3160   32.3480   41.2080 O   0  0  0  0  0  0  0  0  0  0  0  0
   58.2880   32.8740   43.4110 N   0  0  0  0  0  0  0  0  0  0  0  0
   59.5189   35.0128   46.4694 H   0  0  0  0  0  0  0  0  0  0  0  0
   60.0464   34.2371   44.9375 H   0  0  0  0  0  0  0  0  0  0  0  0
   58.6505   35.3677   44.9375 H   0  0  0  0  0  0  0  0  0  0  0  0
   58.4997   33.5996   47.8570 H   0  0  0  0  0  0  0  0  0  0  0  0
   56.8053   33.6805   47.2663 H   0  0  0  0  0  0  0  0  0  0  0  0
   57.6825   32.1130   47.2663 H   0  0  0  0  0  0  0  0  0  0  0  0
   57.9774   28.9065   45.2603 H   0  0  0  0  0  0  0  0  0  0  0  0
   57.1793   28.7121   46.8695 H   0  0  0  0  0  0  0  0  0  0  0  0
   57.5181   26.8275   43.6010 H   0  0  0  0  0  0  0  0  0  0  0  0
   57.9772   24.3791   43.5181 H   0  0  0  0  0  0  0  0  0  0  0  0
   57.3930   22.4220   47.7110 H   0  0  0  0  0  0  0  0  0  0  0  0
   57.8188   24.2006   47.8402 H   0  0  0  0  0  0  0  0  0  0  0  0
   57.3565   26.6481   47.9261 H   0  0  0  0  0  0  0  0  0  0  0  0
   56.6811   30.4080   41.7447 H   0  0  0  0  0  0  0  0  0  0  0  0
  1  2  1  0
  2  3  1  0
  2  4  1  0
  4  5  2  0
  5  6  1  0
  6  7  1  0
  7  8  2  0
  7  9  1  0
  9 10  1  0
 10 11  1  0
 11 12  2  0
 12 13  1  0
 13 14  2  0
 14 15  1  0
 15 16  1  0
 15 17  2  0
 15 18  2  0
 14 19  1  0
 19 20  2  0
  6 21  2  0
 21 22  1  0
 22 23  2  0
 22 24  1  0
 24  4  1  0
 20 11  1  0
  1 25  1  0
  1 26  1  0
  1 27  1  0
  3 28  1  0
  3 29  1  0
  3 30  1  0
 10 31  1  0
 10 32  1  0
 12 33  1  0
 13 34  1  0
 16 35  1  0
 19 36  1  0
 20 37  1  0
 21 38  1  0
M  CHG  3   9  -1  16  -1  24  -1
M  END
>  <UniqueID>  (49) 
46

>  <SMILES>  (49) 
CN(C)c1nc(C(=O)[N-]Cc2ccc(S([NH-])(=O)=O)cc2)cc(=O)[n-]1

>  <Energy>  (49) 
35.736679252555724

>  <Genealogy>  (49) 
CN(C)c1nc(C(=O)[N-]Cc2ccc(S([NH-])(=O)=O)cc2)cc(=O)[n-]1 (protonated)
CN(C)c1nc(C(=O)[N-]Cc2ccc(S([NH-])(=O)=O)cc2)cc(=O)[n-]1 (3D coordinates assigned)
CN(C)c1nc(C(=O)[N-]Cc2ccc(S([NH-])(=O)=O)cc2)cc(=O)[n-]1 (optimized conformer: 35.736679252555724 kcal/mol)

>  <smiles>  (49) 
CN(C)c1nc(C(=O)NCc2ccc(S(N)(=O)=O)cc2)cc(=O)[nH]1

>  <score_type>  (49) 
oracle

>  <origin>  (49) 
adg

>  <m_score__min__energy>  (49) 
-12.279999999999999

>  <m_primary>  (49) 
energy

$$$$
49:0
     RDKit          3D

 43 45  0  0  0  0  0  0  0  0999 V2000
   59.9150   34.6370   47.9210 C   0  0  0  0  0  0  0  0  0  0  0  0
   59.9470   34.2660   49.2920 O   0  0  0  0  0  0  0  0  0  0  0  0
   59.4030   33.0780   49.8000 C   0  0  0  0  0  0  0  0  0  0  0  0
   59.4160   31.8680   49.0810 C   0  0  0  0  0  0  0  0  0  0  0  0
   58.8630   30.7110   49.6400 C   0  0  0  0  0  0  0  0  0  0  0  0
   58.2910   30.7410   50.9170 C   0  0  0  0  0  0  0  0  0  0  0  0
   57.7330   29.5310   51.4530 N   0  0  0  0  0  0  0  0  0  0  0  0
   57.8710   29.0050   53.1010 S   0  0  0  0  0  0  0  0  0  0  0  0
   58.2870   30.1700   53.9610 O   0  0  0  0  0  0  0  0  0  0  0  0
   58.9320   27.9430   53.1900 O   0  0  0  0  0  0  0  0  0  0  0  0
   56.3460   28.3220   53.6480 C   0  0  0  0  0  0  0  0  0  0  0  0
   56.2590   26.9460   53.9020 C   0  0  0  0  0  0  0  0  0  0  0  0
   55.0560   26.3920   54.3530 C   0  0  0  0  0  0  0  0  0  0  0  0
   53.9340   27.2070   54.5570 C   0  0  0  0  0  0  0  0  0  0  0  0
   52.7540   26.6290   55.0250 O   0  0  0  0  0  0  0  0  0  0  0  0
   54.0200   28.5900   54.3060 C   0  0  0  0  0  0  0  0  0  0  0  0
   52.8910   29.4440   54.5120 N   0  0  0  0  0  0  0  0  0  0  0  0
   52.1830   30.0980   53.4440 C   0  0  0  0  0  0  0  0  0  0  0  0
   50.9340   29.9730   53.3740 O   0  0  0  0  0  0  0  0  0  0  0  0
   52.8920   30.9780   52.4490 C   0  0  0  0  0  0  0  0  0  0  0  0
   52.0910   31.0860   51.1850 C   0  0  0  0  0  0  0  0  0  0  0  0
   52.1020   29.9540   49.9330 S   0  0  0  0  0  0  0  0  0  0  0  0
   51.0250   30.8520   48.9980 C   0  0  0  0  0  0  0  0  0  0  0  0
   50.6130   30.5040   47.8580 O   0  0  0  0  0  0  0  0  0  0  0  0
   50.6490   32.0030   49.5980 N   0  0  0  0  0  0  0  0  0  0  0  0
   51.2440   32.1360   50.8150 C   0  0  0  0  0  0  0  0  0  0  0  0
   51.0180   33.2480   51.6200 O   0  0  0  0  0  0  0  0  0  0  0  0
   55.2230   29.1390   53.8470 C   0  0  0  0  0  0  0  0  0  0  0  0
   58.2650   31.9530   51.6260 C   0  0  0  0  0  0  0  0  0  0  0  0
   58.8180   33.1100   51.0690 C   0  0  0  0  0  0  0  0  0  0  0  0
   59.8207   35.7299   47.8390 H   0  0  0  0  0  0  0  0  0  0  0  0
   60.8446   34.3114   47.4312 H   0  0  0  0  0  0  0  0  0  0  0  0
   59.0549   34.1570   47.4312 H   0  0  0  0  0  0  0  0  0  0  0  0
   59.8624   31.8321   48.0763 H   0  0  0  0  0  0  0  0  0  0  0  0
   58.8778   29.7697   49.0711 H   0  0  0  0  0  0  0  0  0  0  0  0
   57.1369   26.3017   53.7467 H   0  0  0  0  0  0  0  0  0  0  0  0
   54.9904   25.3115   54.5485 H   0  0  0  0  0  0  0  0  0  0  0  0
   51.9060   27.1700   55.1650 H   0  0  0  0  0  0  0  0  0  0  0  0
   53.0245   31.9808   52.8813 H   0  0  0  0  0  0  0  0  0  0  0  0
   53.8716   30.5358   52.2149 H   0  0  0  0  0  0  0  0  0  0  0  0
   55.2883   30.2176   53.6411 H   0  0  0  0  0  0  0  0  0  0  0  0
   57.8069   31.9922   52.6253 H   0  0  0  0  0  0  0  0  0  0  0  0
   58.7925   34.0534   51.6342 H   0  0  0  0  0  0  0  0  0  0  0  0
  1  2  1  0
  2  3  1  0
  3  4  2  0
  4  5  1  0
  5  6  2  0
  6  7  1  0
  7  8  1  0
  8  9  2  0
  8 10  2  0
  8 11  1  0
 11 12  2  0
 12 13  1  0
 13 14  2  0
 14 15  1  0
 14 16  1  0
 16 17  1  0
 17 18  1  0
 18 19  2  0
 18 20  1  0
 20 21  1  0
 21 22  1  0
 22 23  1  0
 23 24  2  0
 23 25  1  0
 25 26  1  0
 26 27  1  0
 16 28  2  0
  6 29  1  0
 29 30  2  0
 30  3  1  0
 28 11  1  0
 26 21  2  0
  1 31  1  0
  1 32  1  0
  1 33  1  0
  4 34  1  0
  5 35  1  0
 12 36  1  0
 13 37  1  0
 15 38  1  0
 20 39  1  0
 20 40  1  0
 28 41  1  0
 29 42  1  0
 30 43  1  0
M  CHG  4   7  -1  17  -1  25  -1  27  -1
M  END
>  <UniqueID>  (50) 
47

>  <SMILES>  (50) 
COc1ccc([N-]S(=O)(=O)c2ccc(O)c([N-]C(=O)Cc3sc(=O)[n-]c3[O-])c2)cc1

>  <Energy>  (50) 
83.83779053857003

>  <Genealogy>  (50) 
COc1ccc([N-]S(=O)(=O)c2ccc(O)c([N-]C(=O)Cc3sc(=O)[n-]c3[O-])c2)cc1 (protonated)
COc1ccc([N-]S(=O)(=O)c2ccc(O)c([N-]C(=O)Cc3sc(=O)[n-]c3[O-])c2)cc1 (3D coordinates assigned)
COc1ccc([N-]S(=O)(=O)c2ccc(O)c([N-]C(=O)Cc3sc(=O)[n-]c3[O-])c2)cc1 (optimized conformer: 83.83779053857003 kcal/mol)

>  <smiles>  (50) 
COc1ccc(NS(=O)(=O)c2ccc(O)c(NC(=O)Cc3sc(=O)[nH]c3O)c2)cc1

>  <score_type>  (50) 
oracle

>  <origin>  (50) 
adg

>  <m_score__min__energy>  (50) 
-17.390000000000001

>  <m_primary>  (50) 
energy

$$$$
50:0
     RDKit          3D

 59 63  0  0  0  0  0  0  0  0999 V2000
   55.6920   29.3180   44.3990 O   0  0  0  0  0  0  0  0  0  0  0  0
   56.6140   30.0500   44.8460 C   0  0  0  0  0  0  0  0  0  0  0  0
   56.4150   31.4750   44.8480 N   0  0  0  0  0  0  0  0  0  0  0  0
   57.3750   32.4810   45.2030 C   0  0  0  0  0  0  0  0  0  0  0  0
   57.9300   33.2710   44.1930 C   0  0  0  0  0  0  0  0  0  0  0  0
   58.9200   34.2070   44.4950 C   0  0  0  0  0  0  0  0  0  0  0  0
   59.3680   34.3570   45.8100 C   0  0  0  0  0  0  0  0  0  0  0  0
   58.8050   33.5900   46.8460 C   0  0  0  0  0  0  0  0  0  0  0  0
   59.3310   33.7140   48.2270 C   0  0  0  0  0  0  0  0  0  0  0  0
   58.8500   33.0090   49.2750 N   0  0  0  0  0  0  0  0  0  0  0  0
   59.5800   33.5000   50.2990 C   0  0  0  0  0  0  0  0  0  0  0  0
   59.4150   33.0600   51.7250 C   0  0  0  0  0  0  0  0  0  0  0  0
   58.2270   33.7070   52.4320 C   0  0  0  0  0  0  0  0  0  0  0  0
   57.5680   32.3410   52.5670 C   0  0  0  0  0  0  0  0  0  0  0  0
   58.7510   31.6940   51.8600 C   0  0  0  0  0  0  0  0  0  0  0  0
   60.4210   34.4220   49.8950 O   0  0  0  0  0  0  0  0  0  0  0  0
   60.2920   34.5770   48.6150 N   0  0  0  0  0  0  0  0  0  0  0  0
   57.7730   32.6860   46.5370 C   0  0  0  0  0  0  0  0  0  0  0  0
   57.8690   29.4220   45.3260 C   0  0  0  0  0  0  0  0  0  0  0  0
   58.5310   28.4770   44.5220 C   0  0  0  0  0  0  0  0  0  0  0  0
   59.6770   27.8300   44.9920 C   0  0  0  0  0  0  0  0  0  0  0  0
   60.1650   28.1070   46.2700 C   0  0  0  0  0  0  0  0  0  0  0  0
   59.5230   29.0550   47.0780 C   0  0  0  0  0  0  0  0  0  0  0  0
   60.0950   29.3840   48.7090 S   0  0  0  0  0  0  0  0  0  0  0  0
   58.9170   29.3420   49.6420 O   0  0  0  0  0  0  0  0  0  0  0  0
   61.0790   28.3300   49.1350 O   0  0  0  0  0  0  0  0  0  0  0  0
   60.8450   30.9610   48.7620 N   0  0  0  0  0  0  0  0  0  0  0  0
   61.9330   30.9640   49.7660 C   0  0  0  0  0  0  0  0  0  0  0  0
   62.8970   32.1340   49.5460 C   0  0  0  0  0  0  0  0  0  0  0  0
   63.5870   32.0350   48.1740 C   0  0  0  0  0  0  0  0  0  0  0  0
   62.7610   31.2370   47.1510 C   0  0  0  0  0  0  0  0  0  0  0  0
   61.2560   31.4030   47.4050 C   0  0  0  0  0  0  0  0  0  0  0  0
   58.4040   29.7380   46.5870 C   0  0  0  0  0  0  0  0  0  0  0  0
   57.5850   33.1546   43.1550 H   0  0  0  0  0  0  0  0  0  0  0  0
   59.3490   34.8287   43.6953 H   0  0  0  0  0  0  0  0  0  0  0  0
   60.1660   35.0794   46.0365 H   0  0  0  0  0  0  0  0  0  0  0  0
   60.4380   33.2258   52.0939 H   0  0  0  0  0  0  0  0  0  0  0  0
   58.4790   34.1815   53.3919 H   0  0  0  0  0  0  0  0  0  0  0  0
   57.6870   34.5432   51.9639 H   0  0  0  0  0  0  0  0  0  0  0  0
   57.4317   32.0099   53.6071 H   0  0  0  0  0  0  0  0  0  0  0  0
   56.5447   32.1797   52.1971 H   0  0  0  0  0  0  0  0  0  0  0  0
   59.3117   30.9814   52.4827 H   0  0  0  0  0  0  0  0  0  0  0  0
   58.5929   31.0612   50.9743 H   0  0  0  0  0  0  0  0  0  0  0  0
   60.8230   35.2700   48.0440 H   0  0  0  0  0  0  0  0  0  0  0  0
   57.2721   32.1339   47.3459 H   0  0  0  0  0  0  0  0  0  0  0  0
   58.1448   28.2460   43.5182 H   0  0  0  0  0  0  0  0  0  0  0  0
   60.1959   27.1004   44.3530 H   0  0  0  0  0  0  0  0  0  0  0  0
   61.0553   27.5801   46.6437 H   0  0  0  0  0  0  0  0  0  0  0  0
   61.4923   31.0480   50.7703 H   0  0  0  0  0  0  0  0  0  0  0  0
   62.4993   30.0265   49.6639 H   0  0  0  0  0  0  0  0  0  0  0  0
   62.3339   33.0776   49.5974 H   0  0  0  0  0  0  0  0  0  0  0  0
   63.6698   32.1009   50.3281 H   0  0  0  0  0  0  0  0  0  0  0  0
   63.7429   33.0517   47.7842 H   0  0  0  0  0  0  0  0  0  0  0  0
   64.5397   31.5045   48.3185 H   0  0  0  0  0  0  0  0  0  0  0  0
   62.9965   31.5983   46.1391 H   0  0  0  0  0  0  0  0  0  0  0  0
   63.0165   30.1717   47.2507 H   0  0  0  0  0  0  0  0  0  0  0  0
   60.9958   32.4654   47.2884 H   0  0  0  0  0  0  0  0  0  0  0  0
   60.7274   30.7690   46.6779 H   0  0  0  0  0  0  0  0  0  0  0  0
   57.9391   30.5292   47.1935 H   0  0  0  0  0  0  0  0  0  0  0  0
  1  2  2  0
  2  3  1  0
  3  4  1  0
  4  5  2  0
  5  6  1  0
  6  7  2  0
  7  8  1  0
  8  9  1  0
  9 10  1  0
 10 11  2  0
 11 12  1  0
 12 13  1  0
 13 14  1  0
 14 15  1  0
 11 16  1  0
 16 17  1  0
  8 18  2  0
  2 19  1  0
 19 20  2  0
 20 21  1  0
 21 22  2  0
 22 23  1  0
 23 24  1  0
 24 25  2  0
 24 26  2  0
 24 27  1  0
 27 28  1  0
 28 29  1  0
 29 30  1  0
 30 31  1  0
 31 32  1  0
 23 33  2  0
 18  4  1  0
 33 19  1  0
 17  9  2  0
 32 27  1  0
 15 12  1  0
  5 34  1  0
  6 35  1  0
  7 36  1  0
 12 37  1  0
 13 38  1  0
 13 39  1  0
 14 40  1  0
 14 41  1  0
 15 42  1  0
 15 43  1  0
 17 44  1  0
 18 45  1  0
 20 46  1  0
 21 47  1  0
 22 48  1  0
 28 49  1  0
 28 50  1  0
 29 51  1  0
 29 52  1  0
 30 53  1  0
 30 54  1  0
 31 55  1  0
 31 56  1  0
 32 57  1  0
 32 58  1  0
 33 59  1  0
M  CHG  2   3  -1  17   1
M  END
>  <UniqueID>  (51) 
48

>  <SMILES>  (51) 
O=C([N-]c1cccc(-c2nc(C3CCC3)o[nH+]2)c1)c1cccc(S(=O)(=O)N2CCCCC2)c1

>  <Energy>  (51) 
168.59458887385472

>  <Genealogy>  (51) 
O=C([N-]c1cccc(-c2nc(C3CCC3)o[nH+]2)c1)c1cccc(S(=O)(=O)N2CCCCC2)c1 (protonated)
O=C([N-]c1cccc(-c2nc(C3CCC3)o[nH+]2)c1)c1cccc(S(=O)(=O)N2CCCCC2)c1 (3D coordinates assigned)
O=C([N-]c1cccc(-c2nc(C3CCC3)o[nH+]2)c1)c1cccc(S(=O)(=O)N2CCCCC2)c1 (nonaromatic ring conformer: 168.59458887385472 kcal/mol)

>  <smiles>  (51) 
O=C(Nc1cccc(-c2noc(C3CCC3)n2)c1)c1cccc(S(=O)(=O)N2CCCCC2)c1

>  <score_type>  (51) 
oracle

>  <origin>  (51) 
adg

>  <m_score__min__energy>  (51) 
-11.26

>  <m_primary>  (51) 
energy

$$$$
51:0
     RDKit          3D

 69 72  0  0  0  0  0  0  0  0999 V2000
   66.2780   32.8080   50.5790 C   0  0  0  0  0  0  0  0  0  0  0  0
   64.9120   33.3890   50.3770 C   0  0  0  0  0  0  0  0  0  0  0  0
   64.4940   34.2520   51.1950 O   0  0  0  0  0  0  0  0  0  0  0  0
   64.0160   32.8980   49.2970 C   0  0  0  0  0  0  0  0  0  0  0  0
   64.1320   33.4650   48.0120 C   0  0  0  0  0  0  0  0  0  0  0  0
   63.3800   32.9740   46.9440 C   0  0  0  0  0  0  0  0  0  0  0  0
   62.5080   31.9020   47.1350 C   0  0  0  0  0  0  0  0  0  0  0  0
   62.3700   31.3310   48.4010 C   0  0  0  0  0  0  0  0  0  0  0  0
   63.1000   31.8260   49.4970 C   0  0  0  0  0  0  0  0  0  0  0  0
   62.8270   31.2500   50.8340 C   0  0  0  0  0  0  0  0  0  0  0  0
   63.5950   30.3710   51.3140 O   0  0  0  0  0  0  0  0  0  0  0  0
   61.7300   31.7450   51.6110 N   0  0  0  0  0  0  0  0  0  0  0  0
   61.2210   33.1090   51.5170 C   0  0  0  0  0  0  0  0  0  0  0  0
   60.3720   33.2570   50.2850 C   0  0  0  0  0  0  0  0  0  0  0  0
   59.3040   32.3730   50.0610 C   0  0  0  0  0  0  0  0  0  0  0  0
   58.5270   32.4830   48.9050 C   0  0  0  0  0  0  0  0  0  0  0  0
   58.8100   33.4750   47.9530 C   0  0  0  0  0  0  0  0  0  0  0  0
   57.9840   33.5890   46.6990 C   0  0  0  0  0  0  0  0  0  0  0  0
   57.6590   32.2660   46.1700 N   0  0  0  0  0  0  0  0  0  0  0  0
   58.6720   31.3170   45.7980 C   0  0  0  0  0  0  0  0  0  0  0  0
   59.8880   31.5810   46.0060 O   0  0  0  0  0  0  0  0  0  0  0  0
   58.3100   30.0360   45.1640 C   0  0  0  0  0  0  0  0  0  0  0  0
   57.5840   29.8910   43.9830 C   0  0  0  0  0  0  0  0  0  0  0  0
   57.3730   28.5540   43.6190 C   0  0  0  0  0  0  0  0  0  0  0  0
   57.9160   27.6480   44.5230 C   0  0  0  0  0  0  0  0  0  0  0  0
   57.8700   26.1530   44.4140 C   0  0  0  0  0  0  0  0  0  0  0  0
   57.3300   25.4940   45.6900 C   0  0  0  0  0  0  0  0  0  0  0  0
   55.8970   25.8500   45.9460 C   0  0  0  0  0  0  0  0  0  0  0  0
   55.5310   27.0570   45.9060 O   0  0  0  0  0  0  0  0  0  0  0  0
   54.9560   24.8160   46.2460 N   0  0  0  0  0  0  0  0  0  0  0  0
   54.3480   23.9580   45.2350 C   0  0  0  0  0  0  0  0  0  0  0  0
   55.3940   23.0820   44.6010 C   0  0  0  0  0  0  0  0  0  0  0  0
   56.1840   22.2270   45.3860 C   0  0  0  0  0  0  0  0  0  0  0  0
   57.1860   21.4530   44.7910 C   0  0  0  0  0  0  0  0  0  0  0  0
   57.4050   21.5270   43.4120 C   0  0  0  0  0  0  0  0  0  0  0  0
   56.6210   22.3730   42.6240 C   0  0  0  0  0  0  0  0  0  0  0  0
   55.6180   23.1480   43.2130 C   0  0  0  0  0  0  0  0  0  0  0  0
   58.6710   28.5030   45.7610 S   0  0  0  0  0  0  0  0  0  0  0  0
   59.8790   34.3590   48.1750 C   0  0  0  0  0  0  0  0  0  0  0  0
   60.6540   34.2500   49.3340 C   0  0  0  0  0  0  0  0  0  0  0  0
   66.4836   32.7205   51.6561 H   0  0  0  0  0  0  0  0  0  0  0  0
   66.3251   31.8119   50.1146 H   0  0  0  0  0  0  0  0  0  0  0  0
   67.0282   33.4649   50.1146 H   0  0  0  0  0  0  0  0  0  0  0  0
   64.8236   34.3047   47.8490 H   0  0  0  0  0  0  0  0  0  0  0  0
   63.4750   33.4334   45.9490 H   0  0  0  0  0  0  0  0  0  0  0  0
   61.9289   31.5066   46.2875 H   0  0  0  0  0  0  0  0  0  0  0  0
   61.6825   30.4842   48.5435 H   0  0  0  0  0  0  0  0  0  0  0  0
   60.6143   33.3336   52.4067 H   0  0  0  0  0  0  0  0  0  0  0  0
   62.0687   33.8075   51.4576 H   0  0  0  0  0  0  0  0  0  0  0  0
   59.0780   31.5898   50.7996 H   0  0  0  0  0  0  0  0  0  0  0  0
   57.6896   31.7890   48.7401 H   0  0  0  0  0  0  0  0  0  0  0  0
   57.0512   34.1246   46.9290 H   0  0  0  0  0  0  0  0  0  0  0  0
   58.5643   34.1383   45.9431 H   0  0  0  0  0  0  0  0  0  0  0  0
   56.6520   32.0360   46.0150 H   0  0  0  0  0  0  0  0  0  0  0  0
   57.2129   30.7427   43.3941 H   0  0  0  0  0  0  0  0  0  0  0  0
   56.8324   28.2520   42.7099 H   0  0  0  0  0  0  0  0  0  0  0  0
   57.2182   25.8794   43.5712 H   0  0  0  0  0  0  0  0  0  0  0  0
   58.8982   25.7945   44.2586 H   0  0  0  0  0  0  0  0  0  0  0  0
   57.4110   24.4019   45.5866 H   0  0  0  0  0  0  0  0  0  0  0  0
   57.9265   25.8602   46.5386 H   0  0  0  0  0  0  0  0  0  0  0  0
   53.5821   23.3256   45.7078 H   0  0  0  0  0  0  0  0  0  0  0  0
   53.8880   24.5875   44.4590 H   0  0  0  0  0  0  0  0  0  0  0  0
   56.0147   22.1656   46.4712 H   0  0  0  0  0  0  0  0  0  0  0  0
   57.8030   20.7846   45.4095 H   0  0  0  0  0  0  0  0  0  0  0  0
   58.1950   20.9187   42.9474 H   0  0  0  0  0  0  0  0  0  0  0  0
   56.7931   22.4293   41.5390 H   0  0  0  0  0  0  0  0  0  0  0  0
   55.0014   23.8120   42.5894 H   0  0  0  0  0  0  0  0  0  0  0  0
   60.1073   35.1398   47.4345 H   0  0  0  0  0  0  0  0  0  0  0  0
   61.4891   34.9462   49.5012 H   0  0  0  0  0  0  0  0  0  0  0  0
  1  2  1  0
  2  3  2  0
  2  4  1  0
  4  5  2  0
  5  6  1  0
  6  7  2  0
  7  8  1  0
  8  9  2  0
  9 10  1  0
 10 11  2  0
 10 12  1  0
 12 13  1  0
 13 14  1  0
 14 15  2  0
 15 16  1  0
 16 17  2  0
 17 18  1  0
 18 19  1  0
 19 20  1  0
 20 21  2  0
 20 22  1  0
 22 23  2  0
 23 24  1  0
 24 25  2  0
 25 26  1  0
 26 27  1  0
 27 28  1  0
 28 29  2  0
 28 30  1  0
 30 31  1  0
 31 32  1  0
 32 33  2  0
 33 34  1  0
 34 35  2  0
 35 36  1  0
 36 37  2  0
 25 38  1  0
 17 39  1  0
 39 40  2  0
  9  4  1  0
 40 14  1  0
 38 22  1  0
 37 32  1  0
  1 41  1  0
  1 42  1  0
  1 43  1  0
  5 44  1  0
  6 45  1  0
  7 46  1  0
  8 47  1  0
 13 48  1  0
 13 49  1  0
 15 50  1  0
 16 51  1  0
 18 52  1  0
 18 53  1  0
 19 54  1  0
 23 55  1  0
 24 56  1  0
 26 57  1  0
 26 58  1  0
 27 59  1  0
 27 60  1  0
 31 61  1  0
 31 62  1  0
 33 63  1  0
 34 64  1  0
 35 65  1  0
 36 66  1  0
 37 67  1  0
 39 68  1  0
 40 69  1  0
M  CHG  2  12  -1  30  -1
M  END
>  <UniqueID>  (52) 
49

>  <SMILES>  (52) 
CC(=O)c1ccccc1C(=O)[N-]Cc1ccc(CNC(=O)c2ccc(CCC(=O)[N-]Cc3ccccc3)s2)cc1

>  <Energy>  (52) 
95.98535867011529

>  <Genealogy>  (52) 
CC(=O)c1ccccc1C(=O)[N-]Cc1ccc(CNC(=O)c2ccc(CCC(=O)[N-]Cc3ccccc3)s2)cc1 (protonated)
CC(=O)c1ccccc1C(=O)[N-]Cc1ccc(CNC(=O)c2ccc(CCC(=O)[N-]Cc3ccccc3)s2)cc1 (3D coordinates assigned)
CC(=O)c1ccccc1C(=O)[N-]Cc1ccc(CNC(=O)c2ccc(CCC(=O)[N-]Cc3ccccc3)s2)cc1 (optimized conformer: 95.98535867011529 kcal/mol)

>  <smiles>  (52) 
CC(=O)c1ccccc1C(=O)NCc1ccc(CNC(=O)c2ccc(CCC(=O)NCc3ccccc3)s2)cc1

>  <score_type>  (52) 
oracle

>  <origin>  (52) 
adg

>  <m_score__min__energy>  (52) 
-12.859999999999999

>  <m_primary>  (52) 
energy

$$$$
52:0
     RDKit          3D

 47 49  0  0  0  0  0  0  0  0999 V2000
   53.9504   30.4491   56.6915 H   0  0  0  0  0  0  0  0  0  0  0  0
   53.4320   30.5440   55.7260 C   0  0  0  0  0  0  0  0  0  0  0  0
   52.3724   30.8378   55.6972 H   0  0  0  0  0  0  0  0  0  0  0  0
   54.0930   30.3010   54.5820 C   0  0  0  0  0  0  0  0  0  0  0  0
   53.5710   30.3800   53.2880 C   0  0  0  0  0  0  0  0  0  0  0  0
   52.3150   30.7420   52.9470 C   0  0  0  0  0  0  0  0  0  0  0  0
   51.5943   30.8787   53.7667 H   0  0  0  0  0  0  0  0  0  0  0  0
   51.8210   30.9710   51.5740 C   0  0  0  0  0  0  0  0  0  0  0  0
   52.0080   30.1630   50.5150 N   0  0  0  0  0  0  0  0  0  0  0  0
   51.3500   30.7890   49.5190 C   0  0  0  0  0  0  0  0  0  0  0  0
   51.3090   30.3410   48.3450 O   0  0  0  0  0  0  0  0  0  0  0  0
   50.7540   31.9440   49.8780 N   0  0  0  0  0  0  0  0  0  0  0  0
   51.0570   32.0390   51.1790 C   0  0  0  0  0  0  0  0  0  0  0  0
   50.6520   33.0960   51.9900 O   0  0  0  0  0  0  0  0  0  0  0  0
   54.6110   30.0230   52.4370 C   0  0  0  0  0  0  0  0  0  0  0  0
   54.5686   29.9682   51.3392 H   0  0  0  0  0  0  0  0  0  0  0  0
   55.7040   29.7510   53.2290 C   0  0  0  0  0  0  0  0  0  0  0  0
   57.0210   29.3200   52.7260 C   0  0  0  0  0  0  0  0  0  0  0  0
   57.4960   28.2380   53.1660 O   0  0  0  0  0  0  0  0  0  0  0  0
   57.7820   30.1190   51.7880 N   0  0  0  0  0  0  0  0  0  0  0  0
   59.1730   29.7290   51.5080 C   0  0  0  0  0  0  0  0  0  0  0  0
   59.8190   30.1090   52.3132 H   0  0  0  0  0  0  0  0  0  0  0  0
   59.2175   28.6313   51.4527 H   0  0  0  0  0  0  0  0  0  0  0  0
   59.6620   30.2970   50.1670 C   0  0  0  0  0  0  0  0  0  0  0  0
   60.7479   30.1376   50.0928 H   0  0  0  0  0  0  0  0  0  0  0  0
   59.1171   29.7738   49.3674 H   0  0  0  0  0  0  0  0  0  0  0  0
   59.3860   31.7410   50.0220 N   0  0  0  0  0  0  0  0  0  0  0  0
   60.2230   32.5980   50.9110 C   0  0  1  0  0  0  0  0  0  0  0  0
   60.3602   32.0282   51.8419 H   0  0  0  0  0  0  0  0  0  0  0  0
   61.5440   32.9040   50.2550 C   0  0  0  0  0  0  0  0  0  0  0  0
   61.9720   32.1750   49.3200 O   0  0  0  0  0  0  0  0  0  0  0  0
   62.3170   33.9680   50.6990 O   0  0  0  0  0  0  0  0  0  0  0  0
   59.5510   33.9430   51.2320 C   0  0  0  0  0  0  0  0  0  0  0  0
   59.4875   34.0701   52.3228 H   0  0  0  0  0  0  0  0  0  0  0  0
   60.1458   34.7621   50.8014 H   0  0  0  0  0  0  0  0  0  0  0  0
   58.5389   33.9592   50.8014 H   0  0  0  0  0  0  0  0  0  0  0  0
   57.9290   31.9620   50.1440 C   0  0  0  0  0  0  0  0  0  0  0  0
   57.7246   33.0365   50.0270 H   0  0  0  0  0  0  0  0  0  0  0  0
   57.4351   31.3675   49.3613 H   0  0  0  0  0  0  0  0  0  0  0  0
   57.3740   31.5010   51.4970 C   0  0  0  0  0  0  0  0  0  0  0  0
   57.7562   32.1634   52.2876 H   0  0  0  0  0  0  0  0  0  0  0  0
   56.2754   31.5425   51.4588 H   0  0  0  0  0  0  0  0  0  0  0  0
   55.3960   29.9230   54.5310 N   0  0  0  0  0  0  0  0  0  0  0  0
   56.3000   29.7320   55.6740 C   0  0  0  0  0  0  0  0  0  0  0  0
   55.7364   29.8511   56.6111 H   0  0  0  0  0  0  0  0  0  0  0  0
   56.7344   28.7222   55.6332 H   0  0  0  0  0  0  0  0  0  0  0  0
   57.1057   30.4797   55.6332 H   0  0  0  0  0  0  0  0  0  0  0  0
  1  2  1  0
  2  3  1  0
  2  4  2  0
  4  5  1  0
  5  6  2  0
  6  7  1  0
  6  8  1  0
  8  9  1  0
  9 10  1  0
 10 11  2  0
 10 12  1  0
 12 13  1  0
 13 14  1  0
  5 15  1  0
 15 16  1  0
 15 17  2  0
 17 18  1  0
 18 19  2  0
 18 20  1  0
 20 21  1  0
 21 22  1  0
 21 23  1  0
 21 24  1  0
 24 25  1  0
 24 26  1  0
 24 27  1  0
 27 28  1  0
 28 29  1  1
 28 30  1  0
 30 31  2  0
 30 32  1  0
 28 33  1  0
 33 34  1  0
 33 35  1  0
 33 36  1  0
 27 37  1  0
 37 38  1  0
 37 39  1  0
 37 40  1  0
 40 41  1  0
 40 42  1  0
 17 43  1  0
 43 44  1  0
 44 45  1  0
 44 46  1  0
 44 47  1  0
 43  4  1  0
 13  8  2  0
 40 20  1  0
M  CHG  4   9  -1  12  -1  14  -1  32  -1
M  END
>  <UniqueID>  (53) 
50

>  <SMILES>  (53) 
C=c1/c(=C/c2[n-]c(=O)[n-]c2[O-])cc(C(=O)N2CCN([C@H](C)C(=O)[O-])CC2)n1C

>  <Energy>  (53) 
124.0908011191012

>  <Genealogy>  (53) 
C=c1c(=Cc2[n-]c(=O)[n-]c2[O-])cc(C(=O)N2CCN(C(C)C(=O)[O-])CC2)n1C (protonated)
C=c1c(=Cc2[n-]c(=O)[n-]c2[O-])cc(C(=O)N2CCN([C@H](C)C(=O)[O-])CC2)n1C (chirality)
C=c1/c(=C/c2[n-]c(=O)[n-]c2[O-])cc(C(=O)N2CCN([C@H](C)C(=O)[O-])CC2)n1C (cis-trans isomerization)
C=c1/c(=C/c2[n-]c(=O)[n-]c2[O-])cc(C(=O)N2CCN([C@H](C)C(=O)[O-])CC2)n1C (3D coordinates assigned)
C=c1/c(=C/c2[n-]c(=O)[n-]c2[O-])cc(C(=O)N2CCN([C@H](C)C(=O)[O-])CC2)n1C (nonaromatic ring conformer: 124.0908011191012 kcal/mol)

>  <smiles>  (53) 
C=c1c(=Cc2[nH]c(=O)[nH]c2O)cc(C(=O)N2CCN(C(C)C(=O)O)CC2)n1C

>  <score_type>  (53) 
oracle

>  <origin>  (53) 
adg

>  <m_score__min__energy>  (53) 
-16.940000000000001

>  <m_primary>  (53) 
energy

$$$$
53:0
     RDKit          3D

 26 27  0  0  0  0  0  0  0  0999 V2000
   55.1450   27.4710   45.3830 H   0  0  0  0  0  0  0  0  0  0  0  0
   54.9760   26.6820   45.9920 O   0  0  0  0  0  0  0  0  0  0  0  0
   56.0040   25.8030   46.3170 C   0  0  0  0  0  0  0  0  0  0  0  0
   55.8510   24.7290   47.1080 N   0  0  0  0  0  0  0  0  0  0  0  0
   57.0800   24.1690   47.0870 C   0  0  0  0  0  0  0  0  0  0  0  0
   57.3540   23.1140   47.7170 O   0  0  0  0  0  0  0  0  0  0  0  0
   57.9890   24.8210   46.3300 N   0  0  0  0  0  0  0  0  0  0  0  0
   57.3020   25.8790   45.8640 C   0  0  0  0  0  0  0  0  0  0  0  0
   57.8430   26.8310   44.8820 C   0  0  0  0  0  0  0  0  0  0  0  0
   57.8488   26.5126   43.8291 H   0  0  0  0  0  0  0  0  0  0  0  0
   58.3330   28.0590   45.1530 C   0  0  0  0  0  0  0  0  0  0  0  0
   57.9310   29.1650   44.3760 C   0  0  0  0  0  0  0  0  0  0  0  0
   57.2646   29.0742   43.5056 H   0  0  0  0  0  0  0  0  0  0  0  0
   58.4500   30.3780   44.8060 C   0  0  0  0  0  0  0  0  0  0  0  0
   58.1190   31.7230   44.2400 C   0  0  0  0  0  0  0  0  0  0  0  0
   57.4742   32.2640   44.9482 H   0  0  0  0  0  0  0  0  0  0  0  0
   59.0547   32.2774   44.0755 H   0  0  0  0  0  0  0  0  0  0  0  0
   57.3920   31.5830   42.9080 C   0  0  0  0  0  0  0  0  0  0  0  0
   56.3270   31.3779   43.0914 H   0  0  0  0  0  0  0  0  0  0  0  0
   57.4923   32.5170   42.3356 H   0  0  0  0  0  0  0  0  0  0  0  0
   57.8320   30.7531   42.3356 H   0  0  0  0  0  0  0  0  0  0  0  0
   59.4260   30.1060   46.1420 S   0  0  0  0  0  0  0  0  0  0  0  0
   59.2340   28.4340   46.1790 C   0  0  0  0  0  0  0  0  0  0  0  0
   59.9580   27.6570   46.9900 C   0  0  0  0  0  0  0  0  0  0  0  0
   59.8061   26.5675   46.9880 H   0  0  0  0  0  0  0  0  0  0  0  0
   60.7058   28.1069   47.6596 H   0  0  0  0  0  0  0  0  0  0  0  0
  1  2  1  0
  2  3  1  0
  3  4  1  0
  4  5  1  0
  5  6  2  0
  5  7  1  0
  7  8  1  0
  8  9  1  0
  9 10  1  0
  9 11  2  0
 11 12  1  0
 12 13  1  0
 12 14  2  0
 14 15  1  0
 15 16  1  0
 15 17  1  0
 15 18  1  0
 18 19  1  0
 18 20  1  0
 18 21  1  0
 14 22  1  0
 22 23  1  0
 23 24  2  0
 24 25  1  0
 24 26  1  0
  8  3  2  0
 23 11  1  0
M  CHG  2   4  -1   7  -1
M  END
>  <UniqueID>  (54) 
51

>  <SMILES>  (54) 
C=c1sc(CC)c/c1=C/c1[n-]c(=O)[n-]c1O

>  <Energy>  (54) 
90.6337786985274

>  <Genealogy>  (54) 
C=c1sc(CC)cc1=Cc1[n-]c(=O)[n-]c1O (protonated)
C=c1sc(CC)c/c1=C/c1[n-]c(=O)[n-]c1O (cis-trans isomerization)
C=c1sc(CC)c/c1=C/c1[n-]c(=O)[n-]c1O (3D coordinates assigned)
C=c1sc(CC)c/c1=C/c1[n-]c(=O)[n-]c1O (optimized conformer: 90.6337786985274 kcal/mol)

>  <smiles>  (54) 
C=c1sc(CC)cc1=Cc1[nH]c(=O)[nH]c1O

>  <score_type>  (54) 
oracle

>  <origin>  (54) 
adg

>  <m_score__min__energy>  (54) 
-10.77

>  <m_primary>  (54) 
energy

$$$$
54:0
     RDKit          3D

 62 66  0  0  0  0  0  0  0  0999 V2000
   64.5030   32.2160   50.6910 C   0  0  0  0  0  0  0  0  0  0  0  0
   63.6900   32.9040   49.6850 N   0  0  0  0  0  0  0  0  0  0  0  0
   62.3060   33.1960   49.9860 C   0  0  0  0  0  0  0  0  0  0  0  0
   62.0180   34.3030   50.5180 O   0  0  0  0  0  0  0  0  0  0  0  0
   61.2010   32.2610   49.6420 C   0  0  0  0  0  0  0  0  0  0  0  0
   60.5180   31.5460   50.6380 C   0  0  0  0  0  0  0  0  0  0  0  0
   59.4870   30.6680   50.3010 C   0  0  0  0  0  0  0  0  0  0  0  0
   59.0990   30.5220   48.9700 C   0  0  0  0  0  0  0  0  0  0  0  0
   59.7330   31.2670   47.9570 C   0  0  0  0  0  0  0  0  0  0  0  0
   59.3330   31.1510   46.5760 N   0  0  0  0  0  0  0  0  0  0  0  0
   58.1410   31.7620   46.0490 C   0  0  0  0  0  0  0  0  0  0  0  0
   57.4600   32.5410   46.7740 O   0  0  0  0  0  0  0  0  0  0  0  0
   57.7630   31.6140   44.6250 C   0  0  0  0  0  0  0  0  0  0  0  0
   58.1250   32.6470   43.7390 C   0  0  0  0  0  0  0  0  0  0  0  0
   57.8020   32.5750   42.3770 C   0  0  0  0  0  0  0  0  0  0  0  0
   57.0620   31.5000   41.8950 C   0  0  0  0  0  0  0  0  0  0  0  0
   56.6690   30.4790   42.7620 C   0  0  0  0  0  0  0  0  0  0  0  0
   57.0210   30.5130   44.1220 C   0  0  0  0  0  0  0  0  0  0  0  0
   56.5440   29.0800   45.1020 S   0  0  0  0  0  0  0  0  0  0  0  0
   58.2100   28.4240   45.3060 C   0  0  0  0  0  0  0  0  0  0  0  0
   59.3070   29.0430   44.6880 C   0  0  0  0  0  0  0  0  0  0  0  0
   60.5920   28.5250   44.8710 C   0  0  0  0  0  0  0  0  0  0  0  0
   60.7950   27.4040   45.6910 C   0  0  0  0  0  0  0  0  0  0  0  0
   59.7110   26.8180   46.3520 C   0  0  0  0  0  0  0  0  0  0  0  0
   58.4160   27.3340   46.1700 C   0  0  0  0  0  0  0  0  0  0  0  0
   57.3040   26.8310   46.9180 N   0  0  0  0  0  0  0  0  0  0  0  0
   56.2000   26.1080   46.3530 C   0  0  0  0  0  0  0  0  0  0  0  0
   55.1440   26.7110   45.9980 O   0  0  0  0  0  0  0  0  0  0  0  0
   56.3540   24.6640   46.1020 C   0  0  0  0  0  0  0  0  0  0  0  0
   56.1540   24.1130   44.8250 C   0  0  0  0  0  0  0  0  0  0  0  0
   56.4060   22.7500   44.6400 C   0  0  0  0  0  0  0  0  0  0  0  0
   56.2430   22.2230   43.5040 O   0  0  0  0  0  0  0  0  0  0  0  0
   56.8310   21.9900   45.6830 N   0  0  0  0  0  0  0  0  0  0  0  0
   57.0080   22.5340   46.9180 C   0  0  0  0  0  0  0  0  0  0  0  0
   57.3920   21.8110   47.8740 O   0  0  0  0  0  0  0  0  0  0  0  0
   56.7730   23.8570   47.1180 N   0  0  0  0  0  0  0  0  0  0  0  0
   60.7990   32.1130   48.2990 C   0  0  0  0  0  0  0  0  0  0  0  0
   64.3020   33.2270   48.3860 C   0  0  0  0  0  0  0  0  0  0  0  0
   63.3240   33.9110   47.4410 C   0  0  0  0  0  0  0  0  0  0  0  0
   63.7400   32.4750   47.1900 C   0  0  0  0  0  0  0  0  0  0  0  0
   64.1629   32.5038   51.6967 H   0  0  0  0  0  0  0  0  0  0  0  0
   64.3981   31.1282   50.5658 H   0  0  0  0  0  0  0  0  0  0  0  0
   65.5585   32.4994   50.5658 H   0  0  0  0  0  0  0  0  0  0  0  0
   60.7978   31.6788   51.6935 H   0  0  0  0  0  0  0  0  0  0  0  0
   58.9794   30.0899   51.0872 H   0  0  0  0  0  0  0  0  0  0  0  0
   58.2927   29.8206   48.7094 H   0  0  0  0  0  0  0  0  0  0  0  0
   60.0310   30.7810   45.8960 H   0  0  0  0  0  0  0  0  0  0  0  0
   58.6692   33.5232   44.1214 H   0  0  0  0  0  0  0  0  0  0  0  0
   58.1332   33.3676   41.6899 H   0  0  0  0  0  0  0  0  0  0  0  0
   56.7867   31.4546   40.8310 H   0  0  0  0  0  0  0  0  0  0  0  0
   56.0761   29.6369   42.3756 H   0  0  0  0  0  0  0  0  0  0  0  0
   59.1560   29.9340   44.0609 H   0  0  0  0  0  0  0  0  0  0  0  0
   61.4491   28.9984   44.3697 H   0  0  0  0  0  0  0  0  0  0  0  0
   61.8055   26.9870   45.8135 H   0  0  0  0  0  0  0  0  0  0  0  0
   59.8714   25.9541   47.0138 H   0  0  0  0  0  0  0  0  0  0  0  0
   55.8072   24.7394   43.9900 H   0  0  0  0  0  0  0  0  0  0  0  0
   61.3274   32.6675   47.5095 H   0  0  0  0  0  0  0  0  0  0  0  0
   65.3192   33.4156   48.7599 H   0  0  0  0  0  0  0  0  0  0  0  0
   62.3011   34.1364   47.7770 H   0  0  0  0  0  0  0  0  0  0  0  0
   63.3341   34.8382   46.8492 H   0  0  0  0  0  0  0  0  0  0  0  0
   63.0185   31.6590   47.3435 H   0  0  0  0  0  0  0  0  0  0  0  0
   64.1765   31.9300   46.3401 H   0  0  0  0  0  0  0  0  0  0  0  0
  1  2  1  0
  2  3  1  0
  3  4  2  0
  3  5  1  0
  5  6  2  0
  6  7  1  0
  7  8  2  0
  8  9  1  0
  9 10  1  0
 10 11  1  0
 11 12  2  0
 11 13  1  0
 13 14  2  0
 14 15  1  0
 15 16  2  0
 16 17  1  0
 17 18  2  0
 18 19  1  0
 19 20  1  0
 20 21  2  0
 21 22  1  0
 22 23  2  0
 23 24  1  0
 24 25  2  0
 25 26  1  0
 26 27  1  0
 27 28  2  0
 27 29  1  0
 29 30  2  0
 30 31  1  0
 31 32  2  0
 31 33  1  0
 33 34  1  0
 34 35  2  0
 34 36  1  0
  9 37  2  0
  2 38  1  0
 38 39  1  0
 39 40  1  0
 37  5  1  0
 40 38  1  0
 18 13  1  0
 25 20  1  0
 36 29  1  0
  1 41  1  0
  1 42  1  0
  1 43  1  0
  6 44  1  0
  7 45  1  0
  8 46  1  0
 10 47  1  0
 14 48  1  0
 15 49  1  0
 16 50  1  0
 17 51  1  0
 21 52  1  0
 22 53  1  0
 23 54  1  0
 24 55  1  0
 30 56  1  0
 37 57  1  0
 38 58  1  0
 39 59  1  0
 39 60  1  0
 40 61  1  0
 40 62  1  0
M  CHG  3  26  -1  33  -1  36  -1
M  END
>  <UniqueID>  (55) 
52

>  <SMILES>  (55) 
CN(C(=O)c1cccc(NC(=O)c2ccccc2Sc2ccccc2[N-]C(=O)c2cc(=O)[n-]c(=O)[n-]2)c1)C1CC1

>  <Energy>  (55) 
347.72139130974807

>  <Genealogy>  (55) 
CN(C(=O)c1cccc(NC(=O)c2ccccc2Sc2ccccc2[N-]C(=O)c2cc(=O)[n-]c(=O)[n-]2)c1)C1CC1 (protonated)
CN(C(=O)c1cccc(NC(=O)c2ccccc2Sc2ccccc2[N-]C(=O)c2cc(=O)[n-]c(=O)[n-]2)c1)C1CC1 (3D coordinates assigned)
CN(C(=O)c1cccc(NC(=O)c2ccccc2Sc2ccccc2[N-]C(=O)c2cc(=O)[n-]c(=O)[n-]2)c1)C1CC1 (nonaromatic ring conformer: 347.72139130974807 kcal/mol)

>  <smiles>  (55) 
CN(C(=O)c1cccc(NC(=O)c2ccccc2Sc2ccccc2NC(=O)c2cc(=O)[nH]c(=O)[nH]2)c1)C1CC1

>  <score_type>  (55) 
oracle

>  <origin>  (55) 
adg

>  <m_score__min__energy>  (55) 
-16.609999999999999

>  <m_primary>  (55) 
energy

$$$$
55:0
     RDKit          3D

 67 70  0  0  0  0  0  0  0  0999 V2000
   58.7910   24.6140   45.9880 O   0  0  0  0  0  0  0  0  0  0  0  0
   58.8520   25.8190   45.6270 C   0  0  0  0  0  0  0  0  0  0  0  0
   57.7800   26.3940   44.7490 C   0  0  0  0  0  0  0  0  0  0  0  0
   57.7070   27.9210   44.8570 C   0  0  0  0  0  0  0  0  0  0  0  0
   57.3970   28.5180   43.5540 N   0  0  0  0  0  0  0  0  0  0  0  0
   56.5910   30.0400   43.7790 S   0  0  0  0  0  0  0  0  0  0  0  0
   56.3570   30.6760   42.4370 O   0  0  0  0  0  0  0  0  0  0  0  0
   55.2570   29.8220   44.4390 O   0  0  0  0  0  0  0  0  0  0  0  0
   57.5840   31.1140   44.7600 C   0  0  0  0  0  0  0  0  0  0  0  0
   57.1200   32.3890   45.1120 C   0  0  0  0  0  0  0  0  0  0  0  0
   57.9120   33.2340   45.8940 C   0  0  0  0  0  0  0  0  0  0  0  0
   59.1740   32.8080   46.3380 C   0  0  0  0  0  0  0  0  0  0  0  0
   60.1880   33.8650   47.3160 S   0  0  0  0  0  0  0  0  0  0  0  0
   59.3390   34.8840   48.0270 O   0  0  0  0  0  0  0  0  0  0  0  0
   61.1460   34.5780   46.4030 O   0  0  0  0  0  0  0  0  0  0  0  0
   61.0820   32.9140   48.4840 N   0  0  0  0  0  0  0  0  0  0  0  0
   61.9350   33.7760   49.3080 C   0  0  0  0  0  0  0  0  0  0  0  0
   63.3160   33.8230   48.6710 C   0  0  0  0  0  0  0  0  0  0  0  0
   63.3490   32.6790   47.6780 C   0  0  0  0  0  0  0  0  0  0  0  0
   61.9970   31.9950   47.8010 C   0  0  0  0  0  0  0  0  0  0  0  0
   59.6310   31.5280   45.9950 C   0  0  0  0  0  0  0  0  0  0  0  0
   58.8390   30.6850   45.2130 C   0  0  0  0  0  0  0  0  0  0  0  0
   59.9040   26.6710   46.0980 N   0  0  0  0  0  0  0  0  0  0  0  0
   59.9040   27.4180   47.3210 C   0  0  0  0  0  0  0  0  0  0  0  0
   60.7590   27.0930   48.3890 C   0  0  0  0  0  0  0  0  0  0  0  0
   60.7500   27.8640   49.5570 C   0  0  0  0  0  0  0  0  0  0  0  0
   59.8980   28.9720   49.6660 C   0  0  0  0  0  0  0  0  0  0  0  0
   59.8990   29.9580   51.1320 S   0  0  0  0  0  0  0  0  0  0  0  0
   59.0560   29.2890   52.1800 O   0  0  0  0  0  0  0  0  0  0  0  0
   61.3030   30.0590   51.6610 O   0  0  0  0  0  0  0  0  0  0  0  0
   59.2870   31.5690   50.8280 N   0  0  0  0  0  0  0  0  0  0  0  0
   59.9550   32.5490   51.7070 C   0  0  0  0  0  0  0  0  0  0  0  0
   59.1340   33.8470   51.7990 C   0  0  0  0  0  0  0  0  0  0  0  0
   57.7980   33.6730   52.2680 O   0  0  0  0  0  0  0  0  0  0  0  0
   57.3360   32.3340   52.1950 C   0  0  0  0  0  0  0  0  0  0  0  0
   57.8100   31.6140   50.9210 C   0  0  0  0  0  0  0  0  0  0  0  0
   59.0520   29.3010   48.5980 C   0  0  0  0  0  0  0  0  0  0  0  0
   59.0670   28.5350   47.4270 C   0  0  0  0  0  0  0  0  0  0  0  0
   57.9923   26.1216   43.7046 H   0  0  0  0  0  0  0  0  0  0  0  0
   56.8142   25.9835   45.0789 H   0  0  0  0  0  0  0  0  0  0  0  0
   56.9210   28.1951   45.5761 H   0  0  0  0  0  0  0  0  0  0  0  0
   58.6828   28.2988   45.1962 H   0  0  0  0  0  0  0  0  0  0  0  0
   58.2980   28.7320   43.0670 H   0  0  0  0  0  0  0  0  0  0  0  0
   56.1295   32.7254   44.7717 H   0  0  0  0  0  0  0  0  0  0  0  0
   57.5456   34.2358   46.1625 H   0  0  0  0  0  0  0  0  0  0  0  0
   61.5097   34.7895   49.3512 H   0  0  0  0  0  0  0  0  0  0  0  0
   62.0011   33.3797   50.3320 H   0  0  0  0  0  0  0  0  0  0  0  0
   63.4681   34.7828   48.1555 H   0  0  0  0  0  0  0  0  0  0  0  0
   64.1133   33.7306   49.4232 H   0  0  0  0  0  0  0  0  0  0  0  0
   63.4952   33.0606   46.6567 H   0  0  0  0  0  0  0  0  0  0  0  0
   64.1775   31.9849   47.8826 H   0  0  0  0  0  0  0  0  0  0  0  0
   61.6075   31.7563   46.8003 H   0  0  0  0  0  0  0  0  0  0  0  0
   62.0938   31.0596   48.3716 H   0  0  0  0  0  0  0  0  0  0  0  0
   60.6170   31.1865   46.3431 H   0  0  0  0  0  0  0  0  0  0  0  0
   59.2015   29.6800   44.9514 H   0  0  0  0  0  0  0  0  0  0  0  0
   61.4367   26.2305   48.3062 H   0  0  0  0  0  0  0  0  0  0  0  0
   61.4142   27.5995   50.3930 H   0  0  0  0  0  0  0  0  0  0  0  0
   60.0617   32.1174   52.7132 H   0  0  0  0  0  0  0  0  0  0  0  0
   60.9433   32.7853   51.2857 H   0  0  0  0  0  0  0  0  0  0  0  0
   59.6521   34.5326   52.4857 H   0  0  0  0  0  0  0  0  0  0  0  0
   59.0559   34.2396   50.7744 H   0  0  0  0  0  0  0  0  0  0  0  0
   57.7104   31.7838   53.0708 H   0  0  0  0  0  0  0  0  0  0  0  0
   56.2366   32.3613   52.1731 H   0  0  0  0  0  0  0  0  0  0  0  0
   57.4229   30.5844   50.9297 H   0  0  0  0  0  0  0  0  0  0  0  0
   57.4311   32.1734   50.0529 H   0  0  0  0  0  0  0  0  0  0  0  0
   58.3745   30.1636   48.6805 H   0  0  0  0  0  0  0  0  0  0  0  0
   58.4168   28.8125   46.5842 H   0  0  0  0  0  0  0  0  0  0  0  0
  1  2  2  0
  2  3  1  0
  3  4  1  0
  4  5  1  0
  5  6  1  0
  6  7  2  0
  6  8  2  0
  6  9  1  0
  9 10  2  0
 10 11  1  0
 11 12  2  0
 12 13  1  0
 13 14  2  0
 13 15  2  0
 13 16  1  0
 16 17  1  0
 17 18  1  0
 18 19  1  0
 19 20  1  0
 12 21  1  0
 21 22  2  0
  2 23  1  0
 23 24  1  0
 24 25  2  0
 25 26  1  0
 26 27  2  0
 27 28  1  0
 28 29  2  0
 28 30  2  0
 28 31  1  0
 31 32  1  0
 32 33  1  0
 33 34  1  0
 34 35  1  0
 35 36  1  0
 27 37  1  0
 37 38  2  0
 22  9  1  0
 38 24  1  0
 20 16  1  0
 36 31  1  0
  3 39  1  0
  3 40  1  0
  4 41  1  0
  4 42  1  0
  5 43  1  0
 10 44  1  0
 11 45  1  0
 17 46  1  0
 17 47  1  0
 18 48  1  0
 18 49  1  0
 19 50  1  0
 19 51  1  0
 20 52  1  0
 20 53  1  0
 21 54  1  0
 22 55  1  0
 25 56  1  0
 26 57  1  0
 32 58  1  0
 32 59  1  0
 33 60  1  0
 33 61  1  0
 35 62  1  0
 35 63  1  0
 36 64  1  0
 36 65  1  0
 37 66  1  0
 38 67  1  0
M  CHG  1  23  -1
M  END
>  <UniqueID>  (56) 
53

>  <SMILES>  (56) 
O=C(CCNS(=O)(=O)c1ccc(S(=O)(=O)N2CCCC2)cc1)[N-]c1ccc(S(=O)(=O)N2CCOCC2)cc1

>  <Energy>  (56) 
78.9186377089409

>  <Genealogy>  (56) 
O=C(CCNS(=O)(=O)c1ccc(S(=O)(=O)N2CCCC2)cc1)[N-]c1ccc(S(=O)(=O)N2CCOCC2)cc1 (protonated)
O=C(CCNS(=O)(=O)c1ccc(S(=O)(=O)N2CCCC2)cc1)[N-]c1ccc(S(=O)(=O)N2CCOCC2)cc1 (3D coordinates assigned)
O=C(CCNS(=O)(=O)c1ccc(S(=O)(=O)N2CCCC2)cc1)[N-]c1ccc(S(=O)(=O)N2CCOCC2)cc1 (nonaromatic ring conformer: 78.9186377089409 kcal/mol)

>  <smiles>  (56) 
O=C(CCNS(=O)(=O)c1ccc(S(=O)(=O)N2CCCC2)cc1)Nc1ccc(S(=O)(=O)N2CCOCC2)cc1

>  <score_type>  (56) 
oracle

>  <origin>  (56) 
adg

>  <m_score__min__energy>  (56) 
-11.59

>  <m_primary>  (56) 
energy

$$$$
56:0
     RDKit          3D

 48 50  0  0  0  0  0  0  0  0999 V2000
   59.9490   28.5210   44.3140 O   0  0  0  0  0  0  0  0  0  0  0  0
   58.9560   28.2120   45.0270 C   0  0  0  0  0  0  0  0  0  0  0  0
   59.1530   27.9330   46.4870 C   0  0  0  0  0  0  0  0  0  0  0  0
   57.8260   27.5570   47.1520 C   0  0  0  0  0  0  0  0  0  0  0  0
   57.2020   26.3940   46.4450 C   0  0  0  0  0  0  0  0  0  0  0  0
   55.8500   26.3240   46.3130 N   0  0  0  0  0  0  0  0  0  0  0  0
   55.2510   25.2640   45.7110 C   0  0  0  0  0  0  0  0  0  0  0  0
   53.9960   25.2440   45.6020 O   0  0  0  0  0  0  0  0  0  0  0  0
   56.0350   24.2100   45.2160 C   0  0  0  0  0  0  0  0  0  0  0  0
   55.4780   23.0840   44.5830 C   0  0  0  0  0  0  0  0  0  0  0  0
   56.3100   22.0660   44.1060 C   0  0  0  0  0  0  0  0  0  0  0  0
   57.6970   22.1620   44.2570 C   0  0  0  0  0  0  0  0  0  0  0  0
   58.2600   23.2770   44.8870 C   0  0  0  0  0  0  0  0  0  0  0  0
   57.4360   24.3010   45.3680 C   0  0  0  0  0  0  0  0  0  0  0  0
   57.9820   25.3830   45.9800 N   0  0  0  0  0  0  0  0  0  0  0  0
   57.6480   28.1170   44.4460 N   0  0  0  0  0  0  0  0  0  0  0  0
   57.3890   28.3740   43.0310 C   0  0  0  0  0  0  0  0  0  0  0  0
   56.4380   29.5620   42.8630 C   0  0  0  0  0  0  0  0  0  0  0  0
   55.9840   30.0590   44.1990 C   0  0  0  0  0  0  0  0  0  0  0  0
   55.1860   29.3660   44.8870 O   0  0  0  0  0  0  0  0  0  0  0  0
   56.4270   31.3010   44.6570 O   0  0  0  0  0  0  0  0  0  0  0  0
   57.5470   31.9860   44.1000 C   0  0  0  0  0  0  0  0  0  0  0  0
   58.2250   32.8170   45.1570 C   0  0  0  0  0  0  0  0  0  0  0  0
   58.6060   34.1360   44.8540 C   0  0  0  0  0  0  0  0  0  0  0  0
   59.2310   34.9310   45.8210 C   0  0  0  0  0  0  0  0  0  0  0  0
   59.4750   34.4190   47.0980 C   0  0  0  0  0  0  0  0  0  0  0  0
   59.0890   33.1150   47.4130 C   0  0  0  0  0  0  0  0  0  0  0  0
   58.4650   32.3110   46.4500 C   0  0  0  0  0  0  0  0  0  0  0  0
   58.0970   31.0460   46.7790 F   0  0  0  0  0  0  0  0  0  0  0  0
   59.8630   27.1008   46.6027 H   0  0  0  0  0  0  0  0  0  0  0  0
   59.5450   28.8403   46.9698 H   0  0  0  0  0  0  0  0  0  0  0  0
   58.0101   27.2870   48.2023 H   0  0  0  0  0  0  0  0  0  0  0  0
   57.1424   28.4171   47.0985 H   0  0  0  0  0  0  0  0  0  0  0  0
   54.3875   23.0041   44.4631 H   0  0  0  0  0  0  0  0  0  0  0  0
   55.8720   21.1870   43.6105 H   0  0  0  0  0  0  0  0  0  0  0  0
   58.3469   21.3588   43.8795 H   0  0  0  0  0  0  0  0  0  0  0  0
   59.3513   23.3490   45.0044 H   0  0  0  0  0  0  0  0  0  0  0  0
   56.8340   27.9260   45.0710 H   0  0  0  0  0  0  0  0  0  0  0  0
   58.3395   28.5977   42.5246 H   0  0  0  0  0  0  0  0  0  0  0  0
   56.9223   27.4815   42.5887 H   0  0  0  0  0  0  0  0  0  0  0  0
   56.9602   30.3723   42.3331 H   0  0  0  0  0  0  0  0  0  0  0  0
   55.5598   29.2374   42.2856 H   0  0  0  0  0  0  0  0  0  0  0  0
   58.2616   31.2507   43.7017 H   0  0  0  0  0  0  0  0  0  0  0  0
   57.1990   32.6463   43.2920 H   0  0  0  0  0  0  0  0  0  0  0  0
   58.4117   34.5451   43.8515 H   0  0  0  0  0  0  0  0  0  0  0  0
   59.5307   35.9605   45.5756 H   0  0  0  0  0  0  0  0  0  0  0  0
   59.9714   35.0436   47.8553 H   0  0  0  0  0  0  0  0  0  0  0  0
   59.2755   32.7170   48.4214 H   0  0  0  0  0  0  0  0  0  0  0  0
  1  2  2  0
  2  3  1  0
  3  4  1  0
  4  5  1  0
  5  6  2  0
  6  7  1  0
  7  8  2  0
  7  9  1  0
  9 10  2  0
 10 11  1  0
 11 12  2  0
 12 13  1  0
 13 14  2  0
 14 15  1  0
  2 16  1  0
 16 17  1  0
 17 18  1  0
 18 19  1  0
 19 20  2  0
 19 21  1  0
 21 22  1  0
 22 23  1  0
 23 24  2  0
 24 25  1  0
 25 26  2  0
 26 27  1  0
 27 28  2  0
 28 29  1  0
 15  5  1  0
 28 23  1  0
 14  9  1  0
  3 30  1  0
  3 31  1  0
  4 32  1  0
  4 33  1  0
 10 34  1  0
 11 35  1  0
 12 36  1  0
 13 37  1  0
 16 38  1  0
 17 39  1  0
 17 40  1  0
 18 41  1  0
 18 42  1  0
 22 43  1  0
 22 44  1  0
 24 45  1  0
 25 46  1  0
 26 47  1  0
 27 48  1  0
M  CHG  1  15  -1
M  END
>  <UniqueID>  (57) 
54

>  <SMILES>  (57) 
O=C(CCc1nc(=O)c2ccccc2[n-]1)NCCC(=O)OCc1ccccc1F

>  <Energy>  (57) 
43.429655467013816

>  <Genealogy>  (57) 
O=C(CCc1nc(=O)c2ccccc2[n-]1)NCCC(=O)OCc1ccccc1F (protonated)
O=C(CCc1nc(=O)c2ccccc2[n-]1)NCCC(=O)OCc1ccccc1F (3D coordinates assigned)
O=C(CCc1nc(=O)c2ccccc2[n-]1)NCCC(=O)OCc1ccccc1F (optimized conformer: 43.429655467013816 kcal/mol)

>  <smiles>  (57) 
O=C(CCc1nc(=O)c2ccccc2[nH]1)NCCC(=O)OCc1ccccc1F

>  <score_type>  (57) 
oracle

>  <origin>  (57) 
adg

>  <m_score__min__energy>  (57) 
-10.93

>  <m_primary>  (57) 
energy

$$$$
57:0
     RDKit          3D

 28 29  0  0  0  0  0  0  0  0999 V2000
   55.6490   29.4470   44.4300 O   0  0  0  0  0  0  0  0  0  0  0  0
   56.6500   29.6080   45.1800 C   0  0  0  0  0  0  0  0  0  0  0  0
   57.0670   30.9230   45.5530 N   0  0  0  0  0  0  0  0  0  0  0  0
   57.4970   31.9330   44.5930 C   0  0  0  0  0  0  0  0  0  0  0  0
   58.2120   33.0520   45.3010 C   0  0  0  0  0  0  0  0  0  0  0  0
   58.7820   34.1020   44.5610 C   0  0  0  0  0  0  0  0  0  0  0  0
   59.4180   35.1610   45.2170 C   0  0  0  0  0  0  0  0  0  0  0  0
   59.4870   35.1820   46.6130 C   0  0  0  0  0  0  0  0  0  0  0  0
   58.9170   34.1440   47.3550 C   0  0  0  0  0  0  0  0  0  0  0  0
   58.2810   33.0830   46.7040 C   0  0  0  0  0  0  0  0  0  0  0  0
   57.3680   28.5060   45.6540 O   0  0  0  0  0  0  0  0  0  0  0  0
   57.5650   27.3150   44.8950 C   0  0  0  0  0  0  0  0  0  0  0  0
   57.1400   26.1180   45.6900 C   0  0  0  0  0  0  0  0  0  0  0  0
   58.1320   24.8220   46.0930 S   0  0  0  0  0  0  0  0  0  0  0  0
   56.9000   23.9750   46.8670 C   0  0  0  0  0  0  0  0  0  0  0  0
   55.7330   24.6570   46.8210 N   0  0  0  0  0  0  0  0  0  0  0  0
   55.8630   25.8420   46.1670 C   0  0  0  0  0  0  0  0  0  0  0  0
   54.7850   26.7000   45.9920 O   0  0  0  0  0  0  0  0  0  0  0  0
   58.1773   31.4726   43.8614 H   0  0  0  0  0  0  0  0  0  0  0  0
   56.6131   32.3398   44.0799 H   0  0  0  0  0  0  0  0  0  0  0  0
   58.7278   34.0910   43.4624 H   0  0  0  0  0  0  0  0  0  0  0  0
   59.8649   35.9791   44.6331 H   0  0  0  0  0  0  0  0  0  0  0  0
   59.9894   36.0147   47.1269 H   0  0  0  0  0  0  0  0  0  0  0  0
   58.9689   34.1619   48.4536 H   0  0  0  0  0  0  0  0  0  0  0  0
   57.8327   32.2690   47.2926 H   0  0  0  0  0  0  0  0  0  0  0  0
   56.9681   27.3691   43.9726 H   0  0  0  0  0  0  0  0  0  0  0  0
   58.6324   27.2202   44.6468 H   0  0  0  0  0  0  0  0  0  0  0  0
   57.0277   22.9939   47.3479 H   0  0  0  0  0  0  0  0  0  0  0  0
  1  2  2  0
  2  3  1  0
  3  4  1  0
  4  5  1  0
  5  6  2  0
  6  7  1  0
  7  8  2  0
  8  9  1  0
  9 10  2  0
  2 11  1  0
 11 12  1  0
 12 13  1  0
 13 14  1  0
 14 15  1  0
 15 16  2  0
 16 17  1  0
 17 18  1  0
 10  5  1  0
 17 13  2  0
  4 19  1  0
  4 20  1  0
  6 21  1  0
  7 22  1  0
  8 23  1  0
  9 24  1  0
 10 25  1  0
 12 26  1  0
 12 27  1  0
 15 28  1  0
M  CHG  2   3  -1  18  -1
M  END
>  <UniqueID>  (58) 
55

>  <SMILES>  (58) 
O=C([N-]Cc1ccccc1)OCc1scnc1[O-]

>  <Energy>  (58) 
53.4893834551482

>  <Genealogy>  (58) 
O=C([N-]Cc1ccccc1)OCc1scnc1[O-] (protonated)
O=C([N-]Cc1ccccc1)OCc1scnc1[O-] (3D coordinates assigned)
O=C([N-]Cc1ccccc1)OCc1scnc1[O-] (optimized conformer: 53.4893834551482 kcal/mol)

>  <smiles>  (58) 
O=C(NCc1ccccc1)OCc1scnc1O

>  <score_type>  (58) 
oracle

>  <origin>  (58) 
adg

>  <m_score__min__energy>  (58) 
-12.529999999999999

>  <m_primary>  (58) 
energy

$$$$
58:0
     RDKit          3D

 56 59  0  0  0  0  0  0  0  0999 V2000
   67.5870   30.9680   51.5630 H   0  0  0  0  0  0  0  0  0  0  0  0
   67.2870   31.8940   51.3670 O   0  0  0  0  0  0  0  0  0  0  0  0
   66.0540   32.0700   52.0150 C   0  0  0  0  0  0  0  0  0  0  0  0
   66.1348   32.9058   52.7256 H   0  0  0  0  0  0  0  0  0  0  0  0
   65.7969   31.1424   52.5473 H   0  0  0  0  0  0  0  0  0  0  0  0
   64.9460   32.3800   50.9930 C   0  0  0  0  0  0  0  0  0  0  0  0
   64.4618   31.4296   50.7241 H   0  0  0  0  0  0  0  0  0  0  0  0
   63.8480   33.2970   51.5990 C   0  0  0  0  0  0  0  0  0  0  0  0
   64.3022   33.9052   52.3951 H   0  0  0  0  0  0  0  0  0  0  0  0
   63.0513   32.6410   51.9796 H   0  0  0  0  0  0  0  0  0  0  0  0
   63.2040   34.2430   50.5700 C   0  0  0  0  0  0  0  0  0  0  0  0
   63.7822   35.1778   50.5278 H   0  0  0  0  0  0  0  0  0  0  0  0
   62.1682   34.4479   50.8784 H   0  0  0  0  0  0  0  0  0  0  0  0
   63.1860   33.6270   49.2370 N   0  0  0  0  0  0  0  0  0  0  0  0
   61.9510   33.4670   48.5110 C   0  0  0  0  0  0  0  0  0  0  0  0
   61.9620   33.2700   47.1200 C   0  0  0  0  0  0  0  0  0  0  0  0
   62.9195   33.2494   46.5789 H   0  0  0  0  0  0  0  0  0  0  0  0
   60.7650   33.1000   46.4190 C   0  0  0  0  0  0  0  0  0  0  0  0
   60.7856   32.9544   45.3289 H   0  0  0  0  0  0  0  0  0  0  0  0
   59.5370   33.1140   47.0980 C   0  0  0  0  0  0  0  0  0  0  0  0
   58.2460   32.9130   46.3450 C   0  0  0  0  0  0  0  0  0  0  0  0
   58.1592   33.6835   45.5648 H   0  0  0  0  0  0  0  0  0  0  0  0
   57.4076   32.9909   47.0528 H   0  0  0  0  0  0  0  0  0  0  0  0
   58.2130   31.5820   45.7160 N   0  0  0  0  0  0  0  0  0  0  0  0
   57.9800   31.3440   44.4030 C   0  0  0  0  0  0  0  0  0  0  0  0
   57.7000   32.3970   43.3720 C   0  0  0  0  0  0  0  0  0  0  0  0
   57.4484   33.3432   43.8733 H   0  0  0  0  0  0  0  0  0  0  0  0
   58.5911   32.5408   42.7433 H   0  0  0  0  0  0  0  0  0  0  0  0
   56.8552   32.0792   42.7433 H   0  0  0  0  0  0  0  0  0  0  0  0
   58.0660   29.9960   44.1270 C   0  0  0  0  0  0  0  0  0  0  0  0
   57.9229   29.5156   43.1478 H   0  0  0  0  0  0  0  0  0  0  0  0
   58.3680   29.3630   45.3240 C   0  0  0  0  0  0  0  0  0  0  0  0
   58.5030   28.0350   45.5130 C   0  0  0  0  0  0  0  0  0  0  0  0
   59.5165   27.6092   45.4733 H   0  0  0  0  0  0  0  0  0  0  0  0
   57.3760   27.1160   45.7700 C   0  0  0  0  0  0  0  0  0  0  0  0
   56.0410   27.4120   45.6140 C   0  0  0  0  0  0  0  0  0  0  0  0
   55.5270   28.5960   45.1000 O   0  0  0  0  0  0  0  0  0  0  0  0
   55.2760   26.3860   46.0360 N   0  0  0  0  0  0  0  0  0  0  0  0
   56.1900   25.4890   46.4620 C   0  0  0  0  0  0  0  0  0  0  0  0
   55.8730   24.3760   46.9580 O   0  0  0  0  0  0  0  0  0  0  0  0
   57.4670   25.8960   46.3270 N   0  0  0  0  0  0  0  0  0  0  0  0
   58.3240   25.3940   46.6480 H   0  0  0  0  0  0  0  0  0  0  0  0
   58.4520   30.3720   46.2920 C   0  0  0  0  0  0  0  0  0  0  0  0
   58.7400   30.1890   47.5920 C   0  0  0  0  0  0  0  0  0  0  0  0
   58.7816   31.0519   48.2729 H   0  0  0  0  0  0  0  0  0  0  0  0
   58.9341   29.1763   47.9751 H   0  0  0  0  0  0  0  0  0  0  0  0
   59.5240   33.3060   48.4870 C   0  0  0  0  0  0  0  0  0  0  0  0
   58.5664   33.3213   49.0280 H   0  0  0  0  0  0  0  0  0  0  0  0
   60.7210   33.4780   49.1880 C   0  0  0  0  0  0  0  0  0  0  0  0
   60.6992   33.6231   50.2782 H   0  0  0  0  0  0  0  0  0  0  0  0
   64.4500   33.1610   48.6450 C   0  0  0  0  0  0  0  0  0  0  0  0
   64.7880   33.8959   47.8996 H   0  0  0  0  0  0  0  0  0  0  0  0
   64.2715   32.1819   48.1764 H   0  0  0  0  0  0  0  0  0  0  0  0
   65.5430   32.9930   49.7120 C   0  0  0  0  0  0  0  0  0  0  0  0
   65.9754   33.9767   49.9473 H   0  0  0  0  0  0  0  0  0  0  0  0
   66.3239   32.3228   49.3235 H   0  0  0  0  0  0  0  0  0  0  0  0
  1  2  1  0
  2  3  1  0
  3  4  1  0
  3  5  1  0
  3  6  1  0
  6  7  1  0
  6  8  1  0
  8  9  1  0
  8 10  1  0
  8 11  1  0
 11 12  1  0
 11 13  1  0
 11 14  1  0
 14 15  1  0
 15 16  2  0
 16 17  1  0
 16 18  1  0
 18 19  1  0
 18 20  2  0
 20 21  1  0
 21 22  1  0
 21 23  1  0
 21 24  1  0
 24 25  1  0
 25 26  1  0
 26 27  1  0
 26 28  1  0
 26 29  1  0
 25 30  2  0
 30 31  1  0
 30 32  1  0
 32 33  2  0
 33 34  1  0
 33 35  1  0
 35 36  2  0
 36 37  1  0
 36 38  1  0
 38 39  1  0
 39 40  2  0
 39 41  1  0
 41 42  1  0
 32 43  1  0
 43 44  2  0
 44 45  1  0
 44 46  1  0
 20 47  1  0
 47 48  1  0
 47 49  2  0
 49 50  1  0
 14 51  1  0
 51 52  1  0
 51 53  1  0
 51 54  1  0
 54 55  1  0
 54 56  1  0
 54  6  1  0
 49 15  1  0
 43 24  1  0
 41 35  1  0
M  CHG  2  37  -1  38  -1
M  END
>  <UniqueID>  (59) 
56

>  <SMILES>  (59) 
C=c1/c(=C/c2[nH]c(=O)[n-]c2[O-])cc(C)n1Cc1ccc(N2CCC(CO)CC2)cc1

>  <Energy>  (59) 
128.02203991400694

>  <Genealogy>  (59) 
C=c1c(=Cc2[nH]c(=O)[n-]c2[O-])cc(C)n1Cc1ccc(N2CCC(CO)CC2)cc1 (protonated)
C=c1/c(=C/c2[nH]c(=O)[n-]c2[O-])cc(C)n1Cc1ccc(N2CCC(CO)CC2)cc1 (cis-trans isomerization)
C=c1/c(=C/c2[nH]c(=O)[n-]c2[O-])cc(C)n1Cc1ccc(N2CCC(CO)CC2)cc1 (3D coordinates assigned)
C=c1/c(=C/c2[nH]c(=O)[n-]c2[O-])cc(C)n1Cc1ccc(N2CCC(CO)CC2)cc1 (nonaromatic ring conformer: 128.02203991400694 kcal/mol)

>  <smiles>  (59) 
C=c1c(=Cc2[nH]c(=O)[nH]c2O)cc(C)n1Cc1ccc(N2CCC(CO)CC2)cc1

>  <score_type>  (59) 
oracle

>  <origin>  (59) 
adg

>  <m_score__min__energy>  (59) 
-15.369999999999999

>  <m_primary>  (59) 
energy

$$$$
59:0
     RDKit          3D

 53 56  0  0  0  0  0  0  0  0999 V2000
   59.9612   28.3103   48.8591 H   0  0  0  0  0  0  0  0  0  0  0  0
   59.4410   27.8270   48.0190 C   0  0  0  0  0  0  0  0  0  0  0  0
   59.3730   26.7301   47.9719 H   0  0  0  0  0  0  0  0  0  0  0  0
   58.8890   28.5760   47.0510 C   0  0  0  0  0  0  0  0  0  0  0  0
   58.1950   28.1160   45.9190 C   0  0  0  0  0  0  0  0  0  0  0  0
   58.0230   26.8740   45.4250 C   0  0  0  0  0  0  0  0  0  0  0  0
   58.4744   26.6579   44.4454 H   0  0  0  0  0  0  0  0  0  0  0  0
   57.2870   25.7830   46.0770 C   0  0  0  0  0  0  0  0  0  0  0  0
   57.8810   24.7240   46.6530 N   0  0  0  0  0  0  0  0  0  0  0  0
   56.8530   24.0650   47.2300 C   0  0  0  0  0  0  0  0  0  0  0  0
   57.0080   22.9890   47.8650 O   0  0  0  0  0  0  0  0  0  0  0  0
   55.6460   24.6530   47.0830 N   0  0  0  0  0  0  0  0  0  0  0  0
   55.9410   25.7480   46.3640 C   0  0  0  0  0  0  0  0  0  0  0  0
   55.0030   26.7070   46.0000 O   0  0  0  0  0  0  0  0  0  0  0  0
   57.6760   29.2400   45.3020 C   0  0  0  0  0  0  0  0  0  0  0  0
   57.0479   29.2579   44.3991 H   0  0  0  0  0  0  0  0  0  0  0  0
   58.0930   30.3330   46.0300 C   0  0  0  0  0  0  0  0  0  0  0  0
   57.7750   31.7280   45.6480 C   0  0  0  0  0  0  0  0  0  0  0  0
   56.6360   31.9670   45.1580 O   0  0  0  0  0  0  0  0  0  0  0  0
   58.6670   32.8190   45.9740 N   0  0  0  0  0  0  0  0  0  0  0  0
   59.6380   32.4510   46.0660 H   0  0  0  0  0  0  0  0  0  0  0  0
   58.2870   33.4180   47.2700 C   0  0  0  0  0  0  0  0  0  0  0  0
   57.2002   33.5878   47.2814 H   0  0  0  0  0  0  0  0  0  0  0  0
   58.5810   32.7253   48.0723 H   0  0  0  0  0  0  0  0  0  0  0  0
   59.0090   34.7640   47.4990 C   0  0  0  0  0  0  0  0  0  0  0  0
   58.2979   35.5862   47.3307 H   0  0  0  0  0  0  0  0  0  0  0  0
   59.3882   34.7856   48.5314 H   0  0  0  0  0  0  0  0  0  0  0  0
   60.1030   34.9120   46.6160 O   0  0  0  0  0  0  0  0  0  0  0  0
   59.6380   34.9970   45.2790 C   0  0  0  0  0  0  0  0  0  0  0  0
   59.1116   35.9540   45.1489 H   0  0  0  0  0  0  0  0  0  0  0  0
   60.5125   34.9227   44.6159 H   0  0  0  0  0  0  0  0  0  0  0  0
   58.6720   33.8460   44.9130 C   0  0  0  0  0  0  0  0  0  0  0  0
   57.6556   34.2499   44.7951 H   0  0  0  0  0  0  0  0  0  0  0  0
   59.0078   33.3848   43.9725 H   0  0  0  0  0  0  0  0  0  0  0  0
   58.8350   29.9350   47.0960 N   0  0  0  0  0  0  0  0  0  0  0  0
   59.5510   30.8070   48.0400 C   0  0  0  0  0  0  0  0  0  0  0  0
   58.9368   31.7000   48.2279 H   0  0  0  0  0  0  0  0  0  0  0  0
   59.7230   30.2276   48.9591 H   0  0  0  0  0  0  0  0  0  0  0  0
   60.8980   31.2490   47.5250 C   0  0  0  0  0  0  0  0  0  0  0  0
   61.2060   30.9730   46.3340 O   0  0  0  0  0  0  0  0  0  0  0  0
   61.7720   32.0920   48.2920 N   0  0  0  0  0  0  0  0  0  0  0  0
   62.3440   31.7240   49.5760 C   0  0  0  0  0  0  0  0  0  0  0  0
   61.5942   31.8280   50.3741 H   0  0  0  0  0  0  0  0  0  0  0  0
   62.6817   30.6771   49.5856 H   0  0  0  0  0  0  0  0  0  0  0  0
   63.4990   32.6900   49.8030 C   0  0  0  0  0  0  0  0  0  0  0  0
   63.4935   33.0575   50.8398 H   0  0  0  0  0  0  0  0  0  0  0  0
   64.4724   32.2051   49.6377 H   0  0  0  0  0  0  0  0  0  0  0  0
   63.2710   33.8420   48.8290 C   0  0  0  0  0  0  0  0  0  0  0  0
   62.7623   34.6766   49.3336 H   0  0  0  0  0  0  0  0  0  0  0  0
   64.2194   34.2352   48.4342 H   0  0  0  0  0  0  0  0  0  0  0  0
   62.3930   33.2750   47.7240 C   0  0  0  0  0  0  0  0  0  0  0  0
   61.6271   34.0068   47.4277 H   0  0  0  0  0  0  0  0  0  0  0  0
   62.9749   33.0375   46.8212 H   0  0  0  0  0  0  0  0  0  0  0  0
  1  2  1  0
  2  3  1  0
  2  4  2  0
  4  5  1  0
  5  6  2  0
  6  7  1  0
  6  8  1  0
  8  9  1  0
  9 10  1  0
 10 11  2  0
 10 12  1  0
 12 13  1  0
 13 14  1  0
  5 15  1  0
 15 16  1  0
 15 17  2  0
 17 18  1  0
 18 19  2  0
 18 20  1  0
 20 21  1  0
 20 22  1  0
 22 23  1  0
 22 24  1  0
 22 25  1  0
 25 26  1  0
 25 27  1  0
 25 28  1  0
 28 29  1  0
 29 30  1  0
 29 31  1  0
 29 32  1  0
 32 33  1  0
 32 34  1  0
 17 35  1  0
 35 36  1  0
 36 37  1  0
 36 38  1  0
 36 39  1  0
 39 40  2  0
 39 41  1  0
 41 42  1  0
 42 43  1  0
 42 44  1  0
 42 45  1  0
 45 46  1  0
 45 47  1  0
 45 48  1  0
 48 49  1  0
 48 50  1  0
 48 51  1  0
 51 52  1  0
 51 53  1  0
 35  4  1  0
 51 41  1  0
 13  8  2  0
 32 20  1  0
M  CHG  4   9  -1  12  -1  14  -1  20   1
M  END
>  <UniqueID>  (60) 
57

>  <SMILES>  (60) 
C=c1/c(=C\c2[n-]c(=O)[n-]c2[O-])cc(C(=O)[NH+]2CCOCC2)n1CC(=O)N1CCCC1

>  <Energy>  (60) 
141.58186316173945

>  <Genealogy>  (60) 
C=c1c(=Cc2[n-]c(=O)[n-]c2[O-])cc(C(=O)[NH+]2CCOCC2)n1CC(=O)N1CCCC1 (protonated)
C=c1/c(=C\c2[n-]c(=O)[n-]c2[O-])cc(C(=O)[NH+]2CCOCC2)n1CC(=O)N1CCCC1 (cis-trans isomerization)
C=c1/c(=C\c2[n-]c(=O)[n-]c2[O-])cc(C(=O)[NH+]2CCOCC2)n1CC(=O)N1CCCC1 (3D coordinates assigned)
C=c1/c(=C\c2[n-]c(=O)[n-]c2[O-])cc(C(=O)[NH+]2CCOCC2)n1CC(=O)N1CCCC1 (nonaromatic ring conformer: 141.58186316173945 kcal/mol)

>  <smiles>  (60) 
C=c1c(=Cc2[nH]c(=O)[nH]c2O)cc(C(=O)N2CCOCC2)n1CC(=O)N1CCCC1

>  <score_type>  (60) 
oracle

>  <origin>  (60) 
adg

>  <m_score__min__energy>  (60) 
-15.26

>  <m_primary>  (60) 
energy

$$$$
60:0
     RDKit          3D

 55 58  0  0  0  0  0  0  0  0999 V2000
   56.5210   23.3590   43.6620 C   0  0  0  0  0  0  0  0  0  0  0  0
   55.5000   23.4350   44.7940 C   0  0  0  0  0  0  0  0  0  0  0  0
   56.1090   23.9100   45.9930 O   0  0  0  0  0  0  0  0  0  0  0  0
   56.9180   25.0540   46.1050 C   0  0  0  0  0  0  0  0  0  0  0  0
   58.3250   24.9890   46.1410 C   0  0  0  0  0  0  0  0  0  0  0  0
   59.0850   26.1560   46.2570 C   0  0  0  0  0  0  0  0  0  0  0  0
   58.4580   27.4120   46.3450 C   0  0  0  0  0  0  0  0  0  0  0  0
   59.2640   28.6480   46.4920 C   0  0  0  0  0  0  0  0  0  0  0  0
   59.8110   28.9180   47.5960 O   0  0  0  0  0  0  0  0  0  0  0  0
   59.4120   29.5470   45.3870 N   0  0  0  0  0  0  0  0  0  0  0  0
   58.7760   30.8290   45.2940 C   0  0  0  0  0  0  0  0  0  0  0  0
   59.3360   31.8990   46.0040 C   0  0  0  0  0  0  0  0  0  0  0  0
   58.7670   33.1890   45.9630 C   0  0  0  0  0  0  0  0  0  0  0  0
   59.4280   34.2920   46.7270 C   0  0  0  0  0  0  0  0  0  0  0  0
   60.1810   35.0980   46.1120 O   0  0  0  0  0  0  0  0  0  0  0  0
   59.2570   34.4540   48.2230 C   0  0  1  0  0  0  0  0  0  0  0  0
   59.0530   33.1630   49.0080 C   0  0  0  0  0  0  0  0  0  0  0  0
   60.3720   33.9230   49.1390 C   0  0  1  0  0  0  0  0  0  0  0  0
   61.5680   33.2410   48.5090 C   0  0  0  0  0  0  0  0  0  0  0  0
   62.6650   33.9910   48.0430 C   0  0  0  0  0  0  0  0  0  0  0  0
   63.7370   33.3550   47.4040 C   0  0  0  0  0  0  0  0  0  0  0  0
   63.7150   31.9710   47.2070 C   0  0  0  0  0  0  0  0  0  0  0  0
   62.6120   31.2240   47.6300 C   0  0  0  0  0  0  0  0  0  0  0  0
   61.5340   31.8580   48.2600 C   0  0  0  0  0  0  0  0  0  0  0  0
   57.5920   33.3780   45.1960 C   0  0  0  0  0  0  0  0  0  0  0  0
   56.9700   34.6190   45.1040 O   0  0  0  0  0  0  0  0  0  0  0  0
   57.0160   32.3020   44.5100 C   0  0  0  0  0  0  0  0  0  0  0  0
   57.5780   31.0190   44.5710 C   0  0  0  0  0  0  0  0  0  0  0  0
   56.8790   29.8900   43.8600 C   0  0  0  0  0  0  0  0  0  0  0  0
   57.0550   27.4740   46.3100 C   0  0  0  0  0  0  0  0  0  0  0  0
   56.2900   26.3040   46.1940 C   0  0  0  0  0  0  0  0  0  0  0  0
   54.8990   26.3750   46.1620 O   0  0  0  0  0  0  0  0  0  0  0  0
   57.5333   23.2836   44.0857 H   0  0  0  0  0  0  0  0  0  0  0  0
   56.3161   22.4736   43.0422 H   0  0  0  0  0  0  0  0  0  0  0  0
   56.4494   24.2650   43.0422 H   0  0  0  0  0  0  0  0  0  0  0  0
   54.6904   24.1210   44.5042 H   0  0  0  0  0  0  0  0  0  0  0  0
   55.0998   22.4268   44.9767 H   0  0  0  0  0  0  0  0  0  0  0  0
   58.8286   24.0131   46.0774 H   0  0  0  0  0  0  0  0  0  0  0  0
   60.1829   26.0918   46.2797 H   0  0  0  0  0  0  0  0  0  0  0  0
   60.2401   31.7293   46.6072 H   0  0  0  0  0  0  0  0  0  0  0  0
   58.7345   35.4177   48.1319 H   0  0  0  0  0  0  0  0  0  0  0  0
   58.3473   33.1394   49.8514 H   0  0  0  0  0  0  0  0  0  0  0  0
   58.7758   32.1316   48.7447 H   0  0  0  0  0  0  0  0  0  0  0  0
   60.9635   34.3693   49.9520 H   0  0  0  0  0  0  0  0  0  0  0  0
   62.6801   35.0821   48.1815 H   0  0  0  0  0  0  0  0  0  0  0  0
   64.5976   33.9454   47.0566 H   0  0  0  0  0  0  0  0  0  0  0  0
   64.5648   31.4706   46.7197 H   0  0  0  0  0  0  0  0  0  0  0  0
   62.5907   30.1362   47.4678 H   0  0  0  0  0  0  0  0  0  0  0  0
   60.6548   31.2699   48.5620 H   0  0  0  0  0  0  0  0  0  0  0  0
   56.1069   32.4660   43.9129 H   0  0  0  0  0  0  0  0  0  0  0  0
   56.4511   29.1989   44.6012 H   0  0  0  0  0  0  0  0  0  0  0  0
   56.0741   30.2961   43.2298 H   0  0  0  0  0  0  0  0  0  0  0  0
   57.6013   29.3505   43.2298 H   0  0  0  0  0  0  0  0  0  0  0  0
   56.5513   28.4498   46.3742 H   0  0  0  0  0  0  0  0  0  0  0  0
   54.3210   25.5670   46.3650 H   0  0  0  0  0  0  0  0  0  0  0  0
  1  2  1  0
  2  3  1  0
  3  4  1  0
  4  5  2  0
  5  6  1  0
  6  7  2  0
  7  8  1  0
  8  9  2  0
  8 10  1  0
 10 11  1  0
 11 12  2  0
 12 13  1  0
 13 14  1  0
 14 15  2  0
 14 16  1  0
 16 17  1  0
 17 18  1  0
 18 19  1  0
 19 20  2  0
 20 21  1  0
 21 22  2  0
 22 23  1  0
 23 24  2  0
 13 25  2  0
 25 26  1  0
 25 27  1  0
 27 28  2  0
 28 29  1  0
  7 30  1  0
 30 31  2  0
 31 32  1  0
 31  4  1  0
 28 11  1  0
 18 16  1  0
 24 19  1  0
  1 33  1  0
  1 34  1  0
  1 35  1  0
  2 36  1  0
  2 37  1  0
  5 38  1  0
  6 39  1  0
 12 40  1  0
 16 41  1  6
 17 42  1  0
 17 43  1  0
 18 44  1  1
 20 45  1  0
 21 46  1  0
 22 47  1  0
 23 48  1  0
 24 49  1  0
 27 50  1  0
 29 51  1  0
 29 52  1  0
 29 53  1  0
 30 54  1  0
 32 55  1  0
M  CHG  2  10  -1  26  -1
M  END
>  <UniqueID>  (61) 
58

>  <SMILES>  (61) 
CCOc1ccc(C(=O)[N-]c2cc(C(=O)[C@H]3C[C@H]3c3ccccc3)c([O-])cc2C)cc1O

>  <Energy>  (61) 
335.6246872898337

>  <Genealogy>  (61) 
CCOc1ccc(C(=O)[N-]c2cc(C(=O)C3CC3c3ccccc3)c([O-])cc2C)cc1O (protonated)
CCOc1ccc(C(=O)[N-]c2cc(C(=O)[C@H]3C[C@H]3c3ccccc3)c([O-])cc2C)cc1O (chirality)
CCOc1ccc(C(=O)[N-]c2cc(C(=O)[C@H]3C[C@H]3c3ccccc3)c([O-])cc2C)cc1O (3D coordinates assigned)
CCOc1ccc(C(=O)[N-]c2cc(C(=O)[C@H]3C[C@H]3c3ccccc3)c([O-])cc2C)cc1O (nonaromatic ring conformer: 335.6246872898337 kcal/mol)

>  <smiles>  (61) 
CCOc1ccc(C(=O)Nc2cc(C(=O)C3CC3c3ccccc3)c(O)cc2C)cc1O

>  <score_type>  (61) 
oracle

>  <origin>  (61) 
adg

>  <m_score__min__energy>  (61) 
-12.42

>  <m_primary>  (61) 
energy

$$$$
61:0
     RDKit          3D

 59 62  0  0  0  0  0  0  0  0999 V2000
   54.4010   25.9320   45.8770 N   0  0  0  0  0  0  0  0  0  0  0  0
   55.8110   25.7270   45.9220 C   0  0  0  0  0  0  0  0  0  0  0  0
   56.2640   24.5530   45.8190 O   0  0  0  0  0  0  0  0  0  0  0  0
   56.7360   26.8750   46.0830 C   0  0  0  0  0  0  0  0  0  0  0  0
   56.5950   28.0220   45.2850 C   0  0  0  0  0  0  0  0  0  0  0  0
   57.4780   29.1070   45.4210 C   0  0  0  0  0  0  0  0  0  0  0  0
   57.3280   30.3170   44.5770 C   0  0  0  0  0  0  0  0  0  0  0  0
   57.6340   30.2630   43.3570 O   0  0  0  0  0  0  0  0  0  0  0  0
   56.8790   31.5700   45.1140 N   0  0  0  0  0  0  0  0  0  0  0  0
   57.7000   32.5590   45.7510 C   0  0  0  0  0  0  0  0  0  0  0  0
   58.1340   33.7090   45.0700 C   0  0  0  0  0  0  0  0  0  0  0  0
   58.9670   34.6350   45.7080 C   0  0  0  0  0  0  0  0  0  0  0  0
   59.3790   34.4150   47.0260 C   0  0  0  0  0  0  0  0  0  0  0  0
   60.2080   35.3090   47.6260 F   0  0  0  0  0  0  0  0  0  0  0  0
   58.9540   33.2690   47.7110 C   0  0  0  0  0  0  0  0  0  0  0  0
   59.4750   32.9750   49.3600 Cl  0  0  0  0  0  0  0  0  0  0  0  0
   58.1250   32.3400   47.0680 C   0  0  0  0  0  0  0  0  0  0  0  0
   58.4930   29.0490   46.3880 C   0  0  0  0  0  0  0  0  0  0  0  0
   58.6550   27.9070   47.1930 C   0  0  0  0  0  0  0  0  0  0  0  0
   59.7360   27.8400   48.2060 C   0  0  0  0  0  0  0  0  0  0  0  0
   60.1340   26.7120   48.6090 O   0  0  0  0  0  0  0  0  0  0  0  0
   60.3560   29.0390   48.7030 N   0  0  0  0  0  0  0  0  0  0  0  0
   61.2360   29.0740   49.8390 C   0  0  0  0  0  0  0  0  0  0  0  0
   61.3850   28.0500   50.5610 O   0  0  0  0  0  0  0  0  0  0  0  0
   61.9050   30.2990   50.1750 N   0  0  0  0  0  0  0  0  0  0  0  0
   63.0210   30.3910   51.0790 C   0  0  0  0  0  0  0  0  0  0  0  0
   63.3040   29.3500   51.9850 C   0  0  0  0  0  0  0  0  0  0  0  0
   64.4100   29.4310   52.8350 C   0  0  0  0  0  0  0  0  0  0  0  0
   65.2580   30.5380   52.7800 C   0  0  0  0  0  0  0  0  0  0  0  0
   65.0060   31.5640   51.8690 C   0  0  0  0  0  0  0  0  0  0  0  0
   63.8960   31.4970   51.0150 C   0  0  0  0  0  0  0  0  0  0  0  0
   63.6490   32.5800   50.1080 N   0  0  0  0  0  0  0  0  0  0  0  0
   62.6720   33.6070   50.4730 C   0  0  0  0  0  0  0  0  0  0  0  0
   62.5430   34.6270   49.3470 C   0  0  0  0  0  0  0  0  0  0  0  0
   62.4310   33.9400   48.1190 O   0  0  0  0  0  0  0  0  0  0  0  0
   63.6830   33.3860   47.7420 C   0  0  0  0  0  0  0  0  0  0  0  0
   64.4640   32.7040   48.8930 C   0  0  0  0  0  0  0  0  0  0  0  0
   57.7670   26.8280   47.0380 C   0  0  0  0  0  0  0  0  0  0  0  0
   53.9560   26.7180   46.4040 H   0  0  0  0  0  0  0  0  0  0  0  0
   55.7833   28.0719   44.5442 H   0  0  0  0  0  0  0  0  0  0  0  0
   57.8176   33.8821   44.0308 H   0  0  0  0  0  0  0  0  0  0  0  0
   59.2980   35.5368   45.1721 H   0  0  0  0  0  0  0  0  0  0  0  0
   57.8056   31.4323   47.6011 H   0  0  0  0  0  0  0  0  0  0  0  0
   59.1697   29.9064   46.5180 H   0  0  0  0  0  0  0  0  0  0  0  0
   60.2110   29.9330   48.1810 H   0  0  0  0  0  0  0  0  0  0  0  0
   61.5320   31.1790   49.7520 H   0  0  0  0  0  0  0  0  0  0  0  0
   62.6494   28.4668   52.0235 H   0  0  0  0  0  0  0  0  0  0  0  0
   64.6129   28.6198   53.5497 H   0  0  0  0  0  0  0  0  0  0  0  0
   66.1246   30.6015   53.4546 H   0  0  0  0  0  0  0  0  0  0  0  0
   65.6819   32.4305   51.8204 H   0  0  0  0  0  0  0  0  0  0  0  0
   61.6948   33.1339   50.6498 H   0  0  0  0  0  0  0  0  0  0  0  0
   63.0094   34.1182   51.3867 H   0  0  0  0  0  0  0  0  0  0  0  0
   61.6466   35.2438   49.5083 H   0  0  0  0  0  0  0  0  0  0  0  0
   63.4293   35.2783   49.3305 H   0  0  0  0  0  0  0  0  0  0  0  0
   63.5031   32.6352   46.9585 H   0  0  0  0  0  0  0  0  0  0  0  0
   64.3044   34.2275   47.4018 H   0  0  0  0  0  0  0  0  0  0  0  0
   64.7725   31.6996   48.5674 H   0  0  0  0  0  0  0  0  0  0  0  0
   65.3375   33.3291   49.1302 H   0  0  0  0  0  0  0  0  0  0  0  0
   57.8802   25.9360   47.6717 H   0  0  0  0  0  0  0  0  0  0  0  0
  1  2  1  0
  2  3  2  0
  2  4  1  0
  4  5  2  0
  5  6  1  0
  6  7  1  0
  7  8  2  0
  7  9  1  0
  9 10  1  0
 10 11  2  0
 11 12  1  0
 12 13  2  0
 13 14  1  0
 13 15  1  0
 15 16  1  0
 15 17  2  0
  6 18  2  0
 18 19  1  0
 19 20  1  0
 20 21  2  0
 20 22  1  0
 22 23  1  0
 23 24  2  0
 23 25  1  0
 25 26  1  0
 26 27  2  0
 27 28  1  0
 28 29  2  0
 29 30  1  0
 30 31  2  0
 31 32  1  0
 32 33  1  0
 33 34  1  0
 34 35  1  0
 35 36  1  0
 36 37  1  0
 19 38  2  0
 38  4  1  0
 17 10  1  0
 31 26  1  0
 37 32  1  0
  1 39  1  0
  5 40  1  0
 11 41  1  0
 12 42  1  0
 17 43  1  0
 18 44  1  0
 22 45  1  0
 25 46  1  0
 27 47  1  0
 28 48  1  0
 29 49  1  0
 30 50  1  0
 33 51  1  0
 33 52  1  0
 34 53  1  0
 34 54  1  0
 36 55  1  0
 36 56  1  0
 37 57  1  0
 37 58  1  0
 38 59  1  0
M  CHG  2   1  -1   9  -1
M  END
>  <UniqueID>  (62) 
59

>  <SMILES>  (62) 
[NH-]C(=O)c1cc(C(=O)[N-]c2ccc(F)c(Cl)c2)cc(C(=O)NC(=O)Nc2ccccc2N2CCOCC2)c1

>  <Energy>  (62) 
87.94195018271286

>  <Genealogy>  (62) 
[NH-]C(=O)c1cc(C(=O)[N-]c2ccc(F)c(Cl)c2)cc(C(=O)NC(=O)Nc2ccccc2N2CCOCC2)c1 (protonated)
[NH-]C(=O)c1cc(C(=O)[N-]c2ccc(F)c(Cl)c2)cc(C(=O)NC(=O)Nc2ccccc2N2CCOCC2)c1 (3D coordinates assigned)
[NH-]C(=O)c1cc(C(=O)[N-]c2ccc(F)c(Cl)c2)cc(C(=O)NC(=O)Nc2ccccc2N2CCOCC2)c1 (nonaromatic ring conformer: 87.94195018271286 kcal/mol)

>  <smiles>  (62) 
NC(=O)c1cc(C(=O)NC(=O)Nc2ccccc2N2CCOCC2)cc(C(=O)Nc2ccc(F)c(Cl)c2)c1

>  <score_type>  (62) 
oracle

>  <origin>  (62) 
adg

>  <m_score__min__energy>  (62) 
-13.640000000000001

>  <m_primary>  (62) 
energy

$$$$
62:0
     RDKit          3D

 74 78  0  0  0  0  0  0  0  0999 V2000
   57.3777   27.8268   46.9675 H   0  0  0  0  0  0  0  0  0  0  0  0
   57.3900   27.3720   45.9660 C   0  0  0  0  0  0  0  0  0  0  0  0
   56.6730   26.1010   45.7680 C   0  0  0  0  0  0  0  0  0  0  0  0
   55.9010   25.6990   46.6750 O   0  0  0  0  0  0  0  0  0  0  0  0
   56.8270   25.3180   44.5780 N   0  0  0  0  0  0  0  0  0  0  0  0
   56.9840   25.7980   43.6630 H   0  0  0  0  0  0  0  0  0  0  0  0
   56.7020   23.8910   44.5980 C   0  0  0  0  0  0  0  0  0  0  0  0
   57.7380   23.0760   44.1160 C   0  0  0  0  0  0  0  0  0  0  0  0
   58.6674   23.5322   43.7445 H   0  0  0  0  0  0  0  0  0  0  0  0
   57.5920   21.6910   44.1070 C   0  0  0  0  0  0  0  0  0  0  0  0
   58.4011   21.0570   43.7153 H   0  0  0  0  0  0  0  0  0  0  0  0
   56.4210   21.1040   44.5940 C   0  0  0  0  0  0  0  0  0  0  0  0
   56.3143   20.0092   44.5880 H   0  0  0  0  0  0  0  0  0  0  0  0
   55.3820   21.9030   45.0900 C   0  0  0  0  0  0  0  0  0  0  0  0
   54.2190   21.2610   45.6330 N   0  0  0  0  0  0  0  0  0  0  0  0
   52.8160   22.0740   46.2460 S   0  0  0  0  0  0  0  0  0  0  0  0
   53.2060   22.9650   47.3900 O   0  0  0  0  0  0  0  0  0  0  0  0
   52.2240   22.9180   45.1540 O   0  0  0  0  0  0  0  0  0  0  0  0
   51.6070   20.8790   46.7760 C   0  0  0  0  0  0  0  0  0  0  0  0
   51.5776   20.8499   47.8752 H   0  0  0  0  0  0  0  0  0  0  0  0
   50.6169   21.1632   46.3901 H   0  0  0  0  0  0  0  0  0  0  0  0
   51.8796   19.8856   46.3901 H   0  0  0  0  0  0  0  0  0  0  0  0
   55.5240   23.3010   45.0710 C   0  0  0  0  0  0  0  0  0  0  0  0
   54.7021   23.9373   45.4310 H   0  0  0  0  0  0  0  0  0  0  0  0
   58.0560   28.0030   44.9910 C   0  0  0  0  0  0  0  0  0  0  0  0
   58.5468   27.4290   44.1912 H   0  0  0  0  0  0  0  0  0  0  0  0
   58.1240   29.4670   45.0010 C   0  0  0  0  0  0  0  0  0  0  0  0
   59.1050   30.1070   45.7700 C   0  0  0  0  0  0  0  0  0  0  0  0
   59.9014   29.5164   46.2465 H   0  0  0  0  0  0  0  0  0  0  0  0
   59.0730   31.4910   45.9320 C   0  0  0  0  0  0  0  0  0  0  0  0
   59.8624   31.9917   46.5118 H   0  0  0  0  0  0  0  0  0  0  0  0
   58.0400   32.2500   45.3600 C   0  0  0  0  0  0  0  0  0  0  0  0
   57.8590   33.6720   45.7430 C   0  0  0  0  0  0  0  0  0  0  0  0
   56.7050   34.1770   45.7270 O   0  0  0  0  0  0  0  0  0  0  0  0
   58.9770   34.5090   46.0900 N   0  0  0  0  0  0  0  0  0  0  0  0
   60.0800   34.1480   46.6890 C   0  0  0  0  0  0  0  0  0  0  0  0
   61.2590   34.2850   46.0210 N   0  0  0  0  0  0  0  0  0  0  0  0
   62.4390   33.8460   46.5370 C   0  0  0  0  0  0  0  0  0  0  0  0
   63.3728   33.9873   45.9730 H   0  0  0  0  0  0  0  0  0  0  0  0
   62.4640   33.2160   47.7830 C   0  0  0  0  0  0  0  0  0  0  0  0
   63.4081   32.8199   48.1852 H   0  0  0  0  0  0  0  0  0  0  0  0
   61.2810   33.0930   48.5140 C   0  0  0  0  0  0  0  0  0  0  0  0
   61.2710   32.4710   49.7670 O   0  0  0  0  0  0  0  0  0  0  0  0
   61.2010   31.0820   49.9580 C   0  0  0  0  0  0  0  0  0  0  0  0
   61.5530   30.5610   51.2280 C   0  0  0  0  0  0  0  0  0  0  0  0
   62.0030   31.4550   52.2080 O   0  0  0  0  0  0  0  0  0  0  0  0
   61.2260   32.5110   52.7590 C   0  0  0  0  0  0  0  0  0  0  0  0
   61.2638   32.4596   53.8571 H   0  0  0  0  0  0  0  0  0  0  0  0
   61.6300   33.4774   52.4230 H   0  0  0  0  0  0  0  0  0  0  0  0
   60.1832   32.4128   52.4230 H   0  0  0  0  0  0  0  0  0  0  0  0
   61.4470   29.1710   51.4770 C   0  0  0  0  0  0  0  0  0  0  0  0
   61.7165   28.7543   52.4587 H   0  0  0  0  0  0  0  0  0  0  0  0
   60.9930   28.3400   50.4500 C   0  0  0  0  0  0  0  0  0  0  0  0
   60.6940   28.8480   49.2140 C   0  0  0  0  0  0  0  0  0  0  0  0
   60.7690   30.2060   48.9320 C   0  0  0  0  0  0  0  0  0  0  0  0
   60.4998   30.5913   47.9375 H   0  0  0  0  0  0  0  0  0  0  0  0
   60.3320   27.7960   48.4020 C   0  0  0  0  0  0  0  0  0  0  0  0
   60.0290   27.8439   47.3456 H   0  0  0  0  0  0  0  0  0  0  0  0
   60.4300   26.6630   49.1970 C   0  0  0  0  0  0  0  0  0  0  0  0
   60.2211   25.6382   48.8562 H   0  0  0  0  0  0  0  0  0  0  0  0
   60.8200   26.9960   50.4550 N   0  0  0  0  0  0  0  0  0  0  0  0
   60.9600   26.0700   51.5460 C   0  0  0  0  0  0  0  0  0  0  0  0
   60.0330   25.9410   52.3920 O   0  0  0  0  0  0  0  0  0  0  0  0
   62.1350   25.2570   51.6500 N   0  0  0  0  0  0  0  0  0  0  0  0
   63.4370   25.8050   52.0140 C   0  0  0  0  0  0  0  0  0  0  0  0
   63.5257   25.8424   53.1098 H   0  0  0  0  0  0  0  0  0  0  0  0
   64.2319   25.1651   51.6033 H   0  0  0  0  0  0  0  0  0  0  0  0
   63.5351   26.8207   51.6033 H   0  0  0  0  0  0  0  0  0  0  0  0
   60.0930   33.6030   47.9910 C   0  0  0  0  0  0  0  0  0  0  0  0
   59.1707   33.5807   48.5901 H   0  0  0  0  0  0  0  0  0  0  0  0
   57.1100   31.6170   44.5200 C   0  0  0  0  0  0  0  0  0  0  0  0
   56.3436   32.2131   44.0030 H   0  0  0  0  0  0  0  0  0  0  0  0
   57.1550   30.2280   44.3380 C   0  0  0  0  0  0  0  0  0  0  0  0
   56.4287   29.7363   43.6741 H   0  0  0  0  0  0  0  0  0  0  0  0
  1  2  1  0
  2  3  1  0
  3  4  2  0
  3  5  1  0
  5  6  1  0
  5  7  1  0
  7  8  2  0
  8  9  1  0
  8 10  1  0
 10 11  1  0
 10 12  2  0
 12 13  1  0
 12 14  1  0
 14 15  1  0
 15 16  1  0
 16 17  2  0
 16 18  2  0
 16 19  1  0
 19 20  1  0
 19 21  1  0
 19 22  1  0
 14 23  2  0
 23 24  1  0
  2 25  2  0
 25 26  1  0
 25 27  1  0
 27 28  2  0
 28 29  1  0
 28 30  1  0
 30 31  1  0
 30 32  2  0
 32 33  1  0
 33 34  2  0
 33 35  1  0
 35 36  2  3
 36 37  1  0
 37 38  1  0
 38 39  1  0
 38 40  2  0
 40 41  1  0
 40 42  1  0
 42 43  1  0
 43 44  1  0
 44 45  2  0
 45 46  1  0
 46 47  1  0
 47 48  1  0
 47 49  1  0
 47 50  1  0
 45 51  1  0
 51 52  1  0
 51 53  2  0
 53 54  1  0
 54 55  2  0
 55 56  1  0
 54 57  1  0
 57 58  1  0
 57 59  2  0
 59 60  1  0
 59 61  1  0
 61 62  1  0
 62 63  2  0
 62 64  1  0
 64 65  1  0
 65 66  1  0
 65 67  1  0
 65 68  1  0
 42 69  2  0
 69 70  1  0
 32 71  1  0
 71 72  1  0
 71 73  2  0
 73 74  1  0
 23  7  1  0
 73 27  1  0
 69 36  1  0
 55 44  1  0
 61 53  1  0
M  CHG  3  15  -1  37  -1  64  -1
M  END
>  <UniqueID>  (63) 
60

>  <SMILES>  (63) 
C[N-]C(=O)n1ccc2cc(Oc3cc[n-]c(=NC(=O)c4ccc(/C=C/C(=O)Nc5cccc([N-]S(C)(=O)=O)c5)cc4)c3)c(OC)cc21

>  <Energy>  (63) 
139.7561522800869

>  <Genealogy>  (63) 
C[N-]C(=O)n1ccc2cc(Oc3cc[n-]c(=NC(=O)c4ccc(C=CC(=O)Nc5cccc([N-]S(C)(=O)=O)c5)cc4)c3)c(OC)cc21 (protonated)
C[N-]C(=O)n1ccc2cc(Oc3cc[n-]c(=NC(=O)c4ccc(/C=C/C(=O)Nc5cccc([N-]S(C)(=O)=O)c5)cc4)c3)c(OC)cc21 (cis-trans isomerization)
C[N-]C(=O)n1ccc2cc(Oc3cc[n-]c(=NC(=O)c4ccc(/C=C/C(=O)Nc5cccc([N-]S(C)(=O)=O)c5)cc4)c3)c(OC)cc21 (3D coordinates assigned)
C[N-]C(=O)n1ccc2cc(Oc3cc[n-]c(=NC(=O)c4ccc(/C=C/C(=O)Nc5cccc([N-]S(C)(=O)=O)c5)cc4)c3)c(OC)cc21 (optimized conformer: 139.7561522800869 kcal/mol)

>  <smiles>  (63) 
CNC(=O)n1ccc2cc(Oc3cc[nH]c(=NC(=O)c4ccc(C=CC(=O)Nc5cccc(NS(C)(=O)=O)c5)cc4)c3)c(OC)cc21

>  <score_type>  (63) 
oracle

>  <origin>  (63) 
adg

>  <m_score__min__energy>  (63) 
-14.779999999999999

>  <m_primary>  (63) 
energy

$$$$
63:0
     RDKit          3D

 46 49  0  0  0  0  0  0  0  0999 V2000
   59.3712   33.1018   52.0759 H   0  0  0  0  0  0  0  0  0  0  0  0
   59.1610   32.1180   51.6310 C   0  0  0  0  0  0  0  0  0  0  0  0
   58.0690   31.8110   50.9550 C   0  0  0  0  0  0  0  0  0  0  0  0
   57.2198   32.4926   50.7990 H   0  0  0  0  0  0  0  0  0  0  0  0
   58.1410   30.4210   50.4330 C   0  0  0  0  0  0  0  0  0  0  0  0
   57.3938   29.7843   50.9293 H   0  0  0  0  0  0  0  0  0  0  0  0
   57.9313   30.3778   49.3540 H   0  0  0  0  0  0  0  0  0  0  0  0
   59.5150   29.9520   50.7480 N   0  0  0  0  0  0  0  0  0  0  0  0
   59.4710   29.0130   51.2030 H   0  0  0  0  0  0  0  0  0  0  0  0
   60.3310   29.8760   49.5500 C   0  0  0  0  0  0  0  0  0  0  0  0
   61.5870   29.9960   49.6250 O   0  0  0  0  0  0  0  0  0  0  0  0
   59.7260   29.6430   48.2120 C   0  0  0  0  0  0  0  0  0  0  0  0
   59.3320   28.3890   47.7490 C   0  0  0  0  0  0  0  0  0  0  0  0
   59.5851   27.4148   48.1926 H   0  0  0  0  0  0  0  0  0  0  0  0
   58.5580   28.6100   46.6190 C   0  0  0  0  0  0  0  0  0  0  0  0
   57.7460   27.7210   46.0110 C   0  0  0  0  0  0  0  0  0  0  0  0
   57.4787   27.9190   44.9625 H   0  0  0  0  0  0  0  0  0  0  0  0
   57.1840   26.5020   46.6340 C   0  0  0  0  0  0  0  0  0  0  0  0
   57.9710   25.4870   47.0440 N   0  0  0  0  0  0  0  0  0  0  0  0
   57.1240   24.4510   47.1920 C   0  0  0  0  0  0  0  0  0  0  0  0
   57.5110   23.2930   47.4940 O   0  0  0  0  0  0  0  0  0  0  0  0
   55.8400   24.7220   46.8740 N   0  0  0  0  0  0  0  0  0  0  0  0
   55.8880   26.0190   46.5260 C   0  0  0  0  0  0  0  0  0  0  0  0
   54.8010   26.7020   45.9910 O   0  0  0  0  0  0  0  0  0  0  0  0
   58.6150   29.9860   46.3560 C   0  0  0  0  0  0  0  0  0  0  0  0
   58.0920   30.6040   45.2850 C   0  0  0  0  0  0  0  0  0  0  0  0
   58.1936   31.6937   45.1747 H   0  0  0  0  0  0  0  0  0  0  0  0
   57.5619   30.0206   44.5178 H   0  0  0  0  0  0  0  0  0  0  0  0
   59.2660   30.6170   47.3740 N   0  0  0  0  0  0  0  0  0  0  0  0
   59.3030   32.0730   47.6450 C   0  0  0  0  0  0  0  0  0  0  0  0
   58.9164   32.6123   46.7677 H   0  0  0  0  0  0  0  0  0  0  0  0
   58.6824   32.2813   48.5290 H   0  0  0  0  0  0  0  0  0  0  0  0
   60.7090   32.5330   47.9260 C   0  0  0  0  0  0  0  0  0  0  0  0
   61.7920   32.0230   47.1840 C   0  0  0  0  0  0  0  0  0  0  0  0
   61.6152   31.2738   46.3982 H   0  0  0  0  0  0  0  0  0  0  0  0
   63.0920   32.4680   47.4450 C   0  0  0  0  0  0  0  0  0  0  0  0
   63.9327   32.0871   46.8466 H   0  0  0  0  0  0  0  0  0  0  0  0
   63.3260   33.3970   48.4660 C   0  0  0  0  0  0  0  0  0  0  0  0
   64.5890   33.8180   48.7290 F   0  0  0  0  0  0  0  0  0  0  0  0
   62.2540   33.8950   49.2200 C   0  0  0  0  0  0  0  0  0  0  0  0
   62.4376   34.6260   50.0213 H   0  0  0  0  0  0  0  0  0  0  0  0
   60.9510   33.4620   48.9530 C   0  0  0  0  0  0  0  0  0  0  0  0
   60.1120   33.8501   49.5492 H   0  0  0  0  0  0  0  0  0  0  0  0
   60.0640   30.9410   51.7030 C   0  0  0  0  0  0  0  0  0  0  0  0
   60.0720   30.5261   52.7217 H   0  0  0  0  0  0  0  0  0  0  0  0
   61.1011   31.2108   51.4548 H   0  0  0  0  0  0  0  0  0  0  0  0
  1  2  1  0
  2  3  2  0
  3  4  1  0
  3  5  1  0
  5  6  1  0
  5  7  1  0
  5  8  1  0
  8  9  1  0
  8 10  1  0
 10 11  2  0
 10 12  1  0
 12 13  2  0
 13 14  1  0
 13 15  1  0
 15 16  2  0
 16 17  1  0
 16 18  1  0
 18 19  1  0
 19 20  1  0
 20 21  2  0
 20 22  1  0
 22 23  1  0
 23 24  1  0
 15 25  1  0
 25 26  2  0
 26 27  1  0
 26 28  1  0
 25 29  1  0
 29 30  1  0
 30 31  1  0
 30 32  1  0
 30 33  1  0
 33 34  2  0
 34 35  1  0
 34 36  1  0
 36 37  1  0
 36 38  2  0
 38 39  1  0
 38 40  1  0
 40 41  1  0
 40 42  2  0
 42 43  1  0
  8 44  1  0
 44 45  1  0
 44 46  1  0
 44  2  1  0
 29 12  1  0
 42 33  1  0
 23 18  2  0
M  CHG  4   8   1  19  -1  22  -1  24  -1
M  END
>  <UniqueID>  (64) 
61

>  <SMILES>  (64) 
C=c1/c(=C/c2[n-]c(=O)[n-]c2[O-])cc(C(=O)[NH+]2CC=CC2)n1Cc1ccc(F)cc1

>  <Energy>  (64) 
139.66204783471778

>  <Genealogy>  (64) 
C=c1c(=Cc2[n-]c(=O)[n-]c2[O-])cc(C(=O)[NH+]2CC=CC2)n1Cc1ccc(F)cc1 (protonated)
C=c1/c(=C/c2[n-]c(=O)[n-]c2[O-])cc(C(=O)[NH+]2CC=CC2)n1Cc1ccc(F)cc1 (cis-trans isomerization)
C=c1/c(=C/c2[n-]c(=O)[n-]c2[O-])cc(C(=O)[NH+]2CC=CC2)n1Cc1ccc(F)cc1 (3D coordinates assigned)
C=c1/c(=C/c2[n-]c(=O)[n-]c2[O-])cc(C(=O)[NH+]2CC=CC2)n1Cc1ccc(F)cc1 (nonaromatic ring conformer: 139.66204783471778 kcal/mol)

>  <smiles>  (64) 
C=c1c(=Cc2[nH]c(=O)[nH]c2O)cc(C(=O)N2CC=CC2)n1Cc1ccc(F)cc1

>  <score_type>  (64) 
oracle

>  <origin>  (64) 
adg

>  <m_score__min__energy>  (64) 
-15

>  <m_primary>  (64) 
energy

$$$$
64:0
     RDKit          3D

 56 59  0  0  0  0  0  0  0  0999 V2000
   54.6730   26.1460   45.9750 N   0  0  0  0  0  0  0  0  0  0  0  0
   56.1770   25.3220   46.1920 S   0  0  0  0  0  0  0  0  0  0  0  0
   56.2890   24.2060   45.1920 O   0  0  0  0  0  0  0  0  0  0  0  0
   56.2270   24.7380   47.5760 O   0  0  0  0  0  0  0  0  0  0  0  0
   57.5040   26.4580   45.9640 C   0  0  0  0  0  0  0  0  0  0  0  0
   58.7830   26.1670   46.4560 C   0  0  0  0  0  0  0  0  0  0  0  0
   59.8210   27.0870   46.2990 C   0  0  0  0  0  0  0  0  0  0  0  0
   59.5860   28.3080   45.6640 C   0  0  0  0  0  0  0  0  0  0  0  0
   58.3060   28.6220   45.1700 C   0  0  0  0  0  0  0  0  0  0  0  0
   58.0450   29.9390   44.5270 C   0  0  0  0  0  0  0  0  0  0  0  0
   57.2410   30.0270   43.3770 C   0  0  0  0  0  0  0  0  0  0  0  0
   57.0240   31.2600   42.7600 C   0  0  0  0  0  0  0  0  0  0  0  0
   57.5910   32.4210   43.2850 C   0  0  0  0  0  0  0  0  0  0  0  0
   58.3700   32.3580   44.4460 C   0  0  0  0  0  0  0  0  0  0  0  0
   58.9680   33.5750   45.0230 C   0  0  0  0  0  0  0  0  0  0  0  0
   59.3910   34.4610   44.2320 O   0  0  0  0  0  0  0  0  0  0  0  0
   59.1340   33.7370   46.4520 N   0  0  0  0  0  0  0  0  0  0  0  0
   60.0080   34.7950   46.9790 C   0  0  0  0  0  0  0  0  0  0  0  0
   60.9400   34.2170   48.0470 C   0  0  0  0  0  0  0  0  0  0  0  0
   60.1910   33.4420   49.0450 N   0  0  0  0  0  0  0  0  0  0  0  0
   60.8700   32.9820   50.2270 C   0  0  0  0  0  0  0  0  0  0  0  0
   62.0890   32.6700   50.1610 O   0  0  0  0  0  0  0  0  0  0  0  0
   60.1600   32.8370   51.5170 C   0  0  0  0  0  0  0  0  0  0  0  0
   59.1960   33.7950   51.8680 C   0  0  0  0  0  0  0  0  0  0  0  0
   58.5420   33.7270   53.1020 C   0  0  0  0  0  0  0  0  0  0  0  0
   58.8440   32.7000   53.9960 C   0  0  0  0  0  0  0  0  0  0  0  0
   59.7860   31.7250   53.6500 C   0  0  0  0  0  0  0  0  0  0  0  0
   60.4400   31.7720   52.4090 C   0  0  0  0  0  0  0  0  0  0  0  0
   61.3360   30.7100   52.0550 N   0  0  0  0  0  0  0  0  0  0  0  0
   58.7580   33.1760   48.8530 C   0  0  0  0  0  0  0  0  0  0  0  0
   58.4680   32.8170   47.3900 C   0  0  0  0  0  0  0  0  0  0  0  0
   58.6100   31.1170   45.0520 C   0  0  0  0  0  0  0  0  0  0  0  0
   57.2700   27.6800   45.3200 C   0  0  0  0  0  0  0  0  0  0  0  0
   54.7760   27.0920   46.3990 H   0  0  0  0  0  0  0  0  0  0  0  0
   58.9698   25.2111   46.9673 H   0  0  0  0  0  0  0  0  0  0  0  0
   60.8265   26.8494   46.6765 H   0  0  0  0  0  0  0  0  0  0  0  0
   60.4076   29.0302   45.5489 H   0  0  0  0  0  0  0  0  0  0  0  0
   56.7803   29.1188   42.9611 H   0  0  0  0  0  0  0  0  0  0  0  0
   56.4022   31.3164   41.8544 H   0  0  0  0  0  0  0  0  0  0  0  0
   57.4258   33.3873   42.7860 H   0  0  0  0  0  0  0  0  0  0  0  0
   60.6090   35.2140   46.1585 H   0  0  0  0  0  0  0  0  0  0  0  0
   59.3891   35.5858   47.4280 H   0  0  0  0  0  0  0  0  0  0  0  0
   61.6769   33.5598   47.5621 H   0  0  0  0  0  0  0  0  0  0  0  0
   61.4411   35.0514   48.5595 H   0  0  0  0  0  0  0  0  0  0  0  0
   58.9529   34.6063   51.1661 H   0  0  0  0  0  0  0  0  0  0  0  0
   57.7891   34.4837   53.3678 H   0  0  0  0  0  0  0  0  0  0  0  0
   58.3414   32.6565   54.9735 H   0  0  0  0  0  0  0  0  0  0  0  0
   60.0161   30.9143   54.3570 H   0  0  0  0  0  0  0  0  0  0  0  0
   61.2350   29.7650   52.4870 H   0  0  0  0  0  0  0  0  0  0  0  0
   62.0520   30.8200   51.3060 H   0  0  0  0  0  0  0  0  0  0  0  0
   58.4562   32.3375   49.4979 H   0  0  0  0  0  0  0  0  0  0  0  0
   58.1905   34.0809   49.1158 H   0  0  0  0  0  0  0  0  0  0  0  0
   58.8253   31.7945   47.1980 H   0  0  0  0  0  0  0  0  0  0  0  0
   57.3826   32.8967   47.2300 H   0  0  0  0  0  0  0  0  0  0  0  0
   59.2466   31.0629   45.9474 H   0  0  0  0  0  0  0  0  0  0  0  0
   56.2674   27.9058   44.9278 H   0  0  0  0  0  0  0  0  0  0  0  0
  1  2  1  0
  2  3  2  0
  2  4  2  0
  2  5  1  0
  5  6  2  0
  6  7  1  0
  7  8  2  0
  8  9  1  0
  9 10  1  0
 10 11  2  0
 11 12  1  0
 12 13  2  0
 13 14  1  0
 14 15  1  0
 15 16  2  0
 15 17  1  0
 17 18  1  0
 18 19  1  0
 19 20  1  0
 20 21  1  0
 21 22  2  0
 21 23  1  0
 23 24  2  0
 24 25  1  0
 25 26  2  0
 26 27  1  0
 27 28  2  0
 28 29  1  0
 20 30  1  0
 30 31  1  0
 14 32  2  0
  9 33  2  0
 33  5  1  0
 32 10  1  0
 31 17  1  0
 28 23  1  0
  1 34  1  0
  6 35  1  0
  7 36  1  0
  8 37  1  0
 11 38  1  0
 12 39  1  0
 13 40  1  0
 18 41  1  0
 18 42  1  0
 19 43  1  0
 19 44  1  0
 24 45  1  0
 25 46  1  0
 26 47  1  0
 27 48  1  0
 29 49  1  0
 29 50  1  0
 30 51  1  0
 30 52  1  0
 31 53  1  0
 31 54  1  0
 32 55  1  0
 33 56  1  0
M  CHG  1   1  -1
M  END
>  <UniqueID>  (65) 
62

>  <SMILES>  (65) 
[NH-]S(=O)(=O)c1cccc(-c2cccc(C(=O)N3CCN(C(=O)c4ccccc4N)CC3)c2)c1

>  <Energy>  (65) 
78.8647269464199

>  <Genealogy>  (65) 
[NH-]S(=O)(=O)c1cccc(-c2cccc(C(=O)N3CCN(C(=O)c4ccccc4N)CC3)c2)c1 (protonated)
[NH-]S(=O)(=O)c1cccc(-c2cccc(C(=O)N3CCN(C(=O)c4ccccc4N)CC3)c2)c1 (3D coordinates assigned)
[NH-]S(=O)(=O)c1cccc(-c2cccc(C(=O)N3CCN(C(=O)c4ccccc4N)CC3)c2)c1 (nonaromatic ring conformer: 78.8647269464199 kcal/mol)

>  <smiles>  (65) 
Nc1ccccc1C(=O)N1CCN(C(=O)c2cccc(-c3cccc(S(N)(=O)=O)c3)c2)CC1

>  <score_type>  (65) 
oracle

>  <origin>  (65) 
adg

>  <m_score__min__energy>  (65) 
-12.710000000000001

>  <m_primary>  (65) 
energy

$$$$
65:0
     RDKit          3D

 49 52  0  0  0  0  0  0  0  0999 V2000
   57.3670   30.6560   44.0340 C   0  0  0  0  0  0  0  0  0  0  0  0
   57.0230   30.1490   45.3190 O   0  0  0  0  0  0  0  0  0  0  0  0
   57.3680   28.8740   45.7970 C   0  0  0  0  0  0  0  0  0  0  0  0
   56.8200   27.7000   45.2430 C   0  0  0  0  0  0  0  0  0  0  0  0
   57.2260   26.4330   45.6940 C   0  0  0  0  0  0  0  0  0  0  0  0
   56.6490   25.1990   45.1000 C   0  0  0  0  0  0  0  0  0  0  0  0
   57.4260   24.3730   44.2690 C   0  0  0  0  0  0  0  0  0  0  0  0
   56.8660   23.2170   43.7210 C   0  0  0  0  0  0  0  0  0  0  0  0
   55.5730   22.8920   43.9900 N   0  0  0  0  0  0  0  0  0  0  0  0
   54.7940   23.6680   44.7890 C   0  0  0  0  0  0  0  0  0  0  0  0
   53.6030   23.3320   45.0170 O   0  0  0  0  0  0  0  0  0  0  0  0
   55.3160   24.8350   45.3570 C   0  0  0  0  0  0  0  0  0  0  0  0
   58.1950   26.3490   46.7070 C   0  0  0  0  0  0  0  0  0  0  0  0
   58.7340   27.5070   47.2680 C   0  0  0  0  0  0  0  0  0  0  0  0
   58.3090   28.7700   46.8410 C   0  0  0  0  0  0  0  0  0  0  0  0
   58.8910   29.9400   47.4330 N   0  0  0  0  0  0  0  0  0  0  0  0
   58.9110   30.1660   48.8480 C   0  0  0  0  0  0  0  0  0  0  0  0
   58.7910   29.1980   49.6490 O   0  0  0  0  0  0  0  0  0  0  0  0
   59.0140   31.5590   49.3810 C   0  0  0  0  0  0  0  0  0  0  0  0
   59.6260   32.4430   48.3380 C   0  0  0  0  0  0  0  0  0  0  0  0
   60.9850   32.6670   48.1410 C   0  0  0  0  0  0  0  0  0  0  0  0
   61.1790   33.4000   47.0190 N   0  0  0  0  0  0  0  0  0  0  0  0
   62.4670   33.7950   46.4580 C   0  0  0  0  0  0  0  0  0  0  0  0
   59.9590   33.6210   46.4910 C   0  0  0  0  0  0  0  0  0  0  0  0
   59.6430   34.2860   45.3040 C   0  0  0  0  0  0  0  0  0  0  0  0
   58.2900   34.3540   44.9260 C   0  0  0  0  0  0  0  0  0  0  0  0
   57.2920   33.7560   45.7270 C   0  0  0  0  0  0  0  0  0  0  0  0
   57.6380   33.0860   46.9140 C   0  0  0  0  0  0  0  0  0  0  0  0
   58.9860   33.0450   47.2700 C   0  0  0  0  0  0  0  0  0  0  0  0
   57.9812   31.5612   44.1494 H   0  0  0  0  0  0  0  0  0  0  0  0
   57.9360   29.8950   43.4799 H   0  0  0  0  0  0  0  0  0  0  0  0
   56.4496   30.9035   43.4799 H   0  0  0  0  0  0  0  0  0  0  0  0
   56.0646   27.7766   44.4471 H   0  0  0  0  0  0  0  0  0  0  0  0
   58.4715   24.6364   44.0512 H   0  0  0  0  0  0  0  0  0  0  0  0
   57.4715   22.5684   43.0709 H   0  0  0  0  0  0  0  0  0  0  0  0
   54.6859   25.4650   46.0020 H   0  0  0  0  0  0  0  0  0  0  0  0
   58.5314   25.3632   47.0606 H   0  0  0  0  0  0  0  0  0  0  0  0
   59.5001   27.4265   48.0532 H   0  0  0  0  0  0  0  0  0  0  0  0
   59.3720   30.6300   46.8110 H   0  0  0  0  0  0  0  0  0  0  0  0
   58.0103   31.9306   49.6350 H   0  0  0  0  0  0  0  0  0  0  0  0
   59.6429   31.5632   50.2835 H   0  0  0  0  0  0  0  0  0  0  0  0
   61.7857   32.3017   48.8009 H   0  0  0  0  0  0  0  0  0  0  0  0
   63.1718   34.0111   47.2744 H   0  0  0  0  0  0  0  0  0  0  0  0
   62.8634   32.9771   45.8383 H   0  0  0  0  0  0  0  0  0  0  0  0
   62.3367   34.6945   45.8383 H   0  0  0  0  0  0  0  0  0  0  0  0
   60.4284   34.7426   44.6838 H   0  0  0  0  0  0  0  0  0  0  0  0
   58.0071   34.8764   44.0003 H   0  0  0  0  0  0  0  0  0  0  0  0
   56.2373   33.8148   45.4203 H   0  0  0  0  0  0  0  0  0  0  0  0
   56.8703   32.6096   47.5415 H   0  0  0  0  0  0  0  0  0  0  0  0
  1  2  1  0
  2  3  1  0
  3  4  2  0
  4  5  1  0
  5  6  1  0
  6  7  1  0
  7  8  2  0
  8  9  1  0
  9 10  1  0
 10 11  2  0
 10 12  1  0
  5 13  2  0
 13 14  1  0
 14 15  2  0
 15 16  1  0
 16 17  1  0
 17 18  2  0
 17 19  1  0
 19 20  1  0
 20 21  2  0
 21 22  1  0
 22 23  1  0
 22 24  1  0
 24 25  2  0
 25 26  1  0
 26 27  2  0
 27 28  1  0
 28 29  2  0
 15  3  1  0
 29 20  1  0
 12  6  2  0
 29 24  1  0
  1 30  1  0
  1 31  1  0
  1 32  1  0
  4 33  1  0
  7 34  1  0
  8 35  1  0
 12 36  1  0
 13 37  1  0
 14 38  1  0
 16 39  1  0
 19 40  1  0
 19 41  1  0
 21 42  1  0
 23 43  1  0
 23 44  1  0
 23 45  1  0
 25 46  1  0
 26 47  1  0
 27 48  1  0
 28 49  1  0
M  CHG  1   9  -1
M  END
>  <UniqueID>  (66) 
63

>  <SMILES>  (66) 
COc1cc(-c2cc[n-]c(=O)c2)ccc1NC(=O)Cc1cn(C)c2ccccc12

>  <Energy>  (66) 
92.50841387715272

>  <Genealogy>  (66) 
COc1cc(-c2cc[n-]c(=O)c2)ccc1NC(=O)Cc1cn(C)c2ccccc12 (protonated)
COc1cc(-c2cc[n-]c(=O)c2)ccc1NC(=O)Cc1cn(C)c2ccccc12 (3D coordinates assigned)
COc1cc(-c2cc[n-]c(=O)c2)ccc1NC(=O)Cc1cn(C)c2ccccc12 (optimized conformer: 92.50841387715272 kcal/mol)

>  <smiles>  (66) 
COc1cc(-c2cc[nH]c(=O)c2)ccc1NC(=O)Cc1cn(C)c2ccccc12

>  <score_type>  (66) 
oracle

>  <origin>  (66) 
adg

>  <m_score__min__energy>  (66) 
-10.02

>  <m_primary>  (66) 
energy

$$$$
66:0
     RDKit          3D

 56 59  0  0  0  0  0  0  0  0999 V2000
   58.3270   23.1240   45.7680 C   0  0  0  0  0  0  0  0  0  0  0  0
   57.6360   24.2540   45.7280 C   0  0  0  0  0  0  0  0  0  0  0  0
   56.2240   24.3260   45.9320 N   0  0  0  0  0  0  0  0  0  0  0  0
   55.8380   25.6730   45.8180 C   0  0  0  0  0  0  0  0  0  0  0  0
   54.5410   26.1850   45.9470 O   0  0  0  0  0  0  0  0  0  0  0  0
   56.8950   26.4550   45.5590 C   0  0  0  0  0  0  0  0  0  0  0  0
   56.8440   27.9010   45.3820 C   0  0  0  0  0  0  0  0  0  0  0  0
   55.7410   28.4960   45.2720 O   0  0  0  0  0  0  0  0  0  0  0  0
   58.0120   28.7000   45.3230 N   0  0  0  0  0  0  0  0  0  0  0  0
   57.9850   30.1180   45.1480 C   0  0  0  0  0  0  0  0  0  0  0  0
   58.3360   30.9910   46.1620 C   0  0  0  0  0  0  0  0  0  0  0  0
   58.2920   32.3580   45.9220 C   0  0  0  0  0  0  0  0  0  0  0  0
   58.6430   33.3470   46.9250 C   0  0  0  0  0  0  0  0  0  0  0  0
   57.7960   34.1420   47.4270 O   0  0  0  0  0  0  0  0  0  0  0  0
   59.9780   33.4760   47.4020 N   0  0  0  0  0  0  0  0  0  0  0  0
   60.3160   34.4630   48.4050 C   0  0  0  0  0  0  0  0  0  0  0  0
   61.7410   34.2090   48.8440 C   0  0  0  0  0  0  0  0  0  0  0  0
   62.0590   32.8680   49.1460 N   0  0  0  0  0  0  0  0  0  0  0  0
   61.8410   32.4580   50.5020 C   0  0  0  0  0  0  0  0  0  0  0  0
   60.4130   32.4360   50.8650 C   0  0  0  0  0  0  0  0  0  0  0  0
   59.5130   31.4820   50.4390 C   0  0  0  0  0  0  0  0  0  0  0  0
   58.1800   31.5790   50.8510 C   0  0  0  0  0  0  0  0  0  0  0  0
   57.7780   32.6310   51.6820 C   0  0  0  0  0  0  0  0  0  0  0  0
   58.6720   33.5890   52.1140 C   0  0  0  0  0  0  0  0  0  0  0  0
   59.9750   33.4740   51.6970 C   0  0  0  0  0  0  0  0  0  0  0  0
   61.5780   31.9320   48.1870 C   0  0  0  0  0  0  0  0  0  0  0  0
   61.0690   32.6360   46.9220 C   0  0  0  0  0  0  0  0  0  0  0  0
   57.8940   32.8230   44.6620 C   0  0  0  0  0  0  0  0  0  0  0  0
   57.5510   31.9210   43.6780 C   0  0  0  0  0  0  0  0  0  0  0  0
   57.5870   30.5600   43.8920 C   0  0  0  0  0  0  0  0  0  0  0  0
   57.2410   29.6910   42.8990 F   0  0  0  0  0  0  0  0  0  0  0  0
   58.0880   25.6170   45.4860 C   0  0  0  0  0  0  0  0  0  0  0  0
   59.2810   25.9430   45.2650 O   0  0  0  0  0  0  0  0  0  0  0  0
   59.4143   23.1380   45.6020 H   0  0  0  0  0  0  0  0  0  0  0  0
   57.8133   22.1719   45.9672 H   0  0  0  0  0  0  0  0  0  0  0  0
   55.5590   23.5200   46.1340 H   0  0  0  0  0  0  0  0  0  0  0  0
   54.3600   27.0930   46.3530 H   0  0  0  0  0  0  0  0  0  0  0  0
   58.9660   28.2760   45.4080 H   0  0  0  0  0  0  0  0  0  0  0  0
   58.6458   30.6074   47.1453 H   0  0  0  0  0  0  0  0  0  0  0  0
   60.2305   35.4735   47.9790 H   0  0  0  0  0  0  0  0  0  0  0  0
   59.6313   34.3884   49.2627 H   0  0  0  0  0  0  0  0  0  0  0  0
   62.4080   34.5403   48.0345 H   0  0  0  0  0  0  0  0  0  0  0  0
   61.8687   34.7661   49.7839 H   0  0  0  0  0  0  0  0  0  0  0  0
   62.2539   31.4472   50.6351 H   0  0  0  0  0  0  0  0  0  0  0  0
   62.3395   33.1893   51.1553 H   0  0  0  0  0  0  0  0  0  0  0  0
   59.8380   30.6585   49.7861 H   0  0  0  0  0  0  0  0  0  0  0  0
   57.4470   30.8279   50.5217 H   0  0  0  0  0  0  0  0  0  0  0  0
   56.7262   32.6954   51.9976 H   0  0  0  0  0  0  0  0  0  0  0  0
   58.3528   34.4139   52.7679 H   0  0  0  0  0  0  0  0  0  0  0  0
   60.7042   34.2273   52.0297 H   0  0  0  0  0  0  0  0  0  0  0  0
   62.3957   31.2495   47.9120 H   0  0  0  0  0  0  0  0  0  0  0  0
   60.7401   31.3778   48.6350 H   0  0  0  0  0  0  0  0  0  0  0  0
   61.8629   33.2474   46.4682 H   0  0  0  0  0  0  0  0  0  0  0  0
   60.7482   31.9285   46.1432 H   0  0  0  0  0  0  0  0  0  0  0  0
   57.8554   33.9034   44.4588 H   0  0  0  0  0  0  0  0  0  0  0  0
   57.2393   32.2985   42.6929 H   0  0  0  0  0  0  0  0  0  0  0  0
  1  2  2  0
  2  3  1  0
  3  4  1  0
  4  5  1  0
  4  6  2  0
  6  7  1  0
  7  8  2  0
  7  9  1  0
  9 10  1  0
 10 11  2  0
 11 12  1  0
 12 13  1  0
 13 14  2  0
 13 15  1  0
 15 16  1  0
 16 17  1  0
 17 18  1  0
 18 19  1  0
 19 20  1  0
 20 21  2  0
 21 22  1  0
 22 23  2  0
 23 24  1  0
 24 25  2  0
 18 26  1  0
 26 27  1  0
 12 28  2  0
 28 29  1  0
 29 30  2  0
 30 31  1  0
  6 32  1  0
 32 33  2  0
 32  2  1  0
 30 10  1  0
 27 15  1  0
 25 20  1  0
  1 34  1  0
  1 35  1  0
  3 36  1  0
  5 37  1  0
  9 38  1  0
 11 39  1  0
 16 40  1  0
 16 41  1  0
 17 42  1  0
 17 43  1  0
 19 44  1  0
 19 45  1  0
 21 46  1  0
 22 47  1  0
 23 48  1  0
 24 49  1  0
 25 50  1  0
 26 51  1  0
 26 52  1  0
 27 53  1  0
 27 54  1  0
 28 55  1  0
 29 56  1  0
M  END
>  <smiles>  (67) 
C=C1NC(O)=C(C(=O)Nc2cc(C(=O)N3CCN(Cc4ccccc4)CC3)ccc2F)C1=O

>  <score_type>  (67) 
oracle

>  <origin>  (67) 
adg

>  <m_score__min__energy>  (67) 
-9.9000000000000004

>  <m_primary>  (67) 
energy

$$$$
67:0
     RDKit          3D

 60 62  0  0  0  0  0  0  0  0999 V2000
   60.4310   28.9230   46.6380 C   0  0  0  0  0  0  0  0  0  0  0  0
   60.4030   27.6340   45.8240 C   0  0  0  0  0  0  0  0  0  0  0  0
   59.1760   26.8290   46.1440 C   0  0  0  0  0  0  0  0  0  0  0  0
   59.0740   26.0490   47.2360 N   0  0  0  0  0  0  0  0  0  0  0  0
   57.8770   25.4360   47.1780 C   0  0  0  0  0  0  0  0  0  0  0  0
   57.3940   24.4880   48.2320 C   0  0  0  0  0  0  0  0  0  0  0  0
   57.1930   25.8150   46.0260 C   0  0  0  0  0  0  0  0  0  0  0  0
   55.8500   25.3560   45.6040 C   0  0  0  0  0  0  0  0  0  0  0  0
   54.8200   25.9840   45.9730 O   0  0  0  0  0  0  0  0  0  0  0  0
   55.7240   24.2190   44.8010 O   0  0  0  0  0  0  0  0  0  0  0  0
   56.5900   23.9550   43.7040 C   0  0  0  0  0  0  0  0  0  0  0  0
   58.0380   26.7000   45.3560 C   0  0  0  0  0  0  0  0  0  0  0  0
   57.7890   27.3890   44.0410 C   0  0  0  0  0  0  0  0  0  0  0  0
   58.0570   28.8960   44.1410 C   0  0  0  0  0  0  0  0  0  0  0  0
   56.8170   29.6750   43.8160 C   0  0  0  0  0  0  0  0  0  0  0  0
   56.1170   29.3630   42.8170 O   0  0  0  0  0  0  0  0  0  0  0  0
   56.4420   30.7900   44.6280 N   0  0  0  0  0  0  0  0  0  0  0  0
   57.3830   31.6730   45.2490 C   0  0  0  0  0  0  0  0  0  0  0  0
   57.5190   33.0150   44.8480 C   0  0  0  0  0  0  0  0  0  0  0  0
   58.3770   33.8750   45.5390 C   0  0  0  0  0  0  0  0  0  0  0  0
   59.0930   33.4140   46.6550 C   0  0  0  0  0  0  0  0  0  0  0  0
   59.9050   34.3480   47.4550 C   0  0  0  0  0  0  0  0  0  0  0  0
   59.3970   34.9400   48.4450 O   0  0  0  0  0  0  0  0  0  0  0  0
   61.2790   34.5760   47.1350 N   0  0  0  0  0  0  0  0  0  0  0  0
   62.1570   33.5020   46.6780 C   0  0  0  0  0  0  0  0  0  0  0  0
   62.8640   32.8470   47.8370 C   0  0  0  0  0  0  0  0  0  0  0  0
   62.2370   31.8130   48.5520 C   0  0  0  0  0  0  0  0  0  0  0  0
   62.8680   31.2420   49.6640 C   0  0  0  0  0  0  0  0  0  0  0  0
   64.1230   31.7020   50.0720 C   0  0  0  0  0  0  0  0  0  0  0  0
   64.7320   31.1430   51.1490 F   0  0  0  0  0  0  0  0  0  0  0  0
   64.7510   32.7360   49.3710 C   0  0  0  0  0  0  0  0  0  0  0  0
   64.1250   33.3080   48.2570 C   0  0  0  0  0  0  0  0  0  0  0  0
   58.9790   32.0660   47.0340 C   0  0  0  0  0  0  0  0  0  0  0  0
   58.1320   31.2020   46.3330 C   0  0  0  0  0  0  0  0  0  0  0  0
   60.4257   28.6794   47.7107 H   0  0  0  0  0  0  0  0  0  0  0  0
   61.3417   29.4902   46.3953 H   0  0  0  0  0  0  0  0  0  0  0  0
   59.5458   29.5292   46.3953 H   0  0  0  0  0  0  0  0  0  0  0  0
   60.4015   27.8837   44.7527 H   0  0  0  0  0  0  0  0  0  0  0  0
   61.2922   27.0377   46.0763 H   0  0  0  0  0  0  0  0  0  0  0  0
   59.7940   25.9360   47.9840 H   0  0  0  0  0  0  0  0  0  0  0  0
   57.6071   24.9062   49.2268 H   0  0  0  0  0  0  0  0  0  0  0  0
   56.3098   24.3385   48.1217 H   0  0  0  0  0  0  0  0  0  0  0  0
   57.9103   23.5230   48.1217 H   0  0  0  0  0  0  0  0  0  0  0  0
   57.5784   23.6537   44.0813 H   0  0  0  0  0  0  0  0  0  0  0  0
   56.1688   23.1445   43.0911 H   0  0  0  0  0  0  0  0  0  0  0  0
   56.6926   24.8627   43.0911 H   0  0  0  0  0  0  0  0  0  0  0  0
   58.4538   26.9568   43.2786 H   0  0  0  0  0  0  0  0  0  0  0  0
   56.7340   27.2418   43.7666 H   0  0  0  0  0  0  0  0  0  0  0  0
   58.3788   29.1389   45.1644 H   0  0  0  0  0  0  0  0  0  0  0  0
   58.8439   29.1650   43.4210 H   0  0  0  0  0  0  0  0  0  0  0  0
   56.9470   33.3891   43.9861 H   0  0  0  0  0  0  0  0  0  0  0  0
   58.4917   34.9174   45.2070 H   0  0  0  0  0  0  0  0  0  0  0  0
   61.5558   32.7466   46.1509 H   0  0  0  0  0  0  0  0  0  0  0  0
   62.9140   33.9325   46.0059 H   0  0  0  0  0  0  0  0  0  0  0  0
   61.2472   31.4508   48.2373 H   0  0  0  0  0  0  0  0  0  0  0  0
   62.3747   30.4295   50.2177 H   0  0  0  0  0  0  0  0  0  0  0  0
   65.7372   33.1001   49.6949 H   0  0  0  0  0  0  0  0  0  0  0  0
   64.6214   34.1215   47.7077 H   0  0  0  0  0  0  0  0  0  0  0  0
   59.5600   31.6877   47.8880 H   0  0  0  0  0  0  0  0  0  0  0  0
   58.0542   30.1472   46.6351 H   0  0  0  0  0  0  0  0  0  0  0  0
  1  2  1  0
  2  3  1  0
  3  4  1  0
  4  5  1  0
  5  6  1  0
  5  7  2  0
  7  8  1  0
  8  9  2  0
  8 10  1  0
 10 11  1  0
  7 12  1  0
 12 13  1  0
 13 14  1  0
 14 15  1  0
 15 16  2  0
 15 17  1  0
 17 18  1  0
 18 19  2  0
 19 20  1  0
 20 21  2  0
 21 22  1  0
 22 23  2  0
 22 24  1  0
 24 25  1  0
 25 26  1  0
 26 27  2  0
 27 28  1  0
 28 29  2  0
 29 30  1  0
 29 31  1  0
 31 32  2  0
 21 33  1  0
 33 34  2  0
 12  3  2  0
 34 18  1  0
 32 26  1  0
  1 35  1  0
  1 36  1  0
  1 37  1  0
  2 38  1  0
  2 39  1  0
  4 40  1  0
  6 41  1  0
  6 42  1  0
  6 43  1  0
 11 44  1  0
 11 45  1  0
 11 46  1  0
 13 47  1  0
 13 48  1  0
 14 49  1  0
 14 50  1  0
 19 51  1  0
 20 52  1  0
 25 53  1  0
 25 54  1  0
 27 55  1  0
 28 56  1  0
 31 57  1  0
 32 58  1  0
 33 59  1  0
 34 60  1  0
M  CHG  2  17  -1  24  -1
M  END
>  <UniqueID>  (68) 
64

>  <SMILES>  (68) 
CCc1[nH]c(C)c(C(=O)OC)c1CCC(=O)[N-]c1ccc(C(=O)[N-]Cc2ccc(F)cc2)cc1

>  <Energy>  (68) 
88.54111891094466

>  <Genealogy>  (68) 
CCc1[nH]c(C)c(C(=O)OC)c1CCC(=O)[N-]c1ccc(C(=O)[N-]Cc2ccc(F)cc2)cc1 (protonated)
CCc1[nH]c(C)c(C(=O)OC)c1CCC(=O)[N-]c1ccc(C(=O)[N-]Cc2ccc(F)cc2)cc1 (3D coordinates assigned)
CCc1[nH]c(C)c(C(=O)OC)c1CCC(=O)[N-]c1ccc(C(=O)[N-]Cc2ccc(F)cc2)cc1 (optimized conformer: 88.54111891094466 kcal/mol)

>  <smiles>  (68) 
CCc1[nH]c(C)c(C(=O)OC)c1CCC(=O)Nc1ccc(C(=O)NCc2ccc(F)cc2)cc1

>  <score_type>  (68) 
oracle

>  <origin>  (68) 
adg

>  <m_score__min__energy>  (68) 
-11.16

>  <m_primary>  (68) 
energy

$$$$
68:0
     RDKit          3D

 44 46  0  0  0  0  0  0  0  0999 V2000
   56.6130   29.2740   44.2200 O   0  0  0  0  0  0  0  0  0  0  0  0
   57.2990   29.3030   45.2750 C   0  0  0  0  0  0  0  0  0  0  0  0
   57.9570   28.0350   45.7420 C   0  0  0  0  0  0  0  0  0  0  0  0
   56.9300   26.9560   45.9390 C   0  0  0  0  0  0  0  0  0  0  0  0
   55.6290   27.0860   45.6260 N   0  0  0  0  0  0  0  0  0  0  0  0
   55.0780   25.9040   45.9560 C   0  0  0  0  0  0  0  0  0  0  0  0
   53.8570   25.6470   45.7940 O   0  0  0  0  0  0  0  0  0  0  0  0
   55.9530   25.0170   46.4690 N   0  0  0  0  0  0  0  0  0  0  0  0
   57.1230   25.6880   46.4680 C   0  0  0  0  0  0  0  0  0  0  0  0
   58.4240   25.0700   46.8950 C   0  0  0  0  0  0  0  0  0  0  0  0
   59.1550   24.4070   45.7200 C   0  0  0  0  0  0  0  0  0  0  0  0
   58.2300   23.5460   44.8990 C   0  0  0  0  0  0  0  0  0  0  0  0
   58.2140   22.1520   45.0770 C   0  0  0  0  0  0  0  0  0  0  0  0
   57.3840   21.3510   44.2860 C   0  0  0  0  0  0  0  0  0  0  0  0
   56.5700   21.9330   43.3110 C   0  0  0  0  0  0  0  0  0  0  0  0
   56.5870   23.3170   43.1220 C   0  0  0  0  0  0  0  0  0  0  0  0
   57.4170   24.1220   43.9100 C   0  0  0  0  0  0  0  0  0  0  0  0
   57.3920   30.5360   45.9980 N   0  0  0  0  0  0  0  0  0  0  0  0
   57.7520   32.0870   45.3090 S   0  0  0  0  0  0  0  0  0  0  0  0
   58.3190   31.9330   43.9260 O   0  0  0  0  0  0  0  0  0  0  0  0
   56.4900   32.9010   45.2420 O   0  0  0  0  0  0  0  0  0  0  0  0
   58.9490   32.8960   46.3280 C   0  0  0  0  0  0  0  0  0  0  0  0
   58.7640   34.2460   46.6700 C   0  0  0  0  0  0  0  0  0  0  0  0
   59.6930   34.9050   47.4740 C   0  0  0  0  0  0  0  0  0  0  0  0
   60.8160   34.2270   47.9470 C   0  0  0  0  0  0  0  0  0  0  0  0
   61.0180   32.8830   47.6180 C   0  0  0  0  0  0  0  0  0  0  0  0
   62.4490   32.0710   48.2390 Cl  0  0  0  0  0  0  0  0  0  0  0  0
   60.0860   32.2080   46.8070 C   0  0  0  0  0  0  0  0  0  0  0  0
   60.3550   30.5110   46.4000 Cl  0  0  0  0  0  0  0  0  0  0  0  0
   58.6881   27.7068   44.9884 H   0  0  0  0  0  0  0  0  0  0  0  0
   58.4629   28.2264   46.6998 H   0  0  0  0  0  0  0  0  0  0  0  0
   55.1510   27.9120   45.2050 H   0  0  0  0  0  0  0  0  0  0  0  0
   59.0687   25.8546   47.3178 H   0  0  0  0  0  0  0  0  0  0  0  0
   58.2036   24.2930   47.6417 H   0  0  0  0  0  0  0  0  0  0  0  0
   59.5771   25.1917   45.0749 H   0  0  0  0  0  0  0  0  0  0  0  0
   59.9472   23.7632   46.1298 H   0  0  0  0  0  0  0  0  0  0  0  0
   58.8563   21.6894   45.8409 H   0  0  0  0  0  0  0  0  0  0  0  0
   57.3721   20.2608   44.4318 H   0  0  0  0  0  0  0  0  0  0  0  0
   55.9157   21.3014   42.6922 H   0  0  0  0  0  0  0  0  0  0  0  0
   55.9472   23.7744   42.3529 H   0  0  0  0  0  0  0  0  0  0  0  0
   57.4325   25.2108   43.7539 H   0  0  0  0  0  0  0  0  0  0  0  0
   57.8801   34.7868   46.3009 H   0  0  0  0  0  0  0  0  0  0  0  0
   59.5397   35.9623   47.7359 H   0  0  0  0  0  0  0  0  0  0  0  0
   61.5458   34.7514   48.5814 H   0  0  0  0  0  0  0  0  0  0  0  0
  1  2  2  0
  2  3  1  0
  3  4  1  0
  4  5  1  0
  5  6  1  0
  6  7  2  0
  6  8  1  0
  8  9  1  0
  9 10  1  0
 10 11  1  0
 11 12  1  0
 12 13  2  0
 13 14  1  0
 14 15  2  0
 15 16  1  0
 16 17  2  0
  2 18  1  0
 18 19  1  0
 19 20  2  0
 19 21  2  0
 19 22  1  0
 22 23  2  0
 23 24  1  0
 24 25  2  0
 25 26  1  0
 26 27  1  0
 26 28  2  0
 28 29  1  0
  9  4  2  0
 17 12  1  0
 28 22  1  0
  3 30  1  0
  3 31  1  0
  5 32  1  0
 10 33  1  0
 10 34  1  0
 11 35  1  0
 11 36  1  0
 13 37  1  0
 14 38  1  0
 15 39  1  0
 16 40  1  0
 17 41  1  0
 23 42  1  0
 24 43  1  0
 25 44  1  0
M  CHG  2   8  -1  18  -1
M  END
>  <UniqueID>  (69) 
65

>  <SMILES>  (69) 
O=C(Cc1[nH]c(=O)[n-]c1CCc1ccccc1)[N-]S(=O)(=O)c1cccc(Cl)c1Cl

>  <Energy>  (69) 
76.30841698787539

>  <Genealogy>  (69) 
O=C(Cc1[nH]c(=O)[n-]c1CCc1ccccc1)[N-]S(=O)(=O)c1cccc(Cl)c1Cl (protonated)
O=C(Cc1[nH]c(=O)[n-]c1CCc1ccccc1)[N-]S(=O)(=O)c1cccc(Cl)c1Cl (3D coordinates assigned)
O=C(Cc1[nH]c(=O)[n-]c1CCc1ccccc1)[N-]S(=O)(=O)c1cccc(Cl)c1Cl (optimized conformer: 76.30841698787539 kcal/mol)

>  <smiles>  (69) 
O=C(Cc1[nH]c(=O)[nH]c1CCc1ccccc1)NS(=O)(=O)c1cccc(Cl)c1Cl

>  <score_type>  (69) 
oracle

>  <origin>  (69) 
adg

>  <m_score__min__energy>  (69) 
-12.69

>  <m_primary>  (69) 
energy

$$$$
69:0
     RDKit          3D

 60 63  0  0  0  0  0  0  0  0999 V2000
   59.6000   35.3220   45.6350 C   0  0  0  0  0  0  0  0  0  0  0  0
   58.8810   34.2720   46.2710 O   0  0  0  0  0  0  0  0  0  0  0  0
   59.3980   33.4680   47.2970 C   0  0  0  0  0  0  0  0  0  0  0  0
   60.7770   33.2400   47.4570 C   0  0  0  0  0  0  0  0  0  0  0  0
   61.2420   32.4230   48.4920 C   0  0  0  0  0  0  0  0  0  0  0  0
   60.3370   31.8170   49.3810 C   0  0  0  0  0  0  0  0  0  0  0  0
   60.7550   30.9770   50.4250 O   0  0  0  0  0  0  0  0  0  0  0  0
   61.5360   29.7990   50.2390 C   0  0  0  0  0  0  0  0  0  0  0  0
   60.7130   28.7580   49.5570 C   0  0  0  0  0  0  0  0  0  0  0  0
   60.2980   27.7630   50.2100 O   0  0  0  0  0  0  0  0  0  0  0  0
   60.3650   28.9180   48.1800 N   0  0  0  0  0  0  0  0  0  0  0  0
   58.9980   29.0880   47.7040 C   0  0  0  0  0  0  0  0  0  0  0  0
   58.9610   29.1060   46.2040 C   0  0  0  0  0  0  0  0  0  0  0  0
   59.9430   29.5720   45.5650 O   0  0  0  0  0  0  0  0  0  0  0  0
   57.8430   28.5540   45.4870 N   0  0  0  0  0  0  0  0  0  0  0  0
   57.8070   27.1540   45.1480 C   0  0  0  0  0  0  0  0  0  0  0  0
   58.1440   26.7860   43.9910 O   0  0  0  0  0  0  0  0  0  0  0  0
   57.4300   26.1120   46.1650 C   0  0  0  0  0  0  0  0  0  0  0  0
   56.5090   25.1340   45.5830 N   0  0  0  0  0  0  0  0  0  0  0  0
   55.1550   25.2230   45.5430 C   0  0  0  0  0  0  0  0  0  0  0  0
   54.4380   26.3260   45.9940 O   0  0  0  0  0  0  0  0  0  0  0  0
   54.5780   24.0750   45.0110 C   0  0  0  0  0  0  0  0  0  0  0  0
   55.6550   23.2600   44.7320 C   0  0  0  0  0  0  0  0  0  0  0  0
   55.6600   22.0050   44.2170 N   0  0  0  0  0  0  0  0  0  0  0  0
   56.8570   21.3680   44.0370 C   0  0  0  0  0  0  0  0  0  0  0  0
   58.0700   22.0070   44.3830 C   0  0  0  0  0  0  0  0  0  0  0  0
   58.0480   23.3070   44.9180 C   0  0  0  0  0  0  0  0  0  0  0  0
   56.8030   23.9150   45.0870 C   0  0  0  0  0  0  0  0  0  0  0  0
   56.8610   29.4560   44.9400 C   0  0  0  0  0  0  0  0  0  0  0  0
   55.6420   29.3050   45.2300 O   0  0  0  0  0  0  0  0  0  0  0  0
   57.2500   30.5770   44.0610 C   0  0  0  0  0  0  0  0  0  0  0  0
   57.9420   31.6770   44.5940 C   0  0  0  0  0  0  0  0  0  0  0  0
   58.3400   32.7290   43.7610 C   0  0  0  0  0  0  0  0  0  0  0  0
   58.0340   32.6940   42.3960 C   0  0  0  0  0  0  0  0  0  0  0  0
   57.3310   31.6100   41.8610 C   0  0  0  0  0  0  0  0  0  0  0  0
   56.9350   30.5530   42.6890 C   0  0  0  0  0  0  0  0  0  0  0  0
   56.2150   29.5310   42.1640 F   0  0  0  0  0  0  0  0  0  0  0  0
   58.9680   32.0540   49.2220 C   0  0  0  0  0  0  0  0  0  0  0  0
   58.5030   32.8730   48.1880 C   0  0  0  0  0  0  0  0  0  0  0  0
   60.0473   35.9752   46.3988 H   0  0  0  0  0  0  0  0  0  0  0  0
   60.3954   34.8939   45.0072 H   0  0  0  0  0  0  0  0  0  0  0  0
   58.9133   35.9088   45.0072 H   0  0  0  0  0  0  0  0  0  0  0  0
   61.4929   33.7068   46.7645 H   0  0  0  0  0  0  0  0  0  0  0  0
   62.3223   32.2534   48.6114 H   0  0  0  0  0  0  0  0  0  0  0  0
   62.4142   30.0354   49.6202 H   0  0  0  0  0  0  0  0  0  0  0  0
   61.8673   29.4210   51.2174 H   0  0  0  0  0  0  0  0  0  0  0  0
   58.3808   28.2548   48.0711 H   0  0  0  0  0  0  0  0  0  0  0  0
   58.6071   30.0448   48.0805 H   0  0  0  0  0  0  0  0  0  0  0  0
   58.3387   25.5945   46.5063 H   0  0  0  0  0  0  0  0  0  0  0  0
   56.9331   26.6068   47.0125 H   0  0  0  0  0  0  0  0  0  0  0  0
   53.5102   23.8655   44.8500 H   0  0  0  0  0  0  0  0  0  0  0  0
   56.8761   20.3504   43.6197 H   0  0  0  0  0  0  0  0  0  0  0  0
   59.0285   21.4883   44.2340 H   0  0  0  0  0  0  0  0  0  0  0  0
   58.9780   23.8260   45.1933 H   0  0  0  0  0  0  0  0  0  0  0  0
   58.1718   31.7118   45.6692 H   0  0  0  0  0  0  0  0  0  0  0  0
   58.8931   33.5829   44.1792 H   0  0  0  0  0  0  0  0  0  0  0  0
   58.3472   33.5213   41.7422 H   0  0  0  0  0  0  0  0  0  0  0  0
   57.0889   31.5879   40.7882 H   0  0  0  0  0  0  0  0  0  0  0  0
   58.2505   31.5922   49.9163 H   0  0  0  0  0  0  0  0  0  0  0  0
   57.4231   33.0498   48.0759 H   0  0  0  0  0  0  0  0  0  0  0  0
  1  2  1  0
  2  3  1  0
  3  4  2  0
  4  5  1  0
  5  6  2  0
  6  7  1  0
  7  8  1  0
  8  9  1  0
  9 10  2  0
  9 11  1  0
 11 12  1  0
 12 13  1  0
 13 14  2  0
 13 15  1  0
 15 16  1  0
 16 17  2  0
 16 18  1  0
 18 19  1  0
 19 20  1  0
 20 21  1  0
 20 22  2  0
 22 23  1  0
 23 24  2  0
 24 25  1  0
 25 26  2  0
 26 27  1  0
 27 28  2  0
 15 29  1  0
 29 30  2  0
 29 31  1  0
 31 32  2  0
 32 33  1  0
 33 34  2  0
 34 35  1  0
 35 36  2  0
 36 37  1  0
  6 38  1  0
 38 39  2  0
 39  3  1  0
 28 19  1  0
 36 31  1  0
 28 23  1  0
  1 40  1  0
  1 41  1  0
  1 42  1  0
  4 43  1  0
  5 44  1  0
  8 45  1  0
  8 46  1  0
 12 47  1  0
 12 48  1  0
 18 49  1  0
 18 50  1  0
 22 51  1  0
 25 52  1  0
 26 53  1  0
 27 54  1  0
 32 55  1  0
 33 56  1  0
 34 57  1  0
 35 58  1  0
 38 59  1  0
 39 60  1  0
M  CHG  2  11  -1  21  -1
M  END
>  <UniqueID>  (70) 
66

>  <SMILES>  (70) 
COc1ccc(OCC(=O)[N-]CC(=O)N(C(=O)Cn2c([O-])cc3ncccc32)C(=O)c2ccccc2F)cc1

>  <Energy>  (70) 
107.98249076297951

>  <Genealogy>  (70) 
COc1ccc(OCC(=O)[N-]CC(=O)N(C(=O)Cn2c([O-])cc3ncccc32)C(=O)c2ccccc2F)cc1 (protonated)
COc1ccc(OCC(=O)[N-]CC(=O)N(C(=O)Cn2c([O-])cc3ncccc32)C(=O)c2ccccc2F)cc1 (3D coordinates assigned)
COc1ccc(OCC(=O)[N-]CC(=O)N(C(=O)Cn2c([O-])cc3ncccc32)C(=O)c2ccccc2F)cc1 (optimized conformer: 107.98249076297951 kcal/mol)

>  <smiles>  (70) 
COc1ccc(OCC(=O)NCC(=O)N(C(=O)Cn2c(O)cc3ncccc32)C(=O)c2ccccc2F)cc1

>  <score_type>  (70) 
oracle

>  <origin>  (70) 
adg

>  <m_score__min__energy>  (70) 
-13.710000000000001

>  <m_primary>  (70) 
energy

$$$$
70:0
     RDKit          3D

 38 40  0  0  0  0  0  0  0  0999 V2000
   58.5450   28.0250   47.0400 O   0  0  0  0  0  0  0  0  0  0  0  0
   58.1810   27.5150   45.9450 C   0  0  0  0  0  0  0  0  0  0  0  0
   58.1530   26.0270   45.7990 C   0  0  0  0  0  0  0  0  0  0  0  0
   56.7290   25.5440   45.7040 C   0  0  0  0  0  0  0  0  0  0  0  0
   55.6720   26.3840   46.0800 C   0  0  0  0  0  0  0  0  0  0  0  0
   54.3870   25.9570   45.9640 N   0  0  0  0  0  0  0  0  0  0  0  0
   54.1020   24.7220   45.4790 C   0  0  0  0  0  0  0  0  0  0  0  0
   52.9050   24.3460   45.3810 O   0  0  0  0  0  0  0  0  0  0  0  0
   55.1070   23.8940   45.0940 N   0  0  0  0  0  0  0  0  0  0  0  0
   56.4070   24.2750   45.1900 C   0  0  0  0  0  0  0  0  0  0  0  0
   57.3120   23.4830   44.8150 O   0  0  0  0  0  0  0  0  0  0  0  0
   57.7470   28.3370   44.8500 N   0  0  0  0  0  0  0  0  0  0  0  0
   57.4960   29.6120   44.9030 C   0  0  0  0  0  0  0  0  0  0  0  0
   56.2720   30.1600   44.7340 N   0  0  0  0  0  0  0  0  0  0  0  0
   56.2800   31.4870   44.8350 N   0  0  0  0  0  0  0  0  0  0  0  0
   57.5090   31.9910   45.0800 C   0  0  0  0  0  0  0  0  0  0  0  0
   57.8320   33.7010   45.2950 S   0  0  0  0  0  0  0  0  0  0  0  0
   59.0090   34.0710   44.4350 O   0  0  0  0  0  0  0  0  0  0  0  0
   56.6370   34.4870   44.8340 O   0  0  0  0  0  0  0  0  0  0  0  0
   58.2010   34.0540   46.9730 N   0  0  0  0  0  0  0  0  0  0  0  0
   59.3660   34.9530   47.1000 C   0  0  0  0  0  0  0  0  0  0  0  0
   60.7000   34.2330   46.7840 C   0  0  0  0  0  0  0  0  0  0  0  0
   60.6090   32.8200   46.8410 O   0  0  0  0  0  0  0  0  0  0  0  0
   59.8480   32.4230   47.9580 C   0  0  0  0  0  0  0  0  0  0  0  0
   58.3690   32.8110   47.7670 C   0  0  0  0  0  0  0  0  0  0  0  0
   58.6730   30.7790   45.1930 S   0  0  0  0  0  0  0  0  0  0  0  0
   58.6963   25.7405   44.8864 H   0  0  0  0  0  0  0  0  0  0  0  0
   58.6311   25.5694   46.6777 H   0  0  0  0  0  0  0  0  0  0  0  0
   55.8829   27.3908   46.4697 H   0  0  0  0  0  0  0  0  0  0  0  0
   57.3680   34.5660   47.3480 H   0  0  0  0  0  0  0  0  0  0  0  0
   59.2428   35.7929   46.4004 H   0  0  0  0  0  0  0  0  0  0  0  0
   59.4102   35.3020   48.1422 H   0  0  0  0  0  0  0  0  0  0  0  0
   61.0190   34.5204   45.7713 H   0  0  0  0  0  0  0  0  0  0  0  0
   61.4232   34.5411   47.5534 H   0  0  0  0  0  0  0  0  0  0  0  0
   59.9237   31.3323   48.0788 H   0  0  0  0  0  0  0  0  0  0  0  0
   60.2369   32.9308   48.8529 H   0  0  0  0  0  0  0  0  0  0  0  0
   57.8538   31.9894   47.2478 H   0  0  0  0  0  0  0  0  0  0  0  0
   57.9418   32.9933   48.7641 H   0  0  0  0  0  0  0  0  0  0  0  0
  1  2  2  0
  2  3  1  0
  3  4  1  0
  4  5  2  0
  5  6  1  0
  6  7  1  0
  7  8  2  0
  7  9  1  0
  9 10  1  0
 10 11  2  0
  2 12  1  0
 12 13  2  3
 13 14  1  0
 14 15  1  0
 15 16  2  0
 16 17  1  0
 17 18  2  0
 17 19  2  0
 17 20  1  0
 20 21  1  0
 21 22  1  0
 22 23  1  0
 23 24  1  0
 24 25  1  0
 16 26  1  0
 10  4  1  0
 26 13  1  0
 25 20  1  0
  3 27  1  0
  3 28  1  0
  5 29  1  0
 20 30  1  0
 21 31  1  0
 21 32  1  0
 22 33  1  0
 22 34  1  0
 24 35  1  0
 24 36  1  0
 25 37  1  0
 25 38  1  0
M  CHG  4   6  -1   9  -1  14  -1  20   1
M  END
>  <UniqueID>  (71) 
67

>  <SMILES>  (71) 
O=C(Cc1c[n-]c(=O)[n-]c1=O)N=c1[n-]nc(S(=O)(=O)[NH+]2CCOCC2)s1

>  <Energy>  (71) 
86.3860761328765

>  <Genealogy>  (71) 
O=C(Cc1c[n-]c(=O)[n-]c1=O)N=c1[n-]nc(S(=O)(=O)[NH+]2CCOCC2)s1 (protonated)
O=C(Cc1c[n-]c(=O)[n-]c1=O)N=c1[n-]nc(S(=O)(=O)[NH+]2CCOCC2)s1 (3D coordinates assigned)
O=C(Cc1c[n-]c(=O)[n-]c1=O)N=c1[n-]nc(S(=O)(=O)[NH+]2CCOCC2)s1 (nonaromatic ring conformer: 86.3860761328765 kcal/mol)

>  <smiles>  (71) 
O=C(Cc1c[nH]c(=O)[nH]c1=O)N=c1[nH]nc(S(=O)(=O)N2CCOCC2)s1

>  <score_type>  (71) 
oracle

>  <origin>  (71) 
adg

>  <m_score__min__energy>  (71) 
-12.24

>  <m_primary>  (71) 
energy

$$$$
71:0
     RDKit          3D

 56 59  0  0  1  0  0  0  0  0999 V2000
   51.7990   22.1190   47.5430 C   0  0  0  0  0  0  0  0  0  0  0  0
   52.4900   22.6750   46.3470 C   0  0  0  0  0  0  0  0  0  0  0  0
   53.8510   22.7400   46.3070 C   0  0  0  0  0  0  0  0  0  0  0  0
   54.5590   23.2390   45.2380 C   0  0  0  0  0  0  0  0  0  0  0  0
   55.8290   23.2610   45.2880 N   0  0  0  0  0  0  0  0  0  0  0  0
   56.8920   23.9800   44.1680 S   0  0  0  0  0  0  0  0  0  0  0  0
   56.4280   23.9130   42.7410 O   0  0  0  0  0  0  0  0  0  0  0  0
   58.1530   23.1120   44.1900 O   0  0  0  0  0  0  0  0  0  0  0  0
   57.4190   25.5840   44.6320 C   0  0  0  0  0  0  0  0  0  0  0  0
   57.3630   26.0540   45.9220 C   0  0  0  0  0  0  0  0  0  0  0  0
   57.8060   27.3480   46.2340 C   0  0  0  0  0  0  0  0  0  0  0  0
   58.3090   28.2010   45.2940 C   0  0  0  0  0  0  0  0  0  0  0  0
   58.7750   29.5140   45.5190 N   0  0  0  0  0  0  0  0  0  0  0  0
   58.0850   30.7170   45.3430 C   0  0  0  0  0  0  0  0  0  0  0  0
   56.8810   30.6380   44.9280 O   0  0  0  0  0  0  0  0  0  0  0  0
   58.5750   32.0590   45.5750 C   0  0  0  0  0  0  0  0  0  0  0  0
   58.0750   33.2040   45.0090 C   0  0  0  0  0  0  0  0  0  0  0  0
   57.0190   33.1960   44.1310 O   0  0  0  0  0  0  0  0  0  0  0  0
   58.6100   34.4250   45.2940 N   0  0  0  0  0  0  0  0  0  0  0  0
   59.6440   34.5730   46.1340 C   0  0  0  0  0  0  0  0  0  0  0  0
   60.0880   35.7270   46.3520 O   0  0  0  0  0  0  0  0  0  0  0  0
   60.1530   33.4730   46.7030 N   0  0  0  0  0  0  0  0  0  0  0  0
   61.2510   33.6350   47.5960 C   0  0  0  0  0  0  0  0  0  0  0  0
   61.1020   34.0530   48.8990 C   0  0  0  0  0  0  0  0  0  0  0  0
   62.2430   34.1780   49.6910 C   0  0  0  0  0  0  0  0  0  0  0  0
   63.4960   33.8870   49.1660 C   0  0  0  0  0  0  0  0  0  0  0  0
   63.6360   33.4660   47.8550 C   0  0  0  0  0  0  0  0  0  0  0  0
   62.5100   33.3440   47.0770 C   0  0  0  0  0  0  0  0  0  0  0  0
   59.6570   32.2580   46.4490 C   0  0  0  0  0  0  0  0  0  0  0  0
   60.2090   31.2860   47.0370 O   0  0  0  0  0  0  0  0  0  0  0  0
   58.3550   27.6960   43.9860 C   0  0  0  0  0  0  0  0  0  0  0  0
   57.9220   26.4280   43.6740 C   0  0  0  0  0  0  0  0  0  0  0  0
   53.8340   23.6820   44.1830 N   0  0  0  0  0  0  0  0  0  0  0  0
   52.4800   23.6290   44.1980 C   0  0  0  0  0  0  0  0  0  0  0  0
   51.6540   24.1060   43.0610 C   0  0  0  0  0  0  0  0  0  0  0  0
   51.8120   23.1320   45.2650 N   0  0  0  0  0  0  0  0  0  0  0  0
   52.2779   22.5043   48.4553 H   0  0  0  0  0  0  0  0  0  0  0  0
   50.7413   22.4207   47.5286 H   0  0  0  0  0  0  0  0  0  0  0  0
   51.8674   21.0212   47.5286 H   0  0  0  0  0  0  0  0  0  0  0  0
   54.4145   22.3732   47.1776 H   0  0  0  0  0  0  0  0  0  0  0  0
   56.9663   25.4082   46.7192 H   0  0  0  0  0  0  0  0  0  0  0  0
   57.7457   27.6892   47.2780 H   0  0  0  0  0  0  0  0  0  0  0  0
   59.7740   29.5890   45.8630 H   0  0  0  0  0  0  0  0  0  0  0  0
   56.6630   32.3670   43.6690 H   0  0  0  0  0  0  0  0  0  0  0  0
   58.2140   35.2930   44.8490 H   0  0  0  0  0  0  0  0  0  0  0  0
   60.1063   34.2830   49.3060 H   0  0  0  0  0  0  0  0  0  0  0  0
   62.1505   34.5085   50.7361 H   0  0  0  0  0  0  0  0  0  0  0  0
   64.3883   33.9926   49.8005 H   0  0  0  0  0  0  0  0  0  0  0  0
   64.6294   33.2336   47.4438 H   0  0  0  0  0  0  0  0  0  0  0  0
   62.6042   33.0127   46.0323 H   0  0  0  0  0  0  0  0  0  0  0  0
   58.7505   28.3353   43.1830 H   0  0  0  0  0  0  0  0  0  0  0  0
   57.9804   26.0823   42.6314 H   0  0  0  0  0  0  0  0  0  0  0  0
   54.3280   24.0680   43.3550 H   0  0  0  0  0  0  0  0  0  0  0  0
   50.7619   24.6212   43.4466 H   0  0  0  0  0  0  0  0  0  0  0  0
   52.2431   24.8030   42.4468 H   0  0  0  0  0  0  0  0  0  0  0  0
   51.3448   23.2474   42.4468 H   0  0  0  0  0  0  0  0  0  0  0  0
  1  2  1  0
  2  3  2  0
  3  4  1  0
  4  5  2  0
  5  6  1  0
  6  7  2  0
  6  8  2  0
  6  9  1  0
  9 10  2  0
 10 11  1  0
 11 12  2  0
 12 13  1  0
 13 14  1  0
 14 15  2  0
 14 16  1  0
 16 17  2  0
 17 18  1  0
 17 19  1  0
 19 20  1  0
 20 21  2  0
 20 22  1  0
 22 23  1  0
 23 24  2  0
 24 25  1  0
 25 26  2  0
 26 27  1  0
 27 28  2  0
 22 29  1  0
 29 30  2  0
 12 31  1  0
 31 32  2  0
  4 33  1  0
 33 34  1  0
 34 35  1  0
 34 36  2  0
 36  2  1  0
 32  9  1  0
 29 16  1  0
 28 23  1  0
  1 37  1  0
  1 38  1  0
  1 39  1  0
  3 40  1  0
 10 41  1  0
 11 42  1  0
 13 43  1  0
 18 44  1  0
 19 45  1  0
 24 46  1  0
 25 47  1  0
 26 48  1  0
 27 49  1  0
 28 50  1  0
 31 51  1  0
 32 52  1  0
 33 53  1  0
 35 54  1  0
 35 55  1  0
 35 56  1  0
M  END
>  <smiles>  (72) 
Cc1cc(=NS(=O)(=O)c2ccc(NC(=O)c3c(O)[nH]c(=O)n(-c4ccccc4)c3=O)cc2)[nH]c(C)n1

>  <score_type>  (72) 
oracle

>  <origin>  (72) 
adg

>  <m_score__min__energy>  (72) 
-9.3399999999999999

>  <m_primary>  (72) 
energy

$$$$
72:0
     RDKit          3D

 55 57  0  0  0  0  0  0  0  0999 V2000
   63.7240   32.7420   47.3390 C   0  0  0  0  0  0  0  0  0  0  0  0
   62.5100   33.0630   47.8110 C   0  0  0  0  0  0  0  0  0  0  0  0
   61.5260   33.7530   46.9080 C   0  0  0  0  0  0  0  0  0  0  0  0
   62.1300   32.7550   49.2400 C   0  0  0  0  0  0  0  0  0  0  0  0
   62.2240   31.2770   49.5110 C   0  0  0  0  0  0  0  0  0  0  0  0
   63.1870   30.8650   50.2150 O   0  0  0  0  0  0  0  0  0  0  0  0
   61.2100   30.3030   49.0210 C   0  0  0  0  0  0  0  0  0  0  0  0
   60.8930   29.1390   49.7430 C   0  0  0  0  0  0  0  0  0  0  0  0
   59.9320   28.2460   49.2700 C   0  0  0  0  0  0  0  0  0  0  0  0
   59.2580   28.4940   48.0650 C   0  0  0  0  0  0  0  0  0  0  0  0
   58.2670   27.5680   47.5860 N   0  0  0  0  0  0  0  0  0  0  0  0
   58.5680   26.4860   46.6900 C   0  0  0  0  0  0  0  0  0  0  0  0
   59.7550   26.2790   46.3150 O   0  0  0  0  0  0  0  0  0  0  0  0
   57.5030   25.5880   46.2230 C   0  0  0  0  0  0  0  0  0  0  0  0
   57.6890   24.6790   45.2420 N   0  0  0  0  0  0  0  0  0  0  0  0
   56.4880   24.0870   45.1390 C   0  0  0  0  0  0  0  0  0  0  0  0
   56.1920   23.0250   44.2210 C   0  0  0  0  0  0  0  0  0  0  0  0
   55.9510   22.1710   43.4780 N   0  0  0  0  0  0  0  0  0  0  0  0
   55.6120   24.6360   46.0400 C   0  0  0  0  0  0  0  0  0  0  0  0
   56.2500   25.5950   46.7320 N   0  0  0  0  0  0  0  0  0  0  0  0
   59.5850   29.6450   47.3190 C   0  0  0  0  0  0  0  0  0  0  0  0
   58.8880   29.9580   46.0570 C   0  0  0  0  0  0  0  0  0  0  0  0
   58.8570   29.0390   45.0770 C   0  0  0  0  0  0  0  0  0  0  0  0
   58.1800   29.2770   43.7560 C   0  0  0  0  0  0  0  0  0  0  0  0
   57.0520   30.3330   43.8360 C   0  0  0  0  0  0  0  0  0  0  0  0
   55.8180   29.7530   44.5660 C   0  0  0  0  0  0  0  0  0  0  0  0
   56.6290   30.7330   42.4070 C   0  0  0  0  0  0  0  0  0  0  0  0
   57.5960   31.5800   44.5700 C   0  0  0  0  0  0  0  0  0  0  0  0
   58.1110   31.2520   45.9800 C   0  0  0  0  0  0  0  0  0  0  0  0
   60.5430   30.5450   47.8060 C   0  0  0  0  0  0  0  0  0  0  0  0
   64.4518   32.2369   47.9911 H   0  0  0  0  0  0  0  0  0  0  0  0
   63.9917   32.9839   46.2998 H   0  0  0  0  0  0  0  0  0  0  0  0
   60.7759   34.2790   47.5169 H   0  0  0  0  0  0  0  0  0  0  0  0
   62.0567   34.4778   46.2732 H   0  0  0  0  0  0  0  0  0  0  0  0
   61.0254   33.0071   46.2732 H   0  0  0  0  0  0  0  0  0  0  0  0
   62.8114   33.2901   49.9178 H   0  0  0  0  0  0  0  0  0  0  0  0
   61.0921   33.0789   49.4067 H   0  0  0  0  0  0  0  0  0  0  0  0
   61.4089   28.9303   50.6918 H   0  0  0  0  0  0  0  0  0  0  0  0
   59.7003   27.3387   49.8472 H   0  0  0  0  0  0  0  0  0  0  0  0
   57.3040   27.6240   47.9860 H   0  0  0  0  0  0  0  0  0  0  0  0
   54.5610   24.3403   46.1741 H   0  0  0  0  0  0  0  0  0  0  0  0
   59.3486   28.0701   45.2490 H   0  0  0  0  0  0  0  0  0  0  0  0
   58.9336   29.6232   43.0333 H   0  0  0  0  0  0  0  0  0  0  0  0
   57.7199   28.3271   43.4464 H   0  0  0  0  0  0  0  0  0  0  0  0
   55.9685   29.8237   45.6534 H   0  0  0  0  0  0  0  0  0  0  0  0
   54.9219   30.3242   44.2819 H   0  0  0  0  0  0  0  0  0  0  0  0
   55.6860   28.6985   44.2819 H   0  0  0  0  0  0  0  0  0  0  0  0
   55.8306   31.4880   42.4587 H   0  0  0  0  0  0  0  0  0  0  0  0
   57.4945   31.1507   41.8718 H   0  0  0  0  0  0  0  0  0  0  0  0
   56.2603   29.8455   41.8718 H   0  0  0  0  0  0  0  0  0  0  0  0
   58.4233   32.0034   43.9815 H   0  0  0  0  0  0  0  0  0  0  0  0
   56.7673   32.2959   44.6739 H   0  0  0  0  0  0  0  0  0  0  0  0
   58.7671   32.0712   46.3094 H   0  0  0  0  0  0  0  0  0  0  0  0
   57.2282   31.1359   46.6259 H   0  0  0  0  0  0  0  0  0  0  0  0
   60.7765   31.4528   47.2304 H   0  0  0  0  0  0  0  0  0  0  0  0
  1  2  2  0
  2  3  1  0
  2  4  1  0
  4  5  1  0
  5  6  2  0
  5  7  1  0
  7  8  2  0
  8  9  1  0
  9 10  2  0
 10 11  1  0
 11 12  1  0
 12 13  2  0
 12 14  1  0
 14 15  2  0
 15 16  1  0
 16 17  1  0
 17 18  3  0
 16 19  2  0
 19 20  1  0
 10 21  1  0
 21 22  1  0
 22 23  2  0
 23 24  1  0
 24 25  1  0
 25 26  1  0
 25 27  1  0
 25 28  1  0
 28 29  1  0
 21 30  2  0
 30  7  1  0
 20 14  1  0
 29 22  1  0
  1 31  1  0
  1 32  1  0
  3 33  1  0
  3 34  1  0
  3 35  1  0
  4 36  1  0
  4 37  1  0
  8 38  1  0
  9 39  1  0
 11 40  1  0
 19 41  1  0
 23 42  1  0
 24 43  1  0
 24 44  1  0
 26 45  1  0
 26 46  1  0
 26 47  1  0
 27 48  1  0
 27 49  1  0
 27 50  1  0
 28 51  1  0
 28 52  1  0
 29 53  1  0
 29 54  1  0
 30 55  1  0
M  CHG  1  20  -1
M  END
>  <UniqueID>  (73) 
68

>  <SMILES>  (73) 
C=C(C)CC(=O)c1ccc(NC(=O)c2nc(C#N)c[n-]2)c(C2=CCC(C)(C)CC2)c1

>  <Energy>  (73) 
87.43142243014168

>  <Genealogy>  (73) 
C=C(C)CC(=O)c1ccc(NC(=O)c2nc(C#N)c[n-]2)c(C2=CCC(C)(C)CC2)c1 (protonated)
C=C(C)CC(=O)c1ccc(NC(=O)c2nc(C#N)c[n-]2)c(C2=CCC(C)(C)CC2)c1 (3D coordinates assigned)
C=C(C)CC(=O)c1ccc(NC(=O)c2nc(C#N)c[n-]2)c(C2=CCC(C)(C)CC2)c1 (nonaromatic ring conformer: 87.43142243014168 kcal/mol)

>  <smiles>  (73) 
C=C(C)CC(=O)c1ccc(NC(=O)c2nc(C#N)c[nH]2)c(C2=CCC(C)(C)CC2)c1

>  <score_type>  (73) 
oracle

>  <origin>  (73) 
adg

>  <m_score__min__energy>  (73) 
-10.199999999999999

>  <m_primary>  (73) 
energy

$$$$
73:0
     RDKit          3D

 35 37  0  0  0  0  0  0  0  0999 V2000
   57.0180   30.8710   46.5250 H   0  0  0  0  0  0  0  0  0  0  0  0
   57.7940   31.1730   47.0990 O   0  0  0  0  0  0  0  0  0  0  0  0
   58.5140   32.3420   46.8450 C   0  0  0  0  0  0  0  0  0  0  0  0
   58.9800   33.0880   47.9340 C   0  0  0  0  0  0  0  0  0  0  0  0
   58.7434   32.7648   48.9585 H   0  0  0  0  0  0  0  0  0  0  0  0
   59.7440   34.2410   47.7290 C   0  0  0  0  0  0  0  0  0  0  0  0
   60.2040   34.9730   48.8160 O   0  0  0  0  0  0  0  0  0  0  0  0
   60.0500   34.6530   46.4300 C   0  0  0  0  0  0  0  0  0  0  0  0
   60.6587   35.5550   46.2689 H   0  0  0  0  0  0  0  0  0  0  0  0
   59.5840   33.9210   45.3350 C   0  0  0  0  0  0  0  0  0  0  0  0
   59.8358   34.2446   44.3143 H   0  0  0  0  0  0  0  0  0  0  0  0
   58.7970   32.7760   45.5290 C   0  0  0  0  0  0  0  0  0  0  0  0
   58.3120   32.0470   44.3410 C   0  0  0  0  0  0  0  0  0  0  0  0
   58.2175   32.5949   43.3918 H   0  0  0  0  0  0  0  0  0  0  0  0
   57.9810   30.7470   44.3650 C   0  0  0  0  0  0  0  0  0  0  0  0
   59.2190   29.4470   44.2170 S   0  0  0  0  0  0  0  0  0  0  0  0
   58.7630   28.7920   45.8150 C   0  0  0  0  0  0  0  0  0  0  0  0
   59.6020   28.9070   46.8460 C   0  0  0  0  0  0  0  0  0  0  0  0
   59.3221   28.5040   47.8305 H   0  0  0  0  0  0  0  0  0  0  0  0
   60.5736   29.4049   46.7115 H   0  0  0  0  0  0  0  0  0  0  0  0
   57.3630   28.3280   45.9650 C   0  0  0  0  0  0  0  0  0  0  0  0
   57.0090   27.2330   46.6600 C   0  0  0  0  0  0  0  0  0  0  0  0
   56.8822   27.3388   47.7475 H   0  0  0  0  0  0  0  0  0  0  0  0
   56.7770   25.8940   46.0690 C   0  0  0  0  0  0  0  0  0  0  0  0
   55.4740   25.4900   45.7420 C   0  0  0  0  0  0  0  0  0  0  0  0
   54.3900   26.3230   45.9920 O   0  0  0  0  0  0  0  0  0  0  0  0
   55.2610   24.2700   45.1860 N   0  0  0  0  0  0  0  0  0  0  0  0
   56.2930   23.4290   44.9230 C   0  0  0  0  0  0  0  0  0  0  0  0
   56.0040   21.9670   44.2580 S   0  0  0  0  0  0  0  0  0  0  0  0
   57.5660   23.8070   45.2020 N   0  0  0  0  0  0  0  0  0  0  0  0
   57.8330   25.0180   45.7580 C   0  0  0  0  0  0  0  0  0  0  0  0
   59.0310   25.3470   45.9680 O   0  0  0  0  0  0  0  0  0  0  0  0
   56.3290   29.1070   45.3440 N   0  0  0  0  0  0  0  0  0  0  0  0
   56.5890   30.3250   44.6300 C   0  0  0  0  0  0  0  0  0  0  0  0
   55.6220   31.0390   44.2540 O   0  0  0  0  0  0  0  0  0  0  0  0
  1  2  1  0
  2  3  1  0
  3  4  2  0
  4  5  1  0
  4  6  1  0
  6  7  1  0
  6  8  2  0
  8  9  1  0
  8 10  1  0
 10 11  1  0
 10 12  2  0
 12 13  1  0
 13 14  1  0
 13 15  2  3
 15 16  1  0
 16 17  1  0
 17 18  2  0
 18 19  1  0
 18 20  1  0
 17 21  1  0
 21 22  2  0
 22 23  1  0
 22 24  1  0
 24 25  2  0
 25 26  1  0
 25 27  1  0
 27 28  1  0
 28 29  2  0
 28 30  1  0
 30 31  1  0
 31 32  2  0
 21 33  1  0
 33 34  1  0
 34 35  2  0
 12  3  1  0
 34 15  1  0
 31 24  1  0
M  CHG  5   7  -1  26  -1  27  -1  30  -1  33  -1
M  END
>  <UniqueID>  (74) 
69

>  <SMILES>  (74) 
C=C1SC(=Cc2ccc([O-])cc2O)C(=O)[N-]/C1=C/c1c([O-])[n-]c(=S)[n-]c1=O

>  <Energy>  (74) 
62.34717864228015

>  <Genealogy>  (74) 
C=C1SC(=Cc2ccc([O-])cc2O)C(=O)[N-]C1=Cc1c([O-])[n-]c(=S)[n-]c1=O (protonated)
C=C1SC(=Cc2ccc([O-])cc2O)C(=O)[N-]/C1=C/c1c([O-])[n-]c(=S)[n-]c1=O (cis-trans isomerization)
C=C1SC(=Cc2ccc([O-])cc2O)C(=O)[N-]/C1=C/c1c([O-])[n-]c(=S)[n-]c1=O (3D coordinates assigned)
C=C1SC(=Cc2ccc([O-])cc2O)C(=O)[N-]/C1=C/c1c([O-])[n-]c(=S)[n-]c1=O (nonaromatic ring conformer: 62.34717864228015 kcal/mol)

>  <smiles>  (74) 
C=C1SC(=Cc2ccc(O)cc2O)C(=O)NC1=Cc1c(O)[nH]c(=S)[nH]c1=O

>  <score_type>  (74) 
oracle

>  <origin>  (74) 
adg

>  <m_score__min__energy>  (74) 
-17.030000000000001

>  <m_primary>  (74) 
energy

$$$$
74:0
     RDKit          3D

 57 61  0  0  0  0  0  0  0  0999 V2000
   54.7710   28.8910   45.3270 H   0  0  0  0  0  0  0  0  0  0  0  0
   55.6830   28.4590   45.2370 O   0  0  0  0  0  0  0  0  0  0  0  0
   55.8840   27.1390   45.6300 C   0  0  0  0  0  0  0  0  0  0  0  0
   54.8900   26.2780   45.9040 N   0  0  0  0  0  0  0  0  0  0  0  0
   55.5560   25.1670   46.2830 C   0  0  0  0  0  0  0  0  0  0  0  0
   54.9690   24.1110   46.6330 O   0  0  0  0  0  0  0  0  0  0  0  0
   56.9020   25.2800   46.2680 N   0  0  0  0  0  0  0  0  0  0  0  0
   57.1040   26.5320   45.8210 C   0  0  0  0  0  0  0  0  0  0  0  0
   58.4300   27.1650   45.7490 C   0  0  0  0  0  0  0  0  0  0  0  0
   59.1493   26.7409   45.0330 H   0  0  0  0  0  0  0  0  0  0  0  0
   58.8420   28.2180   46.4820 C   0  0  0  0  0  0  0  0  0  0  0  0
   58.6850   28.2760   47.8540 C   0  0  0  0  0  0  0  0  0  0  0  0
   58.2740   27.4850   48.4985 H   0  0  0  0  0  0  0  0  0  0  0  0
   59.1400   29.5110   48.2630 C   0  0  0  0  0  0  0  0  0  0  0  0
   59.1220   29.9710   49.6700 C   0  0  0  0  0  0  0  0  0  0  0  0
   58.0860   29.8020   50.3670 O   0  0  0  0  0  0  0  0  0  0  0  0
   60.2480   30.6650   50.2380 N   0  0  0  0  0  0  0  0  0  0  0  0
   61.6190   30.1940   50.0110 C   0  0  0  0  0  0  0  0  0  0  0  0
   61.9796   29.6747   50.9112 H   0  0  0  0  0  0  0  0  0  0  0  0
   61.6267   29.5042   49.1542 H   0  0  0  0  0  0  0  0  0  0  0  0
   62.5390   31.3840   49.7080 C   0  0  0  0  0  0  0  0  0  0  0  0
   63.5822   31.0647   49.8484 H   0  0  0  0  0  0  0  0  0  0  0  0
   62.3403   31.6972   48.6724 H   0  0  0  0  0  0  0  0  0  0  0  0
   62.2820   32.5540   50.5810 N   0  0  0  0  0  0  0  0  0  0  0  0
   62.3530   33.8660   49.8940 C   0  0  0  0  0  0  0  0  0  0  0  0
   62.7829   34.3790   50.7669 H   0  0  0  0  0  0  0  0  0  0  0  0
   62.6230   33.7780   48.3950 C   0  0  0  0  0  0  0  0  0  0  0  0
   63.3124   34.4907   47.9188 H   0  0  0  0  0  0  0  0  0  0  0  0
   62.9693   32.9859   47.7148 H   0  0  0  0  0  0  0  0  0  0  0  0
   61.2670   34.2490   48.8850 C   0  0  0  0  0  0  0  0  0  0  0  0
   60.9747   35.3027   48.7653 H   0  0  0  0  0  0  0  0  0  0  0  0
   60.2262   33.9399   48.7083 H   0  0  0  0  0  0  0  0  0  0  0  0
   61.3300   32.3590   51.6940 C   0  0  0  0  0  0  0  0  0  0  0  0
   61.7849   31.6903   52.4395 H   0  0  0  0  0  0  0  0  0  0  0  0
   61.1074   33.3432   52.1321 H   0  0  0  0  0  0  0  0  0  0  0  0
   60.0100   31.7400   51.2090 C   0  0  0  0  0  0  0  0  0  0  0  0
   59.4688   31.3281   52.0736 H   0  0  0  0  0  0  0  0  0  0  0  0
   59.4187   32.5264   50.7172 H   0  0  0  0  0  0  0  0  0  0  0  0
   59.6110   30.2150   47.2040 N   0  0  0  0  0  0  0  0  0  0  0  0
   60.1530   31.5860   47.2550 C   0  0  0  0  0  0  0  0  0  0  0  0
   60.1863   31.9160   48.3038 H   0  0  0  0  0  0  0  0  0  0  0  0
   61.1592   31.5706   46.8109 H   0  0  0  0  0  0  0  0  0  0  0  0
   59.3080   32.5580   46.4640 C   0  0  0  0  0  0  0  0  0  0  0  0
   57.9200   32.3760   46.3140 C   0  0  0  0  0  0  0  0  0  0  0  0
   57.4335   31.4938   46.7556 H   0  0  0  0  0  0  0  0  0  0  0  0
   57.1560   33.3100   45.6070 C   0  0  0  0  0  0  0  0  0  0  0  0
   56.0738   33.1547   45.4860 H   0  0  0  0  0  0  0  0  0  0  0  0
   57.7640   34.4400   45.0540 C   0  0  0  0  0  0  0  0  0  0  0  0
   57.1624   35.1702   44.4928 H   0  0  0  0  0  0  0  0  0  0  0  0
   59.1370   34.6410   45.2150 C   0  0  0  0  0  0  0  0  0  0  0  0
   59.6151   35.5332   44.7844 H   0  0  0  0  0  0  0  0  0  0  0  0
   59.9050   33.7110   45.9220 C   0  0  0  0  0  0  0  0  0  0  0  0
   60.9834   33.8819   46.0554 H   0  0  0  0  0  0  0  0  0  0  0  0
   59.4640   29.4200   46.1080 C   0  0  0  0  0  0  0  0  0  0  0  0
   59.9740   29.7140   44.9000 C   0  0  0  0  0  0  0  0  0  0  0  0
   60.4402   30.6946   44.7236 H   0  0  0  0  0  0  0  0  0  0  0  0
   59.9253   28.9741   44.0875 H   0  0  0  0  0  0  0  0  0  0  0  0
  1  2  1  0
  2  3  1  0
  3  4  1  0
  4  5  1  0
  5  6  2  0
  5  7  1  0
  7  8  1  0
  8  9  1  0
  9 10  1  0
  9 11  2  0
 11 12  1  0
 12 13  1  0
 12 14  2  0
 14 15  1  0
 15 16  2  0
 15 17  1  0
 17 18  1  0
 18 19  1  0
 18 20  1  0
 18 21  1  0
 21 22  1  0
 21 23  1  0
 21 24  1  0
 24 25  1  0
 25 26  1  0
 25 27  1  0
 27 28  1  0
 27 29  1  0
 27 30  1  0
 30 31  1  0
 30 32  1  0
 24 33  1  0
 33 34  1  0
 33 35  1  0
 33 36  1  0
 36 37  1  0
 36 38  1  0
 14 39  1  0
 39 40  1  0
 40 41  1  0
 40 42  1  0
 40 43  1  0
 43 44  2  0
 44 45  1  0
 44 46  1  0
 46 47  1  0
 46 48  2  0
 48 49  1  0
 48 50  1  0
 50 51  1  0
 50 52  2  0
 52 53  1  0
 39 54  1  0
 54 55  2  0
 55 56  1  0
 55 57  1  0
  8  3  2  0
 54 11  1  0
 36 17  1  0
 52 43  1  0
 30 25  1  0
M  CHG  2   4  -1   7  -1
M  END
>  <UniqueID>  (75) 
70

>  <SMILES>  (75) 
C=c1/c(=C\c2[n-]c(=O)[n-]c2O)cc(C(=O)N2CCN(C3CC3)CC2)n1Cc1ccccc1

>  <Energy>  (75) 
418.26833244155637

>  <Genealogy>  (75) 
C=c1c(=Cc2[n-]c(=O)[n-]c2O)cc(C(=O)N2CCN(C3CC3)CC2)n1Cc1ccccc1 (protonated)
C=c1/c(=C\c2[n-]c(=O)[n-]c2O)cc(C(=O)N2CCN(C3CC3)CC2)n1Cc1ccccc1 (cis-trans isomerization)
C=c1/c(=C\c2[n-]c(=O)[n-]c2O)cc(C(=O)N2CCN(C3CC3)CC2)n1Cc1ccccc1 (3D coordinates assigned)
C=c1/c(=C\c2[n-]c(=O)[n-]c2O)cc(C(=O)N2CCN(C3CC3)CC2)n1Cc1ccccc1 (nonaromatic ring conformer: 418.26833244155637 kcal/mol)

>  <smiles>  (75) 
C=c1c(=Cc2[nH]c(=O)[nH]c2O)cc(C(=O)N2CCN(C3CC3)CC2)n1Cc1ccccc1

>  <score_type>  (75) 
oracle

>  <origin>  (75) 
adg

>  <m_score__min__energy>  (75) 
-13.43

>  <m_primary>  (75) 
energy

$$$$
75:0
     RDKit          3D

 42 44  0  0  0  0  0  0  0  0999 V2000
   56.0300   24.1340   44.4810 C   0  0  0  0  0  0  0  0  0  0  0  0
   55.0840   24.7890   45.8400 S   0  0  0  0  0  0  0  0  0  0  0  0
   55.5230   24.1060   47.1040 O   0  0  0  0  0  0  0  0  0  0  0  0
   53.6190   24.5290   45.6340 O   0  0  0  0  0  0  0  0  0  0  0  0
   55.3690   26.4920   46.0010 N   0  0  0  0  0  0  0  0  0  0  0  0
   56.6400   27.1480   45.8800 C   0  0  0  0  0  0  0  0  0  0  0  0
   57.8430   26.5180   46.2430 C   0  0  0  0  0  0  0  0  0  0  0  0
   59.0600   27.1890   46.0990 C   0  0  0  0  0  0  0  0  0  0  0  0
   59.0890   28.4910   45.5970 C   0  0  0  0  0  0  0  0  0  0  0  0
   57.8990   29.1400   45.2340 C   0  0  0  0  0  0  0  0  0  0  0  0
   57.9500   30.5240   44.7050 C   0  0  0  0  0  0  0  0  0  0  0  0
   58.0640   31.6150   45.5820 C   0  0  0  0  0  0  0  0  0  0  0  0
   58.1190   32.9170   45.0710 C   0  0  0  0  0  0  0  0  0  0  0  0
   58.1900   34.0960   46.0030 C   0  0  0  0  0  0  0  0  0  0  0  0
   59.4730   34.0600   46.7860 C   0  0  0  0  0  0  0  0  0  0  0  0
   59.4520   34.1740   48.1870 C   0  0  0  0  0  0  0  0  0  0  0  0
   60.6410   34.1000   48.9190 C   0  0  0  0  0  0  0  0  0  0  0  0
   61.8580   33.9040   48.2590 C   0  0  0  0  0  0  0  0  0  0  0  0
   61.8870   33.7770   46.8670 C   0  0  0  0  0  0  0  0  0  0  0  0
   60.6990   33.8510   46.1320 C   0  0  0  0  0  0  0  0  0  0  0  0
   58.0460   33.1120   43.6860 C   0  0  0  0  0  0  0  0  0  0  0  0
   57.9430   32.0050   42.8390 C   0  0  0  0  0  0  0  0  0  0  0  0
   57.8840   32.1760   41.5920 O   0  0  0  0  0  0  0  0  0  0  0  0
   57.9030   30.7470   43.3580 N   0  0  0  0  0  0  0  0  0  0  0  0
   56.6740   28.4560   45.3730 C   0  0  0  0  0  0  0  0  0  0  0  0
   55.5120   29.0440   44.9840 F   0  0  0  0  0  0  0  0  0  0  0  0
   56.8755   23.5486   44.8713 H   0  0  0  0  0  0  0  0  0  0  0  0
   55.3882   23.4860   43.8661 H   0  0  0  0  0  0  0  0  0  0  0  0
   56.4107   24.9628   43.8661 H   0  0  0  0  0  0  0  0  0  0  0  0
   57.8262   25.4930   46.6419 H   0  0  0  0  0  0  0  0  0  0  0  0
   59.9983   26.6896   46.3822 H   0  0  0  0  0  0  0  0  0  0  0  0
   60.0513   29.0120   45.4851 H   0  0  0  0  0  0  0  0  0  0  0  0
   58.1100   31.4467   46.6681 H   0  0  0  0  0  0  0  0  0  0  0  0
   58.1475   35.0259   45.4170 H   0  0  0  0  0  0  0  0  0  0  0  0
   57.3411   34.0542   46.7013 H   0  0  0  0  0  0  0  0  0  0  0  0
   58.4956   34.3221   48.7099 H   0  0  0  0  0  0  0  0  0  0  0  0
   60.6190   34.1960   50.0146 H   0  0  0  0  0  0  0  0  0  0  0  0
   62.7933   33.8497   48.8354 H   0  0  0  0  0  0  0  0  0  0  0  0
   62.8446   33.6188   46.3494 H   0  0  0  0  0  0  0  0  0  0  0  0
   60.7247   33.7451   45.0374 H   0  0  0  0  0  0  0  0  0  0  0  0
   58.0696   34.1291   43.2678 H   0  0  0  0  0  0  0  0  0  0  0  0
   57.8110   29.9370   42.7030 H   0  0  0  0  0  0  0  0  0  0  0  0
  1  2  1  0
  2  3  2  0
  2  4  2  0
  2  5  1  0
  5  6  1  0
  6  7  2  0
  7  8  1  0
  8  9  2  0
  9 10  1  0
 10 11  1  0
 11 12  2  0
 12 13  1  0
 13 14  1  0
 14 15  1  0
 15 16  2  0
 16 17  1  0
 17 18  2  0
 18 19  1  0
 19 20  2  0
 13 21  2  0
 21 22  1  0
 22 23  2  0
 22 24  1  0
 10 25  2  0
 25 26  1  0
 25  6  1  0
 24 11  1  0
 20 15  1  0
  1 27  1  0
  1 28  1  0
  1 29  1  0
  7 30  1  0
  8 31  1  0
  9 32  1  0
 12 33  1  0
 14 34  1  0
 14 35  1  0
 16 36  1  0
 17 37  1  0
 18 38  1  0
 19 39  1  0
 20 40  1  0
 21 41  1  0
 24 42  1  0
M  CHG  1   5  -1
M  END
>  <UniqueID>  (76) 
71

>  <SMILES>  (76) 
CS(=O)(=O)[N-]c1cccc(-c2cc(Cc3ccccc3)cc(=O)[nH]2)c1F

>  <Energy>  (76) 
48.47303139218898

>  <Genealogy>  (76) 
CS(=O)(=O)[N-]c1cccc(-c2cc(Cc3ccccc3)cc(=O)[nH]2)c1F (protonated)
CS(=O)(=O)[N-]c1cccc(-c2cc(Cc3ccccc3)cc(=O)[nH]2)c1F (3D coordinates assigned)
CS(=O)(=O)[N-]c1cccc(-c2cc(Cc3ccccc3)cc(=O)[nH]2)c1F (optimized conformer: 48.47303139218898 kcal/mol)

>  <smiles>  (76) 
CS(=O)(=O)Nc1cccc(-c2cc(Cc3ccccc3)cc(=O)[nH]2)c1F

>  <score_type>  (76) 
oracle

>  <origin>  (76) 
adg

>  <m_score__min__energy>  (76) 
-12.359999999999999

>  <m_primary>  (76) 
energy

$$$$
76:0
     RDKit          3D

 40 42  0  0  0  0  0  0  0  0999 V2000
   61.5994   34.0209   50.2252 H   0  0  0  0  0  0  0  0  0  0  0  0
   61.4700   34.0400   49.1330 C   0  0  0  0  0  0  0  0  0  0  0  0
   60.2520   34.3230   48.5970 N   0  0  0  0  0  0  0  0  0  0  0  0
   60.0470   34.3660   47.2490 C   0  0  0  0  0  0  0  0  0  0  0  0
   58.8740   34.6220   46.7480 N   0  0  0  0  0  0  0  0  0  0  0  0
   58.1070   33.8240   45.8290 C   0  0  0  0  0  0  0  0  0  0  0  0
   57.5460   34.4080   44.8630 O   0  0  0  0  0  0  0  0  0  0  0  0
   57.9310   32.3260   45.9970 C   0  0  1  0  0  0  0  0  0  0  0  0
   57.5941   32.1744   47.0331 H   0  0  0  0  0  0  0  0  0  0  0  0
   56.8950   31.8050   45.0960 N   0  0  0  0  0  0  0  0  0  0  0  0
   56.8930   30.6400   44.2560 C   0  0  0  0  0  0  0  0  0  0  0  0
   57.0170   30.8090   43.0150 O   0  0  0  0  0  0  0  0  0  0  0  0
   56.7410   29.2590   44.7610 C   0  0  0  0  0  0  0  0  0  0  0  0
   55.5900   28.7310   45.2180 N   0  0  0  0  0  0  0  0  0  0  0  0
   55.9070   27.4850   45.6130 C   0  0  0  0  0  0  0  0  0  0  0  0
   54.9830   26.5970   46.1470 O   0  0  0  0  0  0  0  0  0  0  0  0
   57.2420   27.2090   45.4290 C   0  0  0  0  0  0  0  0  0  0  0  0
   57.7669   26.2715   45.6649 H   0  0  0  0  0  0  0  0  0  0  0  0
   57.7830   28.3540   44.8870 C   0  0  0  0  0  0  0  0  0  0  0  0
   58.8346   28.5177   44.6090 H   0  0  0  0  0  0  0  0  0  0  0  0
   59.2510   31.5320   45.8610 C   0  0  0  0  0  0  0  0  0  0  0  0
   59.1565   30.8235   45.0249 H   0  0  0  0  0  0  0  0  0  0  0  0
   60.0656   32.2486   45.6796 H   0  0  0  0  0  0  0  0  0  0  0  0
   59.5710   30.7640   47.1190 C   0  0  0  0  0  0  0  0  0  0  0  0
   60.8380   30.8720   47.7170 C   0  0  0  0  0  0  0  0  0  0  0  0
   61.5958   31.5381   47.2787 H   0  0  0  0  0  0  0  0  0  0  0  0
   61.1390   30.1360   48.8670 C   0  0  0  0  0  0  0  0  0  0  0  0
   62.1316   30.2262   49.3325 H   0  0  0  0  0  0  0  0  0  0  0  0
   60.1810   29.2860   49.4260 C   0  0  0  0  0  0  0  0  0  0  0  0
   60.4191   28.7090   50.3318 H   0  0  0  0  0  0  0  0  0  0  0  0
   58.9200   29.1690   48.8340 C   0  0  0  0  0  0  0  0  0  0  0  0
   58.1668   28.4986   49.2736 H   0  0  0  0  0  0  0  0  0  0  0  0
   58.6150   29.9030   47.6840 C   0  0  0  0  0  0  0  0  0  0  0  0
   57.6226   29.8061   47.2195 H   0  0  0  0  0  0  0  0  0  0  0  0
   61.1140   34.0910   46.3830 C   0  0  0  0  0  0  0  0  0  0  0  0
   60.9617   34.1051   45.2937 H   0  0  0  0  0  0  0  0  0  0  0  0
   62.3720   33.7990   46.9140 C   0  0  0  0  0  0  0  0  0  0  0  0
   63.2178   33.5889   46.2428 H   0  0  0  0  0  0  0  0  0  0  0  0
   62.5550   33.7740   48.2970 C   0  0  0  0  0  0  0  0  0  0  0  0
   63.5433   33.5472   48.7234 H   0  0  0  0  0  0  0  0  0  0  0  0
  1  2  1  0
  2  3  1  0
  3  4  1  0
  4  5  2  0
  5  6  1  0
  6  7  2  0
  6  8  1  0
  8  9  1  1
  8 10  1  0
 10 11  1  0
 11 12  2  0
 11 13  1  0
 13 14  1  0
 14 15  1  0
 15 16  1  0
 15 17  2  0
 17 18  1  0
 17 19  1  0
 19 20  1  0
  8 21  1  0
 21 22  1  0
 21 23  1  0
 21 24  1  0
 24 25  2  0
 25 26  1  0
 25 27  1  0
 27 28  1  0
 27 29  2  0
 29 30  1  0
 29 31  1  0
 31 32  1  0
 31 33  2  0
 33 34  1  0
  4 35  1  0
 35 36  1  0
 35 37  2  0
 37 38  1  0
 37 39  1  0
 39 40  1  0
 39  2  2  0
 19 13  2  0
 33 24  1  0
M  CHG  4   3  -1  10  -1  14  -1  16  -1
M  END
>  <UniqueID>  (77) 
72

>  <SMILES>  (77) 
O=C([N-][C@@H](Cc1ccccc1)C(=O)/N=c1/cccc[n-]1)c1ccc([O-])[n-]1

>  <Energy>  (77) 
75.62432285486412

>  <Genealogy>  (77) 
O=C([N-]C(Cc1ccccc1)C(=O)N=c1cccc[n-]1)c1ccc([O-])[n-]1 (protonated)
O=C([N-][C@@H](Cc1ccccc1)C(=O)N=c1cccc[n-]1)c1ccc([O-])[n-]1 (chirality)
O=C([N-][C@@H](Cc1ccccc1)C(=O)/N=c1/cccc[n-]1)c1ccc([O-])[n-]1 (cis-trans isomerization)
O=C([N-][C@@H](Cc1ccccc1)C(=O)/N=c1/cccc[n-]1)c1ccc([O-])[n-]1 (3D coordinates assigned)
O=C([N-][C@@H](Cc1ccccc1)C(=O)/N=c1/cccc[n-]1)c1ccc([O-])[n-]1 (optimized conformer: 75.62432285486412 kcal/mol)

>  <smiles>  (77) 
O=C(NC(Cc1ccccc1)C(=O)N=c1cccc[nH]1)c1ccc(O)[nH]1

>  <score_type>  (77) 
oracle

>  <origin>  (77) 
adg

>  <m_score__min__energy>  (77) 
-15.210000000000001

>  <m_primary>  (77) 
energy

$$$$
77:0
     RDKit          3D

 56 60  0  0  0  0  0  0  0  0999 V2000
   53.3479   25.7967   54.1510 H   0  0  0  0  0  0  0  0  0  0  0  0
   52.9190   26.6940   53.6810 C   0  0  0  0  0  0  0  0  0  0  0  0
   51.8422   26.7381   53.4605 H   0  0  0  0  0  0  0  0  0  0  0  0
   53.7110   27.7370   53.3760 C   0  0  0  0  0  0  0  0  0  0  0  0
   53.3080   28.9400   52.7780 C   0  0  0  0  0  0  0  0  0  0  0  0
   52.0670   29.2560   52.3480 C   0  0  0  0  0  0  0  0  0  0  0  0
   51.3383   28.4353   52.2742 H   0  0  0  0  0  0  0  0  0  0  0  0
   51.6000   30.6090   51.9670 C   0  0  0  0  0  0  0  0  0  0  0  0
   51.3080   31.6160   52.8080 N   0  0  0  0  0  0  0  0  0  0  0  0
   50.9720   32.6330   51.9890 C   0  0  0  0  0  0  0  0  0  0  0  0
   50.6300   33.7650   52.4120 O   0  0  0  0  0  0  0  0  0  0  0  0
   51.0270   32.3360   50.6720 N   0  0  0  0  0  0  0  0  0  0  0  0
   51.4260   31.0550   50.6800 C   0  0  0  0  0  0  0  0  0  0  0  0
   51.6310   30.3060   49.5270 O   0  0  0  0  0  0  0  0  0  0  0  0
   54.4520   29.7250   52.6980 C   0  0  0  0  0  0  0  0  0  0  0  0
   54.5171   30.7469   52.2962 H   0  0  0  0  0  0  0  0  0  0  0  0
   55.4910   28.9800   53.2180 C   0  0  0  0  0  0  0  0  0  0  0  0
   56.8710   29.4850   53.3920 C   0  0  0  0  0  0  0  0  0  0  0  0
   57.6630   28.8320   54.1290 O   0  0  0  0  0  0  0  0  0  0  0  0
   57.3210   30.7000   52.7570 N   0  0  0  0  0  0  0  0  0  0  0  0
   56.6670   31.1890   51.5310 C   0  0  0  0  0  0  0  0  0  0  0  0
   56.5282   30.3468   50.8371 H   0  0  0  0  0  0  0  0  0  0  0  0
   55.6961   31.6284   51.8036 H   0  0  0  0  0  0  0  0  0  0  0  0
   57.5130   32.2640   50.8490 C   0  0  0  0  0  0  0  0  0  0  0  0
   57.1752   32.3961   49.8105 H   0  0  0  0  0  0  0  0  0  0  0  0
   57.4069   33.2182   51.3859 H   0  0  0  0  0  0  0  0  0  0  0  0
   58.9210   31.8400   50.8600 N   0  0  0  0  0  0  0  0  0  0  0  0
   59.7660   32.5780   49.8980 C   0  0  0  0  0  0  0  0  0  0  0  0
   59.8942   33.6065   50.2666 H   0  0  0  0  0  0  0  0  0  0  0  0
   60.7199   32.0349   49.8265 H   0  0  0  0  0  0  0  0  0  0  0  0
   59.1900   32.6400   48.5060 C   0  0  0  0  0  0  0  0  0  0  0  0
   58.8520   31.3090   47.5270 S   0  0  0  0  0  0  0  0  0  0  0  0
   58.2630   32.2050   46.2310 C   0  0  0  0  0  0  0  0  0  0  0  0
   57.7380   31.6410   45.0240 N   0  0  0  0  0  0  0  0  0  0  0  0
   56.8520   30.6580   45.0060 N   0  0  0  0  0  0  0  0  0  0  0  0
   56.5600   30.3980   43.7170 C   0  0  0  0  0  0  0  0  0  0  0  0
   55.8561   29.6275   43.3693 H   0  0  0  0  0  0  0  0  0  0  0  0
   57.2790   31.2460   42.8990 C   0  0  0  0  0  0  0  0  0  0  0  0
   57.2655   31.2899   41.8000 H   0  0  0  0  0  0  0  0  0  0  0  0
   58.0170   32.0250   43.7620 C   0  0  0  0  0  0  0  0  0  0  0  0
   58.7149   32.8241   43.4714 H   0  0  0  0  0  0  0  0  0  0  0  0
   58.3330   33.5590   46.5420 C   0  0  0  0  0  0  0  0  0  0  0  0
   58.0111   34.3569   45.8567 H   0  0  0  0  0  0  0  0  0  0  0  0
   58.8550   33.8000   47.8160 C   0  0  0  0  0  0  0  0  0  0  0  0
   58.9879   34.8094   48.2325 H   0  0  0  0  0  0  0  0  0  0  0  0
   59.5010   31.7780   52.2240 C   0  0  0  0  0  0  0  0  0  0  0  0
   60.2753   30.9969   52.2404 H   0  0  0  0  0  0  0  0  0  0  0  0
   59.9149   32.7716   52.4508 H   0  0  0  0  0  0  0  0  0  0  0  0
   58.4530   31.4550   53.3120 C   0  0  0  0  0  0  0  0  0  0  0  0
   58.9298   30.8563   54.1021 H   0  0  0  0  0  0  0  0  0  0  0  0
   58.0714   32.4033   53.7183 H   0  0  0  0  0  0  0  0  0  0  0  0
   55.0460   27.7680   53.6230 N   0  0  0  0  0  0  0  0  0  0  0  0
   55.8560   26.7020   54.2250 C   0  0  0  0  0  0  0  0  0  0  0  0
   55.8010   26.7744   55.3212 H   0  0  0  0  0  0  0  0  0  0  0  0
   55.4719   25.7230   53.9024 H   0  0  0  0  0  0  0  0  0  0  0  0
   56.9021   26.8098   53.9024 H   0  0  0  0  0  0  0  0  0  0  0  0
  1  2  1  0
  2  3  1  0
  2  4  2  0
  4  5  1  0
  5  6  2  0
  6  7  1  0
  6  8  1  0
  8  9  1  0
  9 10  1  0
 10 11  2  0
 10 12  1  0
 12 13  1  0
 13 14  1  0
  5 15  1  0
 15 16  1  0
 15 17  2  0
 17 18  1  0
 18 19  2  0
 18 20  1  0
 20 21  1  0
 21 22  1  0
 21 23  1  0
 21 24  1  0
 24 25  1  0
 24 26  1  0
 24 27  1  0
 27 28  1  0
 28 29  1  0
 28 30  1  0
 28 31  1  0
 31 32  1  0
 32 33  1  0
 33 34  1  0
 34 35  1  0
 35 36  2  0
 36 37  1  0
 36 38  1  0
 38 39  1  0
 38 40  2  0
 40 41  1  0
 33 42  2  0
 42 43  1  0
 42 44  1  0
 44 45  1  0
 27 46  1  0
 46 47  1  0
 46 48  1  0
 46 49  1  0
 49 50  1  0
 49 51  1  0
 17 52  1  0
 52 53  1  0
 53 54  1  0
 53 55  1  0
 53 56  1  0
 52  4  1  0
 13  8  2  0
 49 20  1  0
 44 31  2  0
 40 34  1  0
M  CHG  3   9  -1  12  -1  14  -1
M  END
>  <UniqueID>  (78) 
73

>  <SMILES>  (78) 
C=c1/c(=C/c2[n-]c(=O)[n-]c2[O-])cc(C(=O)N2CCN(Cc3ccc(-n4cccn4)s3)CC2)n1C

>  <Energy>  (78) 
193.68768918211504

>  <Genealogy>  (78) 
C=c1c(=Cc2[n-]c(=O)[n-]c2[O-])cc(C(=O)N2CCN(Cc3ccc(-n4cccn4)s3)CC2)n1C (protonated)
C=c1/c(=C/c2[n-]c(=O)[n-]c2[O-])cc(C(=O)N2CCN(Cc3ccc(-n4cccn4)s3)CC2)n1C (cis-trans isomerization)
C=c1/c(=C/c2[n-]c(=O)[n-]c2[O-])cc(C(=O)N2CCN(Cc3ccc(-n4cccn4)s3)CC2)n1C (3D coordinates assigned)
C=c1/c(=C/c2[n-]c(=O)[n-]c2[O-])cc(C(=O)N2CCN(Cc3ccc(-n4cccn4)s3)CC2)n1C (nonaromatic ring conformer: 193.68768918211504 kcal/mol)

>  <smiles>  (78) 
C=c1c(=Cc2[nH]c(=O)[nH]c2O)cc(C(=O)N2CCN(Cc3ccc(-n4cccn4)s3)CC2)n1C

>  <score_type>  (78) 
oracle

>  <origin>  (78) 
adg

>  <m_score__min__energy>  (78) 
-18.969999999999999

>  <m_primary>  (78) 
energy

$$$$
78:0
     RDKit          3D

 47 49  0  0  0  0  0  0  0  0999 V2000
   57.8415   34.0021   47.3635 H   0  0  0  0  0  0  0  0  0  0  0  0
   57.8740   33.5710   46.3520 C   0  0  0  0  0  0  0  0  0  0  0  0
   57.0540   32.5340   46.0270 N   0  0  0  0  0  0  0  0  0  0  0  0
   57.0630   31.9700   44.7850 C   0  0  0  0  0  0  0  0  0  0  0  0
   56.2700   30.9810   44.4930 N   0  0  0  0  0  0  0  0  0  0  0  0
   56.5630   29.5650   44.7310 C   0  0  1  0  0  0  0  0  0  0  0  0
   55.6211   29.0217   44.8974 H   0  0  0  0  0  0  0  0  0  0  0  0
   57.2740   28.9740   43.4940 C   0  0  0  0  0  0  0  0  0  0  0  0
   56.5122   28.5745   42.8084 H   0  0  0  0  0  0  0  0  0  0  0  0
   57.8574   29.7829   43.0299 H   0  0  0  0  0  0  0  0  0  0  0  0
   58.2570   27.8400   43.8530 C   0  0  0  0  0  0  0  0  0  0  0  0
   58.3390   27.1518   42.9988 H   0  0  0  0  0  0  0  0  0  0  0  0
   59.2352   28.2862   44.0854 H   0  0  0  0  0  0  0  0  0  0  0  0
   57.7910   27.0860   45.0380 N   0  0  1  0  0  0  0  0  0  0  0  0
   56.8120   26.7780   44.8160 H   0  0  0  0  0  0  0  0  0  0  0  0
   58.5500   25.8680   45.2690 C   0  0  0  0  0  0  0  0  0  0  0  0
   59.7270   25.9690   45.7120 O   0  0  0  0  0  0  0  0  0  0  0  0
   58.0180   24.4980   45.0180 C   0  0  0  0  0  0  0  0  0  0  0  0
   58.8470   23.3630   44.9870 C   0  0  0  0  0  0  0  0  0  0  0  0
   59.9314   23.4750   45.1334 H   0  0  0  0  0  0  0  0  0  0  0  0
   58.3050   22.0960   44.7720 C   0  0  0  0  0  0  0  0  0  0  0  0
   58.9656   21.2170   44.7424 H   0  0  0  0  0  0  0  0  0  0  0  0
   56.9290   21.9360   44.5940 C   0  0  0  0  0  0  0  0  0  0  0  0
   56.2850   20.3220   44.3280 Cl  0  0  0  0  0  0  0  0  0  0  0  0
   56.0790   23.0520   44.6330 C   0  0  0  0  0  0  0  0  0  0  0  0
   54.6690   22.8570   44.4490 N   0  0  0  0  0  0  0  0  0  0  0  0
   53.4090   23.4920   45.4590 S   0  0  0  0  0  0  0  0  0  0  0  0
   53.6690   24.9520   45.6920 O   0  0  0  0  0  0  0  0  0  0  0  0
   52.0770   23.3410   44.7780 O   0  0  0  0  0  0  0  0  0  0  0  0
   53.4020   22.6560   47.0300 C   0  0  0  0  0  0  0  0  0  0  0  0
   53.4082   23.3992   47.8409 H   0  0  0  0  0  0  0  0  0  0  0  0
   52.4986   22.0335   47.1101 H   0  0  0  0  0  0  0  0  0  0  0  0
   54.2948   22.0185   47.1101 H   0  0  0  0  0  0  0  0  0  0  0  0
   56.6310   24.3280   44.8520 C   0  0  0  0  0  0  0  0  0  0  0  0
   55.9686   25.2052   44.8940 H   0  0  0  0  0  0  0  0  0  0  0  0
   57.7180   27.9100   46.2710 C   0  0  0  0  0  0  0  0  0  0  0  0
   56.9135   27.5151   46.9089 H   0  0  0  0  0  0  0  0  0  0  0  0
   58.7000   27.8516   46.7632 H   0  0  0  0  0  0  0  0  0  0  0  0
   57.4330   29.4010   45.9870 C   0  0  0  0  0  0  0  0  0  0  0  0
   56.9067   29.8373   46.8488 H   0  0  0  0  0  0  0  0  0  0  0  0
   58.3907   29.9156   45.8200 H   0  0  0  0  0  0  0  0  0  0  0  0
   57.9330   32.4680   43.8070 C   0  0  0  0  0  0  0  0  0  0  0  0
   57.9466   32.0264   42.7996 H   0  0  0  0  0  0  0  0  0  0  0  0
   58.7830   33.5300   44.1220 C   0  0  0  0  0  0  0  0  0  0  0  0
   59.4730   33.9270   43.3629 H   0  0  0  0  0  0  0  0  0  0  0  0
   58.7560   34.0870   45.4010 C   0  0  0  0  0  0  0  0  0  0  0  0
   59.4226   34.9237   45.6572 H   0  0  0  0  0  0  0  0  0  0  0  0
  1  2  1  0
  2  3  1  0
  3  4  1  0
  4  5  2  0
  5  6  1  0
  6  7  1  1
  6  8  1  0
  8  9  1  0
  8 10  1  0
  8 11  1  0
 11 12  1  0
 11 13  1  0
 11 14  1  0
 14 15  1  6
 14 16  1  0
 16 17  2  0
 16 18  1  0
 18 19  2  0
 19 20  1  0
 19 21  1  0
 21 22  1  0
 21 23  2  0
 23 24  1  0
 23 25  1  0
 25 26  1  0
 26 27  1  0
 27 28  2  0
 27 29  2  0
 27 30  1  0
 30 31  1  0
 30 32  1  0
 30 33  1  0
 25 34  2  0
 34 35  1  0
 14 36  1  0
 36 37  1  0
 36 38  1  0
 36 39  1  0
 39 40  1  0
 39 41  1  0
  4 42  1  0
 42 43  1  0
 42 44  2  0
 44 45  1  0
 44 46  1  0
 46 47  1  0
 46  2  2  0
 39  6  1  0
 34 18  1  0
M  CHG  3   3  -1  14   1  26  -1
M  END
>  <UniqueID>  (79) 
74

>  <SMILES>  (79) 
CS(=O)(=O)[N-]c1cc(C(=O)[NH+]2CCC(/N=c3/cccc[n-]3)CC2)ccc1Cl

>  <Energy>  (79) 
63.332154956266315

>  <Genealogy>  (79) 
CS(=O)(=O)[N-]c1cc(C(=O)[NH+]2CCC(N=c3cccc[n-]3)CC2)ccc1Cl (protonated)
CS(=O)(=O)[N-]c1cc(C(=O)[NH+]2CCC(/N=c3/cccc[n-]3)CC2)ccc1Cl (cis-trans isomerization)
CS(=O)(=O)[N-]c1cc(C(=O)[NH+]2CCC(/N=c3/cccc[n-]3)CC2)ccc1Cl (3D coordinates assigned)
CS(=O)(=O)[N-]c1cc(C(=O)[NH+]2CCC(/N=c3/cccc[n-]3)CC2)ccc1Cl (nonaromatic ring conformer: 63.332154956266315 kcal/mol)

>  <smiles>  (79) 
CS(=O)(=O)Nc1cc(C(=O)N2CCC(N=c3cccc[nH]3)CC2)ccc1Cl

>  <score_type>  (79) 
oracle

>  <origin>  (79) 
adg

>  <m_score__min__energy>  (79) 
-10.23

>  <m_primary>  (79) 
energy

$$$$
79:0
     RDKit          3D

 61 64  0  0  0  0  0  0  0  0999 V2000
   55.1400   27.8930   44.9970 H   0  0  0  0  0  0  0  0  0  0  0  0
   55.7070   28.7260   45.0290 O   0  0  0  0  0  0  0  0  0  0  0  0
   57.0920   28.7080   45.1900 C   0  0  0  0  0  0  0  0  0  0  0  0
   57.7800   27.7910   45.9670 C   0  0  0  0  0  0  0  0  0  0  0  0
   57.2070   26.6840   46.7630 C   0  0  0  0  0  0  0  0  0  0  0  0
   57.6046   26.5081   47.7734 H   0  0  0  0  0  0  0  0  0  0  0  0
   56.2260   25.8820   46.3160 C   0  0  0  0  0  0  0  0  0  0  0  0
   54.9750   26.3030   46.0450 N   0  0  0  0  0  0  0  0  0  0  0  0
   54.3550   25.1930   45.6000 C   0  0  0  0  0  0  0  0  0  0  0  0
   53.1460   25.1860   45.2460 O   0  0  0  0  0  0  0  0  0  0  0  0
   55.1300   24.0890   45.5630 N   0  0  0  0  0  0  0  0  0  0  0  0
   56.3190   24.5290   46.0150 C   0  0  0  0  0  0  0  0  0  0  0  0
   57.3850   23.7320   46.1330 C   0  0  0  0  0  0  0  0  0  0  0  0
   58.3363   24.1378   46.5076 H   0  0  0  0  0  0  0  0  0  0  0  0
   57.3112   22.6701   45.8555 H   0  0  0  0  0  0  0  0  0  0  0  0
   59.0890   28.1270   45.9540 N   0  0  0  0  0  0  0  0  0  0  0  0
   60.1910   27.4750   46.6680 C   0  0  0  0  0  0  0  0  0  0  0  0
   59.9628   26.4054   46.7857 H   0  0  0  0  0  0  0  0  0  0  0  0
   61.1160   27.6052   46.0871 H   0  0  0  0  0  0  0  0  0  0  0  0
   60.3810   28.0930   48.0280 C   0  0  0  0  0  0  0  0  0  0  0  0
   60.4640   27.2780   49.1680 C   0  0  0  0  0  0  0  0  0  0  0  0
   60.3705   26.1865   49.0691 H   0  0  0  0  0  0  0  0  0  0  0  0
   60.6650   27.8480   50.4280 C   0  0  0  0  0  0  0  0  0  0  0  0
   60.7361   27.2033   51.3164 H   0  0  0  0  0  0  0  0  0  0  0  0
   60.7760   29.2350   50.5630 C   0  0  0  0  0  0  0  0  0  0  0  0
   60.9491   29.6779   51.5549 H   0  0  0  0  0  0  0  0  0  0  0  0
   60.6670   30.0630   49.4360 C   0  0  0  0  0  0  0  0  0  0  0  0
   60.8060   31.5250   49.5610 C   0  0  0  0  0  0  0  0  0  0  0  0
   60.5720   32.0560   50.6810 O   0  0  0  0  0  0  0  0  0  0  0  0
   61.2310   32.3440   48.4530 N   0  0  0  0  0  0  0  0  0  0  0  0
   62.6170   32.4830   48.0270 C   0  0  0  0  0  0  0  0  0  0  0  0
   63.2425   32.8235   48.8653 H   0  0  0  0  0  0  0  0  0  0  0  0
   63.0309   31.5245   47.6807 H   0  0  0  0  0  0  0  0  0  0  0  0
   62.6100   33.5230   46.9150 C   0  0  0  0  0  0  0  0  0  0  0  0
   62.9572   34.4946   47.2963 H   0  0  0  0  0  0  0  0  0  0  0  0
   63.2819   33.2410   46.0910 H   0  0  0  0  0  0  0  0  0  0  0  0
   61.1600   33.6210   46.4510 C   0  0  0  0  0  0  0  0  0  0  0  0
   60.9050   34.6626   46.2058 H   0  0  0  0  0  0  0  0  0  0  0  0
   60.9818   33.0239   45.5445 H   0  0  0  0  0  0  0  0  0  0  0  0
   60.3150   33.1270   47.6300 C   0  0  2  0  0  0  0  0  0  0  0  0
   59.4566   32.5315   47.2858 H   0  0  0  0  0  0  0  0  0  0  0  0
   59.7030   34.2950   48.4310 C   0  0  0  0  0  0  0  0  0  0  0  0
   59.6768   35.1914   47.7940 H   0  0  0  0  0  0  0  0  0  0  0  0
   58.6874   34.0084   48.7416 H   0  0  0  0  0  0  0  0  0  0  0  0
   60.4560   34.5740   49.5820 O   0  0  0  0  0  0  0  0  0  0  0  0
   60.4190   33.7630   50.1540 H   0  0  0  0  0  0  0  0  0  0  0  0
   60.4800   29.4870   48.1710 C   0  0  0  0  0  0  0  0  0  0  0  0
   60.4102   30.1324   47.2830 H   0  0  0  0  0  0  0  0  0  0  0  0
   59.1680   29.2160   45.1580 C   0  0  0  0  0  0  0  0  0  0  0  0
   60.2510   29.8120   44.9060 O   0  0  0  0  0  0  0  0  0  0  0  0
   57.9690   29.6020   44.6630 N   0  0  0  0  0  0  0  0  0  0  0  0
   57.7350   30.7620   43.7840 C   0  0  0  0  0  0  0  0  0  0  0  0
   58.6475   30.9223   43.1909 H   0  0  0  0  0  0  0  0  0  0  0  0
   57.5080   32.0440   44.5950 C   0  0  0  0  0  0  0  0  0  0  0  0
   57.5493   31.8105   45.6691 H   0  0  0  0  0  0  0  0  0  0  0  0
   58.2903   32.7770   44.3487 H   0  0  0  0  0  0  0  0  0  0  0  0
   56.5215   32.4638   44.3487 H   0  0  0  0  0  0  0  0  0  0  0  0
   56.6080   30.4920   42.7830 C   0  0  0  0  0  0  0  0  0  0  0  0
   55.6789   30.2694   43.3282 H   0  0  0  0  0  0  0  0  0  0  0  0
   56.4585   31.3798   42.1509 H   0  0  0  0  0  0  0  0  0  0  0  0
   56.8770   29.6329   42.1509 H   0  0  0  0  0  0  0  0  0  0  0  0
  1  2  1  0
  2  3  1  0
  3  4  2  0
  4  5  1  0
  5  6  1  0
  5  7  2  0
  7  8  1  0
  8  9  1  0
  9 10  2  0
  9 11  1  0
 11 12  1  0
 12 13  2  0
 13 14  1  0
 13 15  1  0
  4 16  1  0
 16 17  1  0
 17 18  1  0
 17 19  1  0
 17 20  1  0
 20 21  2  0
 21 22  1  0
 21 23  1  0
 23 24  1  0
 23 25  2  0
 25 26  1  0
 25 27  1  0
 27 28  1  0
 28 29  2  0
 28 30  1  0
 30 31  1  0
 31 32  1  0
 31 33  1  0
 31 34  1  0
 34 35  1  0
 34 36  1  0
 34 37  1  0
 37 38  1  0
 37 39  1  0
 37 40  1  0
 40 41  1  6
 40 42  1  0
 42 43  1  0
 42 44  1  0
 42 45  1  0
 45 46  1  0
 27 47  2  0
 47 48  1  0
 16 49  1  0
 49 50  2  0
 49 51  1  0
 51 52  1  0
 52 53  1  0
 52 54  1  0
 54 55  1  0
 54 56  1  0
 54 57  1  0
 52 58  1  0
 58 59  1  0
 58 60  1  0
 58 61  1  0
 51  3  1  0
 12  7  1  0
 47 20  1  0
 40 30  1  0
M  CHG  2   8  -1  11  -1
M  END
>  <UniqueID>  (80) 
75

>  <SMILES>  (80) 
C=c1[n-]c(=O)[n-]/c1=C\c1c(O)n(C(C)C)c(=O)n1Cc1cccc(C(=O)N2CCC[C@@H]2CO)c1

>  <Energy>  (80) 
133.66736129522934

>  <Genealogy>  (80) 
C=c1[n-]c(=O)[n-]c1=Cc1c(O)n(C(C)C)c(=O)n1Cc1cccc(C(=O)N2CCCC2CO)c1 (protonated)
C=c1[n-]c(=O)[n-]c1=Cc1c(O)n(C(C)C)c(=O)n1Cc1cccc(C(=O)N2CCC[C@@H]2CO)c1 (chirality)
C=c1[n-]c(=O)[n-]/c1=C\c1c(O)n(C(C)C)c(=O)n1Cc1cccc(C(=O)N2CCC[C@@H]2CO)c1 (cis-trans isomerization)
C=c1[n-]c(=O)[n-]/c1=C\c1c(O)n(C(C)C)c(=O)n1Cc1cccc(C(=O)N2CCC[C@@H]2CO)c1 (3D coordinates assigned)
C=c1[n-]c(=O)[n-]/c1=C\c1c(O)n(C(C)C)c(=O)n1Cc1cccc(C(=O)N2CCC[C@@H]2CO)c1 (nonaromatic ring conformer: 133.66736129522934 kcal/mol)

>  <smiles>  (80) 
C=c1[nH]c(=O)[nH]c1=Cc1c(O)n(C(C)C)c(=O)n1Cc1cccc(C(=O)N2CCCC2CO)c1

>  <score_type>  (80) 
oracle

>  <origin>  (80) 
adg

>  <m_score__min__energy>  (80) 
-13.06

>  <m_primary>  (80) 
energy

$$$$
80:0
     RDKit          3D

 65 68  0  0  0  0  0  0  0  0999 V2000
   58.4530   33.6410   52.2010 C   0  0  0  0  0  0  0  0  0  0  0  0
   58.0990   32.5690   51.2790 N   0  0  0  0  0  0  0  0  0  0  0  0
   57.7400   31.1250   52.1750 S   0  0  0  0  0  0  0  0  0  0  0  0
   56.8330   31.4610   53.3250 O   0  0  0  0  0  0  0  0  0  0  0  0
   57.0400   30.1490   51.2740 O   0  0  0  0  0  0  0  0  0  0  0  0
   59.2020   30.4130   52.7950 N   0  0  0  0  0  0  0  0  0  0  0  0
   60.2300   30.3260   51.7560 C   0  0  0  0  0  0  0  0  0  0  0  0
   59.7570   29.4330   50.6140 C   0  0  0  0  0  0  0  0  0  0  0  0
   60.4630   29.7770   49.4250 O   0  0  0  0  0  0  0  0  0  0  0  0
   59.8800   30.3910   48.3070 C   0  0  0  0  0  0  0  0  0  0  0  0
   59.8560   29.7760   47.0290 C   0  0  0  0  0  0  0  0  0  0  0  0
   59.2460   30.4170   45.9400 C   0  0  0  0  0  0  0  0  0  0  0  0
   58.6810   31.6780   46.1390 C   0  0  0  0  0  0  0  0  0  0  0  0
   58.7060   32.2870   47.3770 C   0  0  0  0  0  0  0  0  0  0  0  0
   59.2950   31.6590   48.4750 C   0  0  0  0  0  0  0  0  0  0  0  0
   57.9810   33.6010   47.3450 C   0  0  1  0  0  0  0  0  0  0  0  0
   58.9340   34.7720   47.6400 C   0  0  0  0  0  0  0  0  0  0  0  0
   60.2450   34.2890   48.2040 C   0  0  0  0  0  0  0  0  0  0  0  0
   60.4250   34.1780   49.5920 C   0  0  0  0  0  0  0  0  0  0  0  0
   61.6370   33.7150   50.1100 C   0  0  0  0  0  0  0  0  0  0  0  0
   62.6790   33.3500   49.2500 C   0  0  0  0  0  0  0  0  0  0  0  0
   64.1870   32.7670   49.9400 Cl  0  0  0  0  0  0  0  0  0  0  0  0
   62.5040   33.4500   47.8590 C   0  0  0  0  0  0  0  0  0  0  0  0
   63.7870   32.9990   46.7450 Cl  0  0  0  0  0  0  0  0  0  0  0  0
   61.2890   33.9170   47.3420 C   0  0  0  0  0  0  0  0  0  0  0  0
   57.5110   33.5920   45.9130 C   0  0  0  0  0  0  0  0  0  0  0  0
   56.7350   34.4520   45.4180 O   0  0  0  0  0  0  0  0  0  0  0  0
   57.9820   32.4600   45.1810 N   0  0  0  0  0  0  0  0  0  0  0  0
   57.4700   32.0000   43.8910 C   0  0  0  0  0  0  0  0  0  0  0  0
   57.0050   30.5770   43.9810 C   0  0  0  0  0  0  0  0  0  0  0  0
   55.8780   30.3190   44.4840 O   0  0  0  0  0  0  0  0  0  0  0  0
   57.8160   29.5200   43.4530 N   0  0  0  0  0  0  0  0  0  0  0  0
   57.4000   28.1200   43.4880 C   0  0  0  0  0  0  0  0  0  0  0  0
   57.8830   27.4630   44.7530 C   0  0  0  0  0  0  0  0  0  0  0  0
   56.9690   27.1230   45.7620 C   0  0  0  0  0  0  0  0  0  0  0  0
   57.4160   26.5400   46.9520 C   0  0  0  0  0  0  0  0  0  0  0  0
   58.7780   26.2930   47.1450 C   0  0  0  0  0  0  0  0  0  0  0  0
   59.6950   26.6280   46.1460 C   0  0  0  0  0  0  0  0  0  0  0  0
   59.2520   27.2150   44.9540 C   0  0  0  0  0  0  0  0  0  0  0  0
   58.3363   33.2877   53.2362 H   0  0  0  0  0  0  0  0  0  0  0  0
   59.4978   33.9405   52.0313 H   0  0  0  0  0  0  0  0  0  0  0  0
   57.7921   34.5038   52.0313 H   0  0  0  0  0  0  0  0  0  0  0  0
   60.4376   31.3335   51.3662 H   0  0  0  0  0  0  0  0  0  0  0  0
   61.1428   29.8941   52.1923 H   0  0  0  0  0  0  0  0  0  0  0  0
   59.9519   28.3801   50.8657 H   0  0  0  0  0  0  0  0  0  0  0  0
   58.6777   29.5759   50.4566 H   0  0  0  0  0  0  0  0  0  0  0  0
   60.3196   28.7881   46.8905 H   0  0  0  0  0  0  0  0  0  0  0  0
   59.2137   29.9364   44.9511 H   0  0  0  0  0  0  0  0  0  0  0  0
   59.3017   32.1494   49.4596 H   0  0  0  0  0  0  0  0  0  0  0  0
   57.1813   33.7225   48.0905 H   0  0  0  0  0  0  0  0  0  0  0  0
   59.1270   35.3197   46.7058 H   0  0  0  0  0  0  0  0  0  0  0  0
   58.4574   35.4251   48.3858 H   0  0  0  0  0  0  0  0  0  0  0  0
   59.6084   34.4567   50.2743 H   0  0  0  0  0  0  0  0  0  0  0  0
   61.7729   33.6370   51.1988 H   0  0  0  0  0  0  0  0  0  0  0  0
   61.1517   33.9928   46.2532 H   0  0  0  0  0  0  0  0  0  0  0  0
   56.6255   32.6373   43.5899 H   0  0  0  0  0  0  0  0  0  0  0  0
   58.2788   32.0610   43.1479 H   0  0  0  0  0  0  0  0  0  0  0  0
   58.7440   29.7520   43.0340 H   0  0  0  0  0  0  0  0  0  0  0  0
   56.3020   28.0666   43.4478 H   0  0  0  0  0  0  0  0  0  0  0  0
   57.8347   27.5959   42.6241 H   0  0  0  0  0  0  0  0  0  0  0  0
   55.8959   27.3159   45.6163 H   0  0  0  0  0  0  0  0  0  0  0  0
   56.6937   26.2751   47.7382 H   0  0  0  0  0  0  0  0  0  0  0  0
   59.1274   25.8354   48.0823 H   0  0  0  0  0  0  0  0  0  0  0  0
   60.7667   26.4305   46.2957 H   0  0  0  0  0  0  0  0  0  0  0  0
   59.9780   27.4829   44.1722 H   0  0  0  0  0  0  0  0  0  0  0  0
  1  2  1  0
  2  3  1  0
  3  4  2  0
  3  5  2  0
  3  6  1  0
  6  7  1  0
  7  8  1  0
  8  9  1  0
  9 10  1  0
 10 11  2  0
 11 12  1  0
 12 13  2  0
 13 14  1  0
 14 15  2  0
 14 16  1  0
 16 17  1  0
 17 18  1  0
 18 19  2  0
 19 20  1  0
 20 21  2  0
 21 22  1  0
 21 23  1  0
 23 24  1  0
 23 25  2  0
 16 26  1  0
 26 27  2  0
 26 28  1  0
 28 29  1  0
 29 30  1  0
 30 31  2  0
 30 32  1  0
 32 33  1  0
 33 34  1  0
 34 35  2  0
 35 36  1  0
 36 37  2  0
 37 38  1  0
 38 39  2  0
 15 10  1  0
 25 18  1  0
 39 34  1  0
 28 13  1  0
  1 40  1  0
  1 41  1  0
  1 42  1  0
  7 43  1  0
  7 44  1  0
  8 45  1  0
  8 46  1  0
 11 47  1  0
 12 48  1  0
 15 49  1  0
 16 50  1  1
 17 51  1  0
 17 52  1  0
 19 53  1  0
 20 54  1  0
 25 55  1  0
 29 56  1  0
 29 57  1  0
 32 58  1  0
 33 59  1  0
 33 60  1  0
 35 61  1  0
 36 62  1  0
 37 63  1  0
 38 64  1  0
 39 65  1  0
M  CHG  2   2  -1   6  -1
M  END
>  <UniqueID>  (81) 
76

>  <SMILES>  (81) 
C[N-]S(=O)(=O)[N-]CCOc1ccc2c(c1)[C@@H](Cc1ccc(Cl)c(Cl)c1)C(=O)N2CC(=O)NCc1ccccc1

>  <Energy>  (81) 
76.06223485820921

>  <Genealogy>  (81) 
C[N-]S(=O)(=O)[N-]CCOc1ccc2c(c1)C(Cc1ccc(Cl)c(Cl)c1)C(=O)N2CC(=O)NCc1ccccc1 (protonated)
C[N-]S(=O)(=O)[N-]CCOc1ccc2c(c1)[C@@H](Cc1ccc(Cl)c(Cl)c1)C(=O)N2CC(=O)NCc1ccccc1 (chirality)
C[N-]S(=O)(=O)[N-]CCOc1ccc2c(c1)[C@@H](Cc1ccc(Cl)c(Cl)c1)C(=O)N2CC(=O)NCc1ccccc1 (3D coordinates assigned)
C[N-]S(=O)(=O)[N-]CCOc1ccc2c(c1)[C@@H](Cc1ccc(Cl)c(Cl)c1)C(=O)N2CC(=O)NCc1ccccc1 (nonaromatic ring conformer: 76.06223485820921 kcal/mol)

>  <smiles>  (81) 
CNS(=O)(=O)NCCOc1ccc2c(c1)C(Cc1ccc(Cl)c(Cl)c1)C(=O)N2CC(=O)NCc1ccccc1

>  <score_type>  (81) 
oracle

>  <origin>  (81) 
adg

>  <m_score__min__energy>  (81) 
-13.92

>  <m_primary>  (81) 
energy

$$$$
81:0
     RDKit          3D

 35 37  0  0  0  0  0  0  0  0999 V2000
   53.9870   28.4430   53.8450 C   0  0  0  0  0  0  0  0  0  0  0  0
   54.6260   29.4500   53.2390 C   0  0  0  0  0  0  0  0  0  0  0  0
   55.9700   29.4810   53.1390 N   0  0  0  0  0  0  0  0  0  0  0  0
   56.2930   30.5050   52.3250 C   0  0  0  0  0  0  0  0  0  0  0  0
   57.6870   30.8340   51.9560 C   0  0  0  0  0  0  0  0  0  0  0  0
   58.6250   30.1710   52.4750 O   0  0  0  0  0  0  0  0  0  0  0  0
   58.0400   31.9360   50.9920 C   0  0  0  0  0  0  0  0  0  0  0  0
   58.7580   31.3730   49.7880 C   0  0  0  0  0  0  0  0  0  0  0  0
   58.7060   29.9900   49.5430 C   0  0  0  0  0  0  0  0  0  0  0  0
   59.3830   29.4360   48.4540 C   0  0  0  0  0  0  0  0  0  0  0  0
   60.1270   30.2540   47.6020 C   0  0  0  0  0  0  0  0  0  0  0  0
   60.7840   29.7140   46.5470 F   0  0  0  0  0  0  0  0  0  0  0  0
   60.1980   31.6280   47.8400 C   0  0  0  0  0  0  0  0  0  0  0  0
   59.5230   32.1950   48.9290 C   0  0  0  0  0  0  0  0  0  0  0  0
   59.6640   33.9310   49.1810 Cl  0  0  0  0  0  0  0  0  0  0  0  0
   55.1430   31.1480   51.8960 C   0  0  0  0  0  0  0  0  0  0  0  0
   54.0750   30.5100   52.5060 C   0  0  0  0  0  0  0  0  0  0  0  0
   52.7990   30.9190   52.3640 C   0  0  0  0  0  0  0  0  0  0  0  0
   52.1140   31.1540   51.0820 C   0  0  0  0  0  0  0  0  0  0  0  0
   52.0660   30.2720   50.0670 N   0  0  0  0  0  0  0  0  0  0  0  0
   51.2220   30.8560   49.1880 C   0  0  0  0  0  0  0  0  0  0  0  0
   50.9280   30.3350   48.0810 O   0  0  0  0  0  0  0  0  0  0  0  0
   50.7090   32.0380   49.5940 N   0  0  0  0  0  0  0  0  0  0  0  0
   51.2730   32.2020   50.8010 C   0  0  0  0  0  0  0  0  0  0  0  0
   51.0200   33.2870   51.6310 O   0  0  0  0  0  0  0  0  0  0  0  0
   52.8889   28.4480   53.9096 H   0  0  0  0  0  0  0  0  0  0  0  0
   54.5597   27.6099   54.2787 H   0  0  0  0  0  0  0  0  0  0  0  0
   56.6380   28.8030   53.5700 H   0  0  0  0  0  0  0  0  0  0  0  0
   57.1185   32.4381   50.6623 H   0  0  0  0  0  0  0  0  0  0  0  0
   58.7017   32.6543   51.4982 H   0  0  0  0  0  0  0  0  0  0  0  0
   58.1274   29.3385   50.2144 H   0  0  0  0  0  0  0  0  0  0  0  0
   59.3298   28.3532   48.2675 H   0  0  0  0  0  0  0  0  0  0  0  0
   60.7876   32.2693   47.1683 H   0  0  0  0  0  0  0  0  0  0  0  0
   55.0884   32.0013   51.2039 H   0  0  0  0  0  0  0  0  0  0  0  0
   52.2203   31.0919   53.2833 H   0  0  0  0  0  0  0  0  0  0  0  0
  1  2  2  0
  2  3  1  0
  3  4  1  0
  4  5  1  0
  5  6  2  0
  5  7  1  0
  7  8  1  0
  8  9  2  0
  9 10  1  0
 10 11  2  0
 11 12  1  0
 11 13  1  0
 13 14  2  0
 14 15  1  0
  4 16  2  0
 16 17  1  0
 17 18  2  3
 18 19  1  0
 19 20  1  0
 20 21  1  0
 21 22  2  0
 21 23  1  0
 23 24  1  0
 24 25  1  0
 17  2  1  0
 24 19  2  0
 14  8  1  0
  1 26  1  0
  1 27  1  0
  3 28  1  0
  7 29  1  0
  7 30  1  0
  9 31  1  0
 10 32  1  0
 13 33  1  0
 16 34  1  0
 18 35  1  0
M  CHG  3  20  -1  23  -1  25  -1
M  END
>  <UniqueID>  (82) 
77

>  <SMILES>  (82) 
C=c1[nH]c(C(=O)Cc2ccc(F)cc2Cl)cc1=Cc1[n-]c(=O)[n-]c1[O-]

>  <Energy>  (82) 
104.9312372299059

>  <Genealogy>  (82) 
C=c1[nH]c(C(=O)Cc2ccc(F)cc2Cl)cc1=Cc1[n-]c(=O)[n-]c1[O-] (protonated)
C=c1[nH]c(C(=O)Cc2ccc(F)cc2Cl)cc1=Cc1[n-]c(=O)[n-]c1[O-] (3D coordinates assigned)
C=c1[nH]c(C(=O)Cc2ccc(F)cc2Cl)cc1=Cc1[n-]c(=O)[n-]c1[O-] (optimized conformer: 104.9312372299059 kcal/mol)

>  <smiles>  (82) 
C=c1[nH]c(C(=O)Cc2ccc(F)cc2Cl)cc1=Cc1[nH]c(=O)[nH]c1O

>  <score_type>  (82) 
oracle

>  <origin>  (82) 
adg

>  <m_score__min__energy>  (82) 
-16.940000000000001

>  <m_primary>  (82) 
energy

$$$$
82:0
     RDKit          3D

 67 71  0  0  0  0  0  0  0  0999 V2000
   54.7650   27.0950   46.5800 H   0  0  0  0  0  0  0  0  0  0  0  0
   54.7900   26.2730   45.9300 N   0  0  0  0  0  0  0  0  0  0  0  0
   56.3230   25.5000   46.1320 S   0  0  0  0  0  0  0  0  0  0  0  0
   56.2230   24.4660   47.2220 O   0  0  0  0  0  0  0  0  0  0  0  0
   56.7150   24.8140   44.8520 O   0  0  0  0  0  0  0  0  0  0  0  0
   57.5400   26.7040   46.5580 C   0  0  0  0  0  0  0  0  0  0  0  0
   58.5220   26.4130   47.5160 C   0  0  0  0  0  0  0  0  0  0  0  0
   58.5406   25.4243   47.9977 H   0  0  0  0  0  0  0  0  0  0  0  0
   59.4780   27.3740   47.8620 C   0  0  0  0  0  0  0  0  0  0  0  0
   60.2340   27.1434   48.6270 H   0  0  0  0  0  0  0  0  0  0  0  0
   59.4770   28.6300   47.2380 C   0  0  0  0  0  0  0  0  0  0  0  0
   60.5070   29.6650   47.6080 C   0  0  0  0  0  0  0  0  0  0  0  0
   60.8423   30.1831   46.6975 H   0  0  0  0  0  0  0  0  0  0  0  0
   61.3563   29.1626   48.0941 H   0  0  0  0  0  0  0  0  0  0  0  0
   59.9370   30.6520   48.5460 N   0  0  0  0  0  0  0  0  0  0  0  0
   60.3110   30.5930   49.9390 C   0  0  0  0  0  0  0  0  0  0  0  0
   60.0570   29.4750   50.6700 C   0  0  0  0  0  0  0  0  0  0  0  0
   60.8350   28.2750   50.4490 C   0  0  0  0  0  0  0  0  0  0  0  0
   61.4540   27.3140   50.2780 N   0  0  0  0  0  0  0  0  0  0  0  0
   59.0320   29.3980   51.7290 C   0  0  0  0  0  0  0  0  0  0  0  0
   59.3410   28.9590   52.8720 O   0  0  0  0  0  0  0  0  0  0  0  0
   57.6660   29.7000   51.4220 N   0  0  0  0  0  0  0  0  0  0  0  0
   56.7240   30.7770   52.3990 S   0  0  0  0  0  0  0  0  0  0  0  0
   56.2590   30.0430   53.6260 O   0  0  0  0  0  0  0  0  0  0  0  0
   55.5300   31.2410   51.6110 O   0  0  0  0  0  0  0  0  0  0  0  0
   57.7170   32.1440   52.8970 C   0  0  0  0  0  0  0  0  0  0  0  0
   58.0040   33.1680   51.9790 C   0  0  0  0  0  0  0  0  0  0  0  0
   57.6247   33.1031   50.9485 H   0  0  0  0  0  0  0  0  0  0  0  0
   58.7710   34.2700   52.3720 C   0  0  0  0  0  0  0  0  0  0  0  0
   58.9949   35.0703   51.6513 H   0  0  0  0  0  0  0  0  0  0  0  0
   59.2530   34.3530   53.6830 C   0  0  0  0  0  0  0  0  0  0  0  0
   59.8532   35.2209   53.9936 H   0  0  0  0  0  0  0  0  0  0  0  0
   58.9730   33.3350   54.5980 C   0  0  0  0  0  0  0  0  0  0  0  0
   59.3528   33.4025   55.6282 H   0  0  0  0  0  0  0  0  0  0  0  0
   58.2110   32.2310   54.2060 C   0  0  0  0  0  0  0  0  0  0  0  0
   57.9982   31.4278   54.9269 H   0  0  0  0  0  0  0  0  0  0  0  0
   60.8620   31.8460   50.5230 C   0  0  0  0  0  0  0  0  0  0  0  0
   61.3260   31.8680   51.6950 O   0  0  0  0  0  0  0  0  0  0  0  0
   60.7720   33.0720   49.7650 N   0  0  0  0  0  0  0  0  0  0  0  0
   61.6530   34.2030   50.1340 C   0  0  0  0  0  0  0  0  0  0  0  0
   61.5621   34.9902   49.3711 H   0  0  0  0  0  0  0  0  0  0  0  0
   61.3407   34.5750   51.1209 H   0  0  0  0  0  0  0  0  0  0  0  0
   63.0980   33.7740   50.2260 C   0  0  0  0  0  0  0  0  0  0  0  0
   63.8900   34.1580   51.3230 C   0  0  0  0  0  0  0  0  0  0  0  0
   63.4749   34.8267   52.0914 H   0  0  0  0  0  0  0  0  0  0  0  0
   65.2020   33.6930   51.4400 C   0  0  0  0  0  0  0  0  0  0  0  0
   65.8208   34.0056   52.2940 H   0  0  0  0  0  0  0  0  0  0  0  0
   65.7300   32.8320   50.4750 C   0  0  0  0  0  0  0  0  0  0  0  0
   66.7648   32.4709   50.5691 H   0  0  0  0  0  0  0  0  0  0  0  0
   64.9480   32.4290   49.3920 C   0  0  0  0  0  0  0  0  0  0  0  0
   65.3639   31.7462   48.6365 H   0  0  0  0  0  0  0  0  0  0  0  0
   63.6350   32.8940   49.2680 C   0  0  0  0  0  0  0  0  0  0  0  0
   63.0183   32.5700   48.4167 H   0  0  0  0  0  0  0  0  0  0  0  0
   59.8680   33.1170   48.6270 C   0  0  0  0  0  0  0  0  0  0  0  0
   59.3760   34.3340   48.1010 C   0  0  0  0  0  0  0  0  0  0  0  0
   59.6864   35.2870   48.5542 H   0  0  0  0  0  0  0  0  0  0  0  0
   58.5000   34.3400   47.0120 C   0  0  0  0  0  0  0  0  0  0  0  0
   58.1441   35.2954   46.5990 H   0  0  0  0  0  0  0  0  0  0  0  0
   58.0770   33.1390   46.4490 C   0  0  0  0  0  0  0  0  0  0  0  0
   57.3796   33.1463   45.5983 H   0  0  0  0  0  0  0  0  0  0  0  0
   58.5370   31.9260   46.9630 C   0  0  0  0  0  0  0  0  0  0  0  0
   58.1862   30.9795   46.5258 H   0  0  0  0  0  0  0  0  0  0  0  0
   59.4450   31.9050   48.0350 C   0  0  0  0  0  0  0  0  0  0  0  0
   58.4830   28.9250   46.2880 C   0  0  0  0  0  0  0  0  0  0  0  0
   58.4654   29.9121   45.8029 H   0  0  0  0  0  0  0  0  0  0  0  0
   57.5170   27.9700   45.9570 C   0  0  0  0  0  0  0  0  0  0  0  0
   56.7357   28.2132   45.2219 H   0  0  0  0  0  0  0  0  0  0  0  0
  1  2  1  0
  2  3  1  0
  3  4  2  0
  3  5  2  0
  3  6  1  0
  6  7  2  0
  7  8  1  0
  7  9  1  0
  9 10  1  0
  9 11  2  0
 11 12  1  0
 12 13  1  0
 12 14  1  0
 12 15  1  0
 15 16  1  0
 16 17  2  0
 17 18  1  0
 18 19  3  0
 17 20  1  0
 20 21  2  0
 20 22  1  0
 22 23  1  0
 23 24  2  0
 23 25  2  0
 23 26  1  0
 26 27  2  0
 27 28  1  0
 27 29  1  0
 29 30  1  0
 29 31  2  0
 31 32  1  0
 31 33  1  0
 33 34  1  0
 33 35  2  0
 35 36  1  0
 16 37  1  0
 37 38  2  0
 37 39  1  0
 39 40  1  0
 40 41  1  0
 40 42  1  0
 40 43  1  0
 43 44  2  0
 44 45  1  0
 44 46  1  0
 46 47  1  0
 46 48  2  0
 48 49  1  0
 48 50  1  0
 50 51  1  0
 50 52  2  0
 52 53  1  0
 39 54  1  0
 54 55  2  0
 55 56  1  0
 55 57  1  0
 57 58  1  0
 57 59  2  0
 59 60  1  0
 59 61  1  0
 61 62  1  0
 61 63  2  0
 11 64  1  0
 64 65  1  0
 64 66  2  0
 66 67  1  0
 66  6  1  0
 63 15  1  0
 35 26  1  0
 52 43  1  0
 63 54  1  0
M  CHG  2   2  -1  22  -1
M  END
>  <UniqueID>  (83) 
78

>  <SMILES>  (83) 
N#C/C(C(=O)[N-]S(=O)(=O)c1ccccc1)=C1/C(=O)N(Cc2ccccc2)c2ccccc2N1Cc1ccc(S([NH-])(=O)=O)cc1

>  <Energy>  (83) 
97.62759400689332

>  <Genealogy>  (83) 
N#CC(C(=O)[N-]S(=O)(=O)c1ccccc1)=C1C(=O)N(Cc2ccccc2)c2ccccc2N1Cc1ccc(S([NH-])(=O)=O)cc1 (protonated)
N#C/C(C(=O)[N-]S(=O)(=O)c1ccccc1)=C1/C(=O)N(Cc2ccccc2)c2ccccc2N1Cc1ccc(S([NH-])(=O)=O)cc1 (cis-trans isomerization)
N#C/C(C(=O)[N-]S(=O)(=O)c1ccccc1)=C1/C(=O)N(Cc2ccccc2)c2ccccc2N1Cc1ccc(S([NH-])(=O)=O)cc1 (3D coordinates assigned)
N#C/C(C(=O)[N-]S(=O)(=O)c1ccccc1)=C1/C(=O)N(Cc2ccccc2)c2ccccc2N1Cc1ccc(S([NH-])(=O)=O)cc1 (nonaromatic ring conformer: 97.62759400689332 kcal/mol)

>  <smiles>  (83) 
N#CC(C(=O)NS(=O)(=O)c1ccccc1)=C1C(=O)N(Cc2ccccc2)c2ccccc2N1Cc1ccc(S(N)(=O)=O)cc1

>  <score_type>  (83) 
oracle

>  <origin>  (83) 
adg

>  <m_score__min__energy>  (83) 
-14.970000000000001

>  <m_primary>  (83) 
energy

$$$$
83:0
     RDKit          3D

 41 44  0  0  0  0  0  0  0  0999 V2000
   58.0530   25.1670   45.2590 C   0  0  0  0  0  0  0  0  0  0  0  0
   58.0170   26.4870   45.3940 C   0  0  0  0  0  0  0  0  0  0  0  0
   59.1730   27.2380   45.6960 N   0  0  0  0  0  0  0  0  0  0  0  0
   59.1150   28.5310   45.8220 C   0  0  0  0  0  0  0  0  0  0  0  0
   57.8990   29.3080   45.6710 C   0  0  0  0  0  0  0  0  0  0  0  0
   57.7890   30.7370   45.7390 C   0  0  0  0  0  0  0  0  0  0  0  0
   56.9720   31.2760   44.8880 O   0  0  0  0  0  0  0  0  0  0  0  0
   58.4170   31.6580   46.5780 N   0  0  0  0  0  0  0  0  0  0  0  0
   58.7630   31.3070   47.9740 C   0  0  0  0  0  0  0  0  0  0  0  0
   60.2590   31.2800   48.0110 C   0  0  0  0  0  0  0  0  0  0  0  0
   60.7630   32.5350   47.4930 N   0  0  0  0  0  0  0  0  0  0  0  0
   62.1060   32.9170   47.8710 C   0  0  0  0  0  0  0  0  0  0  0  0
   63.1560   31.8050   47.5670 C   0  0  0  0  0  0  0  0  0  0  0  0
   63.1760   33.1630   46.8800 C   0  0  0  0  0  0  0  0  0  0  0  0
   60.0410   33.4030   46.6510 C   0  0  0  0  0  0  0  0  0  0  0  0
   60.4380   34.6660   46.2790 C   0  0  0  0  0  0  0  0  0  0  0  0
   59.6140   35.4170   45.4590 C   0  0  0  0  0  0  0  0  0  0  0  0
   58.3920   34.9450   44.9900 C   0  0  0  0  0  0  0  0  0  0  0  0
   57.9950   33.6990   45.3520 C   0  0  0  0  0  0  0  0  0  0  0  0
   58.8330   32.9580   46.1760 C   0  0  0  0  0  0  0  0  0  0  0  0
   56.7930   28.5980   45.3840 C   0  0  0  0  0  0  0  0  0  0  0  0
   55.5560   29.2190   45.2120 O   0  0  0  0  0  0  0  0  0  0  0  0
   56.8050   27.1860   45.2360 N   0  0  0  0  0  0  0  0  0  0  0  0
   57.1324   24.6129   45.0232 H   0  0  0  0  0  0  0  0  0  0  0  0
   59.0034   24.6272   45.3829 H   0  0  0  0  0  0  0  0  0  0  0  0
   60.0452   29.0688   46.0576 H   0  0  0  0  0  0  0  0  0  0  0  0
   58.3733   32.0641   48.6703 H   0  0  0  0  0  0  0  0  0  0  0  0
   58.3262   30.3439   48.2767 H   0  0  0  0  0  0  0  0  0  0  0  0
   60.6005   31.1446   49.0478 H   0  0  0  0  0  0  0  0  0  0  0  0
   60.6323   30.4465   47.3979 H   0  0  0  0  0  0  0  0  0  0  0  0
   61.7542   33.5260   48.7168 H   0  0  0  0  0  0  0  0  0  0  0  0
   63.9238   31.5454   48.3107 H   0  0  0  0  0  0  0  0  0  0  0  0
   63.1270   30.7536   47.2448 H   0  0  0  0  0  0  0  0  0  0  0  0
   63.9786   33.8778   47.1141 H   0  0  0  0  0  0  0  0  0  0  0  0
   63.1815   33.4852   45.8283 H   0  0  0  0  0  0  0  0  0  0  0  0
   61.3979   35.0740   46.6286 H   0  0  0  0  0  0  0  0  0  0  0  0
   59.9379   36.4267   45.1665 H   0  0  0  0  0  0  0  0  0  0  0  0
   57.7612   35.5687   44.3396 H   0  0  0  0  0  0  0  0  0  0  0  0
   57.0366   33.2872   45.0029 H   0  0  0  0  0  0  0  0  0  0  0  0
   55.3170   30.0940   45.6260 H   0  0  0  0  0  0  0  0  0  0  0  0
   55.9510   26.6380   45.0140 H   0  0  0  0  0  0  0  0  0  0  0  0
  1  2  2  0
  2  3  1  0
  3  4  2  0
  4  5  1  0
  5  6  1  0
  6  7  2  0
  6  8  1  0
  8  9  1  0
  9 10  1  0
 10 11  1  0
 11 12  1  0
 12 13  1  0
 13 14  1  0
 11 15  1  0
 15 16  2  0
 16 17  1  0
 17 18  2  0
 18 19  1  0
 19 20  2  0
  5 21  2  0
 21 22  1  0
 21 23  1  0
 23  2  1  0
 20  8  1  0
 14 12  1  0
 20 15  1  0
  1 24  1  0
  1 25  1  0
  4 26  1  0
  9 27  1  0
  9 28  1  0
 10 29  1  0
 10 30  1  0
 12 31  1  0
 13 32  1  0
 13 33  1  0
 14 34  1  0
 14 35  1  0
 16 36  1  0
 17 37  1  0
 18 38  1  0
 19 39  1  0
 22 40  1  0
 23 41  1  0
M  END
>  <smiles>  (84) 
C=C1N=CC(C(=O)N2CCN(C3CC3)c3ccccc32)=C(O)N1

>  <score_type>  (84) 
oracle

>  <origin>  (84) 
adg

>  <m_score__min__energy>  (84) 
-8.8399999999999999

>  <m_primary>  (84) 
energy

$$$$
84:0
     RDKit          3D

 63 67  0  0  0  0  0  0  0  0999 V2000
   65.1820   26.8480   52.4200 C   0  0  0  0  0  0  0  0  0  0  0  0
   63.9460   26.1860   53.0230 C   0  0  0  0  0  0  0  0  0  0  0  0
   62.8540   26.0470   51.9980 C   0  0  0  0  0  0  0  0  0  0  0  0
   62.7230   24.9300   51.4260 O   0  0  0  0  0  0  0  0  0  0  0  0
   61.9620   27.1330   51.6520 N   0  0  0  0  0  0  0  0  0  0  0  0
   61.1370   26.9960   50.4370 C   0  0  0  0  0  0  0  0  0  0  0  0
   60.2470   28.2210   50.2080 C   0  0  0  0  0  0  0  0  0  0  0  0
   61.0280   29.4440   50.4300 N   0  0  0  0  0  0  0  0  0  0  0  0
   61.1210   30.4510   49.4070 C   0  0  0  0  0  0  0  0  0  0  0  0
   60.0570   30.6500   48.5220 C   0  0  0  0  0  0  0  0  0  0  0  0
   60.1550   31.5980   47.4970 C   0  0  0  0  0  0  0  0  0  0  0  0
   59.0260   31.7070   46.5450 C   0  0  0  0  0  0  0  0  0  0  0  0
   58.2580   32.8330   46.2980 C   0  0  0  0  0  0  0  0  0  0  0  0
   57.4070   32.5020   45.2620 C   0  0  0  0  0  0  0  0  0  0  0  0
   57.6300   31.2300   44.8780 N   0  0  0  0  0  0  0  0  0  0  0  0
   57.0000   30.5530   43.7520 C   0  0  0  0  0  0  0  0  0  0  0  0
   58.6310   30.7450   45.6350 C   0  0  0  0  0  0  0  0  0  0  0  0
   61.3290   32.3820   47.3940 C   0  0  0  0  0  0  0  0  0  0  0  0
   61.4580   33.4170   46.4450 C   0  0  0  0  0  0  0  0  0  0  0  0
   62.6310   34.1650   46.3640 C   0  0  0  0  0  0  0  0  0  0  0  0
   63.6870   33.9140   47.2330 C   0  0  0  0  0  0  0  0  0  0  0  0
   63.5810   32.9170   48.2070 C   0  0  0  0  0  0  0  0  0  0  0  0
   64.6930   32.7170   49.1040 C   0  0  0  0  0  0  0  0  0  0  0  0
   65.6280   32.5570   49.8500 C   0  0  0  0  0  0  0  0  0  0  0  0
   66.7450   32.3580   50.7340 C   0  0  0  0  0  0  0  0  0  0  0  0
   67.7460   33.3330   50.8310 C   0  0  0  0  0  0  0  0  0  0  0  0
   68.8350   33.1340   51.6880 C   0  0  0  0  0  0  0  0  0  0  0  0
   68.9250   31.9640   52.4470 C   0  0  0  0  0  0  0  0  0  0  0  0
   67.9260   30.9890   52.3500 C   0  0  0  0  0  0  0  0  0  0  0  0
   66.8370   31.1850   51.4960 C   0  0  0  0  0  0  0  0  0  0  0  0
   62.3960   32.1450   48.3050 C   0  0  0  0  0  0  0  0  0  0  0  0
   62.2600   31.1840   49.2700 N   0  0  0  0  0  0  0  0  0  0  0  0
   61.8120   29.5940   51.6630 C   0  0  0  0  0  0  0  0  0  0  0  0
   61.7770   28.3160   52.5110 C   0  0  0  0  0  0  0  0  0  0  0  0
   65.8401   27.2005   53.2279 H   0  0  0  0  0  0  0  0  0  0  0  0
   65.7224   26.1186   51.7988 H   0  0  0  0  0  0  0  0  0  0  0  0
   64.8743   27.7020   51.7988 H   0  0  0  0  0  0  0  0  0  0  0  0
   64.2185   25.1876   53.3957 H   0  0  0  0  0  0  0  0  0  0  0  0
   63.5766   26.8169   53.8449 H   0  0  0  0  0  0  0  0  0  0  0  0
   61.8010   26.8719   49.5688 H   0  0  0  0  0  0  0  0  0  0  0  0
   60.4839   26.1204   50.5662 H   0  0  0  0  0  0  0  0  0  0  0  0
   59.8682   28.2107   49.1753 H   0  0  0  0  0  0  0  0  0  0  0  0
   59.4008   28.1948   50.9103 H   0  0  0  0  0  0  0  0  0  0  0  0
   59.1367   30.0575   48.6320 H   0  0  0  0  0  0  0  0  0  0  0  0
   58.3147   33.7983   46.8224 H   0  0  0  0  0  0  0  0  0  0  0  0
   56.6596   33.1755   44.8173 H   0  0  0  0  0  0  0  0  0  0  0  0
   56.2955   29.7959   44.1269 H   0  0  0  0  0  0  0  0  0  0  0  0
   56.4570   31.2878   43.1395 H   0  0  0  0  0  0  0  0  0  0  0  0
   57.7719   30.0641   43.1395 H   0  0  0  0  0  0  0  0  0  0  0  0
   59.0671   29.7393   45.5437 H   0  0  0  0  0  0  0  0  0  0  0  0
   60.6243   33.6362   45.7617 H   0  0  0  0  0  0  0  0  0  0  0  0
   62.7220   34.9588   45.6080 H   0  0  0  0  0  0  0  0  0  0  0  0
   64.6120   34.5039   47.1535 H   0  0  0  0  0  0  0  0  0  0  0  0
   67.6765   34.2544   50.2342 H   0  0  0  0  0  0  0  0  0  0  0  0
   69.6210   33.8997   51.7641 H   0  0  0  0  0  0  0  0  0  0  0  0
   69.7809   31.8096   53.1205 H   0  0  0  0  0  0  0  0  0  0  0  0
   67.9978   30.0675   52.9464 H   0  0  0  0  0  0  0  0  0  0  0  0
   66.0517   30.4183   51.4218 H   0  0  0  0  0  0  0  0  0  0  0  0
   63.0320   31.0100   49.9520 H   0  0  0  0  0  0  0  0  0  0  0  0
   62.8557   29.8184   51.3978 H   0  0  0  0  0  0  0  0  0  0  0  0
   61.3732   30.4119   52.2534 H   0  0  0  0  0  0  0  0  0  0  0  0
   62.5836   28.3529   53.2581 H   0  0  0  0  0  0  0  0  0  0  0  0
   60.8022   28.2455   53.0158 H   0  0  0  0  0  0  0  0  0  0  0  0
  1  2  1  0
  2  3  1  0
  3  4  2  0
  3  5  1  0
  5  6  1  0
  6  7  1  0
  7  8  1  0
  8  9  1  0
  9 10  2  0
 10 11  1  0
 11 12  1  0
 12 13  1  0
 13 14  2  0
 14 15  1  0
 15 16  1  0
 15 17  1  0
 11 18  2  0
 18 19  1  0
 19 20  2  0
 20 21  1  0
 21 22  2  0
 22 23  1  0
 23 24  3  0
 24 25  1  0
 25 26  2  0
 26 27  1  0
 27 28  2  0
 28 29  1  0
 29 30  2  0
 22 31  1  0
 31 32  2  0
  8 33  1  0
 33 34  1  0
 34  5  1  0
 32  9  1  0
 17 12  2  0
 31 18  1  0
 30 25  1  0
  1 35  1  0
  1 36  1  0
  1 37  1  0
  2 38  1  0
  2 39  1  0
  6 40  1  0
  6 41  1  0
  7 42  1  0
  7 43  1  0
 10 44  1  0
 13 45  1  0
 14 46  1  0
 16 47  1  0
 16 48  1  0
 16 49  1  0
 17 50  1  0
 19 51  1  0
 20 52  1  0
 21 53  1  0
 26 54  1  0
 27 55  1  0
 28 56  1  0
 29 57  1  0
 30 58  1  0
 32 59  1  0
 33 60  1  0
 33 61  1  0
 34 62  1  0
 34 63  1  0
M  CHG  1  32   1
M  END
>  <UniqueID>  (85) 
79

>  <SMILES>  (85) 
CCC(=O)N1CCN(c2cc(-c3ccn(C)c3)c3cccc(C#Cc4ccccc4)c3[nH+]2)CC1

>  <Energy>  (85) 
103.92819939410882

>  <Genealogy>  (85) 
CCC(=O)N1CCN(c2cc(-c3ccn(C)c3)c3cccc(C#Cc4ccccc4)c3[nH+]2)CC1 (protonated)
CCC(=O)N1CCN(c2cc(-c3ccn(C)c3)c3cccc(C#Cc4ccccc4)c3[nH+]2)CC1 (3D coordinates assigned)
CCC(=O)N1CCN(c2cc(-c3ccn(C)c3)c3cccc(C#Cc4ccccc4)c3[nH+]2)CC1 (nonaromatic ring conformer: 103.92819939410882 kcal/mol)

>  <smiles>  (85) 
CCC(=O)N1CCN(c2cc(-c3ccn(C)c3)c3cccc(C#Cc4ccccc4)c3n2)CC1

>  <score_type>  (85) 
oracle

>  <origin>  (85) 
adg

>  <m_score__min__energy>  (85) 
-6.4500000000000002

>  <m_primary>  (85) 
energy

$$$$
85:0
     RDKit          3D

 84 88  0  0  0  0  0  0  0  0999 V2000
   66.9180   30.5340   52.4040 C   0  0  0  0  0  0  0  0  0  0  0  0
   66.8520   30.7180   50.8870 C   0  0  0  0  0  0  0  0  0  0  0  0
   66.4890   32.1050   50.5410 N   0  0  0  0  0  0  0  0  0  0  0  0
   67.5500   33.1270   50.4390 C   0  0  0  0  0  0  0  0  0  0  0  0
   67.2460   34.3200   51.3430 C   0  0  0  0  0  0  0  0  0  0  0  0
   65.1030   32.4580   50.3090 C   0  0  0  0  0  0  0  0  0  0  0  0
   64.1720   32.4340   51.3600 C   0  0  0  0  0  0  0  0  0  0  0  0
   62.8430   32.8110   51.1510 C   0  0  0  0  0  0  0  0  0  0  0  0
   62.4040   33.2350   49.8760 C   0  0  0  0  0  0  0  0  0  0  0  0
   61.0820   33.6970   49.6100 C   0  0  0  0  0  0  0  0  0  0  0  0
   60.0620   33.8060   50.7290 C   0  0  0  0  0  0  0  0  0  0  0  0
   60.7250   33.9950   48.2600 C   0  0  0  0  0  0  0  0  0  0  0  0
   59.3220   34.4360   47.8410 C   0  0  0  0  0  0  0  0  0  0  0  0
   58.7780   33.6900   46.6270 C   0  0  0  0  0  0  0  0  0  0  0  0
   58.5620   34.4210   45.4460 C   0  0  0  0  0  0  0  0  0  0  0  0
   58.0310   33.8080   44.3140 C   0  0  0  0  0  0  0  0  0  0  0  0
   57.7090   32.4550   44.3340 C   0  0  0  0  0  0  0  0  0  0  0  0
   57.9290   31.6870   45.4900 C   0  0  0  0  0  0  0  0  0  0  0  0
   57.5940   30.2900   45.5310 N   0  0  0  0  0  0  0  0  0  0  0  0
   56.3330   29.5270   44.6170 S   0  0  0  0  0  0  0  0  0  0  0  0
   56.9540   29.1610   42.9900 C   0  0  0  0  0  0  0  0  0  0  0  0
   55.9250   28.2440   45.2880 O   0  0  0  0  0  0  0  0  0  0  0  0
   55.1520   30.4470   44.4990 O   0  0  0  0  0  0  0  0  0  0  0  0
   58.4920   32.2960   46.6330 C   0  0  0  0  0  0  0  0  0  0  0  0
   58.7040   31.4710   47.8360 C   0  0  0  0  0  0  0  0  0  0  0  0
   58.2950   31.8980   48.9490 O   0  0  0  0  0  0  0  0  0  0  0  0
   59.3920   30.2200   47.7330 N   0  0  0  0  0  0  0  0  0  0  0  0
   60.1680   29.5920   48.7660 C   0  0  0  0  0  0  0  0  0  0  0  0
   60.0300   28.2280   49.0870 C   0  0  0  0  0  0  0  0  0  0  0  0
   60.7770   27.6690   50.1290 C   0  0  0  0  0  0  0  0  0  0  0  0
   61.6890   28.4520   50.8520 C   0  0  0  0  0  0  0  0  0  0  0  0
   62.4250   27.8870   51.9550 N   0  0  0  0  0  0  0  0  0  0  0  0
   62.3900   26.4500   52.2400 C   0  0  0  0  0  0  0  0  0  0  0  0
   63.8180   25.8720   52.2520 C   0  0  0  0  0  0  0  0  0  0  0  0
   64.8500   26.8260   52.7370 N   0  0  0  0  0  0  0  0  0  0  0  0
   65.6750   27.3470   51.6310 C   0  0  0  0  0  0  0  0  0  0  0  0
   64.3000   27.9190   53.5680 C   0  0  0  0  0  0  0  0  0  0  0  0
   63.2590   28.7490   52.7990 C   0  0  0  0  0  0  0  0  0  0  0  0
   61.8540   29.8020   50.5030 C   0  0  0  0  0  0  0  0  0  0  0  0
   61.1110   30.3590   49.4580 C   0  0  0  0  0  0  0  0  0  0  0  0
   61.7080   33.8170   47.2580 C   0  0  0  0  0  0  0  0  0  0  0  0
   61.4260   33.9930   46.0430 O   0  0  0  0  0  0  0  0  0  0  0  0
   62.9430   33.4620   47.5700 O   0  0  0  0  0  0  0  0  0  0  0  0
   63.3260   33.1850   48.8060 C   0  0  0  0  0  0  0  0  0  0  0  0
   64.6590   32.8230   49.0280 C   0  0  0  0  0  0  0  0  0  0  0  0
   66.5865   31.4581   52.9002 H   0  0  0  0  0  0  0  0  0  0  0  0
   66.2621   29.7025   52.7014 H   0  0  0  0  0  0  0  0  0  0  0  0
   67.9529   30.3091   52.7014 H   0  0  0  0  0  0  0  0  0  0  0  0
   67.8351   30.4838   50.4526 H   0  0  0  0  0  0  0  0  0  0  0  0
   66.0833   30.0423   50.4839 H   0  0  0  0  0  0  0  0  0  0  0  0
   68.5094   32.6816   50.7409 H   0  0  0  0  0  0  0  0  0  0  0  0
   67.6005   33.4786   49.3979 H   0  0  0  0  0  0  0  0  0  0  0  0
   67.3246   34.0116   52.3959 H   0  0  0  0  0  0  0  0  0  0  0  0
   67.9676   35.1256   51.1420 H   0  0  0  0  0  0  0  0  0  0  0  0
   66.2269   34.6820   51.1420 H   0  0  0  0  0  0  0  0  0  0  0  0
   64.4936   32.1138   52.3620 H   0  0  0  0  0  0  0  0  0  0  0  0
   62.1302   32.7775   51.9881 H   0  0  0  0  0  0  0  0  0  0  0  0
   60.5758   33.7511   51.7001 H   0  0  0  0  0  0  0  0  0  0  0  0
   59.5310   34.7660   50.6489 H   0  0  0  0  0  0  0  0  0  0  0  0
   59.3401   32.9799   50.6489 H   0  0  0  0  0  0  0  0  0  0  0  0
   58.6387   34.2672   48.6864 H   0  0  0  0  0  0  0  0  0  0  0  0
   59.3908   35.4973   47.5599 H   0  0  0  0  0  0  0  0  0  0  0  0
   58.8157   35.4909   45.4156 H   0  0  0  0  0  0  0  0  0  0  0  0
   57.8654   34.3966   43.3996 H   0  0  0  0  0  0  0  0  0  0  0  0
   57.2790   31.9828   43.4384 H   0  0  0  0  0  0  0  0  0  0  0  0
   57.8988   28.6041   43.0749 H   0  0  0  0  0  0  0  0  0  0  0  0
   56.2175   28.5526   42.4447 H   0  0  0  0  0  0  0  0  0  0  0  0
   57.1295   30.1001   42.4447 H   0  0  0  0  0  0  0  0  0  0  0  0
   59.3314   27.5991   48.5156 H   0  0  0  0  0  0  0  0  0  0  0  0
   60.6482   26.6066   50.3836 H   0  0  0  0  0  0  0  0  0  0  0  0
   61.9241   26.2863   53.2229 H   0  0  0  0  0  0  0  0  0  0  0  0
   61.8060   25.9442   51.4570 H   0  0  0  0  0  0  0  0  0  0  0  0
   63.8284   24.9881   52.9067 H   0  0  0  0  0  0  0  0  0  0  0  0
   64.0727   25.6287   51.2099 H   0  0  0  0  0  0  0  0  0  0  0  0
   66.5377   27.8918   52.0422 H   0  0  0  0  0  0  0  0  0  0  0  0
   66.0309   26.5095   51.0130 H   0  0  0  0  0  0  0  0  0  0  0  0
   65.0718   28.0283   51.0130 H   0  0  0  0  0  0  0  0  0  0  0  0
   63.8222   27.4842   54.4583 H   0  0  0  0  0  0  0  0  0  0  0  0
   65.1285   28.5849   53.8510 H   0  0  0  0  0  0  0  0  0  0  0  0
   62.6173   29.2787   53.5185 H   0  0  0  0  0  0  0  0  0  0  0  0
   63.7873   29.4676   52.1552 H   0  0  0  0  0  0  0  0  0  0  0  0
   62.5725   30.4253   51.0554 H   0  0  0  0  0  0  0  0  0  0  0  0
   61.2695   31.4107   49.1772 H   0  0  0  0  0  0  0  0  0  0  0  0
   65.3688   32.8244   48.1876 H   0  0  0  0  0  0  0  0  0  0  0  0
  1  2  1  0
  2  3  1  0
  3  4  1  0
  4  5  1  0
  3  6  1  0
  6  7  2  0
  7  8  1  0
  8  9  2  0
  9 10  1  0
 10 11  1  0
 10 12  2  0
 12 13  1  0
 13 14  1  0
 14 15  2  0
 15 16  1  0
 16 17  2  0
 17 18  1  0
 18 19  1  0
 19 20  1  0
 20 21  1  0
 20 22  2  0
 20 23  2  0
 18 24  2  0
 24 25  1  0
 25 26  2  0
 25 27  1  0
 27 28  1  0
 28 29  2  0
 29 30  1  0
 30 31  2  0
 31 32  1  0
 32 33  1  0
 33 34  1  0
 34 35  1  0
 35 36  1  0
 35 37  1  0
 37 38  1  0
 31 39  1  0
 39 40  2  0
 12 41  1  0
 41 42  2  0
 41 43  1  0
 43 44  1  0
 44 45  2  0
 45  6  1  0
 44  9  1  0
 24 14  1  0
 40 28  1  0
 38 32  1  0
  1 46  1  0
  1 47  1  0
  1 48  1  0
  2 49  1  0
  2 50  1  0
  4 51  1  0
  4 52  1  0
  5 53  1  0
  5 54  1  0
  5 55  1  0
  7 56  1  0
  8 57  1  0
 11 58  1  0
 11 59  1  0
 11 60  1  0
 13 61  1  0
 13 62  1  0
 15 63  1  0
 16 64  1  0
 17 65  1  0
 21 66  1  0
 21 67  1  0
 21 68  1  0
 29 69  1  0
 30 70  1  0
 33 71  1  0
 33 72  1  0
 34 73  1  0
 34 74  1  0
 36 75  1  0
 36 76  1  0
 36 77  1  0
 37 78  1  0
 37 79  1  0
 38 80  1  0
 38 81  1  0
 39 82  1  0
 40 83  1  0
 45 84  1  0
M  CHG  2  19  -1  27  -1
M  END
>  <UniqueID>  (86) 
80

>  <SMILES>  (86) 
CCN(CC)c1ccc2c(C)c(Cc3cccc([N-]S(C)(=O)=O)c3C(=O)[N-]c3ccc(N4CCN(C)CC4)cc3)c(=O)oc2c1

>  <Energy>  (86) 
121.56218303940128

>  <Genealogy>  (86) 
CCN(CC)c1ccc2c(C)c(Cc3cccc([N-]S(C)(=O)=O)c3C(=O)[N-]c3ccc(N4CCN(C)CC4)cc3)c(=O)oc2c1 (protonated)
CCN(CC)c1ccc2c(C)c(Cc3cccc([N-]S(C)(=O)=O)c3C(=O)[N-]c3ccc(N4CCN(C)CC4)cc3)c(=O)oc2c1 (3D coordinates assigned)
CCN(CC)c1ccc2c(C)c(Cc3cccc([N-]S(C)(=O)=O)c3C(=O)[N-]c3ccc(N4CCN(C)CC4)cc3)c(=O)oc2c1 (nonaromatic ring conformer: 121.56218303940128 kcal/mol)

>  <smiles>  (86) 
CCN(CC)c1ccc2c(C)c(Cc3cccc(NS(C)(=O)=O)c3C(=O)Nc3ccc(N4CCN(C)CC4)cc3)c(=O)oc2c1

>  <score_type>  (86) 
oracle

>  <origin>  (86) 
adg

>  <m_score__min__energy>  (86) 
-13.76

>  <m_primary>  (86) 
energy

$$$$
86:0
     RDKit          3D

 55 58  0  0  0  0  0  0  0  0999 V2000
   59.3930   29.0380   44.4590 C   0  0  0  0  0  0  0  0  0  0  0  0
   59.1350   28.8450   45.7630 C   0  0  0  0  0  0  0  0  0  0  0  0
   58.5330   27.7150   46.3240 C   0  0  0  0  0  0  0  0  0  0  0  0
   58.1320   26.5970   45.6890 C   0  0  0  0  0  0  0  0  0  0  0  0
   57.3570   25.5280   46.3410 C   0  0  0  0  0  0  0  0  0  0  0  0
   57.9140   24.4070   46.8290 N   0  0  0  0  0  0  0  0  0  0  0  0
   56.8580   23.7090   47.2980 C   0  0  0  0  0  0  0  0  0  0  0  0
   56.9800   22.5860   47.8530 O   0  0  0  0  0  0  0  0  0  0  0  0
   55.6610   24.3070   47.1210 N   0  0  0  0  0  0  0  0  0  0  0  0
   55.9860   25.4520   46.5020 C   0  0  0  0  0  0  0  0  0  0  0  0
   55.0430   26.3770   46.0620 O   0  0  0  0  0  0  0  0  0  0  0  0
   58.4670   27.9480   47.6880 C   0  0  0  0  0  0  0  0  0  0  0  0
   59.0190   29.1940   47.9110 C   0  0  0  0  0  0  0  0  0  0  0  0
   59.1070   29.8190   49.2500 C   0  0  0  0  0  0  0  0  0  0  0  0
   58.5230   30.9150   49.4630 O   0  0  0  0  0  0  0  0  0  0  0  0
   59.7810   29.1530   50.3340 N   0  0  0  0  0  0  0  0  0  0  0  0
   59.2340   29.2690   51.6930 C   0  0  0  0  0  0  0  0  0  0  0  0
   60.1100   28.5490   52.7270 C   0  0  0  0  0  0  0  0  0  0  0  0
   60.5320   27.2340   52.2180 N   0  0  0  0  0  0  0  0  0  0  0  0
   60.5550   26.0870   53.0980 C   0  0  0  0  0  0  0  0  0  0  0  0
   60.8290   24.7070   52.5760 C   0  0  0  0  0  0  0  0  0  0  0  0
   60.3550   26.2340   54.3340 O   0  0  0  0  0  0  0  0  0  0  0  0
   61.0480   27.1140   50.8430 C   0  0  0  0  0  0  0  0  0  0  0  0
   61.0610   28.4650   50.1220 C   0  0  0  0  0  0  0  0  0  0  0  0
   59.4250   29.7460   46.7390 N   0  0  0  0  0  0  0  0  0  0  0  0
   60.0950   31.0450   46.5620 C   0  0  0  0  0  0  0  0  0  0  0  0
   59.1270   32.0960   46.0770 C   0  0  0  0  0  0  0  0  0  0  0  0
   57.8710   31.7340   45.5560 C   0  0  0  0  0  0  0  0  0  0  0  0
   56.9720   32.7180   45.1330 C   0  0  0  0  0  0  0  0  0  0  0  0
   57.3120   34.0690   45.2330 C   0  0  0  0  0  0  0  0  0  0  0  0
   56.4380   35.0210   44.8220 F   0  0  0  0  0  0  0  0  0  0  0  0
   58.5510   34.4390   45.7630 C   0  0  0  0  0  0  0  0  0  0  0  0
   59.4540   33.4590   46.1880 C   0  0  0  0  0  0  0  0  0  0  0  0
   59.8729   29.9699   44.1253 H   0  0  0  0  0  0  0  0  0  0  0  0
   59.1244   28.2642   43.7248 H   0  0  0  0  0  0  0  0  0  0  0  0
   58.3972   26.4762   44.6283 H   0  0  0  0  0  0  0  0  0  0  0  0
   54.0800   26.3410   46.3700 H   0  0  0  0  0  0  0  0  0  0  0  0
   58.0535   27.2695   48.4487 H   0  0  0  0  0  0  0  0  0  0  0  0
   59.1705   30.3340   51.9609 H   0  0  0  0  0  0  0  0  0  0  0  0
   58.2402   28.7975   51.7014 H   0  0  0  0  0  0  0  0  0  0  0  0
   61.0009   29.1597   52.9349 H   0  0  0  0  0  0  0  0  0  0  0  0
   59.5268   28.4037   53.6483 H   0  0  0  0  0  0  0  0  0  0  0  0
   60.9662   24.0160   53.4208 H   0  0  0  0  0  0  0  0  0  0  0  0
   59.9799   24.3718   51.9623 H   0  0  0  0  0  0  0  0  0  0  0  0
   61.7418   24.7216   51.9623 H   0  0  0  0  0  0  0  0  0  0  0  0
   62.0745   26.7204   50.8807 H   0  0  0  0  0  0  0  0  0  0  0  0
   60.3852   26.4351   50.2864 H   0  0  0  0  0  0  0  0  0  0  0  0
   61.8787   29.0838   50.5201 H   0  0  0  0  0  0  0  0  0  0  0  0
   61.2117   28.3009   49.0448 H   0  0  0  0  0  0  0  0  0  0  0  0
   60.5187   31.3646   47.5255 H   0  0  0  0  0  0  0  0  0  0  0  0
   60.8886   30.9282   45.8093 H   0  0  0  0  0  0  0  0  0  0  0  0
   57.5950   30.6718   45.4811 H   0  0  0  0  0  0  0  0  0  0  0  0
   55.9946   32.4273   44.7205 H   0  0  0  0  0  0  0  0  0  0  0  0
   58.8167   35.5032   45.8461 H   0  0  0  0  0  0  0  0  0  0  0  0
   60.4249   33.7561   46.6112 H   0  0  0  0  0  0  0  0  0  0  0  0
  1  2  2  0
  2  3  1  0
  3  4  2  3
  4  5  1  0
  5  6  1  0
  6  7  1  0
  7  8  2  0
  7  9  1  0
  9 10  1  0
 10 11  1  0
  3 12  1  0
 12 13  2  0
 13 14  1  0
 14 15  2  0
 14 16  1  0
 16 17  1  0
 17 18  1  0
 18 19  1  0
 19 20  1  0
 20 21  1  0
 20 22  2  0
 19 23  1  0
 23 24  1  0
 13 25  1  0
 25 26  1  0
 26 27  1  0
 27 28  2  0
 28 29  1  0
 29 30  2  0
 30 31  1  0
 30 32  1  0
 32 33  2  0
 25  2  1  0
 33 27  1  0
 10  5  2  0
 24 16  1  0
  1 34  1  0
  1 35  1  0
  4 36  1  0
 11 37  1  0
 12 38  1  0
 17 39  1  0
 17 40  1  0
 18 41  1  0
 18 42  1  0
 21 43  1  0
 21 44  1  0
 21 45  1  0
 23 46  1  0
 23 47  1  0
 24 48  1  0
 24 49  1  0
 26 50  1  0
 26 51  1  0
 28 52  1  0
 29 53  1  0
 32 54  1  0
 33 55  1  0
M  CHG  2   6  -1   9  -1
M  END
>  <UniqueID>  (87) 
81

>  <SMILES>  (87) 
C=c1c(=Cc2[n-]c(=O)[n-]c2O)cc(C(=O)N2CCN(C(C)=O)CC2)n1Cc1ccc(F)cc1

>  <Energy>  (87) 
126.85764727527267

>  <Genealogy>  (87) 
C=c1c(=Cc2[n-]c(=O)[n-]c2O)cc(C(=O)N2CCN(C(C)=O)CC2)n1Cc1ccc(F)cc1 (protonated)
C=c1c(=Cc2[n-]c(=O)[n-]c2O)cc(C(=O)N2CCN(C(C)=O)CC2)n1Cc1ccc(F)cc1 (3D coordinates assigned)
C=c1c(=Cc2[n-]c(=O)[n-]c2O)cc(C(=O)N2CCN(C(C)=O)CC2)n1Cc1ccc(F)cc1 (nonaromatic ring conformer: 126.85764727527267 kcal/mol)

>  <smiles>  (87) 
C=c1c(=Cc2[nH]c(=O)[nH]c2O)cc(C(=O)N2CCN(C(C)=O)CC2)n1Cc1ccc(F)cc1

>  <score_type>  (87) 
oracle

>  <origin>  (87) 
adg

>  <m_score__min__energy>  (87) 
-12.720000000000001

>  <m_primary>  (87) 
energy

$$$$
87:0
     RDKit          3D

 76 81  0  0  0  0  0  0  0  0999 V2000
   58.3030   21.9860   44.1240 C   0  0  0  0  0  0  0  0  0  0  0  0
   56.8980   23.0210   43.7780 S   0  0  0  0  0  0  0  0  0  0  0  0
   55.6810   22.4560   44.4550 O   0  0  0  0  0  0  0  0  0  0  0  0
   56.6520   23.0580   42.2950 O   0  0  0  0  0  0  0  0  0  0  0  0
   57.2120   24.6490   44.3690 C   0  0  0  0  0  0  0  0  0  0  0  0
   57.7670   25.6160   43.5210 C   0  0  0  0  0  0  0  0  0  0  0  0
   57.9990   26.9120   43.9880 C   0  0  0  0  0  0  0  0  0  0  0  0
   57.6740   27.2630   45.3100 C   0  0  0  0  0  0  0  0  0  0  0  0
   57.9180   28.6430   45.8070 C   0  0  0  0  0  0  0  0  0  0  0  0
   58.3040   28.8650   47.1500 C   0  0  0  0  0  0  0  0  0  0  0  0
   58.5320   30.1660   47.6210 C   0  0  0  0  0  0  0  0  0  0  0  0
   58.3840   31.2410   46.7410 C   0  0  0  0  0  0  0  0  0  0  0  0
   57.9860   31.0360   45.4440 C   0  0  0  0  0  0  0  0  0  0  0  0
   57.7560   29.7510   44.9490 C   0  0  0  0  0  0  0  0  0  0  0  0
   57.8410   32.3030   44.6910 C   0  0  0  0  0  0  0  0  0  0  0  0
   58.0670   33.3950   45.7520 C   0  0  0  0  0  0  0  0  0  0  0  0
   58.5710   32.6970   47.0370 C   0  0  2  0  0  0  0  0  0  0  0  0
   59.9770   33.0920   47.3180 N   0  0  0  0  0  0  0  0  0  0  0  0
   60.1460   34.2020   48.2740 C   0  0  0  0  0  0  0  0  0  0  0  0
   61.6070   34.2590   48.7600 C   0  0  0  0  0  0  0  0  0  0  0  0
   62.5830   33.7810   47.7520 N   0  0  0  0  0  0  0  0  0  0  0  0
   63.0590   32.1180   48.0390 S   0  0  0  0  0  0  0  0  0  0  0  0
   61.8490   31.2330   48.1570 O   0  0  0  0  0  0  0  0  0  0  0  0
   63.9260   31.6220   46.9130 O   0  0  0  0  0  0  0  0  0  0  0  0
   63.9970   32.0500   49.5610 C   0  0  0  0  0  0  0  0  0  0  0  0
   63.1470   32.3340   50.7740 C   0  0  0  0  0  0  0  0  0  0  0  0
   63.5860   33.1090   51.6680 O   0  0  0  0  0  0  0  0  0  0  0  0
   61.8200   31.7790   50.9080 N   0  0  0  0  0  0  0  0  0  0  0  0
   61.6190   30.3190   50.9150 C   0  0  0  0  0  0  0  0  0  0  0  0
   60.2580   29.9460   50.3330 C   0  0  0  0  0  0  0  0  0  0  0  0
   59.1720   30.6920   51.0460 C   0  0  0  0  0  0  0  0  0  0  0  0
   57.9250   30.0900   51.2780 C   0  0  0  0  0  0  0  0  0  0  0  0
   56.9080   30.8040   51.9160 C   0  0  0  0  0  0  0  0  0  0  0  0
   57.1240   32.1270   52.3110 C   0  0  0  0  0  0  0  0  0  0  0  0
   58.3570   32.7390   52.0670 C   0  0  0  0  0  0  0  0  0  0  0  0
   59.3920   32.0230   51.4420 C   0  0  0  0  0  0  0  0  0  0  0  0
   60.7000   32.7140   51.1340 C   0  0  0  0  0  0  0  0  0  0  0  0
   62.1140   33.9930   46.3700 C   0  0  0  0  0  0  0  0  0  0  0  0
   60.7700   33.2890   46.0880 C   0  0  0  0  0  0  0  0  0  0  0  0
   57.1090   26.2890   46.1540 C   0  0  0  0  0  0  0  0  0  0  0  0
   56.8800   24.9930   45.6850 C   0  0  0  0  0  0  0  0  0  0  0  0
   58.4302   21.8923   45.2126 H   0  0  0  0  0  0  0  0  0  0  0  0
   58.1411   20.9897   43.6867 H   0  0  0  0  0  0  0  0  0  0  0  0
   59.2065   22.4360   43.6867 H   0  0  0  0  0  0  0  0  0  0  0  0
   58.0211   25.3538   42.4834 H   0  0  0  0  0  0  0  0  0  0  0  0
   58.4393   27.6636   43.3162 H   0  0  0  0  0  0  0  0  0  0  0  0
   58.4263   28.0095   47.8306 H   0  0  0  0  0  0  0  0  0  0  0  0
   58.8231   30.3376   48.6678 H   0  0  0  0  0  0  0  0  0  0  0  0
   57.4520   29.6042   43.9021 H   0  0  0  0  0  0  0  0  0  0  0  0
   58.5945   32.3717   43.8926 H   0  0  0  0  0  0  0  0  0  0  0  0
   56.8633   32.3909   44.1947 H   0  0  0  0  0  0  0  0  0  0  0  0
   58.8188   34.1148   45.3960 H   0  0  0  0  0  0  0  0  0  0  0  0
   57.1338   33.9429   45.9491 H   0  0  0  0  0  0  0  0  0  0  0  0
   58.0308   32.9759   47.9537 H   0  0  0  0  0  0  0  0  0  0  0  0
   59.8888   35.1507   47.7803 H   0  0  0  0  0  0  0  0  0  0  0  0
   59.4837   34.0400   49.1372 H   0  0  0  0  0  0  0  0  0  0  0  0
   61.8497   35.3017   49.0129 H   0  0  0  0  0  0  0  0  0  0  0  0
   61.6856   33.5904   49.6299 H   0  0  0  0  0  0  0  0  0  0  0  0
   64.4329   31.0452   49.6626 H   0  0  0  0  0  0  0  0  0  0  0  0
   64.7765   32.8244   49.5092 H   0  0  0  0  0  0  0  0  0  0  0  0
   62.4085   29.8453   50.3132 H   0  0  0  0  0  0  0  0  0  0  0  0
   61.6608   29.9668   51.9563 H   0  0  0  0  0  0  0  0  0  0  0  0
   60.2360   30.2047   49.2641 H   0  0  0  0  0  0  0  0  0  0  0  0
   60.0959   28.8654   50.4596 H   0  0  0  0  0  0  0  0  0  0  0  0
   57.7484   29.0530   50.9564 H   0  0  0  0  0  0  0  0  0  0  0  0
   55.9366   30.3247   52.1076 H   0  0  0  0  0  0  0  0  0  0  0  0
   56.3227   32.6876   52.8146 H   0  0  0  0  0  0  0  0  0  0  0  0
   58.5176   33.7855   52.3655 H   0  0  0  0  0  0  0  0  0  0  0  0
   60.5670   33.3237   50.2281 H   0  0  0  0  0  0  0  0  0  0  0  0
   60.9590   33.3236   52.0123 H   0  0  0  0  0  0  0  0  0  0  0  0
   61.9889   35.0728   46.2016 H   0  0  0  0  0  0  0  0  0  0  0  0
   62.8657   33.5626   45.6920 H   0  0  0  0  0  0  0  0  0  0  0  0
   60.1881   33.9038   45.3856 H   0  0  0  0  0  0  0  0  0  0  0  0
   60.9893   32.2979   45.6641 H   0  0  0  0  0  0  0  0  0  0  0  0
   56.8459   26.5497   47.1898 H   0  0  0  0  0  0  0  0  0  0  0  0
   56.4369   24.2395   46.3527 H   0  0  0  0  0  0  0  0  0  0  0  0
  1  2  1  0
  2  3  2  0
  2  4  2  0
  2  5  1  0
  5  6  2  0
  6  7  1  0
  7  8  2  0
  8  9  1  0
  9 10  2  0
 10 11  1  0
 11 12  2  0
 12 13  1  0
 13 14  2  0
 13 15  1  0
 15 16  1  0
 16 17  1  0
 17 18  1  0
 18 19  1  0
 19 20  1  0
 20 21  1  0
 21 22  1  0
 22 23  2  0
 22 24  2  0
 22 25  1  0
 25 26  1  0
 26 27  2  0
 26 28  1  0
 28 29  1  0
 29 30  1  0
 30 31  1  0
 31 32  2  0
 32 33  1  0
 33 34  2  0
 34 35  1  0
 35 36  2  0
 36 37  1  0
 21 38  1  0
 38 39  1  0
  8 40  1  0
 40 41  2  0
 41  5  1  0
 14  9  1  0
 39 18  1  0
 17 12  1  0
 37 28  1  0
 36 31  1  0
  1 42  1  0
  1 43  1  0
  1 44  1  0
  6 45  1  0
  7 46  1  0
 10 47  1  0
 11 48  1  0
 14 49  1  0
 15 50  1  0
 15 51  1  0
 16 52  1  0
 16 53  1  0
 17 54  1  1
 19 55  1  0
 19 56  1  0
 20 57  1  0
 20 58  1  0
 25 59  1  0
 25 60  1  0
 29 61  1  0
 29 62  1  0
 30 63  1  0
 30 64  1  0
 32 65  1  0
 33 66  1  0
 34 67  1  0
 35 68  1  0
 37 69  1  0
 37 70  1  0
 38 71  1  0
 38 72  1  0
 39 73  1  0
 39 74  1  0
 40 75  1  0
 41 76  1  0
M  END
>  <UniqueID>  (88) 
82

>  <SMILES>  (88) 
CS(=O)(=O)c1ccc(-c2ccc3c(c2)CC[C@@H]3N2CCN(S(=O)(=O)CC(=O)N3CCc4ccccc4C3)CC2)cc1

>  <Energy>  (88) 
106.04079805346785

>  <Genealogy>  (88) 
CS(=O)(=O)c1ccc(-c2ccc3c(c2)CC[C@@H]3N2CCN(S(=O)(=O)CC(=O)N3CCc4ccccc4C3)CC2)cc1 (chirality)
CS(=O)(=O)c1ccc(-c2ccc3c(c2)CC[C@@H]3N2CCN(S(=O)(=O)CC(=O)N3CCc4ccccc4C3)CC2)cc1 (3D coordinates assigned)
CS(=O)(=O)c1ccc(-c2ccc3c(c2)CC[C@@H]3N2CCN(S(=O)(=O)CC(=O)N3CCc4ccccc4C3)CC2)cc1 (nonaromatic ring conformer: 106.04079805346785 kcal/mol)

>  <smiles>  (88) 
CS(=O)(=O)c1ccc(-c2ccc3c(c2)CCC3N2CCN(S(=O)(=O)CC(=O)N3CCc4ccccc4C3)CC2)cc1

>  <score_type>  (88) 
oracle

>  <origin>  (88) 
adg

>  <m_score__min__energy>  (88) 
-10.52

>  <m_primary>  (88) 
energy

$$$$
88:0
     RDKit          3D

 54 57  0  0  0  0  0  0  0  0999 V2000
   60.8170   26.3800   48.0650 O   0  0  0  0  0  0  0  0  0  0  0  0
   60.3780   27.4470   47.5610 C   0  0  0  0  0  0  0  0  0  0  0  0
   60.5200   27.6500   46.1500 N   0  0  0  0  0  0  0  0  0  0  0  0
   59.4780   28.0330   45.2410 C   0  0  0  0  0  0  0  0  0  0  0  0
   58.8210   27.0870   44.4350 C   0  0  0  0  0  0  0  0  0  0  0  0
   57.7910   27.4880   43.5800 C   0  0  0  0  0  0  0  0  0  0  0  0
   57.4020   28.8290   43.5310 C   0  0  0  0  0  0  0  0  0  0  0  0
   58.0370   29.7760   44.3460 C   0  0  0  0  0  0  0  0  0  0  0  0
   57.5690   31.4730   44.2940 S   0  0  0  0  0  0  0  0  0  0  0  0
   57.6070   31.9760   42.8760 O   0  0  0  0  0  0  0  0  0  0  0  0
   56.1690   31.6090   44.8250 O   0  0  0  0  0  0  0  0  0  0  0  0
   58.6650   32.4070   45.2830 N   0  0  0  0  0  0  0  0  0  0  0  0
   58.4980   33.8420   45.0460 C   0  0  0  0  0  0  0  0  0  0  0  0
   58.8390   34.5310   46.3480 C   0  0  0  0  0  0  0  0  0  0  0  0
   58.4020   33.5430   47.4070 C   0  0  0  0  0  0  0  0  0  0  0  0
   58.4300   32.1820   46.7170 C   0  0  0  0  0  0  0  0  0  0  0  0
   59.0670   29.3710   45.2060 C   0  0  0  0  0  0  0  0  0  0  0  0
   59.6690   28.4210   48.4190 C   0  0  0  0  0  0  0  0  0  0  0  0
   58.4280   28.5940   48.2700 O   0  0  0  0  0  0  0  0  0  0  0  0
   60.3730   29.1180   49.4600 N   0  0  0  0  0  0  0  0  0  0  0  0
   59.8160   30.2190   50.1990 C   0  0  0  0  0  0  0  0  0  0  0  0
   60.4920   31.4450   50.2140 C   0  0  0  0  0  0  0  0  0  0  0  0
   59.9630   32.5340   50.9090 C   0  0  0  0  0  0  0  0  0  0  0  0
   58.7480   32.4200   51.5940 C   0  0  0  0  0  0  0  0  0  0  0  0
   58.1180   33.8660   52.3760 Cl  0  0  0  0  0  0  0  0  0  0  0  0
   58.0480   31.1910   51.5840 C   0  0  0  0  0  0  0  0  0  0  0  0
   56.7610   31.0080   52.2980 C   0  0  0  0  0  0  0  0  0  0  0  0
   56.6550   31.3780   53.4990 O   0  0  0  0  0  0  0  0  0  0  0  0
   55.6260   30.4610   51.6220 N   0  0  0  0  0  0  0  0  0  0  0  0
   54.3250   30.3260   52.2600 C   0  0  0  0  0  0  0  0  0  0  0  0
   53.2710   31.2600   51.6900 C   0  0  0  0  0  0  0  0  0  0  0  0
   53.2600   29.7810   51.3250 C   0  0  0  0  0  0  0  0  0  0  0  0
   58.5850   30.1050   50.8660 C   0  0  0  0  0  0  0  0  0  0  0  0
   59.1183   26.0288   44.4774 H   0  0  0  0  0  0  0  0  0  0  0  0
   57.2854   26.7463   42.9442 H   0  0  0  0  0  0  0  0  0  0  0  0
   56.5957   29.1422   42.8514 H   0  0  0  0  0  0  0  0  0  0  0  0
   59.1772   34.1777   44.2485 H   0  0  0  0  0  0  0  0  0  0  0  0
   57.4720   34.0772   44.7266 H   0  0  0  0  0  0  0  0  0  0  0  0
   59.9194   34.7260   46.4165 H   0  0  0  0  0  0  0  0  0  0  0  0
   58.3475   35.5096   46.4518 H   0  0  0  0  0  0  0  0  0  0  0  0
   59.0970   33.5581   48.2595 H   0  0  0  0  0  0  0  0  0  0  0  0
   57.4056   33.7817   47.8072 H   0  0  0  0  0  0  0  0  0  0  0  0
   59.2398   31.5669   47.1364 H   0  0  0  0  0  0  0  0  0  0  0  0
   57.4770   31.6547   46.8710 H   0  0  0  0  0  0  0  0  0  0  0  0
   59.5560   30.1097   45.8581 H   0  0  0  0  0  0  0  0  0  0  0  0
   61.3020   28.7500   49.7640 H   0  0  0  0  0  0  0  0  0  0  0  0
   61.4452   31.5507   49.6752 H   0  0  0  0  0  0  0  0  0  0  0  0
   60.5062   33.4905   50.9183 H   0  0  0  0  0  0  0  0  0  0  0  0
   54.6797   30.0793   53.2716 H   0  0  0  0  0  0  0  0  0  0  0  0
   52.4882   31.6712   52.3443 H   0  0  0  0  0  0  0  0  0  0  0  0
   53.2905   32.2019   51.1222 H   0  0  0  0  0  0  0  0  0  0  0  0
   52.4691   29.1238   51.7155 H   0  0  0  0  0  0  0  0  0  0  0  0
   53.2681   29.2116   50.3839 H   0  0  0  0  0  0  0  0  0  0  0  0
   58.0329   29.1544   50.8270 H   0  0  0  0  0  0  0  0  0  0  0  0
  1  2  2  0
  2  3  1  0
  3  4  1  0
  4  5  2  0
  5  6  1  0
  6  7  2  0
  7  8  1  0
  8  9  1  0
  9 10  2  0
  9 11  2  0
  9 12  1  0
 12 13  1  0
 13 14  1  0
 14 15  1  0
 15 16  1  0
  8 17  2  0
  2 18  1  0
 18 19  2  0
 18 20  1  0
 20 21  1  0
 21 22  2  0
 22 23  1  0
 23 24  2  0
 24 25  1  0
 24 26  1  0
 26 27  1  0
 27 28  2  0
 27 29  1  0
 29 30  1  0
 30 31  1  0
 31 32  1  0
 26 33  2  0
 17  4  1  0
 33 21  1  0
 16 12  1  0
 32 30  1  0
  5 34  1  0
  6 35  1  0
  7 36  1  0
 13 37  1  0
 13 38  1  0
 14 39  1  0
 14 40  1  0
 15 41  1  0
 15 42  1  0
 16 43  1  0
 16 44  1  0
 17 45  1  0
 20 46  1  0
 22 47  1  0
 23 48  1  0
 30 49  1  0
 31 50  1  0
 31 51  1  0
 32 52  1  0
 32 53  1  0
 33 54  1  0
M  CHG  2   3  -1  29  -1
M  END
>  <UniqueID>  (89) 
83

>  <SMILES>  (89) 
O=C([N-]c1cccc(S(=O)(=O)N2CCCC2)c1)C(=O)Nc1ccc(Cl)c(C(=O)[N-]C2CC2)c1

>  <Energy>  (89) 
332.991665391521

>  <Genealogy>  (89) 
O=C([N-]c1cccc(S(=O)(=O)N2CCCC2)c1)C(=O)Nc1ccc(Cl)c(C(=O)[N-]C2CC2)c1 (protonated)
O=C([N-]c1cccc(S(=O)(=O)N2CCCC2)c1)C(=O)Nc1ccc(Cl)c(C(=O)[N-]C2CC2)c1 (3D coordinates assigned)
O=C([N-]c1cccc(S(=O)(=O)N2CCCC2)c1)C(=O)Nc1ccc(Cl)c(C(=O)[N-]C2CC2)c1 (nonaromatic ring conformer: 332.991665391521 kcal/mol)

>  <smiles>  (89) 
O=C(Nc1cccc(S(=O)(=O)N2CCCC2)c1)C(=O)Nc1ccc(Cl)c(C(=O)NC2CC2)c1

>  <score_type>  (89) 
oracle

>  <origin>  (89) 
adg

>  <m_score__min__energy>  (89) 
-12.9

>  <m_primary>  (89) 
energy

$$$$
89:0
     RDKit          3D

 65 68  0  0  0  0  0  0  0  0999 V2000
   67.1600   27.4300   50.8290 C   0  0  0  0  0  0  0  0  0  0  0  0
   67.9180   28.3620   51.7940 C   0  0  0  0  0  0  0  0  0  0  0  0
   66.8740   29.1870   52.4560 C   0  0  0  0  0  0  0  0  0  0  0  0
   66.3480   30.3020   51.7210 N   0  0  0  0  0  0  0  0  0  0  0  0
   65.0740   30.2140   51.2460 C   0  0  0  0  0  0  0  0  0  0  0  0
   64.3710   29.1800   51.4690 O   0  0  0  0  0  0  0  0  0  0  0  0
   64.5320   31.2510   50.5170 C   0  0  0  0  0  0  0  0  0  0  0  0
   63.3300   31.4190   49.9350 N   0  0  0  0  0  0  0  0  0  0  0  0
   63.3510   32.6260   49.3440 C   0  0  0  0  0  0  0  0  0  0  0  0
   62.2810   33.2630   48.5860 C   0  0  0  0  0  0  0  0  0  0  0  0
   62.4150   33.2810   47.2190 C   0  0  0  0  0  0  0  0  0  0  0  0
   61.4270   33.8730   46.4580 C   0  0  0  0  0  0  0  0  0  0  0  0
   60.2940   34.4560   47.0570 C   0  0  0  0  0  0  0  0  0  0  0  0
   59.3850   35.0080   46.1830 O   0  0  0  0  0  0  0  0  0  0  0  0
   58.9380   34.4290   44.9990 C   0  0  0  0  0  0  0  0  0  0  0  0
   58.3200   33.1030   45.1210 C   0  0  0  0  0  0  0  0  0  0  0  0
   57.1320   33.0090   44.6290 O   0  0  0  0  0  0  0  0  0  0  0  0
   58.8900   31.9570   45.7130 N   0  0  0  0  0  0  0  0  0  0  0  0
   58.1130   30.7640   45.7400 C   0  0  0  0  0  0  0  0  0  0  0  0
   56.9650   30.7520   45.1780 O   0  0  0  0  0  0  0  0  0  0  0  0
   58.5130   29.5270   46.3660 C   0  0  0  0  0  0  0  0  0  0  0  0
   57.9460   28.3570   45.9020 C   0  0  0  0  0  0  0  0  0  0  0  0
   58.2630   27.1190   46.4090 C   0  0  0  0  0  0  0  0  0  0  0  0
   59.1830   26.9950   47.4300 C   0  0  0  0  0  0  0  0  0  0  0  0
   59.7520   28.1560   47.8960 C   0  0  0  0  0  0  0  0  0  0  0  0
   59.4340   29.4110   47.3830 C   0  0  0  0  0  0  0  0  0  0  0  0
   60.0720   30.5830   47.9040 N   0  0  0  0  0  0  0  0  0  0  0  0
   61.3030   30.6710   48.0530 O   0  0  0  0  0  0  0  0  0  0  0  0
   59.2050   31.6260   48.2210 O   0  0  0  0  0  0  0  0  0  0  0  0
   60.1880   34.4240   48.4170 C   0  0  0  0  0  0  0  0  0  0  0  0
   61.1730   33.8330   49.1520 C   0  0  0  0  0  0  0  0  0  0  0  0
   64.5480   33.1940   49.5590 N   0  0  0  0  0  0  0  0  0  0  0  0
   65.3300   32.3520   50.3020 C   0  0  0  0  0  0  0  0  0  0  0  0
   66.5980   32.4450   50.7740 N   0  0  0  0  0  0  0  0  0  0  0  0
   67.3200   33.6510   50.4930 C   0  0  0  0  0  0  0  0  0  0  0  0
   67.1400   34.6380   51.6440 C   0  0  0  0  0  0  0  0  0  0  0  0
   68.3310   35.6030   51.6720 C   0  0  0  0  0  0  0  0  0  0  0  0
   67.1040   31.4130   51.4850 C   0  0  0  0  0  0  0  0  0  0  0  0
   68.2940   31.4980   51.9280 O   0  0  0  0  0  0  0  0  0  0  0  0
   66.5698   26.7044   51.4079 H   0  0  0  0  0  0  0  0  0  0  0  0
   66.4877   28.0269   50.1951 H   0  0  0  0  0  0  0  0  0  0  0  0
   67.8813   26.8935   50.1951 H   0  0  0  0  0  0  0  0  0  0  0  0
   68.4725   27.7735   52.5399 H   0  0  0  0  0  0  0  0  0  0  0  0
   68.6536   28.9850   51.2642 H   0  0  0  0  0  0  0  0  0  0  0  0
   66.0308   28.5223   52.6951 H   0  0  0  0  0  0  0  0  0  0  0  0
   67.3790   29.6357   53.3241 H   0  0  0  0  0  0  0  0  0  0  0  0
   62.5130   30.7930   49.9030 H   0  0  0  0  0  0  0  0  0  0  0  0
   63.2959   32.8307   46.7382 H   0  0  0  0  0  0  0  0  0  0  0  0
   61.5268   33.8896   45.3627 H   0  0  0  0  0  0  0  0  0  0  0  0
   58.1946   35.1064   44.5535 H   0  0  0  0  0  0  0  0  0  0  0  0
   59.8384   34.2797   44.3851 H   0  0  0  0  0  0  0  0  0  0  0  0
   59.8360   31.9670   46.1420 H   0  0  0  0  0  0  0  0  0  0  0  0
   57.2069   28.4180   45.0896 H   0  0  0  0  0  0  0  0  0  0  0  0
   57.7796   26.2206   45.9977 H   0  0  0  0  0  0  0  0  0  0  0  0
   59.4483   26.0139   47.8508 H   0  0  0  0  0  0  0  0  0  0  0  0
   60.4902   28.0912   48.7090 H   0  0  0  0  0  0  0  0  0  0  0  0
   59.3156   34.8710   48.9162 H   0  0  0  0  0  0  0  0  0  0  0  0
   61.0726   33.8136   50.2472 H   0  0  0  0  0  0  0  0  0  0  0  0
   68.3886   33.4184   50.3744 H   0  0  0  0  0  0  0  0  0  0  0  0
   66.9345   34.0988   49.5652 H   0  0  0  0  0  0  0  0  0  0  0  0
   66.2094   35.2063   51.4991 H   0  0  0  0  0  0  0  0  0  0  0  0
   67.0865   34.0895   52.5960 H   0  0  0  0  0  0  0  0  0  0  0  0
   68.6011   35.8219   52.7156 H   0  0  0  0  0  0  0  0  0  0  0  0
   69.1886   35.1419   51.1602 H   0  0  0  0  0  0  0  0  0  0  0  0
   68.0578   36.5376   51.1602 H   0  0  0  0  0  0  0  0  0  0  0  0
  1  2  1  0
  2  3  1  0
  3  4  1  0
  4  5  1  0
  5  6  2  0
  5  7  1  0
  7  8  1  0
  8  9  1  0
  9 10  1  0
 10 11  2  0
 11 12  1  0
 12 13  2  0
 13 14  1  0
 14 15  1  0
 15 16  1  0
 16 17  2  0
 16 18  1  0
 18 19  1  0
 19 20  2  0
 19 21  1  0
 21 22  2  0
 22 23  1  0
 23 24  2  0
 24 25  1  0
 25 26  2  0
 26 27  1  0
 27 28  2  0
 27 29  1  0
 13 30  1  0
 30 31  2  0
  9 32  2  0
 32 33  1  0
 33 34  1  0
 34 35  1  0
 35 36  1  0
 36 37  1  0
 34 38  1  0
 38 39  2  0
 38  4  1  0
 33  7  2  0
 31 10  1  0
 26 21  1  0
  1 40  1  0
  1 41  1  0
  1 42  1  0
  2 43  1  0
  2 44  1  0
  3 45  1  0
  3 46  1  0
  8 47  1  0
 11 48  1  0
 12 49  1  0
 15 50  1  0
 15 51  1  0
 18 52  1  0
 22 53  1  0
 23 54  1  0
 24 55  1  0
 25 56  1  0
 30 57  1  0
 31 58  1  0
 35 59  1  0
 35 60  1  0
 36 61  1  0
 36 62  1  0
 37 63  1  0
 37 64  1  0
 37 65  1  0
M  CHG  2  27   1  29  -1
M  END
>  <smiles>  (90) 
CCCn1c(=O)c2[nH]c(-c3ccc(OCC(=O)NC(=O)c4ccccc4[N+](=O)[O-])cc3)nc2n(CCC)c1=O

>  <score_type>  (90) 
oracle

>  <origin>  (90) 
adg

>  <m_score__min__energy>  (90) 
-8.9499999999999993

>  <m_primary>  (90) 
energy

$$$$
90:0
     RDKit          3D

 43 45  0  0  0  0  0  0  0  0999 V2000
   60.4200   29.7490   48.0120 O   0  0  0  0  0  0  0  0  0  0  0  0
   59.6760   30.1530   47.0980 C   0  0  0  0  0  0  0  0  0  0  0  0
   60.0010   31.4750   46.4900 C   0  0  0  0  0  0  0  0  0  0  0  0
   59.8690   32.5750   47.4780 C   0  0  0  0  0  0  0  0  0  0  0  0
   60.0710   32.5030   48.8050 N   0  0  0  0  0  0  0  0  0  0  0  0
   59.8680   33.6730   49.3990 C   0  0  0  0  0  0  0  0  0  0  0  0
   59.9770   33.9350   50.6470 O   0  0  0  0  0  0  0  0  0  0  0  0
   59.5220   34.5440   48.4290 N   0  0  0  0  0  0  0  0  0  0  0  0
   59.5170   33.8840   47.2350 C   0  0  0  0  0  0  0  0  0  0  0  0
   59.1900   34.4820   45.9180 C   0  0  0  0  0  0  0  0  0  0  0  0
   57.4090   34.2000   45.6130 S   0  0  0  0  0  0  0  0  0  0  0  0
   57.3100   32.6900   44.6240 C   0  0  0  0  0  0  0  0  0  0  0  0
   56.7250   31.5850   45.1240 N   0  0  0  0  0  0  0  0  0  0  0  0
   56.6260   30.4320   44.4230 C   0  0  0  0  0  0  0  0  0  0  0  0
   56.0750   29.4010   44.9040 O   0  0  0  0  0  0  0  0  0  0  0  0
   57.1660   30.4420   43.1360 C   0  0  0  0  0  0  0  0  0  0  0  0
   57.7680   31.5960   42.6330 C   0  0  0  0  0  0  0  0  0  0  0  0
   57.8430   32.7280   43.3770 N   0  0  0  0  0  0  0  0  0  0  0  0
   58.5550   29.4300   46.6190 N   0  0  0  0  0  0  0  0  0  0  0  0
   58.1430   28.1400   47.1330 C   0  0  0  0  0  0  0  0  0  0  0  0
   57.9030   27.1430   46.0850 C   0  0  0  0  0  0  0  0  0  0  0  0
   57.2840   25.9610   46.4160 C   0  0  0  0  0  0  0  0  0  0  0  0
   57.0070   24.9570   45.5120 C   0  0  0  0  0  0  0  0  0  0  0  0
   57.3800   25.1580   44.1790 C   0  0  0  0  0  0  0  0  0  0  0  0
   57.9980   26.3490   43.8680 C   0  0  0  0  0  0  0  0  0  0  0  0
   58.2670   27.3380   44.7770 C   0  0  0  0  0  0  0  0  0  0  0  0
   61.0354   31.4521   46.1165 H   0  0  0  0  0  0  0  0  0  0  0  0
   59.2926   31.6611   45.6693 H   0  0  0  0  0  0  0  0  0  0  0  0
   60.3550   31.6000   49.2710 H   0  0  0  0  0  0  0  0  0  0  0  0
   59.2990   35.5570   48.6020 H   0  0  0  0  0  0  0  0  0  0  0  0
   59.4023   35.5612   45.9325 H   0  0  0  0  0  0  0  0  0  0  0  0
   59.7965   34.0235   45.1231 H   0  0  0  0  0  0  0  0  0  0  0  0
   57.1168   29.5354   42.5150 H   0  0  0  0  0  0  0  0  0  0  0  0
   58.1886   31.5877   41.6166 H   0  0  0  0  0  0  0  0  0  0  0  0
   58.2940   33.5570   42.9670 H   0  0  0  0  0  0  0  0  0  0  0  0
   58.0000   29.8850   45.8330 H   0  0  0  0  0  0  0  0  0  0  0  0
   58.9327   27.7621   47.7990 H   0  0  0  0  0  0  0  0  0  0  0  0
   57.1897   28.2911   47.6606 H   0  0  0  0  0  0  0  0  0  0  0  0
   56.9920   25.8067   47.4653 H   0  0  0  0  0  0  0  0  0  0  0  0
   56.5091   24.0287   45.8288 H   0  0  0  0  0  0  0  0  0  0  0  0
   57.1875   24.3955   43.4099 H   0  0  0  0  0  0  0  0  0  0  0  0
   58.2947   26.5169   42.8222 H   0  0  0  0  0  0  0  0  0  0  0  0
   58.7641   28.2683   44.4647 H   0  0  0  0  0  0  0  0  0  0  0  0
  1  2  2  0
  2  3  1  0
  3  4  1  0
  4  5  1  0
  5  6  1  0
  6  7  2  0
  6  8  1  0
  8  9  1  0
  9 10  1  0
 10 11  1  0
 11 12  1  0
 12 13  2  0
 13 14  1  0
 14 15  2  0
 14 16  1  0
 16 17  2  0
 17 18  1  0
  2 19  1  0
 19 20  1  0
 20 21  1  0
 21 22  2  0
 22 23  1  0
 23 24  2  0
 24 25  1  0
 25 26  2  0
  9  4  2  0
 18 12  1  0
 26 21  1  0
  3 27  1  0
  3 28  1  0
  5 29  1  0
  8 30  1  0
 10 31  1  0
 10 32  1  0
 16 33  1  0
 17 34  1  0
 18 35  1  0
 19 36  1  0
 20 37  1  0
 20 38  1  0
 22 39  1  0
 23 40  1  0
 24 41  1  0
 25 42  1  0
 26 43  1  0
M  END
>  <smiles>  (91) 
O=C(Cc1[nH]c(=O)[nH]c1CSc1nc(=O)cc[nH]1)NCc1ccccc1

>  <score_type>  (91) 
oracle

>  <origin>  (91) 
adg

>  <m_score__min__energy>  (91) 
-8.4499999999999993

>  <m_primary>  (91) 
energy

$$$$
91:0
     RDKit          3D

 51 54  0  0  0  0  0  0  0  0999 V2000
   54.2832   27.7063   54.5210 H   0  0  0  0  0  0  0  0  0  0  0  0
   53.7980   28.3470   53.7700 C   0  0  0  0  0  0  0  0  0  0  0  0
   52.7847   28.1078   53.4150 H   0  0  0  0  0  0  0  0  0  0  0  0
   54.4420   29.4200   53.2870 C   0  0  0  0  0  0  0  0  0  0  0  0
   53.9620   30.3320   52.3300 C   0  0  0  0  0  0  0  0  0  0  0  0
   52.7310   30.5040   51.8100 C   0  0  0  0  0  0  0  0  0  0  0  0
   52.4672   29.8996   50.9296 H   0  0  0  0  0  0  0  0  0  0  0  0
   51.7090   31.4330   52.3210 C   0  0  0  0  0  0  0  0  0  0  0  0
   51.4470   31.6430   53.6230 N   0  0  0  0  0  0  0  0  0  0  0  0
   50.5500   32.6520   53.6010 C   0  0  0  0  0  0  0  0  0  0  0  0
   50.0510   33.1390   54.6490 O   0  0  0  0  0  0  0  0  0  0  0  0
   50.2460   33.1150   52.3690 N   0  0  0  0  0  0  0  0  0  0  0  0
   50.9980   32.3390   51.5710 C   0  0  0  0  0  0  0  0  0  0  0  0
   51.0410   32.4620   50.1890 O   0  0  0  0  0  0  0  0  0  0  0  0
   55.0380   31.1260   51.9760 C   0  0  0  0  0  0  0  0  0  0  0  0
   55.0441   31.9240   51.2189 H   0  0  0  0  0  0  0  0  0  0  0  0
   56.1000   30.7240   52.7550 C   0  0  0  0  0  0  0  0  0  0  0  0
   57.4370   31.3290   52.7070 C   0  0  0  0  0  0  0  0  0  0  0  0
   57.6300   32.4310   53.2870 O   0  0  0  0  0  0  0  0  0  0  0  0
   58.5190   30.6650   52.0340 N   0  0  0  0  0  0  0  0  0  0  0  0
   59.8960   30.8370   52.5080 C   0  0  0  0  0  0  0  0  0  0  0  0
   60.4253   31.5385   51.8464 H   0  0  0  0  0  0  0  0  0  0  0  0
   59.8808   31.2354   53.5332 H   0  0  0  0  0  0  0  0  0  0  0  0
   60.6180   29.4870   52.5000 C   0  0  0  0  0  0  0  0  0  0  0  0
   61.6974   29.6601   52.6224 H   0  0  0  0  0  0  0  0  0  0  0  0
   60.2177   28.8811   53.3262 H   0  0  0  0  0  0  0  0  0  0  0  0
   60.3930   28.7520   51.2440 N   0  0  0  0  0  0  0  0  0  0  0  0
   61.1180   27.5300   50.9930 C   0  0  0  0  0  0  0  0  0  0  0  0
   61.2220   27.0870   49.8180 O   0  0  0  0  0  0  0  0  0  0  0  0
   61.8050   26.7900   52.1090 C   0  0  0  0  0  0  0  0  0  0  0  0
   62.0360   27.6788   52.7145 H   0  0  0  0  0  0  0  0  0  0  0  0
   61.2400   25.4040   52.3850 C   0  0  0  0  0  0  0  0  0  0  0  0
   61.1996   25.0222   53.4158 H   0  0  0  0  0  0  0  0  0  0  0  0
   60.2939   24.8910   52.1573 H   0  0  0  0  0  0  0  0  0  0  0  0
   62.5770   25.5490   51.6820 C   0  0  0  0  0  0  0  0  0  0  0  0
   63.5052   25.2724   52.2035 H   0  0  0  0  0  0  0  0  0  0  0  0
   63.0005   25.1848   50.7344 H   0  0  0  0  0  0  0  0  0  0  0  0
   59.5390   29.3340   50.1980 C   0  0  0  0  0  0  0  0  0  0  0  0
   60.0832   30.1479   49.6966 H   0  0  0  0  0  0  0  0  0  0  0  0
   59.2793   28.5502   49.4712 H   0  0  0  0  0  0  0  0  0  0  0  0
   58.2500   29.8910   50.8120 C   0  0  0  0  0  0  0  0  0  0  0  0
   57.7587   30.5452   50.0767 H   0  0  0  0  0  0  0  0  0  0  0  0
   57.6032   29.0424   51.0793 H   0  0  0  0  0  0  0  0  0  0  0  0
   55.7440   29.7000   53.5630 N   0  0  0  0  0  0  0  0  0  0  0  0
   56.6290   29.0130   54.5170 C   0  0  0  0  0  0  0  0  0  0  0  0
   57.3159   29.7473   54.9631 H   0  0  0  0  0  0  0  0  0  0  0  0
   56.0083   28.5432   55.2942 H   0  0  0  0  0  0  0  0  0  0  0  0
   57.4440   27.9250   53.8230 C   0  0  0  0  0  0  0  0  0  0  0  0
   57.9225   27.2862   54.5800 H   0  0  0  0  0  0  0  0  0  0  0  0
   56.7796   27.3139   53.1944 H   0  0  0  0  0  0  0  0  0  0  0  0
   58.2173   28.3908   53.1944 H   0  0  0  0  0  0  0  0  0  0  0  0
  1  2  1  0
  2  3  1  0
  2  4  2  0
  4  5  1  0
  5  6  2  0
  6  7  1  0
  6  8  1  0
  8  9  1  0
  9 10  1  0
 10 11  2  0
 10 12  1  0
 12 13  1  0
 13 14  1  0
  5 15  1  0
 15 16  1  0
 15 17  2  0
 17 18  1  0
 18 19  2  0
 18 20  1  0
 20 21  1  0
 21 22  1  0
 21 23  1  0
 21 24  1  0
 24 25  1  0
 24 26  1  0
 24 27  1  0
 27 28  1  0
 28 29  2  0
 28 30  1  0
 30 31  1  0
 30 32  1  0
 32 33  1  0
 32 34  1  0
 32 35  1  0
 35 36  1  0
 35 37  1  0
 27 38  1  0
 38 39  1  0
 38 40  1  0
 38 41  1  0
 41 42  1  0
 41 43  1  0
 17 44  1  0
 44 45  1  0
 45 46  1  0
 45 47  1  0
 45 48  1  0
 48 49  1  0
 48 50  1  0
 48 51  1  0
 44  4  1  0
 13  8  2  0
 41 20  1  0
 35 30  1  0
M  CHG  3   9  -1  12  -1  14  -1
M  END
>  <UniqueID>  (92) 
84

>  <SMILES>  (92) 
C=c1/c(=C\c2[n-]c(=O)[n-]c2[O-])cc(C(=O)N2CCN(C(=O)C3CC3)CC2)n1CC

>  <Energy>  (92) 
388.56427426256204

>  <Genealogy>  (92) 
C=c1c(=Cc2[n-]c(=O)[n-]c2[O-])cc(C(=O)N2CCN(C(=O)C3CC3)CC2)n1CC (protonated)
C=c1/c(=C\c2[n-]c(=O)[n-]c2[O-])cc(C(=O)N2CCN(C(=O)C3CC3)CC2)n1CC (cis-trans isomerization)
C=c1/c(=C\c2[n-]c(=O)[n-]c2[O-])cc(C(=O)N2CCN(C(=O)C3CC3)CC2)n1CC (3D coordinates assigned)
C=c1/c(=C\c2[n-]c(=O)[n-]c2[O-])cc(C(=O)N2CCN(C(=O)C3CC3)CC2)n1CC (nonaromatic ring conformer: 388.56427426256204 kcal/mol)

>  <smiles>  (92) 
C=c1c(=Cc2[nH]c(=O)[nH]c2O)cc(C(=O)N2CCN(C(=O)C3CC3)CC2)n1CC

>  <score_type>  (92) 
oracle

>  <origin>  (92) 
adg

>  <m_score__min__energy>  (92) 
-17.460000000000001

>  <m_primary>  (92) 
energy

$$$$
92:0
     RDKit          3D

 39 41  0  0  0  0  0  0  0  0999 V2000
   56.6065   23.8609   42.5169 H   0  0  0  0  0  0  0  0  0  0  0  0
   56.6370   23.6550   43.5970 C   0  0  0  0  0  0  0  0  0  0  0  0
   57.5297   23.1929   44.0439 H   0  0  0  0  0  0  0  0  0  0  0  0
   55.5900   23.9660   44.3660 C   0  0  0  0  0  0  0  0  0  0  0  0
   54.7036   24.4276   43.9065 H   0  0  0  0  0  0  0  0  0  0  0  0
   55.5960   23.7000   45.8410 C   0  0  0  0  0  0  0  0  0  0  0  0
   54.7311   23.0728   46.1027 H   0  0  0  0  0  0  0  0  0  0  0  0
   56.5263   23.1798   46.1129 H   0  0  0  0  0  0  0  0  0  0  0  0
   55.5180   24.9630   46.5710 N   0  0  0  0  0  0  0  0  0  0  0  0
   56.1850   26.0290   46.2480 C   0  0  0  0  0  0  0  0  0  0  0  0
   55.5420   27.0660   45.6610 N   0  0  0  0  0  0  0  0  0  0  0  0
   56.2260   28.1890   45.3110 C   0  0  0  0  0  0  0  0  0  0  0  0
   55.6230   29.1900   44.7410 N   0  0  0  0  0  0  0  0  0  0  0  0
   55.9690   29.7390   43.4300 C   0  0  0  0  0  0  0  0  0  0  0  0
   56.4867   28.9682   42.8403 H   0  0  0  0  0  0  0  0  0  0  0  0
   55.0452   30.0506   42.9205 H   0  0  0  0  0  0  0  0  0  0  0  0
   56.8700   30.9370   43.5790 C   0  0  0  0  0  0  0  0  0  0  0  0
   57.1780   31.4480   44.8520 C   0  0  0  0  0  0  0  0  0  0  0  0
   56.7736   30.9597   45.7509 H   0  0  0  0  0  0  0  0  0  0  0  0
   57.9960   32.5740   44.9800 C   0  0  0  0  0  0  0  0  0  0  0  0
   58.2347   32.9694   45.9783 H   0  0  0  0  0  0  0  0  0  0  0  0
   58.5110   33.1980   43.8400 C   0  0  0  0  0  0  0  0  0  0  0  0
   59.1549   34.0839   43.9423 H   0  0  0  0  0  0  0  0  0  0  0  0
   58.2090   32.6980   42.5710 C   0  0  0  0  0  0  0  0  0  0  0  0
   58.6166   33.1897   41.6754 H   0  0  0  0  0  0  0  0  0  0  0  0
   57.3890   31.5730   42.4380 C   0  0  0  0  0  0  0  0  0  0  0  0
   57.1494   31.1845   41.4372 H   0  0  0  0  0  0  0  0  0  0  0  0
   57.5580   28.2670   45.5580 N   0  0  0  0  0  0  0  0  0  0  0  0
   58.2140   27.2350   46.1490 C   0  0  0  0  0  0  0  0  0  0  0  0
   59.4950   27.3470   46.3680 N   0  0  0  0  0  0  0  0  0  0  0  0
   60.5210   28.2710   45.8490 C   0  0  0  0  0  0  0  0  0  0  0  0
   61.3531   27.6784   46.2569 H   0  0  0  0  0  0  0  0  0  0  0  0
   60.2370   28.9480   44.5170 C   0  0  0  0  0  0  0  0  0  0  0  0
   61.0551   29.1223   43.8026 H   0  0  0  0  0  0  0  0  0  0  0  0
   59.5470   28.7628   43.6806 H   0  0  0  0  0  0  0  0  0  0  0  0
   60.1720   29.7510   45.8170 C   0  0  0  0  0  0  0  0  0  0  0  0
   60.9433   30.5034   46.0385 H   0  0  0  0  0  0  0  0  0  0  0  0
   59.4158   30.3837   46.3047 H   0  0  0  0  0  0  0  0  0  0  0  0
   57.5200   26.1180   46.4890 N   0  0  0  0  0  0  0  0  0  0  0  0
  1  2  1  0
  2  3  1  0
  2  4  2  0
  4  5  1  0
  4  6  1  0
  6  7  1  0
  6  8  1  0
  6  9  1  0
  9 10  2  3
 10 11  1  0
 11 12  1  0
 12 13  2  3
 13 14  1  0
 14 15  1  0
 14 16  1  0
 14 17  1  0
 17 18  2  0
 18 19  1  0
 18 20  1  0
 20 21  1  0
 20 22  2  0
 22 23  1  0
 22 24  1  0
 24 25  1  0
 24 26  2  0
 26 27  1  0
 12 28  1  0
 28 29  1  0
 29 30  2  0
 30 31  1  0
 31 32  1  0
 31 33  1  0
 33 34  1  0
 33 35  1  0
 33 36  1  0
 36 37  1  0
 36 38  1  0
 29 39  1  0
 39 10  1  0
 26 17  1  0
 36 31  1  0
M  CHG  3  11  -1  28  -1  39  -1
M  END
>  <UniqueID>  (93) 
85

>  <SMILES>  (93) 
C=CCN=c1[n-]c(=NCc2ccccc2)[n-]/c(=N/C2CC2)[n-]1

>  <Energy>  (93) 
309.32976437590776

>  <Genealogy>  (93) 
C=CCN=c1[n-]c(=NCc2ccccc2)[n-]c(=NC2CC2)[n-]1 (protonated)
C=CCN=c1[n-]c(=NCc2ccccc2)[n-]/c(=N/C2CC2)[n-]1 (cis-trans isomerization)
C=CCN=c1[n-]c(=NCc2ccccc2)[n-]/c(=N/C2CC2)[n-]1 (3D coordinates assigned)
C=CCN=c1[n-]c(=NCc2ccccc2)[n-]/c(=N/C2CC2)[n-]1 (nonaromatic ring conformer: 309.32976437590776 kcal/mol)

>  <smiles>  (93) 
C=CCN=c1[nH]c(=NCc2ccccc2)[nH]c(=NC2CC2)[nH]1

>  <score_type>  (93) 
oracle

>  <origin>  (93) 
adg

>  <m_score__min__energy>  (93) 
-11.869999999999999

>  <m_primary>  (93) 
energy

$$$$
