0:0
     RDKit          3D

 23 24  0  0  0  0  0  0  0  0999 V2000
   55.0850   25.5250   45.9870 O   0  0  0  0  0  0  0  0  0  0  0  0
   56.2900   25.8040   45.7530 C   0  0  0  0  0  0  0  0  0  0  0  0
   56.8050   27.0660   46.1940 N   0  0  0  0  0  0  0  0  0  0  0  0
   57.0070   28.2260   45.3760 C   0  0  0  0  0  0  0  0  0  0  0  0
   55.9270   28.9600   44.8540 C   0  0  0  0  0  0  0  0  0  0  0  0
   56.1610   30.1040   44.0840 C   0  0  0  0  0  0  0  0  0  0  0  0
   57.4700   30.5320   43.8420 C   0  0  0  0  0  0  0  0  0  0  0  0
   57.7620   31.9680   42.8770 Cl  0  0  0  0  0  0  0  0  0  0  0  0
   58.5470   29.8200   44.3810 C   0  0  0  0  0  0  0  0  0  0  0  0
   58.3150   28.6760   45.1510 C   0  0  0  0  0  0  0  0  0  0  0  0
   57.1520   24.8300   45.1450 N   0  0  0  0  0  0  0  0  0  0  0  0
   56.6690   23.7330   44.4070 N   0  0  0  0  0  0  0  0  0  0  0  0
   56.7410   22.4410   44.7630 C   0  0  0  0  0  0  0  0  0  0  0  0
   56.2660   21.6530   43.7790 N   0  0  0  0  0  0  0  0  0  0  0  0
   55.9040   22.4480   42.7790 N   0  0  0  0  0  0  0  0  0  0  0  0
   56.1570   23.7140   43.1640 C   0  0  0  0  0  0  0  0  0  0  0  0
   54.8953   28.6335   45.0518 H   0  0  0  0  0  0  0  0  0  0  0  0
   55.3134   30.6683   43.6679 H   0  0  0  0  0  0  0  0  0  0  0  0
   59.5771   30.1604   44.1989 H   0  0  0  0  0  0  0  0  0  0  0  0
   59.1642   28.1260   45.5827 H   0  0  0  0  0  0  0  0  0  0  0  0
   58.1800   24.9060   45.3110 H   0  0  0  0  0  0  0  0  0  0  0  0
   57.1331   22.0764   45.7239 H   0  0  0  0  0  0  0  0  0  0  0  0
   55.9709   24.6063   42.5482 H   0  0  0  0  0  0  0  0  0  0  0  0
  1  2  2  0
  2  3  1  0
  3  4  1  0
  4  5  2  0
  5  6  1  0
  6  7  2  0
  7  8  1  0
  7  9  1  0
  9 10  2  0
  2 11  1  0
 11 12  1  0
 12 13  1  0
 13 14  2  0
 14 15  1  0
 15 16  2  0
 10  4  1  0
 16 12  1  0
  5 17  1  0
  6 18  1  0
  9 19  1  0
 10 20  1  0
 11 21  1  0
 13 22  1  0
 16 23  1  0
M  CHG  1   3  -1
M  END
>  <UniqueID>  (1) 
1

>  <SMILES>  (1) 
O=C([N-]c1ccc(Cl)cc1)Nn1cnnc1

>  <Energy>  (1) 
64.46855189593883

>  <Genealogy>  (1) 
O=C([N-]c1ccc(Cl)cc1)Nn1cnnc1 (protonated)
O=C([N-]c1ccc(Cl)cc1)Nn1cnnc1 (3D coordinates assigned)
O=C([N-]c1ccc(Cl)cc1)Nn1cnnc1 (optimized conformer: 64.46855189593883 kcal/mol)

>  <smiles>  (1) 
O=C(Nc1ccc(Cl)cc1)Nn1cnnc1

>  <score_type>  (1) 
oracle

>  <origin>  (1) 
adg

>  <m_score__min__energy>  (1) 
-7.9500000000000002

>  <m_primary>  (1) 
energy

$$$$
1:0
     RDKit          3D

 42 44  0  0  0  0  0  0  0  0999 V2000
   55.3180   29.0220   44.5510 N   0  0  0  0  0  0  0  0  0  0  0  0
   56.2670   28.2240   45.2690 C   0  0  0  0  0  0  0  0  0  0  0  0
   55.8240   27.0850   45.8660 N   0  0  0  0  0  0  0  0  0  0  0  0
   56.6610   26.2600   46.5390 C   0  0  0  0  0  0  0  0  0  0  0  0
   56.2140   25.2150   47.0780 O   0  0  0  0  0  0  0  0  0  0  0  0
   57.9790   26.5570   46.6270 N   0  0  0  0  0  0  0  0  0  0  0  0
   58.4860   27.6790   46.0570 C   0  0  0  0  0  0  0  0  0  0  0  0
   59.7210   27.9110   46.1580 O   0  0  0  0  0  0  0  0  0  0  0  0
   57.6400   28.5670   45.3600 C   0  0  0  0  0  0  0  0  0  0  0  0
   58.2290   29.8020   44.7000 C   0  0  0  0  0  0  0  0  0  0  0  0
   57.2360   30.9750   44.6760 C   0  0  0  0  0  0  0  0  0  0  0  0
   57.8800   32.2700   45.1030 C   0  0  0  0  0  0  0  0  0  0  0  0
   57.5070   33.4800   44.4990 C   0  0  0  0  0  0  0  0  0  0  0  0
   58.1420   34.6690   44.8610 C   0  0  0  0  0  0  0  0  0  0  0  0
   59.1680   34.6580   45.8090 C   0  0  0  0  0  0  0  0  0  0  0  0
   59.5730   33.4520   46.4070 C   0  0  0  0  0  0  0  0  0  0  0  0
   60.6900   33.4360   47.3800 C   0  0  0  0  0  0  0  0  0  0  0  0
   60.8150   34.3880   48.1980 O   0  0  0  0  0  0  0  0  0  0  0  0
   61.6640   32.3790   47.3580 N   0  0  0  0  0  0  0  0  0  0  0  0
   62.5450   32.0810   48.4540 C   0  0  0  0  0  0  0  0  0  0  0  0
   62.1880   31.1450   49.4430 C   0  0  0  0  0  0  0  0  0  0  0  0
   63.0690   30.8490   50.4880 C   0  0  0  0  0  0  0  0  0  0  0  0
   64.3160   31.4740   50.5500 C   0  0  0  0  0  0  0  0  0  0  0  0
   64.6890   32.3890   49.5640 C   0  0  0  0  0  0  0  0  0  0  0  0
   63.8130   32.6890   48.5150 C   0  0  0  0  0  0  0  0  0  0  0  0
   64.1930   33.5840   47.5690 F   0  0  0  0  0  0  0  0  0  0  0  0
   58.9050   32.2640   46.0620 C   0  0  0  0  0  0  0  0  0  0  0  0
   54.6780   29.7030   45.0100 H   0  0  0  0  0  0  0  0  0  0  0  0
   55.2930   28.9740   43.5090 H   0  0  0  0  0  0  0  0  0  0  0  0
   59.1262   30.1083   45.2579 H   0  0  0  0  0  0  0  0  0  0  0  0
   58.4742   29.5449   43.6590 H   0  0  0  0  0  0  0  0  0  0  0  0
   56.8488   31.0915   43.6530 H   0  0  0  0  0  0  0  0  0  0  0  0
   56.4260   30.7487   45.3850 H   0  0  0  0  0  0  0  0  0  0  0  0
   56.7124   33.4917   43.7385 H   0  0  0  0  0  0  0  0  0  0  0  0
   57.8335   35.6180   44.3982 H   0  0  0  0  0  0  0  0  0  0  0  0
   59.6625   35.5997   46.0895 H   0  0  0  0  0  0  0  0  0  0  0  0
   61.8110   31.8680   46.4580 H   0  0  0  0  0  0  0  0  0  0  0  0
   61.2103   30.6434   49.3936 H   0  0  0  0  0  0  0  0  0  0  0  0
   62.7792   30.1230   51.2619 H   0  0  0  0  0  0  0  0  0  0  0  0
   65.0050   31.2452   51.3764 H   0  0  0  0  0  0  0  0  0  0  0  0
   65.6744   32.8756   49.6118 H   0  0  0  0  0  0  0  0  0  0  0  0
   59.1887   31.3194   46.5490 H   0  0  0  0  0  0  0  0  0  0  0  0
  1  2  1  0
  2  3  1  0
  3  4  1  0
  4  5  2  0
  4  6  1  0
  6  7  1  0
  7  8  2  0
  7  9  1  0
  9 10  1  0
 10 11  1  0
 11 12  1  0
 12 13  2  0
 13 14  1  0
 14 15  2  0
 15 16  1  0
 16 17  1  0
 17 18  2  0
 17 19  1  0
 19 20  1  0
 20 21  2  0
 21 22  1  0
 22 23  2  0
 23 24  1  0
 24 25  2  0
 25 26  1  0
 16 27  2  0
  9  2  2  0
 27 12  1  0
 25 20  1  0
  1 28  1  0
  1 29  1  0
 10 30  1  0
 10 31  1  0
 11 32  1  0
 11 33  1  0
 13 34  1  0
 14 35  1  0
 15 36  1  0
 19 37  1  0
 21 38  1  0
 22 39  1  0
 23 40  1  0
 24 41  1  0
 27 42  1  0
M  CHG  2   3  -1   6  -1
M  END
>  <UniqueID>  (2) 
2

>  <SMILES>  (2) 
Nc1[n-]c(=O)[n-]c(=O)c1CCc1cccc(C(=O)Nc2ccccc2F)c1

>  <Energy>  (2) 
49.2645190527484

>  <Genealogy>  (2) 
Nc1[n-]c(=O)[n-]c(=O)c1CCc1cccc(C(=O)Nc2ccccc2F)c1 (protonated)
Nc1[n-]c(=O)[n-]c(=O)c1CCc1cccc(C(=O)Nc2ccccc2F)c1 (3D coordinates assigned)
Nc1[n-]c(=O)[n-]c(=O)c1CCc1cccc(C(=O)Nc2ccccc2F)c1 (optimized conformer: 49.2645190527484 kcal/mol)

>  <smiles>  (2) 
Nc1[nH]c(=O)[nH]c(=O)c1CCc1cccc(C(=O)Nc2ccccc2F)c1

>  <score_type>  (2) 
oracle

>  <origin>  (2) 
adg

>  <m_score__min__energy>  (2) 
-12.949999999999999

>  <m_primary>  (2) 
energy

$$$$
2:0
     RDKit          3D

 40 42  0  0  0  0  0  0  0  0999 V2000
   62.1916   30.5978   47.0514 H   0  0  0  0  0  0  0  0  0  0  0  0
   61.5560   31.4950   47.0830 C   0  0  0  0  0  0  0  0  0  0  0  0
   60.1880   31.3880   46.8180 C   0  0  0  0  0  0  0  0  0  0  0  0
   59.7535   30.4066   46.5772 H   0  0  0  0  0  0  0  0  0  0  0  0
   59.3640   32.5250   46.8570 C   0  0  0  0  0  0  0  0  0  0  0  0
   57.8850   32.4060   46.5860 C   0  0  0  0  0  0  0  0  0  0  0  0
   57.6292   31.3437   46.4590 H   0  0  0  0  0  0  0  0  0  0  0  0
   57.3418   32.8403   47.4383 H   0  0  0  0  0  0  0  0  0  0  0  0
   57.4040   33.3200   45.0710 S   0  0  0  0  0  0  0  0  0  0  0  0
   57.9990   32.1110   43.8230 C   0  0  0  0  0  0  0  0  0  0  0  0
   58.3978   32.6671   42.9618 H   0  0  0  0  0  0  0  0  0  0  0  0
   58.7665   31.4926   44.3113 H   0  0  0  0  0  0  0  0  0  0  0  0
   56.9070   31.1630   43.3240 C   0  0  0  0  0  0  0  0  0  0  0  0
   56.1422   31.7430   42.7867 H   0  0  0  0  0  0  0  0  0  0  0  0
   57.3615   30.4198   42.6524 H   0  0  0  0  0  0  0  0  0  0  0  0
   56.2810   30.4650   44.4460 N   0  0  0  0  0  0  0  0  0  0  0  0
   56.7330   29.3640   44.9650 C   0  0  0  0  0  0  0  0  0  0  0  0
   55.8950   28.3270   45.2460 N   0  0  0  0  0  0  0  0  0  0  0  0
   56.3620   27.1530   45.7420 C   0  0  0  0  0  0  0  0  0  0  0  0
   55.5510   26.2180   45.9830 O   0  0  0  0  0  0  0  0  0  0  0  0
   57.7380   26.9910   45.9670 C   0  0  0  0  0  0  0  0  0  0  0  0
   58.2880   25.7930   46.4580 C   0  0  0  0  0  0  0  0  0  0  0  0
   57.6319   24.9413   46.6909 H   0  0  0  0  0  0  0  0  0  0  0  0
   59.6690   25.6850   46.6500 C   0  0  0  0  0  0  0  0  0  0  0  0
   60.0976   24.7470   47.0327 H   0  0  0  0  0  0  0  0  0  0  0  0
   60.5070   26.7660   46.3570 C   0  0  0  0  0  0  0  0  0  0  0  0
   61.5926   26.6754   46.5095 H   0  0  0  0  0  0  0  0  0  0  0  0
   59.9690   27.9610   45.8710 C   0  0  0  0  0  0  0  0  0  0  0  0
   60.6315   28.8088   45.6423 H   0  0  0  0  0  0  0  0  0  0  0  0
   58.5880   28.0800   45.6750 C   0  0  0  0  0  0  0  0  0  0  0  0
   58.0660   29.2330   45.1870 N   0  0  0  0  0  0  0  0  0  0  0  0
   59.9460   33.7800   47.1070 C   0  0  0  0  0  0  0  0  0  0  0  0
   59.3208   34.6849   47.0907 H   0  0  0  0  0  0  0  0  0  0  0  0
   61.3130   33.8860   47.3760 C   0  0  0  0  0  0  0  0  0  0  0  0
   61.7564   34.8721   47.5785 H   0  0  0  0  0  0  0  0  0  0  0  0
   62.1220   32.7410   47.3890 C   0  0  0  0  0  0  0  0  0  0  0  0
   63.5920   32.8590   47.6620 C   0  0  0  0  0  0  0  0  0  0  0  0
   63.7632   32.8727   48.7485 H   0  0  0  0  0  0  0  0  0  0  0  0
   64.1173   32.0001   47.2189 H   0  0  0  0  0  0  0  0  0  0  0  0
   63.9736   33.7907   47.2189 H   0  0  0  0  0  0  0  0  0  0  0  0
  1  2  1  0
  2  3  2  0
  3  4  1  0
  3  5  1  0
  5  6  1  0
  6  7  1  0
  6  8  1  0
  6  9  1  0
  9 10  1  0
 10 11  1  0
 10 12  1  0
 10 13  1  0
 13 14  1  0
 13 15  1  0
 13 16  1  0
 16 17  2  0
 17 18  1  0
 18 19  1  0
 19 20  2  0
 19 21  1  0
 21 22  2  0
 22 23  1  0
 22 24  1  0
 24 25  1  0
 24 26  2  0
 26 27  1  0
 26 28  1  0
 28 29  1  0
 28 30  2  0
 30 31  1  0
  5 32  2  0
 32 33  1  0
 32 34  1  0
 34 35  1  0
 34 36  2  0
 36 37  1  0
 37 38  1  0
 37 39  1  0
 37 40  1  0
 36  2  1  0
 31 17  1  0
 30 21  1  0
M  CHG  2  18  -1  31  -1
M  END
>  <UniqueID>  (3) 
3

>  <SMILES>  (3) 
Cc1ccc(CSCC/N=c2\[n-]c(=O)c3ccccc3[n-]2)cc1

>  <Energy>  (3) 
36.805825796643006

>  <Genealogy>  (3) 
Cc1ccc(CSCCN=c2[n-]c(=O)c3ccccc3[n-]2)cc1 (protonated)
Cc1ccc(CSCC/N=c2\[n-]c(=O)c3ccccc3[n-]2)cc1 (cis-trans isomerization)
Cc1ccc(CSCC/N=c2\[n-]c(=O)c3ccccc3[n-]2)cc1 (3D coordinates assigned)
Cc1ccc(CSCC/N=c2\[n-]c(=O)c3ccccc3[n-]2)cc1 (optimized conformer: 36.805825796643006 kcal/mol)

>  <smiles>  (3) 
Cc1ccc(CSCCN=c2[nH]c(=O)c3ccccc3[nH]2)cc1

>  <score_type>  (3) 
oracle

>  <origin>  (3) 
adg

>  <m_score__min__energy>  (3) 
-11.66

>  <m_primary>  (3) 
energy

$$$$
3:0
     RDKit          3D

 45 47  0  0  0  0  0  0  0  0999 V2000
   54.1220   23.3500   44.5280 N   0  0  0  0  0  0  0  0  0  0  0  0
   55.6230   22.5850   44.1600 S   0  0  0  0  0  0  0  0  0  0  0  0
   55.8930   22.6790   42.6840 O   0  0  0  0  0  0  0  0  0  0  0  0
   55.5480   21.1310   44.5420 O   0  0  0  0  0  0  0  0  0  0  0  0
   56.9310   23.3700   45.0270 C   0  0  0  0  0  0  0  0  0  0  0  0
   58.2280   22.8360   45.0020 C   0  0  0  0  0  0  0  0  0  0  0  0
   59.2860   23.5300   45.6120 C   0  0  0  0  0  0  0  0  0  0  0  0
   59.0520   24.7670   46.2290 C   0  0  0  0  0  0  0  0  0  0  0  0
   60.1430   25.5920   46.6580 N   0  0  0  0  0  0  0  0  0  0  0  0
   59.9740   26.7520   47.4750 C   0  0  0  0  0  0  0  0  0  0  0  0
   60.0870   26.6330   48.7210 O   0  0  0  0  0  0  0  0  0  0  0  0
   59.6270   28.1010   46.8990 C   0  0  0  0  0  0  0  0  0  0  0  0
   59.8620   28.1310   45.0850 S   0  0  0  0  0  0  0  0  0  0  0  0
   58.5410   29.2970   44.7570 C   0  0  0  0  0  0  0  0  0  0  0  0
   57.2470   28.8880   44.7690 N   0  0  0  0  0  0  0  0  0  0  0  0
   56.2430   29.7500   44.4790 C   0  0  0  0  0  0  0  0  0  0  0  0
   55.0530   29.3470   44.4780 O   0  0  0  0  0  0  0  0  0  0  0  0
   56.5330   31.0780   44.1720 C   0  0  0  0  0  0  0  0  0  0  0  0
   57.8670   31.4880   44.1810 C   0  0  0  0  0  0  0  0  0  0  0  0
   58.2340   32.8470   43.9440 N   0  0  0  0  0  0  0  0  0  0  0  0
   58.0980   34.1730   45.0500 S   0  0  0  0  0  0  0  0  0  0  0  0
   58.9140   35.3280   44.5360 O   0  0  0  0  0  0  0  0  0  0  0  0
   56.6530   34.5790   45.1830 O   0  0  0  0  0  0  0  0  0  0  0  0
   58.6750   33.7180   46.6480 C   0  0  0  0  0  0  0  0  0  0  0  0
   59.6010   34.5440   47.2940 C   0  0  0  0  0  0  0  0  0  0  0  0
   60.0430   34.2380   48.5860 C   0  0  0  0  0  0  0  0  0  0  0  0
   59.5490   33.0980   49.2390 C   0  0  0  0  0  0  0  0  0  0  0  0
   58.6260   32.2690   48.5990 C   0  0  0  0  0  0  0  0  0  0  0  0
   58.1800   32.5800   47.3090 C   0  0  0  0  0  0  0  0  0  0  0  0
   58.8400   30.5830   44.4550 N   0  0  0  0  0  0  0  0  0  0  0  0
   57.7440   25.2520   46.3280 C   0  0  0  0  0  0  0  0  0  0  0  0
   56.6880   24.5620   45.7270 C   0  0  0  0  0  0  0  0  0  0  0  0
   53.5080   22.6110   44.9520 H   0  0  0  0  0  0  0  0  0  0  0  0
   58.4166   21.8733   44.5044 H   0  0  0  0  0  0  0  0  0  0  0  0
   60.2995   23.1024   45.6056 H   0  0  0  0  0  0  0  0  0  0  0  0
   58.5753   28.3283   47.1277 H   0  0  0  0  0  0  0  0  0  0  0  0
   60.2944   28.8516   47.3476 H   0  0  0  0  0  0  0  0  0  0  0  0
   55.7284   31.7873   43.9280 H   0  0  0  0  0  0  0  0  0  0  0  0
   59.9841   35.4397   46.7831 H   0  0  0  0  0  0  0  0  0  0  0  0
   60.7747   34.8883   49.0878 H   0  0  0  0  0  0  0  0  0  0  0  0
   59.8897   32.8574   50.2568 H   0  0  0  0  0  0  0  0  0  0  0  0
   58.2487   31.3703   49.1089 H   0  0  0  0  0  0  0  0  0  0  0  0
   57.4417   31.9335   46.8121 H   0  0  0  0  0  0  0  0  0  0  0  0
   57.5455   26.1814   46.8818 H   0  0  0  0  0  0  0  0  0  0  0  0
   55.6631   24.9542   45.8027 H   0  0  0  0  0  0  0  0  0  0  0  0
  1  2  1  0
  2  3  2  0
  2  4  2  0
  2  5  1  0
  5  6  2  0
  6  7  1  0
  7  8  2  0
  8  9  1  0
  9 10  1  0
 10 11  2  0
 10 12  1  0
 12 13  1  0
 13 14  1  0
 14 15  2  0
 15 16  1  0
 16 17  2  0
 16 18  1  0
 18 19  2  0
 19 20  1  0
 20 21  1  0
 21 22  2  0
 21 23  2  0
 21 24  1  0
 24 25  2  0
 25 26  1  0
 26 27  2  0
 27 28  1  0
 28 29  2  0
 19 30  1  0
  8 31  1  0
 31 32  2  0
 32  5  1  0
 30 14  1  0
 29 24  1  0
  1 33  1  0
  6 34  1  0
  7 35  1  0
 12 36  1  0
 12 37  1  0
 18 38  1  0
 25 39  1  0
 26 40  1  0
 27 41  1  0
 28 42  1  0
 29 43  1  0
 31 44  1  0
 32 45  1  0
M  CHG  4   1  -1   9  -1  20  -1  30  -1
M  END
>  <UniqueID>  (4) 
4

>  <SMILES>  (4) 
[NH-]S(=O)(=O)c1ccc([N-]C(=O)CSc2nc(=O)cc([N-]S(=O)(=O)c3ccccc3)[n-]2)cc1

>  <Energy>  (4) 
58.0812821524107

>  <Genealogy>  (4) 
[NH-]S(=O)(=O)c1ccc([N-]C(=O)CSc2nc(=O)cc([N-]S(=O)(=O)c3ccccc3)[n-]2)cc1 (protonated)
[NH-]S(=O)(=O)c1ccc([N-]C(=O)CSc2nc(=O)cc([N-]S(=O)(=O)c3ccccc3)[n-]2)cc1 (3D coordinates assigned)
[NH-]S(=O)(=O)c1ccc([N-]C(=O)CSc2nc(=O)cc([N-]S(=O)(=O)c3ccccc3)[n-]2)cc1 (optimized conformer: 58.0812821524107 kcal/mol)

>  <smiles>  (4) 
NS(=O)(=O)c1ccc(NC(=O)CSc2nc(=O)cc(NS(=O)(=O)c3ccccc3)[nH]2)cc1

>  <score_type>  (4) 
oracle

>  <origin>  (4) 
adg

>  <m_score__min__energy>  (4) 
-13.67

>  <m_primary>  (4) 
energy

$$$$
4:0
     RDKit          3D

 41 43  0  0  0  0  0  0  0  0999 V2000
   54.2050   24.8460   45.6170 O   0  0  0  0  0  0  0  0  0  0  0  0
   55.4360   24.5990   45.7180 C   0  0  0  0  0  0  0  0  0  0  0  0
   56.1680   25.2400   46.7730 N   0  0  0  0  0  0  0  0  0  0  0  0
   57.4340   25.9600   46.6650 C   0  0  0  0  0  0  0  0  0  0  0  0
   57.4460   26.9040   45.4850 C   0  0  0  0  0  0  0  0  0  0  0  0
   57.0170   28.2380   45.6210 C   0  0  0  0  0  0  0  0  0  0  0  0
   56.9970   29.1040   44.5110 C   0  0  0  0  0  0  0  0  0  0  0  0
   56.5920   30.4460   44.6030 O   0  0  0  0  0  0  0  0  0  0  0  0
   57.2040   31.5420   43.9230 C   0  0  0  0  0  0  0  0  0  0  0  0
   57.7310   32.5470   44.9050 C   0  0  0  0  0  0  0  0  0  0  0  0
   58.4270   33.6920   44.5240 C   0  0  0  0  0  0  0  0  0  0  0  0
   58.8110   34.5420   45.9240 S   0  0  0  0  0  0  0  0  0  0  0  0
   58.0750   33.4370   46.9540 C   0  0  0  0  0  0  0  0  0  0  0  0
   57.5360   32.4220   46.2470 N   0  0  0  0  0  0  0  0  0  0  0  0
   57.3940   28.6200   43.2610 C   0  0  0  0  0  0  0  0  0  0  0  0
   57.7910   27.2900   43.1090 C   0  0  0  0  0  0  0  0  0  0  0  0
   57.8060   26.4300   44.2090 C   0  0  0  0  0  0  0  0  0  0  0  0
   58.1760   25.1360   44.0300 F   0  0  0  0  0  0  0  0  0  0  0  0
   56.0560   23.7210   44.7600 N   0  0  0  0  0  0  0  0  0  0  0  0
   57.0430   22.7070   45.0960 C   0  0  0  0  0  0  0  0  0  0  0  0
   56.9680   21.6730   43.9820 C   0  0  0  0  0  0  0  0  0  0  0  0
   56.2950   22.3820   42.8140 C   0  0  0  0  0  0  0  0  0  0  0  0
   55.4820   23.5060   43.4410 C   0  0  0  0  0  0  0  0  0  0  0  0
   57.5931   26.5399   47.5861 H   0  0  0  0  0  0  0  0  0  0  0  0
   58.2354   25.2208   46.5186 H   0  0  0  0  0  0  0  0  0  0  0  0
   56.6939   28.6078   46.6053 H   0  0  0  0  0  0  0  0  0  0  0  0
   58.0357   31.1669   43.3085 H   0  0  0  0  0  0  0  0  0  0  0  0
   56.4502   32.0297   43.2875 H   0  0  0  0  0  0  0  0  0  0  0  0
   58.6796   33.9868   43.4948 H   0  0  0  0  0  0  0  0  0  0  0  0
   58.0379   33.5282   48.0496 H   0  0  0  0  0  0  0  0  0  0  0  0
   57.0250   31.6260   46.6900 H   0  0  0  0  0  0  0  0  0  0  0  0
   57.3936   29.2922   42.3903 H   0  0  0  0  0  0  0  0  0  0  0  0
   58.0931   26.9182   42.1188 H   0  0  0  0  0  0  0  0  0  0  0  0
   58.0486   23.1506   45.1403 H   0  0  0  0  0  0  0  0  0  0  0  0
   56.8443   22.2579   46.0803 H   0  0  0  0  0  0  0  0  0  0  0  0
   57.9771   21.3387   43.6991 H   0  0  0  0  0  0  0  0  0  0  0  0
   56.4095   20.7778   44.2928 H   0  0  0  0  0  0  0  0  0  0  0  0
   57.0490   22.7900   42.1248 H   0  0  0  0  0  0  0  0  0  0  0  0
   55.6645   21.6978   42.2272 H   0  0  0  0  0  0  0  0  0  0  0  0
   55.5613   24.4205   42.8349 H   0  0  0  0  0  0  0  0  0  0  0  0
   54.4141   23.2490   43.5008 H   0  0  0  0  0  0  0  0  0  0  0  0
  1  2  2  0
  2  3  1  0
  3  4  1  0
  4  5  1  0
  5  6  2  0
  6  7  1  0
  7  8  1  0
  8  9  1  0
  9 10  1  0
 10 11  2  0
 11 12  1  0
 12 13  1  0
 13 14  2  0
  7 15  2  0
 15 16  1  0
 16 17  2  0
 17 18  1  0
  2 19  1  0
 19 20  1  0
 20 21  1  0
 21 22  1  0
 22 23  1  0
 17  5  1  0
 23 19  1  0
 14 10  1  0
  4 24  1  0
  4 25  1  0
  6 26  1  0
  9 27  1  0
  9 28  1  0
 11 29  1  0
 13 30  1  0
 14 31  1  0
 15 32  1  0
 16 33  1  0
 20 34  1  0
 20 35  1  0
 21 36  1  0
 21 37  1  0
 22 38  1  0
 22 39  1  0
 23 40  1  0
 23 41  1  0
M  CHG  2   3  -1  14   1
M  END
>  <UniqueID>  (5) 
5

>  <SMILES>  (5) 
O=C([N-]Cc1cc(OCc2csc[nH+]2)ccc1F)N1CCCC1

>  <Energy>  (5) 
72.5539126942318

>  <Genealogy>  (5) 
O=C([N-]Cc1cc(OCc2csc[nH+]2)ccc1F)N1CCCC1 (protonated)
O=C([N-]Cc1cc(OCc2csc[nH+]2)ccc1F)N1CCCC1 (3D coordinates assigned)
O=C([N-]Cc1cc(OCc2csc[nH+]2)ccc1F)N1CCCC1 (nonaromatic ring conformer: 72.5539126942318 kcal/mol)

>  <smiles>  (5) 
O=C(NCc1cc(OCc2cscn2)ccc1F)N1CCCC1

>  <score_type>  (5) 
oracle

>  <origin>  (5) 
adg

>  <m_score__min__energy>  (5) 
-7.9800000000000004

>  <m_primary>  (5) 
energy

$$$$
5:0
     RDKit          3D

 57 60  0  0  0  0  0  0  0  0999 V2000
   54.7930   29.3590   44.2400 O   0  0  0  0  0  0  0  0  0  0  0  0
   55.9940   29.7270   44.3360 C   0  0  0  0  0  0  0  0  0  0  0  0
   56.6850   30.2060   43.1210 C   0  0  0  0  0  0  0  0  0  0  0  0
   57.4620   31.2950   43.0110 C   0  0  0  0  0  0  0  0  0  0  0  0
   57.5110   32.4280   43.9520 C   0  0  0  0  0  0  0  0  0  0  0  0
   58.5100   33.3780   43.9910 C   0  0  0  0  0  0  0  0  0  0  0  0
   58.1760   34.2260   45.0250 C   0  0  0  0  0  0  0  0  0  0  0  0
   57.0050   33.7350   45.5620 C   0  0  0  0  0  0  0  0  0  0  0  0
   56.6400   32.6580   44.9070 O   0  0  0  0  0  0  0  0  0  0  0  0
   56.6160   29.7910   45.6230 N   0  0  0  0  0  0  0  0  0  0  0  0
   58.0240   29.8180   45.8980 C   0  0  0  0  0  0  0  0  0  0  0  0
   58.5460   30.9790   46.4790 C   0  0  0  0  0  0  0  0  0  0  0  0
   59.9180   31.1070   46.7210 C   0  0  0  0  0  0  0  0  0  0  0  0
   60.5620   32.6080   47.3880 S   0  0  0  0  0  0  0  0  0  0  0  0
   59.4210   33.5490   47.6570 O   0  0  0  0  0  0  0  0  0  0  0  0
   61.4620   33.2550   46.3710 O   0  0  0  0  0  0  0  0  0  0  0  0
   61.4520   32.3480   48.8730 N   0  0  0  0  0  0  0  0  0  0  0  0
   62.6140   31.4420   48.7030 C   0  0  0  0  0  0  0  0  0  0  0  0
   63.9400   32.0360   49.1930 C   0  0  0  0  0  0  0  0  0  0  0  0
   64.0910   33.4630   48.6810 C   0  0  0  0  0  0  0  0  0  0  0  0
   62.9620   34.3630   49.1970 C   0  0  0  0  0  0  0  0  0  0  0  0
   61.6970   33.5920   49.6330 C   0  0  0  0  0  0  0  0  0  0  0  0
   60.7730   30.0420   46.4210 C   0  0  0  0  0  0  0  0  0  0  0  0
   60.2700   28.8830   45.8290 C   0  0  0  0  0  0  0  0  0  0  0  0
   58.9010   28.7650   45.5350 C   0  0  0  0  0  0  0  0  0  0  0  0
   58.4440   27.6300   44.7780 N   0  0  0  0  0  0  0  0  0  0  0  0
   58.7620   27.5620   43.3490 C   0  0  0  0  0  0  0  0  0  0  0  0
   57.7840   26.6160   42.6480 C   0  0  0  0  0  0  0  0  0  0  0  0
   57.7540   25.3580   43.2950 O   0  0  0  0  0  0  0  0  0  0  0  0
   57.2320   25.5040   44.6020 C   0  0  0  0  0  0  0  0  0  0  0  0
   58.1540   26.3690   45.4670 C   0  0  0  0  0  0  0  0  0  0  0  0
   56.5481   29.6061   42.2092 H   0  0  0  0  0  0  0  0  0  0  0  0
   58.1253   31.3466   42.1350 H   0  0  0  0  0  0  0  0  0  0  0  0
   59.3897   33.4450   43.3340 H   0  0  0  0  0  0  0  0  0  0  0  0
   58.7320   35.1158   45.3554 H   0  0  0  0  0  0  0  0  0  0  0  0
   56.4605   34.1778   46.4090 H   0  0  0  0  0  0  0  0  0  0  0  0
   57.8684   31.8023   46.7492 H   0  0  0  0  0  0  0  0  0  0  0  0
   62.4186   30.5181   49.2671 H   0  0  0  0  0  0  0  0  0  0  0  0
   62.7238   31.2616   47.6235 H   0  0  0  0  0  0  0  0  0  0  0  0
   63.9532   32.0401   50.2929 H   0  0  0  0  0  0  0  0  0  0  0  0
   64.7722   31.4254   48.8128 H   0  0  0  0  0  0  0  0  0  0  0  0
   65.0554   33.8663   49.0234 H   0  0  0  0  0  0  0  0  0  0  0  0
   64.0449   33.4441   47.5821 H   0  0  0  0  0  0  0  0  0  0  0  0
   63.3381   34.9289   50.0621 H   0  0  0  0  0  0  0  0  0  0  0  0
   62.6665   35.0152   48.3619 H   0  0  0  0  0  0  0  0  0  0  0  0
   61.8016   33.3313   50.6965 H   0  0  0  0  0  0  0  0  0  0  0  0
   60.8408   34.2546   49.4381 H   0  0  0  0  0  0  0  0  0  0  0  0
   61.8457   30.1182   46.6525 H   0  0  0  0  0  0  0  0  0  0  0  0
   60.9518   28.0535   45.5901 H   0  0  0  0  0  0  0  0  0  0  0  0
   58.6794   28.5662   42.9077 H   0  0  0  0  0  0  0  0  0  0  0  0
   59.7878   27.1860   43.2213 H   0  0  0  0  0  0  0  0  0  0  0  0
   56.7766   27.0572   42.6697 H   0  0  0  0  0  0  0  0  0  0  0  0
   58.1152   26.4714   41.6091 H   0  0  0  0  0  0  0  0  0  0  0  0
   56.2423   25.9805   44.5431 H   0  0  0  0  0  0  0  0  0  0  0  0
   57.1528   24.5077   45.0615 H   0  0  0  0  0  0  0  0  0  0  0  0
   57.6600   26.5825   46.4264 H   0  0  0  0  0  0  0  0  0  0  0  0
   59.0953   25.8288   45.6463 H   0  0  0  0  0  0  0  0  0  0  0  0
  1  2  2  0
  2  3  1  0
  3  4  2  3
  4  5  1  0
  5  6  2  0
  6  7  1  0
  7  8  2  0
  8  9  1  0
  2 10  1  0
 10 11  1  0
 11 12  2  0
 12 13  1  0
 13 14  1  0
 14 15  2  0
 14 16  2  0
 14 17  1  0
 17 18  1  0
 18 19  1  0
 19 20  1  0
 20 21  1  0
 21 22  1  0
 13 23  2  0
 23 24  1  0
 24 25  2  0
 25 26  1  0
 26 27  1  0
 27 28  1  0
 28 29  1  0
 29 30  1  0
 30 31  1  0
  9  5  1  0
 25 11  1  0
 31 26  1  0
 22 17  1  0
  3 32  1  0
  4 33  1  0
  6 34  1  0
  7 35  1  0
  8 36  1  0
 12 37  1  0
 18 38  1  0
 18 39  1  0
 19 40  1  0
 19 41  1  0
 20 42  1  0
 20 43  1  0
 21 44  1  0
 21 45  1  0
 22 46  1  0
 22 47  1  0
 23 48  1  0
 24 49  1  0
 27 50  1  0
 27 51  1  0
 28 52  1  0
 28 53  1  0
 30 54  1  0
 30 55  1  0
 31 56  1  0
 31 57  1  0
M  CHG  1  10  -1
M  END
>  <UniqueID>  (6) 
6

>  <SMILES>  (6) 
O=C(C=Cc1ccco1)[N-]c1cc(S(=O)(=O)N2CCCCC2)ccc1N1CCOCC1

>  <Energy>  (6) 
105.60992379645437

>  <Genealogy>  (6) 
O=C(C=Cc1ccco1)[N-]c1cc(S(=O)(=O)N2CCCCC2)ccc1N1CCOCC1 (protonated)
O=C(C=Cc1ccco1)[N-]c1cc(S(=O)(=O)N2CCCCC2)ccc1N1CCOCC1 (3D coordinates assigned)
O=C(C=Cc1ccco1)[N-]c1cc(S(=O)(=O)N2CCCCC2)ccc1N1CCOCC1 (nonaromatic ring conformer: 105.60992379645437 kcal/mol)

>  <smiles>  (6) 
O=C(C=Cc1ccco1)Nc1cc(S(=O)(=O)N2CCCCC2)ccc1N1CCOCC1

>  <score_type>  (6) 
oracle

>  <origin>  (6) 
adg

>  <m_score__min__energy>  (6) 
-11.279999999999999

>  <m_primary>  (6) 
energy

$$$$
6:0
     RDKit          3D

 29 30  0  0  0  0  0  0  0  0999 V2000
   55.9040   21.4600   42.6770 O   0  0  0  0  0  0  0  0  0  0  0  0
   56.4610   22.3720   43.5660 C   0  0  0  0  0  0  0  0  0  0  0  0
   55.7700   23.5440   43.8920 C   0  0  0  0  0  0  0  0  0  0  0  0
   56.3270   24.4610   44.7880 C   0  0  0  0  0  0  0  0  0  0  0  0
   57.5860   24.2160   45.3600 C   0  0  0  0  0  0  0  0  0  0  0  0
   58.1640   25.1800   46.3650 C   0  0  0  0  0  0  0  0  0  0  0  0
   59.1530   26.1560   45.7130 C   0  0  0  0  0  0  0  0  0  0  0  0
   58.5260   27.5050   45.4660 C   0  0  0  0  0  0  0  0  0  0  0  0
   59.3210   28.6610   45.4490 C   0  0  0  0  0  0  0  0  0  0  0  0
   58.7350   29.9170   45.2660 C   0  0  0  0  0  0  0  0  0  0  0  0
   57.3510   30.0340   45.1080 C   0  0  0  0  0  0  0  0  0  0  0  0
   56.7920   31.2990   44.9290 O   0  0  0  0  0  0  0  0  0  0  0  0
   56.5480   28.8810   45.1330 C   0  0  0  0  0  0  0  0  0  0  0  0
   55.1690   28.9780   44.9840 O   0  0  0  0  0  0  0  0  0  0  0  0
   57.1350   27.6240   45.3130 C   0  0  0  0  0  0  0  0  0  0  0  0
   58.2730   23.0340   45.0330 C   0  0  0  0  0  0  0  0  0  0  0  0
   57.7110   22.1180   44.1390 C   0  0  0  0  0  0  0  0  0  0  0  0
   54.7863   23.7443   43.4423 H   0  0  0  0  0  0  0  0  0  0  0  0
   55.7771   25.3781   45.0461 H   0  0  0  0  0  0  0  0  0  0  0  0
   57.3438   25.7547   46.8200 H   0  0  0  0  0  0  0  0  0  0  0  0
   58.7071   24.5984   47.1245 H   0  0  0  0  0  0  0  0  0  0  0  0
   60.0198   26.2824   46.3783 H   0  0  0  0  0  0  0  0  0  0  0  0
   59.4580   25.7373   44.7426 H   0  0  0  0  0  0  0  0  0  0  0  0
   60.4100   28.5787   45.5802 H   0  0  0  0  0  0  0  0  0  0  0  0
   59.3661   30.8177   45.2462 H   0  0  0  0  0  0  0  0  0  0  0  0
   55.8530   31.5200   45.2390 H   0  0  0  0  0  0  0  0  0  0  0  0
   56.5035   26.7236   45.3348 H   0  0  0  0  0  0  0  0  0  0  0  0
   59.2560   22.8292   45.4821 H   0  0  0  0  0  0  0  0  0  0  0  0
   58.2534   21.1952   43.8857 H   0  0  0  0  0  0  0  0  0  0  0  0
  1  2  1  0
  2  3  2  0
  3  4  1  0
  4  5  2  0
  5  6  1  0
  6  7  1  0
  7  8  1  0
  8  9  2  0
  9 10  1  0
 10 11  2  0
 11 12  1  0
 11 13  1  0
 13 14  1  0
 13 15  2  0
  5 16  1  0
 16 17  2  0
 17  2  1  0
 15  8  1  0
  3 18  1  0
  4 19  1  0
  6 20  1  0
  6 21  1  0
  7 22  1  0
  7 23  1  0
  9 24  1  0
 10 25  1  0
 12 26  1  0
 15 27  1  0
 16 28  1  0
 17 29  1  0
M  CHG  2   1  -1  14  -1
M  END
>  <UniqueID>  (7) 
7

>  <SMILES>  (7) 
[O-]c1ccc(CCc2ccc(O)c([O-])c2)cc1

>  <Energy>  (7) 
25.929380045158123

>  <Genealogy>  (7) 
[O-]c1ccc(CCc2ccc(O)c([O-])c2)cc1 (protonated)
[O-]c1ccc(CCc2ccc(O)c([O-])c2)cc1 (3D coordinates assigned)
[O-]c1ccc(CCc2ccc(O)c([O-])c2)cc1 (optimized conformer: 25.929380045158123 kcal/mol)

>  <smiles>  (7) 
Oc1ccc(CCc2ccc(O)c(O)c2)cc1

>  <score_type>  (7) 
oracle

>  <origin>  (7) 
adg

>  <m_score__min__energy>  (7) 
-11.4

>  <m_primary>  (7) 
energy

$$$$
7:0
     RDKit          3D

 46 49  0  0  0  0  0  0  0  0999 V2000
   59.6430   35.7290   45.6710 C   0  0  0  0  0  0  0  0  0  0  0  0
   59.8670   34.3480   46.1080 N   0  0  0  0  0  0  0  0  0  0  0  0
   59.0140   33.3060   45.6050 C   0  0  0  0  0  0  0  0  0  0  0  0
   58.5270   33.3640   44.2910 C   0  0  0  0  0  0  0  0  0  0  0  0
   57.6730   32.3690   43.8110 C   0  0  0  0  0  0  0  0  0  0  0  0
   57.2780   31.3150   44.6470 C   0  0  0  0  0  0  0  0  0  0  0  0
   56.3210   30.3100   44.1540 C   0  0  0  0  0  0  0  0  0  0  0  0
   55.8990   30.3930   42.9710 O   0  0  0  0  0  0  0  0  0  0  0  0
   55.8120   29.2700   45.0020 N   0  0  0  0  0  0  0  0  0  0  0  0
   56.4570   27.9800   45.2450 C   0  0  0  0  0  0  0  0  0  0  0  0
   57.9420   28.1490   45.4450 C   0  0  0  0  0  0  0  0  0  0  0  0
   58.7940   28.3280   44.3420 C   0  0  0  0  0  0  0  0  0  0  0  0
   60.1650   28.5280   44.5360 C   0  0  0  0  0  0  0  0  0  0  0  0
   60.6950   28.5360   45.8280 C   0  0  0  0  0  0  0  0  0  0  0  0
   59.8570   28.3410   46.9280 C   0  0  0  0  0  0  0  0  0  0  0  0
   58.4860   28.1460   46.7400 C   0  0  0  0  0  0  0  0  0  0  0  0
   57.7810   31.2430   45.9550 C   0  0  0  0  0  0  0  0  0  0  0  0
   58.6400   32.2360   46.4330 C   0  0  0  0  0  0  0  0  0  0  0  0
   60.9620   34.0350   46.9940 C   0  0  0  0  0  0  0  0  0  0  0  0
   60.9060   34.1770   48.3450 N   0  0  0  0  0  0  0  0  0  0  0  0
   62.0850   33.8490   48.9340 C   0  0  0  0  0  0  0  0  0  0  0  0
   62.3300   33.8980   50.3090 C   0  0  0  0  0  0  0  0  0  0  0  0
   63.6020   33.5340   50.7810 C   0  0  0  0  0  0  0  0  0  0  0  0
   64.6110   33.1310   49.8820 C   0  0  0  0  0  0  0  0  0  0  0  0
   66.1950   32.6830   50.4880 Cl  0  0  0  0  0  0  0  0  0  0  0  0
   64.3530   33.0860   48.5020 C   0  0  0  0  0  0  0  0  0  0  0  0
   63.0840   33.4510   48.0600 C   0  0  0  0  0  0  0  0  0  0  0  0
   62.4960   33.5060   46.4880 S   0  0  0  0  0  0  0  0  0  0  0  0
   59.5375   36.3797   46.5516 H   0  0  0  0  0  0  0  0  0  0  0  0
   60.4983   36.0657   45.0667 H   0  0  0  0  0  0  0  0  0  0  0  0
   58.7252   35.7781   45.0667 H   0  0  0  0  0  0  0  0  0  0  0  0
   58.8193   34.1975   43.6353 H   0  0  0  0  0  0  0  0  0  0  0  0
   57.3090   32.4122   42.7739 H   0  0  0  0  0  0  0  0  0  0  0  0
   56.0219   27.5242   46.1466 H   0  0  0  0  0  0  0  0  0  0  0  0
   56.2919   27.3346   44.3697 H   0  0  0  0  0  0  0  0  0  0  0  0
   58.3815   28.3108   43.3224 H   0  0  0  0  0  0  0  0  0  0  0  0
   60.8262   28.6791   43.6700 H   0  0  0  0  0  0  0  0  0  0  0  0
   61.7727   28.6959   45.9793 H   0  0  0  0  0  0  0  0  0  0  0  0
   60.2770   28.3409   47.9447 H   0  0  0  0  0  0  0  0  0  0  0  0
   57.8305   27.9896   47.6094 H   0  0  0  0  0  0  0  0  0  0  0  0
   57.4983   30.4025   46.6059 H   0  0  0  0  0  0  0  0  0  0  0  0
   59.0246   32.1790   47.4620 H   0  0  0  0  0  0  0  0  0  0  0  0
   60.0680   34.5030   48.8760 H   0  0  0  0  0  0  0  0  0  0  0  0
   61.5422   34.2154   51.0080 H   0  0  0  0  0  0  0  0  0  0  0  0
   63.8127   33.5635   51.8602 H   0  0  0  0  0  0  0  0  0  0  0  0
   65.1311   32.7715   47.7909 H   0  0  0  0  0  0  0  0  0  0  0  0
  1  2  1  0
  2  3  1  0
  3  4  2  0
  4  5  1  0
  5  6  2  0
  6  7  1  0
  7  8  2  0
  7  9  1  0
  9 10  1  0
 10 11  1  0
 11 12  2  0
 12 13  1  0
 13 14  2  0
 14 15  1  0
 15 16  2  0
  6 17  1  0
 17 18  2  0
  2 19  1  0
 19 20  2  0
 20 21  1  0
 21 22  2  0
 22 23  1  0
 23 24  2  0
 24 25  1  0
 24 26  1  0
 26 27  2  0
 27 28  1  0
 18  3  1  0
 28 19  1  0
 16 11  1  0
 27 21  1  0
  1 29  1  0
  1 30  1  0
  1 31  1  0
  4 32  1  0
  5 33  1  0
 10 34  1  0
 10 35  1  0
 12 36  1  0
 13 37  1  0
 14 38  1  0
 15 39  1  0
 16 40  1  0
 17 41  1  0
 18 42  1  0
 20 43  1  0
 22 44  1  0
 23 45  1  0
 26 46  1  0
M  CHG  2   9  -1  20   1
M  END
>  <UniqueID>  (8) 
8

>  <SMILES>  (8) 
CN(c1ccc(C(=O)[N-]Cc2ccccc2)cc1)c1[nH+]c2ccc(Cl)cc2s1

>  <Energy>  (8) 
92.52052154374493

>  <Genealogy>  (8) 
CN(c1ccc(C(=O)[N-]Cc2ccccc2)cc1)c1[nH+]c2ccc(Cl)cc2s1 (protonated)
CN(c1ccc(C(=O)[N-]Cc2ccccc2)cc1)c1[nH+]c2ccc(Cl)cc2s1 (3D coordinates assigned)
CN(c1ccc(C(=O)[N-]Cc2ccccc2)cc1)c1[nH+]c2ccc(Cl)cc2s1 (optimized conformer: 92.52052154374493 kcal/mol)

>  <smiles>  (8) 
CN(c1ccc(C(=O)NCc2ccccc2)cc1)c1nc2ccc(Cl)cc2s1

>  <score_type>  (8) 
oracle

>  <origin>  (8) 
adg

>  <m_score__min__energy>  (8) 
-9.5399999999999991

>  <m_primary>  (8) 
energy

$$$$
8:0
     RDKit          3D

 45 47  0  0  0  0  0  0  0  0999 V2000
   55.7420   29.6550   43.9700 C   0  0  0  0  0  0  0  0  0  0  0  0
   55.9720   29.0480   45.2370 O   0  0  0  0  0  0  0  0  0  0  0  0
   57.0140   28.1460   45.5110 C   0  0  0  0  0  0  0  0  0  0  0  0
   56.8370   26.7530   45.4000 C   0  0  0  0  0  0  0  0  0  0  0  0
   57.8760   25.8790   45.7330 C   0  0  0  0  0  0  0  0  0  0  0  0
   59.0960   26.3830   46.1850 C   0  0  0  0  0  0  0  0  0  0  0  0
   59.2870   27.7610   46.2930 C   0  0  0  0  0  0  0  0  0  0  0  0
   58.2630   28.6510   45.9350 C   0  0  0  0  0  0  0  0  0  0  0  0
   58.4940   30.0620   46.0610 N   0  0  0  0  0  0  0  0  0  0  0  0
   58.4570   30.9670   44.9460 C   0  0  0  0  0  0  0  0  0  0  0  0
   58.3730   30.5230   43.7690 O   0  0  0  0  0  0  0  0  0  0  0  0
   58.5520   32.4160   45.1700 C   0  0  0  0  0  0  0  0  0  0  0  0
   58.0300   33.4010   44.3510 C   0  0  0  0  0  0  0  0  0  0  0  0
   58.3620   34.6000   44.9470 C   0  0  0  0  0  0  0  0  0  0  0  0
   59.0630   34.2660   46.0900 C   0  0  0  0  0  0  0  0  0  0  0  0
   59.6510   35.2350   47.0660 C   0  0  0  0  0  0  0  0  0  0  0  0
   60.3600   34.5410   48.0930 O   0  0  0  0  0  0  0  0  0  0  0  0
   61.3760   33.5920   47.8830 C   0  0  0  0  0  0  0  0  0  0  0  0
   62.6890   33.9590   47.5240 C   0  0  0  0  0  0  0  0  0  0  0  0
   63.6670   32.9820   47.3310 C   0  0  0  0  0  0  0  0  0  0  0  0
   63.3490   31.6330   47.4870 C   0  0  0  0  0  0  0  0  0  0  0  0
   62.0520   31.2550   47.8370 C   0  0  0  0  0  0  0  0  0  0  0  0
   61.0550   32.2320   48.0370 C   0  0  0  0  0  0  0  0  0  0  0  0
   59.7400   31.8930   48.3910 O   0  0  0  0  0  0  0  0  0  0  0  0
   59.1160   32.2580   49.6170 C   0  0  0  0  0  0  0  0  0  0  0  0
   59.1610   32.9620   46.1980 O   0  0  0  0  0  0  0  0  0  0  0  0
   55.3557   30.6745   44.1166 H   0  0  0  0  0  0  0  0  0  0  0  0
   56.6862   29.6980   43.4072 H   0  0  0  0  0  0  0  0  0  0  0  0
   55.0064   29.0615   43.4072 H   0  0  0  0  0  0  0  0  0  0  0  0
   55.8753   26.3504   45.0491 H   0  0  0  0  0  0  0  0  0  0  0  0
   57.7315   24.7926   45.6386 H   0  0  0  0  0  0  0  0  0  0  0  0
   59.9085   25.6930   46.4566 H   0  0  0  0  0  0  0  0  0  0  0  0
   60.2468   28.1523   46.6613 H   0  0  0  0  0  0  0  0  0  0  0  0
   58.8560   30.4190   46.9740 H   0  0  0  0  0  0  0  0  0  0  0  0
   57.4665   33.2578   43.4172 H   0  0  0  0  0  0  0  0  0  0  0  0
   58.1194   35.6109   44.5874 H   0  0  0  0  0  0  0  0  0  0  0  0
   60.3441   35.9059   46.5373 H   0  0  0  0  0  0  0  0  0  0  0  0
   58.8375   35.8160   47.5250 H   0  0  0  0  0  0  0  0  0  0  0  0
   62.9442   35.0212   47.3953 H   0  0  0  0  0  0  0  0  0  0  0  0
   64.6904   33.2765   47.0554 H   0  0  0  0  0  0  0  0  0  0  0  0
   64.1220   30.8655   47.3339 H   0  0  0  0  0  0  0  0  0  0  0  0
   61.8062   30.1896   47.9575 H   0  0  0  0  0  0  0  0  0  0  0  0
   59.7264   31.9010   50.4596 H   0  0  0  0  0  0  0  0  0  0  0  0
   59.0232   33.3528   49.6695 H   0  0  0  0  0  0  0  0  0  0  0  0
   58.1162   31.8023   49.6695 H   0  0  0  0  0  0  0  0  0  0  0  0
  1  2  1  0
  2  3  1  0
  3  4  2  0
  4  5  1  0
  5  6  2  0
  6  7  1  0
  7  8  2  0
  8  9  1  0
  9 10  1  0
 10 11  2  0
 10 12  1  0
 12 13  2  0
 13 14  1  0
 14 15  2  0
 15 16  1  0
 16 17  1  0
 17 18  1  0
 18 19  2  0
 19 20  1  0
 20 21  2  0
 21 22  1  0
 22 23  2  0
 23 24  1  0
 24 25  1  0
 15 26  1  0
  8  3  1  0
 26 12  1  0
 23 18  1  0
  1 27  1  0
  1 28  1  0
  1 29  1  0
  4 30  1  0
  5 31  1  0
  6 32  1  0
  7 33  1  0
  9 34  1  0
 13 35  1  0
 14 36  1  0
 16 37  1  0
 16 38  1  0
 19 39  1  0
 20 40  1  0
 21 41  1  0
 22 42  1  0
 25 43  1  0
 25 44  1  0
 25 45  1  0
M  END
>  <UniqueID>  (9) 
9

>  <SMILES>  (9) 
COc1ccccc1NC(=O)c1ccc(COc2ccccc2OC)o1

>  <Energy>  (9) 
75.1465338755626

>  <Genealogy>  (9) 
COc1ccccc1NC(=O)c1ccc(COc2ccccc2OC)o1 (3D coordinates assigned)
COc1ccccc1NC(=O)c1ccc(COc2ccccc2OC)o1 (optimized conformer: 75.1465338755626 kcal/mol)

>  <smiles>  (9) 
COc1ccccc1NC(=O)c1ccc(COc2ccccc2OC)o1

>  <score_type>  (9) 
oracle

>  <origin>  (9) 
adg

>  <m_score__min__energy>  (9) 
-8.5700000000000003

>  <m_primary>  (9) 
energy

$$$$
9:0
     RDKit          3D

 74 78  0  0  0  0  0  0  0  0999 V2000
   63.7720   32.9080   46.7790 C   0  0  0  0  0  0  0  0  0  0  0  0
   63.3240   33.7320   47.8510 O   0  0  0  0  0  0  0  0  0  0  0  0
   61.9880   33.8440   48.2710 C   0  0  0  0  0  0  0  0  0  0  0  0
   60.9250   33.9600   47.3530 C   0  0  0  0  0  0  0  0  0  0  0  0
   59.5990   34.0520   47.8110 C   0  0  0  0  0  0  0  0  0  0  0  0
   58.4630   34.1630   46.8350 C   0  0  0  0  0  0  0  0  0  0  0  0
   59.3330   33.9750   49.1870 C   0  0  0  0  0  0  0  0  0  0  0  0
   60.3840   33.8540   50.0980 C   0  0  0  0  0  0  0  0  0  0  0  0
   61.7080   33.8160   49.6510 C   0  0  0  0  0  0  0  0  0  0  0  0
   62.7370   33.7160   50.5940 O   0  0  0  0  0  0  0  0  0  0  0  0
   63.4000   32.5220   50.9110 C   0  0  0  0  0  0  0  0  0  0  0  0
   64.7670   32.3360   50.6550 C   0  0  0  0  0  0  0  0  0  0  0  0
   65.3830   31.1860   51.0390 N   0  0  0  0  0  0  0  0  0  0  0  0
   64.7060   30.1860   51.6620 C   0  0  0  0  0  0  0  0  0  0  0  0
   63.3260   30.3060   51.9000 C   0  0  0  0  0  0  0  0  0  0  0  0
   62.5470   29.1720   52.5110 C   0  0  0  0  0  0  0  0  0  0  0  0
   60.7940   29.3600   52.2200 S   0  0  0  0  0  0  0  0  0  0  0  0
   59.7950   28.0730   52.9340 C   0  0  0  0  0  0  0  0  0  0  0  0
   60.3300   29.8090   50.5800 C   0  0  0  0  0  0  0  0  0  0  0  0
   61.2560   29.6330   49.6030 N   0  0  0  0  0  0  0  0  0  0  0  0
   60.9950   29.8840   48.2950 C   0  0  0  0  0  0  0  0  0  0  0  0
   59.7250   30.3240   47.8950 C   0  0  0  0  0  0  0  0  0  0  0  0
   59.4390   30.5590   46.4560 C   0  0  0  0  0  0  0  0  0  0  0  0
   60.2780   30.1650   45.5990 O   0  0  0  0  0  0  0  0  0  0  0  0
   58.2270   31.2090   46.0220 N   0  0  0  0  0  0  0  0  0  0  0  0
   57.8860   31.4090   44.6410 C   0  0  0  0  0  0  0  0  0  0  0  0
   57.0510   30.5070   43.9550 C   0  0  0  0  0  0  0  0  0  0  0  0
   56.7610   30.7070   42.6010 C   0  0  0  0  0  0  0  0  0  0  0  0
   57.3080   31.8020   41.9200 C   0  0  0  0  0  0  0  0  0  0  0  0
   57.0270   31.9950   40.6080 F   0  0  0  0  0  0  0  0  0  0  0  0
   58.1510   32.6910   42.5900 C   0  0  0  0  0  0  0  0  0  0  0  0
   58.4460   32.4910   43.9430 C   0  0  0  0  0  0  0  0  0  0  0  0
   58.7430   30.4910   48.8830 C   0  0  0  0  0  0  0  0  0  0  0  0
   59.0370   30.2670   50.2380 C   0  0  0  0  0  0  0  0  0  0  0  0
   57.9650   30.4560   51.2350 C   0  0  0  0  0  0  0  0  0  0  0  0
   57.3870   29.4550   51.7290 O   0  0  0  0  0  0  0  0  0  0  0  0
   57.6710   31.7840   51.7000 N   0  0  0  0  0  0  0  0  0  0  0  0
   58.3570   32.5490   52.5040 C   0  0  0  0  0  0  0  0  0  0  0  0
   59.2210   32.0510   53.5040 C   0  0  0  0  0  0  0  0  0  0  0  0
   59.8640   32.9220   54.3260 N   0  0  0  0  0  0  0  0  0  0  0  0
   59.7040   34.2650   54.2080 C   0  0  0  0  0  0  0  0  0  0  0  0
   60.4020   35.1920   55.1510 C   0  0  0  0  0  0  0  0  0  0  0  0
   58.8410   34.7620   53.2270 C   0  0  0  0  0  0  0  0  0  0  0  0
   58.1920   33.8950   52.4050 N   0  0  0  0  0  0  0  0  0  0  0  0
   62.6850   31.4960   51.5320 C   0  0  0  0  0  0  0  0  0  0  0  0
   64.2601   32.0102   47.1859 H   0  0  0  0  0  0  0  0  0  0  0  0
   62.9119   32.6097   46.1616 H   0  0  0  0  0  0  0  0  0  0  0  0
   64.4900   33.4678   46.1616 H   0  0  0  0  0  0  0  0  0  0  0  0
   61.1338   33.9786   46.2732 H   0  0  0  0  0  0  0  0  0  0  0  0
   57.5148   34.2556   47.3849 H   0  0  0  0  0  0  0  0  0  0  0  0
   58.6084   35.0512   46.2026 H   0  0  0  0  0  0  0  0  0  0  0  0
   58.4337   33.2634   46.2026 H   0  0  0  0  0  0  0  0  0  0  0  0
   58.2946   34.0101   49.5483 H   0  0  0  0  0  0  0  0  0  0  0  0
   60.1688   33.7881   51.1747 H   0  0  0  0  0  0  0  0  0  0  0  0
   65.3415   33.1219   50.1427 H   0  0  0  0  0  0  0  0  0  0  0  0
   65.2401   29.2790   51.9813 H   0  0  0  0  0  0  0  0  0  0  0  0
   62.8847   28.2243   52.0662 H   0  0  0  0  0  0  0  0  0  0  0  0
   62.7217   29.1754   53.5970 H   0  0  0  0  0  0  0  0  0  0  0  0
   59.8443   28.1366   54.0311 H   0  0  0  0  0  0  0  0  0  0  0  0
   58.7520   28.1940   52.6062 H   0  0  0  0  0  0  0  0  0  0  0  0
   60.1709   27.0926   52.6062 H   0  0  0  0  0  0  0  0  0  0  0  0
   61.7853   29.7413   47.5433 H   0  0  0  0  0  0  0  0  0  0  0  0
   57.5150   31.5040   46.7250 H   0  0  0  0  0  0  0  0  0  0  0  0
   56.6252   29.6423   44.4851 H   0  0  0  0  0  0  0  0  0  0  0  0
   56.1026   30.0034   42.0705 H   0  0  0  0  0  0  0  0  0  0  0  0
   58.5833   33.5488   42.0539 H   0  0  0  0  0  0  0  0  0  0  0  0
   59.1212   33.1861   44.4634 H   0  0  0  0  0  0  0  0  0  0  0  0
   57.7286   30.8017   48.5923 H   0  0  0  0  0  0  0  0  0  0  0  0
   59.3724   30.9673   53.6168 H   0  0  0  0  0  0  0  0  0  0  0  0
   60.1797   34.8968   56.1871 H   0  0  0  0  0  0  0  0  0  0  0  0
   61.4874   35.1403   54.9798 H   0  0  0  0  0  0  0  0  0  0  0  0
   60.0524   36.2208   54.9798 H   0  0  0  0  0  0  0  0  0  0  0  0
   58.6882   35.8462   53.1209 H   0  0  0  0  0  0  0  0  0  0  0  0
   61.6111   31.6230   51.7336 H   0  0  0  0  0  0  0  0  0  0  0  0
  1  2  1  0
  2  3  1  0
  3  4  2  0
  4  5  1  0
  5  6  1  0
  5  7  2  0
  7  8  1  0
  8  9  2  0
  9 10  1  0
 10 11  1  0
 11 12  2  0
 12 13  1  0
 13 14  2  0
 14 15  1  0
 15 16  1  0
 17 16  1  6
 17 18  1  0
 17 19  1  0
 19 20  2  0
 20 21  1  0
 21 22  2  0
 22 23  1  0
 23 24  2  0
 23 25  1  0
 25 26  1  0
 26 27  2  0
 27 28  1  0
 28 29  2  0
 29 30  1  0
 29 31  1  0
 31 32  2  0
 22 33  1  0
 33 34  2  0
 34 35  1  0
 35 36  2  0
 35 37  1  0
 37 38  2  3
 38 39  1  0
 39 40  2  0
 40 41  1  0
 41 42  1  0
 41 43  2  0
 43 44  1  0
 15 45  2  0
  9  3  1  0
 45 11  1  0
 34 19  1  0
 44 38  1  0
 32 26  1  0
  1 46  1  0
  1 47  1  0
  1 48  1  0
  4 49  1  0
  6 50  1  0
  6 51  1  0
  6 52  1  0
  7 53  1  0
  8 54  1  0
 12 55  1  0
 14 56  1  0
 16 57  1  0
 16 58  1  0
 18 59  1  0
 18 60  1  0
 18 61  1  0
 21 62  1  0
 25 63  1  0
 27 64  1  0
 28 65  1  0
 31 66  1  0
 32 67  1  0
 33 68  1  0
 39 69  1  0
 42 70  1  0
 42 71  1  0
 42 72  1  0
 43 73  1  0
 45 74  1  0
M  CHG  2  17   1  44  -1
M  END
>  <UniqueID>  (10) 
10

>  <SMILES>  (10) 
COc1cc(C)ccc1Oc1cncc(C[S@+](C)c2ncc(C(=O)Nc3ccc(F)cc3)cc2C(=O)N=c2cnc(C)c[n-]2)c1

>  <Energy>  (10) 
100.44848631756112

>  <Genealogy>  (10) 
COc1cc(C)ccc1Oc1cncc(C[S+](C)c2ncc(C(=O)Nc3ccc(F)cc3)cc2C(=O)N=c2cnc(C)c[n-]2)c1 (protonated)
COc1cc(C)ccc1Oc1cncc(C[S@+](C)c2ncc(C(=O)Nc3ccc(F)cc3)cc2C(=O)N=c2cnc(C)c[n-]2)c1 (chirality)
COc1cc(C)ccc1Oc1cncc(C[S@+](C)c2ncc(C(=O)Nc3ccc(F)cc3)cc2C(=O)N=c2cnc(C)c[n-]2)c1 (3D coordinates assigned)
COc1cc(C)ccc1Oc1cncc(C[S@+](C)c2ncc(C(=O)Nc3ccc(F)cc3)cc2C(=O)N=c2cnc(C)c[n-]2)c1 (optimized conformer: 100.44848631756112 kcal/mol)

>  <smiles>  (10) 
COc1cc(C)ccc1Oc1cncc(C[S+](C)c2ncc(C(=O)Nc3ccc(F)cc3)cc2C(=O)N=c2cnc(C)c[nH]2)c1

>  <score_type>  (10) 
oracle

>  <origin>  (10) 
adg

>  <m_score__min__energy>  (10) 
-9.9399999999999995

>  <m_primary>  (10) 
energy

$$$$
10:0
     RDKit          3D

 53 56  0  0  1  0  0  0  0  0999 V2000
   58.1100   32.3180   42.7440 C   0  0  0  0  0  0  0  0  0  0  0  0
   58.2280   32.0710   44.1770 N   0  0  0  0  0  0  0  0  0  0  0  0
   57.7880   30.8120   44.6520 C   0  0  0  0  0  0  0  0  0  0  0  0
   58.5880   29.9070   45.3120 C   0  0  0  0  0  0  0  0  0  0  0  0
   58.1310   28.6720   45.7520 C   0  0  0  0  0  0  0  0  0  0  0  0
   56.8240   28.2910   45.5410 C   0  0  0  0  0  0  0  0  0  0  0  0
   56.2820   27.0560   45.9550 N   0  0  0  0  0  0  0  0  0  0  0  0
   56.6270   25.8480   45.2550 C   0  0  0  0  0  0  0  0  0  0  0  0
   57.4130   25.9770   44.2930 O   0  0  0  0  0  0  0  0  0  0  0  0
   56.0900   24.6040   45.6600 N   0  0  0  0  0  0  0  0  0  0  0  0
   56.3500   23.3550   45.0610 C   0  0  0  0  0  0  0  0  0  0  0  0
   56.4680   23.3410   43.6650 C   0  0  0  0  0  0  0  0  0  0  0  0
   56.7190   22.1650   43.0100 C   0  0  0  0  0  0  0  0  0  0  0  0
   56.8670   20.9530   43.6500 C   0  0  0  0  0  0  0  0  0  0  0  0
   56.7520   20.9610   45.0250 C   0  0  0  0  0  0  0  0  0  0  0  0
   56.9410   19.3440   45.9920 Br  0  0  0  0  0  0  0  0  0  0  0  0
   56.4960   22.1650   45.6900 C   0  0  0  0  0  0  0  0  0  0  0  0
   56.0060   29.1820   44.8820 C   0  0  0  0  0  0  0  0  0  0  0  0
   56.4630   30.4050   44.4480 C   0  0  0  0  0  0  0  0  0  0  0  0
   58.7650   33.1020   44.9640 C   0  0  0  0  0  0  0  0  0  0  0  0
   59.3060   32.7480   46.1640 N   0  0  0  0  0  0  0  0  0  0  0  0
   59.8290   33.6710   46.9960 C   0  0  0  0  0  0  0  0  0  0  0  0
   60.3340   33.3360   48.1250 N   0  0  0  0  0  0  0  0  0  0  0  0
   61.7280   33.2960   48.4100 C   0  0  0  0  0  0  0  0  0  0  0  0
   62.1220   33.4440   49.7400 C   0  0  0  0  0  0  0  0  0  0  0  0
   63.4360   33.4230   50.1320 C   0  0  0  0  0  0  0  0  0  0  0  0
   64.3950   33.2490   49.1550 C   0  0  0  0  0  0  0  0  0  0  0  0
   64.0440   33.0970   47.8100 C   0  0  0  0  0  0  0  0  0  0  0  0
   62.6940   33.1220   47.4420 C   0  0  0  0  0  0  0  0  0  0  0  0
   59.8300   35.0090   46.6520 C   0  0  0  0  0  0  0  0  0  0  0  0
   59.2810   35.3600   45.4370 C   0  0  0  0  0  0  0  0  0  0  0  0
   58.7710   34.4040   44.6410 N   0  0  0  0  0  0  0  0  0  0  0  0
   57.6412   33.2992   42.5784 H   0  0  0  0  0  0  0  0  0  0  0  0
   59.1103   32.3077   42.2865 H   0  0  0  0  0  0  0  0  0  0  0  0
   57.4895   31.5333   42.2865 H   0  0  0  0  0  0  0  0  0  0  0  0
   59.6383   30.1747   45.4996 H   0  0  0  0  0  0  0  0  0  0  0  0
   58.8193   27.9911   46.2742 H   0  0  0  0  0  0  0  0  0  0  0  0
   55.6300   27.0180   46.7660 H   0  0  0  0  0  0  0  0  0  0  0  0
   55.4330   24.6500   46.4950 H   0  0  0  0  0  0  0  0  0  0  0  0
   56.3589   24.2753   43.0948 H   0  0  0  0  0  0  0  0  0  0  0  0
   56.8073   22.1887   41.9138 H   0  0  0  0  0  0  0  0  0  0  0  0
   57.0668   20.0260   43.0925 H   0  0  0  0  0  0  0  0  0  0  0  0
   56.4084   22.1436   46.7863 H   0  0  0  0  0  0  0  0  0  0  0  0
   54.9569   28.9078   44.6973 H   0  0  0  0  0  0  0  0  0  0  0  0
   55.7695   31.0814   43.9269 H   0  0  0  0  0  0  0  0  0  0  0  0
   61.3458   33.5835   50.5068 H   0  0  0  0  0  0  0  0  0  0  0  0
   63.7160   33.5408   51.1892 H   0  0  0  0  0  0  0  0  0  0  0  0
   65.4572   33.2295   49.4401 H   0  0  0  0  0  0  0  0  0  0  0  0
   64.8236   32.9587   47.0464 H   0  0  0  0  0  0  0  0  0  0  0  0
   62.4055   33.0036   46.3871 H   0  0  0  0  0  0  0  0  0  0  0  0
   60.2545   35.7687   47.3248 H   0  0  0  0  0  0  0  0  0  0  0  0
   59.2604   36.4136   45.1215 H   0  0  0  0  0  0  0  0  0  0  0  0
   58.3580   34.7250   43.7400 H   0  0  0  0  0  0  0  0  0  0  0  0
  1  2  1  0
  2  3  1  0
  3  4  2  0
  4  5  1  0
  5  6  2  0
  6  7  1  0
  7  8  1  0
  8  9  2  0
  8 10  1  0
 10 11  1  0
 11 12  2  0
 12 13  1  0
 13 14  2  0
 14 15  1  0
 15 16  1  0
 15 17  2  0
  6 18  1  0
 18 19  2  0
  2 20  1  0
 20 21  2  0
 21 22  1  0
 22 23  2  0
 23 24  1  0
 24 25  2  0
 25 26  1  0
 26 27  2  0
 27 28  1  0
 28 29  2  0
 22 30  1  0
 30 31  2  0
 31 32  1  0
 19  3  1  0
 32 20  1  0
 17 11  1  0
 29 24  1  0
  1 33  1  0
  1 34  1  0
  1 35  1  0
  4 36  1  0
  5 37  1  0
  7 38  1  0
 10 39  1  0
 12 40  1  0
 13 41  1  0
 14 42  1  0
 17 43  1  0
 18 44  1  0
 19 45  1  0
 25 46  1  0
 26 47  1  0
 27 48  1  0
 28 49  1  0
 29 50  1  0
 30 51  1  0
 31 52  1  0
 32 53  1  0
M  END
>  <smiles>  (11) 
CN(c1ccc(NC(=O)Nc2cccc(Br)c2)cc1)c1nc(=Nc2ccccc2)cc[nH]1

>  <score_type>  (11) 
oracle

>  <origin>  (11) 
adg

>  <m_score__min__energy>  (11) 
-9.4800000000000004

>  <m_primary>  (11) 
energy

$$$$
11:0
     RDKit          3D

 42 46  0  0  0  0  0  0  0  0999 V2000
   60.0110   35.9060   46.0460 O   0  0  0  0  0  0  0  0  0  0  0  0
   59.3800   34.6890   45.7660 C   0  0  0  0  0  0  0  0  0  0  0  0
   58.2750   34.7120   44.9180 C   0  0  0  0  0  0  0  0  0  0  0  0
   57.6070   33.5380   44.5890 C   0  0  0  0  0  0  0  0  0  0  0  0
   58.0310   32.3110   45.1100 C   0  0  0  0  0  0  0  0  0  0  0  0
   57.3290   31.1410   44.7620 C   0  0  0  0  0  0  0  0  0  0  0  0
   57.7160   29.8950   45.2600 C   0  0  0  0  0  0  0  0  0  0  0  0
   58.8230   29.8100   46.1080 C   0  0  0  0  0  0  0  0  0  0  0  0
   59.3210   28.6280   46.7030 C   0  0  0  0  0  0  0  0  0  0  0  0
   58.8050   27.2640   46.4540 C   0  0  0  0  0  0  0  0  0  0  0  0
   57.4240   27.0100   46.5210 C   0  0  0  0  0  0  0  0  0  0  0  0
   56.9340   25.7180   46.3090 C   0  0  0  0  0  0  0  0  0  0  0  0
   57.8170   24.6690   46.0400 C   0  0  0  0  0  0  0  0  0  0  0  0
   59.1930   24.9100   45.9890 C   0  0  0  0  0  0  0  0  0  0  0  0
   59.6880   26.2000   46.2000 C   0  0  0  0  0  0  0  0  0  0  0  0
   60.3890   28.8640   47.5650 C   0  0  0  0  0  0  0  0  0  0  0  0
   60.7210   30.5100   47.5610 S   0  0  0  0  0  0  0  0  0  0  0  0
   59.5130   30.9690   46.4770 C   0  0  0  0  0  0  0  0  0  0  0  0
   59.1550   32.2520   45.9870 C   0  0  0  0  0  0  0  0  0  0  0  0
   59.8350   33.4660   46.3120 C   0  0  0  0  0  0  0  0  0  0  0  0
   61.0230   33.4950   47.1920 C   0  0  0  0  0  0  0  0  0  0  0  0
   62.3040   33.4910   46.6180 C   0  0  0  0  0  0  0  0  0  0  0  0
   63.4390   33.4960   47.4330 C   0  0  0  0  0  0  0  0  0  0  0  0
   63.3030   33.4960   48.8240 C   0  0  0  0  0  0  0  0  0  0  0  0
   62.0310   33.4870   49.4030 C   0  0  0  0  0  0  0  0  0  0  0  0
   60.8880   33.4820   48.5960 C   0  0  0  0  0  0  0  0  0  0  0  0
   59.3040   33.4710   49.3620 Cl  0  0  0  0  0  0  0  0  0  0  0  0
   59.6730   36.5610   46.7390 H   0  0  0  0  0  0  0  0  0  0  0  0
   57.9271   35.6699   44.5040 H   0  0  0  0  0  0  0  0  0  0  0  0
   56.7390   33.5742   43.9143 H   0  0  0  0  0  0  0  0  0  0  0  0
   56.4626   31.2095   44.0877 H   0  0  0  0  0  0  0  0  0  0  0  0
   57.1546   28.9892   44.9872 H   0  0  0  0  0  0  0  0  0  0  0  0
   56.7261   27.8312   46.7411 H   0  0  0  0  0  0  0  0  0  0  0  0
   55.8517   25.5269   46.3540 H   0  0  0  0  0  0  0  0  0  0  0  0
   57.4295   23.6539   45.8684 H   0  0  0  0  0  0  0  0  0  0  0  0
   59.8878   24.0826   45.7823 H   0  0  0  0  0  0  0  0  0  0  0  0
   60.7721   26.3833   46.1672 H   0  0  0  0  0  0  0  0  0  0  0  0
   60.9244   28.1013   48.1495 H   0  0  0  0  0  0  0  0  0  0  0  0
   62.4146   33.4839   45.5236 H   0  0  0  0  0  0  0  0  0  0  0  0
   64.4410   33.4999   46.9791 H   0  0  0  0  0  0  0  0  0  0  0  0
   64.1979   33.5031   49.4636 H   0  0  0  0  0  0  0  0  0  0  0  0
   61.9280   33.4838   50.4982 H   0  0  0  0  0  0  0  0  0  0  0  0
  1  2  1  0
  2  3  2  0
  3  4  1  0
  4  5  2  0
  5  6  1  0
  6  7  2  0
  7  8  1  0
  8  9  1  0
  9 10  1  0
 10 11  2  0
 11 12  1  0
 12 13  2  0
 13 14  1  0
 14 15  2  0
  9 16  2  0
 16 17  1  0
 17 18  1  0
 18 19  1  0
 19 20  2  0
 20 21  1  0
 21 22  2  0
 22 23  1  0
 23 24  2  0
 24 25  1  0
 25 26  2  0
 26 27  1  0
 20  2  1  0
 26 21  1  0
 19  5  1  0
 18  8  2  0
 15 10  1  0
  1 28  1  0
  3 29  1  0
  4 30  1  0
  6 31  1  0
  7 32  1  0
 11 33  1  0
 12 34  1  0
 13 35  1  0
 14 36  1  0
 15 37  1  0
 16 38  1  0
 22 39  1  0
 23 40  1  0
 24 41  1  0
 25 42  1  0
M  END
>  <UniqueID>  (12) 
11

>  <SMILES>  (12) 
Oc1ccc2ccc3c(-c4ccccc4)csc3c2c1-c1ccccc1Cl

>  <Energy>  (12) 
102.36940948778093

>  <Genealogy>  (12) 
Oc1ccc2ccc3c(-c4ccccc4)csc3c2c1-c1ccccc1Cl (3D coordinates assigned)
Oc1ccc2ccc3c(-c4ccccc4)csc3c2c1-c1ccccc1Cl (optimized conformer: 102.36940948778093 kcal/mol)

>  <smiles>  (12) 
Oc1ccc2ccc3c(-c4ccccc4)csc3c2c1-c1ccccc1Cl

>  <score_type>  (12) 
oracle

>  <origin>  (12) 
adg

>  <m_score__min__energy>  (12) 
-9.3000000000000007

>  <m_primary>  (12) 
energy

$$$$
12:0
     RDKit          3D

 51 54  0  0  0  0  0  0  0  0999 V2000
   65.4460   33.3830   50.6170 C   0  0  0  0  0  0  0  0  0  0  0  0
   64.9940   32.9270   49.3460 O   0  0  0  0  0  0  0  0  0  0  0  0
   63.7620   33.2750   48.7720 C   0  0  0  0  0  0  0  0  0  0  0  0
   63.6120   33.1420   47.3880 C   0  0  0  0  0  0  0  0  0  0  0  0
   62.4050   33.4770   46.7680 C   0  0  0  0  0  0  0  0  0  0  0  0
   61.3230   33.9620   47.5240 C   0  0  0  0  0  0  0  0  0  0  0  0
   60.0500   34.3130   46.8530 C   0  0  0  0  0  0  0  0  0  0  0  0
   59.8670   35.4980   46.4560 O   0  0  0  0  0  0  0  0  0  0  0  0
   59.0130   33.3350   46.6630 N   0  0  0  0  0  0  0  0  0  0  0  0
   57.7680   33.6430   45.9630 C   0  0  0  0  0  0  0  0  0  0  0  0
   57.6180   32.7650   44.7640 C   0  0  0  0  0  0  0  0  0  0  0  0
   58.1400   33.0410   43.5530 N   0  0  0  0  0  0  0  0  0  0  0  0
   57.7720   32.0500   42.7550 N   0  0  0  0  0  0  0  0  0  0  0  0
   57.0370   31.2150   43.5120 C   0  0  0  0  0  0  0  0  0  0  0  0
   56.2950   29.7020   42.9050 S   0  0  0  0  0  0  0  0  0  0  0  0
   57.4390   28.5900   43.7980 C   0  0  0  0  0  0  0  0  0  0  0  0
   57.0590   28.4730   45.2480 C   0  0  0  0  0  0  0  0  0  0  0  0
   56.5360   27.4040   45.6580 O   0  0  0  0  0  0  0  0  0  0  0  0
   57.3670   29.4970   46.2040 N   0  0  0  0  0  0  0  0  0  0  0  0
   58.6320   29.7290   46.8390 C   0  0  0  0  0  0  0  0  0  0  0  0
   59.7280   30.2470   46.1270 C   0  0  0  0  0  0  0  0  0  0  0  0
   60.9400   30.4970   46.7800 C   0  0  0  0  0  0  0  0  0  0  0  0
   61.0550   30.2540   48.1500 C   0  0  0  0  0  0  0  0  0  0  0  0
   59.9660   29.7380   48.8650 C   0  0  0  0  0  0  0  0  0  0  0  0
   58.7500   29.5010   48.2170 C   0  0  0  0  0  0  0  0  0  0  0  0
   60.1150   29.4660   50.2290 O   0  0  0  0  0  0  0  0  0  0  0  0
   61.4090   29.4380   50.8380 C   0  0  0  0  0  0  0  0  0  0  0  0
   62.2930   30.5490   50.2580 C   0  0  0  0  0  0  0  0  0  0  0  0
   62.2470   30.5250   48.8290 O   0  0  0  0  0  0  0  0  0  0  0  0
   56.9370   31.6440   44.7450 O   0  0  0  0  0  0  0  0  0  0  0  0
   61.4710   34.0860   48.9170 C   0  0  0  0  0  0  0  0  0  0  0  0
   62.6790   33.7480   49.5360 C   0  0  0  0  0  0  0  0  0  0  0  0
   64.9107   32.8430   51.4119 H   0  0  0  0  0  0  0  0  0  0  0  0
   66.5261   33.1969   50.7105 H   0  0  0  0  0  0  0  0  0  0  0  0
   65.2503   34.4614   50.7105 H   0  0  0  0  0  0  0  0  0  0  0  0
   64.4514   32.7704   46.7819 H   0  0  0  0  0  0  0  0  0  0  0  0
   62.3005   33.3603   45.6792 H   0  0  0  0  0  0  0  0  0  0  0  0
   59.0800   32.4090   47.1420 H   0  0  0  0  0  0  0  0  0  0  0  0
   56.9189   33.4778   46.6425 H   0  0  0  0  0  0  0  0  0  0  0  0
   57.7904   34.6935   45.6374 H   0  0  0  0  0  0  0  0  0  0  0  0
   57.4041   27.5924   43.3359 H   0  0  0  0  0  0  0  0  0  0  0  0
   58.4538   29.0098   43.7357 H   0  0  0  0  0  0  0  0  0  0  0  0
   59.6323   30.4568   45.0514 H   0  0  0  0  0  0  0  0  0  0  0  0
   61.8007   30.8843   46.2150 H   0  0  0  0  0  0  0  0  0  0  0  0
   57.8848   29.1351   48.7893 H   0  0  0  0  0  0  0  0  0  0  0  0
   61.3031   29.5873   51.9227 H   0  0  0  0  0  0  0  0  0  0  0  0
   61.8790   28.4641   50.6363 H   0  0  0  0  0  0  0  0  0  0  0  0
   61.9318   31.5243   50.6163 H   0  0  0  0  0  0  0  0  0  0  0  0
   63.3308   30.3879   50.5852 H   0  0  0  0  0  0  0  0  0  0  0  0
   60.6301   34.4517   49.5246 H   0  0  0  0  0  0  0  0  0  0  0  0
   62.7830   33.8525   50.6261 H   0  0  0  0  0  0  0  0  0  0  0  0
  1  2  1  0
  2  3  1  0
  3  4  2  0
  4  5  1  0
  5  6  2  0
  6  7  1  0
  7  8  2  0
  7  9  1  0
  9 10  1  0
 10 11  1  0
 11 12  2  0
 12 13  1  0
 13 14  2  0
 14 15  1  0
 15 16  1  0
 16 17  1  0
 17 18  2  0
 17 19  1  0
 19 20  1  0
 20 21  2  0
 21 22  1  0
 22 23  2  0
 23 24  1  0
 24 25  2  0
 24 26  1  0
 26 27  1  0
 27 28  1  0
 28 29  1  0
 14 30  1  0
  6 31  1  0
 31 32  2  0
 32  3  1  0
 30 11  1  0
 25 20  1  0
 29 23  1  0
  1 33  1  0
  1 34  1  0
  1 35  1  0
  4 36  1  0
  5 37  1  0
  9 38  1  0
 10 39  1  0
 10 40  1  0
 16 41  1  0
 16 42  1  0
 21 43  1  0
 22 44  1  0
 25 45  1  0
 27 46  1  0
 27 47  1  0
 28 48  1  0
 28 49  1  0
 31 50  1  0
 32 51  1  0
M  CHG  1  19  -1
M  END
>  <UniqueID>  (13) 
12

>  <SMILES>  (13) 
COc1ccc(C(=O)NCc2nnc(SCC(=O)[N-]c3ccc4c(c3)OCCO4)o2)cc1

>  <Energy>  (13) 
90.87286691686298

>  <Genealogy>  (13) 
COc1ccc(C(=O)NCc2nnc(SCC(=O)[N-]c3ccc4c(c3)OCCO4)o2)cc1 (protonated)
COc1ccc(C(=O)NCc2nnc(SCC(=O)[N-]c3ccc4c(c3)OCCO4)o2)cc1 (3D coordinates assigned)
COc1ccc(C(=O)NCc2nnc(SCC(=O)[N-]c3ccc4c(c3)OCCO4)o2)cc1 (nonaromatic ring conformer: 90.87286691686298 kcal/mol)

>  <smiles>  (13) 
COc1ccc(C(=O)NCc2nnc(SCC(=O)Nc3ccc4c(c3)OCCO4)o2)cc1

>  <score_type>  (13) 
oracle

>  <origin>  (13) 
adg

>  <m_score__min__energy>  (13) 
-10.69

>  <m_primary>  (13) 
energy

$$$$
13:0
     RDKit          3D

 43 45  0  0  0  0  0  0  0  0999 V2000
   57.3100   31.1330   43.4210 C   0  0  0  0  0  0  0  0  0  0  0  0
   57.0400   30.9400   44.8060 O   0  0  0  0  0  0  0  0  0  0  0  0
   57.7570   31.5520   45.8450 C   0  0  0  0  0  0  0  0  0  0  0  0
   58.5590   30.7490   46.6640 C   0  0  0  0  0  0  0  0  0  0  0  0
   59.2920   31.3120   47.7140 C   0  0  0  0  0  0  0  0  0  0  0  0
   59.2310   32.6920   47.9550 C   0  0  0  0  0  0  0  0  0  0  0  0
   60.1440   33.4200   49.2730 S   0  0  0  0  0  0  0  0  0  0  0  0
   59.5510   34.7540   49.6320 O   0  0  0  0  0  0  0  0  0  0  0  0
   61.5680   33.6020   48.8280 O   0  0  0  0  0  0  0  0  0  0  0  0
   60.0800   32.3730   50.6550 N   0  0  0  0  0  0  0  0  0  0  0  0
   58.8600   31.8780   51.2350 C   0  0  0  0  0  0  0  0  0  0  0  0
   58.5380   30.5080   51.2370 C   0  0  0  0  0  0  0  0  0  0  0  0
   57.3430   30.0620   51.8110 C   0  0  0  0  0  0  0  0  0  0  0  0
   56.4460   30.9720   52.3970 C   0  0  0  0  0  0  0  0  0  0  0  0
   55.1800   30.4990   53.0080 C   0  0  0  0  0  0  0  0  0  0  0  0
   55.0740   30.4520   54.2640 O   0  0  0  0  0  0  0  0  0  0  0  0
   54.0560   30.1840   52.1680 N   0  0  0  0  0  0  0  0  0  0  0  0
   52.9660   30.8710   51.9570 C   0  0  0  0  0  0  0  0  0  0  0  0
   52.2360   31.3090   53.0700 C   0  0  0  0  0  0  0  0  0  0  0  0
   51.0670   32.0510   52.8910 C   0  0  0  0  0  0  0  0  0  0  0  0
   50.6430   32.3620   51.6390 N   0  0  0  0  0  0  0  0  0  0  0  0
   51.3340   31.9700   50.5370 C   0  0  0  0  0  0  0  0  0  0  0  0
   52.5080   31.2240   50.6690 C   0  0  0  0  0  0  0  0  0  0  0  0
   56.7720   32.3390   52.3980 C   0  0  0  0  0  0  0  0  0  0  0  0
   57.9670   32.7850   51.8250 C   0  0  0  0  0  0  0  0  0  0  0  0
   58.4280   33.5000   47.1410 C   0  0  0  0  0  0  0  0  0  0  0  0
   57.6960   32.9380   46.0910 C   0  0  0  0  0  0  0  0  0  0  0  0
   58.2000   31.7692   43.3061 H   0  0  0  0  0  0  0  0  0  0  0  0
   57.4916   30.1588   42.9436 H   0  0  0  0  0  0  0  0  0  0  0  0
   56.4470   31.6201   42.9436 H   0  0  0  0  0  0  0  0  0  0  0  0
   58.6134   29.6658   46.4804 H   0  0  0  0  0  0  0  0  0  0  0  0
   59.9177   30.6707   48.3521 H   0  0  0  0  0  0  0  0  0  0  0  0
   60.9920   32.1130   51.0950 H   0  0  0  0  0  0  0  0  0  0  0  0
   59.2306   29.7832   50.7842 H   0  0  0  0  0  0  0  0  0  0  0  0
   57.1027   28.9886   51.8038 H   0  0  0  0  0  0  0  0  0  0  0  0
   52.5842   31.0681   54.0853 H   0  0  0  0  0  0  0  0  0  0  0  0
   50.4886   32.3841   53.7653 H   0  0  0  0  0  0  0  0  0  0  0  0
   50.9675   32.2412   49.5359 H   0  0  0  0  0  0  0  0  0  0  0  0
   53.0711   30.9141   49.7763 H   0  0  0  0  0  0  0  0  0  0  0  0
   56.0814   33.0641   52.8533 H   0  0  0  0  0  0  0  0  0  0  0  0
   58.2093   33.8579   51.8370 H   0  0  0  0  0  0  0  0  0  0  0  0
   58.3728   34.5825   47.3286 H   0  0  0  0  0  0  0  0  0  0  0  0
   57.0699   33.5804   45.4543 H   0  0  0  0  0  0  0  0  0  0  0  0
  1  2  1  0
  2  3  1  0
  3  4  2  0
  4  5  1  0
  5  6  2  0
  6  7  1  0
  7  8  2  0
  7  9  2  0
  7 10  1  0
 10 11  1  0
 11 12  2  0
 12 13  1  0
 13 14  2  0
 14 15  1  0
 15 16  2  0
 15 17  1  0
 17 18  2  3
 18 19  1  0
 19 20  2  0
 20 21  1  0
 21 22  1  0
 22 23  2  0
 14 24  1  0
 24 25  2  0
  6 26  1  0
 26 27  2  0
 27  3  1  0
 25 11  1  0
 23 18  1  0
  1 28  1  0
  1 29  1  0
  1 30  1  0
  4 31  1  0
  5 32  1  0
 10 33  1  0
 12 34  1  0
 13 35  1  0
 19 36  1  0
 20 37  1  0
 22 38  1  0
 23 39  1  0
 24 40  1  0
 25 41  1  0
 26 42  1  0
 27 43  1  0
M  CHG  1  21  -1
M  END
>  <UniqueID>  (14) 
13

>  <SMILES>  (14) 
COc1ccc(S(=O)(=O)Nc2ccc(C(=O)N=c3cc[n-]cc3)cc2)cc1

>  <Energy>  (14) 
58.324502588484556

>  <Genealogy>  (14) 
COc1ccc(S(=O)(=O)Nc2ccc(C(=O)N=c3cc[n-]cc3)cc2)cc1 (protonated)
COc1ccc(S(=O)(=O)Nc2ccc(C(=O)N=c3cc[n-]cc3)cc2)cc1 (3D coordinates assigned)
COc1ccc(S(=O)(=O)Nc2ccc(C(=O)N=c3cc[n-]cc3)cc2)cc1 (optimized conformer: 58.324502588484556 kcal/mol)

>  <smiles>  (14) 
COc1ccc(S(=O)(=O)Nc2ccc(C(=O)N=c3cc[nH]cc3)cc2)cc1

>  <score_type>  (14) 
oracle

>  <origin>  (14) 
adg

>  <m_score__min__energy>  (14) 
-10.199999999999999

>  <m_primary>  (14) 
energy

$$$$
14:0
     RDKit          3D

 48 51  0  0  0  0  0  0  0  0999 V2000
   55.0595   24.8548   46.0659 H   0  0  0  0  0  0  0  0  0  0  0  0
   55.8900   25.5760   46.0570 C   0  0  0  0  0  0  0  0  0  0  0  0
   55.6750   26.8550   45.6580 N   0  0  0  0  0  0  0  0  0  0  0  0
   56.6710   27.7870   45.6190 C   0  0  0  0  0  0  0  0  0  0  0  0
   56.4180   29.0020   45.2220 N   0  0  0  0  0  0  0  0  0  0  0  0
   56.6080   29.5090   43.8620 C   0  0  0  0  0  0  0  0  0  0  0  0
   57.5691   29.1427   43.4719 H   0  0  0  0  0  0  0  0  0  0  0  0
   55.7781   29.1522   43.2344 H   0  0  0  0  0  0  0  0  0  0  0  0
   56.6110   31.0430   43.8460 C   0  0  1  0  0  0  0  0  0  0  0  0
   55.6815   31.3592   43.3501 H   0  0  0  0  0  0  0  0  0  0  0  0
   56.6520   31.5560   45.1590 O   0  0  0  0  0  0  0  0  0  0  0  0
   57.6020   32.5990   45.1850 C   0  0  0  0  0  0  0  0  0  0  0  0
   58.4553   32.3022   45.8125 H   0  0  0  0  0  0  0  0  0  0  0  0
   57.1393   33.5062   45.6008 H   0  0  0  0  0  0  0  0  0  0  0  0
   58.0840   32.8780   43.7760 C   0  0  0  0  0  0  0  0  0  0  0  0
   59.1600   33.1060   43.7629 H   0  0  0  0  0  0  0  0  0  0  0  0
   57.5969   33.7488   43.3129 H   0  0  0  0  0  0  0  0  0  0  0  0
   57.7970   31.5930   43.0690 C   0  0  0  0  0  0  0  0  0  0  0  0
   58.6576   30.9099   43.1223 H   0  0  0  0  0  0  0  0  0  0  0  0
   57.5947   31.7207   41.9953 H   0  0  0  0  0  0  0  0  0  0  0  0
   57.9820   27.4240   46.0120 C   0  0  0  0  0  0  0  0  0  0  0  0
   59.0980   28.4140   46.0110 C   0  0  0  0  0  0  0  0  0  0  0  0
   60.2300   28.0610   45.5710 O   0  0  0  0  0  0  0  0  0  0  0  0
   58.9150   29.7700   46.4900 N   0  0  2  0  0  0  0  0  0  0  0  0
   58.1070   30.1980   45.9800 H   0  0  0  0  0  0  0  0  0  0  0  0
   60.1150   30.5780   46.1380 C   0  0  0  0  0  0  0  0  0  0  0  0
   60.0633   30.8461   45.0724 H   0  0  0  0  0  0  0  0  0  0  0  0
   61.0085   29.9728   46.3513 H   0  0  0  0  0  0  0  0  0  0  0  0
   60.2000   31.8400   46.9540 C   0  0  0  0  0  0  0  0  0  0  0  0
   60.5980   33.0630   46.3940 C   0  0  0  0  0  0  0  0  0  0  0  0
   60.8004   33.1354   45.3152 H   0  0  0  0  0  0  0  0  0  0  0  0
   60.7370   34.1910   47.2110 C   0  0  0  0  0  0  0  0  0  0  0  0
   61.0374   35.1538   46.7719 H   0  0  0  0  0  0  0  0  0  0  0  0
   60.4940   34.0950   48.5870 C   0  0  0  0  0  0  0  0  0  0  0  0
   60.6032   34.9831   49.2269 H   0  0  0  0  0  0  0  0  0  0  0  0
   60.1130   32.8730   49.1490 C   0  0  0  0  0  0  0  0  0  0  0  0
   59.9321   32.7962   50.2313 H   0  0  0  0  0  0  0  0  0  0  0  0
   59.9620   31.7450   48.3290 C   0  0  0  0  0  0  0  0  0  0  0  0
   59.5700   30.4080   48.8760 C   0  0  0  0  0  0  0  0  0  0  0  0
   59.1357   30.5335   49.8788 H   0  0  0  0  0  0  0  0  0  0  0  0
   60.4572   29.7611   48.9432 H   0  0  0  0  0  0  0  0  0  0  0  0
   58.5300   29.7650   47.9410 C   0  0  0  0  0  0  0  0  0  0  0  0
   57.5838   30.3158   48.0480 H   0  0  0  0  0  0  0  0  0  0  0  0
   58.4476   28.7098   48.2408 H   0  0  0  0  0  0  0  0  0  0  0  0
   58.2070   26.1020   46.4340 C   0  0  0  0  0  0  0  0  0  0  0  0
   59.2146   25.7941   46.7501 H   0  0  0  0  0  0  0  0  0  0  0  0
   57.1630   25.1780   46.4550 C   0  0  0  0  0  0  0  0  0  0  0  0
   57.3438   24.1438   46.7832 H   0  0  0  0  0  0  0  0  0  0  0  0
  1  2  1  0
  2  3  1  0
  3  4  1  0
  4  5  2  0
  5  6  1  0
  6  7  1  0
  6  8  1  0
  6  9  1  0
  9 10  1  6
  9 11  1  0
 11 12  1  0
 12 13  1  0
 12 14  1  0
 12 15  1  0
 15 16  1  0
 15 17  1  0
 15 18  1  0
 18 19  1  0
 18 20  1  0
  4 21  1  0
 21 22  1  0
 22 23  2  0
 22 24  1  0
 24 25  1  6
 24 26  1  0
 26 27  1  0
 26 28  1  0
 26 29  1  0
 29 30  2  0
 30 31  1  0
 30 32  1  0
 32 33  1  0
 32 34  2  0
 34 35  1  0
 34 36  1  0
 36 37  1  0
 36 38  2  0
 38 39  1  0
 39 40  1  0
 39 41  1  0
 39 42  1  0
 42 43  1  0
 42 44  1  0
 21 45  2  0
 45 46  1  0
 45 47  1  0
 47 48  1  0
 47  2  2  0
 18  9  1  0
 42 24  1  0
 38 29  1  0
M  CHG  2   3  -1  24   1
M  END
>  <UniqueID>  (15) 
14

>  <SMILES>  (15) 
O=C(c1ccc[n-]/c1=N\C[C@@H]1CCCO1)[N@H+]1CCc2ccccc2C1

>  <Energy>  (15) 
67.79416289264002

>  <Genealogy>  (15) 
O=C(c1ccc[n-]c1=NCC1CCCO1)[NH+]1CCc2ccccc2C1 (protonated)
O=C(c1ccc[n-]c1=NC[C@@H]1CCCO1)[N@H+]1CCc2ccccc2C1 (chirality)
O=C(c1ccc[n-]/c1=N\C[C@@H]1CCCO1)[N@H+]1CCc2ccccc2C1 (cis-trans isomerization)
O=C(c1ccc[n-]/c1=N\C[C@@H]1CCCO1)[N@H+]1CCc2ccccc2C1 (3D coordinates assigned)
O=C(c1ccc[n-]/c1=N\C[C@@H]1CCCO1)[N@H+]1CCc2ccccc2C1 (nonaromatic ring conformer: 67.79416289264002 kcal/mol)

>  <smiles>  (15) 
O=C(c1ccc[nH]c1=NCC1CCCO1)N1CCc2ccccc2C1

>  <score_type>  (15) 
oracle

>  <origin>  (15) 
adg

>  <m_score__min__energy>  (15) 
-8.4399999999999995

>  <m_primary>  (15) 
energy

$$$$
15:0
     RDKit          3D

 27 27  0  0  0  0  0  0  0  0999 V2000
   54.7080   28.9650   45.5500 H   0  0  0  0  0  0  0  0  0  0  0  0
   55.2780   29.6930   45.1390 O   0  0  0  0  0  0  0  0  0  0  0  0
   55.5440   29.6880   43.7870 N   0  0  0  0  0  0  0  0  0  0  0  0
   54.7680   29.8880   43.1170 H   0  0  0  0  0  0  0  0  0  0  0  0
   56.7470   29.5060   43.3300 C   0  0  0  0  0  0  0  0  0  0  0  0
   57.0700   28.4869   43.0708 H   0  0  0  0  0  0  0  0  0  0  0  0
   57.6670   30.5930   43.1530 N   0  0  0  0  0  0  0  0  0  0  0  0
   58.2640   30.5760   42.2960 H   0  0  0  0  0  0  0  0  0  0  0  0
   57.9190   31.6140   44.1340 C   0  0  0  0  0  0  0  0  0  0  0  0
   58.0370   31.3040   45.5020 C   0  0  0  0  0  0  0  0  0  0  0  0
   57.9162   30.2641   45.8397 H   0  0  0  0  0  0  0  0  0  0  0  0
   58.3070   32.3110   46.4340 C   0  0  0  0  0  0  0  0  0  0  0  0
   58.3862   32.0606   47.5022 H   0  0  0  0  0  0  0  0  0  0  0  0
   58.4780   33.6430   46.0130 C   0  0  0  0  0  0  0  0  0  0  0  0
   58.7500   34.6930   46.9060 O   0  0  0  0  0  0  0  0  0  0  0  0
   59.7800   34.6870   47.8960 C   0  0  0  0  0  0  0  0  0  0  0  0
   59.4117   34.1735   48.7963 H   0  0  0  0  0  0  0  0  0  0  0  0
   60.0487   35.7274   48.1311 H   0  0  0  0  0  0  0  0  0  0  0  0
   61.0030   33.9770   47.3900 C   0  0  0  0  0  0  0  0  0  0  0  0
   61.0262   33.6191   46.3501 H   0  0  0  0  0  0  0  0  0  0  0  0
   62.0630   33.7710   48.1760 C   0  0  0  0  0  0  0  0  0  0  0  0
   62.9469   33.2483   47.7816 H   0  0  0  0  0  0  0  0  0  0  0  0
   62.0521   34.1241   49.2177 H   0  0  0  0  0  0  0  0  0  0  0  0
   58.3770   33.9450   44.6500 C   0  0  0  0  0  0  0  0  0  0  0  0
   58.5102   34.9825   44.3098 H   0  0  0  0  0  0  0  0  0  0  0  0
   58.1080   32.9380   43.7170 C   0  0  0  0  0  0  0  0  0  0  0  0
   58.0444   33.1877   42.6476 H   0  0  0  0  0  0  0  0  0  0  0  0
  1  2  1  0
  2  3  1  0
  3  4  1  0
  3  5  2  0
  5  6  1  0
  5  7  1  0
  7  8  1  0
  7  9  1  0
  9 10  2  0
 10 11  1  0
 10 12  1  0
 12 13  1  0
 12 14  2  0
 14 15  1  0
 15 16  1  0
 16 17  1  0
 16 18  1  0
 16 19  1  0
 19 20  1  0
 19 21  2  0
 21 22  1  0
 21 23  1  0
 14 24  1  0
 24 25  1  0
 24 26  2  0
 26 27  1  0
 26  9  1  0
M  CHG  1   3   1
M  END
>  <UniqueID>  (16) 
15

>  <SMILES>  (16) 
C=CCOc1ccc(N/C=[NH+]\O)cc1

>  <Energy>  (16) 
26.795660443260203

>  <Genealogy>  (16) 
C=CCOc1ccc(NC=[NH+]O)cc1 (protonated)
C=CCOc1ccc(N/C=[NH+]\O)cc1 (cis-trans isomerization)
C=CCOc1ccc(N/C=[NH+]\O)cc1 (3D coordinates assigned)
C=CCOc1ccc(N/C=[NH+]\O)cc1 (optimized conformer: 26.795660443260203 kcal/mol)

>  <smiles>  (16) 
C=CCOc1ccc(NC=NO)cc1

>  <score_type>  (16) 
oracle

>  <origin>  (16) 
adg

>  <m_score__min__energy>  (16) 
-4.3300000000000001

>  <m_primary>  (16) 
energy

$$$$
16:0
     RDKit          3D

 30 31  0  0  0  0  0  0  0  0999 V2000
   56.0380   23.8140   46.8940 C   0  0  0  0  0  0  0  0  0  0  0  0
   56.9250   24.8960   46.4850 N   0  0  0  0  0  0  0  0  0  0  0  0
   56.4130   26.1610   46.0370 C   0  0  0  0  0  0  0  0  0  0  0  0
   55.1660   26.3510   45.9970 O   0  0  0  0  0  0  0  0  0  0  0  0
   57.3360   27.2410   45.6280 C   0  0  0  0  0  0  0  0  0  0  0  0
   58.7030   26.9930   45.4310 C   0  0  0  0  0  0  0  0  0  0  0  0
   59.5410   28.0400   45.0430 C   0  0  0  0  0  0  0  0  0  0  0  0
   59.0180   29.3190   44.8510 C   0  0  0  0  0  0  0  0  0  0  0  0
   57.6460   29.5400   45.0460 C   0  0  0  0  0  0  0  0  0  0  0  0
   57.0590   30.8890   44.8740 C   0  0  0  0  0  0  0  0  0  0  0  0
   55.8950   30.9980   44.3990 O   0  0  0  0  0  0  0  0  0  0  0  0
   57.8080   32.1230   45.2160 C   0  0  0  0  0  0  0  0  0  0  0  0
   58.1460   32.4240   46.5490 C   0  0  0  0  0  0  0  0  0  0  0  0
   58.8470   33.5960   46.8520 C   0  0  0  0  0  0  0  0  0  0  0  0
   59.2070   34.4820   45.8340 C   0  0  0  0  0  0  0  0  0  0  0  0
   58.8590   34.2010   44.5100 C   0  0  0  0  0  0  0  0  0  0  0  0
   58.1590   33.0310   44.2010 C   0  0  0  0  0  0  0  0  0  0  0  0
   56.8560   28.5000   45.4360 N   0  0  0  0  0  0  0  0  0  0  0  0
   55.9994   23.7669   47.9923 H   0  0  0  0  0  0  0  0  0  0  0  0
   55.0281   23.9987   46.4992 H   0  0  0  0  0  0  0  0  0  0  0  0
   56.4172   22.8599   46.4992 H   0  0  0  0  0  0  0  0  0  0  0  0
   57.9560   24.7330   46.5270 H   0  0  0  0  0  0  0  0  0  0  0  0
   59.1108   25.9824   45.5810 H   0  0  0  0  0  0  0  0  0  0  0  0
   60.6145   27.8563   44.8885 H   0  0  0  0  0  0  0  0  0  0  0  0
   59.6757   30.1475   44.5492 H   0  0  0  0  0  0  0  0  0  0  0  0
   57.8576   31.7344   47.3560 H   0  0  0  0  0  0  0  0  0  0  0  0
   59.1155   33.8205   47.8949 H   0  0  0  0  0  0  0  0  0  0  0  0
   59.7637   35.3998   46.0741 H   0  0  0  0  0  0  0  0  0  0  0  0
   59.1365   34.9021   43.7091 H   0  0  0  0  0  0  0  0  0  0  0  0
   57.8811   32.8194   43.1579 H   0  0  0  0  0  0  0  0  0  0  0  0
  1  2  1  0
  2  3  1  0
  3  4  2  0
  3  5  1  0
  5  6  2  0
  6  7  1  0
  7  8  2  0
  8  9  1  0
  9 10  1  0
 10 11  2  0
 10 12  1  0
 12 13  2  0
 13 14  1  0
 14 15  2  0
 15 16  1  0
 16 17  2  0
  9 18  2  0
 18  5  1  0
 17 12  1  0
  1 19  1  0
  1 20  1  0
  1 21  1  0
  2 22  1  0
  6 23  1  0
  7 24  1  0
  8 25  1  0
 13 26  1  0
 14 27  1  0
 15 28  1  0
 16 29  1  0
 17 30  1  0
M  END
>  <UniqueID>  (17) 
16

>  <SMILES>  (17) 
CNC(=O)c1cccc(C(=O)c2ccccc2)n1

>  <Energy>  (17) 
32.57496304027785

>  <Genealogy>  (17) 
CNC(=O)c1cccc(C(=O)c2ccccc2)n1 (3D coordinates assigned)
CNC(=O)c1cccc(C(=O)c2ccccc2)n1 (optimized conformer: 32.57496304027785 kcal/mol)

>  <smiles>  (17) 
CNC(=O)c1cccc(C(=O)c2ccccc2)n1

>  <score_type>  (17) 
oracle

>  <origin>  (17) 
adg

>  <m_score__min__energy>  (17) 
-7.3700000000000001

>  <m_primary>  (17) 
energy

$$$$
17:0
     RDKit          3D

 52 55  0  0  0  0  0  0  0  0999 V2000
   62.5740   33.4640   46.3760 C   0  0  0  0  0  0  0  0  0  0  0  0
   62.9050   32.8450   47.7100 C   0  0  0  0  0  0  0  0  0  0  0  0
   63.9520   33.3850   48.4700 C   0  0  0  0  0  0  0  0  0  0  0  0
   64.2780   32.8320   49.7080 C   0  0  0  0  0  0  0  0  0  0  0  0
   65.2200   33.3230   50.3840 O   0  0  0  0  0  0  0  0  0  0  0  0
   63.5820   31.7660   50.1870 N   0  0  0  0  0  0  0  0  0  0  0  0
   62.5560   31.2060   49.4830 C   0  0  0  0  0  0  0  0  0  0  0  0
   61.8580   30.1100   50.0120 C   0  0  0  0  0  0  0  0  0  0  0  0
   60.8070   29.5320   49.3010 C   0  0  0  0  0  0  0  0  0  0  0  0
   60.4400   30.0330   48.0450 C   0  0  0  0  0  0  0  0  0  0  0  0
   59.2830   29.4280   47.2990 C   0  0  0  0  0  0  0  0  0  0  0  0
   59.6250   29.3970   45.5450 S   0  0  0  0  0  0  0  0  0  0  0  0
   59.1760   28.0850   44.9630 O   0  0  0  0  0  0  0  0  0  0  0  0
   61.1040   29.5480   45.3270 O   0  0  0  0  0  0  0  0  0  0  0  0
   58.8080   30.7040   44.7400 N   0  0  0  0  0  0  0  0  0  0  0  0
   57.4430   30.8950   45.2440 C   0  0  1  0  0  0  0  0  0  0  0  0
   57.0180   32.3730   45.1080 C   0  0  0  0  0  0  0  0  0  0  0  0
   58.0560   33.3520   45.6350 C   0  0  0  0  0  0  0  0  0  0  0  0
   58.5490   34.3170   44.7380 C   0  0  0  0  0  0  0  0  0  0  0  0
   59.4910   35.2600   45.1410 C   0  0  0  0  0  0  0  0  0  0  0  0
   59.9630   35.2640   46.4500 C   0  0  0  0  0  0  0  0  0  0  0  0
   59.4950   34.3210   47.3730 C   0  0  0  0  0  0  0  0  0  0  0  0
   59.9800   34.3390   48.6900 C   0  0  0  0  0  0  0  0  0  0  0  0
   59.5230   33.4090   49.6230 C   0  0  0  0  0  0  0  0  0  0  0  0
   58.5810   32.4530   49.2500 C   0  0  0  0  0  0  0  0  0  0  0  0
   58.0870   32.4170   47.9440 C   0  0  0  0  0  0  0  0  0  0  0  0
   58.5330   33.3490   46.9780 C   0  0  0  0  0  0  0  0  0  0  0  0
   56.5100   29.9870   44.4970 C   0  0  0  0  0  0  0  0  0  0  0  0
   56.6900   29.7650   43.2700 O   0  0  0  0  0  0  0  0  0  0  0  0
   55.4670   29.3480   45.1600 O   0  0  0  0  0  0  0  0  0  0  0  0
   61.1240   31.1360   47.5120 C   0  0  0  0  0  0  0  0  0  0  0  0
   62.1900   31.7330   48.2180 C   0  0  0  0  0  0  0  0  0  0  0  0
   62.0607   34.4239   46.5344 H   0  0  0  0  0  0  0  0  0  0  0  0
   63.5019   33.6334   45.8100 H   0  0  0  0  0  0  0  0  0  0  0  0
   61.9179   32.7864   45.8100 H   0  0  0  0  0  0  0  0  0  0  0  0
   64.5181   34.2476   48.0886 H   0  0  0  0  0  0  0  0  0  0  0  0
   63.8480   31.3720   51.1200 H   0  0  0  0  0  0  0  0  0  0  0  0
   62.1417   29.7040   50.9942 H   0  0  0  0  0  0  0  0  0  0  0  0
   60.2625   28.6773   49.7288 H   0  0  0  0  0  0  0  0  0  0  0  0
   59.1191   28.4002   47.6551 H   0  0  0  0  0  0  0  0  0  0  0  0
   58.3841   30.0363   47.4779 H   0  0  0  0  0  0  0  0  0  0  0  0
   57.4047   30.6393   46.3132 H   0  0  0  0  0  0  0  0  0  0  0  0
   56.8440   32.5890   44.0436 H   0  0  0  0  0  0  0  0  0  0  0  0
   56.1096   32.5063   45.7138 H   0  0  0  0  0  0  0  0  0  0  0  0
   58.1841   34.3268   43.7003 H   0  0  0  0  0  0  0  0  0  0  0  0
   59.8634   36.0045   44.4219 H   0  0  0  0  0  0  0  0  0  0  0  0
   60.7074   36.0117   46.7611 H   0  0  0  0  0  0  0  0  0  0  0  0
   60.7251   35.0913   48.9879 H   0  0  0  0  0  0  0  0  0  0  0  0
   59.9064   33.4303   50.6538 H   0  0  0  0  0  0  0  0  0  0  0  0
   58.2236   31.7211   49.9893 H   0  0  0  0  0  0  0  0  0  0  0  0
   57.3436   31.6562   47.6639 H   0  0  0  0  0  0  0  0  0  0  0  0
   60.8260   31.5398   46.5331 H   0  0  0  0  0  0  0  0  0  0  0  0
  1  2  1  0
  2  3  2  0
  3  4  1  0
  4  5  2  0
  4  6  1  0
  6  7  1  0
  7  8  2  0
  8  9  1  0
  9 10  2  0
 10 11  1  0
 11 12  1  0
 12 13  2  0
 12 14  2  0
 12 15  1  0
 15 16  1  0
 16 17  1  0
 17 18  1  0
 18 19  2  0
 19 20  1  0
 20 21  2  0
 21 22  1  0
 22 23  2  0
 23 24  1  0
 24 25  2  0
 25 26  1  0
 26 27  2  0
 16 28  1  0
 28 29  2  0
 28 30  1  0
 10 31  1  0
 31 32  2  0
 32  2  1  0
 32  7  1  0
 27 18  1  0
 27 22  1  0
  1 33  1  0
  1 34  1  0
  1 35  1  0
  3 36  1  0
  6 37  1  0
  8 38  1  0
  9 39  1  0
 11 40  1  0
 11 41  1  0
 16 42  1  1
 17 43  1  0
 17 44  1  0
 19 45  1  0
 20 46  1  0
 21 47  1  0
 23 48  1  0
 24 49  1  0
 25 50  1  0
 26 51  1  0
 31 52  1  0
M  CHG  2  15  -1  30  -1
M  END
>  <UniqueID>  (18) 
17

>  <SMILES>  (18) 
Cc1cc(=O)[nH]c2ccc(CS(=O)(=O)[N-][C@@H](Cc3cccc4ccccc34)C(=O)[O-])cc12

>  <Energy>  (18) 
60.8425988691879

>  <Genealogy>  (18) 
Cc1cc(=O)[nH]c2ccc(CS(=O)(=O)[N-]C(Cc3cccc4ccccc34)C(=O)[O-])cc12 (protonated)
Cc1cc(=O)[nH]c2ccc(CS(=O)(=O)[N-][C@@H](Cc3cccc4ccccc34)C(=O)[O-])cc12 (chirality)
Cc1cc(=O)[nH]c2ccc(CS(=O)(=O)[N-][C@@H](Cc3cccc4ccccc34)C(=O)[O-])cc12 (3D coordinates assigned)
Cc1cc(=O)[nH]c2ccc(CS(=O)(=O)[N-][C@@H](Cc3cccc4ccccc34)C(=O)[O-])cc12 (optimized conformer: 60.8425988691879 kcal/mol)

>  <smiles>  (18) 
Cc1cc(=O)[nH]c2ccc(CS(=O)(=O)NC(Cc3cccc4ccccc34)C(=O)O)cc12

>  <score_type>  (18) 
oracle

>  <origin>  (18) 
adg

>  <m_score__min__energy>  (18) 
-13.619999999999999

>  <m_primary>  (18) 
energy

$$$$
18:0
     RDKit          3D

 50 52  0  0  0  0  0  0  0  0999 V2000
   61.3450   29.7350   49.7820 H   0  0  0  0  0  0  0  0  0  0  0  0
   62.0640   30.4450   49.8490 O   0  0  0  0  0  0  0  0  0  0  0  0
   61.7210   31.7770   49.9390 N   0  0  0  0  0  0  0  0  0  0  0  0
   62.4170   32.4280   50.3650 H   0  0  0  0  0  0  0  0  0  0  0  0
   60.5540   32.2120   49.5430 C   0  0  0  0  0  0  0  0  0  0  0  0
   59.3250   31.7930   50.2660 C   0  0  0  0  0  0  0  0  0  0  0  0
   58.8220   30.4780   50.1650 C   0  0  0  0  0  0  0  0  0  0  0  0
   59.4660   29.5290   49.3660 O   0  0  0  0  0  0  0  0  0  0  0  0
   59.4850   29.5930   47.9690 C   0  0  0  0  0  0  0  0  0  0  0  0
   60.3970   28.8470   47.2080 C   0  0  0  0  0  0  0  0  0  0  0  0
   61.1380   28.2080   47.7106 H   0  0  0  0  0  0  0  0  0  0  0  0
   60.3660   28.9140   45.8130 C   0  0  0  0  0  0  0  0  0  0  0  0
   61.0786   28.3221   45.2198 H   0  0  0  0  0  0  0  0  0  0  0  0
   59.4320   29.7310   45.1680 C   0  0  0  0  0  0  0  0  0  0  0  0
   59.4087   29.7711   44.0690 H   0  0  0  0  0  0  0  0  0  0  0  0
   58.5220   30.5020   45.9140 C   0  0  0  0  0  0  0  0  0  0  0  0
   57.5110   31.3680   45.2470 C   0  0  0  0  0  0  0  0  0  0  0  0
   56.4210   30.8720   44.8580 O   0  0  0  0  0  0  0  0  0  0  0  0
   57.7490   32.8300   45.0120 C   0  0  0  0  0  0  0  0  0  0  0  0
   57.8333   33.3478   45.9788 H   0  0  0  0  0  0  0  0  0  0  0  0
   58.6806   32.9629   44.4424 H   0  0  0  0  0  0  0  0  0  0  0  0
   56.9077   33.2515   44.4424 H   0  0  0  0  0  0  0  0  0  0  0  0
   58.5700   30.4310   47.3220 C   0  0  0  0  0  0  0  0  0  0  0  0
   57.8785   31.0430   47.9197 H   0  0  0  0  0  0  0  0  0  0  0  0
   57.7210   30.1150   50.8740 N   0  0  0  0  0  0  0  0  0  0  0  0
   57.0640   30.9870   51.6870 C   0  0  0  0  0  0  0  0  0  0  0  0
   55.8670   30.5320   52.4580 C   0  0  0  0  0  0  0  0  0  0  0  0
   56.0734   30.6105   53.5356 H   0  0  0  0  0  0  0  0  0  0  0  0
   55.0042   31.1649   52.2029 H   0  0  0  0  0  0  0  0  0  0  0  0
   55.6425   29.4858   52.2029 H   0  0  0  0  0  0  0  0  0  0  0  0
   57.5340   32.2990   51.8190 C   0  0  0  0  0  0  0  0  0  0  0  0
   57.0137   33.0101   52.4775 H   0  0  0  0  0  0  0  0  0  0  0  0
   58.6660   32.6980   51.1100 C   0  0  0  0  0  0  0  0  0  0  0  0
   59.0434   33.7261   51.2131 H   0  0  0  0  0  0  0  0  0  0  0  0
   60.4700   33.1440   48.4350 N   0  0  0  0  0  0  0  0  0  0  0  0
   59.6720   34.3610   48.4890 C   0  0  0  0  0  0  0  0  0  0  0  0
   58.6754   34.1472   48.9025 H   0  0  0  0  0  0  0  0  0  0  0  0
   60.1358   35.1202   49.1359 H   0  0  0  0  0  0  0  0  0  0  0  0
   59.5560   34.8460   47.0530 C   0  0  0  0  0  0  0  0  0  0  0  0
   58.6028   34.5194   46.6118 H   0  0  0  0  0  0  0  0  0  0  0  0
   59.5771   35.9439   46.9878 H   0  0  0  0  0  0  0  0  0  0  0  0
   60.7270   34.2120   46.3200 C   0  0  0  0  0  0  0  0  0  0  0  0
   60.4437   33.9591   45.2876 H   0  0  0  0  0  0  0  0  0  0  0  0
   61.5880   34.8937   46.2564 H   0  0  0  0  0  0  0  0  0  0  0  0
   61.0610   32.9440   47.1100 C   0  0  1  0  0  0  0  0  0  0  0  0
   60.6579   32.0415   46.6273 H   0  0  0  0  0  0  0  0  0  0  0  0
   62.5750   32.7230   47.1870 C   0  0  0  0  0  0  0  0  0  0  0  0
   62.8858   32.6776   48.2412 H   0  0  0  0  0  0  0  0  0  0  0  0
   62.8334   31.7776   46.6875 H   0  0  0  0  0  0  0  0  0  0  0  0
   63.0929   33.5551   46.6875 H   0  0  0  0  0  0  0  0  0  0  0  0
  1  2  1  0
  2  3  1  0
  3  4  1  0
  3  5  2  0
  5  6  1  0
  6  7  1  0
  7  8  1  0
  8  9  1  0
  9 10  2  0
 10 11  1  0
 10 12  1  0
 12 13  1  0
 12 14  2  0
 14 15  1  0
 14 16  1  0
 16 17  1  0
 17 18  2  0
 17 19  1  0
 19 20  1  0
 19 21  1  0
 19 22  1  0
 16 23  2  0
 23 24  1  0
  7 25  2  0
 25 26  1  0
 26 27  1  0
 27 28  1  0
 27 29  1  0
 27 30  1  0
 26 31  2  0
 31 32  1  0
 31 33  1  0
 33 34  1  0
  5 35  1  0
 35 36  1  0
 36 37  1  0
 36 38  1  0
 36 39  1  0
 39 40  1  0
 39 41  1  0
 39 42  1  0
 42 43  1  0
 42 44  1  0
 42 45  1  0
 45 46  1  6
 45 47  1  0
 47 48  1  0
 47 49  1  0
 47 50  1  0
 33  6  2  0
 45 35  1  0
 23  9  1  0
M  CHG  1   3   1
M  END
>  <UniqueID>  (19) 
18

>  <SMILES>  (19) 
CC(=O)c1cccc(Oc2nc(C)ccc2/C(=[NH+]\O)N2CCC[C@H]2C)c1

>  <Energy>  (19) 
64.93277126755076

>  <Genealogy>  (19) 
CC(=O)c1cccc(Oc2nc(C)ccc2C(=[NH+]O)N2CCCC2C)c1 (protonated)
CC(=O)c1cccc(Oc2nc(C)ccc2C(=[NH+]O)N2CCC[C@H]2C)c1 (chirality)
CC(=O)c1cccc(Oc2nc(C)ccc2/C(=[NH+]\O)N2CCC[C@H]2C)c1 (cis-trans isomerization)
CC(=O)c1cccc(Oc2nc(C)ccc2/C(=[NH+]\O)N2CCC[C@H]2C)c1 (3D coordinates assigned)
CC(=O)c1cccc(Oc2nc(C)ccc2/C(=[NH+]\O)N2CCC[C@H]2C)c1 (nonaromatic ring conformer: 64.93277126755076 kcal/mol)

>  <smiles>  (19) 
CC(=O)c1cccc(Oc2nc(C)ccc2C(=NO)N2CCCC2C)c1

>  <score_type>  (19) 
oracle

>  <origin>  (19) 
adg

>  <m_score__min__energy>  (19) 
-6.6500000000000004

>  <m_primary>  (19) 
energy

$$$$
19:0
     RDKit          3D

 47 49  0  0  0  0  0  0  0  0999 V2000
   51.1120   21.2040   50.1700 C   0  0  0  0  0  0  0  0  0  0  0  0
   52.5630   21.1410   49.7990 C   0  0  0  0  0  0  0  0  0  0  0  0
   53.0860   20.0210   49.1330 C   0  0  0  0  0  0  0  0  0  0  0  0
   54.4490   19.9540   48.8260 C   0  0  0  0  0  0  0  0  0  0  0  0
   55.3050   21.0020   49.1920 C   0  0  0  0  0  0  0  0  0  0  0  0
   57.0280   20.9280   48.8370 S   0  0  0  0  0  0  0  0  0  0  0  0
   57.8410   21.4890   49.9730 O   0  0  0  0  0  0  0  0  0  0  0  0
   57.4200   19.4920   48.6360 O   0  0  0  0  0  0  0  0  0  0  0  0
   57.3590   21.8110   47.3810 N   0  0  0  0  0  0  0  0  0  0  0  0
   56.6110   22.9390   46.9040 C   0  0  0  0  0  0  0  0  0  0  0  0
   55.2640   22.8370   46.5170 C   0  0  0  0  0  0  0  0  0  0  0  0
   54.5730   23.9650   46.0730 C   0  0  0  0  0  0  0  0  0  0  0  0
   55.2140   25.2060   46.0000 C   0  0  0  0  0  0  0  0  0  0  0  0
   54.4820   26.3190   45.6010 O   0  0  0  0  0  0  0  0  0  0  0  0
   56.5740   25.3210   46.3580 C   0  0  0  0  0  0  0  0  0  0  0  0
   57.2930   26.6090   46.2600 C   0  0  0  0  0  0  0  0  0  0  0  0
   58.3530   26.7770   46.9270 O   0  0  0  0  0  0  0  0  0  0  0  0
   56.8470   27.6320   45.3540 N   0  0  0  0  0  0  0  0  0  0  0  0
   57.3180   28.9910   45.3900 C   0  0  0  0  0  0  0  0  0  0  0  0
   56.9430   29.8780   44.3690 C   0  0  0  0  0  0  0  0  0  0  0  0
   57.3760   31.2090   44.3890 C   0  0  0  0  0  0  0  0  0  0  0  0
   58.1860   31.6720   45.4330 C   0  0  0  0  0  0  0  0  0  0  0  0
   58.7160   33.3510   45.4820 S   0  0  0  0  0  0  0  0  0  0  0  0
   60.1960   33.4600   46.3650 N   0  0  0  0  0  0  0  0  0  0  0  0
   58.9260   33.8580   44.0810 O   0  0  0  0  0  0  0  0  0  0  0  0
   57.6730   34.2040   46.1500 O   0  0  0  0  0  0  0  0  0  0  0  0
   58.5420   30.7990   46.4700 C   0  0  0  0  0  0  0  0  0  0  0  0
   58.1070   29.4700   46.4540 C   0  0  0  0  0  0  0  0  0  0  0  0
   57.2550   24.1820   46.8270 C   0  0  0  0  0  0  0  0  0  0  0  0
   54.7870   22.1150   49.8670 C   0  0  0  0  0  0  0  0  0  0  0  0
   53.4240   22.1840   50.1710 C   0  0  0  0  0  0  0  0  0  0  0  0
   51.0135   21.2083   51.2656 H   0  0  0  0  0  0  0  0  0  0  0  0
   50.6678   22.1223   49.7583 H   0  0  0  0  0  0  0  0  0  0  0  0
   50.5899   20.3277   49.7583 H   0  0  0  0  0  0  0  0  0  0  0  0
   52.4203   19.1919   48.8512 H   0  0  0  0  0  0  0  0  0  0  0  0
   54.8499   19.0772   48.2963 H   0  0  0  0  0  0  0  0  0  0  0  0
   54.7524   21.8643   46.5642 H   0  0  0  0  0  0  0  0  0  0  0  0
   53.5168   23.8776   45.7784 H   0  0  0  0  0  0  0  0  0  0  0  0
   56.2880   27.3310   44.5250 H   0  0  0  0  0  0  0  0  0  0  0  0
   56.3038   29.5245   43.5466 H   0  0  0  0  0  0  0  0  0  0  0  0
   57.0787   31.8940   43.5813 H   0  0  0  0  0  0  0  0  0  0  0  0
   60.0150   34.0650   47.1960 H   0  0  0  0  0  0  0  0  0  0  0  0
   59.1664   31.1608   47.3002 H   0  0  0  0  0  0  0  0  0  0  0  0
   58.3827   28.7946   47.2773 H   0  0  0  0  0  0  0  0  0  0  0  0
   58.3068   24.2682   47.1373 H   0  0  0  0  0  0  0  0  0  0  0  0
   55.4555   22.9382   50.1591 H   0  0  0  0  0  0  0  0  0  0  0  0
   53.0253   23.0597   50.7040 H   0  0  0  0  0  0  0  0  0  0  0  0
  1  2  1  0
  2  3  2  0
  3  4  1  0
  4  5  2  0
  5  6  1  0
  6  7  2  0
  6  8  2  0
  6  9  1  0
  9 10  1  0
 10 11  2  0
 11 12  1  0
 12 13  2  0
 13 14  1  0
 13 15  1  0
 15 16  1  0
 16 17  2  0
 16 18  1  0
 18 19  1  0
 19 20  2  0
 20 21  1  0
 21 22  2  0
 22 23  1  0
 23 24  1  0
 23 25  2  0
 23 26  2  0
 22 27  1  0
 27 28  2  0
 15 29  2  0
  5 30  1  0
 30 31  2  0
 31  2  1  0
 29 10  1  0
 28 19  1  0
  1 32  1  0
  1 33  1  0
  1 34  1  0
  3 35  1  0
  4 36  1  0
 11 37  1  0
 12 38  1  0
 18 39  1  0
 20 40  1  0
 21 41  1  0
 24 42  1  0
 27 43  1  0
 28 44  1  0
 29 45  1  0
 30 46  1  0
 31 47  1  0
M  CHG  3   9  -1  14  -1  24  -1
M  END
>  <UniqueID>  (20) 
19

>  <SMILES>  (20) 
Cc1ccc(S(=O)(=O)[N-]c2ccc([O-])c(C(=O)Nc3ccc(S([NH-])(=O)=O)cc3)c2)cc1

>  <Energy>  (20) 
59.7948679098505

>  <Genealogy>  (20) 
Cc1ccc(S(=O)(=O)[N-]c2ccc([O-])c(C(=O)Nc3ccc(S([NH-])(=O)=O)cc3)c2)cc1 (protonated)
Cc1ccc(S(=O)(=O)[N-]c2ccc([O-])c(C(=O)Nc3ccc(S([NH-])(=O)=O)cc3)c2)cc1 (3D coordinates assigned)
Cc1ccc(S(=O)(=O)[N-]c2ccc([O-])c(C(=O)Nc3ccc(S([NH-])(=O)=O)cc3)c2)cc1 (optimized conformer: 59.7948679098505 kcal/mol)

>  <smiles>  (20) 
Cc1ccc(S(=O)(=O)Nc2ccc(O)c(C(=O)Nc3ccc(S(N)(=O)=O)cc3)c2)cc1

>  <score_type>  (20) 
oracle

>  <origin>  (20) 
adg

>  <m_score__min__energy>  (20) 
-13.67

>  <m_primary>  (20) 
energy

$$$$
20:0
     RDKit          3D

 44 46  0  0  0  0  0  0  0  0999 V2000
   58.4424   28.8244   45.5773 H   0  0  0  0  0  0  0  0  0  0  0  0
   59.3190   28.3280   46.0190 C   0  0  0  0  0  0  0  0  0  0  0  0
   60.6390   28.9830   45.9000 C   0  0  0  0  0  0  0  0  0  0  0  0
   61.3010   28.8090   44.8440 O   0  0  0  0  0  0  0  0  0  0  0  0
   61.1900   29.8230   46.9270 N   0  0  0  0  0  0  0  0  0  0  0  0
   61.0970   31.2540   47.0070 C   0  0  0  0  0  0  0  0  0  0  0  0
   62.0710   31.9550   47.7290 C   0  0  0  0  0  0  0  0  0  0  0  0
   62.8655   31.4049   48.2545 H   0  0  0  0  0  0  0  0  0  0  0  0
   62.0370   33.3500   47.7840 C   0  0  0  0  0  0  0  0  0  0  0  0
   62.8106   33.8955   48.3443 H   0  0  0  0  0  0  0  0  0  0  0  0
   61.0240   34.0550   47.1300 C   0  0  0  0  0  0  0  0  0  0  0  0
   61.0108   35.1544   47.1629 H   0  0  0  0  0  0  0  0  0  0  0  0
   60.0260   33.3650   46.4330 C   0  0  0  0  0  0  0  0  0  0  0  0
   58.7820   34.2660   45.5740 S   0  0  0  0  0  0  0  0  0  0  0  0
   57.5040   34.2680   46.3700 O   0  0  0  0  0  0  0  0  0  0  0  0
   59.2510   35.6810   45.3690 O   0  0  0  0  0  0  0  0  0  0  0  0
   58.5070   33.4990   44.0430 N   0  0  0  0  0  0  0  0  0  0  0  0
   57.8120   32.4140   43.8810 C   0  0  0  0  0  0  0  0  0  0  0  0
   57.0060   31.8290   44.8870 N   0  0  0  0  0  0  0  0  0  0  0  0
   56.8600   32.1940   45.8550 H   0  0  0  0  0  0  0  0  0  0  0  0
   56.3480   30.6480   44.3650 C   0  0  0  0  0  0  0  0  0  0  0  0
   55.2564   30.7829   44.3778 H   0  0  0  0  0  0  0  0  0  0  0  0
   56.5769   29.7604   44.9731 H   0  0  0  0  0  0  0  0  0  0  0  0
   56.8490   30.4800   42.9150 C   0  0  0  0  0  0  0  0  0  0  0  0
   55.9958   30.4757   42.2207 H   0  0  0  0  0  0  0  0  0  0  0  0
   57.3898   29.5292   42.7990 H   0  0  0  0  0  0  0  0  0  0  0  0
   57.7710   31.6690   42.6060 C   0  0  0  0  0  0  0  0  0  0  0  0
   57.3538   32.2911   41.8004 H   0  0  0  0  0  0  0  0  0  0  0  0
   58.7677   31.3593   42.2585 H   0  0  0  0  0  0  0  0  0  0  0  0
   60.0500   31.9630   46.3920 C   0  0  0  0  0  0  0  0  0  0  0  0
   59.2466   31.4161   45.8767 H   0  0  0  0  0  0  0  0  0  0  0  0
   59.1460   27.1540   46.6430 C   0  0  0  0  0  0  0  0  0  0  0  0
   59.8528   26.8757   47.4386 H   0  0  0  0  0  0  0  0  0  0  0  0
   58.0500   26.2130   46.3140 C   0  0  0  0  0  0  0  0  0  0  0  0
   58.2840   24.8540   46.0220 C   0  0  0  0  0  0  0  0  0  0  0  0
   59.3121   24.4629   46.0256 H   0  0  0  0  0  0  0  0  0  0  0  0
   57.2170   24.0010   45.7280 C   0  0  0  0  0  0  0  0  0  0  0  0
   57.4071   22.9406   45.5056 H   0  0  0  0  0  0  0  0  0  0  0  0
   55.9100   24.4920   45.7160 C   0  0  0  0  0  0  0  0  0  0  0  0
   55.0714   23.8167   45.4907 H   0  0  0  0  0  0  0  0  0  0  0  0
   55.6660   25.8410   45.9900 C   0  0  0  0  0  0  0  0  0  0  0  0
   54.3670   26.3300   45.9700 O   0  0  0  0  0  0  0  0  0  0  0  0
   56.7320   26.6980   46.2820 C   0  0  0  0  0  0  0  0  0  0  0  0
   56.5367   27.7607   46.4883 H   0  0  0  0  0  0  0  0  0  0  0  0
  1  2  1  0
  2  3  1  0
  3  4  2  0
  3  5  1  0
  5  6  1  0
  6  7  2  0
  7  8  1  0
  7  9  1  0
  9 10  1  0
  9 11  2  0
 11 12  1  0
 11 13  1  0
 13 14  1  0
 14 15  2  0
 14 16  2  0
 14 17  1  0
 17 18  2  0
 18 19  1  0
 19 20  1  0
 19 21  1  0
 21 22  1  0
 21 23  1  0
 21 24  1  0
 24 25  1  0
 24 26  1  0
 24 27  1  0
 27 28  1  0
 27 29  1  0
 13 30  2  0
 30 31  1  0
  2 32  2  0
 32 33  1  0
 32 34  1  0
 34 35  2  0
 35 36  1  0
 35 37  1  0
 37 38  1  0
 37 39  2  0
 39 40  1  0
 39 41  1  0
 41 42  1  0
 41 43  2  0
 43 44  1  0
 30  6  1  0
 43 34  1  0
 27 18  1  0
M  CHG  2   5  -1  42  -1
M  END
>  <UniqueID>  (21) 
20

>  <SMILES>  (21) 
O=C(/C=C/c1cccc([O-])c1)[N-]c1cccc(S(=O)(=O)/N=C2/CCCN2)c1

>  <Energy>  (21) 
61.067513467646485

>  <Genealogy>  (21) 
O=C(C=Cc1cccc([O-])c1)[N-]c1cccc(S(=O)(=O)N=C2CCCN2)c1 (protonated)
O=C(/C=C/c1cccc([O-])c1)[N-]c1cccc(S(=O)(=O)/N=C2/CCCN2)c1 (cis-trans isomerization)
O=C(/C=C/c1cccc([O-])c1)[N-]c1cccc(S(=O)(=O)/N=C2/CCCN2)c1 (3D coordinates assigned)
O=C(/C=C/c1cccc([O-])c1)[N-]c1cccc(S(=O)(=O)/N=C2/CCCN2)c1 (nonaromatic ring conformer: 61.067513467646485 kcal/mol)

>  <smiles>  (21) 
O=C(C=Cc1cccc(O)c1)Nc1cccc(S(=O)(=O)N=C2CCCN2)c1

>  <score_type>  (21) 
oracle

>  <origin>  (21) 
adg

>  <m_score__min__energy>  (21) 
-14.300000000000001

>  <m_primary>  (21) 
energy

$$$$
21:0
     RDKit          3D

 29 30  0  0  0  0  0  0  0  0999 V2000
   57.8470   27.6510   43.4340 C   0  0  0  0  0  0  0  0  0  0  0  0
   57.3390   28.2310   44.6800 N   0  0  0  0  0  0  0  0  0  0  0  0
   57.8010   27.7160   45.9790 C   0  0  0  0  0  0  0  0  0  0  0  0
   58.8130   28.6530   46.5820 C   0  0  0  0  0  0  0  0  0  0  0  0
   59.8270   29.2160   45.7890 C   0  0  0  0  0  0  0  0  0  0  0  0
   60.7880   30.0540   46.3630 C   0  0  0  0  0  0  0  0  0  0  0  0
   60.7440   30.3320   47.7330 C   0  0  0  0  0  0  0  0  0  0  0  0
   59.7430   29.7700   48.5300 C   0  0  0  0  0  0  0  0  0  0  0  0
   58.7820   28.9300   47.9590 C   0  0  0  0  0  0  0  0  0  0  0  0
   56.5270   29.4190   44.6040 C   0  0  0  0  0  0  0  0  0  0  0  0
   55.2990   29.3520   44.8780 O   0  0  0  0  0  0  0  0  0  0  0  0
   57.0910   30.7190   44.2020 C   0  0  0  0  0  0  0  0  0  0  0  0
   57.3650   31.1390   42.9050 C   0  0  0  0  0  0  0  0  0  0  0  0
   57.9400   32.4140   42.8470 C   0  0  0  0  0  0  0  0  0  0  0  0
   58.1340   32.9960   44.0930 C   0  0  0  0  0  0  0  0  0  0  0  0
   57.5930   31.9200   45.2660 S   0  0  0  0  0  0  0  0  0  0  0  0
   58.5552   26.8424   43.6679 H   0  0  0  0  0  0  0  0  0  0  0  0
   57.0080   27.2458   42.8493 H   0  0  0  0  0  0  0  0  0  0  0  0
   58.3592   28.4293   42.8493 H   0  0  0  0  0  0  0  0  0  0  0  0
   56.9415   27.6235   46.6592 H   0  0  0  0  0  0  0  0  0  0  0  0
   58.2694   26.7322   45.8280 H   0  0  0  0  0  0  0  0  0  0  0  0
   59.8651   28.9966   44.7118 H   0  0  0  0  0  0  0  0  0  0  0  0
   61.5783   30.4944   45.7373 H   0  0  0  0  0  0  0  0  0  0  0  0
   61.4982   30.9938   48.1837 H   0  0  0  0  0  0  0  0  0  0  0  0
   59.7111   29.9887   49.6076 H   0  0  0  0  0  0  0  0  0  0  0  0
   57.9990   28.4845   48.5902 H   0  0  0  0  0  0  0  0  0  0  0  0
   57.1513   30.5304   42.0140 H   0  0  0  0  0  0  0  0  0  0  0  0
   58.2126   32.9086   41.9030 H   0  0  0  0  0  0  0  0  0  0  0  0
   58.5670   33.9897   44.2801 H   0  0  0  0  0  0  0  0  0  0  0  0
  1  2  1  0
  2  3  1  0
  3  4  1  0
  4  5  2  0
  5  6  1  0
  6  7  2  0
  7  8  1  0
  8  9  2  0
  2 10  1  0
 10 11  2  0
 10 12  1  0
 12 13  2  0
 13 14  1  0
 14 15  2  0
 15 16  1  0
  9  4  1  0
 16 12  1  0
  1 17  1  0
  1 18  1  0
  1 19  1  0
  3 20  1  0
  3 21  1  0
  5 22  1  0
  6 23  1  0
  7 24  1  0
  8 25  1  0
  9 26  1  0
 13 27  1  0
 14 28  1  0
 15 29  1  0
M  END
>  <UniqueID>  (22) 
21

>  <SMILES>  (22) 
CN(Cc1ccccc1)C(=O)c1cccs1

>  <Energy>  (22) 
56.016952234631944

>  <Genealogy>  (22) 
CN(Cc1ccccc1)C(=O)c1cccs1 (3D coordinates assigned)
CN(Cc1ccccc1)C(=O)c1cccs1 (optimized conformer: 56.016952234631944 kcal/mol)

>  <smiles>  (22) 
CN(Cc1ccccc1)C(=O)c1cccs1

>  <score_type>  (22) 
oracle

>  <origin>  (22) 
adg

>  <m_score__min__energy>  (22) 
-6.4000000000000004

>  <m_primary>  (22) 
energy

$$$$
22:0
     RDKit          3D

 50 52  0  0  0  0  0  0  0  0999 V2000
   56.8016   28.2544   46.0551 H   0  0  0  0  0  0  0  0  0  0  0  0
   56.6650   27.1680   45.9500 C   0  0  0  0  0  0  0  0  0  0  0  0
   55.4160   26.6330   46.0010 N   0  0  0  0  0  0  0  0  0  0  0  0
   55.1950   25.2950   45.8770 C   0  0  0  0  0  0  0  0  0  0  0  0
   53.9950   24.7910   45.9270 N   0  0  0  0  0  0  0  0  0  0  0  0
   53.5880   23.4090   45.9110 C   0  0  0  0  0  0  0  0  0  0  0  0
   52.8490   23.0150   44.9700 O   0  0  0  0  0  0  0  0  0  0  0  0
   54.0010   22.4170   46.9580 C   0  0  0  0  0  0  0  0  0  0  0  0
   53.8238   22.8427   47.9567 H   0  0  0  0  0  0  0  0  0  0  0  0
   53.4119   21.4953   46.8425 H   0  0  0  0  0  0  0  0  0  0  0  0
   55.0702   22.1857   46.8425 H   0  0  0  0  0  0  0  0  0  0  0  0
   56.2840   24.4350   45.6900 C   0  0  0  0  0  0  0  0  0  0  0  0
   56.1221   23.3518   45.5878 H   0  0  0  0  0  0  0  0  0  0  0  0
   57.5770   24.9600   45.6340 C   0  0  0  0  0  0  0  0  0  0  0  0
   58.4373   24.2903   45.4879 H   0  0  0  0  0  0  0  0  0  0  0  0
   57.7770   26.3390   45.7640 C   0  0  0  0  0  0  0  0  0  0  0  0
   59.4050   27.0170   45.7130 S   0  0  0  0  0  0  0  0  0  0  0  0
   59.6630   27.5890   44.3460 O   0  0  0  0  0  0  0  0  0  0  0  0
   60.4050   25.9200   45.9520 O   0  0  0  0  0  0  0  0  0  0  0  0
   59.6080   28.2650   46.9190 N   0  0  0  0  0  0  0  0  0  0  0  0
   60.5170   29.3140   46.4200 C   0  0  0  0  0  0  0  0  0  0  0  0
   60.5837   29.2339   45.3249 H   0  0  0  0  0  0  0  0  0  0  0  0
   61.4992   29.1635   46.8919 H   0  0  0  0  0  0  0  0  0  0  0  0
   60.0250   30.7330   46.7870 C   0  0  0  0  0  0  0  0  0  0  0  0
   59.0351   30.8890   46.3333 H   0  0  0  0  0  0  0  0  0  0  0  0
   60.7689   31.4480   46.4056 H   0  0  0  0  0  0  0  0  0  0  0  0
   59.9140   30.9460   48.2410 N   0  0  0  0  0  0  0  0  0  0  0  0
   60.6820   32.0060   48.8310 C   0  0  0  0  0  0  0  0  0  0  0  0
   60.3890   33.3640   48.5570 C   0  0  0  0  0  0  0  0  0  0  0  0
   59.2600   33.7550   47.6280 C   0  0  0  0  0  0  0  0  0  0  0  0
   59.5910   33.5310   46.3020 F   0  0  0  0  0  0  0  0  0  0  0  0
   58.1360   33.0100   47.9290 F   0  0  0  0  0  0  0  0  0  0  0  0
   58.9700   35.1000   47.7720 F   0  0  0  0  0  0  0  0  0  0  0  0
   61.2030   34.3500   49.1430 C   0  0  0  0  0  0  0  0  0  0  0  0
   61.0099   35.4128   48.9350 H   0  0  0  0  0  0  0  0  0  0  0  0
   62.2520   33.9890   49.9850 C   0  0  0  0  0  0  0  0  0  0  0  0
   62.8824   34.7627   50.4476 H   0  0  0  0  0  0  0  0  0  0  0  0
   62.4970   32.6420   50.2370 C   0  0  0  0  0  0  0  0  0  0  0  0
   63.3213   32.3491   50.9039 H   0  0  0  0  0  0  0  0  0  0  0  0
   61.7190   31.6880   49.6600 N   0  0  0  0  0  0  0  0  0  0  0  0
   61.9320   30.6840   49.8540 H   0  0  0  0  0  0  0  0  0  0  0  0
   59.3780   29.9180   49.1530 C   0  0  0  0  0  0  0  0  0  0  0  0
   58.4037   29.5837   48.7669 H   0  0  0  0  0  0  0  0  0  0  0  0
   59.2961   30.3792   50.1483 H   0  0  0  0  0  0  0  0  0  0  0  0
   60.2910   28.6910   49.2970 C   0  0  0  0  0  0  0  0  0  0  0  0
   60.0762   28.2056   50.2605 H   0  0  0  0  0  0  0  0  0  0  0  0
   61.3304   29.0461   49.2382 H   0  0  0  0  0  0  0  0  0  0  0  0
   60.0940   27.6600   48.1750 C   0  0  0  0  0  0  0  0  0  0  0  0
   59.3613   26.9113   48.5107 H   0  0  0  0  0  0  0  0  0  0  0  0
   61.0746   27.2074   47.9661 H   0  0  0  0  0  0  0  0  0  0  0  0
  1  2  1  0
  2  3  1  0
  3  4  1  0
  4  5  2  0
  5  6  1  0
  6  7  2  0
  6  8  1  0
  8  9  1  0
  8 10  1  0
  8 11  1  0
  4 12  1  0
 12 13  1  0
 12 14  2  0
 14 15  1  0
 14 16  1  0
 16 17  1  0
 17 18  2  0
 17 19  2  0
 17 20  1  0
 20 21  1  0
 21 22  1  0
 21 23  1  0
 21 24  1  0
 24 25  1  0
 24 26  1  0
 24 27  1  0
 27 28  1  0
 28 29  2  0
 29 30  1  0
 30 31  1  0
 30 32  1  0
 30 33  1  0
 29 34  1  0
 34 35  1  0
 34 36  2  0
 36 37  1  0
 36 38  1  0
 38 39  1  0
 38 40  2  0
 40 41  1  0
 27 42  1  0
 42 43  1  0
 42 44  1  0
 42 45  1  0
 45 46  1  0
 45 47  1  0
 45 48  1  0
 48 49  1  0
 48 50  1  0
 16  2  2  0
 48 20  1  0
 40 28  1  0
M  CHG  2   3  -1  40   1
M  END
>  <UniqueID>  (23) 
22

>  <SMILES>  (23) 
CC(=O)/N=c1/ccc(S(=O)(=O)N2CCCN(c3[nH+]cccc3C(F)(F)F)CC2)c[n-]1

>  <Energy>  (23) 
67.26122292478561

>  <Genealogy>  (23) 
CC(=O)N=c1ccc(S(=O)(=O)N2CCCN(c3[nH+]cccc3C(F)(F)F)CC2)c[n-]1 (protonated)
CC(=O)/N=c1/ccc(S(=O)(=O)N2CCCN(c3[nH+]cccc3C(F)(F)F)CC2)c[n-]1 (cis-trans isomerization)
CC(=O)/N=c1/ccc(S(=O)(=O)N2CCCN(c3[nH+]cccc3C(F)(F)F)CC2)c[n-]1 (3D coordinates assigned)
CC(=O)/N=c1/ccc(S(=O)(=O)N2CCCN(c3[nH+]cccc3C(F)(F)F)CC2)c[n-]1 (nonaromatic ring conformer: 67.26122292478561 kcal/mol)

>  <smiles>  (23) 
CC(=O)N=c1ccc(S(=O)(=O)N2CCCN(c3ncccc3C(F)(F)F)CC2)c[nH]1

>  <score_type>  (23) 
oracle

>  <origin>  (23) 
adg

>  <m_score__min__energy>  (23) 
-5.9000000000000004

>  <m_primary>  (23) 
energy

$$$$
23:0
     RDKit          3D

 56 58  0  0  0  0  0  0  0  0999 V2000
   61.3230   33.5680   50.5330 C   0  0  0  0  0  0  0  0  0  0  0  0
   60.9960   33.3810   49.1050 N   0  0  2  0  0  0  0  0  0  0  0  0
   62.2380   33.4350   48.2890 C   0  0  0  0  0  0  0  0  0  0  0  0
   62.6430   32.0710   47.7830 C   0  0  0  0  0  0  0  0  0  0  0  0
   63.7030   31.9530   47.1120 O   0  0  0  0  0  0  0  0  0  0  0  0
   61.9090   30.8860   48.1140 N   0  0  0  0  0  0  0  0  0  0  0  0
   60.8000   30.3430   47.3840 C   0  0  0  0  0  0  0  0  0  0  0  0
   60.8960   30.0980   46.0060 C   0  0  0  0  0  0  0  0  0  0  0  0
   59.8050   29.5880   45.2990 C   0  0  0  0  0  0  0  0  0  0  0  0
   58.6050   29.3080   45.9630 C   0  0  0  0  0  0  0  0  0  0  0  0
   57.2290   28.6550   45.0820 S   0  0  0  0  0  0  0  0  0  0  0  0
   57.7710   28.0580   43.4980 C   0  0  0  0  0  0  0  0  0  0  0  0
   56.6180   27.5270   45.8660 O   0  0  0  0  0  0  0  0  0  0  0  0
   56.1910   29.7240   44.8840 O   0  0  0  0  0  0  0  0  0  0  0  0
   58.5140   29.5170   47.3450 C   0  0  0  0  0  0  0  0  0  0  0  0
   59.6100   30.0220   48.0630 C   0  0  0  0  0  0  0  0  0  0  0  0
   59.5030   30.2430   49.4790 N   0  0  0  0  0  0  0  0  0  0  0  0
   58.3700   31.0000   50.0130 C   0  0  0  0  0  0  0  0  0  0  0  0
   58.7630   31.6340   51.3510 C   0  0  0  0  0  0  0  0  0  0  0  0
   59.2970   30.6640   52.2320 O   0  0  0  0  0  0  0  0  0  0  0  0
   60.5090   30.1530   51.7060 C   0  0  0  0  0  0  0  0  0  0  0  0
   60.2600   29.3940   50.4010 C   0  0  0  0  0  0  0  0  0  0  0  0
   60.0250   34.4120   48.6570 C   0  0  0  0  0  0  0  0  0  0  0  0
   59.3620   34.0390   47.3510 C   0  0  0  0  0  0  0  0  0  0  0  0
   59.8290   34.5870   46.1450 C   0  0  0  0  0  0  0  0  0  0  0  0
   59.2310   34.2300   44.9300 C   0  0  0  0  0  0  0  0  0  0  0  0
   58.1650   33.3260   44.9130 C   0  0  0  0  0  0  0  0  0  0  0  0
   57.6960   32.7760   46.1080 C   0  0  0  0  0  0  0  0  0  0  0  0
   58.2910   33.1280   47.3250 C   0  0  0  0  0  0  0  0  0  0  0  0
   60.5337   33.1166   51.1521 H   0  0  0  0  0  0  0  0  0  0  0  0
   62.2853   33.0837   50.7553 H   0  0  0  0  0  0  0  0  0  0  0  0
   61.3936   34.6430   50.7553 H   0  0  0  0  0  0  0  0  0  0  0  0
   60.5560   32.4340   49.0050 H   0  0  0  0  0  0  0  0  0  0  0  0
   62.0681   34.0973   47.4273 H   0  0  0  0  0  0  0  0  0  0  0  0
   63.0484   33.8141   48.9289 H   0  0  0  0  0  0  0  0  0  0  0  0
   61.8378   30.3092   45.4784 H   0  0  0  0  0  0  0  0  0  0  0  0
   59.8889   29.4058   44.2174 H   0  0  0  0  0  0  0  0  0  0  0  0
   58.5041   27.2506   43.6417 H   0  0  0  0  0  0  0  0  0  0  0  0
   56.9072   27.6733   42.9360 H   0  0  0  0  0  0  0  0  0  0  0  0
   58.2372   28.8807   42.9360 H   0  0  0  0  0  0  0  0  0  0  0  0
   57.5769   29.2838   47.8718 H   0  0  0  0  0  0  0  0  0  0  0  0
   58.0894   31.7904   49.3013 H   0  0  0  0  0  0  0  0  0  0  0  0
   57.5165   30.3230   50.1653 H   0  0  0  0  0  0  0  0  0  0  0  0
   59.5188   32.4130   51.1722 H   0  0  0  0  0  0  0  0  0  0  0  0
   57.8637   32.0694   51.8111 H   0  0  0  0  0  0  0  0  0  0  0  0
   61.1977   30.9883   51.5112 H   0  0  0  0  0  0  0  0  0  0  0  0
   60.9455   29.4586   52.4390 H   0  0  0  0  0  0  0  0  0  0  0  0
   61.2236   29.1246   49.9440 H   0  0  0  0  0  0  0  0  0  0  0  0
   59.6860   28.4798   50.6125 H   0  0  0  0  0  0  0  0  0  0  0  0
   59.2493   34.5276   49.4283 H   0  0  0  0  0  0  0  0  0  0  0  0
   60.5759   35.3513   48.5012 H   0  0  0  0  0  0  0  0  0  0  0  0
   60.6674   35.2991   46.1549 H   0  0  0  0  0  0  0  0  0  0  0  0
   59.6006   34.6614   43.9881 H   0  0  0  0  0  0  0  0  0  0  0  0
   57.6953   33.0477   43.9580 H   0  0  0  0  0  0  0  0  0  0  0  0
   56.8571   32.0646   46.0927 H   0  0  0  0  0  0  0  0  0  0  0  0
   57.9199   32.6908   48.2637 H   0  0  0  0  0  0  0  0  0  0  0  0
  1  2  1  0
  2  3  1  0
  3  4  1  0
  4  5  2  0
  4  6  1  0
  6  7  1  0
  7  8  2  0
  8  9  1  0
  9 10  2  0
 10 11  1  0
 11 12  1  0
 11 13  2  0
 11 14  2  0
 10 15  1  0
 15 16  2  0
 16 17  1  0
 17 18  1  0
 18 19  1  0
 19 20  1  0
 20 21  1  0
 21 22  1  0
  2 23  1  0
 23 24  1  0
 24 25  2  0
 25 26  1  0
 26 27  2  0
 27 28  1  0
 28 29  2  0
 16  7  1  0
 22 17  1  0
 29 24  1  0
  1 30  1  0
  1 31  1  0
  1 32  1  0
  2 33  1  1
  3 34  1  0
  3 35  1  0
  8 36  1  0
  9 37  1  0
 12 38  1  0
 12 39  1  0
 12 40  1  0
 15 41  1  0
 18 42  1  0
 18 43  1  0
 19 44  1  0
 19 45  1  0
 21 46  1  0
 21 47  1  0
 22 48  1  0
 22 49  1  0
 23 50  1  0
 23 51  1  0
 25 52  1  0
 26 53  1  0
 27 54  1  0
 28 55  1  0
 29 56  1  0
M  CHG  2   2   1   6  -1
M  END
>  <UniqueID>  (24) 
23

>  <SMILES>  (24) 
C[N@H+](CC(=O)[N-]c1ccc(S(C)(=O)=O)cc1N1CCOCC1)Cc1ccccc1

>  <Energy>  (24) 
67.96947455932916

>  <Genealogy>  (24) 
C[NH+](CC(=O)[N-]c1ccc(S(C)(=O)=O)cc1N1CCOCC1)Cc1ccccc1 (protonated)
C[N@H+](CC(=O)[N-]c1ccc(S(C)(=O)=O)cc1N1CCOCC1)Cc1ccccc1 (chirality)
C[N@H+](CC(=O)[N-]c1ccc(S(C)(=O)=O)cc1N1CCOCC1)Cc1ccccc1 (3D coordinates assigned)
C[N@H+](CC(=O)[N-]c1ccc(S(C)(=O)=O)cc1N1CCOCC1)Cc1ccccc1 (nonaromatic ring conformer: 67.96947455932916 kcal/mol)

>  <smiles>  (24) 
CN(CC(=O)Nc1ccc(S(C)(=O)=O)cc1N1CCOCC1)Cc1ccccc1

>  <score_type>  (24) 
oracle

>  <origin>  (24) 
adg

>  <m_score__min__energy>  (24) 
-7.96

>  <m_primary>  (24) 
energy

$$$$
24:0
     RDKit          3D

 33 35  0  0  0  0  0  0  0  0999 V2000
   55.1800   26.4240   45.9840 N   0  0  0  0  0  0  0  0  0  0  0  0
   56.4190   25.7250   45.9100 C   0  0  0  0  0  0  0  0  0  0  0  0
   56.4220   24.4910   45.6600 O   0  0  0  0  0  0  0  0  0  0  0  0
   57.6930   26.4110   46.1870 C   0  0  0  0  0  0  0  0  0  0  0  0
   58.8290   25.7380   46.4620 N   0  0  0  0  0  0  0  0  0  0  0  0
   59.7210   26.6100   46.8380 O   0  0  0  0  0  0  0  0  0  0  0  0
   59.2370   27.8310   46.8190 C   0  0  0  0  0  0  0  0  0  0  0  0
   59.9740   29.0200   47.3010 C   0  0  0  0  0  0  0  0  0  0  0  0
   60.1060   30.1090   46.4230 C   0  0  0  0  0  0  0  0  0  0  0  0
   60.8830   31.2150   46.7720 C   0  0  0  0  0  0  0  0  0  0  0  0
   61.5370   31.2480   48.0040 C   0  0  0  0  0  0  0  0  0  0  0  0
   61.3940   30.1870   48.9000 C   0  0  0  0  0  0  0  0  0  0  0  0
   60.5970   29.0760   48.5720 C   0  0  0  0  0  0  0  0  0  0  0  0
   60.3620   28.0660   49.5650 N   0  0  0  0  0  0  0  0  0  0  0  0
   60.7370   26.8920   49.3670 O   0  0  0  0  0  0  0  0  0  0  0  0
   59.9450   28.4290   50.8230 O   0  0  0  0  0  0  0  0  0  0  0  0
   57.9320   27.7660   46.3710 C   0  0  0  0  0  0  0  0  0  0  0  0
   57.0160   28.8660   46.3030 N   0  0  0  0  0  0  0  0  0  0  0  0
   56.4780   29.4940   45.1310 C   0  0  0  0  0  0  0  0  0  0  0  0
   55.4420   29.0010   44.6140 O   0  0  0  0  0  0  0  0  0  0  0  0
   57.0510   30.7120   44.5220 C   0  0  0  0  0  0  0  0  0  0  0  0
   57.3690   30.9290   43.1920 C   0  0  0  0  0  0  0  0  0  0  0  0
   57.8830   32.2060   43.1320 C   0  0  0  0  0  0  0  0  0  0  0  0
   57.8570   32.6900   44.4230 C   0  0  0  0  0  0  0  0  0  0  0  0
   57.3600   31.7790   45.2250 O   0  0  0  0  0  0  0  0  0  0  0  0
   55.1540   27.4650   46.0540 H   0  0  0  0  0  0  0  0  0  0  0  0
   59.5919   30.0899   45.4507 H   0  0  0  0  0  0  0  0  0  0  0  0
   60.9797   32.0608   46.0754 H   0  0  0  0  0  0  0  0  0  0  0  0
   62.1658   32.1106   48.2695 H   0  0  0  0  0  0  0  0  0  0  0  0
   61.9094   30.2204   49.8712 H   0  0  0  0  0  0  0  0  0  0  0  0
   57.2382   30.2266   42.3556 H   0  0  0  0  0  0  0  0  0  0  0  0
   58.2416   32.7329   42.2355 H   0  0  0  0  0  0  0  0  0  0  0  0
   58.2007   33.6879   44.7329 H   0  0  0  0  0  0  0  0  0  0  0  0
  1  2  1  0
  2  3  2  0
  2  4  1  0
  4  5  2  0
  5  6  1  0
  6  7  1  0
  7  8  1  0
  8  9  2  0
  9 10  1  0
 10 11  2  0
 11 12  1  0
 12 13  2  0
 13 14  1  0
 14 15  2  0
 14 16  1  0
  7 17  2  0
 17 18  1  0
 18 19  1  0
 19 20  2  0
 19 21  1  0
 21 22  2  0
 22 23  1  0
 23 24  2  0
 24 25  1  0
 17  4  1  0
 25 21  1  0
 13  8  1  0
  1 26  1  0
  9 27  1  0
 10 28  1  0
 11 29  1  0
 12 30  1  0
 22 31  1  0
 23 32  1  0
 24 33  1  0
M  CHG  4   1  -1  14   1  16  -1  18  -1
M  END
>  <UniqueID>  (25) 
24

>  <SMILES>  (25) 
[NH-]C(=O)c1noc(-c2ccccc2[N+](=O)[O-])c1[N-]C(=O)c1ccco1

>  <Energy>  (25) 
111.13547090931797

>  <Genealogy>  (25) 
[NH-]C(=O)c1noc(-c2ccccc2[N+](=O)[O-])c1[N-]C(=O)c1ccco1 (protonated)
[NH-]C(=O)c1noc(-c2ccccc2[N+](=O)[O-])c1[N-]C(=O)c1ccco1 (3D coordinates assigned)
[NH-]C(=O)c1noc(-c2ccccc2[N+](=O)[O-])c1[N-]C(=O)c1ccco1 (optimized conformer: 111.13547090931797 kcal/mol)

>  <smiles>  (25) 
NC(=O)c1noc(-c2ccccc2[N+](=O)[O-])c1NC(=O)c1ccco1

>  <score_type>  (25) 
oracle

>  <origin>  (25) 
adg

>  <m_score__min__energy>  (25) 
-11.82

>  <m_primary>  (25) 
energy

$$$$
25:0
     RDKit          3D

 57 59  0  0  0  0  0  0  0  0999 V2000
   60.9780   32.2160   53.7600 C   0  0  0  0  0  0  0  0  0  0  0  0
   60.7360   33.5020   52.9700 C   0  0  0  0  0  0  0  0  0  0  0  0
   59.4600   34.2360   53.4090 C   0  0  0  0  0  0  0  0  0  0  0  0
   58.3060   34.0630   52.4150 C   0  0  0  0  0  0  0  0  0  0  0  0
   58.1580   32.6420   52.0570 N   0  0  0  0  0  0  0  0  0  0  0  0
   58.5010   32.2530   50.8230 N   0  0  0  0  0  0  0  0  0  0  0  0
   58.3760   30.9610   50.4110 C   0  0  0  0  0  0  0  0  0  0  0  0
   58.7520   30.5780   49.0280 C   0  0  0  0  0  0  0  0  0  0  0  0
   58.7690   29.2190   48.6760 C   0  0  0  0  0  0  0  0  0  0  0  0
   59.1320   28.8230   47.3890 C   0  0  0  0  0  0  0  0  0  0  0  0
   59.4830   29.7720   46.4260 C   0  0  0  0  0  0  0  0  0  0  0  0
   59.8490   29.3190   45.1490 O   0  0  0  0  0  0  0  0  0  0  0  0
   61.0820   28.6750   44.8450 C   0  0  0  0  0  0  0  0  0  0  0  0
   59.4590   31.1380   46.7660 C   0  0  0  0  0  0  0  0  0  0  0  0
   59.0860   31.5510   48.0620 C   0  0  0  0  0  0  0  0  0  0  0  0
   59.0210   32.9110   48.4120 O   0  0  0  0  0  0  0  0  0  0  0  0
   59.0010   33.9880   47.4810 C   0  0  0  0  0  0  0  0  0  0  0  0
   57.8490   30.0160   51.2920 C   0  0  0  0  0  0  0  0  0  0  0  0
   57.4610   30.3960   52.5800 C   0  0  0  0  0  0  0  0  0  0  0  0
   56.8960   29.3750   53.5070 C   0  0  0  0  0  0  0  0  0  0  0  0
   57.6580   28.7800   54.3170 O   0  0  0  0  0  0  0  0  0  0  0  0
   55.5080   29.0200   53.4450 N   0  0  0  0  0  0  0  0  0  0  0  0
   54.4410   29.8330   52.9360 C   0  0  0  0  0  0  0  0  0  0  0  0
   53.3620   30.2360   53.7420 C   0  0  0  0  0  0  0  0  0  0  0  0
   52.3530   31.0490   53.2160 C   0  0  0  0  0  0  0  0  0  0  0  0
   52.4110   31.4830   51.8800 C   0  0  0  0  0  0  0  0  0  0  0  0
   51.3440   32.3410   51.3180 C   0  0  0  0  0  0  0  0  0  0  0  0
   51.3780   32.6950   50.1100 O   0  0  0  0  0  0  0  0  0  0  0  0
   50.2900   32.7690   52.1180 O   0  0  0  0  0  0  0  0  0  0  0  0
   53.5060   31.0990   51.0870 C   0  0  0  0  0  0  0  0  0  0  0  0
   54.5140   30.2890   51.6160 C   0  0  0  0  0  0  0  0  0  0  0  0
   57.6240   31.7470   52.9520 C   0  0  0  0  0  0  0  0  0  0  0  0
   57.2880   32.1330   54.1040 O   0  0  0  0  0  0  0  0  0  0  0  0
   60.9369   32.4343   54.8373 H   0  0  0  0  0  0  0  0  0  0  0  0
   60.2030   31.4780   53.5056 H   0  0  0  0  0  0  0  0  0  0  0  0
   61.9683   31.8102   53.5056 H   0  0  0  0  0  0  0  0  0  0  0  0
   61.5958   34.1723   53.1168 H   0  0  0  0  0  0  0  0  0  0  0  0
   60.6126   33.2243   51.9128 H   0  0  0  0  0  0  0  0  0  0  0  0
   59.1451   33.8406   54.3860 H   0  0  0  0  0  0  0  0  0  0  0  0
   59.6954   35.3092   53.4610 H   0  0  0  0  0  0  0  0  0  0  0  0
   57.3730   34.4221   52.8740 H   0  0  0  0  0  0  0  0  0  0  0  0
   58.5223   34.6436   51.5061 H   0  0  0  0  0  0  0  0  0  0  0  0
   58.8910   32.9560   50.1520 H   0  0  0  0  0  0  0  0  0  0  0  0
   58.4934   28.4594   49.4224 H   0  0  0  0  0  0  0  0  0  0  0  0
   59.1420   27.7540   47.1300 H   0  0  0  0  0  0  0  0  0  0  0  0
   61.5958   28.4067   45.7799 H   0  0  0  0  0  0  0  0  0  0  0  0
   60.8856   27.7643   44.2601 H   0  0  0  0  0  0  0  0  0  0  0  0
   61.7172   29.3565   44.2601 H   0  0  0  0  0  0  0  0  0  0  0  0
   59.7341   31.8911   46.0129 H   0  0  0  0  0  0  0  0  0  0  0  0
   58.9833   34.9434   48.0259 H   0  0  0  0  0  0  0  0  0  0  0  0
   59.9001   33.9430   46.8489 H   0  0  0  0  0  0  0  0  0  0  0  0
   58.1042   33.9097   46.8489 H   0  0  0  0  0  0  0  0  0  0  0  0
   57.7386   28.9693   50.9721 H   0  0  0  0  0  0  0  0  0  0  0  0
   53.3111   29.9103   54.7914 H   0  0  0  0  0  0  0  0  0  0  0  0
   51.5079   31.3511   53.8521 H   0  0  0  0  0  0  0  0  0  0  0  0
   53.5698   31.4385   50.0427 H   0  0  0  0  0  0  0  0  0  0  0  0
   55.3726   30.0075   50.9887 H   0  0  0  0  0  0  0  0  0  0  0  0
  1  2  1  0
  2  3  1  0
  3  4  1  0
  4  5  1  0
  5  6  1  0
  6  7  2  0
  7  8  1  0
  8  9  2  0
  9 10  1  0
 10 11  2  0
 11 12  1  0
 12 13  1  0
 11 14  1  0
 14 15  2  0
 15 16  1  0
 16 17  1  0
  7 18  1  0
 18 19  2  0
 19 20  1  0
 20 21  2  0
 20 22  1  0
 22 23  1  0
 23 24  2  0
 24 25  1  0
 25 26  2  0
 26 27  1  0
 27 28  2  0
 27 29  1  0
 26 30  1  0
 30 31  2  0
 19 32  1  0
 32 33  2  0
 32  5  1  0
 15  8  1  0
 31 23  1  0
  1 34  1  0
  1 35  1  0
  1 36  1  0
  2 37  1  0
  2 38  1  0
  3 39  1  0
  3 40  1  0
  4 41  1  0
  4 42  1  0
  6 43  1  0
  9 44  1  0
 10 45  1  0
 13 46  1  0
 13 47  1  0
 13 48  1  0
 14 49  1  0
 17 50  1  0
 17 51  1  0
 17 52  1  0
 18 53  1  0
 24 54  1  0
 25 55  1  0
 30 56  1  0
 31 57  1  0
M  CHG  3   6   1  22  -1  29  -1
M  END
>  <UniqueID>  (26) 
25

>  <SMILES>  (26) 
CCCCn1[nH+]c(-c2ccc(OC)cc2OC)cc(C(=O)[N-]c2ccc(C(=O)[O-])cc2)c1=O

>  <Energy>  (26) 
66.9443104996718

>  <Genealogy>  (26) 
CCCCn1[nH+]c(-c2ccc(OC)cc2OC)cc(C(=O)[N-]c2ccc(C(=O)[O-])cc2)c1=O (protonated)
CCCCn1[nH+]c(-c2ccc(OC)cc2OC)cc(C(=O)[N-]c2ccc(C(=O)[O-])cc2)c1=O (3D coordinates assigned)
CCCCn1[nH+]c(-c2ccc(OC)cc2OC)cc(C(=O)[N-]c2ccc(C(=O)[O-])cc2)c1=O (optimized conformer: 66.9443104996718 kcal/mol)

>  <smiles>  (26) 
CCCCn1nc(-c2ccc(OC)cc2OC)cc(C(=O)Nc2ccc(C(=O)O)cc2)c1=O

>  <score_type>  (26) 
oracle

>  <origin>  (26) 
adg

>  <m_score__min__energy>  (26) 
-10.039999999999999

>  <m_primary>  (26) 
energy

$$$$
26:0
     RDKit          3D

  8  8  0  0  0  0  0  0  0  0999 V2000
   50.6430   30.4140   47.9530 O   0  0  0  0  0  0  0  0  0  0  0  0
   51.0120   31.0870   48.9510 C   0  0  0  0  0  0  0  0  0  0  0  0
   51.5270   30.5360   50.0710 N   0  0  0  0  0  0  0  0  0  0  0  0
   51.7490   31.6490   50.8040 C   0  0  0  0  0  0  0  0  0  0  0  0
   52.2390   31.6290   51.9630 O   0  0  0  0  0  0  0  0  0  0  0  0
   51.4000   32.7480   50.1800 O   0  0  0  0  0  0  0  0  0  0  0  0
   50.9340   32.4260   49.0140 N   0  0  0  0  0  0  0  0  0  0  0  0
   50.5770   33.0880   48.2910 H   0  0  0  0  0  0  0  0  0  0  0  0
  1  2  2  0
  2  3  1  0
  3  4  1  0
  4  5  2  0
  4  6  1  0
  6  7  1  0
  7  2  1  0
  7  8  1  0
M  CHG  1   3  -1
M  END
>  <UniqueID>  (27) 
26

>  <SMILES>  (27) 
O=c1[n-]c(=O)o[nH]1

>  <Energy>  (27) 
42.455439887912625

>  <Genealogy>  (27) 
O=c1[n-]c(=O)o[nH]1 (protonated)
O=c1[n-]c(=O)o[nH]1 (3D coordinates assigned)
O=c1[n-]c(=O)o[nH]1 (optimized conformer: 42.455439887912625 kcal/mol)

>  <smiles>  (27) 
O=c1[nH]oc(=O)[nH]1

>  <score_type>  (27) 
oracle

>  <origin>  (27) 
adg

>  <m_score__min__energy>  (27) 
-6.6799999999999997

>  <m_primary>  (27) 
energy

$$$$
27:0
     RDKit          3D

 56 59  0  0  0  0  0  0  0  0999 V2000
   57.7700   27.9840   43.8690 C   0  0  0  0  0  0  0  0  0  0  0  0
   56.6280   28.4680   45.1400 S   0  0  0  0  0  0  0  0  0  0  0  0
   55.3770   28.9970   44.4990 O   0  0  0  0  0  0  0  0  0  0  0  0
   57.2540   29.5390   45.9880 O   0  0  0  0  0  0  0  0  0  0  0  0
   56.2620   27.0920   46.1240 N   0  0  0  0  0  0  0  0  0  0  0  0
   56.6890   25.7790   45.7580 C   0  0  0  0  0  0  0  0  0  0  0  0
   55.7450   24.8900   45.2270 C   0  0  0  0  0  0  0  0  0  0  0  0
   56.1350   23.6220   44.7930 C   0  0  0  0  0  0  0  0  0  0  0  0
   57.4710   23.2330   44.8840 C   0  0  0  0  0  0  0  0  0  0  0  0
   58.4200   24.1040   45.4240 C   0  0  0  0  0  0  0  0  0  0  0  0
   58.0390   25.3770   45.8860 C   0  0  0  0  0  0  0  0  0  0  0  0
   59.0660   26.2540   46.4880 C   0  0  0  0  0  0  0  0  0  0  0  0
   60.2740   25.8940   46.4510 O   0  0  0  0  0  0  0  0  0  0  0  0
   58.6970   27.5010   47.1050 N   0  0  0  0  0  0  0  0  0  0  0  0
   59.6390   28.4520   47.6270 C   0  0  0  0  0  0  0  0  0  0  0  0
   60.1660   29.4800   46.8290 C   0  0  0  0  0  0  0  0  0  0  0  0
   61.0960   30.3790   47.3580 C   0  0  0  0  0  0  0  0  0  0  0  0
   61.5310   30.2630   48.6920 C   0  0  0  0  0  0  0  0  0  0  0  0
   62.4910   31.1960   49.2420 N   0  0  0  0  0  0  0  0  0  0  0  0
   62.9000   32.3750   48.4550 C   0  0  0  0  0  0  0  0  0  0  0  0
   64.2280   32.9130   48.9060 C   0  0  0  0  0  0  0  0  0  0  0  0
   64.5850   32.8750   50.1970 C   0  0  0  0  0  0  0  0  0  0  0  0
   65.8600   33.4840   50.6580 C   0  0  0  0  0  0  0  0  0  0  0  0
   67.0860   33.0640   50.1090 C   0  0  0  0  0  0  0  0  0  0  0  0
   68.2880   33.6380   50.5360 C   0  0  0  0  0  0  0  0  0  0  0  0
   68.2800   34.6380   51.5100 C   0  0  0  0  0  0  0  0  0  0  0  0
   67.0700   35.0680   52.0590 C   0  0  0  0  0  0  0  0  0  0  0  0
   65.8650   34.4960   51.6370 C   0  0  0  0  0  0  0  0  0  0  0  0
   63.6280   32.2630   51.1880 C   0  0  0  0  0  0  0  0  0  0  0  0
   63.0040   30.9880   50.6100 C   0  0  0  0  0  0  0  0  0  0  0  0
   61.0180   29.2140   49.4770 C   0  0  0  0  0  0  0  0  0  0  0  0
   60.0910   28.3140   48.9460 C   0  0  0  0  0  0  0  0  0  0  0  0
   58.6892   27.5944   44.3309 H   0  0  0  0  0  0  0  0  0  0  0  0
   57.3136   27.2019   43.2444 H   0  0  0  0  0  0  0  0  0  0  0  0
   58.0146   28.8558   43.2444 H   0  0  0  0  0  0  0  0  0  0  0  0
   54.6903   25.1932   45.1517 H   0  0  0  0  0  0  0  0  0  0  0  0
   55.3878   22.9290   44.3788 H   0  0  0  0  0  0  0  0  0  0  0  0
   57.7782   22.2380   44.5297 H   0  0  0  0  0  0  0  0  0  0  0  0
   59.4729   23.7923   45.4885 H   0  0  0  0  0  0  0  0  0  0  0  0
   57.6890   27.7790   47.1020 H   0  0  0  0  0  0  0  0  0  0  0  0
   59.8450   29.5783   45.7815 H   0  0  0  0  0  0  0  0  0  0  0  0
   61.4927   31.1864   46.7250 H   0  0  0  0  0  0  0  0  0  0  0  0
   62.9732   32.0881   47.3956 H   0  0  0  0  0  0  0  0  0  0  0  0
   62.1451   33.1618   48.6001 H   0  0  0  0  0  0  0  0  0  0  0  0
   64.9176   33.3445   48.1656 H   0  0  0  0  0  0  0  0  0  0  0  0
   67.0990   32.2788   49.3387 H   0  0  0  0  0  0  0  0  0  0  0  0
   69.2415   33.3007   50.1034 H   0  0  0  0  0  0  0  0  0  0  0  0
   69.2266   35.0872   51.8450 H   0  0  0  0  0  0  0  0  0  0  0  0
   67.0644   35.8578   52.8246 H   0  0  0  0  0  0  0  0  0  0  0  0
   64.9151   34.8391   52.0729 H   0  0  0  0  0  0  0  0  0  0  0  0
   64.1720   32.0141   52.1111 H   0  0  0  0  0  0  0  0  0  0  0  0
   62.8276   32.9858   51.4045 H   0  0  0  0  0  0  0  0  0  0  0  0
   63.7684   30.1974   50.5865 H   0  0  0  0  0  0  0  0  0  0  0  0
   62.1570   30.7028   51.2513 H   0  0  0  0  0  0  0  0  0  0  0  0
   61.3503   29.1015   50.5195 H   0  0  0  0  0  0  0  0  0  0  0  0
   59.7127   27.4899   49.5687 H   0  0  0  0  0  0  0  0  0  0  0  0
  1  2  1  0
  2  3  2  0
  2  4  2  0
  2  5  1  0
  5  6  1  0
  6  7  2  0
  7  8  1  0
  8  9  2  0
  9 10  1  0
 10 11  2  0
 11 12  1  0
 12 13  2  0
 12 14  1  0
 14 15  1  0
 15 16  2  0
 16 17  1  0
 17 18  2  0
 18 19  1  0
 19 20  1  0
 20 21  1  0
 21 22  2  0
 22 23  1  0
 23 24  2  0
 24 25  1  0
 25 26  2  0
 26 27  1  0
 27 28  2  0
 22 29  1  0
 29 30  1  0
 18 31  1  0
 31 32  2  0
 11  6  1  0
 32 15  1  0
 30 19  1  0
 28 23  1  0
  1 33  1  0
  1 34  1  0
  1 35  1  0
  7 36  1  0
  8 37  1  0
  9 38  1  0
 10 39  1  0
 14 40  1  0
 16 41  1  0
 17 42  1  0
 20 43  1  0
 20 44  1  0
 21 45  1  0
 24 46  1  0
 25 47  1  0
 26 48  1  0
 27 49  1  0
 28 50  1  0
 29 51  1  0
 29 52  1  0
 30 53  1  0
 30 54  1  0
 31 55  1  0
 32 56  1  0
M  CHG  1   5  -1
M  END
>  <UniqueID>  (28) 
27

>  <SMILES>  (28) 
CS(=O)(=O)[N-]c1ccccc1C(=O)Nc1ccc(N2CC=C(c3ccccc3)CC2)cc1

>  <Energy>  (28) 
81.7193826718792

>  <Genealogy>  (28) 
CS(=O)(=O)[N-]c1ccccc1C(=O)Nc1ccc(N2CC=C(c3ccccc3)CC2)cc1 (protonated)
CS(=O)(=O)[N-]c1ccccc1C(=O)Nc1ccc(N2CC=C(c3ccccc3)CC2)cc1 (3D coordinates assigned)
CS(=O)(=O)[N-]c1ccccc1C(=O)Nc1ccc(N2CC=C(c3ccccc3)CC2)cc1 (nonaromatic ring conformer: 81.7193826718792 kcal/mol)

>  <smiles>  (28) 
CS(=O)(=O)Nc1ccccc1C(=O)Nc1ccc(N2CC=C(c3ccccc3)CC2)cc1

>  <score_type>  (28) 
oracle

>  <origin>  (28) 
adg

>  <m_score__min__energy>  (28) 
-9.7899999999999991

>  <m_primary>  (28) 
energy

$$$$
28:0
     RDKit          3D

 38 40  0  0  0  0  0  0  0  0999 V2000
   61.0565   28.5926   45.5038 H   0  0  0  0  0  0  0  0  0  0  0  0
   60.1890   29.2630   45.5930 C   0  0  0  0  0  0  0  0  0  0  0  0
   59.2350   29.1470   44.7140 N   0  0  0  0  0  0  0  0  0  0  0  0
   57.9030   29.5450   44.9290 N   0  0  0  0  0  0  0  0  0  0  0  0
   57.2890   30.6820   44.5270 C   0  0  0  0  0  0  0  0  0  0  0  0
   57.9590   31.8500   43.8610 C   0  0  0  0  0  0  0  0  0  0  0  0
   58.8812   31.5044   43.3709 H   0  0  0  0  0  0  0  0  0  0  0  0
   57.2661   32.2764   43.1207 H   0  0  0  0  0  0  0  0  0  0  0  0
   58.3050   32.9170   44.8650 C   0  0  0  0  0  0  0  0  0  0  0  0
   59.2070   33.9400   44.5260 C   0  0  0  0  0  0  0  0  0  0  0  0
   59.6539   33.9647   43.5212 H   0  0  0  0  0  0  0  0  0  0  0  0
   59.5390   34.9260   45.4590 C   0  0  0  0  0  0  0  0  0  0  0  0
   60.2470   35.7230   45.1881 H   0  0  0  0  0  0  0  0  0  0  0  0
   58.9720   34.9000   46.7360 C   0  0  0  0  0  0  0  0  0  0  0  0
   59.2351   35.6758   47.4701 H   0  0  0  0  0  0  0  0  0  0  0  0
   58.0710   33.8890   47.0810 C   0  0  0  0  0  0  0  0  0  0  0  0
   57.6248   33.8704   48.0863 H   0  0  0  0  0  0  0  0  0  0  0  0
   57.7360   32.9010   46.1500 C   0  0  0  0  0  0  0  0  0  0  0  0
   57.0245   32.1083   46.4244 H   0  0  0  0  0  0  0  0  0  0  0  0
   55.9460   30.5780   44.6490 N   0  0  0  0  0  0  0  0  0  0  0  0
   55.7030   29.3620   45.1160 N   0  0  0  0  0  0  0  0  0  0  0  0
   54.7530   28.9680   45.2980 H   0  0  0  0  0  0  0  0  0  0  0  0
   56.8840   28.7370   45.2500 C   0  0  0  0  0  0  0  0  0  0  0  0
   57.0110   27.5360   45.6070 O   0  0  0  0  0  0  0  0  0  0  0  0
   60.1790   30.2400   46.7040 C   0  0  0  0  0  0  0  0  0  0  0  0
   61.1160   31.2860   46.7800 C   0  0  0  0  0  0  0  0  0  0  0  0
   61.8864   31.3884   46.0015 H   0  0  0  0  0  0  0  0  0  0  0  0
   61.0730   32.1960   47.8400 C   0  0  0  0  0  0  0  0  0  0  0  0
   61.8104   33.0107   47.8902 H   0  0  0  0  0  0  0  0  0  0  0  0
   60.0950   32.0780   48.8420 C   0  0  0  0  0  0  0  0  0  0  0  0
   60.0210   33.0890   49.9580 C   0  0  0  0  0  0  0  0  0  0  0  0
   58.8200   32.9780   50.6380 F   0  0  0  0  0  0  0  0  0  0  0  0
   60.1240   34.3610   49.4300 F   0  0  0  0  0  0  0  0  0  0  0  0
   61.0490   32.8920   50.8640 F   0  0  0  0  0  0  0  0  0  0  0  0
   59.1240   31.0680   48.7310 C   0  0  0  0  0  0  0  0  0  0  0  0
   58.3254   30.9924   49.4836 H   0  0  0  0  0  0  0  0  0  0  0  0
   59.1670   30.1590   47.6700 C   0  0  0  0  0  0  0  0  0  0  0  0
   58.4004   29.3739   47.5927 H   0  0  0  0  0  0  0  0  0  0  0  0
  1  2  1  0
  2  3  2  0
  3  4  1  0
  4  5  1  0
  5  6  1  0
  6  7  1  0
  6  8  1  0
  6  9  1  0
  9 10  2  0
 10 11  1  0
 10 12  1  0
 12 13  1  0
 12 14  2  0
 14 15  1  0
 14 16  1  0
 16 17  1  0
 16 18  2  0
 18 19  1  0
  5 20  2  0
 20 21  1  0
 21 22  1  0
 21 23  1  0
 23 24  2  0
  2 25  1  0
 25 26  2  0
 26 27  1  0
 26 28  1  0
 28 29  1  0
 28 30  2  0
 30 31  1  0
 31 32  1  0
 31 33  1  0
 31 34  1  0
 30 35  1  0
 35 36  1  0
 35 37  2  0
 37 38  1  0
 23  4  1  0
 37 25  1  0
 18  9  1  0
M  END
>  <UniqueID>  (29) 
28

>  <SMILES>  (29) 
O=c1[nH]nc(Cc2ccccc2)n1/N=C\c1ccc(C(F)(F)F)cc1

>  <Energy>  (29) 
88.34821544017872

>  <Genealogy>  (29) 
O=c1[nH]nc(Cc2ccccc2)n1/N=C\c1ccc(C(F)(F)F)cc1 (cis-trans isomerization)
O=c1[nH]nc(Cc2ccccc2)n1/N=C\c1ccc(C(F)(F)F)cc1 (3D coordinates assigned)
O=c1[nH]nc(Cc2ccccc2)n1/N=C\c1ccc(C(F)(F)F)cc1 (optimized conformer: 88.34821544017872 kcal/mol)

>  <smiles>  (29) 
O=c1[nH]nc(Cc2ccccc2)n1N=Cc1ccc(C(F)(F)F)cc1

>  <score_type>  (29) 
oracle

>  <origin>  (29) 
adg

>  <m_score__min__energy>  (29) 
-7.6100000000000003

>  <m_primary>  (29) 
energy

$$$$
29:0
     RDKit          3D

 26 27  0  0  0  0  0  0  0  0999 V2000
   55.0960   26.7060   46.0050 O   0  0  0  0  0  0  0  0  0  0  0  0
   56.2990   26.3380   46.0860 C   0  0  0  0  0  0  0  0  0  0  0  0
   56.6120   24.9930   46.4770 N   0  0  0  0  0  0  0  0  0  0  0  0
   57.1620   23.9640   45.6410 C   0  0  0  0  0  0  0  0  0  0  0  0
   56.4810   23.4750   44.5110 C   0  0  0  0  0  0  0  0  0  0  0  0
   57.0430   22.4550   43.7370 C   0  0  0  0  0  0  0  0  0  0  0  0
   58.2780   21.9060   44.0910 C   0  0  0  0  0  0  0  0  0  0  0  0
   58.9520   22.3690   45.2280 C   0  0  0  0  0  0  0  0  0  0  0  0
   60.1780   21.8210   45.6000 O   0  0  0  0  0  0  0  0  0  0  0  0
   58.3870   23.3900   46.0030 C   0  0  0  0  0  0  0  0  0  0  0  0
   57.4000   27.2800   45.7620 C   0  0  0  0  0  0  0  0  0  0  0  0
   58.7280   26.8590   45.9670 C   0  0  0  0  0  0  0  0  0  0  0  0
   59.8010   27.7120   45.6950 C   0  0  0  0  0  0  0  0  0  0  0  0
   59.5650   28.9970   45.2090 C   0  0  0  0  0  0  0  0  0  0  0  0
   58.2580   29.4310   44.9890 C   0  0  0  0  0  0  0  0  0  0  0  0
   57.1710   28.5870   45.2560 C   0  0  0  0  0  0  0  0  0  0  0  0
   55.5170   29.2160   44.8700 S   0  0  0  0  0  0  0  0  0  0  0  0
   55.5031   23.8966   44.2355 H   0  0  0  0  0  0  0  0  0  0  0  0
   56.5119   22.0842   42.8479 H   0  0  0  0  0  0  0  0  0  0  0  0
   58.7215   21.1091   43.4759 H   0  0  0  0  0  0  0  0  0  0  0  0
   60.4630   20.9010   45.2870 H   0  0  0  0  0  0  0  0  0  0  0  0
   58.9100   23.7439   46.9036 H   0  0  0  0  0  0  0  0  0  0  0  0
   58.9234   25.8451   46.3463 H   0  0  0  0  0  0  0  0  0  0  0  0
   60.8324   27.3692   45.8645 H   0  0  0  0  0  0  0  0  0  0  0  0
   60.4101   29.6691   44.9989 H   0  0  0  0  0  0  0  0  0  0  0  0
   58.0784   30.4450   44.6024 H   0  0  0  0  0  0  0  0  0  0  0  0
  1  2  2  0
  2  3  1  0
  3  4  1  0
  4  5  2  0
  5  6  1  0
  6  7  2  0
  7  8  1  0
  8  9  1  0
  8 10  2  0
  2 11  1  0
 11 12  2  0
 12 13  1  0
 13 14  2  0
 14 15  1  0
 15 16  2  0
 16 17  1  0
 10  4  1  0
 16 11  1  0
  5 18  1  0
  6 19  1  0
  7 20  1  0
  9 21  1  0
 10 22  1  0
 12 23  1  0
 13 24  1  0
 14 25  1  0
 15 26  1  0
M  CHG  2   3  -1  17  -1
M  END
>  <UniqueID>  (30) 
29

>  <SMILES>  (30) 
O=C([N-]c1cccc(O)c1)c1ccccc1[S-]

>  <Energy>  (30) 
35.08077792695844

>  <Genealogy>  (30) 
O=C([N-]c1cccc(O)c1)c1ccccc1[S-] (protonated)
O=C([N-]c1cccc(O)c1)c1ccccc1[S-] (3D coordinates assigned)
O=C([N-]c1cccc(O)c1)c1ccccc1[S-] (optimized conformer: 35.08077792695844 kcal/mol)

>  <smiles>  (30) 
O=C(Nc1cccc(O)c1)c1ccccc1S

>  <score_type>  (30) 
oracle

>  <origin>  (30) 
adg

>  <m_score__min__energy>  (30) 
-10.529999999999999

>  <m_primary>  (30) 
energy

$$$$
30:0
     RDKit          3D

 42 43  0  0  0  0  0  0  0  0999 V2000
   60.7190   28.9650   45.3650 C   0  0  0  0  0  0  0  0  0  0  0  0
   60.1730   29.9410   46.3240 N   0  0  0  0  0  0  0  0  0  0  0  0
   61.2650   30.4570   47.1670 C   0  0  0  0  0  0  0  0  0  0  0  0
   59.1300   29.3310   47.1790 C   0  0  0  0  0  0  0  0  0  0  0  0
   57.9520   28.8000   46.3560 C   0  0  0  0  0  0  0  0  0  0  0  0
   57.1270   29.8830   45.9330 O   0  0  0  0  0  0  0  0  0  0  0  0
   57.1720   30.4740   44.6590 C   0  0  0  0  0  0  0  0  0  0  0  0
   56.5250   29.8960   43.5490 C   0  0  0  0  0  0  0  0  0  0  0  0
   56.6360   30.4780   42.2840 C   0  0  0  0  0  0  0  0  0  0  0  0
   57.3950   31.6360   42.1100 C   0  0  0  0  0  0  0  0  0  0  0  0
   58.0350   32.2240   43.2040 C   0  0  0  0  0  0  0  0  0  0  0  0
   57.9080   31.6660   44.4850 C   0  0  0  0  0  0  0  0  0  0  0  0
   58.5840   32.2920   45.5860 N   0  0  0  0  0  0  0  0  0  0  0  0
   58.5260   33.6990   45.8460 C   0  0  0  0  0  0  0  0  0  0  0  0
   58.1010   34.4890   44.9590 O   0  0  0  0  0  0  0  0  0  0  0  0
   59.0250   34.2030   47.0910 N   0  0  0  0  0  0  0  0  0  0  0  0
   60.3690   34.0930   47.5810 C   0  0  0  0  0  0  0  0  0  0  0  0
   60.6800   34.2190   48.9490 C   0  0  0  0  0  0  0  0  0  0  0  0
   62.0000   34.0720   49.3870 C   0  0  0  0  0  0  0  0  0  0  0  0
   63.0150   33.7900   48.4710 C   0  0  0  0  0  0  0  0  0  0  0  0
   62.7110   33.6450   47.1150 C   0  0  0  0  0  0  0  0  0  0  0  0
   61.3920   33.7880   46.6730 C   0  0  0  0  0  0  0  0  0  0  0  0
   61.1845   28.1329   45.9136 H   0  0  0  0  0  0  0  0  0  0  0  0
   59.9063   28.5782   44.7327 H   0  0  0  0  0  0  0  0  0  0  0  0
   61.4739   29.4552   44.7327 H   0  0  0  0  0  0  0  0  0  0  0  0
   61.0002   30.3319   48.2273 H   0  0  0  0  0  0  0  0  0  0  0  0
   62.1889   29.9002   46.9516 H   0  0  0  0  0  0  0  0  0  0  0  0
   61.4215   31.5243   46.9516 H   0  0  0  0  0  0  0  0  0  0  0  0
   59.5749   28.4970   47.7416 H   0  0  0  0  0  0  0  0  0  0  0  0
   58.7481   30.1088   47.8566 H   0  0  0  0  0  0  0  0  0  0  0  0
   58.3349   28.2670   45.4732 H   0  0  0  0  0  0  0  0  0  0  0  0
   57.3575   28.1134   46.9766 H   0  0  0  0  0  0  0  0  0  0  0  0
   55.9288   28.9808   43.6793 H   0  0  0  0  0  0  0  0  0  0  0  0
   56.1242   30.0226   41.4234 H   0  0  0  0  0  0  0  0  0  0  0  0
   57.4895   32.0862   41.1108 H   0  0  0  0  0  0  0  0  0  0  0  0
   58.6421   33.1299   43.0601 H   0  0  0  0  0  0  0  0  0  0  0  0
   59.2370   31.7150   46.1640 H   0  0  0  0  0  0  0  0  0  0  0  0
   59.8821   34.4337   49.6751 H   0  0  0  0  0  0  0  0  0  0  0  0
   62.2389   34.1788   50.4554 H   0  0  0  0  0  0  0  0  0  0  0  0
   64.0537   33.6820   48.8166 H   0  0  0  0  0  0  0  0  0  0  0  0
   63.5103   33.4181   46.3941 H   0  0  0  0  0  0  0  0  0  0  0  0
   61.1560   33.6603   45.6062 H   0  0  0  0  0  0  0  0  0  0  0  0
  1  2  1  0
  2  3  1  0
  2  4  1  0
  4  5  1  0
  5  6  1  0
  6  7  1  0
  7  8  2  0
  8  9  1  0
  9 10  2  0
 10 11  1  0
 11 12  2  0
 12 13  1  0
 13 14  1  0
 14 15  2  0
 14 16  1  0
 16 17  1  0
 17 18  2  0
 18 19  1  0
 19 20  2  0
 20 21  1  0
 21 22  2  0
 12  7  1  0
 22 17  1  0
  1 23  1  0
  1 24  1  0
  1 25  1  0
  3 26  1  0
  3 27  1  0
  3 28  1  0
  4 29  1  0
  4 30  1  0
  5 31  1  0
  5 32  1  0
  8 33  1  0
  9 34  1  0
 10 35  1  0
 11 36  1  0
 13 37  1  0
 18 38  1  0
 19 39  1  0
 20 40  1  0
 21 41  1  0
 22 42  1  0
M  CHG  1  16  -1
M  END
>  <UniqueID>  (31) 
30

>  <SMILES>  (31) 
CN(C)CCOc1ccccc1NC(=O)[N-]c1ccccc1

>  <Energy>  (31) 
46.22224144382056

>  <Genealogy>  (31) 
CN(C)CCOc1ccccc1NC(=O)[N-]c1ccccc1 (protonated)
CN(C)CCOc1ccccc1NC(=O)[N-]c1ccccc1 (3D coordinates assigned)
CN(C)CCOc1ccccc1NC(=O)[N-]c1ccccc1 (optimized conformer: 46.22224144382056 kcal/mol)

>  <smiles>  (31) 
CN(C)CCOc1ccccc1NC(=O)Nc1ccccc1

>  <score_type>  (31) 
oracle

>  <origin>  (31) 
adg

>  <m_score__min__energy>  (31) 
-8.7799999999999994

>  <m_primary>  (31) 
energy

$$$$
31:0
     RDKit          3D

 33 34  0  0  0  0  0  0  0  0999 V2000
   63.8770   32.4640   48.4220 N   0  0  0  0  0  0  0  0  0  0  0  0
   62.6310   33.4160   47.6980 S   0  0  0  0  0  0  0  0  0  0  0  0
   63.2060   34.2200   46.5640 O   0  0  0  0  0  0  0  0  0  0  0  0
   62.0670   34.3620   48.7200 O   0  0  0  0  0  0  0  0  0  0  0  0
   61.3600   32.3580   47.0940 C   0  0  0  0  0  0  0  0  0  0  0  0
   61.5270   30.9680   47.1160 C   0  0  0  0  0  0  0  0  0  0  0  0
   60.5210   30.1300   46.6270 C   0  0  0  0  0  0  0  0  0  0  0  0
   59.3430   30.6710   46.0900 C   0  0  0  0  0  0  0  0  0  0  0  0
   58.3150   29.7860   45.6160 N   0  0  0  0  0  0  0  0  0  0  0  0
   57.8250   28.6520   46.3540 C   0  0  0  0  0  0  0  0  0  0  0  0
   58.3010   28.3720   47.4860 O   0  0  0  0  0  0  0  0  0  0  0  0
   56.8030   27.8080   45.8120 N   0  0  0  0  0  0  0  0  0  0  0  0
   56.7980   26.3740   45.8470 C   0  0  0  0  0  0  0  0  0  0  0  0
   58.0220   25.7010   45.8890 C   0  0  0  0  0  0  0  0  0  0  0  0
   58.0600   24.3090   45.9410 C   0  0  0  0  0  0  0  0  0  0  0  0
   56.8740   23.5760   45.9650 C   0  0  0  0  0  0  0  0  0  0  0  0
   55.6260   24.2250   45.9540 C   0  0  0  0  0  0  0  0  0  0  0  0
   54.4160   23.4400   45.9950 N   0  0  0  0  0  0  0  0  0  0  0  0
   53.8360   23.0910   44.9450 O   0  0  0  0  0  0  0  0  0  0  0  0
   53.9000   23.0200   47.1990 O   0  0  0  0  0  0  0  0  0  0  0  0
   55.5940   25.6400   45.9180 C   0  0  0  0  0  0  0  0  0  0  0  0
   54.3820   26.3190   45.9870 O   0  0  0  0  0  0  0  0  0  0  0  0
   59.1710   32.0670   46.0850 C   0  0  0  0  0  0  0  0  0  0  0  0
   60.1780   32.9040   46.5760 C   0  0  0  0  0  0  0  0  0  0  0  0
   64.5420   32.2020   47.6610 H   0  0  0  0  0  0  0  0  0  0  0  0
   62.4536   30.5338   47.5197 H   0  0  0  0  0  0  0  0  0  0  0  0
   60.6537   29.0386   46.6634 H   0  0  0  0  0  0  0  0  0  0  0  0
   57.8460   30.0360   44.7170 H   0  0  0  0  0  0  0  0  0  0  0  0
   58.9612   26.2736   45.8810 H   0  0  0  0  0  0  0  0  0  0  0  0
   59.0280   23.7871   45.9632 H   0  0  0  0  0  0  0  0  0  0  0  0
   56.9148   22.4771   45.9929 H   0  0  0  0  0  0  0  0  0  0  0  0
   58.2400   32.5024   45.6930 H   0  0  0  0  0  0  0  0  0  0  0  0
   60.0417   33.9953   46.5555 H   0  0  0  0  0  0  0  0  0  0  0  0
  1  2  1  0
  2  3  2  0
  2  4  2  0
  2  5  1  0
  5  6  2  0
  6  7  1  0
  7  8  2  0
  8  9  1  0
  9 10  1  0
 10 11  2  0
 10 12  1  0
 12 13  1  0
 13 14  2  0
 14 15  1  0
 15 16  2  0
 16 17  1  0
 17 18  1  0
 18 19  2  0
 18 20  1  0
 17 21  2  0
 21 22  1  0
  8 23  1  0
 23 24  2  0
 24  5  1  0
 21 13  1  0
  1 25  1  0
  6 26  1  0
  7 27  1  0
  9 28  1  0
 14 29  1  0
 15 30  1  0
 16 31  1  0
 23 32  1  0
 24 33  1  0
M  CHG  5   1  -1  12  -1  18   1  20  -1  22  -1
M  END
>  <UniqueID>  (32) 
31

>  <SMILES>  (32) 
[NH-]S(=O)(=O)c1ccc(NC(=O)[N-]c2cccc([N+](=O)[O-])c2[O-])cc1

>  <Energy>  (32) 
46.326067125250276

>  <Genealogy>  (32) 
[NH-]S(=O)(=O)c1ccc(NC(=O)[N-]c2cccc([N+](=O)[O-])c2[O-])cc1 (protonated)
[NH-]S(=O)(=O)c1ccc(NC(=O)[N-]c2cccc([N+](=O)[O-])c2[O-])cc1 (3D coordinates assigned)
[NH-]S(=O)(=O)c1ccc(NC(=O)[N-]c2cccc([N+](=O)[O-])c2[O-])cc1 (optimized conformer: 46.326067125250276 kcal/mol)

>  <smiles>  (32) 
NS(=O)(=O)c1ccc(NC(=O)Nc2cccc([N+](=O)[O-])c2O)cc1

>  <score_type>  (32) 
oracle

>  <origin>  (32) 
adg

>  <m_score__min__energy>  (32) 
-13.050000000000001

>  <m_primary>  (32) 
energy

$$$$
32:0
     RDKit          3D

 32 33  0  0  0  0  0  0  0  0999 V2000
   58.1410   32.8060   43.8440 C   0  0  0  0  0  0  0  0  0  0  0  0
   57.7840   31.9230   42.6490 C   0  0  0  0  0  0  0  0  0  0  0  0
   56.9670   30.6760   43.0330 C   0  0  0  0  0  0  0  0  0  0  0  0
   56.8840   30.4290   44.5520 C   0  0  0  0  0  0  0  0  0  0  0  0
   57.2330   29.0100   44.9450 C   0  0  0  0  0  0  0  0  0  0  0  0
   56.2090   28.1720   45.2710 N   0  0  0  0  0  0  0  0  0  0  0  0
   56.4060   26.8820   45.6390 C   0  0  0  0  0  0  0  0  0  0  0  0
   55.3450   26.1010   45.9690 N   0  0  0  0  0  0  0  0  0  0  0  0
   55.5200   24.8090   46.3490 C   0  0  0  0  0  0  0  0  0  0  0  0
   54.5230   24.1030   46.6510 O   0  0  0  0  0  0  0  0  0  0  0  0
   56.7690   24.2780   46.4070 N   0  0  0  0  0  0  0  0  0  0  0  0
   57.8640   25.0170   46.0870 C   0  0  0  0  0  0  0  0  0  0  0  0
   59.0070   24.4900   46.1510 O   0  0  0  0  0  0  0  0  0  0  0  0
   57.7060   26.3550   45.6890 C   0  0  0  0  0  0  0  0  0  0  0  0
   58.7830   27.1780   45.3350 C   0  0  0  0  0  0  0  0  0  0  0  0
   58.5630   28.5070   44.9330 C   0  0  0  0  0  0  0  0  0  0  0  0
   59.7640   29.3450   44.5460 C   0  0  0  0  0  0  0  0  0  0  0  0
   61.0070   28.5890   44.6880 N   0  0  0  0  0  0  0  0  0  0  0  0
   57.9227   32.2660   44.7771 H   0  0  0  0  0  0  0  0  0  0  0  0
   59.2113   33.0572   43.8075 H   0  0  0  0  0  0  0  0  0  0  0  0
   57.5460   33.7305   43.8075 H   0  0  0  0  0  0  0  0  0  0  0  0
   57.1949   32.5204   41.9376 H   0  0  0  0  0  0  0  0  0  0  0  0
   58.7297   31.5699   42.2120 H   0  0  0  0  0  0  0  0  0  0  0  0
   55.9449   30.7984   42.6454 H   0  0  0  0  0  0  0  0  0  0  0  0
   57.4827   29.8084   42.5955 H   0  0  0  0  0  0  0  0  0  0  0  0
   57.5823   31.1132   45.0562 H   0  0  0  0  0  0  0  0  0  0  0  0
   55.8415   30.6053   44.8554 H   0  0  0  0  0  0  0  0  0  0  0  0
   59.8083   26.7814   45.3719 H   0  0  0  0  0  0  0  0  0  0  0  0
   59.6561   29.6637   43.4987 H   0  0  0  0  0  0  0  0  0  0  0  0
   59.8094   30.2167   45.2154 H   0  0  0  0  0  0  0  0  0  0  0  0
   61.4400   28.4580   43.7450 H   0  0  0  0  0  0  0  0  0  0  0  0
   61.6760   29.1490   45.2650 H   0  0  0  0  0  0  0  0  0  0  0  0
  1  2  1  0
  2  3  1  0
  3  4  1  0
  4  5  1  0
  5  6  2  0
  6  7  1  0
  7  8  1  0
  8  9  1  0
  9 10  2  0
  9 11  1  0
 11 12  1  0
 12 13  2  0
 12 14  1  0
 14 15  1  0
 15 16  2  0
 16 17  1  0
 17 18  1  0
 16  5  1  0
 14  7  2  0
  1 19  1  0
  1 20  1  0
  1 21  1  0
  2 22  1  0
  2 23  1  0
  3 24  1  0
  3 25  1  0
  4 26  1  0
  4 27  1  0
 15 28  1  0
 17 29  1  0
 17 30  1  0
 18 31  1  0
 18 32  1  0
M  CHG  2   8  -1  11  -1
M  END
>  <UniqueID>  (33) 
32

>  <SMILES>  (33) 
CCCCc1nc2[n-]c(=O)[n-]c(=O)c2cc1CN

>  <Energy>  (33) 
33.69643935333312

>  <Genealogy>  (33) 
CCCCc1nc2[n-]c(=O)[n-]c(=O)c2cc1CN (protonated)
CCCCc1nc2[n-]c(=O)[n-]c(=O)c2cc1CN (3D coordinates assigned)
CCCCc1nc2[n-]c(=O)[n-]c(=O)c2cc1CN (optimized conformer: 33.69643935333312 kcal/mol)

>  <smiles>  (33) 
CCCCc1nc2[nH]c(=O)[nH]c(=O)c2cc1CN

>  <score_type>  (33) 
oracle

>  <origin>  (33) 
adg

>  <m_score__min__energy>  (33) 
-9.8200000000000003

>  <m_primary>  (33) 
energy

$$$$
33:0
     RDKit          3D

 44 46  0  0  0  0  0  0  0  0999 V2000
   58.1350   20.6000   45.8040 N   0  0  0  0  0  0  0  0  0  0  0  0
   59.0980   21.8280   45.0590 S   0  0  0  0  0  0  0  0  0  0  0  0
   59.1630   21.5910   43.5760 O   0  0  0  0  0  0  0  0  0  0  0  0
   60.4920   21.7760   45.6180 O   0  0  0  0  0  0  0  0  0  0  0  0
   58.3800   23.4040   45.3770 C   0  0  0  0  0  0  0  0  0  0  0  0
   59.1950   24.5110   45.6400 C   0  0  0  0  0  0  0  0  0  0  0  0
   58.6240   25.7540   45.9100 C   0  0  0  0  0  0  0  0  0  0  0  0
   57.2310   25.9090   45.9340 C   0  0  0  0  0  0  0  0  0  0  0  0
   56.6900   27.1930   46.2840 N   0  0  0  0  0  0  0  0  0  0  0  0
   56.9450   28.3990   45.5390 C   0  0  0  0  0  0  0  0  0  0  0  0
   55.9230   29.0580   44.8310 C   0  0  0  0  0  0  0  0  0  0  0  0
   56.1980   30.2320   44.1230 C   0  0  0  0  0  0  0  0  0  0  0  0
   57.4920   30.7790   44.1230 C   0  0  0  0  0  0  0  0  0  0  0  0
   57.7740   32.0210   43.3660 C   0  0  0  0  0  0  0  0  0  0  0  0
   58.1370   31.9420   42.1630 O   0  0  0  0  0  0  0  0  0  0  0  0
   57.6970   33.3180   43.9760 N   0  0  0  0  0  0  0  0  0  0  0  0
   58.2860   33.7020   45.2270 C   0  0  0  0  0  0  0  0  0  0  0  0
   57.9040   33.1000   46.4400 C   0  0  0  0  0  0  0  0  0  0  0  0
   58.4880   33.5100   47.6430 C   0  0  0  0  0  0  0  0  0  0  0  0
   59.4420   34.5300   47.6450 C   0  0  0  0  0  0  0  0  0  0  0  0
   59.8080   35.1480   46.4460 C   0  0  0  0  0  0  0  0  0  0  0  0
   59.2270   34.7400   45.2420 C   0  0  0  0  0  0  0  0  0  0  0  0
   58.5110   30.1160   44.8280 C   0  0  0  0  0  0  0  0  0  0  0  0
   58.2360   28.9440   45.5360 C   0  0  0  0  0  0  0  0  0  0  0  0
   56.3980   24.8030   45.6320 C   0  0  0  0  0  0  0  0  0  0  0  0
   54.9680   24.9370   45.5480 N   0  0  0  0  0  0  0  0  0  0  0  0
   54.3970   25.9600   45.9810 O   0  0  0  0  0  0  0  0  0  0  0  0
   54.2270   24.0120   44.8480 O   0  0  0  0  0  0  0  0  0  0  0  0
   56.9880   23.5530   45.3780 C   0  0  0  0  0  0  0  0  0  0  0  0
   57.7470   20.0080   45.0350 H   0  0  0  0  0  0  0  0  0  0  0  0
   58.7850   19.9930   46.3520 H   0  0  0  0  0  0  0  0  0  0  0  0
   60.2894   24.4000   45.6337 H   0  0  0  0  0  0  0  0  0  0  0  0
   59.2724   26.6207   46.1059 H   0  0  0  0  0  0  0  0  0  0  0  0
   55.9720   27.2220   47.0430 H   0  0  0  0  0  0  0  0  0  0  0  0
   54.9025   28.6475   44.8345 H   0  0  0  0  0  0  0  0  0  0  0  0
   55.3946   30.7313   43.5615 H   0  0  0  0  0  0  0  0  0  0  0  0
   57.1440   32.3048   46.4422 H   0  0  0  0  0  0  0  0  0  0  0  0
   58.1957   33.0288   48.5880 H   0  0  0  0  0  0  0  0  0  0  0  0
   59.9056   34.8472   48.5908 H   0  0  0  0  0  0  0  0  0  0  0  0
   60.5541   35.9563   46.4499 H   0  0  0  0  0  0  0  0  0  0  0  0
   59.5098   35.2361   44.3019 H   0  0  0  0  0  0  0  0  0  0  0  0
   59.5328   30.5232   44.8221 H   0  0  0  0  0  0  0  0  0  0  0  0
   59.0400   28.4443   46.0963 H   0  0  0  0  0  0  0  0  0  0  0  0
   56.3482   22.6810   45.1775 H   0  0  0  0  0  0  0  0  0  0  0  0
  1  2  1  0
  2  3  2  0
  2  4  2  0
  2  5  1  0
  5  6  2  0
  6  7  1  0
  7  8  2  0
  8  9  1  0
  9 10  1  0
 10 11  2  0
 11 12  1  0
 12 13  2  0
 13 14  1  0
 14 15  2  0
 14 16  1  0
 16 17  1  0
 17 18  2  0
 18 19  1  0
 19 20  2  0
 20 21  1  0
 21 22  2  0
 13 23  1  0
 23 24  2  0
  8 25  1  0
 25 26  1  0
 26 27  2  0
 26 28  1  0
 25 29  2  0
 29  5  1  0
 24 10  1  0
 22 17  1  0
  1 30  1  0
  1 31  1  0
  6 32  1  0
  7 33  1  0
  9 34  1  0
 11 35  1  0
 12 36  1  0
 18 37  1  0
 19 38  1  0
 20 39  1  0
 21 40  1  0
 22 41  1  0
 23 42  1  0
 24 43  1  0
 29 44  1  0
M  CHG  3  16  -1  26   1  28  -1
M  END
>  <UniqueID>  (34) 
33

>  <SMILES>  (34) 
NS(=O)(=O)c1ccc(Nc2ccc(C(=O)[N-]c3ccccc3)cc2)c([N+](=O)[O-])c1

>  <Energy>  (34) 
62.833048013788584

>  <Genealogy>  (34) 
NS(=O)(=O)c1ccc(Nc2ccc(C(=O)[N-]c3ccccc3)cc2)c([N+](=O)[O-])c1 (protonated)
NS(=O)(=O)c1ccc(Nc2ccc(C(=O)[N-]c3ccccc3)cc2)c([N+](=O)[O-])c1 (3D coordinates assigned)
NS(=O)(=O)c1ccc(Nc2ccc(C(=O)[N-]c3ccccc3)cc2)c([N+](=O)[O-])c1 (optimized conformer: 62.833048013788584 kcal/mol)

>  <smiles>  (34) 
NS(=O)(=O)c1ccc(Nc2ccc(C(=O)Nc3ccccc3)cc2)c([N+](=O)[O-])c1

>  <score_type>  (34) 
oracle

>  <origin>  (34) 
adg

>  <m_score__min__energy>  (34) 
-10.9

>  <m_primary>  (34) 
energy

$$$$
34:0
     RDKit          3D

 32 33  0  0  0  0  0  0  0  0999 V2000
   55.5310   29.7250   45.9970 H   0  0  0  0  0  0  0  0  0  0  0  0
   55.7800   29.2680   45.1290 O   0  0  0  0  0  0  0  0  0  0  0  0
   56.8820   29.6290   44.3750 N   0  0  0  0  0  0  0  0  0  0  0  0
   57.8940   28.6210   44.1850 C   0  0  0  0  0  0  0  0  0  0  0  0
   59.2790   28.5890   45.2660 Cl  0  0  0  0  0  0  0  0  0  0  0  0
   57.7780   27.6530   43.2700 C   0  0  0  0  0  0  0  0  0  0  0  0
   56.9212   27.6480   42.5802 H   0  0  0  0  0  0  0  0  0  0  0  0
   58.5394   26.8616   43.2070 H   0  0  0  0  0  0  0  0  0  0  0  0
   57.0090   30.8310   43.8640 C   0  0  0  0  0  0  0  0  0  0  0  0
   56.6265   31.0060   42.8476 H   0  0  0  0  0  0  0  0  0  0  0  0
   57.6360   31.9610   44.5760 C   0  0  0  0  0  0  0  0  0  0  0  0
   58.1760   33.0250   43.8390 C   0  0  0  0  0  0  0  0  0  0  0  0
   58.0957   33.0279   42.7419 H   0  0  0  0  0  0  0  0  0  0  0  0
   58.8160   34.0820   44.4930 C   0  0  0  0  0  0  0  0  0  0  0  0
   59.2248   34.9206   43.9102 H   0  0  0  0  0  0  0  0  0  0  0  0
   58.9380   34.0760   45.8870 C   0  0  0  0  0  0  0  0  0  0  0  0
   59.7500   35.4370   46.7250 S   0  0  0  0  0  0  0  0  0  0  0  0
   61.0090   34.3730   47.4290 C   0  0  0  0  0  0  0  0  0  0  0  0
   62.0050   33.8270   46.6100 C   0  0  0  0  0  0  0  0  0  0  0  0
   62.0177   34.0546   45.5339 H   0  0  0  0  0  0  0  0  0  0  0  0
   62.9830   32.9930   47.1590 C   0  0  0  0  0  0  0  0  0  0  0  0
   63.7632   32.5622   46.5143 H   0  0  0  0  0  0  0  0  0  0  0  0
   62.9700   32.7060   48.5280 C   0  0  0  0  0  0  0  0  0  0  0  0
   63.7398   32.0492   48.9592 H   0  0  0  0  0  0  0  0  0  0  0  0
   61.9800   33.2530   49.3480 C   0  0  0  0  0  0  0  0  0  0  0  0
   61.9711   33.0269   50.4245 H   0  0  0  0  0  0  0  0  0  0  0  0
   61.0000   34.0880   48.8010 C   0  0  0  0  0  0  0  0  0  0  0  0
   60.2225   34.5208   49.4477 H   0  0  0  0  0  0  0  0  0  0  0  0
   58.4330   32.9990   46.6250 C   0  0  0  0  0  0  0  0  0  0  0  0
   58.5400   32.9852   47.7197 H   0  0  0  0  0  0  0  0  0  0  0  0
   57.7930   31.9410   45.9730 C   0  0  0  0  0  0  0  0  0  0  0  0
   57.4108   31.0896   46.5552 H   0  0  0  0  0  0  0  0  0  0  0  0
  1  2  1  0
  2  3  1  0
  3  4  1  0
  4  5  1  0
  4  6  2  0
  6  7  1  0
  6  8  1  0
  3  9  2  0
  9 10  1  0
  9 11  1  0
 11 12  2  0
 12 13  1  0
 12 14  1  0
 14 15  1  0
 14 16  2  0
 16 17  1  0
 17 18  1  0
 18 19  2  0
 19 20  1  0
 19 21  1  0
 21 22  1  0
 21 23  2  0
 23 24  1  0
 23 25  1  0
 25 26  1  0
 25 27  2  0
 27 28  1  0
 16 29  1  0
 29 30  1  0
 29 31  2  0
 31 32  1  0
 31 11  1  0
 27 18  1  0
M  CHG  1   3   1
M  END
>  <UniqueID>  (35) 
34

>  <SMILES>  (35) 
C=C(Cl)/[N+](O)=C/c1ccc(Sc2ccccc2)cc1

>  <Energy>  (35) 
38.68093166637024

>  <Genealogy>  (35) 
C=C(Cl)[N+](O)=Cc1ccc(Sc2ccccc2)cc1 (protonated)
C=C(Cl)/[N+](O)=C/c1ccc(Sc2ccccc2)cc1 (cis-trans isomerization)
C=C(Cl)/[N+](O)=C/c1ccc(Sc2ccccc2)cc1 (3D coordinates assigned)
C=C(Cl)/[N+](O)=C/c1ccc(Sc2ccccc2)cc1 (optimized conformer: 38.68093166637024 kcal/mol)

>  <smiles>  (35) 
C=C(Cl)[N+]([O-])=Cc1ccc(Sc2ccccc2)cc1

>  <score_type>  (35) 
oracle

>  <origin>  (35) 
adg

>  <m_score__min__energy>  (35) 
-7.0999999999999996

>  <m_primary>  (35) 
energy

$$$$
35:0
     RDKit          3D

 51 53  0  0  0  0  0  0  0  0999 V2000
   59.0789   24.2004   47.0891 H   0  0  0  0  0  0  0  0  0  0  0  0
   58.5990   24.4600   46.1340 C   0  0  0  0  0  0  0  0  0  0  0  0
   58.4920   25.8000   45.7480 C   0  0  0  0  0  0  0  0  0  0  0  0
   58.8868   26.5921   46.4012 H   0  0  0  0  0  0  0  0  0  0  0  0
   57.8820   26.1370   44.5290 C   0  0  0  0  0  0  0  0  0  0  0  0
   57.7550   27.5810   44.1240 C   0  0  0  0  0  0  0  0  0  0  0  0
   57.3545   27.6363   43.1010 H   0  0  0  0  0  0  0  0  0  0  0  0
   58.7482   28.0517   44.1680 H   0  0  0  0  0  0  0  0  0  0  0  0
   56.8570   28.2880   45.0300 N   0  0  0  0  0  0  0  0  0  0  0  0
   56.4900   29.6650   44.8720 C   0  0  0  0  0  0  0  0  0  0  0  0
   55.3020   29.9610   44.5870 O   0  0  0  0  0  0  0  0  0  0  0  0
   57.5070   30.7090   45.1090 C   0  0  0  0  0  0  0  0  0  0  0  0
   57.1890   32.3370   44.8020 S   0  0  0  0  0  0  0  0  0  0  0  0
   58.7140   32.8510   45.2420 C   0  0  0  0  0  0  0  0  0  0  0  0
   59.0690   34.1040   45.2350 N   0  0  0  0  0  0  0  0  0  0  0  0
   59.6560   34.8630   46.3060 C   0  0  0  0  0  0  0  0  0  0  0  0
   59.7440   36.1170   46.2170 O   0  0  0  0  0  0  0  0  0  0  0  0
   60.0910   34.1650   47.5490 C   0  0  0  0  0  0  0  0  0  0  0  0
   59.2950   34.2660   48.7070 C   0  0  0  0  0  0  0  0  0  0  0  0
   58.3716   34.8632   48.6803 H   0  0  0  0  0  0  0  0  0  0  0  0
   59.6620   33.6190   49.8870 C   0  0  0  0  0  0  0  0  0  0  0  0
   59.0294   33.7098   50.7823 H   0  0  0  0  0  0  0  0  0  0  0  0
   60.8280   32.8580   49.9340 C   0  0  0  0  0  0  0  0  0  0  0  0
   61.2880   32.0520   51.4230 Cl  0  0  0  0  0  0  0  0  0  0  0  0
   61.6330   32.7420   48.7990 C   0  0  0  0  0  0  0  0  0  0  0  0
   62.5517   32.1385   48.8424 H   0  0  0  0  0  0  0  0  0  0  0  0
   61.2800   33.3910   47.5970 C   0  0  0  0  0  0  0  0  0  0  0  0
   62.0880   33.2870   46.4520 O   0  0  0  0  0  0  0  0  0  0  0  0
   63.3930   33.8430   46.3240 C   0  0  0  0  0  0  0  0  0  0  0  0
   63.8147   34.0227   47.3239 H   0  0  0  0  0  0  0  0  0  0  0  0
   64.0381   33.1416   45.7746 H   0  0  0  0  0  0  0  0  0  0  0  0
   63.3341   34.7941   45.7746 H   0  0  0  0  0  0  0  0  0  0  0  0
   59.4840   31.8160   45.6500 N   0  0  0  0  0  0  0  0  0  0  0  0
   60.4530   31.9110   46.0240 H   0  0  0  0  0  0  0  0  0  0  0  0
   58.8370   30.6120   45.5920 C   0  0  0  0  0  0  0  0  0  0  0  0
   59.5530   29.3610   46.0790 C   0  0  0  0  0  0  0  0  0  0  0  0
   58.8218   28.5444   45.9874 H   0  0  0  0  0  0  0  0  0  0  0  0
   59.9230   29.4340   47.5640 C   0  0  0  0  0  0  0  0  0  0  0  0
   59.0254   29.2569   48.1747 H   0  0  0  0  0  0  0  0  0  0  0  0
   60.6785   28.6676   47.7917 H   0  0  0  0  0  0  0  0  0  0  0  0
   60.3308   30.4299   47.7917 H   0  0  0  0  0  0  0  0  0  0  0  0
   60.7310   28.9500   45.1870 C   0  0  0  0  0  0  0  0  0  0  0  0
   61.5821   28.6530   45.8174 H   0  0  0  0  0  0  0  0  0  0  0  0
   60.4320   28.1031   44.5519 H   0  0  0  0  0  0  0  0  0  0  0  0
   61.0237   29.7991   44.5519 H   0  0  0  0  0  0  0  0  0  0  0  0
   57.3760   25.1180   43.7060 C   0  0  0  0  0  0  0  0  0  0  0  0
   56.8921   25.3738   42.7518 H   0  0  0  0  0  0  0  0  0  0  0  0
   57.4850   23.7790   44.0950 C   0  0  0  0  0  0  0  0  0  0  0  0
   56.9950   22.8000   43.2920 F   0  0  0  0  0  0  0  0  0  0  0  0
   58.0970   23.4500   45.3080 C   0  0  0  0  0  0  0  0  0  0  0  0
   58.2050   22.1520   45.6860 F   0  0  0  0  0  0  0  0  0  0  0  0
  1  2  1  0
  2  3  2  0
  3  4  1  0
  3  5  1  0
  5  6  1  0
  6  7  1  0
  6  8  1  0
  6  9  1  0
  9 10  1  0
 10 11  2  0
 10 12  1  0
 12 13  1  0
 13 14  1  0
 14 15  2  0
 15 16  1  0
 16 17  2  0
 16 18  1  0
 18 19  2  0
 19 20  1  0
 19 21  1  0
 21 22  1  0
 21 23  2  0
 23 24  1  0
 23 25  1  0
 25 26  1  0
 25 27  2  0
 27 28  1  0
 28 29  1  0
 29 30  1  0
 29 31  1  0
 29 32  1  0
 14 33  1  0
 33 34  1  0
 33 35  1  0
 35 36  1  0
 36 37  1  0
 36 38  1  0
 38 39  1  0
 38 40  1  0
 38 41  1  0
 36 42  1  0
 42 43  1  0
 42 44  1  0
 42 45  1  0
  5 46  2  0
 46 47  1  0
 46 48  1  0
 48 49  1  0
 48 50  2  0
 50 51  1  0
 50  2  1  0
 35 12  2  0
 27 18  1  0
M  CHG  1   9  -1
M  END
>  <UniqueID>  (36) 
35

>  <SMILES>  (36) 
COc1cc(Cl)ccc1C(=O)/N=c1\[nH]c(C(C)C)c(C(=O)[N-]Cc2ccc(F)c(F)c2)s1

>  <Energy>  (36) 
90.46615495850783

>  <Genealogy>  (36) 
COc1cc(Cl)ccc1C(=O)N=c1[nH]c(C(C)C)c(C(=O)[N-]Cc2ccc(F)c(F)c2)s1 (protonated)
COc1cc(Cl)ccc1C(=O)/N=c1\[nH]c(C(C)C)c(C(=O)[N-]Cc2ccc(F)c(F)c2)s1 (cis-trans isomerization)
COc1cc(Cl)ccc1C(=O)/N=c1\[nH]c(C(C)C)c(C(=O)[N-]Cc2ccc(F)c(F)c2)s1 (3D coordinates assigned)
COc1cc(Cl)ccc1C(=O)/N=c1\[nH]c(C(C)C)c(C(=O)[N-]Cc2ccc(F)c(F)c2)s1 (optimized conformer: 90.46615495850783 kcal/mol)

>  <smiles>  (36) 
COc1cc(Cl)ccc1C(=O)N=c1[nH]c(C(C)C)c(C(=O)NCc2ccc(F)c(F)c2)s1

>  <score_type>  (36) 
oracle

>  <origin>  (36) 
adg

>  <m_score__min__energy>  (36) 
-9.7100000000000009

>  <m_primary>  (36) 
energy

$$$$
36:0
     RDKit          3D

 27 28  0  0  0  0  0  0  0  0999 V2000
   55.1100   29.3400   44.8760 N   0  0  0  0  0  0  0  0  0  0  0  0
   56.7250   29.6570   44.3480 S   0  0  0  0  0  0  0  0  0  0  0  0
   57.1520   31.0180   44.8210 O   0  0  0  0  0  0  0  0  0  0  0  0
   56.7730   29.6310   42.8470 O   0  0  0  0  0  0  0  0  0  0  0  0
   57.8090   28.4330   45.0040 C   0  0  0  0  0  0  0  0  0  0  0  0
   59.1970   28.5970   44.9110 C   0  0  0  0  0  0  0  0  0  0  0  0
   60.0550   27.6240   45.4310 C   0  0  0  0  0  0  0  0  0  0  0  0
   59.5310   26.4790   46.0390 C   0  0  0  0  0  0  0  0  0  0  0  0
   58.1410   26.2930   46.1220 C   0  0  0  0  0  0  0  0  0  0  0  0
   57.6000   25.1260   46.7730 N   0  0  0  0  0  0  0  0  0  0  0  0
   56.5640   24.5590   45.9530 C   0  0  0  0  0  0  0  0  0  0  0  0
   56.8710   23.6240   44.9540 C   0  0  0  0  0  0  0  0  0  0  0  0
   55.8340   23.1290   44.1620 C   0  0  0  0  0  0  0  0  0  0  0  0
   56.0740   22.2850   43.2580 O   0  0  0  0  0  0  0  0  0  0  0  0
   54.5620   23.5620   44.3620 N   0  0  0  0  0  0  0  0  0  0  0  0
   54.2800   24.4750   45.3270 C   0  0  0  0  0  0  0  0  0  0  0  0
   53.0960   24.8660   45.4960 O   0  0  0  0  0  0  0  0  0  0  0  0
   55.2750   24.9690   46.1090 N   0  0  0  0  0  0  0  0  0  0  0  0
   57.2840   27.2810   45.6050 C   0  0  0  0  0  0  0  0  0  0  0  0
   55.1700   28.6020   45.6130 H   0  0  0  0  0  0  0  0  0  0  0  0
   59.6126   29.4935   44.4277 H   0  0  0  0  0  0  0  0  0  0  0  0
   61.1445   27.7592   45.3619 H   0  0  0  0  0  0  0  0  0  0  0  0
   60.2105   25.7202   46.4543 H   0  0  0  0  0  0  0  0  0  0  0  0
   58.3540   24.4200   46.9450 H   0  0  0  0  0  0  0  0  0  0  0  0
   57.2020   25.3890   47.7050 H   0  0  0  0  0  0  0  0  0  0  0  0
   57.9067   23.2880   44.7980 H   0  0  0  0  0  0  0  0  0  0  0  0
   56.1941   27.1486   45.6728 H   0  0  0  0  0  0  0  0  0  0  0  0
  1  2  1  0
  2  3  2  0
  2  4  2  0
  2  5  1  0
  5  6  2  0
  6  7  1  0
  7  8  2  0
  8  9  1  0
  9 10  1  0
 10 11  1  0
 11 12  2  0
 12 13  1  0
 13 14  2  0
 13 15  1  0
 15 16  1  0
 16 17  2  0
 16 18  1  0
  9 19  2  0
 19  5  1  0
 18 11  1  0
  1 20  1  0
  6 21  1  0
  7 22  1  0
  8 23  1  0
 10 24  1  0
 10 25  1  0
 12 26  1  0
 19 27  1  0
M  CHG  4   1  -1  10   1  15  -1  18  -1
M  END
>  <UniqueID>  (37) 
36

>  <SMILES>  (37) 
[NH-]S(=O)(=O)c1cccc([NH2+]c2cc(=O)[n-]c(=O)[n-]2)c1

>  <Energy>  (37) 
29.99390203981672

>  <Genealogy>  (37) 
[NH-]S(=O)(=O)c1cccc([NH2+]c2cc(=O)[n-]c(=O)[n-]2)c1 (protonated)
[NH-]S(=O)(=O)c1cccc([NH2+]c2cc(=O)[n-]c(=O)[n-]2)c1 (3D coordinates assigned)
[NH-]S(=O)(=O)c1cccc([NH2+]c2cc(=O)[n-]c(=O)[n-]2)c1 (optimized conformer: 29.99390203981672 kcal/mol)

>  <smiles>  (37) 
NS(=O)(=O)c1cccc(Nc2cc(=O)[nH]c(=O)[nH]2)c1

>  <score_type>  (37) 
oracle

>  <origin>  (37) 
adg

>  <m_score__min__energy>  (37) 
-11.609999999999999

>  <m_primary>  (37) 
energy

$$$$
37:0
     RDKit          3D

 53 54  0  0  0  0  0  0  0  0999 V2000
   58.5180   32.3020   48.5720 C   0  0  0  0  0  0  0  0  0  0  0  0
   58.0220   32.9860   47.2990 C   0  0  0  0  0  0  0  0  0  0  0  0
   59.1420   33.5430   46.5090 N   0  0  0  0  0  0  0  0  0  0  0  0
   58.8260   33.8960   45.0990 C   0  0  0  0  0  0  0  0  0  0  0  0
   57.5370   33.2760   44.5150 C   0  0  0  0  0  0  0  0  0  0  0  0
   57.7820   32.2840   43.3710 C   0  0  0  0  0  0  0  0  0  0  0  0
   58.0650   30.9480   43.8930 N   0  0  0  0  0  0  0  0  0  0  0  0
   57.1430   29.8660   43.7120 C   0  0  0  0  0  0  0  0  0  0  0  0
   55.9690   30.0910   43.3110 O   0  0  0  0  0  0  0  0  0  0  0  0
   57.5870   28.4530   43.9420 C   0  0  0  0  0  0  0  0  0  0  0  0
   57.0080   27.8520   45.5670 S   0  0  0  0  0  0  0  0  0  0  0  0
   58.4580   28.4120   46.4610 C   0  0  0  0  0  0  0  0  0  0  0  0
   59.1920   29.4820   46.0920 N   0  0  0  0  0  0  0  0  0  0  0  0
   60.2100   29.7170   46.9620 C   0  0  0  0  0  0  0  0  0  0  0  0
   61.1820   30.8320   46.7500 C   0  0  0  0  0  0  0  0  0  0  0  0
   60.3070   28.8140   48.0180 C   0  0  0  0  0  0  0  0  0  0  0  0
   59.0540   27.7010   47.8610 S   0  0  0  0  0  0  0  0  0  0  0  0
   59.8840   34.5920   47.2410 C   0  0  0  0  0  0  0  0  0  0  0  0
   61.2720   34.0970   47.5560 C   0  0  0  0  0  0  0  0  0  0  0  0
   62.1520   33.8310   46.4940 C   0  0  0  0  0  0  0  0  0  0  0  0
   63.4380   33.3500   46.7400 C   0  0  0  0  0  0  0  0  0  0  0  0
   63.8590   33.1240   48.0500 C   0  0  0  0  0  0  0  0  0  0  0  0
   62.9960   33.3790   49.1180 C   0  0  0  0  0  0  0  0  0  0  0  0
   61.6940   33.8650   48.8850 C   0  0  0  0  0  0  0  0  0  0  0  0
   60.8060   34.1280   49.9420 O   0  0  0  0  0  0  0  0  0  0  0  0
   60.7070   33.3490   51.1300 C   0  0  0  0  0  0  0  0  0  0  0  0
   58.1298   32.8374   49.4510 H   0  0  0  0  0  0  0  0  0  0  0  0
   58.1636   31.2608   48.5907 H   0  0  0  0  0  0  0  0  0  0  0  0
   59.6178   32.3153   48.5907 H   0  0  0  0  0  0  0  0  0  0  0  0
   57.4832   32.2496   46.6847 H   0  0  0  0  0  0  0  0  0  0  0  0
   57.3596   33.8149   47.5892 H   0  0  0  0  0  0  0  0  0  0  0  0
   58.7290   34.9901   45.0402 H   0  0  0  0  0  0  0  0  0  0  0  0
   59.6503   33.4826   44.4993 H   0  0  0  0  0  0  0  0  0  0  0  0
   57.0107   32.7477   45.3236 H   0  0  0  0  0  0  0  0  0  0  0  0
   56.9481   34.1050   44.0955 H   0  0  0  0  0  0  0  0  0  0  0  0
   56.8863   32.2399   42.7341 H   0  0  0  0  0  0  0  0  0  0  0  0
   58.6502   32.6257   42.7883 H   0  0  0  0  0  0  0  0  0  0  0  0
   58.9900   30.7480   44.3390 H   0  0  0  0  0  0  0  0  0  0  0  0
   57.1728   27.8108   43.1508 H   0  0  0  0  0  0  0  0  0  0  0  0
   58.6863   28.4198   43.9233 H   0  0  0  0  0  0  0  0  0  0  0  0
   61.5172   31.2165   47.7246 H   0  0  0  0  0  0  0  0  0  0  0  0
   62.0492   30.4600   46.1847 H   0  0  0  0  0  0  0  0  0  0  0  0
   60.6952   31.6403   46.1847 H   0  0  0  0  0  0  0  0  0  0  0  0
   61.0671   28.8260   48.8130 H   0  0  0  0  0  0  0  0  0  0  0  0
   59.9496   35.4969   46.6190 H   0  0  0  0  0  0  0  0  0  0  0  0
   59.3574   34.8287   48.1773 H   0  0  0  0  0  0  0  0  0  0  0  0
   61.8239   34.0037   45.4584 H   0  0  0  0  0  0  0  0  0  0  0  0
   64.1200   33.1490   45.9007 H   0  0  0  0  0  0  0  0  0  0  0  0
   64.8731   32.7440   48.2426 H   0  0  0  0  0  0  0  0  0  0  0  0
   63.3352   33.1991   50.1488 H   0  0  0  0  0  0  0  0  0  0  0  0
   60.7906   34.0067   52.0078 H   0  0  0  0  0  0  0  0  0  0  0  0
   59.7360   32.8325   51.1499 H   0  0  0  0  0  0  0  0  0  0  0  0
   61.5180   32.6061   51.1499 H   0  0  0  0  0  0  0  0  0  0  0  0
  1  2  1  0
  2  3  1  0
  3  4  1  0
  4  5  1  0
  5  6  1  0
  6  7  1  0
  7  8  1  0
  8  9  2  0
  8 10  1  0
 10 11  1  0
 11 12  1  0
 12 13  2  0
 13 14  1  0
 14 15  1  0
 14 16  2  0
 16 17  1  0
  3 18  1  0
 18 19  1  0
 19 20  2  0
 20 21  1  0
 21 22  2  0
 22 23  1  0
 23 24  2  0
 24 25  1  0
 25 26  1  0
 17 12  1  0
 24 19  1  0
  1 27  1  0
  1 28  1  0
  1 29  1  0
  2 30  1  0
  2 31  1  0
  4 32  1  0
  4 33  1  0
  5 34  1  0
  5 35  1  0
  6 36  1  0
  6 37  1  0
  7 38  1  0
 10 39  1  0
 10 40  1  0
 15 41  1  0
 15 42  1  0
 15 43  1  0
 16 44  1  0
 18 45  1  0
 18 46  1  0
 20 47  1  0
 21 48  1  0
 22 49  1  0
 23 50  1  0
 26 51  1  0
 26 52  1  0
 26 53  1  0
M  END
>  <UniqueID>  (38) 
37

>  <SMILES>  (38) 
CCN(CCCNC(=O)CSc1nc(C)cs1)Cc1ccccc1OC

>  <Energy>  (38) 
73.77941360038228

>  <Genealogy>  (38) 
CCN(CCCNC(=O)CSc1nc(C)cs1)Cc1ccccc1OC (3D coordinates assigned)
CCN(CCCNC(=O)CSc1nc(C)cs1)Cc1ccccc1OC (optimized conformer: 73.77941360038228 kcal/mol)

>  <smiles>  (38) 
CCN(CCCNC(=O)CSc1nc(C)cs1)Cc1ccccc1OC

>  <score_type>  (38) 
oracle

>  <origin>  (38) 
adg

>  <m_score__min__energy>  (38) 
-6.9900000000000002

>  <m_primary>  (38) 
energy

$$$$
38:0
     RDKit          3D

 58 60  0  0  0  0  0  0  0  0999 V2000
   64.3900   33.4480   48.9410 C   0  0  0  0  0  0  0  0  0  0  0  0
   63.3460   32.3820   48.7880 C   0  0  0  0  0  0  0  0  0  0  0  0
   62.8000   32.1020   47.5270 C   0  0  0  0  0  0  0  0  0  0  0  0
   61.7990   31.1370   47.3900 C   0  0  0  0  0  0  0  0  0  0  0  0
   61.3110   30.4490   48.5150 C   0  0  0  0  0  0  0  0  0  0  0  0
   60.2470   29.4250   48.3590 C   0  0  0  0  0  0  0  0  0  0  0  0
   59.8750   28.7580   49.3610 O   0  0  0  0  0  0  0  0  0  0  0  0
   59.5620   29.2000   47.0730 C   0  0  0  0  0  0  0  0  0  0  0  0
   58.5890   30.0120   46.6220 N   0  0  0  0  0  0  0  0  0  0  0  0
   58.2020   29.5470   45.4190 C   0  0  0  0  0  0  0  0  0  0  0  0
   57.0980   30.1370   44.6390 C   0  0  0  0  0  0  0  0  0  0  0  0
   56.5360   29.4480   43.7470 O   0  0  0  0  0  0  0  0  0  0  0  0
   56.6520   31.4810   44.8540 N   0  0  0  0  0  0  0  0  0  0  0  0
   57.3700   32.6760   44.4290 C   0  0  0  0  0  0  0  0  0  0  0  0
   58.2370   33.1580   45.5550 C   0  0  0  0  0  0  0  0  0  0  0  0
   59.4390   33.8310   45.2800 C   0  0  0  0  0  0  0  0  0  0  0  0
   60.2320   34.3100   46.3270 C   0  0  0  0  0  0  0  0  0  0  0  0
   59.8260   34.1300   47.6520 C   0  0  0  0  0  0  0  0  0  0  0  0
   60.5970   34.5970   48.6660 F   0  0  0  0  0  0  0  0  0  0  0  0
   58.6230   33.4760   47.9330 C   0  0  0  0  0  0  0  0  0  0  0  0
   57.8270   32.9960   46.8890 C   0  0  0  0  0  0  0  0  0  0  0  0
   58.9380   28.4120   45.0880 C   0  0  0  0  0  0  0  0  0  0  0  0
   58.8400   27.6090   43.8130 C   0  0  0  0  0  0  0  0  0  0  0  0
   57.7710   26.4870   43.8420 C   0  0  0  0  0  0  0  0  0  0  0  0
   57.8230   25.5450   44.9910 N   0  0  0  0  0  0  0  0  0  0  0  0
   56.9330   25.9210   46.1020 C   0  0  0  0  0  0  0  0  0  0  0  0
   57.6170   24.1410   44.5960 C   0  0  0  0  0  0  0  0  0  0  0  0
   59.7870   28.1700   46.1620 C   0  0  0  0  0  0  0  0  0  0  0  0
   60.6280   26.9710   46.3480 C   0  0  0  0  0  0  0  0  0  0  0  0
   60.1320   25.8140   46.3220 O   0  0  0  0  0  0  0  0  0  0  0  0
   61.8580   30.7380   49.7790 C   0  0  0  0  0  0  0  0  0  0  0  0
   62.8590   31.7040   49.9150 C   0  0  0  0  0  0  0  0  0  0  0  0
   64.5712   33.6330   50.0101 H   0  0  0  0  0  0  0  0  0  0  0  0
   65.3239   33.1180   48.4626 H   0  0  0  0  0  0  0  0  0  0  0  0
   64.0406   34.3748   48.4626 H   0  0  0  0  0  0  0  0  0  0  0  0
   63.1617   32.6449   46.6413 H   0  0  0  0  0  0  0  0  0  0  0  0
   61.3893   30.9136   46.3939 H   0  0  0  0  0  0  0  0  0  0  0  0
   58.1900   30.8340   47.1290 H   0  0  0  0  0  0  0  0  0  0  0  0
   57.9976   32.4376   43.5576 H   0  0  0  0  0  0  0  0  0  0  0  0
   56.6503   33.4614   44.1548 H   0  0  0  0  0  0  0  0  0  0  0  0
   59.7572   33.9815   44.2378 H   0  0  0  0  0  0  0  0  0  0  0  0
   61.1766   34.8292   46.1076 H   0  0  0  0  0  0  0  0  0  0  0  0
   58.3025   33.3390   48.9763 H   0  0  0  0  0  0  0  0  0  0  0  0
   56.8764   32.4897   47.1126 H   0  0  0  0  0  0  0  0  0  0  0  0
   58.5936   28.2974   42.9912 H   0  0  0  0  0  0  0  0  0  0  0  0
   59.8123   27.1121   43.6801 H   0  0  0  0  0  0  0  0  0  0  0  0
   56.7822   26.9688   43.8505 H   0  0  0  0  0  0  0  0  0  0  0  0
   57.9742   25.8710   42.9536 H   0  0  0  0  0  0  0  0  0  0  0  0
   58.8010   25.5980   45.3650 H   0  0  0  0  0  0  0  0  0  0  0  0
   57.4322   25.7101   47.0592 H   0  0  0  0  0  0  0  0  0  0  0  0
   56.7004   26.9943   46.0384 H   0  0  0  0  0  0  0  0  0  0  0  0
   56.0014   25.3396   46.0384 H   0  0  0  0  0  0  0  0  0  0  0  0
   57.5253   23.5163   45.4968 H   0  0  0  0  0  0  0  0  0  0  0  0
   56.6973   24.0595   43.9981 H   0  0  0  0  0  0  0  0  0  0  0  0
   58.4745   23.7987   43.9981 H   0  0  0  0  0  0  0  0  0  0  0  0
   61.7090   27.0908   46.5125 H   0  0  0  0  0  0  0  0  0  0  0  0
   61.4950   30.1995   50.6668 H   0  0  0  0  0  0  0  0  0  0  0  0
   63.2667   31.9335   50.9105 H   0  0  0  0  0  0  0  0  0  0  0  0
  1  2  1  0
  2  3  2  0
  3  4  1  0
  4  5  2  0
  5  6  1  0
  6  7  2  0
  6  8  1  0
  8  9  1  0
  9 10  1  0
 10 11  1  0
 11 12  2  0
 11 13  1  0
 13 14  1  0
 14 15  1  0
 15 16  2  0
 16 17  1  0
 17 18  2  0
 18 19  1  0
 18 20  1  0
 20 21  2  0
 10 22  2  0
 22 23  1  0
 23 24  1  0
 24 25  1  0
 25 26  1  0
 25 27  1  0
 22 28  1  0
 28 29  1  0
 29 30  2  0
  5 31  1  0
 31 32  2  0
 32  2  1  0
 28  8  2  0
 21 15  1  0
  1 33  1  0
  1 34  1  0
  1 35  1  0
  3 36  1  0
  4 37  1  0
  9 38  1  0
 14 39  1  0
 14 40  1  0
 16 41  1  0
 17 42  1  0
 20 43  1  0
 21 44  1  0
 23 45  1  0
 23 46  1  0
 24 47  1  0
 24 48  1  0
 25 49  1  0
 26 50  1  0
 26 51  1  0
 26 52  1  0
 27 53  1  0
 27 54  1  0
 27 55  1  0
 29 56  1  0
 31 57  1  0
 32 58  1  0
M  CHG  2  13  -1  25   1
M  END
>  <UniqueID>  (39) 
38

>  <SMILES>  (39) 
Cc1ccc(C(=O)c2[nH]c(C(=O)[N-]Cc3ccc(F)cc3)c(CC[NH+](C)C)c2C=O)cc1

>  <Energy>  (39) 
96.2753240594822

>  <Genealogy>  (39) 
Cc1ccc(C(=O)c2[nH]c(C(=O)[N-]Cc3ccc(F)cc3)c(CC[NH+](C)C)c2C=O)cc1 (protonated)
Cc1ccc(C(=O)c2[nH]c(C(=O)[N-]Cc3ccc(F)cc3)c(CC[NH+](C)C)c2C=O)cc1 (3D coordinates assigned)
Cc1ccc(C(=O)c2[nH]c(C(=O)[N-]Cc3ccc(F)cc3)c(CC[NH+](C)C)c2C=O)cc1 (optimized conformer: 96.2753240594822 kcal/mol)

>  <smiles>  (39) 
Cc1ccc(C(=O)c2[nH]c(C(=O)NCc3ccc(F)cc3)c(CCN(C)C)c2C=O)cc1

>  <score_type>  (39) 
oracle

>  <origin>  (39) 
adg

>  <m_score__min__energy>  (39) 
-9.0199999999999996

>  <m_primary>  (39) 
energy

$$$$
39:0
     RDKit          3D

 72 76  0  0  0  0  0  0  0  0999 V2000
   52.1110   24.4510   52.0040 C   0  0  0  0  0  0  0  0  0  0  0  0
   52.6220   23.0400   51.7330 C   0  0  0  0  0  0  0  0  0  0  0  0
   52.5530   22.7170   50.2640 C   0  0  0  0  0  0  0  0  0  0  0  0
   51.3110   22.5960   49.6230 C   0  0  0  0  0  0  0  0  0  0  0  0
   51.2480   22.2840   48.2620 C   0  0  0  0  0  0  0  0  0  0  0  0
   52.4240   22.0950   47.5210 C   0  0  0  0  0  0  0  0  0  0  0  0
   52.3580   21.7280   46.0620 C   0  0  0  0  0  0  0  0  0  0  0  0
   52.8410   22.8160   45.2190 N   0  0  0  0  0  0  0  0  0  0  0  0
   54.2010   23.2630   45.1920 C   0  0  0  0  0  0  0  0  0  0  0  0
   55.0870   22.5760   44.6150 O   0  0  0  0  0  0  0  0  0  0  0  0
   54.5790   24.5020   45.8810 C   0  0  0  0  0  0  0  0  0  0  0  0
   53.7810   25.4770   45.8970 O   0  0  0  0  0  0  0  0  0  0  0  0
   55.8530   24.5890   46.5300 N   0  0  0  0  0  0  0  0  0  0  0  0
   56.7150   25.7370   46.5490 C   0  0  0  0  0  0  0  0  0  0  0  0
   58.0160   25.6720   47.0600 C   0  0  0  0  0  0  0  0  0  0  0  0
   58.8630   26.7780   46.9790 C   0  0  0  0  0  0  0  0  0  0  0  0
   58.4330   27.9910   46.3890 C   0  0  0  0  0  0  0  0  0  0  0  0
   57.1240   28.0410   45.8580 C   0  0  0  0  0  0  0  0  0  0  0  0
   56.2790   26.9160   45.9440 C   0  0  0  0  0  0  0  0  0  0  0  0
   56.6950   29.2170   45.2310 C   0  0  0  0  0  0  0  0  0  0  0  0
   55.5100   29.2970   44.7990 O   0  0  0  0  0  0  0  0  0  0  0  0
   57.5560   30.2680   45.0760 N   0  0  0  0  0  0  0  0  0  0  0  0
   57.0900   31.5240   44.4520 C   0  0  0  0  0  0  0  0  0  0  0  0
   57.6850   32.7100   45.1680 C   0  0  0  0  0  0  0  0  0  0  0  0
   57.5590   32.8300   46.5630 C   0  0  0  0  0  0  0  0  0  0  0  0
   58.1500   33.9060   47.2350 C   0  0  0  0  0  0  0  0  0  0  0  0
   58.8760   34.8630   46.5230 C   0  0  0  0  0  0  0  0  0  0  0  0
   59.0160   34.7450   45.1370 C   0  0  0  0  0  0  0  0  0  0  0  0
   58.4210   33.6750   44.4610 C   0  0  0  0  0  0  0  0  0  0  0  0
   58.8380   30.1860   45.5590 C   0  0  0  0  0  0  0  0  0  0  0  0
   59.6380   31.1400   45.3400 O   0  0  0  0  0  0  0  0  0  0  0  0
   59.2580   29.0940   46.2850 N   0  0  0  0  0  0  0  0  0  0  0  0
   60.6070   29.1170   46.9130 C   0  0  0  0  0  0  0  0  0  0  0  0
   60.9010   30.4260   47.6350 C   0  0  0  0  0  0  0  0  0  0  0  0
   61.9510   31.2300   47.1500 C   0  0  0  0  0  0  0  0  0  0  0  0
   62.2540   32.4520   47.7490 C   0  0  0  0  0  0  0  0  0  0  0  0
   61.5020   32.9060   48.8300 C   0  0  0  0  0  0  0  0  0  0  0  0
   60.4390   32.1440   49.3100 C   0  0  0  0  0  0  0  0  0  0  0  0
   60.1080   30.9150   48.7120 C   0  0  0  0  0  0  0  0  0  0  0  0
   58.9170   30.1620   49.2430 C   0  0  0  0  0  0  0  0  0  0  0  0
   53.6670   22.2400   48.1560 C   0  0  0  0  0  0  0  0  0  0  0  0
   53.7320   22.5540   49.5160 C   0  0  0  0  0  0  0  0  0  0  0  0
   52.0509   24.6170   53.0897 H   0  0  0  0  0  0  0  0  0  0  0  0
   52.8012   25.1827   51.5589 H   0  0  0  0  0  0  0  0  0  0  0  0
   51.1123   24.5711   51.5589 H   0  0  0  0  0  0  0  0  0  0  0  0
   53.6664   22.9642   52.0698 H   0  0  0  0  0  0  0  0  0  0  0  0
   51.9893   22.3257   52.2802 H   0  0  0  0  0  0  0  0  0  0  0  0
   50.3829   22.7473   50.1938 H   0  0  0  0  0  0  0  0  0  0  0  0
   50.2697   22.1860   47.7687 H   0  0  0  0  0  0  0  0  0  0  0  0
   52.9795   20.8372   45.8882 H   0  0  0  0  0  0  0  0  0  0  0  0
   51.3082   21.5272   45.8018 H   0  0  0  0  0  0  0  0  0  0  0  0
   58.3733   24.7431   47.5285 H   0  0  0  0  0  0  0  0  0  0  0  0
   59.8843   26.7060   47.3812 H   0  0  0  0  0  0  0  0  0  0  0  0
   55.2619   26.9685   45.5284 H   0  0  0  0  0  0  0  0  0  0  0  0
   57.4001   31.5429   43.3968 H   0  0  0  0  0  0  0  0  0  0  0  0
   55.9933   31.5749   44.5207 H   0  0  0  0  0  0  0  0  0  0  0  0
   56.9935   32.0750   47.1288 H   0  0  0  0  0  0  0  0  0  0  0  0
   58.0424   33.9980   48.3259 H   0  0  0  0  0  0  0  0  0  0  0  0
   59.3376   35.7095   47.0525 H   0  0  0  0  0  0  0  0  0  0  0  0
   59.5948   35.4946   44.5775 H   0  0  0  0  0  0  0  0  0  0  0  0
   58.5300   33.5887   43.3698 H   0  0  0  0  0  0  0  0  0  0  0  0
   60.6704   28.2933   47.6393 H   0  0  0  0  0  0  0  0  0  0  0  0
   61.3486   29.0097   46.1077 H   0  0  0  0  0  0  0  0  0  0  0  0
   62.5404   30.8888   46.2862 H   0  0  0  0  0  0  0  0  0  0  0  0
   63.0884   33.0587   47.3672 H   0  0  0  0  0  0  0  0  0  0  0  0
   61.7477   33.8672   49.3052 H   0  0  0  0  0  0  0  0  0  0  0  0
   59.8521   32.5078   50.1663 H   0  0  0  0  0  0  0  0  0  0  0  0
   58.9361   30.1741   50.3428 H   0  0  0  0  0  0  0  0  0  0  0  0
   57.9925   30.6401   48.8871 H   0  0  0  0  0  0  0  0  0  0  0  0
   58.9524   29.1218   48.8871 H   0  0  0  0  0  0  0  0  0  0  0  0
   54.5947   22.1058   47.5803 H   0  0  0  0  0  0  0  0  0  0  0  0
   54.7106   22.6742   50.0037 H   0  0  0  0  0  0  0  0  0  0  0  0
  1  2  1  0
  2  3  1  0
  3  4  2  0
  4  5  1  0
  5  6  2  0
  6  7  1  0
  7  8  1  0
  8  9  1  0
  9 10  2  0
  9 11  1  0
 11 12  2  0
 11 13  1  0
 13 14  1  0
 14 15  2  0
 15 16  1  0
 16 17  2  0
 17 18  1  0
 18 19  2  0
 18 20  1  0
 20 21  2  0
 20 22  1  0
 22 23  1  0
 23 24  1  0
 24 25  2  0
 25 26  1  0
 26 27  2  0
 27 28  1  0
 28 29  2  0
 22 30  1  0
 30 31  2  0
 30 32  1  0
 32 33  1  0
 33 34  1  0
 34 35  2  0
 35 36  1  0
 36 37  2  0
 37 38  1  0
 38 39  2  0
 39 40  1  0
  6 41  1  0
 41 42  2  0
 42  3  1  0
 19 14  1  0
 29 24  1  0
 39 34  1  0
 32 17  1  0
  1 43  1  0
  1 44  1  0
  1 45  1  0
  2 46  1  0
  2 47  1  0
  4 48  1  0
  5 49  1  0
  7 50  1  0
  7 51  1  0
 15 52  1  0
 16 53  1  0
 19 54  1  0
 23 55  1  0
 23 56  1  0
 25 57  1  0
 26 58  1  0
 27 59  1  0
 28 60  1  0
 29 61  1  0
 33 62  1  0
 33 63  1  0
 35 64  1  0
 36 65  1  0
 37 66  1  0
 38 67  1  0
 40 68  1  0
 40 69  1  0
 40 70  1  0
 41 71  1  0
 42 72  1  0
M  CHG  2   8  -1  13  -1
M  END
>  <UniqueID>  (40) 
39

>  <SMILES>  (40) 
CCc1ccc(C[N-]C(=O)C(=O)[N-]c2ccc3c(c2)c(=O)n(Cc2ccccc2)c(=O)n3Cc2ccccc2C)cc1

>  <Energy>  (40) 
92.96232838701815

>  <Genealogy>  (40) 
CCc1ccc(C[N-]C(=O)C(=O)[N-]c2ccc3c(c2)c(=O)n(Cc2ccccc2)c(=O)n3Cc2ccccc2C)cc1 (protonated)
CCc1ccc(C[N-]C(=O)C(=O)[N-]c2ccc3c(c2)c(=O)n(Cc2ccccc2)c(=O)n3Cc2ccccc2C)cc1 (3D coordinates assigned)
CCc1ccc(C[N-]C(=O)C(=O)[N-]c2ccc3c(c2)c(=O)n(Cc2ccccc2)c(=O)n3Cc2ccccc2C)cc1 (optimized conformer: 92.96232838701815 kcal/mol)

>  <smiles>  (40) 
CCc1ccc(CNC(=O)C(=O)Nc2ccc3c(c2)c(=O)n(Cc2ccccc2)c(=O)n3Cc2ccccc2C)cc1

>  <score_type>  (40) 
oracle

>  <origin>  (40) 
adg

>  <m_score__min__energy>  (40) 
-13.449999999999999

>  <m_primary>  (40) 
energy

$$$$
40:0
     RDKit          3D

 34 35  0  0  0  0  0  0  0  0999 V2000
   57.9030   27.1850   44.2790 C   0  0  0  0  0  0  0  0  0  0  0  0
   56.8860   27.9450   45.5240 S   0  0  0  0  0  0  0  0  0  0  0  0
   57.7520   28.3480   46.6850 O   0  0  0  0  0  0  0  0  0  0  0  0
   55.8450   26.9600   45.9780 O   0  0  0  0  0  0  0  0  0  0  0  0
   56.1190   29.3440   44.8470 N   0  0  0  0  0  0  0  0  0  0  0  0
   56.8050   30.5100   44.3710 C   0  0  0  0  0  0  0  0  0  0  0  0
   56.9480   30.6870   42.9890 C   0  0  0  0  0  0  0  0  0  0  0  0
   57.6140   31.8070   42.4840 C   0  0  0  0  0  0  0  0  0  0  0  0
   57.7450   31.9700   41.1440 F   0  0  0  0  0  0  0  0  0  0  0  0
   58.1450   32.7600   43.3580 C   0  0  0  0  0  0  0  0  0  0  0  0
   58.0120   32.5940   44.7430 C   0  0  0  0  0  0  0  0  0  0  0  0
   58.6800   33.7880   45.8520 S   0  0  0  0  0  0  0  0  0  0  0  0
   57.7790   33.9120   47.0480 O   0  0  0  0  0  0  0  0  0  0  0  0
   58.7780   35.1280   45.1800 O   0  0  0  0  0  0  0  0  0  0  0  0
   60.2950   33.2890   46.3500 C   0  0  0  0  0  0  0  0  0  0  0  0
   61.3520   34.2100   46.3650 C   0  0  0  0  0  0  0  0  0  0  0  0
   62.6230   33.8140   46.7930 C   0  0  0  0  0  0  0  0  0  0  0  0
   62.8480   32.4950   47.2140 C   0  0  0  0  0  0  0  0  0  0  0  0
   64.1460   32.0910   47.6540 N   0  0  0  0  0  0  0  0  0  0  0  0
   61.7880   31.5770   47.2040 C   0  0  0  0  0  0  0  0  0  0  0  0
   60.5170   31.9730   46.7770 C   0  0  0  0  0  0  0  0  0  0  0  0
   57.3350   31.4740   45.2470 C   0  0  0  0  0  0  0  0  0  0  0  0
   58.6944   26.5936   44.7628 H   0  0  0  0  0  0  0  0  0  0  0  0
   57.2842   26.5262   43.6520 H   0  0  0  0  0  0  0  0  0  0  0  0
   58.3595   27.9651   43.6520 H   0  0  0  0  0  0  0  0  0  0  0  0
   56.5334   29.9396   42.2966 H   0  0  0  0  0  0  0  0  0  0  0  0
   58.6679   33.6413   42.9580 H   0  0  0  0  0  0  0  0  0  0  0  0
   61.1811   35.2467   46.0393 H   0  0  0  0  0  0  0  0  0  0  0  0
   63.4496   34.5397   46.7996 H   0  0  0  0  0  0  0  0  0  0  0  0
   64.7380   32.7280   48.2320 H   0  0  0  0  0  0  0  0  0  0  0  0
   64.5260   31.1500   47.4040 H   0  0  0  0  0  0  0  0  0  0  0  0
   61.9572   30.5412   47.5334 H   0  0  0  0  0  0  0  0  0  0  0  0
   59.6887   31.2492   46.7762 H   0  0  0  0  0  0  0  0  0  0  0  0
   57.2179   31.3489   46.3336 H   0  0  0  0  0  0  0  0  0  0  0  0
  1  2  1  0
  2  3  2  0
  2  4  2  0
  2  5  1  0
  5  6  1  0
  6  7  2  0
  7  8  1  0
  8  9  1  0
  8 10  2  0
 10 11  1  0
 11 12  1  0
 12 13  2  0
 12 14  2  0
 12 15  1  0
 15 16  2  0
 16 17  1  0
 17 18  2  0
 18 19  1  0
 18 20  1  0
 20 21  2  0
 11 22  2  0
 22  6  1  0
 21 15  1  0
  1 23  1  0
  1 24  1  0
  1 25  1  0
  7 26  1  0
 10 27  1  0
 16 28  1  0
 17 29  1  0
 19 30  1  0
 19 31  1  0
 20 32  1  0
 21 33  1  0
 22 34  1  0
M  CHG  1   5  -1
M  END
>  <UniqueID>  (41) 
40

>  <SMILES>  (41) 
CS(=O)(=O)[N-]c1cc(F)cc(S(=O)(=O)c2ccc(N)cc2)c1

>  <Energy>  (41) 
33.879691340350384

>  <Genealogy>  (41) 
CS(=O)(=O)[N-]c1cc(F)cc(S(=O)(=O)c2ccc(N)cc2)c1 (protonated)
CS(=O)(=O)[N-]c1cc(F)cc(S(=O)(=O)c2ccc(N)cc2)c1 (3D coordinates assigned)
CS(=O)(=O)[N-]c1cc(F)cc(S(=O)(=O)c2ccc(N)cc2)c1 (optimized conformer: 33.879691340350384 kcal/mol)

>  <smiles>  (41) 
CS(=O)(=O)Nc1cc(F)cc(S(=O)(=O)c2ccc(N)cc2)c1

>  <score_type>  (41) 
oracle

>  <origin>  (41) 
adg

>  <m_score__min__energy>  (41) 
-10.15

>  <m_primary>  (41) 
energy

$$$$
41:0
     RDKit          3D

 47 49  0  0  0  0  0  0  0  0999 V2000
   57.4530   31.9940   41.4920 C   0  0  0  0  0  0  0  0  0  0  0  0
   57.4080   31.3450   42.8360 C   0  0  0  0  0  0  0  0  0  0  0  0
   56.6930   30.1770   43.0870 C   0  0  0  0  0  0  0  0  0  0  0  0
   56.8610   29.8160   44.7200 S   0  0  0  0  0  0  0  0  0  0  0  0
   57.8230   31.1640   45.0390 C   0  0  0  0  0  0  0  0  0  0  0  0
   58.3840   31.5140   46.3190 N   0  0  0  0  0  0  0  0  0  0  0  0
   57.8590   32.6400   47.1060 C   0  0  0  0  0  0  0  0  0  0  0  0
   57.5700   33.8700   46.2220 C   0  0  0  0  0  0  0  0  0  0  0  0
   58.6710   34.2060   45.3010 N   0  0  0  0  0  0  0  0  0  0  0  0
   59.6220   35.1720   45.8670 C   0  0  0  0  0  0  0  0  0  0  0  0
   60.5590   34.4870   46.8260 C   0  0  0  0  0  0  0  0  0  0  0  0
   60.2800   34.4880   48.2020 C   0  0  0  0  0  0  0  0  0  0  0  0
   61.1380   33.8390   49.0960 C   0  0  0  0  0  0  0  0  0  0  0  0
   62.2760   33.1820   48.6210 C   0  0  0  0  0  0  0  0  0  0  0  0
   62.5580   33.1720   47.2520 C   0  0  0  0  0  0  0  0  0  0  0  0
   61.7030   33.8210   46.3550 C   0  0  0  0  0  0  0  0  0  0  0  0
   59.6160   30.4890   47.0070 S   0  0  0  0  0  0  0  0  0  0  0  0
   60.9430   30.8300   46.3900 O   0  0  0  0  0  0  0  0  0  0  0  0
   59.6990   30.7200   48.4910 O   0  0  0  0  0  0  0  0  0  0  0  0
   59.2510   28.7850   46.7440 C   0  0  0  0  0  0  0  0  0  0  0  0
   60.0130   28.0190   45.8480 C   0  0  0  0  0  0  0  0  0  0  0  0
   59.7050   26.6720   45.6370 C   0  0  0  0  0  0  0  0  0  0  0  0
   58.6360   26.0820   46.3190 C   0  0  0  0  0  0  0  0  0  0  0  0
   58.3380   24.7760   46.1120 F   0  0  0  0  0  0  0  0  0  0  0  0
   57.8740   26.8410   47.2120 C   0  0  0  0  0  0  0  0  0  0  0  0
   58.1800   28.1880   47.4250 C   0  0  0  0  0  0  0  0  0  0  0  0
   58.0240   31.8930   43.9180 N   0  0  0  0  0  0  0  0  0  0  0  0
   57.5286   33.0846   41.6138 H   0  0  0  0  0  0  0  0  0  0  0  0
   58.3278   31.6256   40.9360 H   0  0  0  0  0  0  0  0  0  0  0  0
   56.5358   31.7499   40.9360 H   0  0  0  0  0  0  0  0  0  0  0  0
   56.1210   29.5951   42.3493 H   0  0  0  0  0  0  0  0  0  0  0  0
   56.9257   32.3270   47.5969 H   0  0  0  0  0  0  0  0  0  0  0  0
   58.6200   32.9231   47.8482 H   0  0  0  0  0  0  0  0  0  0  0  0
   56.6681   33.6660   45.6262 H   0  0  0  0  0  0  0  0  0  0  0  0
   57.4399   34.7290   46.8967 H   0  0  0  0  0  0  0  0  0  0  0  0
   59.1820   33.3400   45.0170 H   0  0  0  0  0  0  0  0  0  0  0  0
   60.2054   35.6259   45.0524 H   0  0  0  0  0  0  0  0  0  0  0  0
   59.0617   35.9480   46.4091 H   0  0  0  0  0  0  0  0  0  0  0  0
   59.3829   35.0013   48.5786 H   0  0  0  0  0  0  0  0  0  0  0  0
   60.9167   33.8459   50.1735 H   0  0  0  0  0  0  0  0  0  0  0  0
   62.9504   32.6723   49.3248 H   0  0  0  0  0  0  0  0  0  0  0  0
   63.4535   32.6531   46.8795 H   0  0  0  0  0  0  0  0  0  0  0  0
   61.9269   33.8099   45.2781 H   0  0  0  0  0  0  0  0  0  0  0  0
   60.8548   28.4800   45.3105 H   0  0  0  0  0  0  0  0  0  0  0  0
   60.3042   26.0752   44.9336 H   0  0  0  0  0  0  0  0  0  0  0  0
   57.0325   26.3775   47.7477 H   0  0  0  0  0  0  0  0  0  0  0  0
   57.5788   28.7820   48.1291 H   0  0  0  0  0  0  0  0  0  0  0  0
  1  2  1  0
  2  3  2  0
  3  4  1  0
  4  5  1  0
  5  6  1  0
  6  7  1  0
  7  8  1  0
  8  9  1  0
  9 10  1  0
 10 11  1  0
 11 12  2  0
 12 13  1  0
 13 14  2  0
 14 15  1  0
 15 16  2  0
  6 17  1  0
 17 18  2  0
 17 19  2  0
 17 20  1  0
 20 21  2  0
 21 22  1  0
 22 23  2  0
 23 24  1  0
 23 25  1  0
 25 26  2  0
  5 27  2  0
 27  2  1  0
 16 11  1  0
 26 20  1  0
  1 28  1  0
  1 29  1  0
  1 30  1  0
  3 31  1  0
  7 32  1  0
  7 33  1  0
  8 34  1  0
  8 35  1  0
  9 36  1  0
 10 37  1  0
 10 38  1  0
 12 39  1  0
 13 40  1  0
 14 41  1  0
 15 42  1  0
 16 43  1  0
 21 44  1  0
 22 45  1  0
 25 46  1  0
 26 47  1  0
M  END
>  <UniqueID>  (42) 
41

>  <SMILES>  (42) 
Cc1csc(N(CCNCc2ccccc2)S(=O)(=O)c2ccc(F)cc2)n1

>  <Energy>  (42) 
78.15617129759725

>  <Genealogy>  (42) 
Cc1csc(N(CCNCc2ccccc2)S(=O)(=O)c2ccc(F)cc2)n1 (3D coordinates assigned)
Cc1csc(N(CCNCc2ccccc2)S(=O)(=O)c2ccc(F)cc2)n1 (optimized conformer: 78.15617129759725 kcal/mol)

>  <smiles>  (42) 
Cc1csc(N(CCNCc2ccccc2)S(=O)(=O)c2ccc(F)cc2)n1

>  <score_type>  (42) 
oracle

>  <origin>  (42) 
adg

>  <m_score__min__energy>  (42) 
-8.0800000000000001

>  <m_primary>  (42) 
energy

$$$$
42:0
     RDKit          3D

 54 57  0  0  0  0  0  0  0  0999 V2000
   60.2700   22.6840   45.2430 N   0  0  0  0  0  0  0  0  0  0  0  0
   56.9030   21.7260   44.6930 C   0  0  0  0  0  0  0  0  0  0  0  0
   58.2410   21.7310   44.7190 N   0  0  0  0  0  0  0  0  0  0  0  0
   58.9830   22.7190   45.2380 C   0  0  0  0  0  0  0  0  0  0  0  0
   56.2310   20.7760   44.1940 O   0  0  0  0  0  0  0  0  0  0  0  0
   56.2500   22.7700   45.2150 N   0  0  0  0  0  0  0  0  0  0  0  0
   54.8220   22.8170   45.2130 C   0  0  0  0  0  0  0  0  0  0  0  0
   54.2460   24.1860   44.9140 C   0  0  0  0  0  0  0  0  0  0  0  0
   52.7490   24.0790   45.0360 C   0  0  0  0  0  0  0  0  0  0  0  0
   52.3170   22.7180   45.1640 N   0  0  0  0  0  0  0  0  0  0  0  0
   52.8090   22.0470   46.3330 C   0  0  0  0  0  0  0  0  0  0  0  0
   54.2420   22.4360   46.5810 C   0  0  0  0  0  0  0  0  0  0  0  0
   56.9430   23.7740   45.7410 C   0  0  0  0  0  0  0  0  0  0  0  0
   58.3300   23.7950   45.7770 C   0  0  0  0  0  0  0  0  0  0  0  0
   58.9980   24.9660   46.3880 C   0  0  0  0  0  0  0  0  0  0  0  0
   58.7110   26.1950   45.6530 C   0  0  0  0  0  0  0  0  0  0  0  0
   59.0540   27.4040   46.2660 C   0  0  0  0  0  0  0  0  0  0  0  0
   58.8150   28.6110   45.6450 C   0  0  0  0  0  0  0  0  0  0  0  0
   58.2210   28.5980   44.3870 C   0  0  0  0  0  0  0  0  0  0  0  0
   58.0090   29.8580   43.8150 O   0  0  0  0  0  0  0  0  0  0  0  0
   57.2250   30.7590   44.5220 C   0  0  0  0  0  0  0  0  0  0  0  0
   56.0100   30.4760   44.6870 O   0  0  0  0  0  0  0  0  0  0  0  0
   57.7500   31.9980   45.0710 C   0  0  0  0  0  0  0  0  0  0  0  0
   58.1400   31.9810   46.3970 C   0  0  0  0  0  0  0  0  0  0  0  0
   58.6480   33.1100   46.9980 C   0  0  0  0  0  0  0  0  0  0  0  0
   58.7520   34.2530   46.2280 C   0  0  0  0  0  0  0  0  0  0  0  0
   58.3580   34.2610   44.9000 C   0  0  0  0  0  0  0  0  0  0  0  0
   57.8470   33.1290   44.2910 C   0  0  0  0  0  0  0  0  0  0  0  0
   57.8710   27.4260   43.7530 C   0  0  0  0  0  0  0  0  0  0  0  0
   58.1170   26.2170   44.3920 C   0  0  0  0  0  0  0  0  0  0  0  0
   60.8540   22.1580   44.5850 H   0  0  0  0  0  0  0  0  0  0  0  0
   58.7370   20.9050   44.3060 H   0  0  0  0  0  0  0  0  0  0  0  0
   54.5469   22.1070   44.4191 H   0  0  0  0  0  0  0  0  0  0  0  0
   54.6307   24.9219   45.6354 H   0  0  0  0  0  0  0  0  0  0  0  0
   54.5316   24.5163   43.9044 H   0  0  0  0  0  0  0  0  0  0  0  0
   52.4240   24.6399   45.9247 H   0  0  0  0  0  0  0  0  0  0  0  0
   52.3028   24.4926   44.1196 H   0  0  0  0  0  0  0  0  0  0  0  0
   51.3110   22.6080   45.0010 H   0  0  0  0  0  0  0  0  0  0  0  0
   52.1978   22.3324   47.2019 H   0  0  0  0  0  0  0  0  0  0  0  0
   52.7501   20.9595   46.1786 H   0  0  0  0  0  0  0  0  0  0  0  0
   54.2914   23.2931   47.2688 H   0  0  0  0  0  0  0  0  0  0  0  0
   54.8078   21.6132   47.0424 H   0  0  0  0  0  0  0  0  0  0  0  0
   56.3931   24.6262   46.1668 H   0  0  0  0  0  0  0  0  0  0  0  0
   58.6438   25.0786   47.4233 H   0  0  0  0  0  0  0  0  0  0  0  0
   60.0843   24.7949   46.3599 H   0  0  0  0  0  0  0  0  0  0  0  0
   59.5227   27.3916   47.2611 H   0  0  0  0  0  0  0  0  0  0  0  0
   59.0867   29.5596   46.1312 H   0  0  0  0  0  0  0  0  0  0  0  0
   58.0430   31.0529   46.9795 H   0  0  0  0  0  0  0  0  0  0  0  0
   58.9599   33.1030   48.0528 H   0  0  0  0  0  0  0  0  0  0  0  0
   59.1547   35.1726   46.6776 H   0  0  0  0  0  0  0  0  0  0  0  0
   58.4537   35.1886   44.3165 H   0  0  0  0  0  0  0  0  0  0  0  0
   57.5338   33.1320   43.2365 H   0  0  0  0  0  0  0  0  0  0  0  0
   57.4044   27.4470   42.7571 H   0  0  0  0  0  0  0  0  0  0  0  0
   57.8416   25.2723   43.9003 H   0  0  0  0  0  0  0  0  0  0  0  0
  1  2  2  3
  2  3  1  0
  3  4  1  0
  4  5  2  0
  4  6  1  0
  6  7  1  0
  7  8  1  0
  8  9  1  0
  9 10  1  0
 10 11  1  0
 11 12  1  0
  6 13  1  0
 13 14  2  0
 14 15  1  0
 15 16  1  0
 16 17  2  0
 17 18  1  0
 18 19  2  0
 19 20  1  0
 20 21  1  0
 21 22  2  0
 21 23  1  0
 23 24  2  0
 24 25  1  0
 25 26  2  0
 26 27  1  0
 27 28  2  0
 19 29  1  0
 29 30  2  0
 14  2  1  0
 30 16  1  0
 12  7  1  0
 28 23  1  0
  1 31  1  0
  3 32  1  0
  7 33  1  0
  8 34  1  0
  8 35  1  0
  9 36  1  0
  9 37  1  0
 10 38  1  0
 11 39  1  0
 11 40  1  0
 12 41  1  0
 12 42  1  0
 13 43  1  0
 15 44  1  0
 15 45  1  0
 17 46  1  0
 18 47  1  0
 24 48  1  0
 25 49  1  0
 26 50  1  0
 27 51  1  0
 28 52  1  0
 29 53  1  0
 30 54  1  0
M  END
>  <smiles>  (43) 
N=c1[nH]c(=O)n(C2CCNCC2)cc1Cc1ccc(OC(=O)c2ccccc2)cc1

>  <score_type>  (43) 
oracle

>  <origin>  (43) 
adg

>  <m_score__min__energy>  (43) 
-10.210000000000001

>  <m_primary>  (43) 
energy

$$$$
43:0
     RDKit          3D

 27 28  0  0  0  0  0  0  0  0999 V2000
   57.0280   32.9400   41.5290 H   0  0  0  0  0  0  0  0  0  0  0  0
   57.0570   31.9750   41.8340 O   0  0  0  0  0  0  0  0  0  0  0  0
   57.3990   31.6350   43.1400 C   0  0  0  0  0  0  0  0  0  0  0  0
   58.1120   32.5450   43.9270 C   0  0  0  0  0  0  0  0  0  0  0  0
   58.3877   33.5275   43.5163 H   0  0  0  0  0  0  0  0  0  0  0  0
   58.4750   32.2090   45.2340 C   0  0  0  0  0  0  0  0  0  0  0  0
   59.0458   32.9227   45.8462 H   0  0  0  0  0  0  0  0  0  0  0  0
   58.1140   30.9680   45.7640 C   0  0  0  0  0  0  0  0  0  0  0  0
   58.4154   30.7005   46.7875 H   0  0  0  0  0  0  0  0  0  0  0  0
   57.3670   30.0600   44.9940 C   0  0  0  0  0  0  0  0  0  0  0  0
   57.0180   28.7600   45.4950 N   0  0  0  0  0  0  0  0  0  0  0  0
   57.4000   27.6040   45.0270 C   0  0  0  0  0  0  0  0  0  0  0  0
   57.2550   26.4040   45.8940 C   0  0  0  0  0  0  0  0  0  0  0  0
   55.9870   25.9850   46.3400 C   0  0  0  0  0  0  0  0  0  0  0  0
   54.8400   26.6930   45.9980 O   0  0  0  0  0  0  0  0  0  0  0  0
   55.8720   24.8860   47.1290 N   0  0  0  0  0  0  0  0  0  0  0  0
   56.9640   24.1720   47.5030 C   0  0  0  0  0  0  0  0  0  0  0  0
   56.8310   23.1590   48.2370 O   0  0  0  0  0  0  0  0  0  0  0  0
   58.1970   24.5500   47.0850 N   0  0  0  0  0  0  0  0  0  0  0  0
   58.3710   25.6390   46.2930 C   0  0  0  0  0  0  0  0  0  0  0  0
   59.5320   25.9370   45.9080 O   0  0  0  0  0  0  0  0  0  0  0  0
   58.0280   27.4630   43.6620 C   0  0  0  0  0  0  0  0  0  0  0  0
   59.0958   27.2232   43.7727 H   0  0  0  0  0  0  0  0  0  0  0  0
   57.5262   26.6552   43.1092 H   0  0  0  0  0  0  0  0  0  0  0  0
   57.9197   28.4078   43.1092 H   0  0  0  0  0  0  0  0  0  0  0  0
   57.0370   30.3890   43.6720 C   0  0  0  0  0  0  0  0  0  0  0  0
   56.4910   29.6658   43.0484 H   0  0  0  0  0  0  0  0  0  0  0  0
  1  2  1  0
  2  3  1  0
  3  4  2  0
  4  5  1  0
  4  6  1  0
  6  7  1  0
  6  8  2  0
  8  9  1  0
  8 10  1  0
 10 11  1  0
 11 12  2  0
 12 13  1  0
 13 14  2  0
 14 15  1  0
 14 16  1  0
 16 17  1  0
 17 18  2  0
 17 19  1  0
 19 20  1  0
 20 21  2  0
 12 22  1  0
 22 23  1  0
 22 24  1  0
 22 25  1  0
 10 26  2  0
 26 27  1  0
 26  3  1  0
 20 13  1  0
M  CHG  3  15  -1  16  -1  19  -1
M  END
>  <UniqueID>  (44) 
42

>  <SMILES>  (44) 
C/C(=N\c1cccc(O)c1)c1c([O-])[n-]c(=O)[n-]c1=O

>  <Energy>  (44) 
41.72389418809359

>  <Genealogy>  (44) 
CC(=Nc1cccc(O)c1)c1c([O-])[n-]c(=O)[n-]c1=O (protonated)
C/C(=N\c1cccc(O)c1)c1c([O-])[n-]c(=O)[n-]c1=O (cis-trans isomerization)
C/C(=N\c1cccc(O)c1)c1c([O-])[n-]c(=O)[n-]c1=O (3D coordinates assigned)
C/C(=N\c1cccc(O)c1)c1c([O-])[n-]c(=O)[n-]c1=O (optimized conformer: 41.72389418809359 kcal/mol)

>  <smiles>  (44) 
CC(=Nc1cccc(O)c1)c1c(O)[nH]c(=O)[nH]c1=O

>  <score_type>  (44) 
oracle

>  <origin>  (44) 
adg

>  <m_score__min__energy>  (44) 
-13.56

>  <m_primary>  (44) 
energy

$$$$
44:0
     RDKit          3D

 50 53  0  0  0  0  0  0  0  0999 V2000
   56.7210   34.5890   44.8940 C   0  0  0  0  0  0  0  0  0  0  0  0
   57.9200   33.6630   44.7090 C   0  0  0  0  0  0  0  0  0  0  0  0
   57.6460   32.3100   45.2480 N   0  0  0  0  0  0  0  0  0  0  0  0
   57.8790   32.1900   46.7100 C   0  0  0  0  0  0  0  0  0  0  0  0
   59.2010   32.7640   47.1750 C   0  0  0  0  0  0  0  0  0  0  0  0
   59.2370   33.9870   47.8890 C   0  0  0  0  0  0  0  0  0  0  0  0
   60.4600   34.5270   48.3200 C   0  0  0  0  0  0  0  0  0  0  0  0
   61.6270   33.8240   48.0350 C   0  0  0  0  0  0  0  0  0  0  0  0
   61.6060   32.6400   47.3590 C   0  0  0  0  0  0  0  0  0  0  0  0
   60.4090   32.0770   46.9190 C   0  0  0  0  0  0  0  0  0  0  0  0
   62.9890   32.1190   47.2070 C   0  0  0  0  0  0  0  0  0  0  0  0
   63.8400   33.2070   47.9090 C   0  0  0  0  0  0  0  0  0  0  0  0
   62.9120   34.1890   48.3730 O   0  0  0  0  0  0  0  0  0  0  0  0
   58.3550   31.2610   44.4840 C   0  0  0  0  0  0  0  0  0  0  0  0
   57.9000   29.8890   44.9210 C   0  0  0  0  0  0  0  0  0  0  0  0
   58.8290   28.9630   45.4140 C   0  0  0  0  0  0  0  0  0  0  0  0
   58.4100   27.6870   45.8060 C   0  0  0  0  0  0  0  0  0  0  0  0
   59.3250   26.7480   46.3030 C   0  0  0  0  0  0  0  0  0  0  0  0
   58.8860   25.4780   46.6900 C   0  0  0  0  0  0  0  0  0  0  0  0
   57.5320   25.1290   46.5720 C   0  0  0  0  0  0  0  0  0  0  0  0
   57.0610   23.7790   47.0250 C   0  0  0  0  0  0  0  0  0  0  0  0
   56.6120   26.0720   46.0900 C   0  0  0  0  0  0  0  0  0  0  0  0
   57.0430   27.3500   45.7000 C   0  0  0  0  0  0  0  0  0  0  0  0
   56.1520   28.2660   45.2200 N   0  0  0  0  0  0  0  0  0  0  0  0
   56.5460   29.5120   44.8320 C   0  0  0  0  0  0  0  0  0  0  0  0
   55.6880   30.3240   44.3930 O   0  0  0  0  0  0  0  0  0  0  0  0
   56.5324   34.7346   45.9679 H   0  0  0  0  0  0  0  0  0  0  0  0
   56.9322   35.5607   44.4237 H   0  0  0  0  0  0  0  0  0  0  0  0
   55.8342   34.1391   44.4237 H   0  0  0  0  0  0  0  0  0  0  0  0
   58.1472   33.5815   43.6358 H   0  0  0  0  0  0  0  0  0  0  0  0
   58.7737   34.0879   45.2573 H   0  0  0  0  0  0  0  0  0  0  0  0
   57.0693   32.7196   47.2334 H   0  0  0  0  0  0  0  0  0  0  0  0
   57.9018   31.1146   46.9402 H   0  0  0  0  0  0  0  0  0  0  0  0
   58.2991   34.5184   48.1078 H   0  0  0  0  0  0  0  0  0  0  0  0
   60.4945   35.4801   48.8682 H   0  0  0  0  0  0  0  0  0  0  0  0
   60.4049   31.1165   46.3829 H   0  0  0  0  0  0  0  0  0  0  0  0
   63.1028   31.1442   47.7038 H   0  0  0  0  0  0  0  0  0  0  0  0
   63.2783   31.9457   46.1600 H   0  0  0  0  0  0  0  0  0  0  0  0
   64.3936   32.7735   48.7549 H   0  0  0  0  0  0  0  0  0  0  0  0
   64.5826   33.6436   47.2249 H   0  0  0  0  0  0  0  0  0  0  0  0
   58.1431   31.3882   43.4121 H   0  0  0  0  0  0  0  0  0  0  0  0
   59.4350   31.3537   44.6708 H   0  0  0  0  0  0  0  0  0  0  0  0
   59.8906   29.2401   45.4930 H   0  0  0  0  0  0  0  0  0  0  0  0
   60.3897   27.0107   46.3886 H   0  0  0  0  0  0  0  0  0  0  0  0
   59.6061   24.7485   47.0891 H   0  0  0  0  0  0  0  0  0  0  0  0
   57.0490   23.7447   48.1244 H   0  0  0  0  0  0  0  0  0  0  0  0
   56.0462   23.5970   46.6414 H   0  0  0  0  0  0  0  0  0  0  0  0
   57.7423   23.0052   46.6414 H   0  0  0  0  0  0  0  0  0  0  0  0
   55.5465   25.8085   46.0172 H   0  0  0  0  0  0  0  0  0  0  0  0
   55.1410   28.0130   45.1430 H   0  0  0  0  0  0  0  0  0  0  0  0
  1  2  1  0
  2  3  1  0
  3  4  1  0
  4  5  1  0
  5  6  2  0
  6  7  1  0
  7  8  2  0
  8  9  1  0
  9 10  2  0
  9 11  1  0
 11 12  1  0
 12 13  1  0
  3 14  1  0
 14 15  1  0
 15 16  2  0
 16 17  1  0
 17 18  2  0
 18 19  1  0
 19 20  2  0
 20 21  1  0
 20 22  1  0
 22 23  2  0
 23 24  1  0
 24 25  1  0
 25 26  2  0
 10  5  1  0
 25 15  1  0
 13  8  1  0
 23 17  1  0
  1 27  1  0
  1 28  1  0
  1 29  1  0
  2 30  1  0
  2 31  1  0
  4 32  1  0
  4 33  1  0
  6 34  1  0
  7 35  1  0
 10 36  1  0
 11 37  1  0
 11 38  1  0
 12 39  1  0
 12 40  1  0
 14 41  1  0
 14 42  1  0
 16 43  1  0
 18 44  1  0
 19 45  1  0
 21 46  1  0
 21 47  1  0
 21 48  1  0
 22 49  1  0
 24 50  1  0
M  END
>  <UniqueID>  (45) 
43

>  <SMILES>  (45) 
CCN(Cc1ccc2c(c1)CCO2)Cc1cc2ccc(C)cc2[nH]c1=O

>  <Energy>  (45) 
74.63896000576032

>  <Genealogy>  (45) 
CCN(Cc1ccc2c(c1)CCO2)Cc1cc2ccc(C)cc2[nH]c1=O (3D coordinates assigned)
CCN(Cc1ccc2c(c1)CCO2)Cc1cc2ccc(C)cc2[nH]c1=O (nonaromatic ring conformer: 74.63896000576032 kcal/mol)

>  <smiles>  (45) 
CCN(Cc1ccc2c(c1)CCO2)Cc1cc2ccc(C)cc2[nH]c1=O

>  <score_type>  (45) 
oracle

>  <origin>  (45) 
adg

>  <m_score__min__energy>  (45) 
-9.4000000000000004

>  <m_primary>  (45) 
energy

$$$$
45:0
     RDKit          3D

 27 28  0  0  0  0  0  0  0  0999 V2000
   55.3430   26.7160   45.9720 N   0  0  0  0  0  0  0  0  0  0  0  0
   56.8810   26.0180   46.3420 S   0  0  0  0  0  0  0  0  0  0  0  0
   57.3380   25.1680   45.1900 O   0  0  0  0  0  0  0  0  0  0  0  0
   56.7410   25.1520   47.5620 O   0  0  0  0  0  0  0  0  0  0  0  0
   58.0600   27.3030   46.6270 C   0  0  0  0  0  0  0  0  0  0  0  0
   58.8440   27.2820   47.7900 C   0  0  0  0  0  0  0  0  0  0  0  0
   59.7710   28.2970   48.0370 C   0  0  0  0  0  0  0  0  0  0  0  0
   59.9260   29.3390   47.1220 C   0  0  0  0  0  0  0  0  0  0  0  0
   61.1920   30.7270   47.4620 Br  0  0  0  0  0  0  0  0  0  0  0  0
   59.1530   29.3690   45.9580 C   0  0  0  0  0  0  0  0  0  0  0  0
   58.2120   28.3550   45.7000 C   0  0  0  0  0  0  0  0  0  0  0  0
   57.4010   28.3690   44.5150 N   0  0  0  0  0  0  0  0  0  0  0  0
   56.3530   29.6610   44.0280 S   0  0  0  0  0  0  0  0  0  0  0  0
   55.9210   29.4420   42.6050 O   0  0  0  0  0  0  0  0  0  0  0  0
   55.1410   29.6760   44.9140 O   0  0  0  0  0  0  0  0  0  0  0  0
   57.1920   31.1930   44.1830 C   0  0  0  0  0  0  0  0  0  0  0  0
   57.8010   31.8940   43.1540 C   0  0  0  0  0  0  0  0  0  0  0  0
   58.4120   33.0770   43.5890 C   0  0  0  0  0  0  0  0  0  0  0  0
   58.2820   33.3020   44.9540 C   0  0  0  0  0  0  0  0  0  0  0  0
   57.4090   32.0290   45.6230 S   0  0  0  0  0  0  0  0  0  0  0  0
   55.5230   27.5440   45.3610 H   0  0  0  0  0  0  0  0  0  0  0  0
   58.7279   26.4606   48.5123 H   0  0  0  0  0  0  0  0  0  0  0  0
   60.3792   28.2750   48.9533 H   0  0  0  0  0  0  0  0  0  0  0  0
   59.2811   30.1911   45.2384 H   0  0  0  0  0  0  0  0  0  0  0  0
   57.8042   31.5571   42.1069 H   0  0  0  0  0  0  0  0  0  0  0  0
   58.9444   33.7631   42.9138 H   0  0  0  0  0  0  0  0  0  0  0  0
   58.6822   34.1664   45.5042 H   0  0  0  0  0  0  0  0  0  0  0  0
  1  2  1  0
  2  3  2  0
  2  4  2  0
  2  5  1  0
  5  6  2  0
  6  7  1  0
  7  8  2  0
  8  9  1  0
  8 10  1  0
 10 11  2  0
 11 12  1  0
 12 13  1  0
 13 14  2  0
 13 15  2  0
 13 16  1  0
 16 17  2  0
 17 18  1  0
 18 19  2  0
 19 20  1  0
 11  5  1  0
 20 16  1  0
  1 21  1  0
  6 22  1  0
  7 23  1  0
 10 24  1  0
 17 25  1  0
 18 26  1  0
 19 27  1  0
M  CHG  2   1  -1  12  -1
M  END
>  <UniqueID>  (46) 
44

>  <SMILES>  (46) 
[NH-]S(=O)(=O)c1ccc(Br)cc1[N-]S(=O)(=O)c1cccs1

>  <Energy>  (46) 
56.68068773387449

>  <Genealogy>  (46) 
[NH-]S(=O)(=O)c1ccc(Br)cc1[N-]S(=O)(=O)c1cccs1 (protonated)
[NH-]S(=O)(=O)c1ccc(Br)cc1[N-]S(=O)(=O)c1cccs1 (3D coordinates assigned)
[NH-]S(=O)(=O)c1ccc(Br)cc1[N-]S(=O)(=O)c1cccs1 (optimized conformer: 56.68068773387449 kcal/mol)

>  <smiles>  (46) 
NS(=O)(=O)c1ccc(Br)cc1NS(=O)(=O)c1cccs1

>  <score_type>  (46) 
oracle

>  <origin>  (46) 
adg

>  <m_score__min__energy>  (46) 
-12.529999999999999

>  <m_primary>  (46) 
energy

$$$$
46:0
     RDKit          3D

 38 39  0  0  0  0  0  0  0  0999 V2000
   54.7670   26.3110   45.9960 N   0  0  0  0  0  0  0  0  0  0  0  0
   56.2990   25.5450   46.2180 S   0  0  0  0  0  0  0  0  0  0  0  0
   56.2860   24.7640   47.5000 O   0  0  0  0  0  0  0  0  0  0  0  0
   56.5570   24.5980   45.0790 O   0  0  0  0  0  0  0  0  0  0  0  0
   57.5640   26.7670   46.2730 C   0  0  0  0  0  0  0  0  0  0  0  0
   58.2000   27.0710   47.4850 C   0  0  0  0  0  0  0  0  0  0  0  0
   59.1980   28.0500   47.5300 C   0  0  0  0  0  0  0  0  0  0  0  0
   59.5820   28.7220   46.3630 C   0  0  0  0  0  0  0  0  0  0  0  0
   60.5880   29.7370   46.4440 N   0  0  0  0  0  0  0  0  0  0  0  0
   60.5180   30.9350   47.2300 C   0  0  0  0  0  0  0  0  0  0  0  0
   60.6960   30.8540   48.4740 O   0  0  0  0  0  0  0  0  0  0  0  0
   60.3720   32.2980   46.6040 C   0  0  0  0  0  0  0  0  0  0  0  0
   58.9940   32.9060   46.8860 C   0  0  0  0  0  0  0  0  0  0  0  0
   58.2830   33.6820   45.4380 S   0  0  0  0  0  0  0  0  0  0  0  0
   59.3250   34.4970   44.7230 O   0  0  0  0  0  0  0  0  0  0  0  0
   57.1500   34.5860   45.8380 O   0  0  0  0  0  0  0  0  0  0  0  0
   57.6720   32.4270   44.3650 C   0  0  0  0  0  0  0  0  0  0  0  0
   57.0260   31.2990   44.8900 C   0  0  0  0  0  0  0  0  0  0  0  0
   56.5270   30.3140   44.0320 C   0  0  0  0  0  0  0  0  0  0  0  0
   56.6680   30.4530   42.6480 C   0  0  0  0  0  0  0  0  0  0  0  0
   57.3050   31.5800   42.1200 C   0  0  0  0  0  0  0  0  0  0  0  0
   57.8040   32.5660   42.9760 C   0  0  0  0  0  0  0  0  0  0  0  0
   58.9180   28.4440   45.1570 C   0  0  0  0  0  0  0  0  0  0  0  0
   57.9190   27.4670   45.1120 C   0  0  0  0  0  0  0  0  0  0  0  0
   54.7090   27.0860   46.6940 H   0  0  0  0  0  0  0  0  0  0  0  0
   57.9132   26.5379   48.4034 H   0  0  0  0  0  0  0  0  0  0  0  0
   59.6835   28.2932   48.4866 H   0  0  0  0  0  0  0  0  0  0  0  0
   61.1460   32.9634   47.0140 H   0  0  0  0  0  0  0  0  0  0  0  0
   60.4826   32.1891   45.5150 H   0  0  0  0  0  0  0  0  0  0  0  0
   58.3184   32.1076   47.2269 H   0  0  0  0  0  0  0  0  0  0  0  0
   59.1202   33.6821   47.6553 H   0  0  0  0  0  0  0  0  0  0  0  0
   56.9115   31.1886   45.9784 H   0  0  0  0  0  0  0  0  0  0  0  0
   56.0228   29.4286   44.4465 H   0  0  0  0  0  0  0  0  0  0  0  0
   56.2778   29.6757   41.9745 H   0  0  0  0  0  0  0  0  0  0  0  0
   57.4135   31.6908   41.0310 H   0  0  0  0  0  0  0  0  0  0  0  0
   58.3018   33.4537   42.5587 H   0  0  0  0  0  0  0  0  0  0  0  0
   59.1850   28.9971   44.2444 H   0  0  0  0  0  0  0  0  0  0  0  0
   57.4099   27.2470   44.1621 H   0  0  0  0  0  0  0  0  0  0  0  0
  1  2  1  0
  2  3  2  0
  2  4  2  0
  2  5  1  0
  5  6  2  0
  6  7  1  0
  7  8  2  0
  8  9  1  0
  9 10  1  0
 10 11  2  0
 10 12  1  0
 12 13  1  0
 13 14  1  0
 14 15  2  0
 14 16  2  0
 14 17  1  0
 17 18  2  0
 18 19  1  0
 19 20  2  0
 20 21  1  0
 21 22  2  0
  8 23  1  0
 23 24  2  0
 24  5  1  0
 22 17  1  0
  1 25  1  0
  6 26  1  0
  7 27  1  0
 12 28  1  0
 12 29  1  0
 13 30  1  0
 13 31  1  0
 18 32  1  0
 19 33  1  0
 20 34  1  0
 21 35  1  0
 22 36  1  0
 23 37  1  0
 24 38  1  0
M  CHG  2   1  -1   9  -1
M  END
>  <UniqueID>  (47) 
45

>  <SMILES>  (47) 
[NH-]S(=O)(=O)c1ccc([N-]C(=O)CCS(=O)(=O)c2ccccc2)cc1

>  <Energy>  (47) 
38.1732616597294

>  <Genealogy>  (47) 
[NH-]S(=O)(=O)c1ccc([N-]C(=O)CCS(=O)(=O)c2ccccc2)cc1 (protonated)
[NH-]S(=O)(=O)c1ccc([N-]C(=O)CCS(=O)(=O)c2ccccc2)cc1 (3D coordinates assigned)
[NH-]S(=O)(=O)c1ccc([N-]C(=O)CCS(=O)(=O)c2ccccc2)cc1 (optimized conformer: 38.1732616597294 kcal/mol)

>  <smiles>  (47) 
NS(=O)(=O)c1ccc(NC(=O)CCS(=O)(=O)c2ccccc2)cc1

>  <score_type>  (47) 
oracle

>  <origin>  (47) 
adg

>  <m_score__min__energy>  (47) 
-12.109999999999999

>  <m_primary>  (47) 
energy

$$$$
47:0
     RDKit          3D

 57 58  0  0  0  0  0  0  0  0999 V2000
   59.5540   35.0750   45.7420 C   0  0  0  0  0  0  0  0  0  0  0  0
   58.5640   34.2630   44.9080 C   0  0  0  0  0  0  0  0  0  0  0  0
   57.4420   33.6700   45.7720 C   0  0  0  0  0  0  0  0  0  0  0  0
   57.9360   32.5120   46.5580 N   0  0  0  0  0  0  0  0  0  0  0  0
   58.3590   32.9140   47.9240 C   0  0  0  0  0  0  0  0  0  0  0  0
   59.4720   31.9880   48.4340 C   0  0  0  0  0  0  0  0  0  0  0  0
   58.9250   30.7520   49.1440 C   0  0  0  0  0  0  0  0  0  0  0  0
   59.0220   31.8060   45.8440 C   0  0  0  0  0  0  0  0  0  0  0  0
   58.6090   30.3960   45.4980 C   0  0  0  0  0  0  0  0  0  0  0  0
   59.5820   29.4240   45.2190 C   0  0  0  0  0  0  0  0  0  0  0  0
   59.2050   28.1100   44.9340 C   0  0  0  0  0  0  0  0  0  0  0  0
   57.8490   27.7480   44.9100 C   0  0  0  0  0  0  0  0  0  0  0  0
   57.4640   26.3130   44.6630 C   0  0  0  0  0  0  0  0  0  0  0  0
   56.5870   25.8570   45.7490 N   0  0  0  0  0  0  0  0  0  0  0  0
   57.2610   24.9620   46.7050 C   0  0  0  0  0  0  0  0  0  0  0  0
   56.3170   24.3860   47.7790 C   0  0  0  0  0  0  0  0  0  0  0  0
   55.3030   23.4230   47.2140 C   0  0  0  0  0  0  0  0  0  0  0  0
   55.1600   22.1400   47.7690 C   0  0  0  0  0  0  0  0  0  0  0  0
   54.2200   21.2470   47.2480 C   0  0  0  0  0  0  0  0  0  0  0  0
   53.4200   21.6210   46.1640 C   0  0  0  0  0  0  0  0  0  0  0  0
   52.4880   20.7250   45.6520 O   0  0  0  0  0  0  0  0  0  0  0  0
   53.5600   22.8940   45.5950 C   0  0  0  0  0  0  0  0  0  0  0  0
   52.7590   23.2600   44.5140 O   0  0  0  0  0  0  0  0  0  0  0  0
   54.5040   23.7910   46.1170 C   0  0  0  0  0  0  0  0  0  0  0  0
   56.8720   28.7190   45.1990 C   0  0  0  0  0  0  0  0  0  0  0  0
   55.5230   28.3850   45.2160 O   0  0  0  0  0  0  0  0  0  0  0  0
   57.2530   30.0350   45.4800 C   0  0  0  0  0  0  0  0  0  0  0  0
   59.3539   34.9109   46.8111 H   0  0  0  0  0  0  0  0  0  0  0  0
   60.5800   34.7549   45.5076 H   0  0  0  0  0  0  0  0  0  0  0  0
   59.4408   36.1438   45.5076 H   0  0  0  0  0  0  0  0  0  0  0  0
   58.1177   34.9194   44.1464 H   0  0  0  0  0  0  0  0  0  0  0  0
   59.1119   33.4312   44.4413 H   0  0  0  0  0  0  0  0  0  0  0  0
   57.0721   34.4425   46.4622 H   0  0  0  0  0  0  0  0  0  0  0  0
   56.6326   33.3269   45.1108 H   0  0  0  0  0  0  0  0  0  0  0  0
   58.7318   33.9486   47.8982 H   0  0  0  0  0  0  0  0  0  0  0  0
   57.4953   32.8401   48.6011 H   0  0  0  0  0  0  0  0  0  0  0  0
   60.0802   31.6624   47.5772 H   0  0  0  0  0  0  0  0  0  0  0  0
   60.0703   32.5546   49.1627 H   0  0  0  0  0  0  0  0  0  0  0  0
   58.9888   30.8962   50.2326 H   0  0  0  0  0  0  0  0  0  0  0  0
   57.8747   30.5981   48.8555 H   0  0  0  0  0  0  0  0  0  0  0  0
   59.5174   29.8712   48.8555 H   0  0  0  0  0  0  0  0  0  0  0  0
   59.2576   32.3502   44.9176 H   0  0  0  0  0  0  0  0  0  0  0  0
   59.9048   31.7638   46.4989 H   0  0  0  0  0  0  0  0  0  0  0  0
   60.6472   29.6986   45.2248 H   0  0  0  0  0  0  0  0  0  0  0  0
   59.9760   27.3533   44.7268 H   0  0  0  0  0  0  0  0  0  0  0  0
   56.9329   26.2341   43.7029 H   0  0  0  0  0  0  0  0  0  0  0  0
   58.3681   25.6873   44.6293 H   0  0  0  0  0  0  0  0  0  0  0  0
   56.1900   26.6870   46.2480 H   0  0  0  0  0  0  0  0  0  0  0  0
   57.7037   24.1248   46.1454 H   0  0  0  0  0  0  0  0  0  0  0  0
   58.0200   25.5613   47.2292 H   0  0  0  0  0  0  0  0  0  0  0  0
   56.9217   23.8578   48.5309 H   0  0  0  0  0  0  0  0  0  0  0  0
   55.7629   25.2289   48.2177 H   0  0  0  0  0  0  0  0  0  0  0  0
   55.7910   21.8372   48.6176 H   0  0  0  0  0  0  0  0  0  0  0  0
   54.1091   20.2467   47.6920 H   0  0  0  0  0  0  0  0  0  0  0  0
   52.1600   22.5890   44.0470 H   0  0  0  0  0  0  0  0  0  0  0  0
   54.6197   24.7875   45.6657 H   0  0  0  0  0  0  0  0  0  0  0  0
   56.4837   30.7931   45.6885 H   0  0  0  0  0  0  0  0  0  0  0  0
  1  2  1  0
  2  3  1  0
  3  4  1  0
  4  5  1  0
  5  6  1  0
  6  7  1  0
  4  8  1  0
  8  9  1  0
  9 10  2  0
 10 11  1  0
 11 12  2  0
 12 13  1  0
 13 14  1  0
 14 15  1  0
 15 16  1  0
 16 17  1  0
 17 18  2  0
 18 19  1  0
 19 20  2  0
 20 21  1  0
 20 22  1  0
 22 23  1  0
 22 24  2  0
 12 25  1  0
 25 26  1  0
 25 27  2  0
 27  9  1  0
 24 17  1  0
  1 28  1  0
  1 29  1  0
  1 30  1  0
  2 31  1  0
  2 32  1  0
  3 33  1  0
  3 34  1  0
  5 35  1  0
  5 36  1  0
  6 37  1  0
  6 38  1  0
  7 39  1  0
  7 40  1  0
  7 41  1  0
  8 42  1  0
  8 43  1  0
 10 44  1  0
 11 45  1  0
 13 46  1  0
 13 47  1  0
 14 48  1  0
 15 49  1  0
 15 50  1  0
 16 51  1  0
 16 52  1  0
 18 53  1  0
 19 54  1  0
 23 55  1  0
 24 56  1  0
 27 57  1  0
M  CHG  2  21  -1  26  -1
M  END
>  <UniqueID>  (48) 
46

>  <SMILES>  (48) 
CCCN(CCC)Cc1ccc(CNCCc2ccc([O-])c(O)c2)c([O-])c1

>  <Energy>  (48) 
50.09370820753688

>  <Genealogy>  (48) 
CCCN(CCC)Cc1ccc(CNCCc2ccc([O-])c(O)c2)c([O-])c1 (protonated)
CCCN(CCC)Cc1ccc(CNCCc2ccc([O-])c(O)c2)c([O-])c1 (3D coordinates assigned)
CCCN(CCC)Cc1ccc(CNCCc2ccc([O-])c(O)c2)c([O-])c1 (optimized conformer: 50.09370820753688 kcal/mol)

>  <smiles>  (48) 
CCCN(CCC)Cc1ccc(CNCCc2ccc(O)c(O)c2)c(O)c1

>  <score_type>  (48) 
oracle

>  <origin>  (48) 
adg

>  <m_score__min__energy>  (48) 
-13.33

>  <m_primary>  (48) 
energy

$$$$
48:0
     RDKit          3D

 35 36  0  0  0  0  0  0  0  0999 V2000
   55.6436   22.5939   42.1637 H   0  0  0  0  0  0  0  0  0  0  0  0
   56.1950   22.6260   43.1150 C   0  0  0  0  0  0  0  0  0  0  0  0
   55.8930   23.5710   44.0440 N   0  0  0  0  0  0  0  0  0  0  0  0
   56.5540   23.6530   45.2350 C   0  0  0  0  0  0  0  0  0  0  0  0
   56.2430   24.5510   46.1260 N   0  0  0  0  0  0  0  0  0  0  0  0
   55.9620   25.9460   45.9230 C   0  0  0  0  0  0  0  0  0  0  0  0
   54.7690   26.3370   46.0340 O   0  0  0  0  0  0  0  0  0  0  0  0
   57.0360   26.9510   45.5860 C   0  0  0  0  0  0  0  0  0  0  0  0
   57.5130   26.6623   44.6378 H   0  0  0  0  0  0  0  0  0  0  0  0
   57.7726   26.9613   46.4029 H   0  0  0  0  0  0  0  0  0  0  0  0
   56.4770   28.2950   45.4490 N   0  0  0  0  0  0  0  0  0  0  0  0
   55.4440   28.4130   45.5460 H   0  0  0  0  0  0  0  0  0  0  0  0
   57.2850   29.4280   45.0900 C   0  0  0  0  0  0  0  0  0  0  0  0
   58.4850   29.2630   44.7460 O   0  0  0  0  0  0  0  0  0  0  0  0
   56.7280   30.7470   45.0500 N   0  0  0  0  0  0  0  0  0  0  0  0
   57.4590   31.9770   45.1730 C   0  0  0  0  0  0  0  0  0  0  0  0
   57.7200   32.5390   46.4360 C   0  0  0  0  0  0  0  0  0  0  0  0
   57.3411   32.0449   47.3428 H   0  0  0  0  0  0  0  0  0  0  0  0
   58.4570   33.7200   46.5460 C   0  0  0  0  0  0  0  0  0  0  0  0
   58.6461   34.1591   47.5367 H   0  0  0  0  0  0  0  0  0  0  0  0
   58.9540   34.3440   45.4010 C   0  0  0  0  0  0  0  0  0  0  0  0
   59.5256   35.2797   45.4892 H   0  0  0  0  0  0  0  0  0  0  0  0
   58.7260   33.7810   44.1420 C   0  0  0  0  0  0  0  0  0  0  0  0
   59.1272   34.2713   43.2427 H   0  0  0  0  0  0  0  0  0  0  0  0
   57.9870   32.5920   44.0190 C   0  0  0  0  0  0  0  0  0  0  0  0
   57.7490   31.9940   42.6600 C   0  0  0  0  0  0  0  0  0  0  0  0
   57.3444   30.9773   42.7725 H   0  0  0  0  0  0  0  0  0  0  0  0
   57.0298   32.6157   42.1067 H   0  0  0  0  0  0  0  0  0  0  0  0
   58.6987   31.9515   42.1067 H   0  0  0  0  0  0  0  0  0  0  0  0
   57.5650   22.7280   45.5220 C   0  0  0  0  0  0  0  0  0  0  0  0
   58.0987   22.7724   46.4828 H   0  0  0  0  0  0  0  0  0  0  0  0
   57.8920   21.7490   44.5820 C   0  0  0  0  0  0  0  0  0  0  0  0
   58.6886   21.0216   44.7973 H   0  0  0  0  0  0  0  0  0  0  0  0
   57.2050   21.6960   43.3680 C   0  0  0  0  0  0  0  0  0  0  0  0
   57.4565   20.9303   42.6194 H   0  0  0  0  0  0  0  0  0  0  0  0
  1  2  1  0
  2  3  1  0
  3  4  1  0
  4  5  2  0
  5  6  1  0
  6  7  2  0
  6  8  1  0
  8  9  1  0
  8 10  1  0
  8 11  1  0
 11 12  1  0
 11 13  1  0
 13 14  2  0
 13 15  1  0
 15 16  1  0
 16 17  2  0
 17 18  1  0
 17 19  1  0
 19 20  1  0
 19 21  2  0
 21 22  1  0
 21 23  1  0
 23 24  1  0
 23 25  2  0
 25 26  1  0
 26 27  1  0
 26 28  1  0
 26 29  1  0
  4 30  1  0
 30 31  1  0
 30 32  2  0
 32 33  1  0
 32 34  1  0
 34 35  1  0
 34  2  2  0
 25 16  1  0
M  CHG  2   3  -1  15  -1
M  END
>  <UniqueID>  (49) 
47

>  <SMILES>  (49) 
Cc1ccccc1[N-]C(=O)NCC(=O)/N=c1/cccc[n-]1

>  <Energy>  (49) 
42.64976090677192

>  <Genealogy>  (49) 
Cc1ccccc1[N-]C(=O)NCC(=O)N=c1cccc[n-]1 (protonated)
Cc1ccccc1[N-]C(=O)NCC(=O)/N=c1/cccc[n-]1 (cis-trans isomerization)
Cc1ccccc1[N-]C(=O)NCC(=O)/N=c1/cccc[n-]1 (3D coordinates assigned)
Cc1ccccc1[N-]C(=O)NCC(=O)/N=c1/cccc[n-]1 (optimized conformer: 42.64976090677192 kcal/mol)

>  <smiles>  (49) 
Cc1ccccc1NC(=O)NCC(=O)N=c1cccc[nH]1

>  <score_type>  (49) 
oracle

>  <origin>  (49) 
adg

>  <m_score__min__energy>  (49) 
-11.06

>  <m_primary>  (49) 
energy

$$$$
49:0
     RDKit          3D

 84 87  0  0  0  0  0  0  0  0999 V2000
   55.5090   26.0690   45.9930 C   0  0  0  0  0  0  0  0  0  0  0  0
   54.4010   25.1600   45.7430 N   0  0  0  0  0  0  0  0  0  0  0  0
   54.5130   24.0480   44.8510 C   0  0  0  0  0  0  0  0  0  0  0  0
   53.7640   23.0410   44.9890 O   0  0  0  0  0  0  0  0  0  0  0  0
   55.5310   24.0800   43.7540 C   0  0  0  0  0  0  0  0  0  0  0  0
   56.0650   22.6670   43.4490 C   0  0  0  0  0  0  0  0  0  0  0  0
   57.4050   22.3830   44.1510 C   0  0  0  0  0  0  0  0  0  0  0  0
   57.5230   23.1160   45.4550 C   0  0  0  0  0  0  0  0  0  0  0  0
   56.8920   22.6330   46.6110 C   0  0  0  0  0  0  0  0  0  0  0  0
   56.9980   23.3560   47.8130 C   0  0  0  0  0  0  0  0  0  0  0  0
   56.3670   22.9460   48.9990 O   0  0  0  0  0  0  0  0  0  0  0  0
   55.1370   22.2280   49.0540 C   0  0  0  0  0  0  0  0  0  0  0  0
   57.7550   24.5270   47.8320 C   0  0  0  0  0  0  0  0  0  0  0  0
   58.3600   24.9880   46.6560 C   0  0  0  0  0  0  0  0  0  0  0  0
   59.2520   26.0990   46.7190 N   0  0  0  0  0  0  0  0  0  0  0  0
   59.0520   27.3790   46.5610 C   0  0  0  0  0  0  0  0  0  0  0  0
   58.4820   27.7530   45.3820 N   0  0  0  0  0  0  0  0  0  0  0  0
   58.2140   29.0390   45.0800 C   0  0  0  0  0  0  0  0  0  0  0  0
   58.5320   30.0390   45.9940 C   0  0  0  0  0  0  0  0  0  0  0  0
   58.2570   31.4520   45.6700 C   0  0  0  0  0  0  0  0  0  0  0  0
   59.1360   32.4310   46.1500 C   0  0  0  0  0  0  0  0  0  0  0  0
   58.8260   33.7920   46.0080 C   0  0  0  0  0  0  0  0  0  0  0  0
   59.6820   34.8120   46.6380 C   0  0  0  0  0  0  0  0  0  0  0  0
   60.0130   35.8450   45.9890 O   0  0  0  0  0  0  0  0  0  0  0  0
   60.2010   34.5790   47.9520 N   0  0  0  0  0  0  0  0  0  0  0  0
   61.4500   33.6540   48.2110 S   0  0  2  0  0  0  0  0  0  0  0  0
   62.6120   33.8420   46.8670 C   0  0  0  0  0  0  0  0  0  0  0  0
   61.0340   32.2110   48.2860 O   0  0  0  0  0  0  0  0  0  0  0  0
   62.1440   34.0940   49.8000 C   0  0  0  0  0  0  0  0  0  0  0  0
   61.4020   33.4350   50.9740 C   0  0  0  0  0  0  0  0  0  0  0  0
   59.8790   33.5530   50.8200 C   0  0  0  0  0  0  0  0  0  0  0  0
   59.1970   32.3560   51.3580 N   0  0  0  0  0  0  0  0  0  0  0  0
   59.0600   31.3340   50.3050 C   0  0  0  0  0  0  0  0  0  0  0  0
   58.3150   30.1150   50.8600 C   0  0  0  0  0  0  0  0  0  0  0  0
   57.0320   30.4790   51.3250 O   0  0  0  0  0  0  0  0  0  0  0  0
   57.1610   31.4180   52.3800 C   0  0  0  0  0  0  0  0  0  0  0  0
   57.8620   32.6920   51.8880 C   0  0  0  0  0  0  0  0  0  0  0  0
   57.6400   34.1510   45.3520 C   0  0  0  0  0  0  0  0  0  0  0  0
   56.8150   33.1880   44.8620 N   0  0  0  0  0  0  0  0  0  0  0  0
   57.0750   31.8620   45.0080 C   0  0  0  0  0  0  0  0  0  0  0  0
   56.2040   31.0020   44.5690 N   0  0  0  0  0  0  0  0  0  0  0  0
   59.1170   29.6680   47.2080 C   0  0  0  0  0  0  0  0  0  0  0  0
   59.4020   28.3540   47.4850 N   0  0  0  0  0  0  0  0  0  0  0  0
   60.0940   28.0790   48.7560 C   0  0  0  0  0  0  0  0  0  0  0  0
   58.2510   24.2630   45.5150 N   0  0  0  0  0  0  0  0  0  0  0  0
   55.6505   26.1851   47.0777 H   0  0  0  0  0  0  0  0  0  0  0  0
   56.4268   25.6603   45.5452 H   0  0  0  0  0  0  0  0  0  0  0  0
   55.2875   27.0490   45.5452 H   0  0  0  0  0  0  0  0  0  0  0  0
   55.0671   24.4922   42.8458 H   0  0  0  0  0  0  0  0  0  0  0  0
   56.3734   24.7086   44.0783 H   0  0  0  0  0  0  0  0  0  0  0  0
   55.3243   21.9282   43.7890 H   0  0  0  0  0  0  0  0  0  0  0  0
   56.2331   22.5985   42.3641 H   0  0  0  0  0  0  0  0  0  0  0  0
   57.4836   21.3027   44.3425 H   0  0  0  0  0  0  0  0  0  0  0  0
   58.2142   22.7302   43.4917 H   0  0  0  0  0  0  0  0  0  0  0  0
   56.3181   21.6951   46.5778 H   0  0  0  0  0  0  0  0  0  0  0  0
   54.8551   22.0635   50.1045 H   0  0  0  0  0  0  0  0  0  0  0  0
   54.3505   22.8089   48.5500 H   0  0  0  0  0  0  0  0  0  0  0  0
   55.2561   21.2575   48.5500 H   0  0  0  0  0  0  0  0  0  0  0  0
   57.8769   25.0883   48.7701 H   0  0  0  0  0  0  0  0  0  0  0  0
   57.7472   29.2962   44.1178 H   0  0  0  0  0  0  0  0  0  0  0  0
   60.0738   32.1315   46.6406 H   0  0  0  0  0  0  0  0  0  0  0  0
   63.6206   34.0052   47.2745 H   0  0  0  0  0  0  0  0  0  0  0  0
   62.6088   32.9317   46.2495 H   0  0  0  0  0  0  0  0  0  0  0  0
   62.3220   34.7049   46.2495 H   0  0  0  0  0  0  0  0  0  0  0  0
   63.1964   33.7748   49.8250 H   0  0  0  0  0  0  0  0  0  0  0  0
   62.0468   35.1837   49.9150 H   0  0  0  0  0  0  0  0  0  0  0  0
   61.6748   32.3702   51.0157 H   0  0  0  0  0  0  0  0  0  0  0  0
   61.6946   33.9530   51.8992 H   0  0  0  0  0  0  0  0  0  0  0  0
   59.5301   34.4417   51.3664 H   0  0  0  0  0  0  0  0  0  0  0  0
   59.6410   33.6402   49.7496 H   0  0  0  0  0  0  0  0  0  0  0  0
   58.4950   31.7538   49.4597 H   0  0  0  0  0  0  0  0  0  0  0  0
   60.0597   31.0256   49.9653 H   0  0  0  0  0  0  0  0  0  0  0  0
   58.2099   29.3635   50.0637 H   0  0  0  0  0  0  0  0  0  0  0  0
   58.8910   29.7035   51.7019 H   0  0  0  0  0  0  0  0  0  0  0  0
   56.1607   31.6783   52.7563 H   0  0  0  0  0  0  0  0  0  0  0  0
   57.7648   30.9687   53.1822 H   0  0  0  0  0  0  0  0  0  0  0  0
   57.2599   33.1561   51.0930 H   0  0  0  0  0  0  0  0  0  0  0  0
   57.9713   33.3935   52.7282 H   0  0  0  0  0  0  0  0  0  0  0  0
   57.3769   35.2125   45.2338 H   0  0  0  0  0  0  0  0  0  0  0  0
   55.2610   30.8660   44.9920 H   0  0  0  0  0  0  0  0  0  0  0  0
   59.3529   30.4416   47.9536 H   0  0  0  0  0  0  0  0  0  0  0  0
   59.4347   28.3410   49.5966 H   0  0  0  0  0  0  0  0  0  0  0  0
   60.3503   27.0107   48.8102 H   0  0  0  0  0  0  0  0  0  0  0  0
   61.0137   28.6800   48.8102 H   0  0  0  0  0  0  0  0  0  0  0  0
  1  2  1  0
  2  3  1  0
  3  4  2  0
  3  5  1  0
  5  6  1  0
  6  7  1  0
  7  8  1  0
  8  9  2  0
  9 10  1  0
 10 11  1  0
 11 12  1  0
 10 13  2  0
 13 14  1  0
 14 15  1  0
 15 16  2  3
 16 17  1  0
 17 18  2  0
 18 19  1  0
 19 20  1  0
 20 21  2  0
 21 22  1  0
 22 23  1  0
 23 24  2  0
 23 25  1  0
 25 26  2  0
 26 27  1  6
 26 28  2  0
 26 29  1  0
 29 30  1  0
 30 31  1  0
 31 32  1  0
 32 33  1  0
 33 34  1  0
 34 35  1  0
 35 36  1  0
 36 37  1  0
 22 38  2  0
 38 39  1  0
 39 40  1  0
 40 41  2  3
 19 42  2  0
 42 43  1  0
 43 44  1  0
 14 45  2  0
 45  8  1  0
 43 16  1  0
 40 20  1  0
 37 32  1  0
  1 46  1  0
  1 47  1  0
  1 48  1  0
  5 49  1  0
  5 50  1  0
  6 51  1  0
  6 52  1  0
  7 53  1  0
  7 54  1  0
  9 55  1  0
 12 56  1  0
 12 57  1  0
 12 58  1  0
 13 59  1  0
 18 60  1  0
 21 61  1  0
 27 62  1  0
 27 63  1  0
 27 64  1  0
 29 65  1  0
 29 66  1  0
 30 67  1  0
 30 68  1  0
 31 69  1  0
 31 70  1  0
 33 71  1  0
 33 72  1  0
 34 73  1  0
 34 74  1  0
 36 75  1  0
 36 76  1  0
 37 77  1  0
 37 78  1  0
 38 79  1  0
 41 80  1  0
 42 81  1  0
 44 82  1  0
 44 83  1  0
 44 84  1  0
M  CHG  2   2  -1  39  -1
M  END
>  <UniqueID>  (50) 
48

>  <SMILES>  (50) 
C[N-]C(=O)CCCc1cc(OC)cc(N=c2ncc(-c3cc(C(=O)N=[S@](C)(=O)CCCN4CCOCC4)c[n-]c3=N)cn2C)n1

>  <Energy>  (50) 
110.97030418062423

>  <Genealogy>  (50) 
C[N-]C(=O)CCCc1cc(OC)cc(N=c2ncc(-c3cc(C(=O)N=S(C)(=O)CCCN4CCOCC4)c[n-]c3=N)cn2C)n1 (protonated)
C[N-]C(=O)CCCc1cc(OC)cc(N=c2ncc(-c3cc(C(=O)N=[S@](C)(=O)CCCN4CCOCC4)c[n-]c3=N)cn2C)n1 (chirality)
C[N-]C(=O)CCCc1cc(OC)cc(N=c2ncc(-c3cc(C(=O)N=[S@](C)(=O)CCCN4CCOCC4)c[n-]c3=N)cn2C)n1 (3D coordinates assigned)
C[N-]C(=O)CCCc1cc(OC)cc(N=c2ncc(-c3cc(C(=O)N=[S@](C)(=O)CCCN4CCOCC4)c[n-]c3=N)cn2C)n1 (nonaromatic ring conformer: 110.97030418062423 kcal/mol)

>  <smiles>  (50) 
CNC(=O)CCCc1cc(OC)cc(N=c2ncc(-c3cc(C(=O)N=S(C)(=O)CCCN4CCOCC4)c[nH]c3=N)cn2C)n1

>  <score_type>  (50) 
oracle

>  <origin>  (50) 
adg

>  <m_score__min__energy>  (50) 
-15.5

>  <m_primary>  (50) 
energy

$$$$
50:0
     RDKit          3D

 44 47  0  0  0  0  0  0  0  0999 V2000
   55.9140   25.4750   46.5520 O   0  0  0  0  0  0  0  0  0  0  0  0
   56.5440   26.3900   45.9610 C   0  0  0  0  0  0  0  0  0  0  0  0
   57.9720   26.1830   45.5450 C   0  0  0  0  0  0  0  0  0  0  0  0
   58.6800   27.4690   45.5160 N   0  0  0  0  0  0  0  0  0  0  0  0
   60.2400   27.6120   46.2800 S   0  0  0  0  0  0  0  0  0  0  0  0
   61.1450   28.4930   45.4640 O   0  0  0  0  0  0  0  0  0  0  0  0
   60.8570   26.2460   46.3930 O   0  0  0  0  0  0  0  0  0  0  0  0
   60.0710   28.3530   47.8700 C   0  0  0  0  0  0  0  0  0  0  0  0
   60.4010   27.6150   49.0090 C   0  0  0  0  0  0  0  0  0  0  0  0
   60.2920   28.1910   50.2740 C   0  0  0  0  0  0  0  0  0  0  0  0
   59.8450   29.5090   50.4210 C   0  0  0  0  0  0  0  0  0  0  0  0
   59.8220   30.1770   52.0510 Cl  0  0  0  0  0  0  0  0  0  0  0  0
   59.4930   30.2660   49.2750 C   0  0  0  0  0  0  0  0  0  0  0  0
   58.9920   31.6600   49.3590 C   0  0  0  0  0  0  0  0  0  0  0  0
   57.9560   31.9050   50.0350 O   0  0  0  0  0  0  0  0  0  0  0  0
   59.6720   32.7220   48.6760 N   0  0  0  0  0  0  0  0  0  0  0  0
   59.2460   33.3830   47.4760 C   0  0  0  0  0  0  0  0  0  0  0  0
   60.0640   34.3100   46.8030 C   0  0  0  0  0  0  0  0  0  0  0  0
   59.6170   34.9120   45.6220 C   0  0  0  0  0  0  0  0  0  0  0  0
   58.3640   34.5870   45.0980 C   0  0  0  0  0  0  0  0  0  0  0  0
   57.5570   33.6490   45.7490 C   0  0  0  0  0  0  0  0  0  0  0  0
   56.3460   33.3240   45.2350 F   0  0  0  0  0  0  0  0  0  0  0  0
   58.0010   33.0440   46.9290 C   0  0  0  0  0  0  0  0  0  0  0  0
   59.6220   29.6730   48.0040 C   0  0  0  0  0  0  0  0  0  0  0  0
   58.0130   28.6150   44.9490 C   0  0  0  0  0  0  0  0  0  0  0  0
   58.7230   29.6540   44.3220 C   0  0  0  0  0  0  0  0  0  0  0  0
   58.0390   30.7620   43.8110 C   0  0  0  0  0  0  0  0  0  0  0  0
   56.6470   30.8380   43.9140 C   0  0  0  0  0  0  0  0  0  0  0  0
   55.9310   29.7990   44.5170 C   0  0  0  0  0  0  0  0  0  0  0  0
   56.6090   28.6850   45.0210 C   0  0  0  0  0  0  0  0  0  0  0  0
   55.8800   27.6070   45.6170 N   0  0  0  0  0  0  0  0  0  0  0  0
   58.4664   25.5115   46.2624 H   0  0  0  0  0  0  0  0  0  0  0  0
   57.9934   25.7372   44.5396 H   0  0  0  0  0  0  0  0  0  0  0  0
   60.7480   26.5761   48.9077 H   0  0  0  0  0  0  0  0  0  0  0  0
   60.5599   27.6040   51.1649 H   0  0  0  0  0  0  0  0  0  0  0  0
   61.0561   34.5614   47.2063 H   0  0  0  0  0  0  0  0  0  0  0  0
   60.2546   35.6438   45.1044 H   0  0  0  0  0  0  0  0  0  0  0  0
   58.0122   35.0686   44.1737 H   0  0  0  0  0  0  0  0  0  0  0  0
   57.3688   32.2970   47.4313 H   0  0  0  0  0  0  0  0  0  0  0  0
   59.3669   30.2538   47.1053 H   0  0  0  0  0  0  0  0  0  0  0  0
   59.8178   29.5955   44.2332 H   0  0  0  0  0  0  0  0  0  0  0  0
   58.5982   31.5760   43.3266 H   0  0  0  0  0  0  0  0  0  0  0  0
   56.1142   31.7161   43.5203 H   0  0  0  0  0  0  0  0  0  0  0  0
   54.8353   29.8582   44.5947 H   0  0  0  0  0  0  0  0  0  0  0  0
  1  2  2  0
  2  3  1  0
  3  4  1  0
  4  5  1  0
  5  6  2  0
  5  7  2  0
  5  8  1  0
  8  9  2  0
  9 10  1  0
 10 11  2  0
 11 12  1  0
 11 13  1  0
 13 14  1  0
 14 15  2  0
 14 16  1  0
 16 17  1  0
 17 18  2  0
 18 19  1  0
 19 20  2  0
 20 21  1  0
 21 22  1  0
 21 23  2  0
 13 24  2  0
  4 25  1  0
 25 26  2  0
 26 27  1  0
 27 28  2  0
 28 29  1  0
 29 30  2  0
 30 31  1  0
 31  2  1  0
 24  8  1  0
 30 25  1  0
 23 17  1  0
  3 32  1  0
  3 33  1  0
  9 34  1  0
 10 35  1  0
 18 36  1  0
 19 37  1  0
 20 38  1  0
 23 39  1  0
 24 40  1  0
 26 41  1  0
 27 42  1  0
 28 43  1  0
 29 44  1  0
M  CHG  2  16  -1  31  -1
M  END
>  <UniqueID>  (51) 
49

>  <SMILES>  (51) 
O=C1CN(S(=O)(=O)c2ccc(Cl)c(C(=O)[N-]c3cccc(F)c3)c2)c2ccccc2[N-]1

>  <Energy>  (51) 
63.194417690891804

>  <Genealogy>  (51) 
O=C1CN(S(=O)(=O)c2ccc(Cl)c(C(=O)[N-]c3cccc(F)c3)c2)c2ccccc2[N-]1 (protonated)
O=C1CN(S(=O)(=O)c2ccc(Cl)c(C(=O)[N-]c3cccc(F)c3)c2)c2ccccc2[N-]1 (3D coordinates assigned)
O=C1CN(S(=O)(=O)c2ccc(Cl)c(C(=O)[N-]c3cccc(F)c3)c2)c2ccccc2[N-]1 (nonaromatic ring conformer: 63.194417690891804 kcal/mol)

>  <smiles>  (51) 
O=C1CN(S(=O)(=O)c2ccc(Cl)c(C(=O)Nc3cccc(F)c3)c2)c2ccccc2N1

>  <score_type>  (51) 
oracle

>  <origin>  (51) 
adg

>  <m_score__min__energy>  (51) 
-12.32

>  <m_primary>  (51) 
energy

$$$$
51:0
     RDKit          3D

 50 52  0  0  0  0  0  0  0  0999 V2000
   57.4750   26.1830   43.0080 N   0  0  0  0  0  0  0  0  0  0  0  0
   57.3970   24.7900   43.3280 C   0  0  0  0  0  0  0  0  0  0  0  0
   56.2960   24.1000   43.2180 N   0  0  0  0  0  0  0  0  0  0  0  0
   55.3880   23.7770   44.3220 C   0  0  0  0  0  0  0  0  0  0  0  0
   55.8100   22.4940   45.0620 C   0  0  0  0  0  0  0  0  0  0  0  0
   56.4340   22.7590   46.4450 C   0  0  0  0  0  0  0  0  0  0  0  0
   55.9450   24.0690   47.0780 C   0  0  0  0  0  0  0  0  0  0  0  0
   56.6950   25.2340   46.5110 C   0  0  0  0  0  0  0  0  0  0  0  0
   58.0380   25.2710   46.3620 N   0  0  0  0  0  0  0  0  0  0  0  0
   58.2580   26.4680   45.7740 C   0  0  0  0  0  0  0  0  0  0  0  0
   59.4100   26.8850   45.4830 O   0  0  0  0  0  0  0  0  0  0  0  0
   57.1320   27.1670   45.5330 N   0  0  0  0  0  0  0  0  0  0  0  0
   56.9850   28.7480   44.8370 S   0  0  0  0  0  0  0  0  0  0  0  0
   57.3020   28.6890   43.3680 O   0  0  0  0  0  0  0  0  0  0  0  0
   55.5740   29.2410   44.9910 O   0  0  0  0  0  0  0  0  0  0  0  0
   58.0980   29.8410   45.6490 C   0  0  0  0  0  0  0  0  0  0  0  0
   58.8540   29.3940   46.7390 C   0  0  0  0  0  0  0  0  0  0  0  0
   59.7550   30.2560   47.3720 C   0  0  0  0  0  0  0  0  0  0  0  0
   59.9180   31.5770   46.9180 C   0  0  0  0  0  0  0  0  0  0  0  0
   60.8760   32.4930   47.5890 C   0  0  0  0  0  0  0  0  0  0  0  0
   62.2330   32.5110   47.2110 C   0  0  0  0  0  0  0  0  0  0  0  0
   63.1330   33.3740   47.8450 C   0  0  0  0  0  0  0  0  0  0  0  0
   62.6900   34.2260   48.8590 C   0  0  0  0  0  0  0  0  0  0  0  0
   61.3480   34.2180   49.2420 C   0  0  0  0  0  0  0  0  0  0  0  0
   60.4440   33.3570   48.6120 C   0  0  0  0  0  0  0  0  0  0  0  0
   59.1610   32.0150   45.8160 C   0  0  0  0  0  0  0  0  0  0  0  0
   58.2600   31.1520   45.1860 C   0  0  0  0  0  0  0  0  0  0  0  0
   56.1460   26.3900   46.0000 C   0  0  0  0  0  0  0  0  0  0  0  0
   54.7940   26.7160   45.9670 O   0  0  0  0  0  0  0  0  0  0  0  0
   56.6740   26.7250   42.6190 H   0  0  0  0  0  0  0  0  0  0  0  0
   58.3820   26.6840   43.1370 H   0  0  0  0  0  0  0  0  0  0  0  0
   58.3049   24.2796   43.6819 H   0  0  0  0  0  0  0  0  0  0  0  0
   56.0210   23.7740   42.2640 H   0  0  0  0  0  0  0  0  0  0  0  0
   55.3857   24.6139   45.0359 H   0  0  0  0  0  0  0  0  0  0  0  0
   54.3862   23.6106   43.8993 H   0  0  0  0  0  0  0  0  0  0  0  0
   54.9203   21.8614   45.1970 H   0  0  0  0  0  0  0  0  0  0  0  0
   56.5806   22.0051   44.4479 H   0  0  0  0  0  0  0  0  0  0  0  0
   56.1718   21.9262   47.1141 H   0  0  0  0  0  0  0  0  0  0  0  0
   57.5218   22.8446   46.3062 H   0  0  0  0  0  0  0  0  0  0  0  0
   54.8718   24.1932   46.8709 H   0  0  0  0  0  0  0  0  0  0  0  0
   56.1179   24.0273   48.1635 H   0  0  0  0  0  0  0  0  0  0  0  0
   58.7389   28.3609   47.0989 H   0  0  0  0  0  0  0  0  0  0  0  0
   60.3407   29.8981   48.2316 H   0  0  0  0  0  0  0  0  0  0  0  0
   62.5870   31.8424   46.4125 H   0  0  0  0  0  0  0  0  0  0  0  0
   64.1911   33.3816   47.5445 H   0  0  0  0  0  0  0  0  0  0  0  0
   63.3994   34.9039   49.3562 H   0  0  0  0  0  0  0  0  0  0  0  0
   61.0008   34.8900   50.0407 H   0  0  0  0  0  0  0  0  0  0  0  0
   59.3875   33.3552   48.9184 H   0  0  0  0  0  0  0  0  0  0  0  0
   59.2791   33.0446   45.4474 H   0  0  0  0  0  0  0  0  0  0  0  0
   57.6760   31.5044   44.3230 H   0  0  0  0  0  0  0  0  0  0  0  0
  1  2  1  0
  2  3  2  3
  3  4  1  0
  4  5  1  0
  5  6  1  0
  6  7  1  0
  7  8  1  0
  8  9  1  0
  9 10  1  0
 10 11  2  0
 10 12  1  0
 12 13  1  0
 13 14  2  0
 13 15  2  0
 13 16  1  0
 16 17  2  0
 17 18  1  0
 18 19  2  0
 19 20  1  0
 20 21  2  0
 21 22  1  0
 22 23  2  0
 23 24  1  0
 24 25  2  0
 19 26  1  0
 26 27  2  0
 12 28  1  0
 28 29  1  0
 28  8  2  0
 27 16  1  0
 25 20  1  0
  1 30  1  0
  1 31  1  0
  2 32  1  0
  3 33  1  0
  4 34  1  0
  4 35  1  0
  5 36  1  0
  5 37  1  0
  6 38  1  0
  6 39  1  0
  7 40  1  0
  7 41  1  0
 17 42  1  0
 18 43  1  0
 21 44  1  0
 22 45  1  0
 23 46  1  0
 24 47  1  0
 25 48  1  0
 26 49  1  0
 27 50  1  0
M  CHG  3   3   1   9  -1  29  -1
M  END
>  <UniqueID>  (52) 
50

>  <SMILES>  (52) 
NC=[NH+]CCCCc1[n-]c(=O)n(S(=O)(=O)c2ccc(-c3ccccc3)cc2)c1[O-]

>  <Energy>  (52) 
86.06146921961245

>  <Genealogy>  (52) 
NC=[NH+]CCCCc1[n-]c(=O)n(S(=O)(=O)c2ccc(-c3ccccc3)cc2)c1[O-] (protonated)
NC=[NH+]CCCCc1[n-]c(=O)n(S(=O)(=O)c2ccc(-c3ccccc3)cc2)c1[O-] (3D coordinates assigned)
NC=[NH+]CCCCc1[n-]c(=O)n(S(=O)(=O)c2ccc(-c3ccccc3)cc2)c1[O-] (optimized conformer: 86.06146921961245 kcal/mol)

>  <smiles>  (52) 
NC=NCCCCc1[nH]c(=O)n(S(=O)(=O)c2ccc(-c3ccccc3)cc2)c1O

>  <score_type>  (52) 
oracle

>  <origin>  (52) 
adg

>  <m_score__min__energy>  (52) 
-12.4

>  <m_primary>  (52) 
energy

$$$$
52:0
     RDKit          3D

 60 65  0  0  0  0  0  0  0  0999 V2000
   68.0160   32.2180   52.1020 H   0  0  0  0  0  0  0  0  0  0  0  0
   67.6110   32.2370   51.1740 O   0  0  0  0  0  0  0  0  0  0  0  0
   66.3460   32.7710   50.9430 C   0  0  0  0  0  0  0  0  0  0  0  0
   65.8370   33.7410   51.8130 C   0  0  0  0  0  0  0  0  0  0  0  0
   66.4369   34.0766   52.6718 H   0  0  0  0  0  0  0  0  0  0  0  0
   64.5680   34.2850   51.5940 C   0  0  0  0  0  0  0  0  0  0  0  0
   64.1810   35.0619   52.2698 H   0  0  0  0  0  0  0  0  0  0  0  0
   63.7840   33.8430   50.5130 C   0  0  0  0  0  0  0  0  0  0  0  0
   62.4890   34.4040   50.2410 N   0  0  0  0  0  0  0  0  0  0  0  0
   61.3290   33.8100   50.3310 C   0  0  0  0  0  0  0  0  0  0  0  0
   60.5910   33.7360   51.6190 C   0  0  0  0  0  0  0  0  0  0  0  0
   59.1980   33.9190   51.6540 C   0  0  0  0  0  0  0  0  0  0  0  0
   58.6474   34.1179   50.7227 H   0  0  0  0  0  0  0  0  0  0  0  0
   58.5100   33.8490   52.8690 C   0  0  0  0  0  0  0  0  0  0  0  0
   57.4190   33.9876   52.8913 H   0  0  0  0  0  0  0  0  0  0  0  0
   59.2070   33.6030   54.0560 C   0  0  0  0  0  0  0  0  0  0  0  0
   58.6640   33.5456   55.0109 H   0  0  0  0  0  0  0  0  0  0  0  0
   60.5940   33.4300   54.0290 C   0  0  0  0  0  0  0  0  0  0  0  0
   61.1419   33.2408   54.9639 H   0  0  0  0  0  0  0  0  0  0  0  0
   61.2860   33.4970   52.8160 C   0  0  0  0  0  0  0  0  0  0  0  0
   62.3776   33.3622   52.7990 H   0  0  0  0  0  0  0  0  0  0  0  0
   60.7780   33.1430   49.1210 C   0  0  0  0  0  0  0  0  0  0  0  0
   60.2430   33.8950   48.0570 C   0  0  0  0  0  0  0  0  0  0  0  0
   60.2344   34.9934   48.1160 H   0  0  0  0  0  0  0  0  0  0  0  0
   59.7230   33.2580   46.9270 C   0  0  0  0  0  0  0  0  0  0  0  0
   59.3262   33.8595   46.0959 H   0  0  0  0  0  0  0  0  0  0  0  0
   59.7030   31.8590   46.8440 C   0  0  0  0  0  0  0  0  0  0  0  0
   59.1850   31.2280   45.6600 N   0  0  0  0  0  0  0  0  0  0  0  0
   59.2830   31.7380   44.7530 H   0  0  0  0  0  0  0  0  0  0  0  0
   58.5350   29.9450   45.6420 C   0  0  0  0  0  0  0  0  0  0  0  0
   57.2050   29.8530   45.2120 C   0  0  0  0  0  0  0  0  0  0  0  0
   56.6780   30.7565   44.8716 H   0  0  0  0  0  0  0  0  0  0  0  0
   56.5420   28.6220   45.2120 C   0  0  0  0  0  0  0  0  0  0  0  0
   55.5014   28.5620   44.8605 H   0  0  0  0  0  0  0  0  0  0  0  0
   57.1960   27.4610   45.6580 C   0  0  0  0  0  0  0  0  0  0  0  0
   56.4960   26.1580   45.6600 C   0  0  0  0  0  0  0  0  0  0  0  0
   57.1230   24.9800   45.3920 N   0  0  0  0  0  0  0  0  0  0  0  0
   56.1320   24.0850   45.5000 C   0  0  0  0  0  0  0  0  0  0  0  0
   56.2050   22.7050   45.3270 C   0  0  0  0  0  0  0  0  0  0  0  0
   57.1542   22.2126   45.0690 H   0  0  0  0  0  0  0  0  0  0  0  0
   55.0210   21.9630   45.4940 C   0  0  0  0  0  0  0  0  0  0  0  0
   55.0376   20.8707   45.3647 H   0  0  0  0  0  0  0  0  0  0  0  0
   53.8100   22.6130   45.8270 C   0  0  0  0  0  0  0  0  0  0  0  0
   52.8898   22.0242   45.9554 H   0  0  0  0  0  0  0  0  0  0  0  0
   53.7770   24.0110   45.9950 C   0  0  0  0  0  0  0  0  0  0  0  0
   52.8433   24.5315   46.2545 H   0  0  0  0  0  0  0  0  0  0  0  0
   54.9680   24.7110   45.8210 C   0  0  0  0  0  0  0  0  0  0  0  0
   55.1670   26.0320   45.9300 N   0  0  0  0  0  0  0  0  0  0  0  0
   58.5230   27.5580   46.1110 C   0  0  0  0  0  0  0  0  0  0  0  0
   59.0452   26.6581   46.4681 H   0  0  0  0  0  0  0  0  0  0  0  0
   59.1840   28.7900   46.1110 C   0  0  0  0  0  0  0  0  0  0  0  0
   60.2181   28.8557   46.4803 H   0  0  0  0  0  0  0  0  0  0  0  0
   60.2510   31.1050   47.8940 C   0  0  0  0  0  0  0  0  0  0  0  0
   60.2697   30.0073   47.8260 H   0  0  0  0  0  0  0  0  0  0  0  0
   60.7730   31.7390   49.0250 C   0  0  0  0  0  0  0  0  0  0  0  0
   61.1836   31.1350   49.8476 H   0  0  0  0  0  0  0  0  0  0  0  0
   64.3120   32.8970   49.6260 C   0  0  0  0  0  0  0  0  0  0  0  0
   63.7246   32.5791   48.7520 H   0  0  0  0  0  0  0  0  0  0  0  0
   65.5820   32.3540   49.8450 C   0  0  0  0  0  0  0  0  0  0  0  0
   65.9821   31.5977   49.1536 H   0  0  0  0  0  0  0  0  0  0  0  0
  1  2  1  0
  2  3  1  0
  3  4  2  0
  4  5  1  0
  4  6  1  0
  6  7  1  0
  6  8  2  0
  8  9  1  0
  9 10  2  0
 10 11  1  0
 11 12  2  0
 12 13  1  0
 12 14  1  0
 14 15  1  0
 14 16  2  0
 16 17  1  0
 16 18  1  0
 18 19  1  0
 18 20  2  0
 20 21  1  0
 10 22  1  0
 22 23  2  0
 23 24  1  0
 23 25  1  0
 25 26  1  0
 25 27  2  0
 27 28  1  0
 28 29  1  0
 28 30  1  0
 30 31  2  0
 31 32  1  0
 31 33  1  0
 33 34  1  0
 33 35  2  0
 35 36  1  0
 36 37  2  0
 37 38  1  0
 38 39  2  0
 39 40  1  0
 39 41  1  0
 41 42  1  0
 41 43  2  0
 43 44  1  0
 43 45  1  0
 45 46  1  0
 45 47  2  0
 47 48  1  0
 35 49  1  0
 49 50  1  0
 49 51  2  0
 51 52  1  0
 27 53  1  0
 53 54  1  0
 53 55  2  0
 55 56  1  0
  8 57  1  0
 57 58  1  0
 57 59  2  0
 59 60  1  0
 59  3  1  0
 20 11  1  0
 55 22  1  0
 51 30  1  0
 48 36  1  0
 47 38  1  0
M  CHG  1  48  -1
M  END
>  <UniqueID>  (53) 
51

>  <SMILES>  (53) 
Oc1ccc(/N=C(\c2ccccc2)c2ccc(Nc3ccc(-c4nc5ccccc5[n-]4)cc3)cc2)cc1

>  <Energy>  (53) 
124.05650068354359

>  <Genealogy>  (53) 
Oc1ccc(N=C(c2ccccc2)c2ccc(Nc3ccc(-c4nc5ccccc5[n-]4)cc3)cc2)cc1 (protonated)
Oc1ccc(/N=C(\c2ccccc2)c2ccc(Nc3ccc(-c4nc5ccccc5[n-]4)cc3)cc2)cc1 (cis-trans isomerization)
Oc1ccc(/N=C(\c2ccccc2)c2ccc(Nc3ccc(-c4nc5ccccc5[n-]4)cc3)cc2)cc1 (3D coordinates assigned)
Oc1ccc(/N=C(\c2ccccc2)c2ccc(Nc3ccc(-c4nc5ccccc5[n-]4)cc3)cc2)cc1 (optimized conformer: 124.05650068354359 kcal/mol)

>  <smiles>  (53) 
Oc1ccc(N=C(c2ccccc2)c2ccc(Nc3ccc(-c4nc5ccccc5[nH]4)cc3)cc2)cc1

>  <score_type>  (53) 
oracle

>  <origin>  (53) 
adg

>  <m_score__min__energy>  (53) 
-9.9299999999999997

>  <m_primary>  (53) 
energy

$$$$
53:0
     RDKit          3D

 31 32  0  0  0  0  0  0  0  0999 V2000
   59.4100   28.9950   47.3070 C   0  0  0  0  0  0  0  0  0  0  0  0
   59.5590   30.0360   48.2670 O   0  0  0  0  0  0  0  0  0  0  0  0
   59.6170   31.4010   47.9510 C   0  0  0  0  0  0  0  0  0  0  0  0
   60.0590   32.3790   48.8850 C   0  0  0  0  0  0  0  0  0  0  0  0
   60.1050   33.7380   48.5310 C   0  0  0  0  0  0  0  0  0  0  0  0
   59.7050   34.0920   47.2450 C   0  0  0  0  0  0  0  0  0  0  0  0
   59.6630   35.3240   46.6310 C   0  0  0  0  0  0  0  0  0  0  0  0
   59.2000   35.0770   45.3440 C   0  0  0  0  0  0  0  0  0  0  0  0
   58.9550   33.7560   45.1720 N   0  0  0  0  0  0  0  0  0  0  0  0
   58.5160   33.1180   43.9310 C   0  0  0  0  0  0  0  0  0  0  0  0
   57.6060   31.9690   44.2390 C   0  0  0  0  0  0  0  0  0  0  0  0
   56.6490   32.1370   45.0420 O   0  0  0  0  0  0  0  0  0  0  0  0
   57.8520   30.6840   43.6460 N   0  0  0  0  0  0  0  0  0  0  0  0
   57.0610   29.5140   43.9030 C   0  0  0  0  0  0  0  0  0  0  0  0
   57.3920   28.2790   43.2700 N   0  0  0  0  0  0  0  0  0  0  0  0
   56.0730   29.5610   44.6850 O   0  0  0  0  0  0  0  0  0  0  0  0
   59.2750   33.1590   46.3390 C   0  0  0  0  0  0  0  0  0  0  0  0
   59.2220   31.8000   46.6590 C   0  0  0  0  0  0  0  0  0  0  0  0
   59.2726   28.0348   47.8257 H   0  0  0  0  0  0  0  0  0  0  0  0
   58.5321   29.2003   46.6768 H   0  0  0  0  0  0  0  0  0  0  0  0
   60.3102   28.9458   46.6768 H   0  0  0  0  0  0  0  0  0  0  0  0
   60.3677   32.0682   49.8940 H   0  0  0  0  0  0  0  0  0  0  0  0
   60.4466   34.4991   49.2479 H   0  0  0  0  0  0  0  0  0  0  0  0
   59.9374   36.2962   47.0663 H   0  0  0  0  0  0  0  0  0  0  0  0
   59.0530   35.8471   44.5725 H   0  0  0  0  0  0  0  0  0  0  0  0
   57.9784   33.8531   43.3140 H   0  0  0  0  0  0  0  0  0  0  0  0
   59.3959   32.7453   43.3861 H   0  0  0  0  0  0  0  0  0  0  0  0
   58.6600   30.5920   42.9890 H   0  0  0  0  0  0  0  0  0  0  0  0
   56.8220   27.4230   43.4510 H   0  0  0  0  0  0  0  0  0  0  0  0
   58.2050   28.2170   42.6190 H   0  0  0  0  0  0  0  0  0  0  0  0
   58.8803   31.0599   45.9204 H   0  0  0  0  0  0  0  0  0  0  0  0
  1  2  1  0
  2  3  1  0
  3  4  2  0
  4  5  1  0
  5  6  2  0
  6  7  1  0
  7  8  2  0
  8  9  1  0
  9 10  1  0
 10 11  1  0
 11 12  2  0
 11 13  1  0
 13 14  1  0
 14 15  1  0
 14 16  2  0
  9 17  1  0
 17 18  2  0
 18  3  1  0
 17  6  1  0
  1 19  1  0
  1 20  1  0
  1 21  1  0
  4 22  1  0
  5 23  1  0
  7 24  1  0
  8 25  1  0
 10 26  1  0
 10 27  1  0
 13 28  1  0
 15 29  1  0
 15 30  1  0
 18 31  1  0
M  END
>  <UniqueID>  (54) 
52

>  <SMILES>  (54) 
COc1ccc2ccn(CC(=O)NC(N)=O)c2c1

>  <Energy>  (54) 
59.63583722926509

>  <Genealogy>  (54) 
COc1ccc2ccn(CC(=O)NC(N)=O)c2c1 (3D coordinates assigned)
COc1ccc2ccn(CC(=O)NC(N)=O)c2c1 (optimized conformer: 59.63583722926509 kcal/mol)

>  <smiles>  (54) 
COc1ccc2ccn(CC(=O)NC(N)=O)c2c1

>  <score_type>  (54) 
oracle

>  <origin>  (54) 
adg

>  <m_score__min__energy>  (54) 
-7.0199999999999996

>  <m_primary>  (54) 
energy

$$$$
54:0
     RDKit          3D

 55 57  0  0  0  0  0  0  0  0999 V2000
   51.2150   22.1010   46.1440 C   0  0  0  0  0  0  0  0  0  0  0  0
   52.5240   21.7980   45.6720 O   0  0  0  0  0  0  0  0  0  0  0  0
   53.6580   22.5860   45.9180 C   0  0  0  0  0  0  0  0  0  0  0  0
   53.7770   23.8040   45.2420 C   0  0  0  0  0  0  0  0  0  0  0  0
   54.8810   24.6290   45.4550 C   0  0  0  0  0  0  0  0  0  0  0  0
   55.8810   24.2580   46.3630 C   0  0  0  0  0  0  0  0  0  0  0  0
   57.0030   25.1340   46.5560 N   0  0  0  0  0  0  0  0  0  0  0  0
   56.9260   26.5580   46.3940 C   0  0  0  0  0  0  0  0  0  0  0  0
   55.8780   27.0840   45.9280 O   0  0  0  0  0  0  0  0  0  0  0  0
   58.0560   27.3720   46.7440 N   0  0  0  0  0  0  0  0  0  0  0  0
   58.1100   28.7970   46.5580 C   0  0  0  0  0  0  0  0  0  0  0  0
   57.1860   29.3920   45.9380 O   0  0  0  0  0  0  0  0  0  0  0  0
   59.2440   29.5790   47.1070 C   0  0  0  0  0  0  0  0  0  0  0  0
   59.0800   30.2310   48.3410 C   0  0  0  0  0  0  0  0  0  0  0  0
   60.1060   31.0050   48.8820 C   0  0  0  0  0  0  0  0  0  0  0  0
   61.3170   31.1550   48.2060 C   0  0  0  0  0  0  0  0  0  0  0  0
   62.3100   31.9560   48.7950 O   0  0  0  0  0  0  0  0  0  0  0  0
   62.3960   33.3800   48.6940 C   0  0  0  0  0  0  0  0  0  0  0  0
   61.2670   33.8890   47.8130 C   0  0  0  0  0  0  0  0  0  0  0  0
   61.7910   33.8310   46.3850 C   0  0  0  0  0  0  0  0  0  0  0  0
   63.3150   33.7940   46.4770 C   0  0  0  0  0  0  0  0  0  0  0  0
   63.6670   33.7930   47.9600 C   0  0  0  0  0  0  0  0  0  0  0  0
   61.4990   30.5030   46.9730 C   0  0  0  0  0  0  0  0  0  0  0  0
   60.4800   29.7060   46.4200 C   0  0  0  0  0  0  0  0  0  0  0  0
   60.7350   29.0120   45.1070 C   0  0  0  0  0  0  0  0  0  0  0  0
   55.7980   23.0170   47.0270 C   0  0  0  0  0  0  0  0  0  0  0  0
   56.8510   22.6250   47.8700 O   0  0  0  0  0  0  0  0  0  0  0  0
   56.6900   22.1730   49.2110 C   0  0  0  0  0  0  0  0  0  0  0  0
   54.6750   22.1930   46.8100 C   0  0  0  0  0  0  0  0  0  0  0  0
   51.2128   22.1015   47.2440 H   0  0  0  0  0  0  0  0  0  0  0  0
   50.9131   23.0928   45.7763 H   0  0  0  0  0  0  0  0  0  0  0  0
   50.5080   21.3428   45.7763 H   0  0  0  0  0  0  0  0  0  0  0  0
   52.9928   24.1143   44.5358 H   0  0  0  0  0  0  0  0  0  0  0  0
   54.9672   25.5782   44.9058 H   0  0  0  0  0  0  0  0  0  0  0  0
   57.9500   24.7050   46.6690 H   0  0  0  0  0  0  0  0  0  0  0  0
   58.8940   26.8910   47.1410 H   0  0  0  0  0  0  0  0  0  0  0  0
   58.1305   30.1295   48.8870 H   0  0  0  0  0  0  0  0  0  0  0  0
   59.9589   31.5025   49.8520 H   0  0  0  0  0  0  0  0  0  0  0  0
   62.3644   33.7828   49.7171 H   0  0  0  0  0  0  0  0  0  0  0  0
   60.3794   33.2483   47.9208 H   0  0  0  0  0  0  0  0  0  0  0  0
   60.9676   34.9102   48.0913 H   0  0  0  0  0  0  0  0  0  0  0  0
   61.4197   32.9262   45.8815 H   0  0  0  0  0  0  0  0  0  0  0  0
   61.4511   34.7007   45.8035 H   0  0  0  0  0  0  0  0  0  0  0  0
   63.7014   32.8836   45.9955 H   0  0  0  0  0  0  0  0  0  0  0  0
   63.7623   34.6592   45.9659 H   0  0  0  0  0  0  0  0  0  0  0  0
   64.4748   33.0738   48.1605 H   0  0  0  0  0  0  0  0  0  0  0  0
   64.0200   34.7809   48.2907 H   0  0  0  0  0  0  0  0  0  0  0  0
   62.4509   30.6178   46.4338 H   0  0  0  0  0  0  0  0  0  0  0  0
   61.1087   27.9949   45.2964 H   0  0  0  0  0  0  0  0  0  0  0  0
   59.7982   28.9575   44.5331 H   0  0  0  0  0  0  0  0  0  0  0  0
   61.4843   29.5770   44.5331 H   0  0  0  0  0  0  0  0  0  0  0  0
   56.9762   22.9765   49.9056 H   0  0  0  0  0  0  0  0  0  0  0  0
   55.6386   21.8981   49.3815 H   0  0  0  0  0  0  0  0  0  0  0  0
   57.3308   21.2953   49.3815 H   0  0  0  0  0  0  0  0  0  0  0  0
   54.5920   21.2340   47.3423 H   0  0  0  0  0  0  0  0  0  0  0  0
  1  2  1  0
  2  3  1  0
  3  4  2  0
  4  5  1  0
  5  6  2  0
  6  7  1  0
  7  8  1  0
  8  9  2  0
  8 10  1  0
 10 11  1  0
 11 12  2  0
 11 13  1  0
 13 14  2  0
 14 15  1  0
 15 16  2  0
 16 17  1  0
 17 18  1  0
 18 19  1  0
 19 20  1  0
 20 21  1  0
 21 22  1  0
 16 23  1  0
 23 24  2  0
 24 25  1  0
  6 26  1  0
 26 27  1  0
 27 28  1  0
 26 29  2  0
 29  3  1  0
 24 13  1  0
 22 18  1  0
  1 30  1  0
  1 31  1  0
  1 32  1  0
  4 33  1  0
  5 34  1  0
  7 35  1  0
 10 36  1  0
 14 37  1  0
 15 38  1  0
 18 39  1  0
 19 40  1  0
 19 41  1  0
 20 42  1  0
 20 43  1  0
 21 44  1  0
 21 45  1  0
 22 46  1  0
 22 47  1  0
 23 48  1  0
 25 49  1  0
 25 50  1  0
 25 51  1  0
 28 52  1  0
 28 53  1  0
 28 54  1  0
 29 55  1  0
M  END
>  <UniqueID>  (55) 
53

>  <SMILES>  (55) 
COc1ccc(NC(=O)NC(=O)c2ccc(OC3CCCC3)cc2C)c(OC)c1

>  <Energy>  (55) 
64.57256453582052

>  <Genealogy>  (55) 
COc1ccc(NC(=O)NC(=O)c2ccc(OC3CCCC3)cc2C)c(OC)c1 (3D coordinates assigned)
COc1ccc(NC(=O)NC(=O)c2ccc(OC3CCCC3)cc2C)c(OC)c1 (nonaromatic ring conformer: 64.57256453582052 kcal/mol)

>  <smiles>  (55) 
COc1ccc(NC(=O)NC(=O)c2ccc(OC3CCCC3)cc2C)c(OC)c1

>  <score_type>  (55) 
oracle

>  <origin>  (55) 
adg

>  <m_score__min__energy>  (55) 
-7.3499999999999996

>  <m_primary>  (55) 
energy

$$$$
55:0
     RDKit          3D

 41 43  0  0  0  0  0  0  0  0999 V2000
   57.3220   32.0780   41.7700 C   0  0  0  0  0  0  0  0  0  0  0  0
   57.3620   31.2460   43.0170 C   0  0  0  0  0  0  0  0  0  0  0  0
   58.5530   31.1210   43.7450 C   0  0  0  0  0  0  0  0  0  0  0  0
   58.6010   30.3130   44.8840 C   0  0  0  0  0  0  0  0  0  0  0  0
   57.4650   29.6170   45.3130 C   0  0  0  0  0  0  0  0  0  0  0  0
   57.5860   28.7970   46.4470 O   0  0  0  0  0  0  0  0  0  0  0  0
   57.4480   27.4020   46.4770 C   0  0  0  0  0  0  0  0  0  0  0  0
   56.2910   26.7760   45.9860 C   0  0  0  0  0  0  0  0  0  0  0  0
   56.1490   25.3920   46.0730 C   0  0  0  0  0  0  0  0  0  0  0  0
   57.1600   24.6340   46.6720 C   0  0  0  0  0  0  0  0  0  0  0  0
   57.0200   23.1450   46.7970 C   0  0  0  0  0  0  0  0  0  0  0  0
   55.8580   22.7130   46.1830 F   0  0  0  0  0  0  0  0  0  0  0  0
   56.9780   22.7890   48.1330 F   0  0  0  0  0  0  0  0  0  0  0  0
   58.1010   22.5260   46.1950 F   0  0  0  0  0  0  0  0  0  0  0  0
   58.2640   25.2580   47.1640 N   0  0  0  0  0  0  0  0  0  0  0  0
   58.4460   26.6050   47.0760 C   0  0  0  0  0  0  0  0  0  0  0  0
   59.6710   27.1890   47.6680 C   0  0  0  0  0  0  0  0  0  0  0  0
   60.7880   26.6970   47.3600 O   0  0  0  0  0  0  0  0  0  0  0  0
   59.6320   28.2770   48.6010 N   0  0  0  0  0  0  0  0  0  0  0  0
   59.7570   29.6670   48.2710 C   0  0  0  0  0  0  0  0  0  0  0  0
   60.7830   30.1350   47.4330 C   0  0  0  0  0  0  0  0  0  0  0  0
   60.8750   31.4970   47.1280 C   0  0  0  0  0  0  0  0  0  0  0  0
   59.9450   32.3980   47.6560 C   0  0  0  0  0  0  0  0  0  0  0  0
   60.0440   34.1020   47.2500 Cl  0  0  0  0  0  0  0  0  0  0  0  0
   58.9350   31.9390   48.5070 C   0  0  0  0  0  0  0  0  0  0  0  0
   58.8500   30.5800   48.8240 C   0  0  0  0  0  0  0  0  0  0  0  0
   56.2750   29.7100   44.5580 C   0  0  0  0  0  0  0  0  0  0  0  0
   55.1460   28.9780   44.9030 O   0  0  0  0  0  0  0  0  0  0  0  0
   56.2300   30.5230   43.4210 C   0  0  0  0  0  0  0  0  0  0  0  0
   57.2708   33.1428   42.0412 H   0  0  0  0  0  0  0  0  0  0  0  0
   58.2300   31.8939   41.1771 H   0  0  0  0  0  0  0  0  0  0  0  0
   56.4358   31.8076   41.1771 H   0  0  0  0  0  0  0  0  0  0  0  0
   59.4538   31.6612   43.4184 H   0  0  0  0  0  0  0  0  0  0  0  0
   59.5406   30.2231   45.4489 H   0  0  0  0  0  0  0  0  0  0  0  0
   55.4929   27.3806   45.5305 H   0  0  0  0  0  0  0  0  0  0  0  0
   55.2495   24.9004   45.6739 H   0  0  0  0  0  0  0  0  0  0  0  0
   61.5157   29.4286   47.0157 H   0  0  0  0  0  0  0  0  0  0  0  0
   61.6800   31.8598   46.4719 H   0  0  0  0  0  0  0  0  0  0  0  0
   58.2065   32.6479   48.9275 H   0  0  0  0  0  0  0  0  0  0  0  0
   58.0672   30.2261   49.5109 H   0  0  0  0  0  0  0  0  0  0  0  0
   55.2995   30.5961   42.8389 H   0  0  0  0  0  0  0  0  0  0  0  0
  1  2  1  0
  2  3  2  0
  3  4  1  0
  4  5  2  0
  5  6  1  0
  6  7  1  0
  7  8  2  0
  8  9  1  0
  9 10  2  0
 10 11  1  0
 11 12  1  0
 11 13  1  0
 11 14  1  0
 10 15  1  0
 15 16  2  0
 16 17  1  0
 17 18  2  0
 17 19  1  0
 19 20  1  0
 20 21  2  0
 21 22  1  0
 22 23  2  0
 23 24  1  0
 23 25  1  0
 25 26  2  0
  5 27  1  0
 27 28  1  0
 27 29  2  0
 29  2  1  0
 16  7  1  0
 26 20  1  0
  1 30  1  0
  1 31  1  0
  1 32  1  0
  3 33  1  0
  4 34  1  0
  8 35  1  0
  9 36  1  0
 21 37  1  0
 22 38  1  0
 25 39  1  0
 26 40  1  0
 29 41  1  0
M  CHG  2  19  -1  28  -1
M  END
>  <UniqueID>  (56) 
54

>  <SMILES>  (56) 
Cc1ccc(Oc2ccc(C(F)(F)F)nc2C(=O)[N-]c2ccc(Cl)cc2)c([O-])c1

>  <Energy>  (56) 
55.5909462494987

>  <Genealogy>  (56) 
Cc1ccc(Oc2ccc(C(F)(F)F)nc2C(=O)[N-]c2ccc(Cl)cc2)c([O-])c1 (protonated)
Cc1ccc(Oc2ccc(C(F)(F)F)nc2C(=O)[N-]c2ccc(Cl)cc2)c([O-])c1 (3D coordinates assigned)
Cc1ccc(Oc2ccc(C(F)(F)F)nc2C(=O)[N-]c2ccc(Cl)cc2)c([O-])c1 (optimized conformer: 55.5909462494987 kcal/mol)

>  <smiles>  (56) 
Cc1ccc(Oc2ccc(C(F)(F)F)nc2C(=O)Nc2ccc(Cl)cc2)c(O)c1

>  <score_type>  (56) 
oracle

>  <origin>  (56) 
adg

>  <m_score__min__energy>  (56) 
-13.18

>  <m_primary>  (56) 
energy

$$$$
56:0
     RDKit          3D

 65 68  0  0  0  0  0  0  0  0999 V2000
   58.1440   27.0700   42.7550 C   0  0  0  0  0  0  0  0  0  0  0  0
   57.7490   25.9490   43.7120 C   0  0  0  0  0  0  0  0  0  0  0  0
   58.1300   26.2940   45.1560 C   0  0  0  0  0  0  0  0  0  0  0  0
   56.9670   26.9760   45.8830 C   0  0  0  0  0  0  0  0  0  0  0  0
   56.9720   28.4530   45.6240 C   0  0  0  0  0  0  0  0  0  0  0  0
   56.0660   29.0730   44.8430 N   0  0  0  0  0  0  0  0  0  0  0  0
   56.3400   30.3690   44.8250 N   0  0  0  0  0  0  0  0  0  0  0  0
   57.4100   30.5940   45.6120 C   0  0  0  0  0  0  0  0  0  0  0  0
   58.0220   31.9280   45.7770 C   0  0  0  0  0  0  0  0  0  0  0  0
   58.2840   32.7170   44.6450 C   0  0  0  0  0  0  0  0  0  0  0  0
   58.8720   33.9780   44.7850 C   0  0  0  0  0  0  0  0  0  0  0  0
   59.1910   34.4660   46.0560 C   0  0  0  0  0  0  0  0  0  0  0  0
   59.7600   35.6900   46.1870 F   0  0  0  0  0  0  0  0  0  0  0  0
   58.9120   33.6960   47.1900 C   0  0  0  0  0  0  0  0  0  0  0  0
   59.2010   34.1760   48.4240 F   0  0  0  0  0  0  0  0  0  0  0  0
   58.3220   32.4350   47.0530 C   0  0  0  0  0  0  0  0  0  0  0  0
   57.8510   29.3900   46.1430 C   0  0  0  0  0  0  0  0  0  0  0  0
   59.0760   29.1310   46.9830 C   0  0  0  0  0  0  0  0  0  0  0  0
   60.3250   29.6170   46.2970 C   0  0  0  0  0  0  0  0  0  0  0  0
   60.4460   29.4590   45.0520 O   0  0  0  0  0  0  0  0  0  0  0  0
   61.4200   30.1890   47.0220 N   0  0  0  0  0  0  0  0  0  0  0  0
   61.4580   30.4540   48.4580 C   0  0  0  0  0  0  0  0  0  0  0  0
   61.8060   31.8960   48.7510 C   0  0  0  0  0  0  0  0  0  0  0  0
   62.6650   32.5810   47.8760 C   0  0  0  0  0  0  0  0  0  0  0  0
   62.9690   33.9250   48.0920 C   0  0  0  0  0  0  0  0  0  0  0  0
   62.4160   34.5810   49.1890 C   0  0  0  0  0  0  0  0  0  0  0  0
   61.6020   33.9100   50.0420 N   0  0  0  0  0  0  0  0  0  0  0  0
   61.2910   32.5950   49.8700 C   0  0  0  0  0  0  0  0  0  0  0  0
   60.4270   31.9580   50.8250 N   0  0  0  0  0  0  0  0  0  0  0  0
   60.6750   32.1210   52.2620 C   0  0  0  0  0  0  0  0  0  0  0  0
   59.3510   32.1030   53.0470 C   0  0  0  0  0  0  0  0  0  0  0  0
   58.2770   32.8270   52.3350 N   0  0  0  0  0  0  0  0  0  0  0  0
   58.5190   34.2800   52.3160 C   0  0  0  0  0  0  0  0  0  0  0  0
   57.9930   32.2930   50.9760 C   0  0  0  0  0  0  0  0  0  0  0  0
   59.1310   31.4380   50.3900 C   0  0  0  0  0  0  0  0  0  0  0  0
   58.4551   27.9528   43.3328 H   0  0  0  0  0  0  0  0  0  0  0  0
   58.9779   26.7342   42.1212 H   0  0  0  0  0  0  0  0  0  0  0  0
   57.2837   27.3311   42.1212 H   0  0  0  0  0  0  0  0  0  0  0  0
   56.6614   25.7948   43.6548 H   0  0  0  0  0  0  0  0  0  0  0  0
   58.2859   25.0348   43.4187 H   0  0  0  0  0  0  0  0  0  0  0  0
   58.3943   25.3688   45.6890 H   0  0  0  0  0  0  0  0  0  0  0  0
   58.9851   26.9857   45.1369 H   0  0  0  0  0  0  0  0  0  0  0  0
   56.0181   26.5500   45.5251 H   0  0  0  0  0  0  0  0  0  0  0  0
   57.0782   26.8065   46.9642 H   0  0  0  0  0  0  0  0  0  0  0  0
   58.0255   32.3414   43.6439 H   0  0  0  0  0  0  0  0  0  0  0  0
   59.0839   34.5870   43.8938 H   0  0  0  0  0  0  0  0  0  0  0  0
   58.0919   31.8378   47.9477 H   0  0  0  0  0  0  0  0  0  0  0  0
   58.9684   29.6552   47.9440 H   0  0  0  0  0  0  0  0  0  0  0  0
   59.1662   28.0458   47.1384 H   0  0  0  0  0  0  0  0  0  0  0  0
   60.4704   30.2311   48.8880 H   0  0  0  0  0  0  0  0  0  0  0  0
   62.2351   29.8160   48.9042 H   0  0  0  0  0  0  0  0  0  0  0  0
   63.1010   32.0539   47.0145 H   0  0  0  0  0  0  0  0  0  0  0  0
   63.6384   34.4611   47.4032 H   0  0  0  0  0  0  0  0  0  0  0  0
   62.6394   35.6438   49.3639 H   0  0  0  0  0  0  0  0  0  0  0  0
   61.3148   31.2983   52.6138 H   0  0  0  0  0  0  0  0  0  0  0  0
   61.1720   33.0881   52.4281 H   0  0  0  0  0  0  0  0  0  0  0  0
   59.0388   31.0584   53.1935 H   0  0  0  0  0  0  0  0  0  0  0  0
   59.5197   32.6059   54.0106 H   0  0  0  0  0  0  0  0  0  0  0  0
   58.5814   34.6548   53.3483 H   0  0  0  0  0  0  0  0  0  0  0  0
   59.4641   34.4875   51.7928 H   0  0  0  0  0  0  0  0  0  0  0  0
   57.6922   34.7826   51.7928 H   0  0  0  0  0  0  0  0  0  0  0  0
   57.0865   31.6722   51.0305 H   0  0  0  0  0  0  0  0  0  0  0  0
   57.8719   33.1611   50.3114 H   0  0  0  0  0  0  0  0  0  0  0  0
   59.0210   30.3997   50.7362 H   0  0  0  0  0  0  0  0  0  0  0  0
   59.0792   31.4744   49.2918 H   0  0  0  0  0  0  0  0  0  0  0  0
  1  2  1  0
  2  3  1  0
  3  4  1  0
  4  5  1  0
  5  6  1  0
  6  7  1  0
  7  8  2  0
  8  9  1  0
  9 10  2  0
 10 11  1  0
 11 12  2  0
 12 13  1  0
 12 14  1  0
 14 15  1  0
 14 16  2  0
  8 17  1  0
 17 18  1  0
 18 19  1  0
 19 20  2  0
 19 21  1  0
 21 22  1  0
 22 23  1  0
 23 24  2  0
 24 25  1  0
 25 26  2  0
 26 27  1  0
 27 28  2  0
 28 29  1  0
 29 30  1  0
 30 31  1  0
 31 32  1  0
 32 33  1  0
 32 34  1  0
 34 35  1  0
 17  5  2  0
 28 23  1  0
 35 29  1  0
 16  9  1  0
  1 36  1  0
  1 37  1  0
  1 38  1  0
  2 39  1  0
  2 40  1  0
  3 41  1  0
  3 42  1  0
  4 43  1  0
  4 44  1  0
 10 45  1  0
 11 46  1  0
 16 47  1  0
 18 48  1  0
 18 49  1  0
 22 50  1  0
 22 51  1  0
 24 52  1  0
 25 53  1  0
 26 54  1  0
 30 55  1  0
 30 56  1  0
 31 57  1  0
 31 58  1  0
 33 59  1  0
 33 60  1  0
 33 61  1  0
 34 62  1  0
 34 63  1  0
 35 64  1  0
 35 65  1  0
M  CHG  2   6  -1  21  -1
M  END
>  <UniqueID>  (57) 
55

>  <SMILES>  (57) 
CCCCc1[n-]nc(-c2ccc(F)c(F)c2)c1CC(=O)[N-]Cc1cccnc1N1CCN(C)CC1

>  <Energy>  (57) 
103.75433414868667

>  <Genealogy>  (57) 
CCCCc1[n-]nc(-c2ccc(F)c(F)c2)c1CC(=O)[N-]Cc1cccnc1N1CCN(C)CC1 (protonated)
CCCCc1[n-]nc(-c2ccc(F)c(F)c2)c1CC(=O)[N-]Cc1cccnc1N1CCN(C)CC1 (3D coordinates assigned)
CCCCc1[n-]nc(-c2ccc(F)c(F)c2)c1CC(=O)[N-]Cc1cccnc1N1CCN(C)CC1 (nonaromatic ring conformer: 103.75433414868667 kcal/mol)

>  <smiles>  (57) 
CCCCc1[nH]nc(-c2ccc(F)c(F)c2)c1CC(=O)NCc1cccnc1N1CCN(C)CC1

>  <score_type>  (57) 
oracle

>  <origin>  (57) 
adg

>  <m_score__min__energy>  (57) 
-12.029999999999999

>  <m_primary>  (57) 
energy

$$$$
57:0
     RDKit          3D

 26 27  0  0  0  0  0  0  0  0999 V2000
   53.7560   25.9680   46.3710 H   0  0  0  0  0  0  0  0  0  0  0  0
   54.5430   26.3330   45.8460 O   0  0  0  0  0  0  0  0  0  0  0  0
   55.8320   26.2550   46.3270 N   0  0  0  0  0  0  0  0  0  0  0  0
   56.8480   26.6560   45.6280 C   0  0  0  0  0  0  0  0  0  0  0  0
   57.4209   25.9254   45.0380 H   0  0  0  0  0  0  0  0  0  0  0  0
   57.2490   28.0790   45.6110 C   0  0  0  0  0  0  0  0  0  0  0  0
   56.7080   28.9830   44.6800 C   0  0  0  0  0  0  0  0  0  0  0  0
   55.9692   28.6331   43.9440 H   0  0  0  0  0  0  0  0  0  0  0  0
   57.1030   30.3230   44.6840 C   0  0  0  0  0  0  0  0  0  0  0  0
   56.6719   31.0207   43.9510 H   0  0  0  0  0  0  0  0  0  0  0  0
   58.0480   30.7880   45.6180 C   0  0  0  0  0  0  0  0  0  0  0  0
   58.4690   32.2130   45.6210 C   0  0  0  0  0  0  0  0  0  0  0  0
   59.5760   32.6290   46.3850 C   0  0  0  0  0  0  0  0  0  0  0  0
   60.1336   31.8945   46.9846 H   0  0  0  0  0  0  0  0  0  0  0  0
   59.9710   33.9710   46.3860 C   0  0  0  0  0  0  0  0  0  0  0  0
   60.8380   34.2877   46.9844 H   0  0  0  0  0  0  0  0  0  0  0  0
   59.2670   34.9090   45.6290 C   0  0  0  0  0  0  0  0  0  0  0  0
   59.5784   35.9640   45.6325 H   0  0  0  0  0  0  0  0  0  0  0  0
   58.1670   34.5080   44.8670 C   0  0  0  0  0  0  0  0  0  0  0  0
   57.6137   35.2478   44.2698 H   0  0  0  0  0  0  0  0  0  0  0  0
   57.7680   33.1680   44.8620 C   0  0  0  0  0  0  0  0  0  0  0  0
   56.9004   32.8584   44.2608 H   0  0  0  0  0  0  0  0  0  0  0  0
   58.5860   29.8800   46.5460 C   0  0  0  0  0  0  0  0  0  0  0  0
   59.3251   30.2279   47.2827 H   0  0  0  0  0  0  0  0  0  0  0  0
   58.1910   28.5390   46.5420 C   0  0  0  0  0  0  0  0  0  0  0  0
   58.6221   27.8402   47.2740 H   0  0  0  0  0  0  0  0  0  0  0  0
  1  2  1  0
  2  3  1  0
  3  4  2  0
  4  5  1  0
  4  6  1  0
  6  7  2  0
  7  8  1  0
  7  9  1  0
  9 10  1  0
  9 11  2  0
 11 12  1  0
 12 13  2  0
 13 14  1  0
 13 15  1  0
 15 16  1  0
 15 17  2  0
 17 18  1  0
 17 19  1  0
 19 20  1  0
 19 21  2  0
 21 22  1  0
 11 23  1  0
 23 24  1  0
 23 25  2  0
 25 26  1  0
 25  6  1  0
 21 12  1  0
M  END
>  <UniqueID>  (58) 
56

>  <SMILES>  (58) 
O/N=C/c1ccc(-c2ccccc2)cc1

>  <Energy>  (58) 
31.636134154088957

>  <Genealogy>  (58) 
O/N=C/c1ccc(-c2ccccc2)cc1 (cis-trans isomerization)
O/N=C/c1ccc(-c2ccccc2)cc1 (3D coordinates assigned)
O/N=C/c1ccc(-c2ccccc2)cc1 (optimized conformer: 31.636134154088957 kcal/mol)

>  <smiles>  (58) 
ON=Cc1ccc(-c2ccccc2)cc1

>  <score_type>  (58) 
oracle

>  <origin>  (58) 
adg

>  <m_score__min__energy>  (58) 
-7.8300000000000001

>  <m_primary>  (58) 
energy

$$$$
58:0
     RDKit          3D

 35 37  0  0  0  0  0  0  0  0999 V2000
   50.2670   32.4790   52.0070 O   0  0  0  0  0  0  0  0  0  0  0  0
   51.1040   32.0210   51.1850 C   0  0  0  0  0  0  0  0  0  0  0  0
   50.9430   32.3010   49.8320 O   0  0  0  0  0  0  0  0  0  0  0  0
   52.2420   31.1990   51.6490 C   0  0  0  0  0  0  0  0  0  0  0  0
   52.0580   29.8280   51.9700 C   0  0  0  0  0  0  0  0  0  0  0  0
   53.1370   29.0430   52.4140 C   0  0  0  0  0  0  0  0  0  0  0  0
   54.3860   29.6500   52.5220 C   0  0  0  0  0  0  0  0  0  0  0  0
   54.5740   30.9640   52.2140 C   0  0  0  0  0  0  0  0  0  0  0  0
   53.5270   31.7750   51.7770 C   0  0  0  0  0  0  0  0  0  0  0  0
   55.9760   31.2660   52.4590 C   0  0  0  0  0  0  0  0  0  0  0  0
   56.4760   32.4190   52.3620 O   0  0  0  0  0  0  0  0  0  0  0  0
   56.7210   30.1090   52.9010 N   0  0  2  0  0  0  0  0  0  0  0  0
   57.7460   29.7070   51.9160 C   0  0  0  0  0  0  0  0  0  0  0  0
   58.5590   30.8920   51.4480 C   0  0  0  0  0  0  0  0  0  0  0  0
   59.4860   31.5020   52.3060 C   0  0  0  0  0  0  0  0  0  0  0  0
   60.2580   32.5750   51.8580 C   0  0  0  0  0  0  0  0  0  0  0  0
   60.1070   33.0550   50.5550 C   0  0  0  0  0  0  0  0  0  0  0  0
   59.1640   32.4740   49.6890 C   0  0  0  0  0  0  0  0  0  0  0  0
   59.0360   32.9550   48.2650 C   0  0  0  0  0  0  0  0  0  0  0  0
   57.7470   32.7580   47.7990 F   0  0  0  0  0  0  0  0  0  0  0  0
   59.9160   32.2500   47.4650 F   0  0  0  0  0  0  0  0  0  0  0  0
   59.3270   34.3050   48.1760 F   0  0  0  0  0  0  0  0  0  0  0  0
   58.4100   31.3750   50.1380 C   0  0  0  0  0  0  0  0  0  0  0  0
   55.6700   29.1210   52.9570 C   0  0  0  0  0  0  0  0  0  0  0  0
   55.8460   27.9440   53.3730 O   0  0  0  0  0  0  0  0  0  0  0  0
   51.0605   29.3751   51.8703 H   0  0  0  0  0  0  0  0  0  0  0  0
   52.9988   27.9818   52.6683 H   0  0  0  0  0  0  0  0  0  0  0  0
   53.6964   32.8353   51.5381 H   0  0  0  0  0  0  0  0  0  0  0  0
   57.1160   30.2640   53.8580 H   0  0  0  0  0  0  0  0  0  0  0  0
   58.4199   28.9723   52.3809 H   0  0  0  0  0  0  0  0  0  0  0  0
   57.2352   29.2727   51.0439 H   0  0  0  0  0  0  0  0  0  0  0  0
   59.6049   31.1334   53.3356 H   0  0  0  0  0  0  0  0  0  0  0  0
   60.9881   33.0444   52.5337 H   0  0  0  0  0  0  0  0  0  0  0  0
   60.7290   33.8918   50.2046 H   0  0  0  0  0  0  0  0  0  0  0  0
   57.6965   30.8890   49.4562 H   0  0  0  0  0  0  0  0  0  0  0  0
  1  2  2  0
  2  3  1  0
  2  4  1  0
  4  5  2  0
  5  6  1  0
  6  7  2  0
  7  8  1  0
  8  9  2  0
  8 10  1  0
 10 11  2  0
 10 12  1  0
 12 13  1  0
 13 14  1  0
 14 15  2  0
 15 16  1  0
 16 17  2  0
 17 18  1  0
 18 19  1  0
 19 20  1  0
 19 21  1  0
 19 22  1  0
 18 23  2  0
 12 24  1  0
 24 25  2  0
  9  4  1  0
 23 14  1  0
 24  7  1  0
  5 26  1  0
  6 27  1  0
  9 28  1  0
 12 29  1  1
 13 30  1  0
 13 31  1  0
 15 32  1  0
 16 33  1  0
 17 34  1  0
 23 35  1  0
M  CHG  2   3  -1  12   1
M  END
>  <UniqueID>  (59) 
57

>  <SMILES>  (59) 
O=C([O-])c1ccc2c(c1)C(=O)[N@H+](Cc1cccc(C(F)(F)F)c1)C2=O

>  <Energy>  (59) 
64.18931175467559

>  <Genealogy>  (59) 
O=C([O-])c1ccc2c(c1)C(=O)[NH+](Cc1cccc(C(F)(F)F)c1)C2=O (protonated)
O=C([O-])c1ccc2c(c1)C(=O)[N@H+](Cc1cccc(C(F)(F)F)c1)C2=O (chirality)
O=C([O-])c1ccc2c(c1)C(=O)[N@H+](Cc1cccc(C(F)(F)F)c1)C2=O (3D coordinates assigned)
O=C([O-])c1ccc2c(c1)C(=O)[N@H+](Cc1cccc(C(F)(F)F)c1)C2=O (nonaromatic ring conformer: 64.18931175467559 kcal/mol)

>  <smiles>  (59) 
O=C(O)c1ccc2c(c1)C(=O)N(Cc1cccc(C(F)(F)F)c1)C2=O

>  <score_type>  (59) 
oracle

>  <origin>  (59) 
adg

>  <m_score__min__energy>  (59) 
-8.5399999999999991

>  <m_primary>  (59) 
energy

$$$$
59:0
     RDKit          3D

 39 42  0  0  0  0  0  0  0  0999 V2000
   63.3260   32.2710   47.3690 C   0  0  0  0  0  0  0  0  0  0  0  0
   61.9880   31.6770   47.5380 N   0  0  0  0  0  0  0  0  0  0  0  0
   61.4880   31.7850   48.9150 C   0  0  1  0  0  0  0  0  0  0  0  0
   60.9600   33.2230   49.0630 C   0  0  0  0  0  0  0  0  0  0  0  0
   60.5990   33.6340   47.6430 C   0  0  0  0  0  0  0  0  0  0  0  0
   60.9480   32.4000   46.7950 C   0  0  2  0  0  0  0  0  0  0  0  0
   59.7140   31.4560   46.6660 C   0  0  0  0  0  0  0  0  0  0  0  0
   59.7220   30.3120   47.7170 C   0  0  1  0  0  0  0  0  0  0  0  0
   60.4880   29.2280   47.1860 O   0  0  0  0  0  0  0  0  0  0  0  0
   60.0830   28.4380   46.1050 C   0  0  0  0  0  0  0  0  0  0  0  0
   60.8840   28.1950   45.1620 O   0  0  0  0  0  0  0  0  0  0  0  0
   58.7100   27.8880   46.0730 C   0  0  0  0  0  0  0  0  0  0  0  0
   58.4330   26.5800   46.5390 C   0  0  0  0  0  0  0  0  0  0  0  0
   57.1180   26.0630   46.4980 C   0  0  0  0  0  0  0  0  0  0  0  0
   56.0640   26.8390   45.9880 C   0  0  0  0  0  0  0  0  0  0  0  0
   54.7680   26.3400   45.9400 O   0  0  0  0  0  0  0  0  0  0  0  0
   56.3590   28.1210   45.5330 C   0  0  0  0  0  0  0  0  0  0  0  0
   55.5130   29.0160   45.0020 N   0  0  0  0  0  0  0  0  0  0  0  0
   56.3350   30.0610   44.7340 C   0  0  0  0  0  0  0  0  0  0  0  0
   55.9200   31.1300   44.2150 O   0  0  0  0  0  0  0  0  0  0  0  0
   57.6360   29.8710   45.0630 N   0  0  0  0  0  0  0  0  0  0  0  0
   57.6270   28.6280   45.5720 C   0  0  0  0  0  0  0  0  0  0  0  0
   60.3300   30.7560   49.0820 C   0  0  0  0  0  0  0  0  0  0  0  0
   63.7676   32.4671   48.3572 H   0  0  0  0  0  0  0  0  0  0  0  0
   63.9690   31.5738   46.8118 H   0  0  0  0  0  0  0  0  0  0  0  0
   63.2401   33.2156   46.8118 H   0  0  0  0  0  0  0  0  0  0  0  0
   62.2580   31.5781   49.6728 H   0  0  0  0  0  0  0  0  0  0  0  0
   61.7369   33.8837   49.4752 H   0  0  0  0  0  0  0  0  0  0  0  0
   60.1052   33.2900   49.7521 H   0  0  0  0  0  0  0  0  0  0  0  0
   61.1909   34.5054   47.3263 H   0  0  0  0  0  0  0  0  0  0  0  0
   59.5440   33.9293   47.5444 H   0  0  0  0  0  0  0  0  0  0  0  0
   61.2686   32.7050   45.7879 H   0  0  0  0  0  0  0  0  0  0  0  0
   59.7156   31.0101   45.6604 H   0  0  0  0  0  0  0  0  0  0  0  0
   58.8126   32.0617   46.8409 H   0  0  0  0  0  0  0  0  0  0  0  0
   58.6810   30.0147   47.9118 H   0  0  0  0  0  0  0  0  0  0  0  0
   59.2496   25.9597   46.9371 H   0  0  0  0  0  0  0  0  0  0  0  0
   56.9188   25.0464   46.8679 H   0  0  0  0  0  0  0  0  0  0  0  0
   60.7201   29.8673   49.5998 H   0  0  0  0  0  0  0  0  0  0  0  0
   59.5312   31.2438   49.6599 H   0  0  0  0  0  0  0  0  0  0  0  0
  1  2  1  0
  2  3  1  0
  3  4  1  0
  4  5  1  0
  5  6  1  0
  6  7  1  0
  7  8  1  0
  8  9  1  0
  9 10  1  0
 10 11  2  0
 10 12  1  0
 12 13  2  0
 13 14  1  0
 14 15  2  0
 15 16  1  0
 15 17  1  0
 17 18  1  0
 18 19  1  0
 19 20  2  0
 19 21  1  0
 21 22  1  0
  8 23  1  0
  6  2  1  0
 22 12  1  0
 23  3  1  0
 22 17  2  0
  1 24  1  0
  1 25  1  0
  1 26  1  0
  3 27  1  1
  4 28  1  0
  4 29  1  0
  5 30  1  0
  5 31  1  0
  6 32  1  6
  7 33  1  0
  7 34  1  0
  8 35  1  1
 13 36  1  0
 14 37  1  0
 23 38  1  0
 23 39  1  0
M  CHG  3  16  -1  18  -1  21  -1
M  END
>  <UniqueID>  (60) 
58

>  <SMILES>  (60) 
CN1[C@@H]2CC[C@H]1CC(OC(=O)c1ccc([O-])c3[n-]c(=O)[n-]c13)C2

>  <Energy>  (60) 
93.40034103062068

>  <Genealogy>  (60) 
CN1C2CCC1CC(OC(=O)c1ccc([O-])c3[n-]c(=O)[n-]c13)C2 (protonated)
CN1[C@@H]2CC[C@H]1CC(OC(=O)c1ccc([O-])c3[n-]c(=O)[n-]c13)C2 (chirality)
CN1[C@@H]2CC[C@H]1CC(OC(=O)c1ccc([O-])c3[n-]c(=O)[n-]c13)C2 (3D coordinates assigned)
CN1[C@@H]2CC[C@H]1CC(OC(=O)c1ccc([O-])c3[n-]c(=O)[n-]c13)C2 (nonaromatic ring conformer: 93.40034103062068 kcal/mol)

>  <smiles>  (60) 
CN1C2CCC1CC(OC(=O)c1ccc(O)c3[nH]c(=O)[nH]c13)C2

>  <score_type>  (60) 
oracle

>  <origin>  (60) 
adg

>  <m_score__min__energy>  (60) 
-15.199999999999999

>  <m_primary>  (60) 
energy

$$$$
60:0
     RDKit          3D

 37 39  0  0  0  0  0  0  0  0999 V2000
   56.5745   33.4659   43.8782 H   0  0  0  0  0  0  0  0  0  0  0  0
   57.2170   33.1440   44.7110 C   0  0  0  0  0  0  0  0  0  0  0  0
   58.0950   34.0540   45.3050 C   0  0  0  0  0  0  0  0  0  0  0  0
   58.1474   35.0879   44.9330 H   0  0  0  0  0  0  0  0  0  0  0  0
   58.9090   33.6540   46.3730 C   0  0  0  0  0  0  0  0  0  0  0  0
   60.0750   34.7830   47.0520 S   0  0  0  0  0  0  0  0  0  0  0  0
   59.8350   34.9750   48.5240 O   0  0  0  0  0  0  0  0  0  0  0  0
   59.9350   36.1080   46.3570 O   0  0  0  0  0  0  0  0  0  0  0  0
   61.6850   34.1810   46.8140 N   0  0  0  0  0  0  0  0  0  0  0  0
   62.4810   33.8240   47.7770 C   0  0  0  0  0  0  0  0  0  0  0  0
   63.7270   32.6880   47.6680 S   0  0  0  0  0  0  0  0  0  0  0  0
   64.1800   32.8980   49.2760 C   0  0  0  0  0  0  0  0  0  0  0  0
   65.2440   32.1260   49.9810 C   0  0  0  0  0  0  0  0  0  0  0  0
   65.1088   32.2241   51.0682 H   0  0  0  0  0  0  0  0  0  0  0  0
   65.1765   31.0654   49.6973 H   0  0  0  0  0  0  0  0  0  0  0  0
   66.2314   32.5193   49.6973 H   0  0  0  0  0  0  0  0  0  0  0  0
   63.3320   33.8330   49.8630 C   0  0  0  0  0  0  0  0  0  0  0  0
   63.4120   34.1312   50.9188 H   0  0  0  0  0  0  0  0  0  0  0  0
   62.3970   34.3460   49.0210 N   0  0  0  0  0  0  0  0  0  0  0  0
   61.6920   35.0610   49.3080 H   0  0  0  0  0  0  0  0  0  0  0  0
   58.8110   32.3460   46.8660 C   0  0  0  0  0  0  0  0  0  0  0  0
   59.4276   32.0344   47.7220 H   0  0  0  0  0  0  0  0  0  0  0  0
   57.9310   31.4360   46.2720 C   0  0  0  0  0  0  0  0  0  0  0  0
   57.8505   30.4136   46.6698 H   0  0  0  0  0  0  0  0  0  0  0  0
   57.1520   31.8190   45.1740 C   0  0  0  0  0  0  0  0  0  0  0  0
   56.2880   30.8520   44.5610 N   0  0  0  0  0  0  0  0  0  0  0  0
   56.6600   29.5240   44.1660 C   0  0  0  0  0  0  0  0  0  0  0  0
   56.6380   29.2300   42.9420 O   0  0  0  0  0  0  0  0  0  0  0  0
   57.0350   28.4820   45.1470 C   0  0  0  0  0  0  0  0  0  0  0  0
   56.1080   27.5590   45.5210 N   0  0  0  0  0  0  0  0  0  0  0  0
   56.4040   26.5850   46.4210 C   0  0  0  0  0  0  0  0  0  0  0  0
   55.5300   25.7410   46.7430 O   0  0  0  0  0  0  0  0  0  0  0  0
   57.6440   26.5220   46.9720 N   0  0  0  0  0  0  0  0  0  0  0  0
   58.6000   27.4290   46.6420 C   0  0  0  0  0  0  0  0  0  0  0  0
   59.7410   27.3560   47.1690 O   0  0  0  0  0  0  0  0  0  0  0  0
   58.3130   28.4400   45.7240 C   0  0  0  0  0  0  0  0  0  0  0  0
   59.0735   29.1889   45.4581 H   0  0  0  0  0  0  0  0  0  0  0  0
  1  2  1  0
  2  3  2  0
  3  4  1  0
  3  5  1  0
  5  6  1  0
  6  7  2  0
  6  8  2  0
  6  9  1  0
  9 10  2  0
 10 11  1  0
 11 12  1  0
 12 13  1  0
 13 14  1  0
 13 15  1  0
 13 16  1  0
 12 17  2  0
 17 18  1  0
 17 19  1  0
 19 20  1  0
  5 21  2  0
 21 22  1  0
 21 23  1  0
 23 24  1  0
 23 25  2  0
 25 26  1  0
 26 27  1  0
 27 28  2  0
 27 29  1  0
 29 30  1  0
 30 31  1  0
 31 32  2  0
 31 33  1  0
 33 34  1  0
 34 35  2  0
 34 36  1  0
 36 37  1  0
 25  2  1  0
 36 29  2  0
 19 10  1  0
M  CHG  3  26  -1  30  -1  33  -1
M  END
>  <UniqueID>  (61) 
59

>  <SMILES>  (61) 
Cc1c[nH]/c(=N/S(=O)(=O)c2ccc([N-]C(=O)c3cc(=O)[n-]c(=O)[n-]3)cc2)s1

>  <Energy>  (61) 
77.87696638217763

>  <Genealogy>  (61) 
Cc1c[nH]c(=NS(=O)(=O)c2ccc([N-]C(=O)c3cc(=O)[n-]c(=O)[n-]3)cc2)s1 (protonated)
Cc1c[nH]/c(=N/S(=O)(=O)c2ccc([N-]C(=O)c3cc(=O)[n-]c(=O)[n-]3)cc2)s1 (cis-trans isomerization)
Cc1c[nH]/c(=N/S(=O)(=O)c2ccc([N-]C(=O)c3cc(=O)[n-]c(=O)[n-]3)cc2)s1 (3D coordinates assigned)
Cc1c[nH]/c(=N/S(=O)(=O)c2ccc([N-]C(=O)c3cc(=O)[n-]c(=O)[n-]3)cc2)s1 (optimized conformer: 77.87696638217763 kcal/mol)

>  <smiles>  (61) 
Cc1c[nH]c(=NS(=O)(=O)c2ccc(NC(=O)c3cc(=O)[nH]c(=O)[nH]3)cc2)s1

>  <score_type>  (61) 
oracle

>  <origin>  (61) 
adg

>  <m_score__min__energy>  (61) 
-14.130000000000001

>  <m_primary>  (61) 
energy

$$$$
61:0
     RDKit          3D

 35 37  0  0  0  0  0  0  0  0999 V2000
   55.6660   29.5980   44.8900 N   0  0  0  0  0  0  0  0  0  0  0  0
   56.3560   30.3260   43.8760 C   0  0  0  0  0  0  0  0  0  0  0  0
   56.1430   30.0490   42.6650 O   0  0  0  0  0  0  0  0  0  0  0  0
   57.2710   31.4310   44.2470 C   0  0  0  0  0  0  0  0  0  0  0  0
   57.3210   31.8450   45.5880 C   0  0  0  0  0  0  0  0  0  0  0  0
   58.1120   32.9360   45.9720 C   0  0  0  0  0  0  0  0  0  0  0  0
   58.8750   33.5980   44.9950 C   0  0  0  0  0  0  0  0  0  0  0  0
   58.8260   33.1740   43.7050 N   0  0  0  0  0  0  0  0  0  0  0  0
   58.0680   32.1180   43.3010 C   0  0  0  0  0  0  0  0  0  0  0  0
   58.1530   31.7060   41.9330 N   0  0  0  0  0  0  0  0  0  0  0  0
   59.7290   34.7940   45.3310 C   0  0  0  0  0  0  0  0  0  0  0  0
   60.0990   34.9090   46.8300 C   0  0  2  0  0  0  0  0  0  0  0  0
   61.3110   34.0770   47.2340 C   0  0  0  0  0  0  0  0  0  0  0  0
   61.3490   33.5040   48.5200 C   0  0  0  0  0  0  0  0  0  0  0  0
   62.4290   32.7080   48.9170 C   0  0  0  0  0  0  0  0  0  0  0  0
   63.4790   32.4620   48.0310 C   0  0  0  0  0  0  0  0  0  0  0  0
   64.5230   31.6870   48.4160 F   0  0  0  0  0  0  0  0  0  0  0  0
   63.4490   33.0080   46.7460 C   0  0  0  0  0  0  0  0  0  0  0  0
   62.3730   33.8050   46.3460 C   0  0  0  0  0  0  0  0  0  0  0  0
   58.8900   34.6430   47.7450 C   0  0  0  0  0  0  0  0  0  0  0  0
   58.1750   33.3760   47.3830 C   0  0  0  0  0  0  0  0  0  0  0  0
   57.5830   32.7230   48.2840 O   0  0  0  0  0  0  0  0  0  0  0  0
   54.6650   29.3310   44.7710 H   0  0  0  0  0  0  0  0  0  0  0  0
   56.7325   31.3067   46.3456 H   0  0  0  0  0  0  0  0  0  0  0  0
   58.3970   32.3670   41.1660 H   0  0  0  0  0  0  0  0  0  0  0  0
   57.8270   30.7520   41.6610 H   0  0  0  0  0  0  0  0  0  0  0  0
   60.6606   34.7268   44.7500 H   0  0  0  0  0  0  0  0  0  0  0  0
   59.1351   35.6860   45.0828 H   0  0  0  0  0  0  0  0  0  0  0  0
   60.4021   35.9566   46.9738 H   0  0  0  0  0  0  0  0  0  0  0  0
   60.5201   33.6843   49.2203 H   0  0  0  0  0  0  0  0  0  0  0  0
   62.4506   32.2757   49.9283 H   0  0  0  0  0  0  0  0  0  0  0  0
   64.2747   32.8102   46.0467 H   0  0  0  0  0  0  0  0  0  0  0  0
   62.3539   34.2242   45.3292 H   0  0  0  0  0  0  0  0  0  0  0  0
   59.2421   34.5667   48.7843 H   0  0  0  0  0  0  0  0  0  0  0  0
   58.1832   35.4770   47.6224 H   0  0  0  0  0  0  0  0  0  0  0  0
  1  2  1  0
  2  3  2  0
  2  4  1  0
  4  5  2  0
  5  6  1  0
  6  7  2  0
  7  8  1  0
  8  9  2  0
  9 10  1  0
  7 11  1  0
 11 12  1  0
 12 13  1  0
 13 14  2  0
 14 15  1  0
 15 16  2  0
 16 17  1  0
 16 18  1  0
 18 19  2  0
 12 20  1  0
 20 21  1  0
 21 22  2  0
  9  4  1  0
 19 13  1  0
 21  6  1  0
  1 23  1  0
  5 24  1  0
 10 25  1  0
 10 26  1  0
 11 27  1  0
 11 28  1  0
 12 29  1  6
 14 30  1  0
 15 31  1  0
 18 32  1  0
 19 33  1  0
 20 34  1  0
 20 35  1  0
M  CHG  1   1  -1
M  END
>  <UniqueID>  (62) 
60

>  <SMILES>  (62) 
[NH-]C(=O)c1cc2c(nc1N)C[C@H](c1ccc(F)cc1)CC2=O

>  <Energy>  (62) 
46.18616705671534

>  <Genealogy>  (62) 
[NH-]C(=O)c1cc2c(nc1N)CC(c1ccc(F)cc1)CC2=O (protonated)
[NH-]C(=O)c1cc2c(nc1N)C[C@H](c1ccc(F)cc1)CC2=O (chirality)
[NH-]C(=O)c1cc2c(nc1N)C[C@H](c1ccc(F)cc1)CC2=O (3D coordinates assigned)
[NH-]C(=O)c1cc2c(nc1N)C[C@H](c1ccc(F)cc1)CC2=O (nonaromatic ring conformer: 46.18616705671534 kcal/mol)

>  <smiles>  (62) 
NC(=O)c1cc2c(nc1N)CC(c1ccc(F)cc1)CC2=O

>  <score_type>  (62) 
oracle

>  <origin>  (62) 
adg

>  <m_score__min__energy>  (62) 
-9.8300000000000001

>  <m_primary>  (62) 
energy

$$$$
62:0
     RDKit          3D

 46 48  0  0  0  0  0  0  0  0999 V2000
   57.7292   21.9155   46.3656 H   0  0  0  0  0  0  0  0  0  0  0  0
   57.7480   22.9920   46.1400 C   0  0  0  0  0  0  0  0  0  0  0  0
   58.1180   23.8760   47.1000 N   0  0  0  0  0  0  0  0  0  0  0  0
   58.1580   25.2210   46.9020 C   0  0  0  0  0  0  0  0  0  0  0  0
   58.5390   25.9530   47.9150 N   0  0  0  0  0  0  0  0  0  0  0  0
   59.6600   26.8790   48.0420 C   0  0  0  0  0  0  0  0  0  0  0  0
   59.8720   27.0542   49.1071 H   0  0  0  0  0  0  0  0  0  0  0  0
   60.5484   26.4479   47.5573 H   0  0  0  0  0  0  0  0  0  0  0  0
   59.4044   27.8328   47.5573 H   0  0  0  0  0  0  0  0  0  0  0  0
   57.7850   25.7290   45.6220 C   0  0  0  0  0  0  0  0  0  0  0  0
   57.7570   27.1590   45.2640 C   0  0  0  0  0  0  0  0  0  0  0  0
   56.5410   27.8550   45.2450 C   0  0  0  0  0  0  0  0  0  0  0  0
   55.6100   27.3414   45.5267 H   0  0  0  0  0  0  0  0  0  0  0  0
   56.5090   29.2000   44.8690 C   0  0  0  0  0  0  0  0  0  0  0  0
   55.5518   29.7418   44.8596 H   0  0  0  0  0  0  0  0  0  0  0  0
   57.6900   29.8650   44.5030 C   0  0  0  0  0  0  0  0  0  0  0  0
   57.6440   31.2920   44.1210 C   0  0  0  0  0  0  0  0  0  0  0  0
   57.1580   31.6130   43.0010 O   0  0  0  0  0  0  0  0  0  0  0  0
   58.1200   32.3180   45.0110 N   0  0  0  0  0  0  0  0  0  0  0  0
   57.7670   32.2300   46.4430 C   0  0  0  0  0  0  0  0  0  0  0  0
   56.7149   31.9196   46.5248 H   0  0  0  0  0  0  0  0  0  0  0  0
   58.4510   31.5016   46.9030 H   0  0  0  0  0  0  0  0  0  0  0  0
   57.9430   33.5540   47.1930 C   0  0  0  0  0  0  0  0  0  0  0  0
   57.2098   34.2841   46.8197 H   0  0  0  0  0  0  0  0  0  0  0  0
   57.7859   33.3829   48.2682 H   0  0  0  0  0  0  0  0  0  0  0  0
   59.5880   34.1870   46.9370 S   0  0  0  0  0  0  0  0  0  0  0  0
   59.6120   35.6640   47.2110 O   0  0  0  0  0  0  0  0  0  0  0  0
   60.5530   33.4880   47.8530 O   0  0  0  0  0  0  0  0  0  0  0  0
   60.0270   33.8720   45.2390 C   0  0  0  0  0  0  0  0  0  0  0  0
   60.4865   34.7733   44.8071 H   0  0  0  0  0  0  0  0  0  0  0  0
   60.7410   33.0363   45.1968 H   0  0  0  0  0  0  0  0  0  0  0  0
   58.7750   33.5080   44.4410 C   0  0  0  0  0  0  0  0  0  0  0  0
   58.0722   34.3538   44.4667 H   0  0  0  0  0  0  0  0  0  0  0  0
   59.0691   33.2865   43.4044 H   0  0  0  0  0  0  0  0  0  0  0  0
   58.9020   29.1480   44.4710 C   0  0  0  0  0  0  0  0  0  0  0  0
   60.0470   29.7390   44.0420 F   0  0  0  0  0  0  0  0  0  0  0  0
   58.9310   27.8020   44.8450 C   0  0  0  0  0  0  0  0  0  0  0  0
   59.8785   27.2443   44.8107 H   0  0  0  0  0  0  0  0  0  0  0  0
   57.4040   24.8210   44.6220 C   0  0  0  0  0  0  0  0  0  0  0  0
   57.1114   25.1991   43.6313 H   0  0  0  0  0  0  0  0  0  0  0  0
   57.3900   23.4420   44.8640 C   0  0  0  0  0  0  0  0  0  0  0  0
   56.9840   22.4720   43.8170 C   0  0  0  0  0  0  0  0  0  0  0  0
   56.0020   22.7350   43.0710 O   0  0  0  0  0  0  0  0  0  0  0  0
   57.6720   21.2310   43.6410 N   0  0  0  0  0  0  0  0  0  0  0  0
   58.3810   20.8930   44.3260 H   0  0  0  0  0  0  0  0  0  0  0  0
   57.4030   20.5950   42.8570 H   0  0  0  0  0  0  0  0  0  0  0  0
  1  2  1  0
  2  3  1  0
  3  4  1  0
  4  5  2  0
  5  6  1  0
  6  7  1  0
  6  8  1  0
  6  9  1  0
  4 10  1  0
 10 11  1  0
 11 12  2  0
 12 13  1  0
 12 14  1  0
 14 15  1  0
 14 16  2  0
 16 17  1  0
 17 18  2  0
 17 19  1  0
 19 20  1  0
 20 21  1  0
 20 22  1  0
 20 23  1  0
 23 24  1  0
 23 25  1  0
 23 26  1  0
 26 27  2  0
 26 28  2  0
 26 29  1  0
 29 30  1  0
 29 31  1  0
 29 32  1  0
 32 33  1  0
 32 34  1  0
 16 35  1  0
 35 36  1  0
 35 37  2  0
 37 38  1  0
 10 39  2  0
 39 40  1  0
 39 41  1  0
 41 42  1  0
 42 43  2  0
 42 44  1  0
 44 45  1  0
 44 46  1  0
 41  2  2  0
 37 11  1  0
 32 19  1  0
M  CHG  1   3  -1
M  END
>  <UniqueID>  (63) 
61

>  <SMILES>  (63) 
C/N=c1/[n-]cc(C(N)=O)cc1-c1ccc(C(=O)N2CCS(=O)(=O)CC2)c(F)c1

>  <Energy>  (63) 
65.04136530475564

>  <Genealogy>  (63) 
CN=c1[n-]cc(C(N)=O)cc1-c1ccc(C(=O)N2CCS(=O)(=O)CC2)c(F)c1 (protonated)
C/N=c1/[n-]cc(C(N)=O)cc1-c1ccc(C(=O)N2CCS(=O)(=O)CC2)c(F)c1 (cis-trans isomerization)
C/N=c1/[n-]cc(C(N)=O)cc1-c1ccc(C(=O)N2CCS(=O)(=O)CC2)c(F)c1 (3D coordinates assigned)
C/N=c1/[n-]cc(C(N)=O)cc1-c1ccc(C(=O)N2CCS(=O)(=O)CC2)c(F)c1 (nonaromatic ring conformer: 65.04136530475564 kcal/mol)

>  <smiles>  (63) 
CN=c1[nH]cc(C(N)=O)cc1-c1ccc(C(=O)N2CCS(=O)(=O)CC2)c(F)c1

>  <score_type>  (63) 
oracle

>  <origin>  (63) 
adg

>  <m_score__min__energy>  (63) 
-9.8499999999999996

>  <m_primary>  (63) 
energy

$$$$
63:0
     RDKit          3D

 44 46  0  0  0  0  0  0  0  0999 V2000
   56.5250   31.6450   44.7960 H   0  0  0  0  0  0  0  0  0  0  0  0
   56.3970   32.5260   45.2340 O   0  0  0  0  0  0  0  0  0  0  0  0
   57.5900   33.2350   45.0370 C   0  0  0  0  0  0  0  0  0  0  0  0
   58.1244   33.3193   45.9948 H   0  0  0  0  0  0  0  0  0  0  0  0
   57.3511   34.2363   44.6492 H   0  0  0  0  0  0  0  0  0  0  0  0
   58.4810   32.5070   44.0230 C   0  0  0  0  0  0  0  0  0  0  0  0
   59.4077   33.0822   43.8805 H   0  0  0  0  0  0  0  0  0  0  0  0
   58.7660   31.2130   44.5290 O   0  0  0  0  0  0  0  0  0  0  0  0
   58.9600   31.2470   45.9270 C   0  0  0  0  0  0  0  0  0  0  0  0
   58.1758   31.8617   46.3930 H   0  0  0  0  0  0  0  0  0  0  0  0
   59.9441   31.6827   46.1544 H   0  0  0  0  0  0  0  0  0  0  0  0
   58.8910   29.8870   46.4510 N   0  0  0  0  0  0  0  0  0  0  0  0
   59.8260   29.2530   47.2030 C   0  0  0  0  0  0  0  0  0  0  0  0
   60.7513   29.7360   47.5503 H   0  0  0  0  0  0  0  0  0  0  0  0
   59.5060   27.9610   47.4850 N   0  0  0  0  0  0  0  0  0  0  0  0
   58.3220   27.8130   46.8660 C   0  0  0  0  0  0  0  0  0  0  0  0
   57.5730   26.6870   46.8190 N   0  0  0  0  0  0  0  0  0  0  0  0
   56.3950   26.7060   46.1250 C   0  0  0  0  0  0  0  0  0  0  0  0
   55.6840   25.6130   46.0860 N   0  0  0  0  0  0  0  0  0  0  0  0
   56.1220   24.3080   45.6810 C   0  0  0  0  0  0  0  0  0  0  0  0
   56.1070   23.9760   44.3210 C   0  0  0  0  0  0  0  0  0  0  0  0
   55.7233   24.6982   43.5853 H   0  0  0  0  0  0  0  0  0  0  0  0
   56.5770   22.7320   43.8940 C   0  0  0  0  0  0  0  0  0  0  0  0
   56.5455   22.4701   42.8261 H   0  0  0  0  0  0  0  0  0  0  0  0
   57.0870   21.8200   44.8210 C   0  0  0  0  0  0  0  0  0  0  0  0
   57.4458   20.8377   44.4798 H   0  0  0  0  0  0  0  0  0  0  0  0
   57.1450   22.1470   46.1820 C   0  0  0  0  0  0  0  0  0  0  0  0
   57.6790   21.2040   47.0720 O   0  0  0  0  0  0  0  0  0  0  0  0
   57.7660   19.8080   46.8060 C   0  0  0  0  0  0  0  0  0  0  0  0
   57.8005   19.2551   47.7563 H   0  0  0  0  0  0  0  0  0  0  0  0
   56.8860   19.4893   46.2281 H   0  0  0  0  0  0  0  0  0  0  0  0
   58.6788   19.6010   46.2281 H   0  0  0  0  0  0  0  0  0  0  0  0
   56.6710   23.4040   46.6080 C   0  0  0  0  0  0  0  0  0  0  0  0
   56.7308   23.6795   47.6713 H   0  0  0  0  0  0  0  0  0  0  0  0
   56.0080   27.8540   45.4590 N   0  0  0  0  0  0  0  0  0  0  0  0
   55.1470   27.8720   44.8690 H   0  0  0  0  0  0  0  0  0  0  0  0
   56.7680   28.9890   45.5060 C   0  0  0  0  0  0  0  0  0  0  0  0
   56.4080   30.0290   44.8910 O   0  0  0  0  0  0  0  0  0  0  0  0
   57.9480   28.9530   46.2420 C   0  0  0  0  0  0  0  0  0  0  0  0
   57.7900   32.3890   42.6510 C   0  0  0  0  0  0  0  0  0  0  0  0
   57.2886   33.3401   42.4186 H   0  0  0  0  0  0  0  0  0  0  0  0
   58.5544   32.1590   41.8942 H   0  0  0  0  0  0  0  0  0  0  0  0
   56.8380   31.3570   42.6500 O   0  0  0  0  0  0  0  0  0  0  0  0
   56.7690   31.0310   43.5860 H   0  0  0  0  0  0  0  0  0  0  0  0
  1  2  1  0
  2  3  1  0
  3  4  1  0
  3  5  1  0
  3  6  1  0
  6  7  1  0
  6  8  1  0
  8  9  1  0
  9 10  1  0
  9 11  1  0
  9 12  1  0
 12 13  1  0
 13 14  1  0
 13 15  2  0
 15 16  1  0
 16 17  1  0
 17 18  1  0
 18 19  2  0
 19 20  1  0
 20 21  2  0
 21 22  1  0
 21 23  1  0
 23 24  1  0
 23 25  2  0
 25 26  1  0
 25 27  1  0
 27 28  1  0
 28 29  1  0
 29 30  1  0
 29 31  1  0
 29 32  1  0
 27 33  2  0
 33 34  1  0
 18 35  1  0
 35 36  1  0
 35 37  1  0
 37 38  2  0
 37 39  1  0
  6 40  1  0
 40 41  1  0
 40 42  1  0
 40 43  1  0
 43 44  1  0
 39 12  1  0
 39 16  2  0
 33 20  1  0
M  CHG  1  17  -1
M  END
>  <UniqueID>  (64) 
62

>  <SMILES>  (64) 
COc1cccc(/N=c2/[n-]c3ncn(COC(CO)CO)c3c(=O)[nH]2)c1

>  <Energy>  (64) 
93.89175344073266

>  <Genealogy>  (64) 
COc1cccc(N=c2[n-]c3ncn(COC(CO)CO)c3c(=O)[nH]2)c1 (protonated)
COc1cccc(/N=c2/[n-]c3ncn(COC(CO)CO)c3c(=O)[nH]2)c1 (cis-trans isomerization)
COc1cccc(/N=c2/[n-]c3ncn(COC(CO)CO)c3c(=O)[nH]2)c1 (3D coordinates assigned)
COc1cccc(/N=c2/[n-]c3ncn(COC(CO)CO)c3c(=O)[nH]2)c1 (optimized conformer: 93.89175344073266 kcal/mol)

>  <smiles>  (64) 
COc1cccc(N=c2[nH]c(=O)c3c(ncn3COC(CO)CO)[nH]2)c1

>  <score_type>  (64) 
oracle

>  <origin>  (64) 
adg

>  <m_score__min__energy>  (64) 
-8.0700000000000003

>  <m_primary>  (64) 
energy

$$$$
64:0
     RDKit          3D

 35 37  0  0  1  0  0  0  0  0999 V2000
   61.6820   30.1020   46.9460 F   0  0  0  0  0  0  0  0  0  0  0  0
   60.4980   29.5650   46.5170 C   0  0  0  0  0  0  0  0  0  0  0  0
   59.4150   29.5700   47.3950 C   0  0  0  0  0  0  0  0  0  0  0  0
   58.2090   29.0340   46.9850 C   0  0  0  0  0  0  0  0  0  0  0  0
   58.0840   28.5010   45.7210 C   0  0  0  0  0  0  0  0  0  0  0  0
   56.7610   27.9440   45.3500 C   0  0  0  0  0  0  0  0  0  0  0  0
   55.8530   28.9700   44.8810 N   0  0  0  0  0  0  0  0  0  0  0  0
   56.4110   29.9850   44.2650 C   0  0  0  0  0  0  0  0  0  0  0  0
   56.4000   30.0700   42.8920 C   0  0  0  0  0  0  0  0  0  0  0  0
   57.0180   31.1840   42.3220 C   0  0  0  0  0  0  0  0  0  0  0  0
   57.5970   32.1310   43.0840 N   0  0  0  0  0  0  0  0  0  0  0  0
   57.6020   32.0380   44.4160 C   0  0  0  0  0  0  0  0  0  0  0  0
   58.2220   33.0480   45.2650 C   0  0  0  0  0  0  0  0  0  0  0  0
   58.7760   34.2050   44.7960 C   0  0  0  0  0  0  0  0  0  0  0  0
   59.3640   35.1570   45.6170 C   0  0  0  0  0  0  0  0  0  0  0  0
   59.3930   34.9360   46.9790 C   0  0  0  0  0  0  0  0  0  0  0  0
   58.8350   33.7640   47.4840 C   0  0  0  0  0  0  0  0  0  0  0  0
   58.2650   32.8460   46.6410 C   0  0  0  0  0  0  0  0  0  0  0  0
   57.0100   30.9700   44.9670 N   0  0  0  0  0  0  0  0  0  0  0  0
   59.1650   28.4970   44.8450 C   0  0  0  0  0  0  0  0  0  0  0  0
   60.3750   29.0350   45.2570 C   0  0  0  0  0  0  0  0  0  0  0  0
   59.5194   29.9962   48.4037 H   0  0  0  0  0  0  0  0  0  0  0  0
   57.3476   29.0330   47.6691 H   0  0  0  0  0  0  0  0  0  0  0  0
   56.8999   27.2005   44.5513 H   0  0  0  0  0  0  0  0  0  0  0  0
   56.3213   27.4855   46.2480 H   0  0  0  0  0  0  0  0  0  0  0  0
   55.9257   29.2952   42.2717 H   0  0  0  0  0  0  0  0  0  0  0  0
   57.0323   31.2905   41.2273 H   0  0  0  0  0  0  0  0  0  0  0  0
   58.0350   32.9270   42.5820 H   0  0  0  0  0  0  0  0  0  0  0  0
   58.7551   34.3918   43.7122 H   0  0  0  0  0  0  0  0  0  0  0  0
   59.7995   36.0722   45.1894 H   0  0  0  0  0  0  0  0  0  0  0  0
   59.8496   35.6738   47.6551 H   0  0  0  0  0  0  0  0  0  0  0  0
   58.8519   33.5738   48.5673 H   0  0  0  0  0  0  0  0  0  0  0  0
   57.8310   31.9273   47.0624 H   0  0  0  0  0  0  0  0  0  0  0  0
   59.0609   28.0715   43.8360 H   0  0  0  0  0  0  0  0  0  0  0  0
   61.2368   29.0369   44.5734 H   0  0  0  0  0  0  0  0  0  0  0  0
  1  2  1  0
  2  3  2  0
  3  4  1  0
  4  5  2  0
  5  6  1  0
  6  7  1  0
  7  8  2  0
  8  9  1  0
  9 10  2  0
 10 11  1  0
 11 12  1  0
 12 13  1  0
 13 14  2  0
 14 15  1  0
 15 16  2  0
 16 17  1  0
 17 18  2  0
 12 19  2  0
  5 20  1  0
 20 21  2  0
 21  2  1  0
 19  8  1  0
 18 13  1  0
  3 22  1  0
  4 23  1  0
  6 24  1  0
  6 25  1  0
  9 26  1  0
 10 27  1  0
 11 28  1  0
 14 29  1  0
 15 30  1  0
 16 31  1  0
 17 32  1  0
 18 33  1  0
 20 34  1  0
 21 35  1  0
M  END
>  <smiles>  (65) 
Fc1ccc(CN=c2cc[nH]c(-c3ccccc3)n2)cc1

>  <score_type>  (65) 
oracle

>  <origin>  (65) 
adg

>  <m_score__min__energy>  (65) 
-7.5800000000000001

>  <m_primary>  (65) 
energy

$$$$
65:0
     RDKit          3D

 54 57  0  0  0  0  0  0  0  0999 V2000
   60.8278   30.1535   45.7899 H   0  0  0  0  0  0  0  0  0  0  0  0
   59.8370   30.5470   46.0610 C   0  0  0  0  0  0  0  0  0  0  0  0
   59.6740   31.1440   47.2000 N   0  0  0  0  0  0  0  0  0  0  0  0
   60.6420   31.1110   48.2190 N   0  0  0  0  0  0  0  0  0  0  0  0
   61.8690   31.6610   48.1560 C   0  0  0  0  0  0  0  0  0  0  0  0
   62.3310   32.6040   47.0890 C   0  0  0  0  0  0  0  0  0  0  0  0
   61.6656   33.4797   47.0673 H   0  0  0  0  0  0  0  0  0  0  0  0
   62.3060   32.0837   46.1202 H   0  0  0  0  0  0  0  0  0  0  0  0
   63.7570   33.0650   47.3630 C   0  0  0  0  0  0  0  0  0  0  0  0
   63.9227   33.1186   48.4491 H   0  0  0  0  0  0  0  0  0  0  0  0
   64.4652   32.3500   46.9189 H   0  0  0  0  0  0  0  0  0  0  0  0
   63.9127   34.0592   46.9189 H   0  0  0  0  0  0  0  0  0  0  0  0
   62.6430   31.2540   49.1840 N   0  0  0  0  0  0  0  0  0  0  0  0
   61.9050   30.4090   49.8890 N   0  0  0  0  0  0  0  0  0  0  0  0
   62.2460   29.8780   50.7220 H   0  0  0  0  0  0  0  0  0  0  0  0
   60.6970   30.3050   49.3020 C   0  0  0  0  0  0  0  0  0  0  0  0
   59.6800   29.2640   49.6820 C   0  0  0  0  0  0  0  0  0  0  0  0
   60.0638   28.6727   50.5264 H   0  0  0  0  0  0  0  0  0  0  0  0
   58.7438   29.7655   49.9685 H   0  0  0  0  0  0  0  0  0  0  0  0
   59.4110   28.3540   48.5230 C   0  0  0  0  0  0  0  0  0  0  0  0
   58.1620   28.2200   48.0000 N   0  0  0  0  0  0  0  0  0  0  0  0
   58.1420   27.3270   46.9860 C   0  0  0  0  0  0  0  0  0  0  0  0
   57.0830   27.0290   46.2930 N   0  0  0  0  0  0  0  0  0  0  0  0
   56.8590   25.8200   45.5450 C   0  0  0  0  0  0  0  0  0  0  0  0
   57.5800   25.5170   44.3730 C   0  0  0  0  0  0  0  0  0  0  0  0
   58.3712   26.1981   44.0264 H   0  0  0  0  0  0  0  0  0  0  0  0
   57.2960   24.3560   43.6480 C   0  0  0  0  0  0  0  0  0  0  0  0
   57.8735   24.1212   42.7417 H   0  0  0  0  0  0  0  0  0  0  0  0
   56.2740   23.4860   44.0730 C   0  0  0  0  0  0  0  0  0  0  0  0
   55.9500   22.3090   43.3840 O   0  0  0  0  0  0  0  0  0  0  0  0
   56.8990   21.3200   42.9950 C   0  0  0  0  0  0  0  0  0  0  0  0
   57.3393   20.8612   43.8926 H   0  0  0  0  0  0  0  0  0  0  0  0
   56.3971   20.5458   42.3960 H   0  0  0  0  0  0  0  0  0  0  0  0
   57.6933   21.7895   42.3960 H   0  0  0  0  0  0  0  0  0  0  0  0
   55.5420   23.8050   45.2210 C   0  0  0  0  0  0  0  0  0  0  0  0
   54.7362   23.1358   45.5569 H   0  0  0  0  0  0  0  0  0  0  0  0
   55.8250   24.9670   45.9460 C   0  0  0  0  0  0  0  0  0  0  0  0
   55.2302   25.2122   46.8382 H   0  0  0  0  0  0  0  0  0  0  0  0
   59.6630   26.6900   46.6790 S   0  0  0  0  0  0  0  0  0  0  0  0
   60.3930   27.5770   47.9090 C   0  0  0  0  0  0  0  0  0  0  0  0
   61.4584   27.5488   48.1811 H   0  0  0  0  0  0  0  0  0  0  0  0
   58.7040   30.3890   45.1210 C   0  0  0  0  0  0  0  0  0  0  0  0
   58.5100   29.1520   44.4720 C   0  0  0  0  0  0  0  0  0  0  0  0
   59.2423   28.3431   44.6113 H   0  0  0  0  0  0  0  0  0  0  0  0
   57.3970   28.9440   43.6540 C   0  0  0  0  0  0  0  0  0  0  0  0
   57.2598   27.9760   43.1499 H   0  0  0  0  0  0  0  0  0  0  0  0
   56.4600   29.9600   43.4750 C   0  0  0  0  0  0  0  0  0  0  0  0
   55.5792   29.7898   42.8385 H   0  0  0  0  0  0  0  0  0  0  0  0
   56.6390   31.1930   44.1030 C   0  0  0  0  0  0  0  0  0  0  0  0
   55.8939   31.9893   43.9592 H   0  0  0  0  0  0  0  0  0  0  0  0
   57.7610   31.4300   44.9180 C   0  0  0  0  0  0  0  0  0  0  0  0
   57.9390   32.7320   45.5040 N   0  0  0  0  0  0  0  0  0  0  0  0
   57.0370   33.2290   46.2090 O   0  0  0  0  0  0  0  0  0  0  0  0
   58.9840   33.5340   45.1040 O   0  0  0  0  0  0  0  0  0  0  0  0
  1  2  1  0
  2  3  2  0
  3  4  1  0
  4  5  1  0
  5  6  1  0
  6  7  1  0
  6  8  1  0
  6  9  1  0
  9 10  1  0
  9 11  1  0
  9 12  1  0
  5 13  2  0
 13 14  1  0
 14 15  1  0
 14 16  2  0
 16 17  1  0
 17 18  1  0
 17 19  1  0
 17 20  1  0
 20 21  1  0
 21 22  1  0
 22 23  2  3
 23 24  1  0
 24 25  2  0
 25 26  1  0
 25 27  1  0
 27 28  1  0
 27 29  2  0
 29 30  1  0
 30 31  1  0
 31 32  1  0
 31 33  1  0
 31 34  1  0
 29 35  1  0
 35 36  1  0
 35 37  2  0
 37 38  1  0
 22 39  1  0
 39 40  1  0
 40 41  1  0
  2 42  1  0
 42 43  2  0
 43 44  1  0
 43 45  1  0
 45 46  1  0
 45 47  2  0
 47 48  1  0
 47 49  1  0
 49 50  1  0
 49 51  2  0
 51 52  1  0
 52 53  2  0
 52 54  1  0
 16  4  1  0
 40 20  2  0
 51 42  1  0
 37 24  1  0
M  CHG  4  14   1  21  -1  52   1  54  -1
M  END
>  <UniqueID>  (66) 
63

>  <SMILES>  (66) 
CCc1n[nH+]c(Cc2csc(=Nc3ccc(OC)cc3)[n-]2)n1/N=C/c1ccccc1[N+](=O)[O-]

>  <Energy>  (66) 
133.22418944833998

>  <Genealogy>  (66) 
CCc1n[nH+]c(Cc2csc(=Nc3ccc(OC)cc3)[n-]2)n1N=Cc1ccccc1[N+](=O)[O-] (protonated)
CCc1n[nH+]c(Cc2csc(=Nc3ccc(OC)cc3)[n-]2)n1/N=C/c1ccccc1[N+](=O)[O-] (cis-trans isomerization)
CCc1n[nH+]c(Cc2csc(=Nc3ccc(OC)cc3)[n-]2)n1/N=C/c1ccccc1[N+](=O)[O-] (3D coordinates assigned)
CCc1n[nH+]c(Cc2csc(=Nc3ccc(OC)cc3)[n-]2)n1/N=C/c1ccccc1[N+](=O)[O-] (optimized conformer: 133.22418944833998 kcal/mol)

>  <smiles>  (66) 
CCc1nnc(Cc2csc(=Nc3ccc(OC)cc3)[nH]2)n1N=Cc1ccccc1[N+](=O)[O-]

>  <score_type>  (66) 
oracle

>  <origin>  (66) 
adg

>  <m_score__min__energy>  (66) 
-9.8399999999999999

>  <m_primary>  (66) 
energy

$$$$
66:0
     RDKit          3D

 71 75  0  0  0  0  0  0  0  0999 V2000
   56.6740   23.7790   43.5570 C   0  0  0  0  0  0  0  0  0  0  0  0
   56.1670   23.2660   44.8810 C   0  0  0  0  0  0  0  0  0  0  0  0
   56.1060   21.8810   45.0940 C   0  0  0  0  0  0  0  0  0  0  0  0
   55.6400   21.3680   46.3040 C   0  0  0  0  0  0  0  0  0  0  0  0
   55.2140   22.2240   47.3270 C   0  0  0  0  0  0  0  0  0  0  0  0
   54.8090   21.6620   48.5880 N   0  0  0  0  0  0  0  0  0  0  0  0
   53.6650   22.0960   49.3380 C   0  0  0  0  0  0  0  0  0  0  0  0
   52.6230   22.4650   48.7300 O   0  0  0  0  0  0  0  0  0  0  0  0
   53.6810   22.0720   50.8210 C   0  0  0  0  0  0  0  0  0  0  0  0
   52.8400   22.9240   51.5640 C   0  0  0  0  0  0  0  0  0  0  0  0
   52.8510   22.8870   52.9620 C   0  0  0  0  0  0  0  0  0  0  0  0
   53.6970   22.0010   53.6330 C   0  0  0  0  0  0  0  0  0  0  0  0
   54.5290   21.1450   52.9080 C   0  0  0  0  0  0  0  0  0  0  0  0
   54.5210   21.1760   51.5090 C   0  0  0  0  0  0  0  0  0  0  0  0
   55.2800   23.6150   47.1240 C   0  0  0  0  0  0  0  0  0  0  0  0
   55.7750   24.1420   45.9210 C   0  0  0  0  0  0  0  0  0  0  0  0
   55.9110   25.6090   45.7920 C   0  0  0  0  0  0  0  0  0  0  0  0
   54.9070   26.3430   45.9870 O   0  0  0  0  0  0  0  0  0  0  0  0
   57.1570   26.2120   45.4160 N   0  0  0  0  0  0  0  0  0  0  0  0
   57.5480   27.5500   45.7550 C   0  0  0  0  0  0  0  0  0  0  0  0
   57.6540   28.5210   44.7590 C   0  0  0  0  0  0  0  0  0  0  0  0
   58.0240   29.7900   45.0800 N   0  0  0  0  0  0  0  0  0  0  0  0
   58.2860   30.1410   46.3680 C   0  0  0  0  0  0  0  0  0  0  0  0
   58.6220   31.3690   46.6370 N   0  0  0  0  0  0  0  0  0  0  0  0
   59.8040   31.7960   47.3390 C   0  0  0  0  0  0  0  0  0  0  0  0
   59.9490   31.4490   48.6860 C   0  0  0  0  0  0  0  0  0  0  0  0
   61.0780   31.8490   49.4030 C   0  0  0  0  0  0  0  0  0  0  0  0
   62.0740   32.6170   48.7860 C   0  0  0  0  0  0  0  0  0  0  0  0
   63.2260   33.0100   49.5440 N   0  0  0  0  0  0  0  0  0  0  0  0
   64.4800   32.2750   49.3780 C   0  0  0  0  0  0  0  0  0  0  0  0
   65.6180   32.9560   50.1540 C   0  0  0  0  0  0  0  0  0  0  0  0
   65.2120   33.3200   51.5300 N   0  0  0  0  0  0  0  0  0  0  0  0
   65.1920   32.1450   52.4170 C   0  0  0  0  0  0  0  0  0  0  0  0
   63.9480   34.1020   51.6210 C   0  0  0  0  0  0  0  0  0  0  0  0
   63.2150   34.2720   50.2810 C   0  0  0  0  0  0  0  0  0  0  0  0
   61.9360   32.9850   47.4320 C   0  0  0  0  0  0  0  0  0  0  0  0
   62.9780   33.8250   46.7430 C   0  0  0  0  0  0  0  0  0  0  0  0
   60.7840   32.5990   46.7280 C   0  0  0  0  0  0  0  0  0  0  0  0
   58.1410   29.2170   47.3560 N   0  0  0  0  0  0  0  0  0  0  0  0
   57.7800   27.9390   47.0800 C   0  0  0  0  0  0  0  0  0  0  0  0
   57.4375   24.5515   43.7311 H   0  0  0  0  0  0  0  0  0  0  0  0
   57.1160   22.9485   42.9869 H   0  0  0  0  0  0  0  0  0  0  0  0
   55.8384   24.2112   42.9869 H   0  0  0  0  0  0  0  0  0  0  0  0
   56.4289   21.1929   44.2989 H   0  0  0  0  0  0  0  0  0  0  0  0
   55.6067   20.2791   46.4565 H   0  0  0  0  0  0  0  0  0  0  0  0
   55.3790   20.8800   48.9840 H   0  0  0  0  0  0  0  0  0  0  0  0
   52.1705   23.6228   51.0411 H   0  0  0  0  0  0  0  0  0  0  0  0
   52.1922   23.5568   53.5342 H   0  0  0  0  0  0  0  0  0  0  0  0
   53.7080   21.9774   54.7327 H   0  0  0  0  0  0  0  0  0  0  0  0
   55.1919   20.4450   53.4378 H   0  0  0  0  0  0  0  0  0  0  0  0
   55.1751   20.4961   50.9434 H   0  0  0  0  0  0  0  0  0  0  0  0
   54.9398   24.2970   47.9172 H   0  0  0  0  0  0  0  0  0  0  0  0
   57.4380   28.2600   43.7124 H   0  0  0  0  0  0  0  0  0  0  0  0
   59.1676   30.8564   49.1842 H   0  0  0  0  0  0  0  0  0  0  0  0
   61.1862   31.5595   50.4587 H   0  0  0  0  0  0  0  0  0  0  0  0
   64.3497   31.2497   49.7546 H   0  0  0  0  0  0  0  0  0  0  0  0
   64.7413   32.2600   48.3096 H   0  0  0  0  0  0  0  0  0  0  0  0
   66.4736   32.2667   50.2070 H   0  0  0  0  0  0  0  0  0  0  0  0
   65.8844   33.8817   49.6228 H   0  0  0  0  0  0  0  0  0  0  0  0
   65.1977   32.4771   53.4657 H   0  0  0  0  0  0  0  0  0  0  0  0
   64.2837   31.5553   52.2240 H   0  0  0  0  0  0  0  0  0  0  0  0
   66.0797   31.5248   52.2240 H   0  0  0  0  0  0  0  0  0  0  0  0
   63.2732   33.5869   52.3205 H   0  0  0  0  0  0  0  0  0  0  0  0
   64.2242   35.1111   51.9607 H   0  0  0  0  0  0  0  0  0  0  0  0
   62.1745   34.5747   50.4703 H   0  0  0  0  0  0  0  0  0  0  0  0
   63.7244   35.0437   49.6851 H   0  0  0  0  0  0  0  0  0  0  0  0
   63.6014   34.3275   47.4973 H   0  0  0  0  0  0  0  0  0  0  0  0
   63.6107   33.1814   46.1141 H   0  0  0  0  0  0  0  0  0  0  0  0
   62.4834   34.5799   46.1141 H   0  0  0  0  0  0  0  0  0  0  0  0
   60.6465   32.9281   45.6874 H   0  0  0  0  0  0  0  0  0  0  0  0
   57.6697   27.2093   47.8957 H   0  0  0  0  0  0  0  0  0  0  0  0
  1  2  1  0
  2  3  2  0
  3  4  1  0
  4  5  2  0
  5  6  1  0
  6  7  1  0
  7  8  2  0
  7  9  1  0
  9 10  2  0
 10 11  1  0
 11 12  2  0
 12 13  1  0
 13 14  2  0
  5 15  1  0
 15 16  2  0
 16 17  1  0
 17 18  2  0
 17 19  1  0
 19 20  1  0
 20 21  1  0
 21 22  2  0
 22 23  1  0
 23 24  2  3
 24 25  1  0
 25 26  2  0
 26 27  1  0
 27 28  2  0
 28 29  1  0
 29 30  1  0
 30 31  1  0
 31 32  1  0
 32 33  1  0
 32 34  1  0
 34 35  1  0
 28 36  1  0
 36 37  1  0
 36 38  2  0
 23 39  1  0
 39 40  1  0
 16  2  1  0
 40 20  2  0
 14  9  1  0
 38 25  1  0
 35 29  1  0
  1 41  1  0
  1 42  1  0
  1 43  1  0
  3 44  1  0
  4 45  1  0
  6 46  1  0
 10 47  1  0
 11 48  1  0
 12 49  1  0
 13 50  1  0
 14 51  1  0
 15 52  1  0
 21 53  1  0
 26 54  1  0
 27 55  1  0
 30 56  1  0
 30 57  1  0
 31 58  1  0
 31 59  1  0
 33 60  1  0
 33 61  1  0
 33 62  1  0
 34 63  1  0
 34 64  1  0
 35 65  1  0
 35 66  1  0
 37 67  1  0
 37 68  1  0
 37 69  1  0
 38 70  1  0
 40 71  1  0
M  CHG  2  19  -1  39  -1
M  END
>  <UniqueID>  (67) 
64

>  <SMILES>  (67) 
Cc1ccc(NC(=O)c2ccccc2)cc1C(=O)[N-]c1cnc(=Nc2ccc(N3CCN(C)CC3)c(C)c2)[n-]c1

>  <Energy>  (67) 
110.87705685301793

>  <Genealogy>  (67) 
Cc1ccc(NC(=O)c2ccccc2)cc1C(=O)[N-]c1cnc(=Nc2ccc(N3CCN(C)CC3)c(C)c2)[n-]c1 (protonated)
Cc1ccc(NC(=O)c2ccccc2)cc1C(=O)[N-]c1cnc(=Nc2ccc(N3CCN(C)CC3)c(C)c2)[n-]c1 (3D coordinates assigned)
Cc1ccc(NC(=O)c2ccccc2)cc1C(=O)[N-]c1cnc(=Nc2ccc(N3CCN(C)CC3)c(C)c2)[n-]c1 (nonaromatic ring conformer: 110.87705685301793 kcal/mol)

>  <smiles>  (67) 
Cc1ccc(NC(=O)c2ccccc2)cc1C(=O)Nc1cnc(=Nc2ccc(N3CCN(C)CC3)c(C)c2)[nH]c1

>  <score_type>  (67) 
oracle

>  <origin>  (67) 
adg

>  <m_score__min__energy>  (67) 
-11.640000000000001

>  <m_primary>  (67) 
energy

$$$$
67:0
     RDKit          3D

 76 80  0  0  0  0  0  0  0  0999 V2000
   59.5690   29.1120   45.2760 O   0  0  0  0  0  0  0  0  0  0  0  0
   59.5640   28.5170   46.3890 C   0  0  0  0  0  0  0  0  0  0  0  0
   60.7560   28.6040   47.2980 C   0  0  0  0  0  0  0  0  0  0  0  0
   60.5210   29.5380   48.3980 N   0  0  0  0  0  0  0  0  0  0  0  0
   59.5430   29.3950   49.3110 C   0  0  0  0  0  0  0  0  0  0  0  0
   59.5270   30.5200   50.1100 C   0  0  0  0  0  0  0  0  0  0  0  0
   58.5710   30.8260   51.2020 C   0  0  0  0  0  0  0  0  0  0  0  0
   58.0340   32.1220   51.3190 C   0  0  0  0  0  0  0  0  0  0  0  0
   57.1080   32.4200   52.3230 C   0  0  0  0  0  0  0  0  0  0  0  0
   56.7100   31.4310   53.2240 C   0  0  0  0  0  0  0  0  0  0  0  0
   57.2420   30.1440   53.1250 C   0  0  0  0  0  0  0  0  0  0  0  0
   58.1670   29.8410   52.1210 C   0  0  0  0  0  0  0  0  0  0  0  0
   60.4900   31.3680   49.6970 N   0  0  0  0  0  0  0  0  0  0  0  0
   61.0830   30.7470   48.6530 C   0  0  0  0  0  0  0  0  0  0  0  0
   62.1930   31.4260   47.8670 C   0  0  0  0  0  0  0  0  0  0  0  0
   63.3410   31.9430   48.7720 C   0  0  0  0  0  0  0  0  0  0  0  0
   63.4900   33.4590   48.7820 C   0  0  0  0  0  0  0  0  0  0  0  0
   63.4990   33.9590   47.4090 N   0  0  0  0  0  0  0  0  0  0  0  0
   62.1530   33.8550   46.8430 C   0  0  0  0  0  0  0  0  0  0  0  0
   61.6760   32.3910   46.7550 C   0  0  0  0  0  0  0  0  0  0  0  0
   58.4280   27.7360   46.7850 N   0  0  0  0  0  0  0  0  0  0  0  0
   57.1600   27.7710   46.0560 C   0  0  1  0  0  0  0  0  0  0  0  0
   57.4110   27.9310   44.5470 C   0  0  0  0  0  0  0  0  0  0  0  0
   56.7810   29.4900   43.9180 S   0  0  0  0  0  0  0  0  0  0  0  0
   56.1190   29.2390   42.5910 O   0  0  0  0  0  0  0  0  0  0  0  0
   55.7580   30.0510   44.8630 O   0  0  0  0  0  0  0  0  0  0  0  0
   58.0850   30.7000   43.7010 C   0  0  0  0  0  0  0  0  0  0  0  0
   58.0180   31.7870   44.7430 C   0  0  0  0  0  0  0  0  0  0  0  0
   58.2060   31.4840   46.1010 C   0  0  0  0  0  0  0  0  0  0  0  0
   58.1190   32.4890   47.0690 C   0  0  0  0  0  0  0  0  0  0  0  0
   57.8580   33.8070   46.6880 C   0  0  0  0  0  0  0  0  0  0  0  0
   57.6940   34.1220   45.3380 C   0  0  0  0  0  0  0  0  0  0  0  0
   57.7760   33.1190   44.3670 C   0  0  0  0  0  0  0  0  0  0  0  0
   56.3900   26.5200   46.3810 C   0  0  0  0  0  0  0  0  0  0  0  0
   56.8430   25.6730   47.2020 O   0  0  0  0  0  0  0  0  0  0  0  0
   55.1040   26.3260   45.7880 N   0  0  0  0  0  0  0  0  0  0  0  0
   54.5000   25.0160   45.5840 C   0  0  0  0  0  0  0  0  0  0  0  0
   55.3330   24.2170   44.6330 C   0  0  0  0  0  0  0  0  0  0  0  0
   56.7010   24.0460   44.7020 C   0  0  0  0  0  0  0  0  0  0  0  0
   57.0240   23.2090   43.6550 C   0  0  0  0  0  0  0  0  0  0  0  0
   55.8340   22.9220   43.0150 C   0  0  0  0  0  0  0  0  0  0  0  0
   54.8450   23.5370   43.6210 O   0  0  0  0  0  0  0  0  0  0  0  0
   60.9629   27.6067   47.7133 H   0  0  0  0  0  0  0  0  0  0  0  0
   61.6126   28.9681   46.7117 H   0  0  0  0  0  0  0  0  0  0  0  0
   58.8710   28.5292   49.4045 H   0  0  0  0  0  0  0  0  0  0  0  0
   58.3457   32.9070   50.6143 H   0  0  0  0  0  0  0  0  0  0  0  0
   56.6924   33.4353   52.4031 H   0  0  0  0  0  0  0  0  0  0  0  0
   55.9781   31.6653   54.0110 H   0  0  0  0  0  0  0  0  0  0  0  0
   56.9327   29.3662   53.8387 H   0  0  0  0  0  0  0  0  0  0  0  0
   58.5817   28.8247   52.0495 H   0  0  0  0  0  0  0  0  0  0  0  0
   62.6881   30.6471   47.2686 H   0  0  0  0  0  0  0  0  0  0  0  0
   63.1468   31.6081   49.8016 H   0  0  0  0  0  0  0  0  0  0  0  0
   64.2766   31.5349   48.3620 H   0  0  0  0  0  0  0  0  0  0  0  0
   62.6470   33.9062   49.3291 H   0  0  0  0  0  0  0  0  0  0  0  0
   64.4346   33.7303   49.2761 H   0  0  0  0  0  0  0  0  0  0  0  0
   63.7460   34.9770   47.4450 H   0  0  0  0  0  0  0  0  0  0  0  0
   61.4552   34.4184   47.4799 H   0  0  0  0  0  0  0  0  0  0  0  0
   62.1801   34.2659   45.8230 H   0  0  0  0  0  0  0  0  0  0  0  0
   60.5769   32.3937   46.7984 H   0  0  0  0  0  0  0  0  0  0  0  0
   62.0931   32.0033   45.8139 H   0  0  0  0  0  0  0  0  0  0  0  0
   58.4400   27.2900   47.7280 H   0  0  0  0  0  0  0  0  0  0  0  0
   56.5607   28.6402   46.3646 H   0  0  0  0  0  0  0  0  0  0  0  0
   58.4942   27.8854   44.3610 H   0  0  0  0  0  0  0  0  0  0  0  0
   56.8819   27.1182   44.0280 H   0  0  0  0  0  0  0  0  0  0  0  0
   59.0580   30.1927   43.7776 H   0  0  0  0  0  0  0  0  0  0  0  0
   57.9589   31.1654   42.7123 H   0  0  0  0  0  0  0  0  0  0  0  0
   58.4231   30.4494   46.4052 H   0  0  0  0  0  0  0  0  0  0  0  0
   58.2563   32.2413   48.1319 H   0  0  0  0  0  0  0  0  0  0  0  0
   57.7818   34.5959   47.4508 H   0  0  0  0  0  0  0  0  0  0  0  0
   57.4997   35.1621   45.0372 H   0  0  0  0  0  0  0  0  0  0  0  0
   57.6505   33.3739   43.3043 H   0  0  0  0  0  0  0  0  0  0  0  0
   54.4379   24.4884   46.5472 H   0  0  0  0  0  0  0  0  0  0  0  0
   53.4908   25.1425   45.1651 H   0  0  0  0  0  0  0  0  0  0  0  0
   57.3897   24.4857   45.4385 H   0  0  0  0  0  0  0  0  0  0  0  0
   58.0258   22.8440   43.3844 H   0  0  0  0  0  0  0  0  0  0  0  0
   55.7306   22.2757   42.1309 H   0  0  0  0  0  0  0  0  0  0  0  0
  1  2  2  0
  2  3  1  0
  3  4  1  0
  4  5  1  0
  5  6  2  0
  6  7  1  0
  7  8  2  0
  8  9  1  0
  9 10  2  0
 10 11  1  0
 11 12  2  0
  6 13  1  0
 13 14  2  0
 14 15  1  0
 15 16  1  0
 16 17  1  0
 17 18  1  0
 18 19  1  0
 19 20  1  0
  2 21  1  0
 21 22  1  0
 22 23  1  0
 23 24  1  0
 24 25  2  0
 24 26  2  0
 24 27  1  0
 27 28  1  0
 28 29  2  0
 29 30  1  0
 30 31  2  0
 31 32  1  0
 32 33  2  0
 22 34  1  0
 34 35  2  0
 34 36  1  0
 36 37  1  0
 37 38  1  0
 38 39  2  0
 39 40  1  0
 40 41  2  0
 41 42  1  0
 14  4  1  0
 20 15  1  0
 33 28  1  0
 42 38  1  0
 12  7  1  0
  3 43  1  0
  3 44  1  0
  5 45  1  0
  8 46  1  0
  9 47  1  0
 10 48  1  0
 11 49  1  0
 12 50  1  0
 15 51  1  0
 16 52  1  0
 16 53  1  0
 17 54  1  0
 17 55  1  0
 18 56  1  0
 19 57  1  0
 19 58  1  0
 20 59  1  0
 20 60  1  0
 21 61  1  0
 22 62  1  1
 23 63  1  0
 23 64  1  0
 27 65  1  0
 27 66  1  0
 29 67  1  0
 30 68  1  0
 31 69  1  0
 32 70  1  0
 33 71  1  0
 37 72  1  0
 37 73  1  0
 39 74  1  0
 40 75  1  0
 41 76  1  0
M  CHG  1  36  -1
M  END
>  <UniqueID>  (68) 
65

>  <SMILES>  (68) 
O=C(Cn1cc(-c2ccccc2)nc1C1CCNCC1)N[C@@H](CS(=O)(=O)Cc1ccccc1)C(=O)[N-]Cc1ccco1

>  <Energy>  (68) 
129.4094630042154

>  <Genealogy>  (68) 
O=C(Cn1cc(-c2ccccc2)nc1C1CCNCC1)NC(CS(=O)(=O)Cc1ccccc1)C(=O)[N-]Cc1ccco1 (protonated)
O=C(Cn1cc(-c2ccccc2)nc1C1CCNCC1)N[C@@H](CS(=O)(=O)Cc1ccccc1)C(=O)[N-]Cc1ccco1 (chirality)
O=C(Cn1cc(-c2ccccc2)nc1C1CCNCC1)N[C@@H](CS(=O)(=O)Cc1ccccc1)C(=O)[N-]Cc1ccco1 (3D coordinates assigned)
O=C(Cn1cc(-c2ccccc2)nc1C1CCNCC1)N[C@@H](CS(=O)(=O)Cc1ccccc1)C(=O)[N-]Cc1ccco1 (nonaromatic ring conformer: 129.4094630042154 kcal/mol)

>  <smiles>  (68) 
O=C(Cn1cc(-c2ccccc2)nc1C1CCNCC1)NC(CS(=O)(=O)Cc1ccccc1)C(=O)NCc1ccco1

>  <score_type>  (68) 
oracle

>  <origin>  (68) 
adg

>  <m_score__min__energy>  (68) 
-13.07

>  <m_primary>  (68) 
energy

$$$$
68:0
     RDKit          3D

 43 45  0  0  0  0  0  0  0  0999 V2000
   61.9430   30.8180   47.0910 O   0  0  0  0  0  0  0  0  0  0  0  0
   60.8090   30.4770   46.6630 C   0  0  0  0  0  0  0  0  0  0  0  0
   60.7020   29.3570   45.6620 C   0  0  0  0  0  0  0  0  0  0  0  0
   59.3290   28.7380   45.6540 C   0  0  0  0  0  0  0  0  0  0  0  0
   58.8860   27.9790   46.7500 C   0  0  0  0  0  0  0  0  0  0  0  0
   57.6150   27.3940   46.7380 C   0  0  0  0  0  0  0  0  0  0  0  0
   56.7800   27.5570   45.6290 C   0  0  0  0  0  0  0  0  0  0  0  0
   55.5480   26.9860   45.6160 F   0  0  0  0  0  0  0  0  0  0  0  0
   57.2160   28.3030   44.5310 C   0  0  0  0  0  0  0  0  0  0  0  0
   58.4870   28.8850   44.5380 C   0  0  0  0  0  0  0  0  0  0  0  0
   59.6560   31.2050   47.1010 N   0  0  0  0  0  0  0  0  0  0  0  0
   59.0020   32.2230   46.3350 C   0  0  0  0  0  0  0  0  0  0  0  0
   58.0900   31.8640   45.3330 C   0  0  0  0  0  0  0  0  0  0  0  0
   57.4150   32.8430   44.6070 C   0  0  0  0  0  0  0  0  0  0  0  0
   57.6320   34.1920   44.8880 C   0  0  0  0  0  0  0  0  0  0  0  0
   58.5200   34.5630   45.9020 C   0  0  0  0  0  0  0  0  0  0  0  0
   59.1990   33.5840   46.6510 C   0  0  0  0  0  0  0  0  0  0  0  0
   60.1670   33.9670   47.7130 C   0  0  0  0  0  0  0  0  0  0  0  0
   59.8380   34.9000   48.4970 O   0  0  0  0  0  0  0  0  0  0  0  0
   61.4470   33.3120   47.9150 N   0  0  0  0  0  0  0  0  0  0  0  0
   62.0940   33.5690   49.2130 C   0  0  0  0  0  0  0  0  0  0  0  0
   63.5880   33.4490   48.9720 C   0  0  0  0  0  0  0  0  0  0  0  0
   63.7770   33.8540   47.5240 C   0  0  0  0  0  0  0  0  0  0  0  0
   62.4210   33.6420   46.8580 C   0  0  0  0  0  0  0  0  0  0  0  0
   60.9184   29.7546   44.6595 H   0  0  0  0  0  0  0  0  0  0  0  0
   61.4249   28.5776   45.9449 H   0  0  0  0  0  0  0  0  0  0  0  0
   59.5420   27.8438   47.6226 H   0  0  0  0  0  0  0  0  0  0  0  0
   57.2727   26.8054   47.6019 H   0  0  0  0  0  0  0  0  0  0  0  0
   56.5578   28.4326   43.6593 H   0  0  0  0  0  0  0  0  0  0  0  0
   58.8300   29.4609   43.6658 H   0  0  0  0  0  0  0  0  0  0  0  0
   57.9058   30.8010   45.1182 H   0  0  0  0  0  0  0  0  0  0  0  0
   56.7115   32.5524   43.8129 H   0  0  0  0  0  0  0  0  0  0  0  0
   57.1036   34.9651   44.3108 H   0  0  0  0  0  0  0  0  0  0  0  0
   58.6893   35.6286   46.1161 H   0  0  0  0  0  0  0  0  0  0  0  0
   61.2730   32.2780   47.8680 H   0  0  0  0  0  0  0  0  0  0  0  0
   61.8451   34.5793   49.5698 H   0  0  0  0  0  0  0  0  0  0  0  0
   61.7529   32.8572   49.9791 H   0  0  0  0  0  0  0  0  0  0  0  0
   64.1442   34.1237   49.6394 H   0  0  0  0  0  0  0  0  0  0  0  0
   63.9621   32.4343   49.1729 H   0  0  0  0  0  0  0  0  0  0  0  0
   64.0768   34.9102   47.4568 H   0  0  0  0  0  0  0  0  0  0  0  0
   64.5666   33.2637   47.0361 H   0  0  0  0  0  0  0  0  0  0  0  0
   62.1119   34.5605   46.3377 H   0  0  0  0  0  0  0  0  0  0  0  0
   62.4781   32.8282   46.1201 H   0  0  0  0  0  0  0  0  0  0  0  0
  1  2  2  0
  2  3  1  0
  3  4  1  0
  4  5  2  0
  5  6  1  0
  6  7  2  0
  7  8  1  0
  7  9  1  0
  9 10  2  0
  2 11  1  0
 11 12  1  0
 12 13  2  0
 13 14  1  0
 14 15  2  0
 15 16  1  0
 16 17  2  0
 17 18  1  0
 18 19  2  0
 18 20  1  0
 20 21  1  0
 21 22  1  0
 22 23  1  0
 23 24  1  0
 10  4  1  0
 17 12  1  0
 24 20  1  0
  3 25  1  0
  3 26  1  0
  5 27  1  0
  6 28  1  0
  9 29  1  0
 10 30  1  0
 13 31  1  0
 14 32  1  0
 15 33  1  0
 16 34  1  0
 20 35  1  0
 21 36  1  0
 21 37  1  0
 22 38  1  0
 22 39  1  0
 23 40  1  0
 23 41  1  0
 24 42  1  0
 24 43  1  0
M  CHG  2  11  -1  20   1
M  END
>  <UniqueID>  (69) 
66

>  <SMILES>  (69) 
O=C(Cc1ccc(F)cc1)[N-]c1ccccc1C(=O)[NH+]1CCCC1

>  <Energy>  (69) 
62.29664864636425

>  <Genealogy>  (69) 
O=C(Cc1ccc(F)cc1)[N-]c1ccccc1C(=O)[NH+]1CCCC1 (protonated)
O=C(Cc1ccc(F)cc1)[N-]c1ccccc1C(=O)[NH+]1CCCC1 (3D coordinates assigned)
O=C(Cc1ccc(F)cc1)[N-]c1ccccc1C(=O)[NH+]1CCCC1 (nonaromatic ring conformer: 62.29664864636425 kcal/mol)

>  <smiles>  (69) 
O=C(Cc1ccc(F)cc1)Nc1ccccc1C(=O)N1CCCC1

>  <score_type>  (69) 
oracle

>  <origin>  (69) 
adg

>  <m_score__min__energy>  (69) 
-7.6799999999999997

>  <m_primary>  (69) 
energy

$$$$
69:0
     RDKit          3D

 55 58  0  0  0  0  0  0  0  0999 V2000
   57.7160   22.8390   44.0810 C   0  0  0  0  0  0  0  0  0  0  0  0
   58.6140   22.7540   45.6160 S   0  0  0  0  0  0  0  0  0  0  0  0
   57.8080   22.0310   46.6580 O   0  0  0  0  0  0  0  0  0  0  0  0
   59.8920   22.0000   45.3840 O   0  0  0  0  0  0  0  0  0  0  0  0
   59.0040   24.3510   46.1690 N   0  0  0  0  0  0  0  0  0  0  0  0
   58.2400   25.5390   45.9120 C   0  0  0  0  0  0  0  0  0  0  0  0
   58.8070   26.6860   45.3310 C   0  0  0  0  0  0  0  0  0  0  0  0
   58.0230   27.8220   45.1030 C   0  0  0  0  0  0  0  0  0  0  0  0
   56.6630   27.8300   45.4620 C   0  0  0  0  0  0  0  0  0  0  0  0
   55.8190   28.9680   45.2340 N   0  0  0  0  0  0  0  0  0  0  0  0
   55.9140   29.9120   44.1580 C   0  0  0  0  0  0  0  0  0  0  0  0
   55.6970   29.5550   42.9710 O   0  0  0  0  0  0  0  0  0  0  0  0
   56.2560   31.2780   44.4170 N   0  0  0  0  0  0  0  0  0  0  0  0
   57.3740   31.7430   45.1870 C   0  0  0  0  0  0  0  0  0  0  0  0
   57.9870   32.9800   44.9330 C   0  0  0  0  0  0  0  0  0  0  0  0
   59.0590   33.4080   45.7180 C   0  0  0  0  0  0  0  0  0  0  0  0
   59.5240   32.6240   46.7850 C   0  0  0  0  0  0  0  0  0  0  0  0
   60.6430   33.1350   47.6110 C   0  0  0  0  0  0  0  0  0  0  0  0
   60.3860   33.7310   48.8550 C   0  0  0  0  0  0  0  0  0  0  0  0
   61.4480   34.2180   49.6180 C   0  0  0  0  0  0  0  0  0  0  0  0
   62.7240   34.1070   49.1620 N   0  0  0  0  0  0  0  0  0  0  0  0
   63.0070   33.5230   47.9650 C   0  0  0  0  0  0  0  0  0  0  0  0
   64.2340   33.4270   47.5630 N   0  0  0  0  0  0  0  0  0  0  0  0
   61.9710   33.0210   47.1710 C   0  0  0  0  0  0  0  0  0  0  0  0
   58.9000   31.3810   47.0560 C   0  0  0  0  0  0  0  0  0  0  0  0
   59.3650   30.5180   48.1120 N   0  0  0  0  0  0  0  0  0  0  0  0
   58.9970   30.8240   49.5010 C   0  0  0  0  0  0  0  0  0  0  0  0
   59.4470   29.7120   50.4570 C   0  0  0  0  0  0  0  0  0  0  0  0
   60.7780   29.3310   50.1730 O   0  0  0  0  0  0  0  0  0  0  0  0
   60.8190   28.6100   48.9550 C   0  0  0  0  0  0  0  0  0  0  0  0
   60.2340   29.4060   47.8250 C   0  0  0  0  0  0  0  0  0  0  0  0
   60.4590   29.0550   46.6360 O   0  0  0  0  0  0  0  0  0  0  0  0
   57.8230   30.9630   46.2580 C   0  0  0  0  0  0  0  0  0  0  0  0
   56.0970   26.6760   46.0130 C   0  0  0  0  0  0  0  0  0  0  0  0
   56.8800   25.5430   46.2430 C   0  0  0  0  0  0  0  0  0  0  0  0
   56.6409   22.9408   44.2903 H   0  0  0  0  0  0  0  0  0  0  0  0
   58.0608   23.7085   43.5022 H   0  0  0  0  0  0  0  0  0  0  0  0
   57.8915   21.9202   43.5022 H   0  0  0  0  0  0  0  0  0  0  0  0
   59.8716   26.6907   45.0543 H   0  0  0  0  0  0  0  0  0  0  0  0
   58.4723   28.7133   44.6407 H   0  0  0  0  0  0  0  0  0  0  0  0
   57.6212   33.6145   44.1122 H   0  0  0  0  0  0  0  0  0  0  0  0
   59.5445   34.3702   45.4978 H   0  0  0  0  0  0  0  0  0  0  0  0
   59.3539   33.8138   49.2264 H   0  0  0  0  0  0  0  0  0  0  0  0
   61.2523   34.6928   50.5907 H   0  0  0  0  0  0  0  0  0  0  0  0
   64.5700   32.5930   47.0310 H   0  0  0  0  0  0  0  0  0  0  0  0
   62.1954   32.5398   46.2076 H   0  0  0  0  0  0  0  0  0  0  0  0
   59.4769   31.7679   49.7988 H   0  0  0  0  0  0  0  0  0  0  0  0
   57.9017   30.9079   49.5586 H   0  0  0  0  0  0  0  0  0  0  0  0
   59.3871   30.0775   51.4928 H   0  0  0  0  0  0  0  0  0  0  0  0
   58.7893   28.8399   50.3270 H   0  0  0  0  0  0  0  0  0  0  0  0
   61.8655   28.3682   48.7177 H   0  0  0  0  0  0  0  0  0  0  0  0
   60.2233   27.6933   49.0762 H   0  0  0  0  0  0  0  0  0  0  0  0
   57.3246   30.0075   46.4784 H   0  0  0  0  0  0  0  0  0  0  0  0
   55.0269   26.6607   46.2671 H   0  0  0  0  0  0  0  0  0  0  0  0
   56.4243   24.6462   46.6880 H   0  0  0  0  0  0  0  0  0  0  0  0
  1  2  1  0
  2  3  2  0
  2  4  2  0
  2  5  1  0
  5  6  1  0
  6  7  2  0
  7  8  1  0
  8  9  2  0
  9 10  1  0
 10 11  1  0
 11 12  2  0
 11 13  1  0
 13 14  1  0
 14 15  2  0
 15 16  1  0
 16 17  2  0
 17 18  1  0
 18 19  1  0
 19 20  2  0
 20 21  1  0
 21 22  1  0
 22 23  2  3
 22 24  1  0
 17 25  1  0
 25 26  1  0
 26 27  1  0
 27 28  1  0
 28 29  1  0
 29 30  1  0
 30 31  1  0
 31 32  2  0
 25 33  2  0
  9 34  1  0
 34 35  2  0
 35  6  1  0
 33 14  1  0
 24 18  2  0
 31 26  1  0
  1 36  1  0
  1 37  1  0
  1 38  1  0
  7 39  1  0
  8 40  1  0
 15 41  1  0
 16 42  1  0
 19 43  1  0
 20 44  1  0
 23 45  1  0
 24 46  1  0
 27 47  1  0
 27 48  1  0
 28 49  1  0
 28 50  1  0
 30 51  1  0
 30 52  1  0
 33 53  1  0
 34 54  1  0
 35 55  1  0
M  CHG  4   5  -1  10  -1  13  -1  21  -1
M  END
>  <UniqueID>  (70) 
67

>  <SMILES>  (70) 
CS(=O)(=O)[N-]c1ccc([N-]C(=O)[N-]c2ccc(-c3cc[n-]c(=N)c3)c(N3CCOCC3=O)c2)cc1

>  <Energy>  (70) 
80.37240788436904

>  <Genealogy>  (70) 
CS(=O)(=O)[N-]c1ccc([N-]C(=O)[N-]c2ccc(-c3cc[n-]c(=N)c3)c(N3CCOCC3=O)c2)cc1 (protonated)
CS(=O)(=O)[N-]c1ccc([N-]C(=O)[N-]c2ccc(-c3cc[n-]c(=N)c3)c(N3CCOCC3=O)c2)cc1 (3D coordinates assigned)
CS(=O)(=O)[N-]c1ccc([N-]C(=O)[N-]c2ccc(-c3cc[n-]c(=N)c3)c(N3CCOCC3=O)c2)cc1 (nonaromatic ring conformer: 80.37240788436904 kcal/mol)

>  <smiles>  (70) 
CS(=O)(=O)Nc1ccc(NC(=O)Nc2ccc(-c3cc[nH]c(=N)c3)c(N3CCOCC3=O)c2)cc1

>  <score_type>  (70) 
oracle

>  <origin>  (70) 
adg

>  <m_score__min__energy>  (70) 
-14.550000000000001

>  <m_primary>  (70) 
energy

$$$$
70:0
     RDKit          3D

 47 49  0  0  0  0  0  0  0  0999 V2000
   59.0670   33.7810   52.4920 N   0  0  0  0  0  0  0  0  0  0  0  0
   59.6290   33.8060   51.4810 C   0  0  0  0  0  0  0  0  0  0  0  0
   60.3280   33.8380   50.2230 C   0  0  0  0  0  0  0  0  0  0  0  0
   61.6890   33.5150   50.1690 C   0  0  0  0  0  0  0  0  0  0  0  0
   62.3640   33.5300   48.9430 C   0  0  0  0  0  0  0  0  0  0  0  0
   64.0660   33.1150   48.8730 Cl  0  0  0  0  0  0  0  0  0  0  0  0
   61.6790   33.8750   47.7720 C   0  0  0  0  0  0  0  0  0  0  0  0
   60.3230   34.2190   47.8180 C   0  0  0  0  0  0  0  0  0  0  0  0
   59.6700   34.5430   46.6190 O   0  0  0  0  0  0  0  0  0  0  0  0
   58.9160   33.6540   45.8400 C   0  0  0  0  0  0  0  0  0  0  0  0
   58.5320   32.4290   46.3980 C   0  0  0  0  0  0  0  0  0  0  0  0
   57.7710   31.5210   45.6560 C   0  0  0  0  0  0  0  0  0  0  0  0
   57.4120   31.8150   44.3310 C   0  0  0  0  0  0  0  0  0  0  0  0
   56.5550   30.8600   43.5480 C   0  0  0  0  0  0  0  0  0  0  0  0
   56.5980   29.5010   44.1760 C   0  0  0  0  0  0  0  0  0  0  0  0
   55.6120   29.0990   44.8500 O   0  0  0  0  0  0  0  0  0  0  0  0
   57.7330   28.6480   43.9670 N   0  0  0  0  0  0  0  0  0  0  0  0
   57.7970   27.2760   44.4680 C   0  0  0  0  0  0  0  0  0  0  0  0
   59.1210   27.0240   45.1970 C   0  0  0  0  0  0  0  0  0  0  0  0
   59.4480   28.1320   46.1670 C   0  0  0  0  0  0  0  0  0  0  0  0
   60.4500   29.0690   45.8580 C   0  0  0  0  0  0  0  0  0  0  0  0
   60.7620   30.0900   46.7580 C   0  0  0  0  0  0  0  0  0  0  0  0
   60.0940   30.1760   47.9820 C   0  0  0  0  0  0  0  0  0  0  0  0
   59.1020   29.2450   48.3020 C   0  0  0  0  0  0  0  0  0  0  0  0
   58.7760   28.2270   47.4000 C   0  0  0  0  0  0  0  0  0  0  0  0
   57.8070   27.3360   47.7290 F   0  0  0  0  0  0  0  0  0  0  0  0
   57.8150   33.0340   43.7640 C   0  0  0  0  0  0  0  0  0  0  0  0
   58.5700   33.9430   44.5090 C   0  0  0  0  0  0  0  0  0  0  0  0
   59.6440   34.1830   49.0510 C   0  0  0  0  0  0  0  0  0  0  0  0
   62.2281   33.2493   51.0903 H   0  0  0  0  0  0  0  0  0  0  0  0
   62.2102   33.8758   46.8087 H   0  0  0  0  0  0  0  0  0  0  0  0
   58.8309   32.1793   47.4267 H   0  0  0  0  0  0  0  0  0  0  0  0
   57.4521   30.5722   46.1122 H   0  0  0  0  0  0  0  0  0  0  0  0
   55.5173   31.2248   43.5394 H   0  0  0  0  0  0  0  0  0  0  0  0
   56.9356   30.7943   42.5180 H   0  0  0  0  0  0  0  0  0  0  0  0
   58.5080   28.9820   43.3500 H   0  0  0  0  0  0  0  0  0  0  0  0
   56.9634   27.1076   45.1657 H   0  0  0  0  0  0  0  0  0  0  0  0
   57.7275   26.5855   43.6146 H   0  0  0  0  0  0  0  0  0  0  0  0
   59.0474   26.0765   45.7509 H   0  0  0  0  0  0  0  0  0  0  0  0
   59.9222   26.9818   44.4445 H   0  0  0  0  0  0  0  0  0  0  0  0
   60.9906   28.9973   44.9027 H   0  0  0  0  0  0  0  0  0  0  0  0
   61.5360   30.8287   46.5025 H   0  0  0  0  0  0  0  0  0  0  0  0
   60.3486   30.9757   48.6931 H   0  0  0  0  0  0  0  0  0  0  0  0
   58.5762   29.3130   49.2658 H   0  0  0  0  0  0  0  0  0  0  0  0
   57.5349   33.2748   42.7279 H   0  0  0  0  0  0  0  0  0  0  0  0
   58.8951   34.8892   44.0518 H   0  0  0  0  0  0  0  0  0  0  0  0
   58.5722   34.4268   49.0936 H   0  0  0  0  0  0  0  0  0  0  0  0
  1  2  3  0
  2  3  1  0
  3  4  2  0
  4  5  1  0
  5  6  1  0
  5  7  2  0
  7  8  1  0
  8  9  1  0
  9 10  1  0
 10 11  2  0
 11 12  1  0
 12 13  2  0
 13 14  1  0
 14 15  1  0
 15 16  2  0
 15 17  1  0
 17 18  1  0
 18 19  1  0
 19 20  1  0
 20 21  2  0
 21 22  1  0
 22 23  2  0
 23 24  1  0
 24 25  2  0
 25 26  1  0
 13 27  1  0
 27 28  2  0
  8 29  2  0
 29  3  1  0
 28 10  1  0
 25 20  1  0
  4 30  1  0
  7 31  1  0
 11 32  1  0
 12 33  1  0
 14 34  1  0
 14 35  1  0
 17 36  1  0
 18 37  1  0
 18 38  1  0
 19 39  1  0
 19 40  1  0
 21 41  1  0
 22 42  1  0
 23 43  1  0
 24 44  1  0
 27 45  1  0
 28 46  1  0
 29 47  1  0
M  END
>  <UniqueID>  (71) 
68

>  <SMILES>  (71) 
N#Cc1cc(Cl)cc(Oc2ccc(CC(=O)NCCc3ccccc3F)cc2)c1

>  <Energy>  (71) 
44.12729887508235

>  <Genealogy>  (71) 
N#Cc1cc(Cl)cc(Oc2ccc(CC(=O)NCCc3ccccc3F)cc2)c1 (3D coordinates assigned)
N#Cc1cc(Cl)cc(Oc2ccc(CC(=O)NCCc3ccccc3F)cc2)c1 (optimized conformer: 44.12729887508235 kcal/mol)

>  <smiles>  (71) 
N#Cc1cc(Cl)cc(Oc2ccc(CC(=O)NCCc3ccccc3F)cc2)c1

>  <score_type>  (71) 
oracle

>  <origin>  (71) 
adg

>  <m_score__min__energy>  (71) 
-8.7899999999999991

>  <m_primary>  (71) 
energy

$$$$
71:0
     RDKit          3D

 61 64  0  0  1  0  0  0  0  0999 V2000
   58.8770   34.5700   53.0200 C   0  0  0  0  0  0  0  0  0  0  0  0
   59.3260   33.2080   51.9640 S   0  0  0  0  0  0  0  0  0  0  0  0
   60.8000   33.0530   51.9490 O   0  0  0  0  0  0  0  0  0  0  0  0
   58.8560   33.4790   50.5550 O   0  0  0  0  0  0  0  0  0  0  0  0
   58.5000   31.7840   52.5160 C   0  0  0  0  0  0  0  0  0  0  0  0
   57.3510   31.8930   53.2960 C   0  0  0  0  0  0  0  0  0  0  0  0
   56.6430   30.8050   53.7430 C   0  0  0  0  0  0  0  0  0  0  0  0
   57.1020   29.5540   53.3960 C   0  0  0  0  0  0  0  0  0  0  0  0
   58.2350   29.4260   52.6250 C   0  0  0  0  0  0  0  0  0  0  0  0
   58.9610   30.5350   52.1680 C   0  0  0  0  0  0  0  0  0  0  0  0
   60.1110   30.2600   51.4190 N   0  0  0  0  0  0  0  0  0  0  0  0
   60.2850   30.3580   50.0260 C   0  0  0  0  0  0  0  0  0  0  0  0
   60.3020   29.1860   49.2880 C   0  0  0  0  0  0  0  0  0  0  0  0
   60.4870   29.2070   47.9140 C   0  0  0  0  0  0  0  0  0  0  0  0
   60.5030   28.1010   47.2130 N   0  0  0  0  0  0  0  0  0  0  0  0
   59.4650   27.9180   46.2750 C   0  0  0  0  0  0  0  0  0  0  0  0
   59.3230   26.7370   45.5660 C   0  0  0  0  0  0  0  0  0  0  0  0
   58.3220   26.5290   44.6450 C   0  0  0  0  0  0  0  0  0  0  0  0
   57.4030   27.5350   44.4030 C   0  0  0  0  0  0  0  0  0  0  0  0
   57.5350   28.7340   45.1140 C   0  0  0  0  0  0  0  0  0  0  0  0
   56.5560   29.7630   44.8340 C   0  0  0  0  0  0  0  0  0  0  0  0
   55.1580   29.4550   44.7410 N   0  0  0  0  0  0  0  0  0  0  0  0
   56.9250   30.9420   44.6700 O   0  0  0  0  0  0  0  0  0  0  0  0
   58.5440   28.9210   46.0280 C   0  0  0  0  0  0  0  0  0  0  0  0
   60.6470   30.4150   47.3470 N   0  0  0  0  0  0  0  0  0  0  0  0
   60.6360   31.5680   48.0370 C   0  0  0  0  0  0  0  0  0  0  0  0
   60.7900   32.6960   47.4800 N   0  0  0  0  0  0  0  0  0  0  0  0
   59.9340   33.4320   46.7440 C   0  0  0  0  0  0  0  0  0  0  0  0
   59.8860   34.6470   46.0040 C   0  0  0  0  0  0  0  0  0  0  0  0
   58.7060   34.5800   45.0160 C   0  0  0  0  0  0  0  0  0  0  0  0
   57.8490   33.4610   45.3050 N   0  0  0  0  0  0  0  0  0  0  0  0
   57.4210   33.3300   46.6480 C   0  0  0  0  0  0  0  0  0  0  0  0
   58.6130   33.4540   47.5720 C   0  0  0  0  0  0  0  0  0  0  0  0
   60.4540   31.5150   49.3610 N   0  0  0  0  0  0  0  0  0  0  0  0
   58.9771   34.2664   54.0725 H   0  0  0  0  0  0  0  0  0  0  0  0
   59.5413   35.4236   52.8199 H   0  0  0  0  0  0  0  0  0  0  0  0
   57.8353   34.8612   52.8199 H   0  0  0  0  0  0  0  0  0  0  0  0
   56.9943   32.8978   53.5664 H   0  0  0  0  0  0  0  0  0  0  0  0
   55.7393   30.9285   54.3578 H   0  0  0  0  0  0  0  0  0  0  0  0
   56.5632   28.6569   53.7350 H   0  0  0  0  0  0  0  0  0  0  0  0
   58.5834   28.4174   52.3578 H   0  0  0  0  0  0  0  0  0  0  0  0
   60.9640   29.9340   51.9680 H   0  0  0  0  0  0  0  0  0  0  0  0
   60.1664   28.2222   49.8006 H   0  0  0  0  0  0  0  0  0  0  0  0
   60.0445   25.9268   45.7476 H   0  0  0  0  0  0  0  0  0  0  0  0
   58.2530   25.5724   44.1064 H   0  0  0  0  0  0  0  0  0  0  0  0
   56.5919   27.3966   43.6729 H   0  0  0  0  0  0  0  0  0  0  0  0
   54.4150   30.1860   44.8970 H   0  0  0  0  0  0  0  0  0  0  0  0
   54.8160   28.4840   44.5090 H   0  0  0  0  0  0  0  0  0  0  0  0
   58.6203   29.8763   46.5680 H   0  0  0  0  0  0  0  0  0  0  0  0
   60.7870   30.4740   46.3170 H   0  0  0  0  0  0  0  0  0  0  0  0
   60.3265   32.9185   45.8539 H   0  0  0  0  0  0  0  0  0  0  0  0
   59.7446   35.4936   46.6920 H   0  0  0  0  0  0  0  0  0  0  0  0
   60.8276   34.7864   45.4528 H   0  0  0  0  0  0  0  0  0  0  0  0
   58.1214   35.5087   45.0916 H   0  0  0  0  0  0  0  0  0  0  0  0
   59.1088   34.4572   43.9998 H   0  0  0  0  0  0  0  0  0  0  0  0
   57.9620   32.6290   44.7370 H   0  0  0  0  0  0  0  0  0  0  0  0
   56.6935   34.1218   46.8798 H   0  0  0  0  0  0  0  0  0  0  0  0
   56.9494   32.3461   46.7881 H   0  0  0  0  0  0  0  0  0  0  0  0
   58.5467   34.4014   48.1270 H   0  0  0  0  0  0  0  0  0  0  0  0
   58.6138   32.6086   48.2758 H   0  0  0  0  0  0  0  0  0  0  0  0
   60.4370   32.3850   49.9210 H   0  0  0  0  0  0  0  0  0  0  0  0
  1  2  1  0
  2  3  2  0
  2  4  2  0
  2  5  1  0
  5  6  2  0
  6  7  1  0
  7  8  2  0
  8  9  1  0
  9 10  2  0
 10 11  1  0
 11 12  1  0
 12 13  2  0
 13 14  1  0
 14 15  2  0
 15 16  1  0
 16 17  2  0
 17 18  1  0
 18 19  2  0
 19 20  1  0
 20 21  1  0
 21 22  1  0
 21 23  2  0
 20 24  2  0
 14 25  1  0
 25 26  1  0
 26 27  2  0
 27 28  1  0
 28 29  1  0
 29 30  1  0
 30 31  1  0
 31 32  1  0
 32 33  1  0
 26 34  1  0
 10  5  1  0
 34 12  1  0
 24 16  1  0
 33 28  1  0
  1 35  1  0
  1 36  1  0
  1 37  1  0
  6 38  1  0
  7 39  1  0
  8 40  1  0
  9 41  1  0
 11 42  1  0
 13 43  1  0
 17 44  1  0
 18 45  1  0
 19 46  1  0
 22 47  1  0
 22 48  1  0
 24 49  1  0
 25 50  1  0
 28 51  1  0
 29 52  1  0
 29 53  1  0
 30 54  1  0
 30 55  1  0
 31 56  1  0
 32 57  1  0
 32 58  1  0
 33 59  1  0
 33 60  1  0
 34 61  1  0
M  END
>  <smiles>  (72) 
CS(=O)(=O)c1ccccc1Nc1cc(=Nc2cccc(C(N)=O)c2)[nH]c(=NC2CCNCC2)[nH]1

>  <score_type>  (72) 
oracle

>  <origin>  (72) 
adg

>  <m_score__min__energy>  (72) 
-10.18

>  <m_primary>  (72) 
energy

$$$$
72:0
     RDKit          3D

 46 48  0  0  0  0  0  0  0  0999 V2000
   61.1160   29.0860   48.9470 O   0  0  0  0  0  0  0  0  0  0  0  0
   60.3390   29.8670   48.3340 C   0  0  0  0  0  0  0  0  0  0  0  0
   58.9220   29.4530   48.0810 C   0  0  0  0  0  0  0  0  0  0  0  0
   58.8190   28.7460   46.7570 C   0  0  0  0  0  0  0  0  0  0  0  0
   59.7210   29.0450   45.7230 C   0  0  0  0  0  0  0  0  0  0  0  0
   59.6120   28.4030   44.4870 C   0  0  0  0  0  0  0  0  0  0  0  0
   58.5940   27.4700   44.2680 C   0  0  0  0  0  0  0  0  0  0  0  0
   57.6830   27.1790   45.2860 C   0  0  0  0  0  0  0  0  0  0  0  0
   57.7900   27.8150   46.5260 C   0  0  0  0  0  0  0  0  0  0  0  0
   60.8200   31.1250   47.8400 N   0  0  0  0  0  0  0  0  0  0  0  0
   62.1970   31.5590   48.0700 C   0  0  0  0  0  0  0  0  0  0  0  0
   62.4770   32.8330   47.3400 C   0  0  0  0  0  0  0  0  0  0  0  0
   63.6500   33.2980   47.3180 O   0  0  0  0  0  0  0  0  0  0  0  0
   61.4320   33.5040   46.7020 O   0  0  0  0  0  0  0  0  0  0  0  0
   60.5450   34.3850   47.3860 C   0  0  0  0  0  0  0  0  0  0  0  0
   59.4550   34.8690   46.4300 C   0  0  0  0  0  0  0  0  0  0  0  0
   58.6880   33.7000   45.8550 C   0  0  0  0  0  0  0  0  0  0  0  0
   58.5340   33.5910   44.4640 C   0  0  0  0  0  0  0  0  0  0  0  0
   57.8830   32.4800   43.9140 C   0  0  0  0  0  0  0  0  0  0  0  0
   57.7180   32.3460   42.5270 C   0  0  0  0  0  0  0  0  0  0  0  0
   57.0740   31.2190   42.0050 C   0  0  0  0  0  0  0  0  0  0  0  0
   56.5900   30.2250   42.8610 C   0  0  0  0  0  0  0  0  0  0  0  0
   56.7500   30.3520   44.2450 C   0  0  0  0  0  0  0  0  0  0  0  0
   57.3940   31.4760   44.7760 C   0  0  0  0  0  0  0  0  0  0  0  0
   57.5600   31.5990   46.1190 N   0  0  0  0  0  0  0  0  0  0  0  0
   58.1870   32.6700   46.6760 C   0  0  0  0  0  0  0  0  0  0  0  0
   58.3170   32.7230   47.9280 O   0  0  0  0  0  0  0  0  0  0  0  0
   58.5924   28.7751   48.8821 H   0  0  0  0  0  0  0  0  0  0  0  0
   58.2831   30.3482   48.0620 H   0  0  0  0  0  0  0  0  0  0  0  0
   60.5161   29.7873   45.8868 H   0  0  0  0  0  0  0  0  0  0  0  0
   60.3286   28.6320   43.6845 H   0  0  0  0  0  0  0  0  0  0  0  0
   58.5105   26.9652   43.2942 H   0  0  0  0  0  0  0  0  0  0  0  0
   56.8798   26.4479   45.1115 H   0  0  0  0  0  0  0  0  0  0  0  0
   57.0676   27.5869   47.3235 H   0  0  0  0  0  0  0  0  0  0  0  0
   60.1580   31.7370   47.3070 H   0  0  0  0  0  0  0  0  0  0  0  0
   62.3503   31.7188   49.1475 H   0  0  0  0  0  0  0  0  0  0  0  0
   62.8803   30.7808   47.6992 H   0  0  0  0  0  0  0  0  0  0  0  0
   60.0808   33.8531   48.2295 H   0  0  0  0  0  0  0  0  0  0  0  0
   61.1107   35.2513   47.7596 H   0  0  0  0  0  0  0  0  0  0  0  0
   58.7596   35.5226   46.9770 H   0  0  0  0  0  0  0  0  0  0  0  0
   59.9291   35.4202   45.6045 H   0  0  0  0  0  0  0  0  0  0  0  0
   58.9255   34.3798   43.8048 H   0  0  0  0  0  0  0  0  0  0  0  0
   58.0949   33.1269   41.8502 H   0  0  0  0  0  0  0  0  0  0  0  0
   56.9480   31.1145   40.9173 H   0  0  0  0  0  0  0  0  0  0  0  0
   56.0827   29.3418   42.4456 H   0  0  0  0  0  0  0  0  0  0  0  0
   56.3695   29.5682   44.9165 H   0  0  0  0  0  0  0  0  0  0  0  0
  1  2  2  0
  2  3  1  0
  3  4  1  0
  4  5  2  0
  5  6  1  0
  6  7  2  0
  7  8  1  0
  8  9  2  0
  2 10  1  0
 10 11  1  0
 11 12  1  0
 12 13  2  0
 12 14  1  0
 14 15  1  0
 15 16  1  0
 16 17  1  0
 17 18  2  0
 18 19  1  0
 19 20  2  0
 20 21  1  0
 21 22  2  0
 22 23  1  0
 23 24  2  0
 24 25  1  0
 25 26  1  0
 26 27  2  0
  9  4  1  0
 26 17  1  0
 24 19  1  0
  3 28  1  0
  3 29  1  0
  5 30  1  0
  6 31  1  0
  7 32  1  0
  8 33  1  0
  9 34  1  0
 10 35  1  0
 11 36  1  0
 11 37  1  0
 15 38  1  0
 15 39  1  0
 16 40  1  0
 16 41  1  0
 18 42  1  0
 20 43  1  0
 21 44  1  0
 22 45  1  0
 23 46  1  0
M  CHG  1  25  -1
M  END
>  <UniqueID>  (73) 
69

>  <SMILES>  (73) 
O=C(Cc1ccccc1)NCC(=O)OCCc1cc2ccccc2[n-]c1=O

>  <Energy>  (73) 
42.65156963483733

>  <Genealogy>  (73) 
O=C(Cc1ccccc1)NCC(=O)OCCc1cc2ccccc2[n-]c1=O (protonated)
O=C(Cc1ccccc1)NCC(=O)OCCc1cc2ccccc2[n-]c1=O (3D coordinates assigned)
O=C(Cc1ccccc1)NCC(=O)OCCc1cc2ccccc2[n-]c1=O (optimized conformer: 42.65156963483733 kcal/mol)

>  <smiles>  (73) 
O=C(Cc1ccccc1)NCC(=O)OCCc1cc2ccccc2[nH]c1=O

>  <score_type>  (73) 
oracle

>  <origin>  (73) 
adg

>  <m_score__min__energy>  (73) 
-10.43

>  <m_primary>  (73) 
energy

$$$$
73:0
     RDKit          3D

 42 43  0  0  1  0  0  0  0  0999 V2000
   67.0900   30.5130   50.8840 C   0  0  0  0  0  0  0  0  0  0  0  0
   66.3340   31.7610   51.2630 C   0  0  0  0  0  0  0  0  0  0  0  0
   66.1800   32.5960   50.1240 O   0  0  0  0  0  0  0  0  0  0  0  0
   64.8950   33.0170   49.7450 C   0  0  0  0  0  0  0  0  0  0  0  0
   64.3480   33.8960   50.4570 O   0  0  0  0  0  0  0  0  0  0  0  0
   64.3200   32.4280   48.6070 N   0  0  0  0  0  0  0  0  0  0  0  0
   63.0300   32.7460   48.0980 C   0  0  0  0  0  0  0  0  0  0  0  0
   61.8670   32.3370   48.7310 C   0  0  0  0  0  0  0  0  0  0  0  0
   60.6350   32.6760   48.1900 C   0  0  0  0  0  0  0  0  0  0  0  0
   60.6160   33.4160   47.0300 C   0  0  0  0  0  0  0  0  0  0  0  0
   59.0710   33.8600   46.3230 S   0  0  0  0  0  0  0  0  0  0  0  0
   58.5160   35.0850   46.9800 O   0  0  0  0  0  0  0  0  0  0  0  0
   59.3300   34.2110   44.8800 O   0  0  0  0  0  0  0  0  0  0  0  0
   57.9440   32.5800   46.4730 N   0  0  0  0  0  0  0  0  0  0  0  0
   58.0940   31.5430   45.7230 C   0  0  0  0  0  0  0  0  0  0  0  0
   59.2220   30.7510   45.7300 C   0  0  0  0  0  0  0  0  0  0  0  0
   59.2620   29.6530   44.8680 C   0  0  0  0  0  0  0  0  0  0  0  0
   60.4730   28.7960   44.8720 C   0  0  0  0  0  0  0  0  0  0  0  0
   58.2160   29.3800   44.0470 N   0  0  0  0  0  0  0  0  0  0  0  0
   57.1250   30.1750   44.0630 C   0  0  0  0  0  0  0  0  0  0  0  0
   55.9420   29.9430   43.1990 C   0  0  0  0  0  0  0  0  0  0  0  0
   57.0740   31.2380   44.8920 N   0  0  0  0  0  0  0  0  0  0  0  0
   61.7710   33.8310   46.3890 C   0  0  0  0  0  0  0  0  0  0  0  0
   62.9950   33.4910   46.9300 C   0  0  0  0  0  0  0  0  0  0  0  0
   67.4090   29.9865   51.7956 H   0  0  0  0  0  0  0  0  0  0  0  0
   66.4381   29.8556   50.2899 H   0  0  0  0  0  0  0  0  0  0  0  0
   67.9745   30.7863   50.2899 H   0  0  0  0  0  0  0  0  0  0  0  0
   65.3420   31.4837   51.6491 H   0  0  0  0  0  0  0  0  0  0  0  0
   66.8953   32.3040   52.0377 H   0  0  0  0  0  0  0  0  0  0  0  0
   64.8650   31.6910   48.0710 H   0  0  0  0  0  0  0  0  0  0  0  0
   61.9203   31.7466   49.6576 H   0  0  0  0  0  0  0  0  0  0  0  0
   59.6991   32.3618   48.6751 H   0  0  0  0  0  0  0  0  0  0  0  0
   60.0675   30.9775   46.3962 H   0  0  0  0  0  0  0  0  0  0  0  0
   60.7700   28.5858   45.9101 H   0  0  0  0  0  0  0  0  0  0  0  0
   60.2546   27.8502   44.3544 H   0  0  0  0  0  0  0  0  0  0  0  0
   61.2923   29.3165   44.3544 H   0  0  0  0  0  0  0  0  0  0  0  0
   58.2340   28.5500   43.3900 H   0  0  0  0  0  0  0  0  0  0  0  0
   55.0567   29.7694   43.8284 H   0  0  0  0  0  0  0  0  0  0  0  0
   55.7731   30.8251   42.5639 H   0  0  0  0  0  0  0  0  0  0  0  0
   56.1188   29.0624   42.5639 H   0  0  0  0  0  0  0  0  0  0  0  0
   61.7143   34.4223   45.4632 H   0  0  0  0  0  0  0  0  0  0  0  0
   63.9284   33.8068   46.4412 H   0  0  0  0  0  0  0  0  0  0  0  0
  1  2  1  0
  2  3  1  0
  3  4  1  0
  4  5  2  0
  4  6  1  0
  6  7  1  0
  7  8  2  0
  8  9  1  0
  9 10  2  0
 10 11  1  0
 11 12  2  0
 11 13  2  0
 11 14  1  0
 14 15  2  0
 15 16  1  0
 16 17  2  0
 17 18  1  0
 17 19  1  0
 19 20  1  0
 20 21  1  0
 20 22  2  0
 10 23  1  0
 23 24  2  0
 24  7  1  0
 22 15  1  0
  1 25  1  0
  1 26  1  0
  1 27  1  0
  2 28  1  0
  2 29  1  0
  6 30  1  0
  8 31  1  0
  9 32  1  0
 16 33  1  0
 18 34  1  0
 18 35  1  0
 18 36  1  0
 19 37  1  0
 21 38  1  0
 21 39  1  0
 21 40  1  0
 23 41  1  0
 24 42  1  0
M  END
>  <smiles>  (74) 
CCOC(=O)Nc1ccc(S(=O)(=O)N=c2cc(C)[nH]c(C)n2)cc1

>  <score_type>  (74) 
oracle

>  <origin>  (74) 
adg

>  <m_score__min__energy>  (74) 
-8.0099999999999998

>  <m_primary>  (74) 
energy

$$$$
74:0
     RDKit          3D

 48 50  0  0  0  0  0  0  0  0999 V2000
   55.5260   28.9710   44.8540 O   0  0  0  0  0  0  0  0  0  0  0  0
   56.5590   29.5800   45.2430 C   0  0  0  0  0  0  0  0  0  0  0  0
   56.6730   30.9960   45.0580 N   0  0  0  0  0  0  0  0  0  0  0  0
   57.8130   31.6350   44.4090 C   0  0  0  0  0  0  0  0  0  0  0  0
   58.2970   32.7970   45.2320 C   0  0  0  0  0  0  0  0  0  0  0  0
   58.9570   33.8720   44.6100 C   0  0  0  0  0  0  0  0  0  0  0  0
   59.3890   34.9660   45.3660 C   0  0  0  0  0  0  0  0  0  0  0  0
   59.1620   34.9970   46.7450 C   0  0  0  0  0  0  0  0  0  0  0  0
   58.5010   33.9350   47.3700 C   0  0  0  0  0  0  0  0  0  0  0  0
   58.0680   32.8390   46.6170 C   0  0  0  0  0  0  0  0  0  0  0  0
   57.6540   28.8400   45.8880 C   0  0  0  0  0  0  0  0  0  0  0  0
   57.5550   27.5910   46.0300 O   0  0  0  0  0  0  0  0  0  0  0  0
   58.8240   29.5260   46.3580 N   0  0  0  0  0  0  0  0  0  0  0  0
   59.9120   28.8010   47.0240 C   0  0  0  0  0  0  0  0  0  0  0  0
   60.4990   29.5510   48.2560 C   0  0  1  0  0  0  0  0  0  0  0  0
   61.1550   30.8580   47.8790 C   0  0  0  0  0  0  0  0  0  0  0  0
   62.2800   31.4120   48.4630 C   0  0  0  0  0  0  0  0  0  0  0  0
   62.5280   32.5750   47.7680 C   0  0  0  0  0  0  0  0  0  0  0  0
   61.5500   32.6560   46.7970 C   0  0  0  0  0  0  0  0  0  0  0  0
   60.7520   31.6170   46.8850 O   0  0  0  0  0  0  0  0  0  0  0  0
   59.5400   29.7370   49.3800 N   0  0  0  0  0  0  0  0  0  0  0  0
   60.0480   29.3640   50.7130 C   0  0  0  0  0  0  0  0  0  0  0  0
   58.9000   29.4090   51.7450 C   0  0  0  0  0  0  0  0  0  0  0  0
   57.7400   30.0550   51.2480 O   0  0  0  0  0  0  0  0  0  0  0  0
   58.0920   31.2950   50.6700 C   0  0  0  0  0  0  0  0  0  0  0  0
   58.9220   31.0790   49.3910 C   0  0  0  0  0  0  0  0  0  0  0  0
   58.6267   30.9027   44.3010 H   0  0  0  0  0  0  0  0  0  0  0  0
   57.5027   32.0015   43.4194 H   0  0  0  0  0  0  0  0  0  0  0  0
   59.1340   33.8520   43.5245 H   0  0  0  0  0  0  0  0  0  0  0  0
   59.9078   35.8027   44.8754 H   0  0  0  0  0  0  0  0  0  0  0  0
   59.5036   35.8575   47.3390 H   0  0  0  0  0  0  0  0  0  0  0  0
   58.3215   33.9617   48.4549 H   0  0  0  0  0  0  0  0  0  0  0  0
   57.5460   32.0065   47.1114 H   0  0  0  0  0  0  0  0  0  0  0  0
   58.8920   30.5550   46.2010 H   0  0  0  0  0  0  0  0  0  0  0  0
   59.5260   27.8277   47.3610 H   0  0  0  0  0  0  0  0  0  0  0  0
   60.7262   28.6976   46.2916 H   0  0  0  0  0  0  0  0  0  0  0  0
   61.2788   28.8747   48.6362 H   0  0  0  0  0  0  0  0  0  0  0  0
   62.8571   31.0075   49.3076 H   0  0  0  0  0  0  0  0  0  0  0  0
   63.3407   33.2937   47.9498 H   0  0  0  0  0  0  0  0  0  0  0  0
   61.4538   33.4679   46.0611 H   0  0  0  0  0  0  0  0  0  0  0  0
   60.4630   28.3461   50.6734 H   0  0  0  0  0  0  0  0  0  0  0  0
   60.8326   30.0742   51.0131 H   0  0  0  0  0  0  0  0  0  0  0  0
   58.6364   28.3778   52.0227 H   0  0  0  0  0  0  0  0  0  0  0  0
   59.2555   29.9865   52.6111 H   0  0  0  0  0  0  0  0  0  0  0  0
   57.1761   31.8495   50.4176 H   0  0  0  0  0  0  0  0  0  0  0  0
   58.6944   31.8654   51.3923 H   0  0  0  0  0  0  0  0  0  0  0  0
   58.2648   31.1794   48.5147 H   0  0  0  0  0  0  0  0  0  0  0  0
   59.7223   31.8331   49.3615 H   0  0  0  0  0  0  0  0  0  0  0  0
  1  2  2  0
  2  3  1  0
  3  4  1  0
  4  5  1  0
  5  6  2  0
  6  7  1  0
  7  8  2  0
  8  9  1  0
  9 10  2  0
  2 11  1  0
 11 12  2  0
 11 13  1  0
 13 14  1  0
 14 15  1  0
 15 16  1  0
 16 17  2  0
 17 18  1  0
 18 19  2  0
 19 20  1  0
 15 21  1  0
 21 22  1  0
 22 23  1  0
 23 24  1  0
 24 25  1  0
 25 26  1  0
 10  5  1  0
 20 16  1  0
 26 21  1  0
  4 27  1  0
  4 28  1  0
  6 29  1  0
  7 30  1  0
  8 31  1  0
  9 32  1  0
 10 33  1  0
 13 34  1  0
 14 35  1  0
 14 36  1  0
 15 37  1  1
 17 38  1  0
 18 39  1  0
 19 40  1  0
 22 41  1  0
 22 42  1  0
 23 43  1  0
 23 44  1  0
 25 45  1  0
 25 46  1  0
 26 47  1  0
 26 48  1  0
M  CHG  1   3  -1
M  END
>  <UniqueID>  (75) 
70

>  <SMILES>  (75) 
O=C([N-]Cc1ccccc1)C(=O)NC[C@@H](c1ccco1)N1CCOCC1

>  <Energy>  (75) 
84.34378873222596

>  <Genealogy>  (75) 
O=C([N-]Cc1ccccc1)C(=O)NCC(c1ccco1)N1CCOCC1 (protonated)
O=C([N-]Cc1ccccc1)C(=O)NC[C@@H](c1ccco1)N1CCOCC1 (chirality)
O=C([N-]Cc1ccccc1)C(=O)NC[C@@H](c1ccco1)N1CCOCC1 (3D coordinates assigned)
O=C([N-]Cc1ccccc1)C(=O)NC[C@@H](c1ccco1)N1CCOCC1 (nonaromatic ring conformer: 84.34378873222596 kcal/mol)

>  <smiles>  (75) 
O=C(NCc1ccccc1)C(=O)NCC(c1ccco1)N1CCOCC1

>  <score_type>  (75) 
oracle

>  <origin>  (75) 
adg

>  <m_score__min__energy>  (75) 
-9.5

>  <m_primary>  (75) 
energy

$$$$
75:0
     RDKit          3D

 39 42  0  0  1  0  0  0  0  0999 V2000
   58.6720   28.6390   47.7900 O   0  0  0  0  0  0  0  0  0  0  0  0
   59.6340   29.4260   47.9740 C   0  0  0  0  0  0  0  0  0  0  0  0
   60.0350   29.8850   49.1780 N   0  0  0  0  0  0  0  0  0  0  0  0
   61.0870   30.7010   48.9810 C   0  0  0  0  0  0  0  0  0  0  0  0
   61.8850   31.4370   49.8570 C   0  0  0  0  0  0  0  0  0  0  0  0
   62.9270   32.2110   49.3590 C   0  0  0  0  0  0  0  0  0  0  0  0
   63.1480   32.2280   47.9990 C   0  0  0  0  0  0  0  0  0  0  0  0
   62.3510   31.4930   47.1290 C   0  0  0  0  0  0  0  0  0  0  0  0
   61.3010   30.7120   47.6150 C   0  0  0  0  0  0  0  0  0  0  0  0
   60.4060   29.9270   46.9930 N   0  0  0  0  0  0  0  0  0  0  0  0
   60.3680   29.7320   45.5720 C   0  0  0  0  0  0  0  0  0  0  0  0
   59.0750   29.2610   45.0480 C   0  0  0  0  0  0  0  0  0  0  0  0
   58.4680   28.0800   45.2310 N   0  0  0  0  0  0  0  0  0  0  0  0
   57.3270   28.1090   44.5680 N   0  0  0  0  0  0  0  0  0  0  0  0
   57.1540   29.2860   43.9430 C   0  0  0  0  0  0  0  0  0  0  0  0
   55.8850   29.7360   43.0200 S   0  0  0  0  0  0  0  0  0  0  0  0
   58.2680   30.0290   44.2450 N   0  0  0  0  0  0  0  0  0  0  0  0
   58.4930   31.3080   43.8530 N   0  0  0  0  0  0  0  0  0  0  0  0
   58.2160   32.4120   44.4010 C   0  0  0  0  0  0  0  0  0  0  0  0
   58.6780   32.9030   45.6780 C   0  0  0  0  0  0  0  0  0  0  0  0
   58.1110   32.3230   46.7950 C   0  0  0  0  0  0  0  0  0  0  0  0
   58.5010   32.7400   48.0360 C   0  0  0  0  0  0  0  0  0  0  0  0
   59.4390   33.7170   48.2780 C   0  0  0  0  0  0  0  0  0  0  0  0
   59.9070   34.2190   49.8880 Cl  0  0  0  0  0  0  0  0  0  0  0  0
   60.0100   34.3010   47.1670 C   0  0  0  0  0  0  0  0  0  0  0  0
   59.6090   33.8730   45.8910 C   0  0  0  0  0  0  0  0  0  0  0  0
   59.5750   29.6250   50.0940 H   0  0  0  0  0  0  0  0  0  0  0  0
   61.6903   31.4051   50.9392 H   0  0  0  0  0  0  0  0  0  0  0  0
   63.5628   32.7985   50.0376 H   0  0  0  0  0  0  0  0  0  0  0  0
   63.9711   32.8350   47.5939 H   0  0  0  0  0  0  0  0  0  0  0  0
   62.5496   31.5271   46.0476 H   0  0  0  0  0  0  0  0  0  0  0  0
   60.6043   30.6914   45.0884 H   0  0  0  0  0  0  0  0  0  0  0  0
   61.0995   28.9415   45.3481 H   0  0  0  0  0  0  0  0  0  0  0  0
   56.6150   27.3340   44.5110 H   0  0  0  0  0  0  0  0  0  0  0  0
   57.5439   33.0775   43.8394 H   0  0  0  0  0  0  0  0  0  0  0  0
   57.3530   31.5332   46.6869 H   0  0  0  0  0  0  0  0  0  0  0  0
   58.0303   32.2591   48.9062 H   0  0  0  0  0  0  0  0  0  0  0  0
   60.7681   35.0902   47.2785 H   0  0  0  0  0  0  0  0  0  0  0  0
   60.0733   34.3483   45.0144 H   0  0  0  0  0  0  0  0  0  0  0  0
  1  2  2  0
  2  3  1  0
  3  4  1  0
  4  5  2  0
  5  6  1  0
  6  7  2  0
  7  8  1  0
  8  9  2  0
  9 10  1  0
 10 11  1  0
 11 12  1  0
 12 13  2  0
 13 14  1  0
 14 15  1  0
 15 16  2  0
 15 17  1  0
 17 18  1  0
 18 19  2  0
 19 20  1  0
 20 21  2  0
 21 22  1  0
 22 23  2  0
 23 24  1  0
 23 25  1  0
 25 26  2  0
 10  2  1  0
 17 12  1  0
 26 20  1  0
  9  4  1  0
  3 27  1  0
  5 28  1  0
  6 29  1  0
  7 30  1  0
  8 31  1  0
 11 32  1  0
 11 33  1  0
 14 34  1  0
 19 35  1  0
 21 36  1  0
 22 37  1  0
 25 38  1  0
 26 39  1  0
M  END
>  <smiles>  (76) 
O=c1[nH]c2ccccc2n1Cc1n[nH]c(=S)n1N=Cc1ccc(Cl)cc1

>  <score_type>  (76) 
oracle

>  <origin>  (76) 
adg

>  <m_score__min__energy>  (76) 
-9.1999999999999993

>  <m_primary>  (76) 
energy

$$$$
76:0
     RDKit          3D

 43 45  0  0  0  0  0  0  0  0999 V2000
   62.5330   33.9550   49.4170 C   0  0  0  0  0  0  0  0  0  0  0  0
   63.0050   32.5490   49.1910 C   0  0  0  0  0  0  0  0  0  0  0  0
   64.1740   32.2420   49.5580 O   0  0  0  0  0  0  0  0  0  0  0  0
   62.1380   31.5190   48.5550 C   0  0  0  0  0  0  0  0  0  0  0  0
   61.5300   30.4990   49.3150 C   0  0  0  0  0  0  0  0  0  0  0  0
   60.7360   29.5280   48.6960 C   0  0  0  0  0  0  0  0  0  0  0  0
   60.5280   29.5530   47.3110 C   0  0  0  0  0  0  0  0  0  0  0  0
   59.6810   28.5590   46.7040 N   0  0  0  0  0  0  0  0  0  0  0  0
   59.6560   28.2690   45.3000 C   0  0  0  0  0  0  0  0  0  0  0  0
   60.5910   28.6610   44.5470 O   0  0  0  0  0  0  0  0  0  0  0  0
   58.5300   27.4720   44.7190 C   0  0  0  0  0  0  0  0  0  0  0  0
   56.9780   27.8350   45.6080 S   0  0  0  0  0  0  0  0  0  0  0  0
   57.0550   29.6080   45.3560 C   0  0  0  0  0  0  0  0  0  0  0  0
   57.9400   30.4150   45.9710 N   0  0  0  0  0  0  0  0  0  0  0  0
   57.6270   31.6200   45.4480 C   0  0  0  0  0  0  0  0  0  0  0  0
   58.3310   32.8900   45.7660 C   0  0  0  0  0  0  0  0  0  0  0  0
   58.5900   33.7880   44.7110 C   0  0  0  0  0  0  0  0  0  0  0  0
   59.2420   35.0000   44.9450 C   0  0  0  0  0  0  0  0  0  0  0  0
   59.6560   35.3330   46.2320 C   0  0  0  0  0  0  0  0  0  0  0  0
   59.4140   34.4590   47.2940 C   0  0  0  0  0  0  0  0  0  0  0  0
   58.7410   33.2410   47.0830 C   0  0  0  0  0  0  0  0  0  0  0  0
   58.4700   32.3550   48.2690 C   0  0  0  0  0  0  0  0  0  0  0  0
   56.6170   31.5400   44.5620 N   0  0  0  0  0  0  0  0  0  0  0  0
   56.2550   30.2710   44.5030 N   0  0  0  0  0  0  0  0  0  0  0  0
   61.1000   30.5900   46.5540 C   0  0  0  0  0  0  0  0  0  0  0  0
   61.9070   31.5550   47.1660 C   0  0  0  0  0  0  0  0  0  0  0  0
   62.4674   34.1505   50.4975 H   0  0  0  0  0  0  0  0  0  0  0  0
   63.2442   34.6585   48.9596 H   0  0  0  0  0  0  0  0  0  0  0  0
   61.5413   34.0869   48.9596 H   0  0  0  0  0  0  0  0  0  0  0  0
   61.6813   30.4665   50.4041 H   0  0  0  0  0  0  0  0  0  0  0  0
   60.2705   28.7372   49.3026 H   0  0  0  0  0  0  0  0  0  0  0  0
   59.1340   27.9320   47.3320 H   0  0  0  0  0  0  0  0  0  0  0  0
   58.4102   27.7327   43.6571 H   0  0  0  0  0  0  0  0  0  0  0  0
   58.7591   26.4008   44.8187 H   0  0  0  0  0  0  0  0  0  0  0  0
   58.2741   33.5303   43.6893 H   0  0  0  0  0  0  0  0  0  0  0  0
   59.4290   35.6929   44.1114 H   0  0  0  0  0  0  0  0  0  0  0  0
   60.1746   36.2861   46.4126 H   0  0  0  0  0  0  0  0  0  0  0  0
   59.7529   34.7253   48.3060 H   0  0  0  0  0  0  0  0  0  0  0  0
   58.6430   32.9207   49.1964 H   0  0  0  0  0  0  0  0  0  0  0  0
   57.4256   32.0111   48.2387 H   0  0  0  0  0  0  0  0  0  0  0  0
   59.1433   31.4857   48.2387 H   0  0  0  0  0  0  0  0  0  0  0  0
   60.9116   30.6432   45.4716 H   0  0  0  0  0  0  0  0  0  0  0  0
   62.3650   32.3486   46.5574 H   0  0  0  0  0  0  0  0  0  0  0  0
  1  2  1  0
  2  3  2  0
  2  4  1  0
  4  5  2  0
  5  6  1  0
  6  7  2  0
  7  8  1  0
  8  9  1  0
  9 10  2  0
  9 11  1  0
 11 12  1  0
 12 13  1  0
 13 14  2  0
 14 15  1  0
 15 16  1  0
 16 17  2  0
 17 18  1  0
 18 19  2  0
 19 20  1  0
 20 21  2  0
 21 22  1  0
 15 23  2  0
 23 24  1  0
  7 25  1  0
 25 26  2  0
 26  4  1  0
 24 13  1  0
 21 16  1  0
  1 27  1  0
  1 28  1  0
  1 29  1  0
  5 30  1  0
  6 31  1  0
  8 32  1  0
 11 33  1  0
 11 34  1  0
 17 35  1  0
 18 36  1  0
 19 37  1  0
 20 38  1  0
 22 39  1  0
 22 40  1  0
 22 41  1  0
 25 42  1  0
 26 43  1  0
M  CHG  1  24  -1
M  END
>  <UniqueID>  (77) 
71

>  <SMILES>  (77) 
CC(=O)c1ccc(NC(=O)CSc2nc(-c3ccccc3C)n[n-]2)cc1

>  <Energy>  (77) 
78.58324805817306

>  <Genealogy>  (77) 
CC(=O)c1ccc(NC(=O)CSc2nc(-c3ccccc3C)n[n-]2)cc1 (protonated)
CC(=O)c1ccc(NC(=O)CSc2nc(-c3ccccc3C)n[n-]2)cc1 (3D coordinates assigned)
CC(=O)c1ccc(NC(=O)CSc2nc(-c3ccccc3C)n[n-]2)cc1 (optimized conformer: 78.58324805817306 kcal/mol)

>  <smiles>  (77) 
CC(=O)c1ccc(NC(=O)CSc2nc(-c3ccccc3C)n[nH]2)cc1

>  <score_type>  (77) 
oracle

>  <origin>  (77) 
adg

>  <m_score__min__energy>  (77) 
-9.7699999999999996

>  <m_primary>  (77) 
energy

$$$$
77:0
     RDKit          3D

 32 34  0  0  0  0  0  0  0  0999 V2000
   55.1410   29.3380   42.6150 H   0  0  0  0  0  0  0  0  0  0  0  0
   55.0210   29.7170   43.5810 N   0  0  0  0  0  0  0  0  0  0  0  0
   56.0170   29.8020   44.4010 C   0  0  0  0  0  0  0  0  0  0  0  0
   56.6370   30.9930   44.5870 N   0  0  0  0  0  0  0  0  0  0  0  0
   57.6860   31.0990   45.4450 C   0  0  0  0  0  0  0  0  0  0  0  0
   58.3430   32.4170   45.6310 C   0  0  0  0  0  0  0  0  0  0  0  0
   58.1830   33.4510   44.6880 C   0  0  0  0  0  0  0  0  0  0  0  0
   57.5661   33.2833   43.7929 H   0  0  0  0  0  0  0  0  0  0  0  0
   58.8030   34.6890   44.8820 C   0  0  0  0  0  0  0  0  0  0  0  0
   58.6767   35.4889   44.1376 H   0  0  0  0  0  0  0  0  0  0  0  0
   59.5830   34.9120   46.0200 C   0  0  0  0  0  0  0  0  0  0  0  0
   60.0733   35.8854   46.1685 H   0  0  0  0  0  0  0  0  0  0  0  0
   59.7400   33.9000   46.9680 C   0  0  0  0  0  0  0  0  0  0  0  0
   60.3513   34.0777   47.8650 H   0  0  0  0  0  0  0  0  0  0  0  0
   59.1210   32.6600   46.7790 C   0  0  0  0  0  0  0  0  0  0  0  0
   59.2430   31.8686   47.5331 H   0  0  0  0  0  0  0  0  0  0  0  0
   58.1030   29.9950   46.1310 N   0  0  0  0  0  0  0  0  0  0  0  0
   58.8780   30.0620   46.8290 H   0  0  0  0  0  0  0  0  0  0  0  0
   57.4910   28.7940   45.9390 C   0  0  0  0  0  0  0  0  0  0  0  0
   57.8900   27.7570   46.6190 N   0  0  0  0  0  0  0  0  0  0  0  0
   57.6350   26.3740   46.3170 C   0  0  0  0  0  0  0  0  0  0  0  0
   58.7130   25.5570   45.9490 C   0  0  0  0  0  0  0  0  0  0  0  0
   59.7306   25.9738   45.9212 H   0  0  0  0  0  0  0  0  0  0  0  0
   58.5020   24.2150   45.6170 C   0  0  0  0  0  0  0  0  0  0  0  0
   59.3550   23.5759   45.3452 H   0  0  0  0  0  0  0  0  0  0  0  0
   57.2100   23.6850   45.6300 C   0  0  0  0  0  0  0  0  0  0  0  0
   57.0468   22.6269   45.3773 H   0  0  0  0  0  0  0  0  0  0  0  0
   56.1250   24.4990   45.9640 C   0  0  0  0  0  0  0  0  0  0  0  0
   55.1065   24.0834   45.9642 H   0  0  0  0  0  0  0  0  0  0  0  0
   56.3310   25.8410   46.2980 C   0  0  0  0  0  0  0  0  0  0  0  0
   55.4726   26.4824   46.5466 H   0  0  0  0  0  0  0  0  0  0  0  0
   56.4440   28.7070   45.0770 N   0  0  0  0  0  0  0  0  0  0  0  0
  1  2  1  0
  2  3  2  0
  3  4  1  0
  4  5  2  0
  5  6  1  0
  6  7  2  0
  7  8  1  0
  7  9  1  0
  9 10  1  0
  9 11  2  0
 11 12  1  0
 11 13  1  0
 13 14  1  0
 13 15  2  0
 15 16  1  0
  5 17  1  0
 17 18  1  0
 17 19  1  0
 19 20  2  0
 20 21  1  0
 21 22  2  0
 22 23  1  0
 22 24  1  0
 24 25  1  0
 24 26  2  0
 26 27  1  0
 26 28  1  0
 28 29  1  0
 28 30  2  0
 30 31  1  0
 19 32  1  0
 32  3  1  0
 15  6  1  0
 30 21  1  0
M  CHG  1  32  -1
M  END
>  <UniqueID>  (78) 
72

>  <SMILES>  (78) 
[H]/N=c1/nc(-c2ccccc2)[nH]/c(=N/c2ccccc2)[n-]1

>  <Energy>  (78) 
44.99140559909083

>  <Genealogy>  (78) 
N=c1nc(-c2ccccc2)[nH]c(=Nc2ccccc2)[n-]1 (protonated)
[H]/N=c1/nc(-c2ccccc2)[nH]/c(=N/c2ccccc2)[n-]1 (cis-trans isomerization)
[H]/N=c1/nc(-c2ccccc2)[nH]/c(=N/c2ccccc2)[n-]1 (3D coordinates assigned)
[H]/N=c1/nc(-c2ccccc2)[nH]/c(=N/c2ccccc2)[n-]1 (optimized conformer: 44.99140559909083 kcal/mol)

>  <smiles>  (78) 
N=c1nc(-c2ccccc2)[nH]c(=Nc2ccccc2)[nH]1

>  <score_type>  (78) 
oracle

>  <origin>  (78) 
adg

>  <m_score__min__energy>  (78) 
-8.6199999999999992

>  <m_primary>  (78) 
energy

$$$$
78:0
     RDKit          3D

 30 31  0  0  0  0  0  0  0  0999 V2000
   56.7730   30.2700   42.5150 N   0  0  0  0  0  0  0  0  0  0  0  0
   56.6170   30.2270   44.2360 S   0  0  0  0  0  0  0  0  0  0  0  0
   55.1550   30.2270   44.5920 O   0  0  0  0  0  0  0  0  0  0  0  0
   57.2740   31.4390   44.8310 O   0  0  0  0  0  0  0  0  0  0  0  0
   57.3870   28.7750   44.8690 C   0  0  0  0  0  0  0  0  0  0  0  0
   58.7780   28.6350   44.8040 C   0  0  0  0  0  0  0  0  0  0  0  0
   59.3920   27.4820   45.3020 C   0  0  0  0  0  0  0  0  0  0  0  0
   58.6190   26.4720   45.8810 C   0  0  0  0  0  0  0  0  0  0  0  0
   57.2250   26.6180   45.9840 C   0  0  0  0  0  0  0  0  0  0  0  0
   56.4020   25.5880   46.5460 N   0  0  0  0  0  0  0  0  0  0  0  0
   55.1750   25.0880   46.0000 C   0  0  0  0  0  0  0  0  0  0  0  0
   54.2770   25.9080   45.6720 O   0  0  0  0  0  0  0  0  0  0  0  0
   54.9110   23.6130   45.8590 C   0  0  0  0  0  0  0  0  0  0  0  0
   55.8450   23.0040   44.8550 C   0  0  0  0  0  0  0  0  0  0  0  0
   55.6330   23.0730   43.4700 C   0  0  0  0  0  0  0  0  0  0  0  0
   56.6410   22.4810   42.7240 C   0  0  0  0  0  0  0  0  0  0  0  0
   57.7970   21.8860   43.7890 S   0  0  0  0  0  0  0  0  0  0  0  0
   57.0330   22.3690   45.2060 C   0  0  0  0  0  0  0  0  0  0  0  0
   56.6140   27.7630   45.4570 C   0  0  0  0  0  0  0  0  0  0  0  0
   57.5990   29.6800   42.2680 H   0  0  0  0  0  0  0  0  0  0  0  0
   55.9320   29.7930   42.1200 H   0  0  0  0  0  0  0  0  0  0  0  0
   59.3897   29.4342   44.3600 H   0  0  0  0  0  0  0  0  0  0  0  0
   60.4844   27.3697   45.2380 H   0  0  0  0  0  0  0  0  0  0  0  0
   59.1035   25.5591   46.2576 H   0  0  0  0  0  0  0  0  0  0  0  0
   55.0587   23.1243   46.8334 H   0  0  0  0  0  0  0  0  0  0  0  0
   53.8763   23.4688   45.5146 H   0  0  0  0  0  0  0  0  0  0  0  0
   54.7511   23.5512   43.0187 H   0  0  0  0  0  0  0  0  0  0  0  0
   56.6776   22.4128   41.6267 H   0  0  0  0  0  0  0  0  0  0  0  0
   57.4055   22.2114   46.2289 H   0  0  0  0  0  0  0  0  0  0  0  0
   55.5202   27.8693   45.5046 H   0  0  0  0  0  0  0  0  0  0  0  0
  1  2  1  0
  2  3  2  0
  2  4  2  0
  2  5  1  0
  5  6  2  0
  6  7  1  0
  7  8  2  0
  8  9  1  0
  9 10  1  0
 10 11  1  0
 11 12  2  0
 11 13  1  0
 13 14  1  0
 14 15  1  0
 15 16  2  0
 16 17  1  0
 17 18  1  0
  9 19  2  0
 19  5  1  0
 18 14  2  0
  1 20  1  0
  1 21  1  0
  6 22  1  0
  7 23  1  0
  8 24  1  0
 13 25  1  0
 13 26  1  0
 15 27  1  0
 16 28  1  0
 18 29  1  0
 19 30  1  0
M  CHG  1  10  -1
M  END
>  <UniqueID>  (79) 
73

>  <SMILES>  (79) 
NS(=O)(=O)c1cccc([N-]C(=O)Cc2ccsc2)c1

>  <Energy>  (79) 
57.89821391845718

>  <Genealogy>  (79) 
NS(=O)(=O)c1cccc([N-]C(=O)Cc2ccsc2)c1 (protonated)
NS(=O)(=O)c1cccc([N-]C(=O)Cc2ccsc2)c1 (3D coordinates assigned)
NS(=O)(=O)c1cccc([N-]C(=O)Cc2ccsc2)c1 (optimized conformer: 57.89821391845718 kcal/mol)

>  <smiles>  (79) 
NS(=O)(=O)c1cccc(NC(=O)Cc2ccsc2)c1

>  <score_type>  (79) 
oracle

>  <origin>  (79) 
adg

>  <m_score__min__energy>  (79) 
-9.2599999999999998

>  <m_primary>  (79) 
energy

$$$$
79:0
     RDKit          3D

 44 46  0  0  0  0  0  0  0  0999 V2000
   54.6180   24.4710   45.7150 C   0  0  0  0  0  0  0  0  0  0  0  0
   55.2860   25.5570   46.3470 O   0  0  0  0  0  0  0  0  0  0  0  0
   56.5720   26.0160   46.0100 C   0  0  0  0  0  0  0  0  0  0  0  0
   56.7510   27.1890   45.2480 C   0  0  0  0  0  0  0  0  0  0  0  0
   58.0320   27.6450   44.9090 C   0  0  0  0  0  0  0  0  0  0  0  0
   58.1660   28.8440   44.1250 N   0  0  0  0  0  0  0  0  0  0  0  0
   57.0320   30.1590   44.1680 S   0  0  0  0  0  0  0  0  0  0  0  0
   56.6770   30.5530   42.7620 O   0  0  0  0  0  0  0  0  0  0  0  0
   55.7870   29.7120   44.8800 O   0  0  0  0  0  0  0  0  0  0  0  0
   57.7540   31.5450   44.9780 C   0  0  0  0  0  0  0  0  0  0  0  0
   57.8540   32.7800   44.3220 C   0  0  0  0  0  0  0  0  0  0  0  0
   58.4170   33.8800   44.9780 C   0  0  0  0  0  0  0  0  0  0  0  0
   58.8890   33.7480   46.2900 C   0  0  0  0  0  0  0  0  0  0  0  0
   59.6170   35.1560   47.1280 S   0  0  0  0  0  0  0  0  0  0  0  0
   61.0790   34.2330   47.6040 C   0  0  0  0  0  0  0  0  0  0  0  0
   61.3040   33.9210   48.9510 C   0  0  0  0  0  0  0  0  0  0  0  0
   62.4420   33.1960   49.3210 C   0  0  0  0  0  0  0  0  0  0  0  0
   63.3570   32.7850   48.3460 C   0  0  0  0  0  0  0  0  0  0  0  0
   63.1360   33.1000   47.0010 C   0  0  0  0  0  0  0  0  0  0  0  0
   61.9990   33.8240   46.6300 C   0  0  0  0  0  0  0  0  0  0  0  0
   58.7900   32.5160   46.9450 C   0  0  0  0  0  0  0  0  0  0  0  0
   58.2270   31.4170   46.2910 C   0  0  0  0  0  0  0  0  0  0  0  0
   59.1500   26.9210   45.3510 C   0  0  0  0  0  0  0  0  0  0  0  0
   58.9880   25.7590   46.1040 C   0  0  0  0  0  0  0  0  0  0  0  0
   57.7070   25.2900   46.4440 C   0  0  0  0  0  0  0  0  0  0  0  0
   57.5880   24.0480   47.2510 C   0  0  0  0  0  0  0  0  0  0  0  0
   57.6800   22.9110   46.7160 O   0  0  0  0  0  0  0  0  0  0  0  0
   57.3670   24.1200   48.6230 O   0  0  0  0  0  0  0  0  0  0  0  0
   54.2046   23.7989   46.4814 H   0  0  0  0  0  0  0  0  0  0  0  0
   53.8015   24.8579   45.0876 H   0  0  0  0  0  0  0  0  0  0  0  0
   55.3315   23.9168   45.0876 H   0  0  0  0  0  0  0  0  0  0  0  0
   55.8696   27.7560   44.9138 H   0  0  0  0  0  0  0  0  0  0  0  0
   59.0380   28.9920   43.5680 H   0  0  0  0  0  0  0  0  0  0  0  0
   57.4891   32.8843   43.2895 H   0  0  0  0  0  0  0  0  0  0  0  0
   58.4890   34.8493   44.4629 H   0  0  0  0  0  0  0  0  0  0  0  0
   60.5857   34.2461   49.7181 H   0  0  0  0  0  0  0  0  0  0  0  0
   62.6172   32.9492   50.3785 H   0  0  0  0  0  0  0  0  0  0  0  0
   64.2509   32.2138   48.6371 H   0  0  0  0  0  0  0  0  0  0  0  0
   63.8570   32.7780   46.2352 H   0  0  0  0  0  0  0  0  0  0  0  0
   61.8267   34.0727   45.5724 H   0  0  0  0  0  0  0  0  0  0  0  0
   59.1561   32.4121   47.9771 H   0  0  0  0  0  0  0  0  0  0  0  0
   58.1549   30.4488   46.8081 H   0  0  0  0  0  0  0  0  0  0  0  0
   60.1618   27.2730   45.1014 H   0  0  0  0  0  0  0  0  0  0  0  0
   59.8755   25.2009   46.4370 H   0  0  0  0  0  0  0  0  0  0  0  0
  1  2  1  0
  2  3  1  0
  3  4  2  0
  4  5  1  0
  5  6  1  0
  6  7  1  0
  7  8  2  0
  7  9  2  0
  7 10  1  0
 10 11  2  0
 11 12  1  0
 12 13  2  0
 13 14  1  0
 14 15  1  0
 15 16  2  0
 16 17  1  0
 17 18  2  0
 18 19  1  0
 19 20  2  0
 13 21  1  0
 21 22  2  0
  5 23  2  0
 23 24  1  0
 24 25  2  0
 25 26  1  0
 26 27  2  0
 26 28  1  0
 25  3  1  0
 22 10  1  0
 20 15  1  0
  1 29  1  0
  1 30  1  0
  1 31  1  0
  4 32  1  0
  6 33  1  0
 11 34  1  0
 12 35  1  0
 16 36  1  0
 17 37  1  0
 18 38  1  0
 19 39  1  0
 20 40  1  0
 21 41  1  0
 22 42  1  0
 23 43  1  0
 24 44  1  0
M  CHG  1  28  -1
M  END
>  <UniqueID>  (80) 
74

>  <SMILES>  (80) 
COc1cc(NS(=O)(=O)c2ccc(Sc3ccccc3)cc2)ccc1C(=O)[O-]

>  <Energy>  (80) 
46.595388886502114

>  <Genealogy>  (80) 
COc1cc(NS(=O)(=O)c2ccc(Sc3ccccc3)cc2)ccc1C(=O)[O-] (protonated)
COc1cc(NS(=O)(=O)c2ccc(Sc3ccccc3)cc2)ccc1C(=O)[O-] (3D coordinates assigned)
COc1cc(NS(=O)(=O)c2ccc(Sc3ccccc3)cc2)ccc1C(=O)[O-] (optimized conformer: 46.595388886502114 kcal/mol)

>  <smiles>  (80) 
COc1cc(NS(=O)(=O)c2ccc(Sc3ccccc3)cc2)ccc1C(=O)O

>  <score_type>  (80) 
oracle

>  <origin>  (80) 
adg

>  <m_score__min__energy>  (80) 
-11.91

>  <m_primary>  (80) 
energy

$$$$
80:0
     RDKit          3D

 36 37  0  0  0  0  0  0  0  0999 V2000
   63.7520   31.8970   47.0730 N   0  0  0  0  0  0  0  0  0  0  0  0
   63.1180   33.5050   47.0810 S   0  0  0  0  0  0  0  0  0  0  0  0
   63.4290   34.1470   48.4050 O   0  0  0  0  0  0  0  0  0  0  0  0
   63.7670   34.3090   45.9880 O   0  0  0  0  0  0  0  0  0  0  0  0
   61.3770   33.4610   46.8160 C   0  0  0  0  0  0  0  0  0  0  0  0
   60.6480   32.2840   47.0360 C   0  0  0  0  0  0  0  0  0  0  0  0
   59.2680   32.2610   46.8150 C   0  0  0  0  0  0  0  0  0  0  0  0
   58.6020   33.4120   46.3640 C   0  0  0  0  0  0  0  0  0  0  0  0
   57.1280   33.3570   46.0620 C   0  0  0  0  0  0  0  0  0  0  0  0
   56.8400   32.1940   45.2330 N   0  0  0  0  0  0  0  0  0  0  0  0
   57.4610   31.9730   43.9620 C   0  0  0  0  0  0  0  0  0  0  0  0
   58.2710   32.8170   43.4900 O   0  0  0  0  0  0  0  0  0  0  0  0
   57.2300   30.6810   43.2520 C   0  0  0  0  0  0  0  0  0  0  0  0
   57.5680   29.5800   44.1480 N   0  0  0  0  0  0  0  0  0  0  0  0
   58.8120   29.2140   44.5140 C   0  0  0  0  0  0  0  0  0  0  0  0
   58.7270   28.0480   45.2450 C   0  0  0  0  0  0  0  0  0  0  0  0
   57.3750   27.7540   45.2670 C   0  0  0  0  0  0  0  0  0  0  0  0
   56.7520   26.5620   45.9200 C   0  0  0  0  0  0  0  0  0  0  0  0
   55.3800   26.7170   45.9880 F   0  0  0  0  0  0  0  0  0  0  0  0
   57.2550   26.4220   47.2000 F   0  0  0  0  0  0  0  0  0  0  0  0
   57.0450   25.4280   45.1890 F   0  0  0  0  0  0  0  0  0  0  0  0
   56.6880   28.6930   44.5860 N   0  0  0  0  0  0  0  0  0  0  0  0
   59.3360   34.5870   46.1410 C   0  0  0  0  0  0  0  0  0  0  0  0
   60.7150   34.6110   46.3700 C   0  0  0  0  0  0  0  0  0  0  0  0
   64.5200   31.8750   46.3650 H   0  0  0  0  0  0  0  0  0  0  0  0
   64.1980   31.7360   48.0050 H   0  0  0  0  0  0  0  0  0  0  0  0
   61.1632   31.3763   47.3834 H   0  0  0  0  0  0  0  0  0  0  0  0
   58.7005   31.3361   46.9954 H   0  0  0  0  0  0  0  0  0  0  0  0
   56.5642   33.2835   47.0037 H   0  0  0  0  0  0  0  0  0  0  0  0
   56.8318   34.2700   45.5246 H   0  0  0  0  0  0  0  0  0  0  0  0
   56.1728   30.6058   42.9576 H   0  0  0  0  0  0  0  0  0  0  0  0
   57.8596   30.6340   42.3512 H   0  0  0  0  0  0  0  0  0  0  0  0
   59.7388   29.7542   44.2707 H   0  0  0  0  0  0  0  0  0  0  0  0
   59.5482   27.4799   45.7064 H   0  0  0  0  0  0  0  0  0  0  0  0
   58.8242   35.4931   45.7845 H   0  0  0  0  0  0  0  0  0  0  0  0
   61.2824   35.5377   46.1989 H   0  0  0  0  0  0  0  0  0  0  0  0
  1  2  1  0
  2  3  2  0
  2  4  2  0
  2  5  1  0
  5  6  2  0
  6  7  1  0
  7  8  2  0
  8  9  1  0
  9 10  1  0
 10 11  1  0
 11 12  2  0
 11 13  1  0
 13 14  1  0
 14 15  1  0
 15 16  2  0
 16 17  1  0
 17 18  1  0
 18 19  1  0
 18 20  1  0
 18 21  1  0
 17 22  2  0
  8 23  1  0
 23 24  2  0
 24  5  1  0
 22 14  1  0
  1 25  1  0
  1 26  1  0
  6 27  1  0
  7 28  1  0
  9 29  1  0
  9 30  1  0
 13 31  1  0
 13 32  1  0
 15 33  1  0
 16 34  1  0
 23 35  1  0
 24 36  1  0
M  CHG  1  10  -1
M  END
>  <UniqueID>  (81) 
75

>  <SMILES>  (81) 
NS(=O)(=O)c1ccc(C[N-]C(=O)Cn2ccc(C(F)(F)F)n2)cc1

>  <Energy>  (81) 
56.323266459265604

>  <Genealogy>  (81) 
NS(=O)(=O)c1ccc(C[N-]C(=O)Cn2ccc(C(F)(F)F)n2)cc1 (protonated)
NS(=O)(=O)c1ccc(C[N-]C(=O)Cn2ccc(C(F)(F)F)n2)cc1 (3D coordinates assigned)
NS(=O)(=O)c1ccc(C[N-]C(=O)Cn2ccc(C(F)(F)F)n2)cc1 (optimized conformer: 56.323266459265604 kcal/mol)

>  <smiles>  (81) 
NS(=O)(=O)c1ccc(CNC(=O)Cn2ccc(C(F)(F)F)n2)cc1

>  <score_type>  (81) 
oracle

>  <origin>  (81) 
adg

>  <m_score__min__energy>  (81) 
-9.6999999999999993

>  <m_primary>  (81) 
energy

$$$$
81:0
     RDKit          3D

 46 49  0  0  0  0  0  0  0  0999 V2000
   61.1479   26.5314   50.9798 H   0  0  0  0  0  0  0  0  0  0  0  0
   60.7780   27.2190   50.2050 C   0  0  0  0  0  0  0  0  0  0  0  0
   60.3960   26.7170   48.9470 C   0  0  0  0  0  0  0  0  0  0  0  0
   60.4686   25.6380   48.7459 H   0  0  0  0  0  0  0  0  0  0  0  0
   59.9230   27.5810   47.9460 C   0  0  0  0  0  0  0  0  0  0  0  0
   59.6258   27.1881   46.9625 H   0  0  0  0  0  0  0  0  0  0  0  0
   59.8360   28.9540   48.2220 C   0  0  0  0  0  0  0  0  0  0  0  0
   60.2170   29.4320   49.4700 C   0  0  0  0  0  0  0  0  0  0  0  0
   60.0140   31.0980   49.5290 S   0  0  0  0  0  0  0  0  0  0  0  0
   59.4270   31.2510   47.9440 C   0  0  0  0  0  0  0  0  0  0  0  0
   59.0150   32.3920   47.2200 C   0  0  0  0  0  0  0  0  0  0  0  0
   59.0230   33.6090   47.7030 N   0  0  0  0  0  0  0  0  0  0  0  0
   59.9850   34.6860   47.4890 C   0  0  0  0  0  0  0  0  0  0  0  0
   59.5222   35.4740   46.8767 H   0  0  0  0  0  0  0  0  0  0  0  0
   60.2872   35.1044   48.4604 H   0  0  0  0  0  0  0  0  0  0  0  0
   61.2180   34.1370   46.7660 C   0  0  0  0  0  0  0  0  0  0  0  0
   60.8911   33.5333   45.9065 H   0  0  0  0  0  0  0  0  0  0  0  0
   61.8330   34.9855   46.4315 H   0  0  0  0  0  0  0  0  0  0  0  0
   62.0340   33.2920   47.6680 N   0  0  0  0  0  0  0  0  0  0  0  0
   63.3720   33.0480   47.1020 C   0  0  0  0  0  0  0  0  0  0  0  0
   64.0970   32.9158   47.9186 H   0  0  0  0  0  0  0  0  0  0  0  0
   63.3479   32.1394   46.4824 H   0  0  0  0  0  0  0  0  0  0  0  0
   63.6702   33.9066   46.4824 H   0  0  0  0  0  0  0  0  0  0  0  0
   62.1690   33.9380   48.9840 C   0  0  0  0  0  0  0  0  0  0  0  0
   62.0130   33.1914   49.7767 H   0  0  0  0  0  0  0  0  0  0  0  0
   63.1766   34.3689   49.0793 H   0  0  0  0  0  0  0  0  0  0  0  0
   61.4183   34.7363   49.0793 H   0  0  0  0  0  0  0  0  0  0  0  0
   58.5680   32.1890   45.8880 C   0  0  0  0  0  0  0  0  0  0  0  0
   58.1360   33.2630   45.0830 C   0  0  0  0  0  0  0  0  0  0  0  0
   58.1434   34.2848   45.4903 H   0  0  0  0  0  0  0  0  0  0  0  0
   57.6990   33.0450   43.7750 C   0  0  0  0  0  0  0  0  0  0  0  0
   57.3658   33.8951   43.1615 H   0  0  0  0  0  0  0  0  0  0  0  0
   57.6820   31.7470   43.2370 C   0  0  0  0  0  0  0  0  0  0  0  0
   57.2510   31.4820   41.9280 O   0  0  0  0  0  0  0  0  0  0  0  0
   57.3930   32.3860   40.8350 C   0  0  0  0  0  0  0  0  0  0  0  0
   57.5529   33.4041   41.2196 H   0  0  0  0  0  0  0  0  0  0  0  0
   58.2551   32.0864   40.2210 H   0  0  0  0  0  0  0  0  0  0  0  0
   56.4806   32.3651   40.2210 H   0  0  0  0  0  0  0  0  0  0  0  0
   58.1080   30.6740   44.0230 C   0  0  0  0  0  0  0  0  0  0  0  0
   58.0971   29.6573   43.6032 H   0  0  0  0  0  0  0  0  0  0  0  0
   58.5500   30.8730   45.3410 C   0  0  0  0  0  0  0  0  0  0  0  0
   58.9610   29.8060   46.0880 N   0  0  0  0  0  0  0  0  0  0  0  0
   58.9400   28.8490   45.6680 H   0  0  0  0  0  0  0  0  0  0  0  0
   59.3920   29.9800   47.3650 C   0  0  0  0  0  0  0  0  0  0  0  0
   60.6890   28.5930   50.4750 C   0  0  0  0  0  0  0  0  0  0  0  0
   60.9844   28.9962   51.4549 H   0  0  0  0  0  0  0  0  0  0  0  0
  1  2  1  0
  2  3  2  0
  3  4  1  0
  3  5  1  0
  5  6  1  0
  5  7  2  0
  7  8  1  0
  8  9  1  0
  9 10  1  0
 10 11  1  0
 11 12  2  0
 12 13  1  0
 13 14  1  0
 13 15  1  0
 13 16  1  0
 16 17  1  0
 16 18  1  0
 16 19  1  0
 19 20  1  0
 20 21  1  0
 20 22  1  0
 20 23  1  0
 19 24  1  0
 24 25  1  0
 24 26  1  0
 24 27  1  0
 11 28  1  0
 28 29  2  0
 29 30  1  0
 29 31  1  0
 31 32  1  0
 31 33  2  0
 33 34  1  0
 34 35  1  0
 35 36  1  0
 35 37  1  0
 35 38  1  0
 33 39  1  0
 39 40  1  0
 39 41  2  0
 41 42  1  0
 42 43  1  0
 42 44  1  0
  8 45  2  0
 45 46  1  0
 45  2  1  0
 44  7  1  0
 44 10  2  0
 41 28  1  0
M  END
>  <UniqueID>  (82) 
76

>  <SMILES>  (82) 
COc1ccc2/c(=N/CCN(C)C)c3sc4ccccc4c3[nH]c2c1

>  <Energy>  (82) 
94.60002686702944

>  <Genealogy>  (82) 
COc1ccc2/c(=N/CCN(C)C)c3sc4ccccc4c3[nH]c2c1 (cis-trans isomerization)
COc1ccc2/c(=N/CCN(C)C)c3sc4ccccc4c3[nH]c2c1 (3D coordinates assigned)
COc1ccc2/c(=N/CCN(C)C)c3sc4ccccc4c3[nH]c2c1 (optimized conformer: 94.60002686702944 kcal/mol)

>  <smiles>  (82) 
COc1ccc2c(=NCCN(C)C)c3sc4ccccc4c3[nH]c2c1

>  <score_type>  (82) 
oracle

>  <origin>  (82) 
adg

>  <m_score__min__energy>  (82) 
-7.2300000000000004

>  <m_primary>  (82) 
energy

$$$$
82:0
     RDKit          3D

 58 61  0  0  0  0  0  0  0  0999 V2000
   55.2110   29.3360   44.8570 O   0  0  0  0  0  0  0  0  0  0  0  0
   56.4660   29.2560   44.9320 C   0  0  0  0  0  0  0  0  0  0  0  0
   57.0500   28.0150   45.1970 C   0  0  0  0  0  0  0  0  0  0  0  0
   58.4330   27.9140   45.3090 C   0  0  0  0  0  0  0  0  0  0  0  0
   59.2320   29.0500   45.1470 C   0  0  0  0  0  0  0  0  0  0  0  0
   60.7280   28.9610   45.3140 C   0  0  0  0  0  0  0  0  0  0  0  0
   61.1830   29.7610   46.4530 N   0  0  0  0  0  0  0  0  0  0  0  0
   60.6290   29.6800   47.7800 C   0  0  0  0  0  0  0  0  0  0  0  0
   60.5510   28.4300   48.4140 C   0  0  0  0  0  0  0  0  0  0  0  0
   60.0000   28.3180   49.6950 C   0  0  0  0  0  0  0  0  0  0  0  0
   59.5150   29.4490   50.3520 C   0  0  0  0  0  0  0  0  0  0  0  0
   59.5900   30.7040   49.7350 C   0  0  0  0  0  0  0  0  0  0  0  0
   58.9320   32.1370   50.5170 S   0  0  0  0  0  0  0  0  0  0  0  0
   57.4280   32.1170   50.4790 O   0  0  0  0  0  0  0  0  0  0  0  0
   59.3780   32.1580   51.9510 O   0  0  0  0  0  0  0  0  0  0  0  0
   59.5230   33.5590   49.7080 N   0  0  0  0  0  0  0  0  0  0  0  0
   60.8800   33.8580   50.1650 C   0  0  0  0  0  0  0  0  0  0  0  0
   61.8710   33.4810   49.0990 C   0  0  0  0  0  0  0  0  0  0  0  0
   63.0050   32.7210   49.4290 C   0  0  0  0  0  0  0  0  0  0  0  0
   63.9210   32.3580   48.4370 C   0  0  0  0  0  0  0  0  0  0  0  0
   63.7120   32.7500   47.1130 C   0  0  0  0  0  0  0  0  0  0  0  0
   62.5830   33.4980   46.7760 C   0  0  0  0  0  0  0  0  0  0  0  0
   61.6560   33.8540   47.7620 C   0  0  0  0  0  0  0  0  0  0  0  0
   60.1500   30.8180   48.4560 C   0  0  0  0  0  0  0  0  0  0  0  0
   58.6110   30.2810   44.8840 C   0  0  0  0  0  0  0  0  0  0  0  0
   57.2520   30.3700   44.7610 N   0  0  0  0  0  0  0  0  0  0  0  0
   56.6490   31.6850   44.4900 C   0  0  0  0  0  0  0  0  0  0  0  0
   57.4910   32.7810   45.0860 C   0  0  0  0  0  0  0  0  0  0  0  0
   58.4220   33.4680   44.2910 C   0  0  0  0  0  0  0  0  0  0  0  0
   59.2240   34.4680   44.8510 C   0  0  0  0  0  0  0  0  0  0  0  0
   59.1070   34.7820   46.2070 C   0  0  0  0  0  0  0  0  0  0  0  0
   58.1890   34.0970   47.0080 C   0  0  0  0  0  0  0  0  0  0  0  0
   57.3860   33.0960   46.4520 C   0  0  0  0  0  0  0  0  0  0  0  0
   56.4193   27.1218   45.3166 H   0  0  0  0  0  0  0  0  0  0  0  0
   58.8978   26.9407   45.5249 H   0  0  0  0  0  0  0  0  0  0  0  0
   61.0086   27.9102   45.4788 H   0  0  0  0  0  0  0  0  0  0  0  0
   61.2037   29.3515   44.4023 H   0  0  0  0  0  0  0  0  0  0  0  0
   61.9570   30.4410   46.2760 H   0  0  0  0  0  0  0  0  0  0  0  0
   60.9257   27.5325   47.9001 H   0  0  0  0  0  0  0  0  0  0  0  0
   59.9490   27.3349   50.1858 H   0  0  0  0  0  0  0  0  0  0  0  0
   59.0735   29.3550   51.3551 H   0  0  0  0  0  0  0  0  0  0  0  0
   59.5630   33.3310   48.6880 H   0  0  0  0  0  0  0  0  0  0  0  0
   60.9648   34.9338   50.3784 H   0  0  0  0  0  0  0  0  0  0  0  0
   61.0912   33.2814   51.0776 H   0  0  0  0  0  0  0  0  0  0  0  0
   63.1730   32.4105   50.4708 H   0  0  0  0  0  0  0  0  0  0  0  0
   64.8078   31.7626   48.6999 H   0  0  0  0  0  0  0  0  0  0  0  0
   64.4376   32.4691   46.3354 H   0  0  0  0  0  0  0  0  0  0  0  0
   62.4215   33.8084   45.7331 H   0  0  0  0  0  0  0  0  0  0  0  0
   60.7574   34.4269   47.4895 H   0  0  0  0  0  0  0  0  0  0  0  0
   60.2160   31.8054   47.9758 H   0  0  0  0  0  0  0  0  0  0  0  0
   59.2260   31.1865   44.7753 H   0  0  0  0  0  0  0  0  0  0  0  0
   56.5773   31.8337   43.4025 H   0  0  0  0  0  0  0  0  0  0  0  0
   55.6471   31.7183   44.9429 H   0  0  0  0  0  0  0  0  0  0  0  0
   58.5212   33.2191   43.2241 H   0  0  0  0  0  0  0  0  0  0  0  0
   59.9477   35.0078   44.2227 H   0  0  0  0  0  0  0  0  0  0  0  0
   59.7381   35.5693   46.6450 H   0  0  0  0  0  0  0  0  0  0  0  0
   58.0981   34.3452   48.0758 H   0  0  0  0  0  0  0  0  0  0  0  0
   56.6695   32.5531   47.0860 H   0  0  0  0  0  0  0  0  0  0  0  0
  1  2  2  0
  2  3  1  0
  3  4  2  0
  4  5  1  0
  5  6  1  0
  6  7  1  0
  7  8  1  0
  8  9  2  0
  9 10  1  0
 10 11  2  0
 11 12  1  0
 12 13  1  0
 13 14  2  0
 13 15  2  0
 13 16  1  0
 16 17  1  0
 17 18  1  0
 18 19  2  0
 19 20  1  0
 20 21  2  0
 21 22  1  0
 22 23  2  0
 12 24  2  0
  5 25  2  0
 25 26  1  0
 26 27  1  0
 27 28  1  0
 28 29  2  0
 29 30  1  0
 30 31  2  0
 31 32  1  0
 32 33  2  0
 26  2  1  0
 33 28  1  0
 24  8  1  0
 23 18  1  0
  3 34  1  0
  4 35  1  0
  6 36  1  0
  6 37  1  0
  7 38  1  0
  9 39  1  0
 10 40  1  0
 11 41  1  0
 16 42  1  0
 17 43  1  0
 17 44  1  0
 19 45  1  0
 20 46  1  0
 21 47  1  0
 22 48  1  0
 23 49  1  0
 24 50  1  0
 25 51  1  0
 27 52  1  0
 27 53  1  0
 29 54  1  0
 30 55  1  0
 31 56  1  0
 32 57  1  0
 33 58  1  0
M  END
>  <UniqueID>  (83) 
77

>  <SMILES>  (83) 
O=c1ccc(CNc2cccc(S(=O)(=O)NCc3ccccc3)c2)cn1Cc1ccccc1

>  <Energy>  (83) 
56.63028168825602

>  <Genealogy>  (83) 
O=c1ccc(CNc2cccc(S(=O)(=O)NCc3ccccc3)c2)cn1Cc1ccccc1 (3D coordinates assigned)
O=c1ccc(CNc2cccc(S(=O)(=O)NCc3ccccc3)c2)cn1Cc1ccccc1 (optimized conformer: 56.63028168825602 kcal/mol)

>  <smiles>  (83) 
O=c1ccc(CNc2cccc(S(=O)(=O)NCc3ccccc3)c2)cn1Cc1ccccc1

>  <score_type>  (83) 
oracle

>  <origin>  (83) 
adg

>  <m_score__min__energy>  (83) 
-10.23

>  <m_primary>  (83) 
energy

$$$$
83:0
     RDKit          3D

 30 32  0  0  0  0  0  0  0  0999 V2000
   56.9570   29.6970   42.9890 C   0  0  0  0  0  0  0  0  0  0  0  0
   56.2150   30.2010   44.1800 C   0  0  0  0  0  0  0  0  0  0  0  0
   55.4570   29.4180   44.8160 O   0  0  0  0  0  0  0  0  0  0  0  0
   56.2860   31.5610   44.5060 O   0  0  0  0  0  0  0  0  0  0  0  0
   57.3900   32.1980   45.0930 C   0  0  0  0  0  0  0  0  0  0  0  0
   58.1420   33.0770   44.3130 C   0  0  0  0  0  0  0  0  0  0  0  0
   59.2490   33.7290   44.8550 C   0  0  0  0  0  0  0  0  0  0  0  0
   59.6450   33.4900   46.1760 C   0  0  0  0  0  0  0  0  0  0  0  0
   58.9040   32.5990   46.9750 C   0  0  0  0  0  0  0  0  0  0  0  0
   57.7780   31.9590   46.4230 C   0  0  0  0  0  0  0  0  0  0  0  0
   59.1630   32.3940   48.4130 C   0  0  0  0  0  0  0  0  0  0  0  0
   60.3320   32.4040   48.9750 N   0  0  0  0  0  0  0  0  0  0  0  0
   61.6180   32.7020   48.4210 C   0  0  0  0  0  0  0  0  0  0  0  0
   62.7390   32.1830   49.0880 C   0  0  0  0  0  0  0  0  0  0  0  0
   64.0310   32.5340   48.6930 C   0  0  0  0  0  0  0  0  0  0  0  0
   64.2190   33.4310   47.6440 C   0  0  0  0  0  0  0  0  0  0  0  0
   63.1140   33.9700   46.9840 C   0  0  0  0  0  0  0  0  0  0  0  0
   61.8110   33.6040   47.3530 C   0  0  0  0  0  0  0  0  0  0  0  0
   60.7610   34.1820   46.6420 O   0  0  0  0  0  0  0  0  0  0  0  0
   57.8248   29.1076   43.3200 H   0  0  0  0  0  0  0  0  0  0  0  0
   56.2922   29.0628   42.3841 H   0  0  0  0  0  0  0  0  0  0  0  0
   57.3015   30.5488   42.3841 H   0  0  0  0  0  0  0  0  0  0  0  0
   57.8601   33.2566   43.2650 H   0  0  0  0  0  0  0  0  0  0  0  0
   59.8177   34.4395   44.2371 H   0  0  0  0  0  0  0  0  0  0  0  0
   57.1934   31.2619   47.0413 H   0  0  0  0  0  0  0  0  0  0  0  0
   58.2926   32.2181   49.0623 H   0  0  0  0  0  0  0  0  0  0  0  0
   62.5976   31.4916   49.9318 H   0  0  0  0  0  0  0  0  0  0  0  0
   64.9006   32.1023   49.2101 H   0  0  0  0  0  0  0  0  0  0  0  0
   65.2366   33.7139   47.3365 H   0  0  0  0  0  0  0  0  0  0  0  0
   63.2662   34.6894   46.1659 H   0  0  0  0  0  0  0  0  0  0  0  0
  1  2  1  0
  2  3  2  0
  2  4  1  0
  4  5  1  0
  5  6  2  0
  6  7  1  0
  7  8  2  0
  8  9  1  0
  9 10  2  0
  9 11  1  0
 11 12  2  0
 12 13  1  0
 13 14  2  0
 14 15  1  0
 15 16  2  0
 16 17  1  0
 17 18  2  0
 18 19  1  0
 10  5  1  0
 18 13  1  0
 19  8  1  0
  1 20  1  0
  1 21  1  0
  1 22  1  0
  6 23  1  0
  7 24  1  0
 10 25  1  0
 11 26  1  0
 14 27  1  0
 15 28  1  0
 16 29  1  0
 17 30  1  0
M  END
>  <UniqueID>  (84) 
78

>  <SMILES>  (84) 
CC(=O)Oc1ccc2c(c1)C=Nc1ccccc1O2

>  <Energy>  (84) 
57.646747996131886

>  <Genealogy>  (84) 
CC(=O)Oc1ccc2c(c1)C=Nc1ccccc1O2 (3D coordinates assigned)
CC(=O)Oc1ccc2c(c1)C=Nc1ccccc1O2 (nonaromatic ring conformer: 57.646747996131886 kcal/mol)

>  <smiles>  (84) 
CC(=O)Oc1ccc2c(c1)C=Nc1ccccc1O2

>  <score_type>  (84) 
oracle

>  <origin>  (84) 
adg

>  <m_score__min__energy>  (84) 
-7.1200000000000001

>  <m_primary>  (84) 
energy

$$$$
84:0
     RDKit          3D

 54 56  0  0  0  0  0  0  0  0999 V2000
   65.7290   33.2720   50.5350 C   0  0  0  0  0  0  0  0  0  0  0  0
   64.9940   32.8840   49.3780 O   0  0  0  0  0  0  0  0  0  0  0  0
   63.8160   32.1180   49.4010 C   0  0  0  0  0  0  0  0  0  0  0  0
   63.4760   31.3110   50.5000 C   0  0  0  0  0  0  0  0  0  0  0  0
   62.3140   30.5400   50.4740 C   0  0  0  0  0  0  0  0  0  0  0  0
   61.4600   30.5820   49.3700 C   0  0  0  0  0  0  0  0  0  0  0  0
   60.0270   29.5530   49.3370 S   0  0  0  0  0  0  0  0  0  0  0  0
   60.1760   28.3850   50.2700 O   0  0  0  0  0  0  0  0  0  0  0  0
   59.8510   29.0140   47.9460 O   0  0  0  0  0  0  0  0  0  0  0  0
   58.6260   30.4900   49.7480 N   0  0  0  0  0  0  0  0  0  0  0  0
   58.1170   30.7080   51.0740 C   0  0  0  0  0  0  0  0  0  0  0  0
   57.5730   29.6590   51.8320 C   0  0  0  0  0  0  0  0  0  0  0  0
   57.0860   29.8750   53.1270 C   0  0  0  0  0  0  0  0  0  0  0  0
   56.4240   28.5060   54.0320 S   0  0  0  0  0  0  0  0  0  0  0  0
   57.0040   27.2250   53.4980 O   0  0  0  0  0  0  0  0  0  0  0  0
   56.7700   28.6710   55.4830 O   0  0  0  0  0  0  0  0  0  0  0  0
   54.7000   28.4660   53.8560 N   0  0  0  0  0  0  0  0  0  0  0  0
   53.9040   29.4490   53.1850 C   0  0  0  0  0  0  0  0  0  0  0  0
   52.8290   30.0240   53.8710 C   0  0  0  0  0  0  0  0  0  0  0  0
   52.0110   30.9710   53.2510 C   0  0  0  0  0  0  0  0  0  0  0  0
   52.2640   31.3660   51.9290 C   0  0  0  0  0  0  0  0  0  0  0  0
   51.3940   32.3550   51.2570 C   0  0  0  0  0  0  0  0  0  0  0  0
   51.3080   32.3860   50.0010 O   0  0  0  0  0  0  0  0  0  0  0  0
   50.6660   33.2710   52.0070 O   0  0  0  0  0  0  0  0  0  0  0  0
   53.3550   30.8020   51.2460 C   0  0  0  0  0  0  0  0  0  0  0  0
   54.1690   29.8500   51.8670 C   0  0  0  0  0  0  0  0  0  0  0  0
   57.1230   31.1800   53.6700 C   0  0  0  0  0  0  0  0  0  0  0  0
   56.6430   31.4730   54.9480 O   0  0  0  0  0  0  0  0  0  0  0  0
   57.6520   32.2280   52.9140 C   0  0  0  0  0  0  0  0  0  0  0  0
   58.1510   32.0070   51.6210 C   0  0  0  0  0  0  0  0  0  0  0  0
   58.7230   33.1500   50.8310 C   0  0  0  0  0  0  0  0  0  0  0  0
   61.7770   31.4070   48.2830 C   0  0  0  0  0  0  0  0  0  0  0  0
   62.9680   32.1600   48.2860 C   0  0  0  0  0  0  0  0  0  0  0  0
   63.3480   32.9520   47.1940 O   0  0  0  0  0  0  0  0  0  0  0  0
   62.4850   33.8550   46.5190 C   0  0  0  0  0  0  0  0  0  0  0  0
   65.1733   32.9786   51.4378 H   0  0  0  0  0  0  0  0  0  0  0  0
   66.7099   32.7742   50.5303 H   0  0  0  0  0  0  0  0  0  0  0  0
   65.8713   34.3627   50.5303 H   0  0  0  0  0  0  0  0  0  0  0  0
   64.1292   31.2872   51.3847 H   0  0  0  0  0  0  0  0  0  0  0  0
   62.0684   29.8939   51.3297 H   0  0  0  0  0  0  0  0  0  0  0  0
   57.5285   28.6482   51.4004 H   0  0  0  0  0  0  0  0  0  0  0  0
   52.6257   29.7269   54.9104 H   0  0  0  0  0  0  0  0  0  0  0  0
   51.1652   31.4088   53.8014 H   0  0  0  0  0  0  0  0  0  0  0  0
   53.5706   31.1125   50.2130 H   0  0  0  0  0  0  0  0  0  0  0  0
   55.0189   29.4145   51.3211 H   0  0  0  0  0  0  0  0  0  0  0  0
   56.3050   30.7650   55.5910 H   0  0  0  0  0  0  0  0  0  0  0  0
   57.6780   33.2425   53.3384 H   0  0  0  0  0  0  0  0  0  0  0  0
   59.1066   33.9165   51.5204 H   0  0  0  0  0  0  0  0  0  0  0  0
   59.5438   32.7832   50.1971 H   0  0  0  0  0  0  0  0  0  0  0  0
   57.9374   33.5871   50.1971 H   0  0  0  0  0  0  0  0  0  0  0  0
   61.0932   31.4672   47.4235 H   0  0  0  0  0  0  0  0  0  0  0  0
   61.9215   34.4446   47.2571 H   0  0  0  0  0  0  0  0  0  0  0  0
   63.0818   34.5305   45.8885 H   0  0  0  0  0  0  0  0  0  0  0  0
   61.7832   33.2894   45.8885 H   0  0  0  0  0  0  0  0  0  0  0  0
  1  2  1  0
  2  3  1  0
  3  4  2  0
  4  5  1  0
  5  6  2  0
  6  7  1  0
  7  8  2  0
  7  9  2  0
  7 10  1  0
 10 11  1  0
 11 12  2  0
 12 13  1  0
 13 14  1  0
 14 15  2  0
 14 16  2  0
 14 17  1  0
 17 18  1  0
 18 19  2  0
 19 20  1  0
 20 21  2  0
 21 22  1  0
 22 23  2  0
 22 24  1  0
 21 25  1  0
 25 26  2  0
 13 27  2  0
 27 28  1  0
 27 29  1  0
 29 30  2  0
 30 31  1  0
  6 32  1  0
 32 33  2  0
 33 34  1  0
 34 35  1  0
 33  3  1  0
 30 11  1  0
 26 18  1  0
  1 36  1  0
  1 37  1  0
  1 38  1  0
  4 39  1  0
  5 40  1  0
 12 41  1  0
 19 42  1  0
 20 43  1  0
 25 44  1  0
 26 45  1  0
 28 46  1  0
 29 47  1  0
 31 48  1  0
 31 49  1  0
 31 50  1  0
 32 51  1  0
 35 52  1  0
 35 53  1  0
 35 54  1  0
M  CHG  3  10  -1  17  -1  24  -1
M  END
>  <UniqueID>  (85) 
79

>  <SMILES>  (85) 
COc1ccc(S(=O)(=O)[N-]c2cc(S(=O)(=O)[N-]c3ccc(C(=O)[O-])cc3)c(O)cc2C)cc1OC

>  <Energy>  (85) 
64.26038321729285

>  <Genealogy>  (85) 
COc1ccc(S(=O)(=O)[N-]c2cc(S(=O)(=O)[N-]c3ccc(C(=O)[O-])cc3)c(O)cc2C)cc1OC (protonated)
COc1ccc(S(=O)(=O)[N-]c2cc(S(=O)(=O)[N-]c3ccc(C(=O)[O-])cc3)c(O)cc2C)cc1OC (3D coordinates assigned)
COc1ccc(S(=O)(=O)[N-]c2cc(S(=O)(=O)[N-]c3ccc(C(=O)[O-])cc3)c(O)cc2C)cc1OC (optimized conformer: 64.26038321729285 kcal/mol)

>  <smiles>  (85) 
COc1ccc(S(=O)(=O)Nc2cc(S(=O)(=O)Nc3ccc(C(=O)O)cc3)c(O)cc2C)cc1OC

>  <score_type>  (85) 
oracle

>  <origin>  (85) 
adg

>  <m_score__min__energy>  (85) 
-12.960000000000001

>  <m_primary>  (85) 
energy

$$$$
85:0
     RDKit          3D

 56 59  0  0  0  0  0  0  0  0999 V2000
   56.8580   34.1480   45.4140 N   0  0  0  0  0  0  0  0  0  0  0  0
   57.8050   32.7260   45.1380 S   0  0  0  0  0  0  0  0  0  0  0  0
   58.0670   32.6090   43.6620 O   0  0  0  0  0  0  0  0  0  0  0  0
   57.0350   31.5250   45.6120 O   0  0  0  0  0  0  0  0  0  0  0  0
   59.3440   32.8360   46.0110 C   0  0  0  0  0  0  0  0  0  0  0  0
   59.9410   34.0950   46.1740 C   0  0  0  0  0  0  0  0  0  0  0  0
   61.1840   34.2170   46.7970 C   0  0  0  0  0  0  0  0  0  0  0  0
   61.8480   33.0820   47.2620 C   0  0  0  0  0  0  0  0  0  0  0  0
   61.2640   31.8230   47.1200 C   0  0  0  0  0  0  0  0  0  0  0  0
   60.0050   31.6860   46.5110 C   0  0  0  0  0  0  0  0  0  0  0  0
   59.4130   30.3370   46.4160 C   0  0  0  0  0  0  0  0  0  0  0  0
   59.2130   29.7370   45.1670 C   0  0  0  0  0  0  0  0  0  0  0  0
   58.6620   28.4550   45.0800 C   0  0  0  0  0  0  0  0  0  0  0  0
   58.2870   27.7560   46.2410 C   0  0  0  0  0  0  0  0  0  0  0  0
   57.7220   26.3910   46.1220 C   0  0  0  0  0  0  0  0  0  0  0  0
   58.4460   25.4720   45.6510 O   0  0  0  0  0  0  0  0  0  0  0  0
   56.3740   26.1000   46.5390 N   0  0  0  0  0  0  0  0  0  0  0  0
   55.7490   24.8170   46.3670 C   0  0  0  0  0  0  0  0  0  0  0  0
   55.0110   24.5100   45.2100 C   0  0  0  0  0  0  0  0  0  0  0  0
   54.3910   23.2640   45.0760 C   0  0  0  0  0  0  0  0  0  0  0  0
   54.4780   22.3160   46.1090 C   0  0  0  0  0  0  0  0  0  0  0  0
   53.8870   21.0140   45.9910 N   0  0  0  0  0  0  0  0  0  0  0  0
   54.3060   19.8400   46.6940 C   0  0  0  0  0  0  0  0  0  0  0  0
   53.5780   19.3270   47.5850 O   0  0  0  0  0  0  0  0  0  0  0  0
   55.6160   19.2030   46.3490 C   0  0  0  0  0  0  0  0  0  0  0  0
   56.3260   20.0400   45.3180 C   0  0  0  0  0  0  0  0  0  0  0  0
   55.9450   19.9730   43.9670 C   0  0  0  0  0  0  0  0  0  0  0  0
   56.6490   20.7000   43.0010 C   0  0  0  0  0  0  0  0  0  0  0  0
   57.7420   21.4880   43.3740 C   0  0  0  0  0  0  0  0  0  0  0  0
   58.1350   21.5520   44.7140 C   0  0  0  0  0  0  0  0  0  0  0  0
   59.6390   22.6160   45.2190 Br  0  0  0  0  0  0  0  0  0  0  0  0
   57.4300   20.8270   45.6840 C   0  0  0  0  0  0  0  0  0  0  0  0
   55.2160   22.6190   47.2600 C   0  0  0  0  0  0  0  0  0  0  0  0
   55.8310   23.8680   47.3970 C   0  0  0  0  0  0  0  0  0  0  0  0
   58.4850   28.3640   47.4940 C   0  0  0  0  0  0  0  0  0  0  0  0
   59.0340   29.6480   47.5780 C   0  0  0  0  0  0  0  0  0  0  0  0
   56.2750   33.9670   46.2640 H   0  0  0  0  0  0  0  0  0  0  0  0
   59.4247   34.9944   45.8074 H   0  0  0  0  0  0  0  0  0  0  0  0
   61.6407   35.2099   46.9215 H   0  0  0  0  0  0  0  0  0  0  0  0
   62.8333   33.1797   47.7413 H   0  0  0  0  0  0  0  0  0  0  0  0
   61.7928   30.9312   47.4874 H   0  0  0  0  0  0  0  0  0  0  0  0
   59.4907   30.2768   44.2497 H   0  0  0  0  0  0  0  0  0  0  0  0
   58.5205   27.9887   44.0938 H   0  0  0  0  0  0  0  0  0  0  0  0
   55.8200   26.8330   47.0340 H   0  0  0  0  0  0  0  0  0  0  0  0
   54.9210   25.2547   44.4055 H   0  0  0  0  0  0  0  0  0  0  0  0
   53.8332   23.0252   44.1585 H   0  0  0  0  0  0  0  0  0  0  0  0
   56.2377   19.1304   47.2535 H   0  0  0  0  0  0  0  0  0  0  0  0
   55.4382   18.1959   45.9440 H   0  0  0  0  0  0  0  0  0  0  0  0
   55.0910   19.3473   43.6682 H   0  0  0  0  0  0  0  0  0  0  0  0
   56.3419   20.6515   41.9458 H   0  0  0  0  0  0  0  0  0  0  0  0
   58.2934   22.0584   42.6120 H   0  0  0  0  0  0  0  0  0  0  0  0
   57.7429   20.8746   46.7375 H   0  0  0  0  0  0  0  0  0  0  0  0
   55.3126   21.8709   48.0606 H   0  0  0  0  0  0  0  0  0  0  0  0
   56.3824   24.1076   48.3182 H   0  0  0  0  0  0  0  0  0  0  0  0
   58.2066   27.8269   48.4127 H   0  0  0  0  0  0  0  0  0  0  0  0
   59.1695   30.1207   48.5619 H   0  0  0  0  0  0  0  0  0  0  0  0
  1  2  1  0
  2  3  2  0
  2  4  2  0
  2  5  1  0
  5  6  2  0
  6  7  1  0
  7  8  2  0
  8  9  1  0
  9 10  2  0
 10 11  1  0
 11 12  2  0
 12 13  1  0
 13 14  2  0
 14 15  1  0
 15 16  2  0
 15 17  1  0
 17 18  1  0
 18 19  2  0
 19 20  1  0
 20 21  2  0
 21 22  1  0
 22 23  1  0
 23 24  2  0
 23 25  1  0
 25 26  1  0
 26 27  2  0
 27 28  1  0
 28 29  2  0
 29 30  1  0
 30 31  1  0
 30 32  2  0
 21 33  1  0
 33 34  2  0
 14 35  1  0
 35 36  2  0
 10  5  1  0
 36 11  1  0
 34 18  1  0
 32 26  1  0
  1 37  1  0
  6 38  1  0
  7 39  1  0
  8 40  1  0
  9 41  1  0
 12 42  1  0
 13 43  1  0
 17 44  1  0
 19 45  1  0
 20 46  1  0
 25 47  1  0
 25 48  1  0
 27 49  1  0
 28 50  1  0
 29 51  1  0
 32 52  1  0
 33 53  1  0
 34 54  1  0
 35 55  1  0
 36 56  1  0
M  CHG  2   1  -1  22  -1
M  END
>  <UniqueID>  (86) 
80

>  <SMILES>  (86) 
[NH-]S(=O)(=O)c1ccccc1-c1ccc(C(=O)Nc2ccc([N-]C(=O)Cc3cccc(Br)c3)cc2)cc1

>  <Energy>  (86) 
77.69565701122198

>  <Genealogy>  (86) 
[NH-]S(=O)(=O)c1ccccc1-c1ccc(C(=O)Nc2ccc([N-]C(=O)Cc3cccc(Br)c3)cc2)cc1 (protonated)
[NH-]S(=O)(=O)c1ccccc1-c1ccc(C(=O)Nc2ccc([N-]C(=O)Cc3cccc(Br)c3)cc2)cc1 (3D coordinates assigned)
[NH-]S(=O)(=O)c1ccccc1-c1ccc(C(=O)Nc2ccc([N-]C(=O)Cc3cccc(Br)c3)cc2)cc1 (optimized conformer: 77.69565701122198 kcal/mol)

>  <smiles>  (86) 
NS(=O)(=O)c1ccccc1-c1ccc(C(=O)Nc2ccc(NC(=O)Cc3cccc(Br)c3)cc2)cc1

>  <score_type>  (86) 
oracle

>  <origin>  (86) 
adg

>  <m_score__min__energy>  (86) 
-12.300000000000001

>  <m_primary>  (86) 
energy

$$$$
86:0
     RDKit          3D

 35 37  0  0  0  0  0  0  0  0999 V2000
   56.5950   30.6990   44.7960 O   0  0  0  0  0  0  0  0  0  0  0  0
   57.7600   30.8530   45.2530 C   0  0  0  0  0  0  0  0  0  0  0  0
   58.5500   29.7050   45.6120 N   0  0  0  0  0  0  0  0  0  0  0  0
   58.2430   28.3610   45.2030 C   0  0  0  0  0  0  0  0  0  0  0  0
   58.3980   27.9460   43.8670 C   0  0  0  0  0  0  0  0  0  0  0  0
   58.1160   26.6260   43.5010 C   0  0  0  0  0  0  0  0  0  0  0  0
   57.6920   25.7070   44.4640 C   0  0  0  0  0  0  0  0  0  0  0  0
   57.5560   26.1040   45.7970 C   0  0  0  0  0  0  0  0  0  0  0  0
   57.8380   27.4240   46.1660 C   0  0  0  0  0  0  0  0  0  0  0  0
   58.2950   32.2160   45.4540 C   0  0  0  0  0  0  0  0  0  0  0  0
   57.6890   33.3310   44.8640 C   0  0  0  0  0  0  0  0  0  0  0  0
   58.2380   34.5920   45.0700 C   0  0  0  0  0  0  0  0  0  0  0  0
   59.3800   34.7230   45.8610 C   0  0  0  0  0  0  0  0  0  0  0  0
   59.8930   35.8640   46.0210 O   0  0  0  0  0  0  0  0  0  0  0  0
   59.9380   33.6090   46.4340 N   0  0  0  0  0  0  0  0  0  0  0  0
   61.1080   33.6960   47.2690 C   0  0  0  0  0  0  0  0  0  0  0  0
   62.3830   33.4150   46.7430 C   0  0  0  0  0  0  0  0  0  0  0  0
   63.5200   33.5250   47.5510 C   0  0  0  0  0  0  0  0  0  0  0  0
   63.3960   33.9240   48.8850 C   0  0  0  0  0  0  0  0  0  0  0  0
   62.1360   34.2170   49.4120 C   0  0  0  0  0  0  0  0  0  0  0  0
   60.9950   34.1090   48.6090 C   0  0  0  0  0  0  0  0  0  0  0  0
   59.7790   34.3880   49.1430 F   0  0  0  0  0  0  0  0  0  0  0  0
   59.4040   32.4030   46.2200 N   0  0  0  0  0  0  0  0  0  0  0  0
   59.3410   29.8390   46.2810 H   0  0  0  0  0  0  0  0  0  0  0  0
   58.7425   28.6631   43.1074 H   0  0  0  0  0  0  0  0  0  0  0  0
   58.2282   26.3108   42.4531 H   0  0  0  0  0  0  0  0  0  0  0  0
   57.4652   24.6707   44.1730 H   0  0  0  0  0  0  0  0  0  0  0  0
   57.2273   25.3789   46.5561 H   0  0  0  0  0  0  0  0  0  0  0  0
   57.7415   27.7293   47.2184 H   0  0  0  0  0  0  0  0  0  0  0  0
   56.7882   33.2113   44.2441 H   0  0  0  0  0  0  0  0  0  0  0  0
   57.7756   35.4793   44.6129 H   0  0  0  0  0  0  0  0  0  0  0  0
   62.4860   33.1075   45.6919 H   0  0  0  0  0  0  0  0  0  0  0  0
   64.5129   33.2972   47.1359 H   0  0  0  0  0  0  0  0  0  0  0  0
   64.2906   34.0072   49.5197 H   0  0  0  0  0  0  0  0  0  0  0  0
   62.0404   34.5335   50.4611 H   0  0  0  0  0  0  0  0  0  0  0  0
  1  2  2  0
  2  3  1  0
  3  4  1  0
  4  5  2  0
  5  6  1  0
  6  7  2  0
  7  8  1  0
  8  9  2  0
  2 10  1  0
 10 11  1  0
 11 12  2  0
 12 13  1  0
 13 14  2  0
 13 15  1  0
 15 16  1  0
 16 17  2  0
 17 18  1  0
 18 19  2  0
 19 20  1  0
 20 21  2  0
 21 22  1  0
 15 23  1  0
  9  4  1  0
 23 10  2  0
 21 16  1  0
  3 24  1  0
  5 25  1  0
  6 26  1  0
  7 27  1  0
  8 28  1  0
  9 29  1  0
 11 30  1  0
 12 31  1  0
 17 32  1  0
 18 33  1  0
 19 34  1  0
 20 35  1  0
M  END
>  <UniqueID>  (87) 
81

>  <SMILES>  (87) 
O=C(Nc1ccccc1)c1ccc(=O)n(-c2ccccc2F)n1

>  <Energy>  (87) 
49.89897675847234

>  <Genealogy>  (87) 
O=C(Nc1ccccc1)c1ccc(=O)n(-c2ccccc2F)n1 (3D coordinates assigned)
O=C(Nc1ccccc1)c1ccc(=O)n(-c2ccccc2F)n1 (optimized conformer: 49.89897675847234 kcal/mol)

>  <smiles>  (87) 
O=C(Nc1ccccc1)c1ccc(=O)n(-c2ccccc2F)n1

>  <score_type>  (87) 
oracle

>  <origin>  (87) 
adg

>  <m_score__min__energy>  (87) 
-7.9500000000000002

>  <m_primary>  (87) 
energy

$$$$
87:0
     RDKit          3D

 35 36  0  0  0  0  0  0  0  0999 V2000
   58.9575   34.7954   48.4043 H   0  0  0  0  0  0  0  0  0  0  0  0
   59.5620   34.5350   47.5230 C   0  0  0  0  0  0  0  0  0  0  0  0
   58.9690   34.5630   46.3230 C   0  0  0  0  0  0  0  0  0  0  0  0
   59.3831   35.2064   45.5328 H   0  0  0  0  0  0  0  0  0  0  0  0
   57.7510   33.7350   46.0330 C   0  0  0  0  0  0  0  0  0  0  0  0
   56.8531   34.3123   46.2986 H   0  0  0  0  0  0  0  0  0  0  0  0
   57.8081   32.8113   46.6275 H   0  0  0  0  0  0  0  0  0  0  0  0
   57.6800   33.3540   44.5490 C   0  0  0  0  0  0  0  0  0  0  0  0
   58.1525   34.1459   43.9492 H   0  0  0  0  0  0  0  0  0  0  0  0
   56.6244   33.2388   44.2621 H   0  0  0  0  0  0  0  0  0  0  0  0
   58.3590   32.1190   44.3150 O   0  0  0  0  0  0  0  0  0  0  0  0
   57.9410   30.8570   44.7690 C   0  0  0  0  0  0  0  0  0  0  0  0
   56.7650   30.3220   44.2340 C   0  0  0  0  0  0  0  0  0  0  0  0
   56.2021   30.8912   43.4796 H   0  0  0  0  0  0  0  0  0  0  0  0
   56.2970   29.0710   44.6480 C   0  0  0  0  0  0  0  0  0  0  0  0
   55.3708   28.6636   44.2164 H   0  0  0  0  0  0  0  0  0  0  0  0
   57.0020   28.3320   45.6110 C   0  0  0  0  0  0  0  0  0  0  0  0
   56.5060   27.0080   46.0470 C   0  0  0  0  0  0  0  0  0  0  0  0
   57.3050   26.1340   46.4770 O   0  0  0  0  0  0  0  0  0  0  0  0
   55.1490   26.7100   45.9900 O   0  0  0  0  0  0  0  0  0  0  0  0
   58.1810   28.8690   46.1530 C   0  0  0  0  0  0  0  0  0  0  0  0
   58.7422   28.3009   46.9095 H   0  0  0  0  0  0  0  0  0  0  0  0
   58.6470   30.1210   45.7380 C   0  0  0  0  0  0  0  0  0  0  0  0
   59.5705   30.5322   46.1717 H   0  0  0  0  0  0  0  0  0  0  0  0
   60.9850   34.1740   47.7360 C   0  0  0  0  0  0  0  0  0  0  0  0
   61.7680   33.8350   46.6170 C   0  0  0  0  0  0  0  0  0  0  0  0
   61.3162   33.8352   45.6141 H   0  0  0  0  0  0  0  0  0  0  0  0
   63.1160   33.4980   46.7710 C   0  0  0  0  0  0  0  0  0  0  0  0
   63.7174   33.2265   45.8909 H   0  0  0  0  0  0  0  0  0  0  0  0
   63.7010   33.5050   48.0380 C   0  0  0  0  0  0  0  0  0  0  0  0
   64.7607   33.2350   48.1565 H   0  0  0  0  0  0  0  0  0  0  0  0
   62.9400   33.8550   49.1550 C   0  0  0  0  0  0  0  0  0  0  0  0
   63.4028   33.8642   50.1529 H   0  0  0  0  0  0  0  0  0  0  0  0
   61.5910   34.1940   49.0090 C   0  0  0  0  0  0  0  0  0  0  0  0
   60.9996   34.4778   49.8920 H   0  0  0  0  0  0  0  0  0  0  0  0
  1  2  1  0
  2  3  2  0
  3  4  1  0
  3  5  1  0
  5  6  1  0
  5  7  1  0
  5  8  1  0
  8  9  1  0
  8 10  1  0
  8 11  1  0
 11 12  1  0
 12 13  2  0
 13 14  1  0
 13 15  1  0
 15 16  1  0
 15 17  2  0
 17 18  1  0
 18 19  2  0
 18 20  1  0
 17 21  1  0
 21 22  1  0
 21 23  2  0
 23 24  1  0
  2 25  1  0
 25 26  2  0
 26 27  1  0
 26 28  1  0
 28 29  1  0
 28 30  2  0
 30 31  1  0
 30 32  1  0
 32 33  1  0
 32 34  2  0
 34 35  1  0
 23 12  1  0
 34 25  1  0
M  CHG  1  20  -1
M  END
>  <UniqueID>  (88) 
82

>  <SMILES>  (88) 
O=C([O-])c1ccc(OCC/C=C/c2ccccc2)cc1

>  <Energy>  (88) 
34.94506382657968

>  <Genealogy>  (88) 
O=C([O-])c1ccc(OCCC=Cc2ccccc2)cc1 (protonated)
O=C([O-])c1ccc(OCC/C=C/c2ccccc2)cc1 (cis-trans isomerization)
O=C([O-])c1ccc(OCC/C=C/c2ccccc2)cc1 (3D coordinates assigned)
O=C([O-])c1ccc(OCC/C=C/c2ccccc2)cc1 (optimized conformer: 34.94506382657968 kcal/mol)

>  <smiles>  (88) 
O=C(O)c1ccc(OCCC=Cc2ccccc2)cc1

>  <score_type>  (88) 
oracle

>  <origin>  (88) 
adg

>  <m_score__min__energy>  (88) 
-9.5199999999999996

>  <m_primary>  (88) 
energy

$$$$
88:0
     RDKit          3D

 42 44  0  0  0  0  0  0  0  0999 V2000
   54.7730   29.5580   43.7580 O   0  0  0  0  0  0  0  0  0  0  0  0
   55.8190   29.3410   44.4260 C   0  0  0  0  0  0  0  0  0  0  0  0
   55.9050   28.1960   45.2830 N   0  0  0  0  0  0  0  0  0  0  0  0
   56.9780   27.2120   45.2060 C   0  0  0  0  0  0  0  0  0  0  0  0
   58.1750   27.6800   45.9880 C   0  0  0  0  0  0  0  0  0  0  0  0
   58.1960   27.5860   47.3890 C   0  0  0  0  0  0  0  0  0  0  0  0
   59.3240   28.0000   48.1060 C   0  0  0  0  0  0  0  0  0  0  0  0
   60.4370   28.5070   47.4300 C   0  0  0  0  0  0  0  0  0  0  0  0
   60.4240   28.6010   46.0350 C   0  0  0  0  0  0  0  0  0  0  0  0
   59.2990   28.1870   45.3150 C   0  0  0  0  0  0  0  0  0  0  0  0
   56.9520   30.2660   44.3270 C   0  0  0  0  0  0  0  0  0  0  0  0
   57.4980   30.4710   43.2100 O   0  0  0  0  0  0  0  0  0  0  0  0
   57.3860   30.9720   45.4960 N   0  0  0  0  0  0  0  0  0  0  0  0
   57.9440   32.2930   45.5640 C   0  0  0  0  0  0  0  0  0  0  0  0
   57.4500   33.3400   44.7640 C   0  0  0  0  0  0  0  0  0  0  0  0
   57.9870   34.6260   44.8730 C   0  0  0  0  0  0  0  0  0  0  0  0
   59.0230   34.8780   45.7750 C   0  0  0  0  0  0  0  0  0  0  0  0
   59.5390   33.8400   46.5540 C   0  0  0  0  0  0  0  0  0  0  0  0
   59.0280   32.5420   46.4360 C   0  0  0  0  0  0  0  0  0  0  0  0
   59.5830   31.5340   47.2380 O   0  0  0  0  0  0  0  0  0  0  0  0
   60.8430   31.5930   47.8510 C   0  0  0  0  0  0  0  0  0  0  0  0
   60.9300   31.3890   49.2330 C   0  0  0  0  0  0  0  0  0  0  0  0
   62.1710   31.4340   49.8780 C   0  0  0  0  0  0  0  0  0  0  0  0
   63.3320   31.6960   49.1440 C   0  0  0  0  0  0  0  0  0  0  0  0
   63.2520   31.9220   47.7680 C   0  0  0  0  0  0  0  0  0  0  0  0
   62.0130   31.8780   47.1210 C   0  0  0  0  0  0  0  0  0  0  0  0
   56.6244   26.2568   45.6214 H   0  0  0  0  0  0  0  0  0  0  0  0
   57.2681   27.0817   44.1530 H   0  0  0  0  0  0  0  0  0  0  0  0
   57.3226   27.1855   47.9246 H   0  0  0  0  0  0  0  0  0  0  0  0
   59.3347   27.9263   49.2035 H   0  0  0  0  0  0  0  0  0  0  0  0
   61.3230   28.8320   47.9951 H   0  0  0  0  0  0  0  0  0  0  0  0
   61.2999   29.0011   45.5032 H   0  0  0  0  0  0  0  0  0  0  0  0
   59.2942   28.2586   44.2173 H   0  0  0  0  0  0  0  0  0  0  0  0
   56.6370   33.1454   44.0491 H   0  0  0  0  0  0  0  0  0  0  0  0
   57.5930   35.4406   44.2475 H   0  0  0  0  0  0  0  0  0  0  0  0
   59.4327   35.8943   45.8719 H   0  0  0  0  0  0  0  0  0  0  0  0
   60.3528   34.0438   47.2654 H   0  0  0  0  0  0  0  0  0  0  0  0
   60.0178   31.1922   49.8153 H   0  0  0  0  0  0  0  0  0  0  0  0
   62.2333   31.2632   50.9629 H   0  0  0  0  0  0  0  0  0  0  0  0
   64.3082   31.7241   49.6502 H   0  0  0  0  0  0  0  0  0  0  0  0
   64.1649   32.1349   47.1924 H   0  0  0  0  0  0  0  0  0  0  0  0
   61.9522   32.0665   46.0390 H   0  0  0  0  0  0  0  0  0  0  0  0
  1  2  2  0
  2  3  1  0
  3  4  1  0
  4  5  1  0
  5  6  2  0
  6  7  1  0
  7  8  2  0
  8  9  1  0
  9 10  2  0
  2 11  1  0
 11 12  2  0
 11 13  1  0
 13 14  1  0
 14 15  2  0
 15 16  1  0
 16 17  2  0
 17 18  1  0
 18 19  2  0
 19 20  1  0
 20 21  1  0
 21 22  2  0
 22 23  1  0
 23 24  2  0
 24 25  1  0
 25 26  2  0
 10  5  1  0
 19 14  1  0
 26 21  1  0
  4 27  1  0
  4 28  1  0
  6 29  1  0
  7 30  1  0
  8 31  1  0
  9 32  1  0
 10 33  1  0
 15 34  1  0
 16 35  1  0
 17 36  1  0
 18 37  1  0
 22 38  1  0
 23 39  1  0
 24 40  1  0
 25 41  1  0
 26 42  1  0
M  CHG  2   3  -1  13  -1
M  END
>  <UniqueID>  (89) 
83

>  <SMILES>  (89) 
O=C([N-]Cc1ccccc1)C(=O)[N-]c1ccccc1Oc1ccccc1

>  <Energy>  (89) 
51.74122061434518

>  <Genealogy>  (89) 
O=C([N-]Cc1ccccc1)C(=O)[N-]c1ccccc1Oc1ccccc1 (protonated)
O=C([N-]Cc1ccccc1)C(=O)[N-]c1ccccc1Oc1ccccc1 (3D coordinates assigned)
O=C([N-]Cc1ccccc1)C(=O)[N-]c1ccccc1Oc1ccccc1 (optimized conformer: 51.74122061434518 kcal/mol)

>  <smiles>  (89) 
O=C(NCc1ccccc1)C(=O)Nc1ccccc1Oc1ccccc1

>  <score_type>  (89) 
oracle

>  <origin>  (89) 
adg

>  <m_score__min__energy>  (89) 
-11.880000000000001

>  <m_primary>  (89) 
energy

$$$$
89:0
     RDKit          3D

 50 53  0  0  0  0  0  0  0  0999 V2000
   57.8191   33.7305   43.6118 H   0  0  0  0  0  0  0  0  0  0  0  0
   58.3700   33.8450   44.5570 C   0  0  0  0  0  0  0  0  0  0  0  0
   58.4860   32.7620   45.4450 C   0  0  0  0  0  0  0  0  0  0  0  0
   57.8850   31.4370   45.1430 C   0  0  0  0  0  0  0  0  0  0  0  0
   57.0240   31.2950   44.0410 C   0  0  0  0  0  0  0  0  0  0  0  0
   56.8110   32.1629   43.3996 H   0  0  0  0  0  0  0  0  0  0  0  0
   56.4370   30.0610   43.7540 C   0  0  0  0  0  0  0  0  0  0  0  0
   55.7627   29.9631   42.8905 H   0  0  0  0  0  0  0  0  0  0  0  0
   56.7020   28.9510   44.5580 C   0  0  0  0  0  0  0  0  0  0  0  0
   56.2315   27.9832   44.3302 H   0  0  0  0  0  0  0  0  0  0  0  0
   57.5690   29.0680   45.6580 C   0  0  0  0  0  0  0  0  0  0  0  0
   57.8410   27.9620   46.5320 N   0  0  0  0  0  0  0  0  0  0  0  0
   57.9400   26.5820   46.1590 C   0  0  0  0  0  0  0  0  0  0  0  0
   58.9130   25.8820   46.5500 O   0  0  0  0  0  0  0  0  0  0  0  0
   56.9110   26.0060   45.3420 N   0  0  0  0  0  0  0  0  0  0  0  0
   56.2670   26.6650   44.8480 H   0  0  0  0  0  0  0  0  0  0  0  0
   56.7890   24.6010   45.0630 C   0  0  0  0  0  0  0  0  0  0  0  0
   56.6380   23.6580   46.0950 C   0  0  0  0  0  0  0  0  0  0  0  0
   56.6307   23.9906   47.1435 H   0  0  0  0  0  0  0  0  0  0  0  0
   56.4970   22.2990   45.7950 C   0  0  0  0  0  0  0  0  0  0  0  0
   56.3809   21.5680   46.6088 H   0  0  0  0  0  0  0  0  0  0  0  0
   56.5030   21.8640   44.4620 C   0  0  0  0  0  0  0  0  0  0  0  0
   56.3100   20.4120   44.1400 C   0  0  0  0  0  0  0  0  0  0  0  0
   56.2335   19.8363   45.0742 H   0  0  0  0  0  0  0  0  0  0  0  0
   55.3872   20.2857   43.5548 H   0  0  0  0  0  0  0  0  0  0  0  0
   57.1678   20.0490   43.5548 H   0  0  0  0  0  0  0  0  0  0  0  0
   56.6110   22.8080   43.4310 C   0  0  0  0  0  0  0  0  0  0  0  0
   56.5839   22.4784   42.3819 H   0  0  0  0  0  0  0  0  0  0  0  0
   56.7530   24.1660   43.7300 C   0  0  0  0  0  0  0  0  0  0  0  0
   56.8371   24.8989   42.9140 H   0  0  0  0  0  0  0  0  0  0  0  0
   58.1360   30.3140   45.9570 C   0  0  0  0  0  0  0  0  0  0  0  0
   58.7856   30.4171   46.8387 H   0  0  0  0  0  0  0  0  0  0  0  0
   59.1520   32.9400   46.6200 N   0  0  0  0  0  0  0  0  0  0  0  0
   59.7210   34.1220   46.9790 C   0  0  0  0  0  0  0  0  0  0  0  0
   60.3500   34.1860   48.1200 N   0  0  0  0  0  0  0  0  0  0  0  0
   61.6890   33.7490   48.4080 C   0  0  0  0  0  0  0  0  0  0  0  0
   62.0850   33.4380   49.7210 C   0  0  0  0  0  0  0  0  0  0  0  0
   61.3777   33.5704   50.5530 H   0  0  0  0  0  0  0  0  0  0  0  0
   63.3750   32.9610   49.9720 C   0  0  0  0  0  0  0  0  0  0  0  0
   63.6875   32.7376   51.0027 H   0  0  0  0  0  0  0  0  0  0  0  0
   64.2670   32.7680   48.9150 C   0  0  0  0  0  0  0  0  0  0  0  0
   65.2841   32.3994   49.1143 H   0  0  0  0  0  0  0  0  0  0  0  0
   63.8680   33.0430   47.6040 C   0  0  0  0  0  0  0  0  0  0  0  0
   64.5694   32.8841   46.7716 H   0  0  0  0  0  0  0  0  0  0  0  0
   62.5780   33.5200   47.3490 C   0  0  0  0  0  0  0  0  0  0  0  0
   62.1980   33.7730   46.0710 F   0  0  0  0  0  0  0  0  0  0  0  0
   59.6440   35.2130   46.0890 C   0  0  0  0  0  0  0  0  0  0  0  0
   60.1202   36.1714   46.3434 H   0  0  0  0  0  0  0  0  0  0  0  0
   58.9590   35.0660   44.8840 C   0  0  0  0  0  0  0  0  0  0  0  0
   58.8828   35.9154   44.1892 H   0  0  0  0  0  0  0  0  0  0  0  0
  1  2  1  0
  2  3  2  0
  3  4  1  0
  4  5  2  0
  5  6  1  0
  5  7  1  0
  7  8  1  0
  7  9  2  0
  9 10  1  0
  9 11  1  0
 11 12  1  0
 12 13  1  0
 13 14  2  0
 13 15  1  0
 15 16  1  0
 15 17  1  0
 17 18  2  0
 18 19  1  0
 18 20  1  0
 20 21  1  0
 20 22  2  0
 22 23  1  0
 23 24  1  0
 23 25  1  0
 23 26  1  0
 22 27  1  0
 27 28  1  0
 27 29  2  0
 29 30  1  0
 11 31  2  0
 31 32  1  0
  3 33  1  0
 33 34  1  0
 34 35  2  0
 35 36  1  0
 36 37  2  0
 37 38  1  0
 37 39  1  0
 39 40  1  0
 39 41  2  0
 41 42  1  0
 41 43  1  0
 43 44  1  0
 43 45  2  0
 45 46  1  0
 34 47  1  0
 47 48  1  0
 47 49  2  0
 49 50  1  0
 49  2  1  0
 31  4  1  0
 45 36  1  0
 29 17  1  0
M  CHG  2  12  -1  33  -1
M  END
>  <UniqueID>  (90) 
84

>  <SMILES>  (90) 
Cc1ccc(NC(=O)[N-]c2cccc(-c3ccc/c(=N\c4ccccc4F)[n-]3)c2)cc1

>  <Energy>  (90) 
75.16388419183541

>  <Genealogy>  (90) 
Cc1ccc(NC(=O)[N-]c2cccc(-c3cccc(=Nc4ccccc4F)[n-]3)c2)cc1 (protonated)
Cc1ccc(NC(=O)[N-]c2cccc(-c3ccc/c(=N\c4ccccc4F)[n-]3)c2)cc1 (cis-trans isomerization)
Cc1ccc(NC(=O)[N-]c2cccc(-c3ccc/c(=N\c4ccccc4F)[n-]3)c2)cc1 (3D coordinates assigned)
Cc1ccc(NC(=O)[N-]c2cccc(-c3ccc/c(=N\c4ccccc4F)[n-]3)c2)cc1 (optimized conformer: 75.16388419183541 kcal/mol)

>  <smiles>  (90) 
Cc1ccc(NC(=O)Nc2cccc(-c3cccc(=Nc4ccccc4F)[nH]3)c2)cc1

>  <score_type>  (90) 
oracle

>  <origin>  (90) 
adg

>  <m_score__min__energy>  (90) 
-12.52

>  <m_primary>  (90) 
energy

$$$$
90:0
     RDKit          3D

 40 43  0  0  0  0  0  0  0  0999 V2000
   59.0876   23.7236   45.2433 H   0  0  0  0  0  0  0  0  0  0  0  0
   58.0650   23.7150   44.8380 C   0  0  0  0  0  0  0  0  0  0  0  0
   57.5820   22.6020   44.2290 N   0  0  0  0  0  0  0  0  0  0  0  0
   56.3240   22.5680   43.7190 C   0  0  0  0  0  0  0  0  0  0  0  0
   55.8970   21.5230   43.1620 O   0  0  0  0  0  0  0  0  0  0  0  0
   55.5120   23.7010   43.8180 C   0  0  0  0  0  0  0  0  0  0  0  0
   54.4911   23.6884   43.4086 H   0  0  0  0  0  0  0  0  0  0  0  0
   55.9930   24.8190   44.4240 N   0  0  0  0  0  0  0  0  0  0  0  0
   55.3680   25.6530   44.4970 H   0  0  0  0  0  0  0  0  0  0  0  0
   57.2530   24.8550   44.9480 C   0  0  0  0  0  0  0  0  0  0  0  0
   57.7610   26.0920   45.5910 C   0  0  0  0  0  0  0  0  0  0  0  0
   59.1330   26.2120   45.8670 C   0  0  0  0  0  0  0  0  0  0  0  0
   59.8167   25.3930   45.5991 H   0  0  0  0  0  0  0  0  0  0  0  0
   59.6370   27.3630   46.4790 C   0  0  0  0  0  0  0  0  0  0  0  0
   60.7132   27.4408   46.6929 H   0  0  0  0  0  0  0  0  0  0  0  0
   58.7800   28.4210   46.8230 C   0  0  0  0  0  0  0  0  0  0  0  0
   59.3150   29.6450   47.4720 C   0  0  0  0  0  0  0  0  0  0  0  0
   60.3860   29.5510   48.3900 C   0  0  0  0  0  0  0  0  0  0  0  0
   60.8182   28.5674   48.6262 H   0  0  0  0  0  0  0  0  0  0  0  0
   60.8990   30.6980   48.9990 C   0  0  0  0  0  0  0  0  0  0  0  0
   61.7309   30.6333   49.7157 H   0  0  0  0  0  0  0  0  0  0  0  0
   60.3300   31.9230   48.6750 C   0  0  0  0  0  0  0  0  0  0  0  0
   60.7360   33.4260   49.2350 S   0  0  0  0  0  0  0  0  0  0  0  0
   59.6230   34.3230   48.3910 N   0  0  0  0  0  0  0  0  0  0  0  0
   58.8930   33.4570   47.6350 C   0  0  0  0  0  0  0  0  0  0  0  0
   57.9530   33.9550   46.8780 N   0  0  0  0  0  0  0  0  0  0  0  0
   57.4380   33.6120   45.2560 S   0  0  0  0  0  0  0  0  0  0  0  0
   56.5300   34.7240   44.8140 O   0  0  0  0  0  0  0  0  0  0  0  0
   56.6550   32.3300   45.2160 O   0  0  0  0  0  0  0  0  0  0  0  0
   58.8300   33.5770   44.1380 C   0  0  0  0  0  0  0  0  0  0  0  0
   59.7649   33.5535   44.7171 H   0  0  0  0  0  0  0  0  0  0  0  0
   58.7687   32.6801   43.5041 H   0  0  0  0  0  0  0  0  0  0  0  0
   58.8139   34.4758   43.5041 H   0  0  0  0  0  0  0  0  0  0  0  0
   59.2750   32.0740   47.7780 C   0  0  0  0  0  0  0  0  0  0  0  0
   58.7580   30.9120   47.1750 C   0  0  0  0  0  0  0  0  0  0  0  0
   57.9173   30.9888   46.4698 H   0  0  0  0  0  0  0  0  0  0  0  0
   57.4080   28.3060   46.5380 C   0  0  0  0  0  0  0  0  0  0  0  0
   56.7264   29.1283   46.8011 H   0  0  0  0  0  0  0  0  0  0  0  0
   56.9010   27.1560   45.9230 C   0  0  0  0  0  0  0  0  0  0  0  0
   55.5440   27.0970   45.6210 O   0  0  0  0  0  0  0  0  0  0  0  0
  1  2  1  0
  2  3  1  0
  3  4  1  0
  4  5  2  0
  4  6  1  0
  6  7  1  0
  6  8  2  0
  8  9  1  0
  8 10  1  0
 10 11  1  0
 11 12  2  0
 12 13  1  0
 12 14  1  0
 14 15  1  0
 14 16  2  0
 16 17  1  0
 17 18  2  0
 18 19  1  0
 18 20  1  0
 20 21  1  0
 20 22  2  0
 22 23  1  0
 23 24  1  0
 24 25  1  0
 25 26  2  0
 26 27  1  0
 27 28  2  0
 27 29  2  0
 27 30  1  0
 30 31  1  0
 30 32  1  0
 30 33  1  0
 25 34  1  0
 34 35  2  0
 35 36  1  0
 16 37  1  0
 37 38  1  0
 37 39  2  0
 39 40  1  0
 10  2  2  0
 39 11  1  0
 35 17  1  0
 34 22  1  0
M  CHG  4   3  -1   8   1  24  -1  40  -1
M  END
>  <UniqueID>  (91) 
85

>  <SMILES>  (91) 
CS(=O)(=O)/N=c1/[n-]sc2ccc(-c3ccc(-c4c[n-]c(=O)c[nH+]4)c([O-])c3)cc12

>  <Energy>  (91) 
106.65338125863087

>  <Genealogy>  (91) 
CS(=O)(=O)N=c1[n-]sc2ccc(-c3ccc(-c4c[n-]c(=O)c[nH+]4)c([O-])c3)cc12 (protonated)
CS(=O)(=O)/N=c1/[n-]sc2ccc(-c3ccc(-c4c[n-]c(=O)c[nH+]4)c([O-])c3)cc12 (cis-trans isomerization)
CS(=O)(=O)/N=c1/[n-]sc2ccc(-c3ccc(-c4c[n-]c(=O)c[nH+]4)c([O-])c3)cc12 (3D coordinates assigned)
CS(=O)(=O)/N=c1/[n-]sc2ccc(-c3ccc(-c4c[n-]c(=O)c[nH+]4)c([O-])c3)cc12 (optimized conformer: 106.65338125863087 kcal/mol)

>  <smiles>  (91) 
CS(=O)(=O)N=c1[nH]sc2ccc(-c3ccc(-c4c[nH]c(=O)cn4)c(O)c3)cc12

>  <score_type>  (91) 
oracle

>  <origin>  (91) 
adg

>  <m_score__min__energy>  (91) 
-13.130000000000001

>  <m_primary>  (91) 
energy

$$$$
91:0
     RDKit          3D

 46 47  0  0  0  0  0  0  0  0999 V2000
   56.9410   34.6200   44.9140 C   0  0  0  0  0  0  0  0  0  0  0  0
   58.0650   33.9500   45.6550 C   0  0  0  0  0  0  0  0  0  0  0  0
   58.9230   34.7340   46.4440 C   0  0  0  0  0  0  0  0  0  0  0  0
   60.0020   34.1530   47.1130 C   0  0  0  0  0  0  0  0  0  0  0  0
   60.2410   32.7780   47.0050 C   0  0  0  0  0  0  0  0  0  0  0  0
   61.6220   32.0490   47.8290 S   0  0  0  0  0  0  0  0  0  0  0  0
   61.1780   31.5190   49.1650 O   0  0  0  0  0  0  0  0  0  0  0  0
   62.1270   30.8900   47.0160 O   0  0  0  0  0  0  0  0  0  0  0  0
   62.9130   33.2010   48.0630 N   0  0  0  0  0  0  0  0  0  0  0  0
   64.0210   32.5690   48.7900 C   0  0  0  0  0  0  0  0  0  0  0  0
   63.3790   33.6980   46.7620 C   0  0  0  0  0  0  0  0  0  0  0  0
   59.3800   31.9850   46.2370 C   0  0  0  0  0  0  0  0  0  0  0  0
   58.2780   32.5520   45.5830 C   0  0  0  0  0  0  0  0  0  0  0  0
   57.4150   31.6990   44.8180 N   0  0  0  0  0  0  0  0  0  0  0  0
   57.4120   31.7020   43.3820 C   0  0  0  0  0  0  0  0  0  0  0  0
   58.0850   32.5590   42.7500 O   0  0  0  0  0  0  0  0  0  0  0  0
   56.6370   30.7510   42.6430 N   0  0  0  0  0  0  0  0  0  0  0  0
   56.6060   29.3240   42.9320 C   0  0  0  0  0  0  0  0  0  0  0  0
   56.6360   29.1110   44.4180 C   0  0  0  0  0  0  0  0  0  0  0  0
   55.5780   29.3240   45.0700 O   0  0  0  0  0  0  0  0  0  0  0  0
   57.8690   28.6860   45.1370 C   0  0  0  0  0  0  0  0  0  0  0  0
   59.1350   28.9560   44.5800 C   0  0  0  0  0  0  0  0  0  0  0  0
   60.3020   28.5630   45.2420 C   0  0  0  0  0  0  0  0  0  0  0  0
   60.2230   27.8960   46.4660 C   0  0  0  0  0  0  0  0  0  0  0  0
   58.9770   27.6180   47.0300 C   0  0  0  0  0  0  0  0  0  0  0  0
   57.8060   28.0090   46.3730 C   0  0  0  0  0  0  0  0  0  0  0  0
   56.2280   35.0450   45.6358 H   0  0  0  0  0  0  0  0  0  0  0  0
   57.3463   35.4240   44.2821 H   0  0  0  0  0  0  0  0  0  0  0  0
   56.4265   33.8811   44.2821 H   0  0  0  0  0  0  0  0  0  0  0  0
   58.7432   35.8153   46.5356 H   0  0  0  0  0  0  0  0  0  0  0  0
   60.6668   34.7781   47.7272 H   0  0  0  0  0  0  0  0  0  0  0  0
   63.8516   32.6656   49.8726 H   0  0  0  0  0  0  0  0  0  0  0  0
   64.0758   31.5038   48.5210 H   0  0  0  0  0  0  0  0  0  0  0  0
   64.9657   33.0641   48.5210 H   0  0  0  0  0  0  0  0  0  0  0  0
   64.1238   34.4923   46.9183 H   0  0  0  0  0  0  0  0  0  0  0  0
   63.8363   32.8727   46.1966 H   0  0  0  0  0  0  0  0  0  0  0  0
   62.5260   34.1013   46.1966 H   0  0  0  0  0  0  0  0  0  0  0  0
   59.5706   30.9055   46.1460 H   0  0  0  0  0  0  0  0  0  0  0  0
   56.6450   31.2120   45.3270 H   0  0  0  0  0  0  0  0  0  0  0  0
   55.6857   28.8864   42.5178 H   0  0  0  0  0  0  0  0  0  0  0  0
   57.4816   28.8394   42.4754 H   0  0  0  0  0  0  0  0  0  0  0  0
   59.2056   29.4806   43.6158 H   0  0  0  0  0  0  0  0  0  0  0  0
   61.2846   28.7798   44.7975 H   0  0  0  0  0  0  0  0  0  0  0  0
   61.1427   27.5896   46.9858 H   0  0  0  0  0  0  0  0  0  0  0  0
   58.9159   27.0903   47.9932 H   0  0  0  0  0  0  0  0  0  0  0  0
   56.8276   27.7868   46.8238 H   0  0  0  0  0  0  0  0  0  0  0  0
  1  2  1  0
  2  3  2  0
  3  4  1  0
  4  5  2  0
  5  6  1  0
  6  7  2  0
  6  8  2  0
  6  9  1  0
  9 10  1  0
  9 11  1  0
  5 12  1  0
 12 13  2  0
 13 14  1  0
 14 15  1  0
 15 16  2  0
 15 17  1  0
 17 18  1  0
 18 19  1  0
 19 20  2  0
 19 21  1  0
 21 22  2  0
 22 23  1  0
 23 24  2  0
 24 25  1  0
 25 26  2  0
 13  2  1  0
 26 21  1  0
  1 27  1  0
  1 28  1  0
  1 29  1  0
  3 30  1  0
  4 31  1  0
 10 32  1  0
 10 33  1  0
 10 34  1  0
 11 35  1  0
 11 36  1  0
 11 37  1  0
 12 38  1  0
 14 39  1  0
 18 40  1  0
 18 41  1  0
 22 42  1  0
 23 43  1  0
 24 44  1  0
 25 45  1  0
 26 46  1  0
M  CHG  1  17  -1
M  END
>  <UniqueID>  (92) 
86

>  <SMILES>  (92) 
Cc1ccc(S(=O)(=O)N(C)C)cc1NC(=O)[N-]CC(=O)c1ccccc1

>  <Energy>  (92) 
47.94811185032422

>  <Genealogy>  (92) 
Cc1ccc(S(=O)(=O)N(C)C)cc1NC(=O)[N-]CC(=O)c1ccccc1 (protonated)
Cc1ccc(S(=O)(=O)N(C)C)cc1NC(=O)[N-]CC(=O)c1ccccc1 (3D coordinates assigned)
Cc1ccc(S(=O)(=O)N(C)C)cc1NC(=O)[N-]CC(=O)c1ccccc1 (optimized conformer: 47.94811185032422 kcal/mol)

>  <smiles>  (92) 
Cc1ccc(S(=O)(=O)N(C)C)cc1NC(=O)NCC(=O)c1ccccc1

>  <score_type>  (92) 
oracle

>  <origin>  (92) 
adg

>  <m_score__min__energy>  (92) 
-10.83

>  <m_primary>  (92) 
energy

$$$$
92:0
     RDKit          3D

 47 51  0  0  0  0  0  0  0  0999 V2000
   56.8439   29.4117   41.8678 H   0  0  0  0  0  0  0  0  0  0  0  0
   56.9700   29.6070   42.9430 C   0  0  0  0  0  0  0  0  0  0  0  0
   56.7480   30.8520   43.4360 N   0  0  0  0  0  0  0  0  0  0  0  0
   56.8880   31.1140   44.7620 C   0  0  0  0  0  0  0  0  0  0  0  0
   56.7500   32.3340   45.1910 N   0  0  0  0  0  0  0  0  0  0  0  0
   57.7590   33.1470   45.8180 C   0  0  0  0  0  0  0  0  0  0  0  0
   57.9660   33.1550   47.2140 C   0  0  0  0  0  0  0  0  0  0  0  0
   57.3392   32.5272   47.8643 H   0  0  0  0  0  0  0  0  0  0  0  0
   58.9650   33.9580   47.7740 C   0  0  0  0  0  0  0  0  0  0  0  0
   59.1361   33.9430   48.8605 H   0  0  0  0  0  0  0  0  0  0  0  0
   59.7460   34.7790   46.9570 C   0  0  0  0  0  0  0  0  0  0  0  0
   60.5342   35.4060   47.3993 H   0  0  0  0  0  0  0  0  0  0  0  0
   59.5250   34.8030   45.5770 C   0  0  0  0  0  0  0  0  0  0  0  0
   60.1337   35.4560   44.9344 H   0  0  0  0  0  0  0  0  0  0  0  0
   58.5300   33.9970   45.0120 C   0  0  0  0  0  0  0  0  0  0  0  0
   58.3513   34.0305   43.9271 H   0  0  0  0  0  0  0  0  0  0  0  0
   57.2470   30.1100   45.6040 N   0  0  0  0  0  0  0  0  0  0  0  0
   57.4710   28.8450   45.1660 C   0  0  0  0  0  0  0  0  0  0  0  0
   57.9060   27.8210   46.1410 C   0  0  0  0  0  0  0  0  0  0  0  0
   58.8140   28.0110   47.1840 C   0  0  0  0  0  0  0  0  0  0  0  0
   59.6080   29.2270   47.4630 C   0  0  0  0  0  0  0  0  0  0  0  0
   59.5110   29.8840   48.7020 C   0  0  0  0  0  0  0  0  0  0  0  0
   58.8070   29.5160   49.4629 H   0  0  0  0  0  0  0  0  0  0  0  0
   60.3050   31.0030   48.9720 C   0  0  0  0  0  0  0  0  0  0  0  0
   60.2346   31.5037   49.9489 H   0  0  0  0  0  0  0  0  0  0  0  0
   61.1880   31.4860   48.0020 C   0  0  0  0  0  0  0  0  0  0  0  0
   61.9660   32.5640   48.2680 F   0  0  0  0  0  0  0  0  0  0  0  0
   61.2680   30.8560   46.7550 C   0  0  0  0  0  0  0  0  0  0  0  0
   61.9538   31.2435   45.9872 H   0  0  0  0  0  0  0  0  0  0  0  0
   60.4780   29.7350   46.4830 C   0  0  0  0  0  0  0  0  0  0  0  0
   60.5376   29.2487   45.4981 H   0  0  0  0  0  0  0  0  0  0  0  0
   58.8560   26.9100   47.9700 N   0  0  0  0  0  0  0  0  0  0  0  0
   57.9760   26.0710   47.3870 C   0  0  0  0  0  0  0  0  0  0  0  0
   57.6420   24.8050   47.8620 C   0  0  0  0  0  0  0  0  0  0  0  0
   58.1476   24.3781   48.7407 H   0  0  0  0  0  0  0  0  0  0  0  0
   56.6380   24.0880   47.1840 C   0  0  0  0  0  0  0  0  0  0  0  0
   56.2710   22.7060   47.6350 C   0  0  0  0  0  0  0  0  0  0  0  0
   56.2613   22.6695   48.7344 H   0  0  0  0  0  0  0  0  0  0  0  0
   55.2732   22.4478   47.2508 H   0  0  0  0  0  0  0  0  0  0  0  0
   57.0093   21.9868   47.2508 H   0  0  0  0  0  0  0  0  0  0  0  0
   56.0110   24.6610   46.0580 C   0  0  0  0  0  0  0  0  0  0  0  0
   55.2312   24.1037   45.5182 H   0  0  0  0  0  0  0  0  0  0  0  0
   56.3840   25.9430   45.6280 C   0  0  0  0  0  0  0  0  0  0  0  0
   55.8850   26.4157   44.7692 H   0  0  0  0  0  0  0  0  0  0  0  0
   57.3780   26.5890   46.2980 N   0  0  0  0  0  0  0  0  0  0  0  0
   57.3580   28.5740   43.7980 C   0  0  0  0  0  0  0  0  0  0  0  0
   57.5703   27.5688   43.4048 H   0  0  0  0  0  0  0  0  0  0  0  0
  1  2  1  0
  2  3  1  0
  3  4  1  0
  4  5  2  0
  5  6  1  0
  6  7  2  0
  7  8  1  0
  7  9  1  0
  9 10  1  0
  9 11  2  0
 11 12  1  0
 11 13  1  0
 13 14  1  0
 13 15  2  0
 15 16  1  0
  4 17  1  0
 17 18  2  0
 18 19  1  0
 19 20  2  0
 20 21  1  0
 21 22  2  0
 22 23  1  0
 22 24  1  0
 24 25  1  0
 24 26  2  0
 26 27  1  0
 26 28  1  0
 28 29  1  0
 28 30  2  0
 30 31  1  0
 20 32  1  0
 32 33  2  0
 33 34  1  0
 34 35  1  0
 34 36  2  0
 36 37  1  0
 37 38  1  0
 37 39  1  0
 37 40  1  0
 36 41  1  0
 41 42  1  0
 41 43  2  0
 43 44  1  0
 43 45  1  0
 18 46  1  0
 46 47  1  0
 46  2  2  0
 15  6  1  0
 45 19  1  0
 30 21  1  0
 45 33  1  0
M  CHG  1   3  -1
M  END
>  <UniqueID>  (93) 
87

>  <SMILES>  (93) 
Cc1ccn2c(-c3cc[n-]/c(=N/c4ccccc4)n3)c(-c3ccc(F)cc3)nc2c1

>  <Energy>  (93) 
101.15004018679748

>  <Genealogy>  (93) 
Cc1ccn2c(-c3cc[n-]c(=Nc4ccccc4)n3)c(-c3ccc(F)cc3)nc2c1 (protonated)
Cc1ccn2c(-c3cc[n-]/c(=N/c4ccccc4)n3)c(-c3ccc(F)cc3)nc2c1 (cis-trans isomerization)
Cc1ccn2c(-c3cc[n-]/c(=N/c4ccccc4)n3)c(-c3ccc(F)cc3)nc2c1 (3D coordinates assigned)
Cc1ccn2c(-c3cc[n-]/c(=N/c4ccccc4)n3)c(-c3ccc(F)cc3)nc2c1 (optimized conformer: 101.15004018679748 kcal/mol)

>  <smiles>  (93) 
Cc1ccn2c(-c3cc[nH]c(=Nc4ccccc4)n3)c(-c3ccc(F)cc3)nc2c1

>  <score_type>  (93) 
oracle

>  <origin>  (93) 
adg

>  <m_score__min__energy>  (93) 
-10.27

>  <m_primary>  (93) 
energy

$$$$
93:0
     RDKit          3D

 41 44  0  0  1  0  0  0  0  0999 V2000
   60.1820   30.2400   50.0500 C   0  0  0  0  0  0  0  0  0  0  0  0
   60.1340   30.8030   48.3600 S   0  0  0  0  0  0  0  0  0  0  0  0
   59.0510   29.7030   47.9710 O   0  0  0  0  0  0  0  0  0  0  0  0
   61.0840   30.1530   47.4540 O   0  0  0  0  0  0  0  0  0  0  0  0
   59.0170   31.9660   47.9810 N   0  0  0  0  0  0  0  0  0  0  0  0
   59.0540   32.7550   47.0080 C   0  0  0  0  0  0  0  0  0  0  0  0
   58.4650   32.3200   45.8250 C   0  0  0  0  0  0  0  0  0  0  0  0
   57.9140   31.0630   45.6840 C   0  0  0  0  0  0  0  0  0  0  0  0
   57.3290   30.6320   44.5010 C   0  0  0  0  0  0  0  0  0  0  0  0
   57.2910   31.4880   43.4140 C   0  0  0  0  0  0  0  0  0  0  0  0
   57.8380   32.7480   43.5380 C   0  0  0  0  0  0  0  0  0  0  0  0
   58.4120   33.1480   44.7260 C   0  0  0  0  0  0  0  0  0  0  0  0
   58.9540   34.3700   44.8750 N   0  0  0  0  0  0  0  0  0  0  0  0
   59.5160   34.7640   46.0240 C   0  0  0  0  0  0  0  0  0  0  0  0
   59.9920   35.9460   46.0330 O   0  0  0  0  0  0  0  0  0  0  0  0
   59.5950   33.9760   47.1420 N   0  0  0  0  0  0  0  0  0  0  0  0
   60.2310   34.4510   48.3250 C   0  0  0  0  0  0  0  0  0  0  0  0
   61.6250   33.8480   48.4890 C   0  0  0  0  0  0  0  0  0  0  0  0
   62.4120   33.7970   47.3570 C   0  0  0  0  0  0  0  0  0  0  0  0
   63.6850   33.2620   47.4260 C   0  0  0  0  0  0  0  0  0  0  0  0
   64.1350   32.7920   48.6440 C   0  0  0  0  0  0  0  0  0  0  0  0
   63.3300   32.8530   49.7670 C   0  0  0  0  0  0  0  0  0  0  0  0
   62.0430   33.3880   49.7220 C   0  0  0  0  0  0  0  0  0  0  0  0
   61.0210   33.4760   51.1120 Cl  0  0  0  0  0  0  0  0  0  0  0  0
   56.6530   30.7650   42.4150 O   0  0  0  0  0  0  0  0  0  0  0  0
   55.9300   29.7040   43.0090 C   0  0  0  0  0  0  0  0  0  0  0  0
   56.7260   29.4320   44.1470 O   0  0  0  0  0  0  0  0  0  0  0  0
   60.1083   31.1042   50.7266 H   0  0  0  0  0  0  0  0  0  0  0  0
   59.3388   29.5578   50.2333 H   0  0  0  0  0  0  0  0  0  0  0  0
   61.1286   29.7104   50.2333 H   0  0  0  0  0  0  0  0  0  0  0  0
   57.9392   30.3755   46.5423 H   0  0  0  0  0  0  0  0  0  0  0  0
   57.8161   33.4391   42.6825 H   0  0  0  0  0  0  0  0  0  0  0  0
   58.9190   35.0080   44.0500 H   0  0  0  0  0  0  0  0  0  0  0  0
   60.3191   35.5460   48.2690 H   0  0  0  0  0  0  0  0  0  0  0  0
   59.6206   34.1522   49.1900 H   0  0  0  0  0  0  0  0  0  0  0  0
   62.0272   34.1814   46.4009 H   0  0  0  0  0  0  0  0  0  0  0  0
   64.3241   33.2119   46.5321 H   0  0  0  0  0  0  0  0  0  0  0  0
   65.1454   32.3641   48.7220 H   0  0  0  0  0  0  0  0  0  0  0  0
   63.7159   32.4686   50.7227 H   0  0  0  0  0  0  0  0  0  0  0  0
   54.9146   30.0175   43.2929 H   0  0  0  0  0  0  0  0  0  0  0  0
   55.7754   28.8379   42.3488 H   0  0  0  0  0  0  0  0  0  0  0  0
  1  2  1  0
  2  3  2  0
  2  4  2  0
  2  5  1  0
  5  6  2  0
  6  7  1  0
  7  8  2  0
  8  9  1  0
  9 10  2  0
 10 11  1  0
 11 12  2  0
 12 13  1  0
 13 14  1  0
 14 15  2  0
 14 16  1  0
 16 17  1  0
 17 18  1  0
 18 19  2  0
 19 20  1  0
 20 21  2  0
 21 22  1  0
 22 23  2  0
 23 24  1  0
 10 25  1  0
 25 26  1  0
 26 27  1  0
 16  6  1  0
 23 18  1  0
 12  7  1  0
 27  9  1  0
  1 28  1  0
  1 29  1  0
  1 30  1  0
  8 31  1  0
 11 32  1  0
 13 33  1  0
 17 34  1  0
 17 35  1  0
 19 36  1  0
 20 37  1  0
 21 38  1  0
 22 39  1  0
 26 40  1  0
 26 41  1  0
M  END
>  <smiles>  (94) 
CS(=O)(=O)N=c1c2cc3c(cc2[nH]c(=O)n1Cc1ccccc1Cl)OCO3

>  <score_type>  (94) 
oracle

>  <origin>  (94) 
adg

>  <m_score__min__energy>  (94) 
-8.3399999999999999

>  <m_primary>  (94) 
energy

$$$$
94:0
     RDKit          3D

 37 39  0  0  0  0  0  0  0  0999 V2000
   55.6120   26.7430   46.0150 N   0  0  0  0  0  0  0  0  0  0  0  0
   57.2190   27.3800   46.0180 S   0  0  0  0  0  0  0  0  0  0  0  0
   57.7120   27.4950   47.4340 O   0  0  0  0  0  0  0  0  0  0  0  0
   58.1250   26.4450   45.2660 O   0  0  0  0  0  0  0  0  0  0  0  0
   57.2250   28.9660   45.2560 C   0  0  0  0  0  0  0  0  0  0  0  0
   56.5730   29.1540   44.0320 C   0  0  0  0  0  0  0  0  0  0  0  0
   56.5890   30.4050   43.4130 C   0  0  0  0  0  0  0  0  0  0  0  0
   57.2580   31.4750   44.0110 C   0  0  0  0  0  0  0  0  0  0  0  0
   57.9230   31.3080   45.2410 C   0  0  0  0  0  0  0  0  0  0  0  0
   58.6350   32.4610   45.8560 C   0  0  0  0  0  0  0  0  0  0  0  0
   58.1870   33.7850   45.8100 C   0  0  0  0  0  0  0  0  0  0  0  0
   59.3040   34.7470   46.6180 S   0  0  0  0  0  0  0  0  0  0  0  0
   60.3100   33.4530   46.9990 C   0  0  0  0  0  0  0  0  0  0  0  0
   61.5540   33.5400   47.7190 N   0  0  0  0  0  0  0  0  0  0  0  0
   62.7690   32.9780   47.1090 C   0  0  0  0  0  0  0  0  0  0  0  0
   64.0340   33.4590   47.8260 C   0  0  0  0  0  0  0  0  0  0  0  0
   63.9620   33.1970   49.3370 C   0  0  0  0  0  0  0  0  0  0  0  0
   62.5800   33.5000   49.9570 C   0  0  0  0  0  0  0  0  0  0  0  0
   61.6400   34.2490   49.0050 C   0  0  0  0  0  0  0  0  0  0  0  0
   59.8160   32.2920   46.5160 N   0  0  0  0  0  0  0  0  0  0  0  0
   57.9050   30.0380   45.8520 C   0  0  0  0  0  0  0  0  0  0  0  0
   55.1480   27.0910   45.1460 H   0  0  0  0  0  0  0  0  0  0  0  0
   56.0464   28.3135   43.5564 H   0  0  0  0  0  0  0  0  0  0  0  0
   56.0734   30.5483   42.4519 H   0  0  0  0  0  0  0  0  0  0  0  0
   57.2656   32.4576   43.5166 H   0  0  0  0  0  0  0  0  0  0  0  0
   57.2628   34.1364   45.3280 H   0  0  0  0  0  0  0  0  0  0  0  0
   62.7220   31.8805   47.1656 H   0  0  0  0  0  0  0  0  0  0  0  0
   62.8168   33.3157   46.0632 H   0  0  0  0  0  0  0  0  0  0  0  0
   64.9030   32.9263   47.4124 H   0  0  0  0  0  0  0  0  0  0  0  0
   64.1267   34.5438   47.6692 H   0  0  0  0  0  0  0  0  0  0  0  0
   64.1982   32.1378   49.5170 H   0  0  0  0  0  0  0  0  0  0  0  0
   64.6834   33.8762   49.8147 H   0  0  0  0  0  0  0  0  0  0  0  0
   62.1066   32.5475   50.2375 H   0  0  0  0  0  0  0  0  0  0  0  0
   62.7488   34.1508   50.8276 H   0  0  0  0  0  0  0  0  0  0  0  0
   60.6382   34.3090   49.4552 H   0  0  0  0  0  0  0  0  0  0  0  0
   62.0337   35.2616   48.8326 H   0  0  0  0  0  0  0  0  0  0  0  0
   58.4300   29.8860   46.8066 H   0  0  0  0  0  0  0  0  0  0  0  0
  1  2  1  0
  2  3  2  0
  2  4  2  0
  2  5  1  0
  5  6  2  0
  6  7  1  0
  7  8  2  0
  8  9  1  0
  9 10  1  0
 10 11  2  0
 11 12  1  0
 12 13  1  0
 13 14  1  0
 14 15  1  0
 15 16  1  0
 16 17  1  0
 17 18  1  0
 18 19  1  0
 13 20  2  0
  9 21  2  0
 21  5  1  0
 20 10  1  0
 19 14  1  0
  1 22  1  0
  6 23  1  0
  7 24  1  0
  8 25  1  0
 11 26  1  0
 15 27  1  0
 15 28  1  0
 16 29  1  0
 16 30  1  0
 17 31  1  0
 17 32  1  0
 18 33  1  0
 18 34  1  0
 19 35  1  0
 19 36  1  0
 21 37  1  0
M  CHG  1   1  -1
M  END
>  <UniqueID>  (95) 
88

>  <SMILES>  (95) 
[NH-]S(=O)(=O)c1cccc(-c2csc(N3CCCCC3)n2)c1

>  <Energy>  (95) 
70.96265520005242

>  <Genealogy>  (95) 
[NH-]S(=O)(=O)c1cccc(-c2csc(N3CCCCC3)n2)c1 (protonated)
[NH-]S(=O)(=O)c1cccc(-c2csc(N3CCCCC3)n2)c1 (3D coordinates assigned)
[NH-]S(=O)(=O)c1cccc(-c2csc(N3CCCCC3)n2)c1 (nonaromatic ring conformer: 70.96265520005242 kcal/mol)

>  <smiles>  (95) 
NS(=O)(=O)c1cccc(-c2csc(N3CCCCC3)n2)c1

>  <score_type>  (95) 
oracle

>  <origin>  (95) 
adg

>  <m_score__min__energy>  (95) 
-10.949999999999999

>  <m_primary>  (95) 
energy

$$$$
