0:0
     RDKit          3D

 52 55  0  0  0  0  0  0  0  0999 V2000
   57.7810   25.9900   44.7740 C   0  0  0  0  0  0  0  0  0  0  0  0
   56.7070   26.7630   45.9660 S   0  0  0  0  0  0  0  0  0  0  0  0
   55.6930   25.7770   46.4760 O   0  0  0  0  0  0  0  0  0  0  0  0
   57.5330   27.2550   47.1250 O   0  0  0  0  0  0  0  0  0  0  0  0
   55.8940   28.1200   45.2530 N   0  0  0  0  0  0  0  0  0  0  0  0
   56.5320   29.3070   44.7590 C   0  0  0  0  0  0  0  0  0  0  0  0
   56.4870   29.5670   43.3870 C   0  0  0  0  0  0  0  0  0  0  0  0
   57.1000   30.7060   42.8620 C   0  0  0  0  0  0  0  0  0  0  0  0
   57.7700   31.5940   43.7060 C   0  0  0  0  0  0  0  0  0  0  0  0
   57.8280   31.3560   45.0920 C   0  0  0  0  0  0  0  0  0  0  0  0
   58.5280   32.3070   45.9960 C   0  0  0  0  0  0  0  0  0  0  0  0
   57.9400   33.5310   46.3520 C   0  0  0  0  0  0  0  0  0  0  0  0
   58.5730   34.3720   47.2100 N   0  0  0  0  0  0  0  0  0  0  0  0
   59.7900   34.0830   47.7470 C   0  0  0  0  0  0  0  0  0  0  0  0
   60.3270   34.9000   48.5950 N   0  0  0  0  0  0  0  0  0  0  0  0
   60.4340   32.8810   47.4050 C   0  0  0  0  0  0  0  0  0  0  0  0
   61.7300   32.4920   48.0000 C   0  0  0  0  0  0  0  0  0  0  0  0
   62.9600   32.7210   47.4150 C   0  0  0  0  0  0  0  0  0  0  0  0
   63.8750   32.2050   48.3100 C   0  0  0  0  0  0  0  0  0  0  0  0
   63.2180   31.7110   49.3730 N   0  0  0  0  0  0  0  0  0  0  0  0
   61.9170   31.8830   49.1960 N   0  0  0  0  0  0  0  0  0  0  0  0
   60.8970   31.5760   50.2130 C   0  0  0  0  0  0  0  0  0  0  0  0
   59.8950   30.5160   49.6860 C   0  0  0  0  0  0  0  0  0  0  0  0
   58.5320   31.1310   49.3370 C   0  0  0  0  0  0  0  0  0  0  0  0
   57.9170   31.8090   50.4940 N   0  0  0  0  0  0  0  0  0  0  0  0
   58.8670   32.5310   51.3710 C   0  0  0  0  0  0  0  0  0  0  0  0
   60.1920   32.8670   50.6750 C   0  0  0  0  0  0  0  0  0  0  0  0
   59.7880   31.9950   46.5330 C   0  0  0  0  0  0  0  0  0  0  0  0
   57.2010   30.2070   45.6090 C   0  0  0  0  0  0  0  0  0  0  0  0
   58.5655   25.4254   45.2991 H   0  0  0  0  0  0  0  0  0  0  0  0
   57.1958   25.3046   44.1433 H   0  0  0  0  0  0  0  0  0  0  0  0
   58.2451   26.7626   44.1433 H   0  0  0  0  0  0  0  0  0  0  0  0
   55.9649   28.8693   42.7158 H   0  0  0  0  0  0  0  0  0  0  0  0
   57.0551   30.9044   41.7810 H   0  0  0  0  0  0  0  0  0  0  0  0
   58.2561   32.4862   43.2845 H   0  0  0  0  0  0  0  0  0  0  0  0
   56.9616   33.8103   45.9339 H   0  0  0  0  0  0  0  0  0  0  0  0
   59.7460   35.4640   49.2540 H   0  0  0  0  0  0  0  0  0  0  0  0
   63.1649   33.2070   46.4497 H   0  0  0  0  0  0  0  0  0  0  0  0
   64.9667   32.1991   48.1749 H   0  0  0  0  0  0  0  0  0  0  0  0
   63.6610   31.2840   50.2150 H   0  0  0  0  0  0  0  0  0  0  0  0
   61.3918   31.1396   51.0932 H   0  0  0  0  0  0  0  0  0  0  0  0
   60.3150   30.0494   48.7828 H   0  0  0  0  0  0  0  0  0  0  0  0
   59.7373   29.7742   50.4827 H   0  0  0  0  0  0  0  0  0  0  0  0
   58.6701   31.8640   48.5285 H   0  0  0  0  0  0  0  0  0  0  0  0
   57.8619   30.3159   49.0263 H   0  0  0  0  0  0  0  0  0  0  0  0
   57.2170   32.4960   50.1250 H   0  0  0  0  0  0  0  0  0  0  0  0
   58.3963   33.4694   51.6995 H   0  0  0  0  0  0  0  0  0  0  0  0
   59.1000   31.8687   52.2178 H   0  0  0  0  0  0  0  0  0  0  0  0
   59.9912   33.5035   49.8006 H   0  0  0  0  0  0  0  0  0  0  0  0
   60.8446   33.3963   51.3849 H   0  0  0  0  0  0  0  0  0  0  0  0
   60.2728   31.0444   46.2659 H   0  0  0  0  0  0  0  0  0  0  0  0
   57.2343   30.0101   46.6907 H   0  0  0  0  0  0  0  0  0  0  0  0
  1  2  1  0
  2  3  2  0
  2  4  2  0
  2  5  1  0
  5  6  1  0
  6  7  2  0
  7  8  1  0
  8  9  2  0
  9 10  1  0
 10 11  1  0
 11 12  2  0
 12 13  1  0
 13 14  1  0
 14 15  2  3
 14 16  1  0
 16 17  1  0
 17 18  2  0
 18 19  1  0
 19 20  2  0
 20 21  1  0
 21 22  1  0
 22 23  1  0
 23 24  1  0
 24 25  1  0
 25 26  1  0
 26 27  1  0
 16 28  2  0
 10 29  2  0
 29  6  1  0
 28 11  1  0
 21 17  1  0
 27 22  1  0
  1 30  1  0
  1 31  1  0
  1 32  1  0
  7 33  1  0
  8 34  1  0
  9 35  1  0
 12 36  1  0
 15 37  1  0
 18 38  1  0
 19 39  1  0
 20 40  1  0
 22 41  1  0
 23 42  1  0
 23 43  1  0
 24 44  1  0
 24 45  1  0
 25 46  1  0
 26 47  1  0
 26 48  1  0
 27 49  1  0
 27 50  1  0
 28 51  1  0
 29 52  1  0
M  CHG  3   5  -1  13  -1  20   1
M  END
>  <UniqueID>  (1) 
1

>  <SMILES>  (1) 
CS(=O)(=O)[N-]c1cccc(-c2c[n-]c(=N)c(-c3cc[nH+]n3C3CCNCC3)c2)c1

>  <Energy>  (1) 
103.58994093969214

>  <Genealogy>  (1) 
CS(=O)(=O)[N-]c1cccc(-c2c[n-]c(=N)c(-c3cc[nH+]n3C3CCNCC3)c2)c1 (protonated)
CS(=O)(=O)[N-]c1cccc(-c2c[n-]c(=N)c(-c3cc[nH+]n3C3CCNCC3)c2)c1 (3D coordinates assigned)
CS(=O)(=O)[N-]c1cccc(-c2c[n-]c(=N)c(-c3cc[nH+]n3C3CCNCC3)c2)c1 (nonaromatic ring conformer: 103.58994093969214 kcal/mol)

>  <smiles>  (1) 
CS(=O)(=O)Nc1cccc(-c2c[nH]c(=N)c(-c3ccnn3C3CCNCC3)c2)c1

>  <score_type>  (1) 
oracle

>  <origin>  (1) 
adg

>  <m_score__min__energy>  (1) 
-10.94

>  <m_primary>  (1) 
energy

$$$$
1:0
     RDKit          3D

 56 59  0  0  0  0  0  0  0  0999 V2000
   55.1470   28.9660   44.5370 N   0  0  0  0  0  0  0  0  0  0  0  0
   56.4850   30.0020   44.1850 S   0  0  0  0  0  0  0  0  0  0  0  0
   56.6080   30.1410   42.6930 O   0  0  0  0  0  0  0  0  0  0  0  0
   56.2450   31.3540   44.7930 O   0  0  0  0  0  0  0  0  0  0  0  0
   57.9640   29.3150   44.8480 C   0  0  0  0  0  0  0  0  0  0  0  0
   59.1850   29.4880   44.1820 C   0  0  0  0  0  0  0  0  0  0  0  0
   60.3600   28.9650   44.7250 C   0  0  0  0  0  0  0  0  0  0  0  0
   60.3230   28.2620   45.9320 C   0  0  0  0  0  0  0  0  0  0  0  0
   59.1070   28.0640   46.5990 C   0  0  0  0  0  0  0  0  0  0  0  0
   59.1170   27.3540   47.8470 N   0  0  0  0  0  0  0  0  0  0  0  0
   59.9280   27.6510   48.9930 C   0  0  0  0  0  0  0  0  0  0  0  0
   60.7220   26.7820   49.4460 O   0  0  0  0  0  0  0  0  0  0  0  0
   59.8750   28.9960   49.6100 C   0  0  0  0  0  0  0  0  0  0  0  0
   60.5410   29.2580   50.8180 C   0  0  0  0  0  0  0  0  0  0  0  0
   60.4950   30.4970   51.3710 N   0  0  0  0  0  0  0  0  0  0  0  0
   59.8020   31.5230   50.8020 C   0  0  0  0  0  0  0  0  0  0  0  0
   59.8180   32.7090   51.3370 N   0  0  0  0  0  0  0  0  0  0  0  0
   60.7230   33.7920   50.9560 C   0  0  0  0  0  0  0  0  0  0  0  0
   62.1650   33.2810   50.8880 C   0  0  0  0  0  0  0  0  0  0  0  0
   62.5860   33.0720   49.4590 C   0  0  0  0  0  0  0  0  0  0  0  0
   62.5020   31.7970   48.8750 C   0  0  0  0  0  0  0  0  0  0  0  0
   62.8650   31.6100   47.5380 C   0  0  0  0  0  0  0  0  0  0  0  0
   63.3050   32.6930   46.7730 C   0  0  0  0  0  0  0  0  0  0  0  0
   63.3790   33.9680   47.3430 C   0  0  0  0  0  0  0  0  0  0  0  0
   63.0170   34.1590   48.6810 C   0  0  0  0  0  0  0  0  0  0  0  0
   59.0870   31.2980   49.6090 C   0  0  0  0  0  0  0  0  0  0  0  0
   58.3370   32.3050   48.9820 O   0  0  0  0  0  0  0  0  0  0  0  0
   58.7190   32.9840   47.8140 C   0  0  0  0  0  0  0  0  0  0  0  0
   59.2660   34.2820   47.8510 C   0  0  0  0  0  0  0  0  0  0  0  0
   59.6330   34.9230   46.6630 C   0  0  0  0  0  0  0  0  0  0  0  0
   59.4450   34.2840   45.4350 C   0  0  0  0  0  0  0  0  0  0  0  0
   58.8840   33.0050   45.3920 C   0  0  0  0  0  0  0  0  0  0  0  0
   58.5170   32.3590   46.5780 C   0  0  0  0  0  0  0  0  0  0  0  0
   59.1510   30.0370   49.0100 C   0  0  0  0  0  0  0  0  0  0  0  0
   57.9290   28.6140   46.0620 C   0  0  0  0  0  0  0  0  0  0  0  0
   54.6830   29.3470   45.3920 H   0  0  0  0  0  0  0  0  0  0  0  0
   59.2176   30.0371   43.2294 H   0  0  0  0  0  0  0  0  0  0  0  0
   61.3170   29.1066   44.2015 H   0  0  0  0  0  0  0  0  0  0  0  0
   61.2536   27.8619   46.3608 H   0  0  0  0  0  0  0  0  0  0  0  0
   61.1027   28.4556   51.3187 H   0  0  0  0  0  0  0  0  0  0  0  0
   60.4289   34.1806   49.9698 H   0  0  0  0  0  0  0  0  0  0  0  0
   60.6619   34.5910   51.7096 H   0  0  0  0  0  0  0  0  0  0  0  0
   62.8325   34.0188   51.3573 H   0  0  0  0  0  0  0  0  0  0  0  0
   62.2261   32.3200   51.4198 H   0  0  0  0  0  0  0  0  0  0  0  0
   62.1494   30.9429   49.4718 H   0  0  0  0  0  0  0  0  0  0  0  0
   62.8041   30.6083   47.0875 H   0  0  0  0  0  0  0  0  0  0  0  0
   63.5933   32.5429   45.7221 H   0  0  0  0  0  0  0  0  0  0  0  0
   63.7220   34.8211   46.7391 H   0  0  0  0  0  0  0  0  0  0  0  0
   63.0701   35.1640   49.1251 H   0  0  0  0  0  0  0  0  0  0  0  0
   59.4047   34.7921   48.8156 H   0  0  0  0  0  0  0  0  0  0  0  0
   60.0703   35.9318   46.6958 H   0  0  0  0  0  0  0  0  0  0  0  0
   59.7385   34.7876   44.5022 H   0  0  0  0  0  0  0  0  0  0  0  0
   58.7306   32.5050   44.4243 H   0  0  0  0  0  0  0  0  0  0  0  0
   58.0678   31.3557   46.5387 H   0  0  0  0  0  0  0  0  0  0  0  0
   58.6285   29.8590   48.0586 H   0  0  0  0  0  0  0  0  0  0  0  0
   56.9755   28.4936   46.5971 H   0  0  0  0  0  0  0  0  0  0  0  0
  1  2  1  0
  2  3  2  0
  2  4  2  0
  2  5  1  0
  5  6  2  0
  6  7  1  0
  7  8  2  0
  8  9  1  0
  9 10  1  0
 10 11  1  0
 11 12  2  0
 11 13  1  0
 13 14  2  0
 14 15  1  0
 15 16  1  0
 16 17  2  3
 17 18  1  0
 18 19  1  0
 19 20  1  0
 20 21  2  0
 21 22  1  0
 22 23  2  0
 23 24  1  0
 24 25  2  0
 16 26  1  0
 26 27  1  0
 27 28  1  0
 28 29  2  0
 29 30  1  0
 30 31  2  0
 31 32  1  0
 32 33  2  0
 26 34  2  0
  9 35  2  0
 35  5  1  0
 34 13  1  0
 25 20  1  0
 33 28  1  0
  1 36  1  0
  6 37  1  0
  7 38  1  0
  8 39  1  0
 14 40  1  0
 18 41  1  0
 18 42  1  0
 19 43  1  0
 19 44  1  0
 21 45  1  0
 22 46  1  0
 23 47  1  0
 24 48  1  0
 25 49  1  0
 29 50  1  0
 30 51  1  0
 31 52  1  0
 32 53  1  0
 33 54  1  0
 34 55  1  0
 35 56  1  0
M  CHG  3   1  -1  10  -1  15  -1
M  END
>  <UniqueID>  (2) 
2

>  <SMILES>  (2) 
[NH-]S(=O)(=O)c1cccc([N-]C(=O)c2c[n-]c(=NCCc3ccccc3)c(Oc3ccccc3)c2)c1

>  <Energy>  (2) 
69.83003176813816

>  <Genealogy>  (2) 
[NH-]S(=O)(=O)c1cccc([N-]C(=O)c2c[n-]c(=NCCc3ccccc3)c(Oc3ccccc3)c2)c1 (protonated)
[NH-]S(=O)(=O)c1cccc([N-]C(=O)c2c[n-]c(=NCCc3ccccc3)c(Oc3ccccc3)c2)c1 (3D coordinates assigned)
[NH-]S(=O)(=O)c1cccc([N-]C(=O)c2c[n-]c(=NCCc3ccccc3)c(Oc3ccccc3)c2)c1 (optimized conformer: 69.83003176813816 kcal/mol)

>  <smiles>  (2) 
NS(=O)(=O)c1cccc(NC(=O)c2c[nH]c(=NCCc3ccccc3)c(Oc3ccccc3)c2)c1

>  <score_type>  (2) 
oracle

>  <origin>  (2) 
adg

>  <m_score__min__energy>  (2) 
-15.029999999999999

>  <m_primary>  (2) 
energy

$$$$
2:0
     RDKit          3D

 40 42  0  0  0  0  0  0  0  0999 V2000
   56.9716   35.1390   45.6281 H   0  0  0  0  0  0  0  0  0  0  0  0
   57.5510   34.2040   45.6190 C   0  0  0  0  0  0  0  0  0  0  0  0
   58.7980   34.1500   46.2500 C   0  0  0  0  0  0  0  0  0  0  0  0
   59.1932   35.0425   46.7571 H   0  0  0  0  0  0  0  0  0  0  0  0
   59.5500   32.9610   46.2400 C   0  0  0  0  0  0  0  0  0  0  0  0
   60.8730   32.8990   46.9120 C   0  0  0  0  0  0  0  0  0  0  0  0
   61.8700   33.8450   46.6150 C   0  0  0  0  0  0  0  0  0  0  0  0
   61.6674   34.6388   45.8810 H   0  0  0  0  0  0  0  0  0  0  0  0
   63.1170   33.7850   47.2450 C   0  0  0  0  0  0  0  0  0  0  0  0
   63.8887   34.5308   47.0038 H   0  0  0  0  0  0  0  0  0  0  0  0
   63.3890   32.7750   48.1860 C   0  0  0  0  0  0  0  0  0  0  0  0
   64.6240   32.6720   48.8440 O   0  0  0  0  0  0  0  0  0  0  0  0
   64.7780   32.3090   50.2120 C   0  0  0  0  0  0  0  0  0  0  0  0
   64.4285   33.1329   50.8516 H   0  0  0  0  0  0  0  0  0  0  0  0
   64.1854   31.4061   50.4207 H   0  0  0  0  0  0  0  0  0  0  0  0
   65.8391   32.1076   50.4207 H   0  0  0  0  0  0  0  0  0  0  0  0
   62.3970   31.8340   48.4810 C   0  0  0  0  0  0  0  0  0  0  0  0
   62.6008   31.0396   49.2140 H   0  0  0  0  0  0  0  0  0  0  0  0
   61.1500   31.8930   47.8540 C   0  0  0  0  0  0  0  0  0  0  0  0
   60.3796   31.1471   48.0991 H   0  0  0  0  0  0  0  0  0  0  0  0
   59.0260   31.8290   45.5890 C   0  0  0  0  0  0  0  0  0  0  0  0
   59.6057   30.8943   45.5693 H   0  0  0  0  0  0  0  0  0  0  0  0
   57.7710   31.8820   44.9650 C   0  0  0  0  0  0  0  0  0  0  0  0
   57.1180   30.4500   44.1740 S   0  0  0  0  0  0  0  0  0  0  0  0
   55.8690   29.9850   44.8710 O   0  0  0  0  0  0  0  0  0  0  0  0
   56.7840   30.7940   42.7510 O   0  0  0  0  0  0  0  0  0  0  0  0
   58.2870   29.1640   44.1840 N   0  0  0  0  0  0  0  0  0  0  0  0
   58.3240   28.1500   45.0020 C   0  0  0  0  0  0  0  0  0  0  0  0
   59.5270   27.6940   45.5840 C   0  0  0  0  0  0  0  0  0  0  0  0
   60.4774   28.2011   45.3613 H   0  0  0  0  0  0  0  0  0  0  0  0
   59.5010   26.5950   46.4440 C   0  0  0  0  0  0  0  0  0  0  0  0
   60.4335   26.2318   46.9007 H   0  0  0  0  0  0  0  0  0  0  0  0
   58.2940   25.9580   46.7240 C   0  0  0  0  0  0  0  0  0  0  0  0
   58.2663   25.0910   47.4005 H   0  0  0  0  0  0  0  0  0  0  0  0
   57.1220   26.4320   46.1370 C   0  0  0  0  0  0  0  0  0  0  0  0
   56.1632   25.9373   46.3514 H   0  0  0  0  0  0  0  0  0  0  0  0
   57.1590   27.5040   45.3000 N   0  0  0  0  0  0  0  0  0  0  0  0
   56.2610   27.8330   44.8740 H   0  0  0  0  0  0  0  0  0  0  0  0
   57.0400   33.0750   44.9780 C   0  0  0  0  0  0  0  0  0  0  0  0
   56.0596   33.1229   44.4814 H   0  0  0  0  0  0  0  0  0  0  0  0
  1  2  1  0
  2  3  2  0
  3  4  1  0
  3  5  1  0
  5  6  1  0
  6  7  2  0
  7  8  1  0
  7  9  1  0
  9 10  1  0
  9 11  2  0
 11 12  1  0
 12 13  1  0
 13 14  1  0
 13 15  1  0
 13 16  1  0
 11 17  1  0
 17 18  1  0
 17 19  2  0
 19 20  1  0
  5 21  2  0
 21 22  1  0
 21 23  1  0
 23 24  1  0
 24 25  2  0
 24 26  2  0
 24 27  1  0
 27 28  2  0
 28 29  1  0
 29 30  1  0
 29 31  2  0
 31 32  1  0
 31 33  1  0
 33 34  1  0
 33 35  2  0
 35 36  1  0
 35 37  1  0
 37 38  1  0
 23 39  2  0
 39 40  1  0
 39  2  1  0
 19  6  1  0
 37 28  1  0
M  END
>  <UniqueID>  (3) 
3

>  <SMILES>  (3) 
COc1ccc(-c2cccc(S(=O)(=O)/N=c3\cccc[nH]3)c2)cc1

>  <Energy>  (3) 
52.67171484954452

>  <Genealogy>  (3) 
COc1ccc(-c2cccc(S(=O)(=O)/N=c3\cccc[nH]3)c2)cc1 (cis-trans isomerization)
COc1ccc(-c2cccc(S(=O)(=O)/N=c3\cccc[nH]3)c2)cc1 (3D coordinates assigned)
COc1ccc(-c2cccc(S(=O)(=O)/N=c3\cccc[nH]3)c2)cc1 (optimized conformer: 52.67171484954452 kcal/mol)

>  <smiles>  (3) 
COc1ccc(-c2cccc(S(=O)(=O)N=c3cccc[nH]3)c2)cc1

>  <score_type>  (3) 
oracle

>  <origin>  (3) 
adg

>  <m_score__min__energy>  (3) 
-8.5500000000000007

>  <m_primary>  (3) 
energy

$$$$
3:0
     RDKit          3D

 44 47  0  0  0  0  0  0  0  0999 V2000
   65.3310   32.3310   50.1590 C   0  0  0  0  0  0  0  0  0  0  0  0
   65.0530   33.1110   49.0000 O   0  0  0  0  0  0  0  0  0  0  0  0
   63.7640   33.4650   48.5750 C   0  0  0  0  0  0  0  0  0  0  0  0
   63.3890   33.4620   47.2190 C   0  0  0  0  0  0  0  0  0  0  0  0
   62.0920   33.8250   46.8450 C   0  0  0  0  0  0  0  0  0  0  0  0
   61.1470   34.1900   47.8180 C   0  0  0  0  0  0  0  0  0  0  0  0
   59.7620   34.6190   47.4120 C   0  0  0  0  0  0  0  0  0  0  0  0
   59.2100   33.6850   46.4150 N   0  0  0  0  0  0  0  0  0  0  0  0
   58.7740   34.1210   45.1810 C   0  0  0  0  0  0  0  0  0  0  0  0
   58.8140   35.3470   44.8870 O   0  0  0  0  0  0  0  0  0  0  0  0
   58.2830   33.2290   44.2590 N   0  0  0  0  0  0  0  0  0  0  0  0
   58.2210   31.8920   44.5230 C   0  0  0  0  0  0  0  0  0  0  0  0
   57.7320   31.0970   43.6770 O   0  0  0  0  0  0  0  0  0  0  0  0
   58.6930   31.4490   45.7550 C   0  0  0  0  0  0  0  0  0  0  0  0
   59.1540   32.3450   46.6670 C   0  0  0  0  0  0  0  0  0  0  0  0
   59.5040   31.7260   47.8140 N   0  0  0  0  0  0  0  0  0  0  0  0
   59.2290   30.4270   47.5370 C   0  0  0  0  0  0  0  0  0  0  0  0
   59.4350   29.5010   48.3660 O   0  0  0  0  0  0  0  0  0  0  0  0
   58.7360   30.2150   46.2900 N   0  0  0  0  0  0  0  0  0  0  0  0
   58.3880   28.9540   45.6970 C   0  0  0  0  0  0  0  0  0  0  0  0
   59.0190   28.5330   44.5190 C   0  0  0  0  0  0  0  0  0  0  0  0
   58.6680   27.3160   43.9300 C   0  0  0  0  0  0  0  0  0  0  0  0
   57.6790   26.5160   44.5070 C   0  0  0  0  0  0  0  0  0  0  0  0
   57.0230   26.9270   45.6810 C   0  0  0  0  0  0  0  0  0  0  0  0
   55.9990   26.1050   46.2680 N   0  0  0  0  0  0  0  0  0  0  0  0
   54.7960   26.2900   45.9890 O   0  0  0  0  0  0  0  0  0  0  0  0
   56.3260   25.1020   47.1500 O   0  0  0  0  0  0  0  0  0  0  0  0
   57.3830   28.1560   46.2660 C   0  0  0  0  0  0  0  0  0  0  0  0
   61.5260   34.1980   49.1700 C   0  0  0  0  0  0  0  0  0  0  0  0
   62.8230   33.8350   49.5420 C   0  0  0  0  0  0  0  0  0  0  0  0
   65.1193   32.9251   51.0602 H   0  0  0  0  0  0  0  0  0  0  0  0
   64.6982   31.4313   50.1559 H   0  0  0  0  0  0  0  0  0  0  0  0
   66.3902   32.0343   50.1559 H   0  0  0  0  0  0  0  0  0  0  0  0
   64.1199   33.1726   46.4495 H   0  0  0  0  0  0  0  0  0  0  0  0
   61.8096   33.8248   45.7819 H   0  0  0  0  0  0  0  0  0  0  0  0
   59.1109   34.6302   48.2985 H   0  0  0  0  0  0  0  0  0  0  0  0
   59.8137   35.6251   46.9703 H   0  0  0  0  0  0  0  0  0  0  0  0
   57.9420   33.5840   43.3360 H   0  0  0  0  0  0  0  0  0  0  0  0
   59.7932   29.1628   44.0565 H   0  0  0  0  0  0  0  0  0  0  0  0
   59.1718   26.9867   43.0093 H   0  0  0  0  0  0  0  0  0  0  0  0
   57.4112   25.5570   44.0394 H   0  0  0  0  0  0  0  0  0  0  0  0
   56.8712   28.4946   47.1789 H   0  0  0  0  0  0  0  0  0  0  0  0
   60.7979   34.4916   49.9405 H   0  0  0  0  0  0  0  0  0  0  0  0
   63.1068   33.8402   50.6047 H   0  0  0  0  0  0  0  0  0  0  0  0
  1  2  1  0
  2  3  1  0
  3  4  2  0
  4  5  1  0
  5  6  2  0
  6  7  1  0
  7  8  1  0
  8  9  1  0
  9 10  2  0
  9 11  1  0
 11 12  1  0
 12 13  2  0
 12 14  1  0
 14 15  2  0
 15 16  1  0
 16 17  1  0
 17 18  2  0
 17 19  1  0
 19 20  1  0
 20 21  2  0
 21 22  1  0
 22 23  2  0
 23 24  1  0
 24 25  1  0
 25 26  2  0
 25 27  1  0
 24 28  2  0
  6 29  1  0
 29 30  2  0
 30  3  1  0
 15  8  1  0
 28 20  1  0
 19 14  1  0
  1 31  1  0
  1 32  1  0
  1 33  1  0
  4 34  1  0
  5 35  1  0
  7 36  1  0
  7 37  1  0
 11 38  1  0
 21 39  1  0
 22 40  1  0
 23 41  1  0
 28 42  1  0
 29 43  1  0
 30 44  1  0
M  CHG  3  16  -1  25   1  27  -1
M  END
>  <UniqueID>  (4) 
4

>  <SMILES>  (4) 
COc1ccc(Cn2c(=O)[nH]c(=O)c3c2[n-]c(=O)n3-c2cccc([N+](=O)[O-])c2)cc1

>  <Energy>  (4) 
98.72700887981316

>  <Genealogy>  (4) 
COc1ccc(Cn2c(=O)[nH]c(=O)c3c2[n-]c(=O)n3-c2cccc([N+](=O)[O-])c2)cc1 (protonated)
COc1ccc(Cn2c(=O)[nH]c(=O)c3c2[n-]c(=O)n3-c2cccc([N+](=O)[O-])c2)cc1 (3D coordinates assigned)
COc1ccc(Cn2c(=O)[nH]c(=O)c3c2[n-]c(=O)n3-c2cccc([N+](=O)[O-])c2)cc1 (optimized conformer: 98.72700887981316 kcal/mol)

>  <smiles>  (4) 
COc1ccc(Cn2c(=O)[nH]c(=O)c3c2[nH]c(=O)n3-c2cccc([N+](=O)[O-])c2)cc1

>  <score_type>  (4) 
oracle

>  <origin>  (4) 
adg

>  <m_score__min__energy>  (4) 
-10.18

>  <m_primary>  (4) 
energy

$$$$
4:0
     RDKit          3D

 38 39  0  0  0  0  0  0  0  0999 V2000
   64.1170   33.5440   50.5910 C   0  0  0  0  0  0  0  0  0  0  0  0
   64.3520   32.6730   49.0090 S   0  0  0  0  0  0  0  0  0  0  0  0
   62.8200   33.2890   48.3100 C   0  0  0  0  0  0  0  0  0  0  0  0
   61.7760   33.6960   49.1520 C   0  0  0  0  0  0  0  0  0  0  0  0
   60.5940   34.2080   48.6070 C   0  0  0  0  0  0  0  0  0  0  0  0
   60.4580   34.3370   47.2170 C   0  0  0  0  0  0  0  0  0  0  0  0
   59.2400   34.9520   46.6520 C   0  0  0  0  0  0  0  0  0  0  0  0
   58.7260   34.6240   45.4570 C   0  0  0  0  0  0  0  0  0  0  0  0
   57.8540   33.4550   45.2270 C   0  0  0  0  0  0  0  0  0  0  0  0
   56.6590   33.4930   45.6260 O   0  0  0  0  0  0  0  0  0  0  0  0
   58.3250   32.3290   44.4710 N   0  0  0  0  0  0  0  0  0  0  0  0
   58.0020   30.9590   44.7650 C   0  0  0  0  0  0  0  0  0  0  0  0
   56.9600   30.2840   44.1010 C   0  0  0  0  0  0  0  0  0  0  0  0
   56.6190   28.9780   44.4640 C   0  0  0  0  0  0  0  0  0  0  0  0
   57.3070   28.3310   45.4990 C   0  0  0  0  0  0  0  0  0  0  0  0
   56.8690   26.6910   45.9630 S   0  0  0  0  0  0  0  0  0  0  0  0
   55.1500   26.5610   46.0780 N   0  0  0  0  0  0  0  0  0  0  0  0
   57.4890   26.3520   47.2890 O   0  0  0  0  0  0  0  0  0  0  0  0
   57.3760   25.7200   44.9330 O   0  0  0  0  0  0  0  0  0  0  0  0
   58.3460   28.9950   46.1590 C   0  0  0  0  0  0  0  0  0  0  0  0
   58.6850   30.3030   45.8000 C   0  0  0  0  0  0  0  0  0  0  0  0
   61.4900   33.8880   46.3760 C   0  0  0  0  0  0  0  0  0  0  0  0
   62.6660   33.3690   46.9220 C   0  0  0  0  0  0  0  0  0  0  0  0
   64.3044   32.8496   51.4233 H   0  0  0  0  0  0  0  0  0  0  0  0
   64.8195   34.3882   50.6526 H   0  0  0  0  0  0  0  0  0  0  0  0
   63.0852   33.9203   50.6526 H   0  0  0  0  0  0  0  0  0  0  0  0
   61.8864   33.6126   50.2433 H   0  0  0  0  0  0  0  0  0  0  0  0
   59.7696   34.5100   49.2697 H   0  0  0  0  0  0  0  0  0  0  0  0
   58.7251   35.7226   47.2445 H   0  0  0  0  0  0  0  0  0  0  0  0
   58.9689   35.2647   44.5965 H   0  0  0  0  0  0  0  0  0  0  0  0
   59.0000   32.5220   43.6960 H   0  0  0  0  0  0  0  0  0  0  0  0
   56.4109   30.7875   43.2917 H   0  0  0  0  0  0  0  0  0  0  0  0
   55.8077   28.4563   43.9353 H   0  0  0  0  0  0  0  0  0  0  0  0
   54.7690   26.7120   45.1170 H   0  0  0  0  0  0  0  0  0  0  0  0
   58.8982   28.4865   46.9631 H   0  0  0  0  0  0  0  0  0  0  0  0
   59.4945   30.8224   46.3338 H   0  0  0  0  0  0  0  0  0  0  0  0
   61.3714   33.9454   45.2839 H   0  0  0  0  0  0  0  0  0  0  0  0
   63.4727   33.0225   46.2593 H   0  0  0  0  0  0  0  0  0  0  0  0
  1  2  1  0
  2  3  1  0
  3  4  2  0
  4  5  1  0
  5  6  2  0
  6  7  1  0
  7  8  2  3
  8  9  1  0
  9 10  2  0
  9 11  1  0
 11 12  1  0
 12 13  2  0
 13 14  1  0
 14 15  2  0
 15 16  1  0
 16 17  1  0
 16 18  2  0
 16 19  2  0
 15 20  1  0
 20 21  2  0
  6 22  1  0
 22 23  2  0
 23  3  1  0
 21 12  1  0
  1 24  1  0
  1 25  1  0
  1 26  1  0
  4 27  1  0
  5 28  1  0
  7 29  1  0
  8 30  1  0
 11 31  1  0
 13 32  1  0
 14 33  1  0
 17 34  1  0
 20 35  1  0
 21 36  1  0
 22 37  1  0
 23 38  1  0
M  CHG  1  17  -1
M  END
>  <UniqueID>  (5) 
5

>  <SMILES>  (5) 
CSc1ccc(C=CC(=O)Nc2ccc(S([NH-])(=O)=O)cc2)cc1

>  <Energy>  (5) 
42.582545709612894

>  <Genealogy>  (5) 
CSc1ccc(C=CC(=O)Nc2ccc(S([NH-])(=O)=O)cc2)cc1 (protonated)
CSc1ccc(C=CC(=O)Nc2ccc(S([NH-])(=O)=O)cc2)cc1 (3D coordinates assigned)
CSc1ccc(C=CC(=O)Nc2ccc(S([NH-])(=O)=O)cc2)cc1 (optimized conformer: 42.582545709612894 kcal/mol)

>  <smiles>  (5) 
CSc1ccc(C=CC(=O)Nc2ccc(S(N)(=O)=O)cc2)cc1

>  <score_type>  (5) 
oracle

>  <origin>  (5) 
adg

>  <m_score__min__energy>  (5) 
-11.44

>  <m_primary>  (5) 
energy

$$$$
5:0
     RDKit          3D

 28 29  0  0  0  0  0  0  0  0999 V2000
   60.7300   28.4770   45.4180 C   0  0  0  0  0  0  0  0  0  0  0  0
   60.1720   29.7000   46.0410 C   0  0  0  0  0  0  0  0  0  0  0  0
   60.9960   30.4460   46.8350 N   0  0  0  0  0  0  0  0  0  0  0  0
   61.1020   31.8080   46.8790 C   0  0  0  0  0  0  0  0  0  0  0  0
   62.2030   32.4930   47.2440 N   0  0  0  0  0  0  0  0  0  0  0  0
   61.8950   33.8180   47.1510 C   0  0  0  0  0  0  0  0  0  0  0  0
   60.6250   33.9410   46.7340 N   0  0  0  0  0  0  0  0  0  0  0  0
   60.1520   32.7120   46.5730 N   0  0  0  0  0  0  0  0  0  0  0  0
   58.8900   32.4890   46.1570 C   0  0  0  0  0  0  0  0  0  0  0  0
   58.1170   33.4700   46.0080 O   0  0  0  0  0  0  0  0  0  0  0  0
   58.2700   31.2740   45.8510 C   0  0  0  0  0  0  0  0  0  0  0  0
   57.0350   31.2920   45.6070 O   0  0  0  0  0  0  0  0  0  0  0  0
   58.8570   30.0090   45.7760 C   0  0  0  0  0  0  0  0  0  0  0  0
   57.9970   28.8720   45.3750 C   0  0  0  0  0  0  0  0  0  0  0  0
   57.4840   28.9470   43.9700 C   0  0  0  0  0  0  0  0  0  0  0  0
   56.0410   29.3470   44.0000 C   0  0  0  0  0  0  0  0  0  0  0  0
   55.4890   29.7530   42.9270 O   0  0  0  0  0  0  0  0  0  0  0  0
   55.2610   29.3060   45.1230 O   0  0  0  0  0  0  0  0  0  0  0  0
   61.0491   27.7776   46.2048 H   0  0  0  0  0  0  0  0  0  0  0  0
   59.9605   27.9999   44.7933 H   0  0  0  0  0  0  0  0  0  0  0  0
   61.5947   28.7455   44.7933 H   0  0  0  0  0  0  0  0  0  0  0  0
   62.5763   34.6506   47.3803 H   0  0  0  0  0  0  0  0  0  0  0  0
   60.1020   34.8500   46.5680 H   0  0  0  0  0  0  0  0  0  0  0  0
   58.5815   27.9459   45.4784 H   0  0  0  0  0  0  0  0  0  0  0  0
   57.1152   28.8996   46.0320 H   0  0  0  0  0  0  0  0  0  0  0  0
   58.0622   29.6932   43.4054 H   0  0  0  0  0  0  0  0  0  0  0  0
   57.5884   27.9663   43.4828 H   0  0  0  0  0  0  0  0  0  0  0  0
   55.5620   29.7170   46.0200 H   0  0  0  0  0  0  0  0  0  0  0  0
  1  2  1  0
  2  3  1  0
  3  4  2  0
  4  5  1  0
  5  6  2  0
  6  7  1  0
  7  8  1  0
  8  9  1  0
  9 10  2  0
  9 11  1  0
 11 12  2  0
 11 13  1  0
 13 14  1  0
 14 15  1  0
 15 16  1  0
 16 17  2  0
 16 18  1  0
 13  2  2  0
  8  4  1  0
  1 19  1  0
  1 20  1  0
  1 21  1  0
  6 22  1  0
  7 23  1  0
 14 24  1  0
 14 25  1  0
 15 26  1  0
 15 27  1  0
 18 28  1  0
M  END
>  <smiles>  (6) 
Cc1nc2nc[nH]n2c(=O)c(=O)c1CCC(=O)O

>  <score_type>  (6) 
oracle

>  <origin>  (6) 
adg

>  <m_score__min__energy>  (6) 
-7.3600000000000003

>  <m_primary>  (6) 
energy

$$$$
6:0
     RDKit          3D

 32 33  0  0  0  0  0  0  0  0999 V2000
   57.0270   30.8280   42.7190 C   0  0  0  0  0  0  0  0  0  0  0  0
   56.9160   31.0590   44.1970 C   0  0  0  0  0  0  0  0  0  0  0  0
   56.1740   30.2910   44.8680 O   0  0  0  0  0  0  0  0  0  0  0  0
   57.6510   32.1580   44.8800 C   0  0  0  0  0  0  0  0  0  0  0  0
   57.4550   33.4920   44.4740 C   0  0  0  0  0  0  0  0  0  0  0  0
   58.1270   34.5350   45.1150 C   0  0  0  0  0  0  0  0  0  0  0  0
   59.0100   34.2640   46.1610 C   0  0  0  0  0  0  0  0  0  0  0  0
   59.2410   32.9440   46.5700 C   0  0  0  0  0  0  0  0  0  0  0  0
   60.1390   32.6930   47.6640 N   0  0  0  0  0  0  0  0  0  0  0  0
   60.4760   33.6710   48.6600 C   0  0  0  0  0  0  0  0  0  0  0  0
   59.6810   34.6180   48.9050 O   0  0  0  0  0  0  0  0  0  0  0  0
   61.7100   33.5450   49.4560 C   0  0  0  0  0  0  0  0  0  0  0  0
   61.7980   33.7210   50.8260 C   0  0  0  0  0  0  0  0  0  0  0  0
   63.0740   33.5610   51.2250 N   0  0  0  0  0  0  0  0  0  0  0  0
   63.5720   33.7290   52.5860 C   0  0  0  0  0  0  0  0  0  0  0  0
   63.8130   33.3110   50.1250 C   0  0  0  0  0  0  0  0  0  0  0  0
   65.7160   33.0880   50.1210 Br  0  0  0  0  0  0  0  0  0  0  0  0
   63.0010   33.2880   49.0060 C   0  0  0  0  0  0  0  0  0  0  0  0
   63.6030   33.1030   47.1970 Br  0  0  0  0  0  0  0  0  0  0  0  0
   58.5450   31.8970   45.9380 C   0  0  0  0  0  0  0  0  0  0  0  0
   57.4967   29.8505   42.5349 H   0  0  0  0  0  0  0  0  0  0  0  0
   56.0233   30.8431   42.2691 H   0  0  0  0  0  0  0  0  0  0  0  0
   57.6424   31.6210   42.2691 H   0  0  0  0  0  0  0  0  0  0  0  0
   56.7669   33.7144   43.6451 H   0  0  0  0  0  0  0  0  0  0  0  0
   57.9597   35.5738   44.7942 H   0  0  0  0  0  0  0  0  0  0  0  0
   59.5279   35.0918   46.6675 H   0  0  0  0  0  0  0  0  0  0  0  0
   60.4740   31.7150   47.8120 H   0  0  0  0  0  0  0  0  0  0  0  0
   60.9525   33.9562   51.4892 H   0  0  0  0  0  0  0  0  0  0  0  0
   62.7805   33.4620   53.3016 H   0  0  0  0  0  0  0  0  0  0  0  0
   64.4426   33.0748   52.7412 H   0  0  0  0  0  0  0  0  0  0  0  0
   63.8684   34.7769   52.7412 H   0  0  0  0  0  0  0  0  0  0  0  0
   58.7007   30.8612   46.2740 H   0  0  0  0  0  0  0  0  0  0  0  0
  1  2  1  0
  2  3  2  0
  2  4  1  0
  4  5  2  0
  5  6  1  0
  6  7  2  0
  7  8  1  0
  8  9  1  0
  9 10  1  0
 10 11  2  0
 10 12  1  0
 12 13  2  0
 13 14  1  0
 14 15  1  0
 14 16  1  0
 16 17  1  0
 16 18  2  0
 18 19  1  0
  8 20  2  0
 20  4  1  0
 18 12  1  0
  1 21  1  0
  1 22  1  0
  1 23  1  0
  5 24  1  0
  6 25  1  0
  7 26  1  0
  9 27  1  0
 13 28  1  0
 15 29  1  0
 15 30  1  0
 15 31  1  0
 20 32  1  0
M  END
>  <UniqueID>  (7) 
6

>  <SMILES>  (7) 
CC(=O)c1cccc(NC(=O)c2cn(C)c(Br)c2Br)c1

>  <Energy>  (7) 
64.04715711506583

>  <Genealogy>  (7) 
CC(=O)c1cccc(NC(=O)c2cn(C)c(Br)c2Br)c1 (3D coordinates assigned)
CC(=O)c1cccc(NC(=O)c2cn(C)c(Br)c2Br)c1 (optimized conformer: 64.04715711506583 kcal/mol)

>  <smiles>  (7) 
CC(=O)c1cccc(NC(=O)c2cn(C)c(Br)c2Br)c1

>  <score_type>  (7) 
oracle

>  <origin>  (7) 
adg

>  <m_score__min__energy>  (7) 
-7.75

>  <m_primary>  (7) 
energy

$$$$
7:0
     RDKit          3D

 56 59  0  0  0  0  0  0  0  0999 V2000
   52.4520   24.1080   44.8410 C   0  0  0  0  0  0  0  0  0  0  0  0
   53.2430   23.1390   45.5960 N   0  0  0  0  0  0  0  0  0  0  0  0
   54.8000   23.8120   45.9810 S   0  0  0  0  0  0  0  0  0  0  0  0
   54.8060   25.2670   45.6090 O   0  0  0  0  0  0  0  0  0  0  0  0
   54.9980   23.6910   47.4660 O   0  0  0  0  0  0  0  0  0  0  0  0
   56.1100   22.9940   45.0970 C   0  0  0  0  0  0  0  0  0  0  0  0
   55.9020   21.6760   44.6560 C   0  0  0  0  0  0  0  0  0  0  0  0
   56.9150   20.9730   44.0000 C   0  0  0  0  0  0  0  0  0  0  0  0
   58.1470   21.5800   43.7650 C   0  0  0  0  0  0  0  0  0  0  0  0
   58.3630   22.8990   44.1650 C   0  0  0  0  0  0  0  0  0  0  0  0
   57.3510   23.6230   44.8150 C   0  0  0  0  0  0  0  0  0  0  0  0
   57.6180   25.0350   45.1540 C   0  0  0  0  0  0  0  0  0  0  0  0
   57.7250   25.4230   46.4960 C   0  0  0  0  0  0  0  0  0  0  0  0
   57.9820   26.7560   46.8280 C   0  0  0  0  0  0  0  0  0  0  0  0
   58.1600   27.7150   45.8160 C   0  0  0  0  0  0  0  0  0  0  0  0
   58.4000   29.0990   46.1110 N   0  0  0  0  0  0  0  0  0  0  0  0
   57.6860   30.2250   45.5800 C   0  0  0  0  0  0  0  0  0  0  0  0
   56.6370   30.0460   44.9030 O   0  0  0  0  0  0  0  0  0  0  0  0
   58.1490   31.6010   45.8730 C   0  0  0  0  0  0  0  0  0  0  0  0
   57.4040   32.7150   45.4550 C   0  0  0  0  0  0  0  0  0  0  0  0
   57.8410   33.9720   45.7260 N   0  0  0  0  0  0  0  0  0  0  0  0
   58.9950   34.2120   46.4080 C   0  0  0  0  0  0  0  0  0  0  0  0
   59.4160   35.5270   46.6380 O   0  0  0  0  0  0  0  0  0  0  0  0
   60.0190   36.3310   45.6330 C   0  0  0  0  0  0  0  0  0  0  0  0
   59.7720   33.1310   46.8640 C   0  0  0  0  0  0  0  0  0  0  0  0
   61.0260   33.3460   47.6260 C   0  0  0  0  0  0  0  0  0  0  0  0
   61.0020   33.9740   48.8850 C   0  0  0  0  0  0  0  0  0  0  0  0
   62.1870   34.1650   49.6030 C   0  0  0  0  0  0  0  0  0  0  0  0
   63.4040   33.7270   49.0750 C   0  0  0  0  0  0  0  0  0  0  0  0
   64.5510   33.9110   49.7740 F   0  0  0  0  0  0  0  0  0  0  0  0
   63.4390   33.0960   47.8290 C   0  0  0  0  0  0  0  0  0  0  0  0
   62.2560   32.9020   47.1070 C   0  0  0  0  0  0  0  0  0  0  0  0
   59.3400   31.8240   46.5810 C   0  0  0  0  0  0  0  0  0  0  0  0
   58.0430   27.3270   44.4760 C   0  0  0  0  0  0  0  0  0  0  0  0
   57.7870   25.9940   44.1420 C   0  0  0  0  0  0  0  0  0  0  0  0
   57.7100   25.6370   42.8340 F   0  0  0  0  0  0  0  0  0  0  0  0
   51.9146   24.7663   45.5394 H   0  0  0  0  0  0  0  0  0  0  0  0
   53.1187   24.7116   44.2076 H   0  0  0  0  0  0  0  0  0  0  0  0
   51.7272   23.5756   44.2076 H   0  0  0  0  0  0  0  0  0  0  0  0
   52.7440   22.9250   46.4890 H   0  0  0  0  0  0  0  0  0  0  0  0
   54.9295   21.1921   44.8296 H   0  0  0  0  0  0  0  0  0  0  0  0
   56.7400   19.9389   43.6685 H   0  0  0  0  0  0  0  0  0  0  0  0
   58.9496   21.0190   43.2639 H   0  0  0  0  0  0  0  0  0  0  0  0
   59.3348   23.3758   43.9694 H   0  0  0  0  0  0  0  0  0  0  0  0
   57.6060   24.6741   47.2929 H   0  0  0  0  0  0  0  0  0  0  0  0
   58.0452   27.0556   47.8845 H   0  0  0  0  0  0  0  0  0  0  0  0
   56.4622   32.5692   44.9056 H   0  0  0  0  0  0  0  0  0  0  0  0
   60.6146   37.1251   46.1071 H   0  0  0  0  0  0  0  0  0  0  0  0
   60.6731   35.7062   45.0071 H   0  0  0  0  0  0  0  0  0  0  0  0
   59.2360   36.7840   45.0071 H   0  0  0  0  0  0  0  0  0  0  0  0
   60.0457   34.3167   49.3070 H   0  0  0  0  0  0  0  0  0  0  0  0
   62.1607   34.6607   50.5846 H   0  0  0  0  0  0  0  0  0  0  0  0
   64.3979   32.7511   47.4148 H   0  0  0  0  0  0  0  0  0  0  0  0
   62.2880   32.3999   46.1288 H   0  0  0  0  0  0  0  0  0  0  0  0
   59.9416   30.9669   46.9179 H   0  0  0  0  0  0  0  0  0  0  0  0
   58.1534   28.0774   43.6793 H   0  0  0  0  0  0  0  0  0  0  0  0
  1  2  1  0
  2  3  1  0
  3  4  2  0
  3  5  2  0
  3  6  1  0
  6  7  2  0
  7  8  1  0
  8  9  2  0
  9 10  1  0
 10 11  2  0
 11 12  1  0
 12 13  2  0
 13 14  1  0
 14 15  2  0
 15 16  1  0
 16 17  1  0
 17 18  2  0
 17 19  1  0
 19 20  2  0
 20 21  1  0
 21 22  2  0
 22 23  1  0
 23 24  1  0
 22 25  1  0
 25 26  1  0
 26 27  2  0
 27 28  1  0
 28 29  2  0
 29 30  1  0
 29 31  1  0
 31 32  2  0
 25 33  2  0
 15 34  1  0
 34 35  2  0
 35 36  1  0
 11  6  1  0
 35 12  1  0
 33 19  1  0
 32 26  1  0
  1 37  1  0
  1 38  1  0
  1 39  1  0
  2 40  1  0
  7 41  1  0
  8 42  1  0
  9 43  1  0
 10 44  1  0
 13 45  1  0
 14 46  1  0
 20 47  1  0
 24 48  1  0
 24 49  1  0
 24 50  1  0
 27 51  1  0
 28 52  1  0
 31 53  1  0
 32 54  1  0
 33 55  1  0
 34 56  1  0
M  CHG  1  16  -1
M  END
>  <UniqueID>  (8) 
7

>  <SMILES>  (8) 
CNS(=O)(=O)c1ccccc1-c1ccc([N-]C(=O)c2cnc(OC)c(-c3ccc(F)cc3)c2)cc1F

>  <Energy>  (8) 
77.45853979969066

>  <Genealogy>  (8) 
CNS(=O)(=O)c1ccccc1-c1ccc([N-]C(=O)c2cnc(OC)c(-c3ccc(F)cc3)c2)cc1F (protonated)
CNS(=O)(=O)c1ccccc1-c1ccc([N-]C(=O)c2cnc(OC)c(-c3ccc(F)cc3)c2)cc1F (3D coordinates assigned)
CNS(=O)(=O)c1ccccc1-c1ccc([N-]C(=O)c2cnc(OC)c(-c3ccc(F)cc3)c2)cc1F (optimized conformer: 77.45853979969066 kcal/mol)

>  <smiles>  (8) 
CNS(=O)(=O)c1ccccc1-c1ccc(NC(=O)c2cnc(OC)c(-c3ccc(F)cc3)c2)cc1F

>  <score_type>  (8) 
oracle

>  <origin>  (8) 
adg

>  <m_score__min__energy>  (8) 
-10.880000000000001

>  <m_primary>  (8) 
energy

$$$$
8:0
     RDKit          3D

 42 44  0  0  0  0  0  0  0  0999 V2000
   55.6260   29.7620   44.8600 O   0  0  0  0  0  0  0  0  0  0  0  0
   56.8530   29.5330   44.6760 C   0  0  0  0  0  0  0  0  0  0  0  0
   57.5890   28.6370   45.6210 C   0  0  0  0  0  0  0  0  0  0  0  0
   58.7520   29.3930   46.2040 C   0  0  0  0  0  0  0  0  0  0  0  0
   58.5400   30.3490   47.2080 C   0  0  0  0  0  0  0  0  0  0  0  0
   59.6010   31.1290   47.6760 C   0  0  0  0  0  0  0  0  0  0  0  0
   60.8930   30.9740   47.1410 C   0  0  0  0  0  0  0  0  0  0  0  0
   62.0130   31.8270   47.6120 C   0  0  0  0  0  0  0  0  0  0  0  0
   62.3570   33.0040   46.9190 C   0  0  0  0  0  0  0  0  0  0  0  0
   63.4050   33.8110   47.3720 C   0  0  0  0  0  0  0  0  0  0  0  0
   64.1190   33.4560   48.5190 C   0  0  0  0  0  0  0  0  0  0  0  0
   63.7880   32.2920   49.2140 C   0  0  0  0  0  0  0  0  0  0  0  0
   62.7420   31.4800   48.7660 C   0  0  0  0  0  0  0  0  0  0  0  0
   61.1000   30.0140   46.1330 C   0  0  0  0  0  0  0  0  0  0  0  0
   60.0380   29.2350   45.6670 C   0  0  0  0  0  0  0  0  0  0  0  0
   57.5630   30.2070   43.6310 N   0  0  0  0  0  0  0  0  0  0  0  0
   57.2610   31.5920   43.2840 C   0  0  0  0  0  0  0  0  0  0  0  0
   57.7590   32.5000   44.3750 C   0  0  0  0  0  0  0  0  0  0  0  0
   58.8870   33.3120   44.1640 C   0  0  0  0  0  0  0  0  0  0  0  0
   59.3060   34.2070   45.1530 C   0  0  0  0  0  0  0  0  0  0  0  0
   58.5990   34.3070   46.3530 C   0  0  0  0  0  0  0  0  0  0  0  0
   57.4650   33.5160   46.5640 C   0  0  0  0  0  0  0  0  0  0  0  0
   57.0420   32.6200   45.5760 C   0  0  0  0  0  0  0  0  0  0  0  0
   56.9139   28.3179   46.4287 H   0  0  0  0  0  0  0  0  0  0  0  0
   57.9535   27.7486   45.0845 H   0  0  0  0  0  0  0  0  0  0  0  0
   57.5331   30.4856   47.6294 H   0  0  0  0  0  0  0  0  0  0  0  0
   59.4245   31.8703   48.4693 H   0  0  0  0  0  0  0  0  0  0  0  0
   61.7978   33.2900   46.0160 H   0  0  0  0  0  0  0  0  0  0  0  0
   63.6679   34.7277   46.8239 H   0  0  0  0  0  0  0  0  0  0  0  0
   64.9419   34.0937   48.8742 H   0  0  0  0  0  0  0  0  0  0  0  0
   64.3515   32.0128   50.1165 H   0  0  0  0  0  0  0  0  0  0  0  0
   62.4866   30.5638   49.3185 H   0  0  0  0  0  0  0  0  0  0  0  0
   62.1055   29.8759   45.7088 H   0  0  0  0  0  0  0  0  0  0  0  0
   60.2115   28.4929   44.8738 H   0  0  0  0  0  0  0  0  0  0  0  0
   58.4960   29.8320   43.3440 H   0  0  0  0  0  0  0  0  0  0  0  0
   57.7574   31.8497   42.3368 H   0  0  0  0  0  0  0  0  0  0  0  0
   56.1736   31.7141   43.1719 H   0  0  0  0  0  0  0  0  0  0  0  0
   59.4422   33.2429   43.2169 H   0  0  0  0  0  0  0  0  0  0  0  0
   60.1944   34.8337   44.9855 H   0  0  0  0  0  0  0  0  0  0  0  0
   58.9338   35.0076   47.1321 H   0  0  0  0  0  0  0  0  0  0  0  0
   56.9053   33.5983   47.5073 H   0  0  0  0  0  0  0  0  0  0  0  0
   56.1437   32.0069   45.7411 H   0  0  0  0  0  0  0  0  0  0  0  0
  1  2  2  0
  2  3  1  0
  3  4  1  0
  4  5  2  0
  5  6  1  0
  6  7  2  0
  7  8  1  0
  8  9  2  0
  9 10  1  0
 10 11  2  0
 11 12  1  0
 12 13  2  0
  7 14  1  0
 14 15  2  0
  2 16  1  0
 16 17  1  0
 17 18  1  0
 18 19  2  0
 19 20  1  0
 20 21  2  0
 21 22  1  0
 22 23  2  0
 15  4  1  0
 23 18  1  0
 13  8  1  0
  3 24  1  0
  3 25  1  0
  5 26  1  0
  6 27  1  0
  9 28  1  0
 10 29  1  0
 11 30  1  0
 12 31  1  0
 13 32  1  0
 14 33  1  0
 15 34  1  0
 16 35  1  0
 17 36  1  0
 17 37  1  0
 19 38  1  0
 20 39  1  0
 21 40  1  0
 22 41  1  0
 23 42  1  0
M  END
>  <UniqueID>  (9) 
8

>  <SMILES>  (9) 
O=C(Cc1ccc(-c2ccccc2)cc1)NCc1ccccc1

>  <Energy>  (9) 
41.23268690675804

>  <Genealogy>  (9) 
O=C(Cc1ccc(-c2ccccc2)cc1)NCc1ccccc1 (3D coordinates assigned)
O=C(Cc1ccc(-c2ccccc2)cc1)NCc1ccccc1 (optimized conformer: 41.23268690675804 kcal/mol)

>  <smiles>  (9) 
O=C(Cc1ccc(-c2ccccc2)cc1)NCc1ccccc1

>  <score_type>  (9) 
oracle

>  <origin>  (9) 
adg

>  <m_score__min__energy>  (9) 
-8.3900000000000006

>  <m_primary>  (9) 
energy

$$$$
9:0
     RDKit          3D

 59 62  0  0  0  0  0  0  0  0999 V2000
   51.1390   24.4550   44.0900 C   0  0  0  0  0  0  0  0  0  0  0  0
   51.9690   24.5310   45.2450 O   0  0  0  0  0  0  0  0  0  0  0  0
   53.3590   24.4080   45.1840 C   0  0  0  0  0  0  0  0  0  0  0  0
   53.9280   23.4810   44.3070 C   0  0  0  0  0  0  0  0  0  0  0  0
   55.3180   23.3700   44.2630 C   0  0  0  0  0  0  0  0  0  0  0  0
   55.9130   22.4400   43.4040 O   0  0  0  0  0  0  0  0  0  0  0  0
   57.2110   21.9050   43.6370 C   0  0  0  0  0  0  0  0  0  0  0  0
   56.0800   24.1700   45.0570 N   0  0  0  0  0  0  0  0  0  0  0  0
   55.5180   25.0760   45.9050 C   0  0  0  0  0  0  0  0  0  0  0  0
   56.2510   25.8510   46.6500 N   0  0  0  0  0  0  0  0  0  0  0  0
   57.6830   25.9800   46.6120 C   0  0  0  0  0  0  0  0  0  0  0  0
   58.2900   25.7160   45.5400 O   0  0  0  0  0  0  0  0  0  0  0  0
   58.4150   26.3840   47.7750 N   0  0  0  0  0  0  0  0  0  0  0  0
   60.0360   26.9940   47.7730 S   0  0  0  0  0  0  0  0  0  0  0  0
   60.7980   26.4970   46.5770 O   0  0  0  0  0  0  0  0  0  0  0  0
   60.7350   26.5010   49.0070 O   0  0  0  0  0  0  0  0  0  0  0  0
   59.9730   28.7570   47.7960 C   0  0  0  0  0  0  0  0  0  0  0  0
   59.4780   29.4750   48.8780 C   0  0  0  0  0  0  0  0  0  0  0  0
   59.3710   30.7720   48.4340 C   0  0  0  0  0  0  0  0  0  0  0  0
   58.8530   31.8960   49.0740 C   0  0  0  0  0  0  0  0  0  0  0  0
   58.7680   33.0900   48.3380 C   0  0  0  0  0  0  0  0  0  0  0  0
   59.1760   33.1270   46.9890 C   0  0  0  0  0  0  0  0  0  0  0  0
   59.6830   31.9730   46.3650 C   0  0  0  0  0  0  0  0  0  0  0  0
   59.7950   30.8040   47.1290 C   0  0  0  0  0  0  0  0  0  0  0  0
   60.2000   29.5760   46.7290 N   0  0  0  0  0  0  0  0  0  0  0  0
   60.6490   29.1990   45.3780 C   0  0  0  0  0  0  0  0  0  0  0  0
   59.6070   28.3390   44.6180 C   0  0  0  0  0  0  0  0  0  0  0  0
   58.3050   29.0390   44.1590 C   0  0  0  0  0  0  0  0  0  0  0  0
   58.4540   30.5590   43.9830 C   0  0  0  0  0  0  0  0  0  0  0  0
   57.1090   31.1650   43.5590 C   0  0  0  0  0  0  0  0  0  0  0  0
   56.0970   30.8610   44.5040 O   0  0  0  0  0  0  0  0  0  0  0  0
   55.8540   29.4660   44.5240 C   0  0  0  0  0  0  0  0  0  0  0  0
   57.0860   28.7050   45.0320 C   0  0  0  0  0  0  0  0  0  0  0  0
   54.1650   25.1820   45.9650 N   0  0  0  0  0  0  0  0  0  0  0  0
   50.0878   24.3587   44.3995 H   0  0  0  0  0  0  0  0  0  0  0  0
   51.2622   25.3682   43.4892 H   0  0  0  0  0  0  0  0  0  0  0  0
   51.4260   23.5794   43.4892 H   0  0  0  0  0  0  0  0  0  0  0  0
   53.2936   22.8522   43.6650 H   0  0  0  0  0  0  0  0  0  0  0  0
   57.3884   21.8319   44.7201 H   0  0  0  0  0  0  0  0  0  0  0  0
   57.2817   20.9044   43.1855 H   0  0  0  0  0  0  0  0  0  0  0  0
   57.9662   22.5652   43.1855 H   0  0  0  0  0  0  0  0  0  0  0  0
   59.2257   29.0883   49.8764 H   0  0  0  0  0  0  0  0  0  0  0  0
   58.5212   31.8502   50.1218 H   0  0  0  0  0  0  0  0  0  0  0  0
   58.3808   34.0013   48.8173 H   0  0  0  0  0  0  0  0  0  0  0  0
   59.0972   34.0653   46.4203 H   0  0  0  0  0  0  0  0  0  0  0  0
   59.9832   31.9879   45.3068 H   0  0  0  0  0  0  0  0  0  0  0  0
   60.8359   30.1165   44.8007 H   0  0  0  0  0  0  0  0  0  0  0  0
   61.5611   28.5941   45.4884 H   0  0  0  0  0  0  0  0  0  0  0  0
   60.1009   27.9392   43.7201 H   0  0  0  0  0  0  0  0  0  0  0  0
   59.2786   27.5844   45.3479 H   0  0  0  0  0  0  0  0  0  0  0  0
   58.1130   28.6152   43.1622 H   0  0  0  0  0  0  0  0  0  0  0  0
   58.7733   31.0078   44.9352 H   0  0  0  0  0  0  0  0  0  0  0  0
   59.2066   30.7639   43.2073 H   0  0  0  0  0  0  0  0  0  0  0  0
   57.2142   32.2573   43.4827 H   0  0  0  0  0  0  0  0  0  0  0  0
   56.8219   30.7379   42.5868 H   0  0  0  0  0  0  0  0  0  0  0  0
   55.0024   29.2579   45.1884 H   0  0  0  0  0  0  0  0  0  0  0  0
   55.6313   29.1324   43.4997 H   0  0  0  0  0  0  0  0  0  0  0  0
   57.2916   28.9973   46.0723 H   0  0  0  0  0  0  0  0  0  0  0  0
   56.8898   27.6239   44.9808 H   0  0  0  0  0  0  0  0  0  0  0  0
  1  2  1  0
  2  3  1  0
  3  4  1  0
  4  5  2  0
  5  6  1  0
  6  7  1  0
  5  8  1  0
  8  9  1  0
  9 10  2  3
 10 11  1  0
 11 12  2  0
 11 13  1  0
 13 14  1  0
 14 15  2  0
 14 16  2  0
 14 17  1  0
 17 18  2  0
 18 19  1  0
 19 20  2  0
 20 21  1  0
 21 22  2  0
 22 23  1  0
 23 24  2  0
 24 25  1  0
 25 26  1  0
 26 27  1  0
 27 28  1  0
 28 29  1  0
 29 30  1  0
 30 31  1  0
 31 32  1  0
 32 33  1  0
  9 34  1  0
 34  3  2  0
 25 17  1  0
 33 28  1  0
 24 19  1  0
  1 35  1  0
  1 36  1  0
  1 37  1  0
  4 38  1  0
  7 39  1  0
  7 40  1  0
  7 41  1  0
 18 42  1  0
 20 43  1  0
 21 44  1  0
 22 45  1  0
 23 46  1  0
 26 47  1  0
 26 48  1  0
 27 49  1  0
 27 50  1  0
 28 51  1  0
 29 52  1  0
 29 53  1  0
 30 54  1  0
 30 55  1  0
 32 56  1  0
 32 57  1  0
 33 58  1  0
 33 59  1  0
M  CHG  2   8  -1  13  -1
M  END
>  <UniqueID>  (10) 
9

>  <SMILES>  (10) 
COc1cc(OC)[n-]c(=NC(=O)[N-]S(=O)(=O)c2cc3ccccc3n2CCC2CCOCC2)n1

>  <Energy>  (10) 
97.03486724773914

>  <Genealogy>  (10) 
COc1cc(OC)[n-]c(=NC(=O)[N-]S(=O)(=O)c2cc3ccccc3n2CCC2CCOCC2)n1 (protonated)
COc1cc(OC)[n-]c(=NC(=O)[N-]S(=O)(=O)c2cc3ccccc3n2CCC2CCOCC2)n1 (3D coordinates assigned)
COc1cc(OC)[n-]c(=NC(=O)[N-]S(=O)(=O)c2cc3ccccc3n2CCC2CCOCC2)n1 (nonaromatic ring conformer: 97.03486724773914 kcal/mol)

>  <smiles>  (10) 
COc1cc(OC)[nH]c(=NC(=O)NS(=O)(=O)c2cc3ccccc3n2CCC2CCOCC2)n1

>  <score_type>  (10) 
oracle

>  <origin>  (10) 
adg

>  <m_score__min__energy>  (10) 
-12.880000000000001

>  <m_primary>  (10) 
energy

$$$$
10:0
     RDKit          3D

 47 49  0  0  0  0  0  0  0  0999 V2000
   62.4060   33.6290   48.7680 C   0  0  0  0  0  0  0  0  0  0  0  0
   62.5650   33.0250   47.3590 C   0  0  0  0  0  0  0  0  0  0  0  0
   63.3170   31.6830   47.4850 C   0  0  0  0  0  0  0  0  0  0  0  0
   63.3960   33.9670   46.4630 C   0  0  0  0  0  0  0  0  0  0  0  0
   61.2400   32.7810   46.7540 N   0  0  0  0  0  0  0  0  0  0  0  0
   60.2090   33.7750   46.5980 C   0  0  0  0  0  0  0  0  0  0  0  0
   60.4050   34.9610   46.9760 O   0  0  0  0  0  0  0  0  0  0  0  0
   58.9050   33.4300   45.9940 C   0  0  0  0  0  0  0  0  0  0  0  0
   57.8210   34.2730   45.7190 C   0  0  0  0  0  0  0  0  0  0  0  0
   56.8000   33.5780   45.1560 N   0  0  0  0  0  0  0  0  0  0  0  0
   57.2340   32.3120   45.0730 C   0  0  0  0  0  0  0  0  0  0  0  0
   56.5550   31.2490   44.5770 N   0  0  0  0  0  0  0  0  0  0  0  0
   57.1710   30.0280   44.5800 C   0  0  0  0  0  0  0  0  0  0  0  0
   58.4910   29.8930   45.0860 C   0  0  0  0  0  0  0  0  0  0  0  0
   59.0520   28.7190   45.1020 N   0  0  0  0  0  0  0  0  0  0  0  0
   58.4370   27.4790   45.4900 C   0  0  0  0  0  0  0  0  0  0  0  0
   58.3490   27.0780   46.8360 C   0  0  0  0  0  0  0  0  0  0  0  0
   57.7640   25.8520   47.1690 C   0  0  0  0  0  0  0  0  0  0  0  0
   57.2830   25.0030   46.1640 C   0  0  0  0  0  0  0  0  0  0  0  0
   56.5290   23.4700   46.5900 S   0  0  0  0  0  0  0  0  0  0  0  0
   56.4410   22.4360   45.1470 C   0  0  0  0  0  0  0  0  0  0  0  0
   57.3370   22.7820   47.6530 O   0  0  0  0  0  0  0  0  0  0  0  0
   55.1440   23.7140   47.1210 O   0  0  0  0  0  0  0  0  0  0  0  0
   57.3930   25.3890   44.8230 C   0  0  0  0  0  0  0  0  0  0  0  0
   57.9780   26.6140   44.4880 C   0  0  0  0  0  0  0  0  0  0  0  0
   59.1340   30.9950   45.5880 N   0  0  0  0  0  0  0  0  0  0  0  0
   58.4910   32.1870   45.5670 C   0  0  0  0  0  0  0  0  0  0  0  0
   62.6095   32.8558   49.5235 H   0  0  0  0  0  0  0  0  0  0  0  0
   63.1160   34.4598   48.8931 H   0  0  0  0  0  0  0  0  0  0  0  0
   61.3789   34.0025   48.8931 H   0  0  0  0  0  0  0  0  0  0  0  0
   63.4543   31.4381   48.5486 H   0  0  0  0  0  0  0  0  0  0  0  0
   62.7328   30.8882   46.9981 H   0  0  0  0  0  0  0  0  0  0  0  0
   64.2999   31.7663   46.9981 H   0  0  0  0  0  0  0  0  0  0  0  0
   63.9919   34.6425   47.0944 H   0  0  0  0  0  0  0  0  0  0  0  0
   64.0678   33.3709   45.8279 H   0  0  0  0  0  0  0  0  0  0  0  0
   62.7207   34.5592   45.8279 H   0  0  0  0  0  0  0  0  0  0  0  0
   61.0320   31.8160   46.4140 H   0  0  0  0  0  0  0  0  0  0  0  0
   57.7998   35.3522   45.9306 H   0  0  0  0  0  0  0  0  0  0  0  0
   55.8750   33.9520   44.8500 H   0  0  0  0  0  0  0  0  0  0  0  0
   56.6417   29.1466   44.1888 H   0  0  0  0  0  0  0  0  0  0  0  0
   58.7417   27.7312   47.6292 H   0  0  0  0  0  0  0  0  0  0  0  0
   57.6813   25.5533   48.2244 H   0  0  0  0  0  0  0  0  0  0  0  0
   56.3515   21.3838   45.4548 H   0  0  0  0  0  0  0  0  0  0  0  0
   55.5636   22.7183   44.5466 H   0  0  0  0  0  0  0  0  0  0  0  0
   57.3535   22.5660   44.5466 H   0  0  0  0  0  0  0  0  0  0  0  0
   57.0177   24.7260   44.0296 H   0  0  0  0  0  0  0  0  0  0  0  0
   58.0785   26.9005   43.4307 H   0  0  0  0  0  0  0  0  0  0  0  0
  1  2  1  0
  2  3  1  0
  2  4  1  0
  2  5  1  0
  5  6  1  0
  6  7  2  0
  6  8  1  0
  8  9  2  0
  9 10  1  0
 10 11  1  0
 11 12  1  0
 12 13  2  0
 13 14  1  0
 14 15  2  3
 15 16  1  0
 16 17  2  0
 17 18  1  0
 18 19  2  0
 19 20  1  0
 20 21  1  0
 20 22  2  0
 20 23  2  0
 19 24  1  0
 24 25  2  0
 14 26  1  0
 26 27  1  0
 27  8  1  0
 27 11  2  0
 25 16  1  0
  1 28  1  0
  1 29  1  0
  1 30  1  0
  3 31  1  0
  3 32  1  0
  3 33  1  0
  4 34  1  0
  4 35  1  0
  4 36  1  0
  5 37  1  0
  9 38  1  0
 10 39  1  0
 13 40  1  0
 17 41  1  0
 18 42  1  0
 21 43  1  0
 21 44  1  0
 21 45  1  0
 24 46  1  0
 25 47  1  0
M  CHG  1  26  -1
M  END
>  <UniqueID>  (11) 
10

>  <SMILES>  (11) 
CC(C)(C)NC(=O)c1c[nH]c2ncc(=Nc3ccc(S(C)(=O)=O)cc3)[n-]c12

>  <Energy>  (11) 
86.04545656710587

>  <Genealogy>  (11) 
CC(C)(C)NC(=O)c1c[nH]c2ncc(=Nc3ccc(S(C)(=O)=O)cc3)[n-]c12 (protonated)
CC(C)(C)NC(=O)c1c[nH]c2ncc(=Nc3ccc(S(C)(=O)=O)cc3)[n-]c12 (3D coordinates assigned)
CC(C)(C)NC(=O)c1c[nH]c2ncc(=Nc3ccc(S(C)(=O)=O)cc3)[n-]c12 (optimized conformer: 86.04545656710587 kcal/mol)

>  <smiles>  (11) 
CC(C)(C)NC(=O)c1c[nH]c2ncc(=Nc3ccc(S(C)(=O)=O)cc3)[nH]c12

>  <score_type>  (11) 
oracle

>  <origin>  (11) 
adg

>  <m_score__min__energy>  (11) 
-9.3300000000000001

>  <m_primary>  (11) 
energy

$$$$
11:0
     RDKit          3D

 51 53  0  0  0  0  0  0  0  0999 V2000
   64.7640   32.8060   49.3980 C   0  0  0  0  0  0  0  0  0  0  0  0
   64.1110   33.7230   48.5250 O   0  0  0  0  0  0  0  0  0  0  0  0
   62.7300   33.7380   48.2780 C   0  0  0  0  0  0  0  0  0  0  0  0
   62.2680   33.2490   47.0510 C   0  0  0  0  0  0  0  0  0  0  0  0
   60.9010   33.2250   46.7640 C   0  0  0  0  0  0  0  0  0  0  0  0
   59.9700   33.7030   47.6930 C   0  0  0  0  0  0  0  0  0  0  0  0
   58.6100   33.6660   47.3390 O   0  0  0  0  0  0  0  0  0  0  0  0
   58.0570   33.9880   46.0600 C   0  0  0  0  0  0  0  0  0  0  0  0
   57.9120   32.7730   45.1800 C   0  0  0  0  0  0  0  0  0  0  0  0
   58.0490   31.4710   45.6860 C   0  0  0  0  0  0  0  0  0  0  0  0
   57.9660   30.3700   44.8220 C   0  0  0  0  0  0  0  0  0  0  0  0
   58.1400   28.9930   45.3490 C   0  0  0  0  0  0  0  0  0  0  0  0
   59.4220   28.4810   45.6100 C   0  0  0  0  0  0  0  0  0  0  0  0
   59.5750   27.1770   46.0870 C   0  0  0  0  0  0  0  0  0  0  0  0
   58.4550   26.3750   46.3150 C   0  0  0  0  0  0  0  0  0  0  0  0
   57.1610   26.8690   46.0710 C   0  0  0  0  0  0  0  0  0  0  0  0
   55.9680   26.0290   46.3280 C   0  0  0  0  0  0  0  0  0  0  0  0
   54.8510   26.3420   45.8290 O   0  0  0  0  0  0  0  0  0  0  0  0
   56.0800   24.8520   47.1350 N   0  0  0  0  0  0  0  0  0  0  0  0
   56.3780   23.2820   46.4680 S   0  0  0  0  0  0  0  0  0  0  0  0
   57.3780   23.4610   45.0020 C   0  0  0  0  0  0  0  0  0  0  0  0
   55.0690   22.6300   46.1020 O   0  0  0  0  0  0  0  0  0  0  0  0
   57.1120   22.4330   47.4750 O   0  0  0  0  0  0  0  0  0  0  0  0
   57.0150   28.1810   45.5850 C   0  0  0  0  0  0  0  0  0  0  0  0
   57.7380   30.5930   43.4580 C   0  0  0  0  0  0  0  0  0  0  0  0
   57.6200   31.9040   42.9820 C   0  0  0  0  0  0  0  0  0  0  0  0
   57.3970   32.1630   41.5280 C   0  0  0  0  0  0  0  0  0  0  0  0
   57.7170   32.9490   43.8480 N   0  0  0  0  0  0  0  0  0  0  0  0
   60.4300   34.2030   48.9280 C   0  0  0  0  0  0  0  0  0  0  0  0
   61.7990   34.2180   49.2190 C   0  0  0  0  0  0  0  0  0  0  0  0
   64.5634   33.0877   50.4422 H   0  0  0  0  0  0  0  0  0  0  0  0
   64.3848   31.7901   49.2129 H   0  0  0  0  0  0  0  0  0  0  0  0
   65.8480   32.8321   49.2129 H   0  0  0  0  0  0  0  0  0  0  0  0
   62.9879   32.8801   46.3055 H   0  0  0  0  0  0  0  0  0  0  0  0
   60.5534   32.8269   45.7993 H   0  0  0  0  0  0  0  0  0  0  0  0
   57.0648   34.4396   46.2066 H   0  0  0  0  0  0  0  0  0  0  0  0
   58.7449   34.6862   45.5608 H   0  0  0  0  0  0  0  0  0  0  0  0
   58.2216   31.3144   46.7610 H   0  0  0  0  0  0  0  0  0  0  0  0
   60.3085   29.1092   45.4381 H   0  0  0  0  0  0  0  0  0  0  0  0
   60.5819   26.7804   46.2838 H   0  0  0  0  0  0  0  0  0  0  0  0
   58.5858   25.3486   46.6884 H   0  0  0  0  0  0  0  0  0  0  0  0
   58.4227   23.6480   45.2913 H   0  0  0  0  0  0  0  0  0  0  0  0
   57.3223   22.5386   44.4053 H   0  0  0  0  0  0  0  0  0  0  0  0
   57.0058   24.3068   44.4053 H   0  0  0  0  0  0  0  0  0  0  0  0
   56.0083   28.5775   45.3868 H   0  0  0  0  0  0  0  0  0  0  0  0
   57.6522   29.7430   42.7651 H   0  0  0  0  0  0  0  0  0  0  0  0
   56.6835   32.9916   41.4084 H   0  0  0  0  0  0  0  0  0  0  0  0
   58.3522   32.4301   41.0524 H   0  0  0  0  0  0  0  0  0  0  0  0
   56.9910   31.2580   41.0524 H   0  0  0  0  0  0  0  0  0  0  0  0
   59.7094   34.5834   49.6669 H   0  0  0  0  0  0  0  0  0  0  0  0
   62.1490   34.6064   50.1868 H   0  0  0  0  0  0  0  0  0  0  0  0
  1  2  1  0
  2  3  1  0
  3  4  2  0
  4  5  1  0
  5  6  2  0
  6  7  1  0
  7  8  1  0
  8  9  1  0
  9 10  2  0
 10 11  1  0
 11 12  1  0
 12 13  2  0
 13 14  1  0
 14 15  2  0
 15 16  1  0
 16 17  1  0
 17 18  2  0
 17 19  1  0
 19 20  1  0
 20 21  1  0
 20 22  2  0
 20 23  2  0
 16 24  2  0
 11 25  2  0
 25 26  1  0
 26 27  1  0
 26 28  2  0
  6 29  1  0
 29 30  2  0
 30  3  1  0
 28  9  1  0
 24 12  1  0
  1 31  1  0
  1 32  1  0
  1 33  1  0
  4 34  1  0
  5 35  1  0
  8 36  1  0
  8 37  1  0
 10 38  1  0
 13 39  1  0
 14 40  1  0
 15 41  1  0
 21 42  1  0
 21 43  1  0
 21 44  1  0
 24 45  1  0
 25 46  1  0
 27 47  1  0
 27 48  1  0
 27 49  1  0
 29 50  1  0
 30 51  1  0
M  CHG  1  19  -1
M  END
>  <UniqueID>  (12) 
11

>  <SMILES>  (12) 
COc1ccc(OCc2cc(-c3cccc(C(=O)[N-]S(C)(=O)=O)c3)cc(C)n2)cc1

>  <Energy>  (12) 
55.85158919451089

>  <Genealogy>  (12) 
COc1ccc(OCc2cc(-c3cccc(C(=O)[N-]S(C)(=O)=O)c3)cc(C)n2)cc1 (protonated)
COc1ccc(OCc2cc(-c3cccc(C(=O)[N-]S(C)(=O)=O)c3)cc(C)n2)cc1 (3D coordinates assigned)
COc1ccc(OCc2cc(-c3cccc(C(=O)[N-]S(C)(=O)=O)c3)cc(C)n2)cc1 (optimized conformer: 55.85158919451089 kcal/mol)

>  <smiles>  (12) 
COc1ccc(OCc2cc(-c3cccc(C(=O)NS(C)(=O)=O)c3)cc(C)n2)cc1

>  <score_type>  (12) 
oracle

>  <origin>  (12) 
adg

>  <m_score__min__energy>  (12) 
-11.43

>  <m_primary>  (12) 
energy

$$$$
12:0
     RDKit          3D

 60 63  0  0  0  0  0  0  0  0999 V2000
   60.5150   32.4310   49.0940 O   0  0  0  0  0  0  0  0  0  0  0  0
   59.9110   33.3780   49.6690 C   0  0  0  0  0  0  0  0  0  0  0  0
   59.5500   34.5500   48.9180 N   0  0  0  0  0  0  0  0  0  0  0  0
   59.2020   34.5320   47.5210 C   0  0  0  0  0  0  0  0  0  0  0  0
   59.8700   35.3440   46.5880 C   0  0  0  0  0  0  0  0  0  0  0  0
   59.5630   35.2560   45.2290 C   0  0  0  0  0  0  0  0  0  0  0  0
   58.6180   34.3310   44.7820 C   0  0  0  0  0  0  0  0  0  0  0  0
   57.9730   33.4800   45.6930 C   0  0  0  0  0  0  0  0  0  0  0  0
   57.0230   32.4160   45.1940 C   0  0  0  0  0  0  0  0  0  0  0  0
   57.7090   31.2660   44.5610 N   0  0  0  0  0  0  0  0  0  0  0  0
   58.7790   30.6220   45.3540 C   0  0  0  0  0  0  0  0  0  0  0  0
   58.2920   29.4190   46.1990 C   0  0  0  0  0  0  0  0  0  0  0  0
   57.0250   28.7510   45.6400 C   0  0  0  0  0  0  0  0  0  0  0  0
   56.9200   27.3160   46.0770 C   0  0  0  0  0  0  0  0  0  0  0  0
   57.9280   26.7100   46.5310 O   0  0  0  0  0  0  0  0  0  0  0  0
   55.6530   26.6560   45.9930 N   0  0  0  0  0  0  0  0  0  0  0  0
   55.4900   25.2050   45.9670 C   0  0  0  0  0  0  0  0  0  0  0  0
   56.3590   24.5620   44.8840 C   0  0  0  0  0  0  0  0  0  0  0  0
   55.4900   23.5160   44.1870 C   0  0  0  0  0  0  0  0  0  0  0  0
   54.1460   23.5040   44.9080 C   0  0  0  0  0  0  0  0  0  0  0  0
   54.0540   24.8400   45.6170 C   0  0  0  0  0  0  0  0  0  0  0  0
   56.9680   28.8880   44.1180 C   0  0  0  0  0  0  0  0  0  0  0  0
   56.8620   30.3730   43.7310 C   0  0  0  0  0  0  0  0  0  0  0  0
   58.2430   33.6150   47.0650 C   0  0  0  0  0  0  0  0  0  0  0  0
   59.6330   33.2980   51.1220 C   0  0  0  0  0  0  0  0  0  0  0  0
   58.3350   33.0200   51.5940 C   0  0  0  0  0  0  0  0  0  0  0  0
   58.0890   32.9270   52.9680 C   0  0  0  0  0  0  0  0  0  0  0  0
   59.1280   33.1140   53.8840 C   0  0  0  0  0  0  0  0  0  0  0  0
   60.4200   33.3910   53.4270 C   0  0  0  0  0  0  0  0  0  0  0  0
   60.6740   33.4780   52.0550 C   0  0  0  0  0  0  0  0  0  0  0  0
   59.5950   35.4760   49.4030 H   0  0  0  0  0  0  0  0  0  0  0  0
   60.6386   36.0524   46.9305 H   0  0  0  0  0  0  0  0  0  0  0  0
   60.0670   35.9172   44.5087 H   0  0  0  0  0  0  0  0  0  0  0  0
   58.3776   34.2687   43.7104 H   0  0  0  0  0  0  0  0  0  0  0  0
   56.4353   32.0453   46.0468 H   0  0  0  0  0  0  0  0  0  0  0  0
   56.3898   32.8808   44.4239 H   0  0  0  0  0  0  0  0  0  0  0  0
   59.5578   30.2677   44.6626 H   0  0  0  0  0  0  0  0  0  0  0  0
   59.1547   31.3780   46.0592 H   0  0  0  0  0  0  0  0  0  0  0  0
   59.0956   28.6686   46.2324 H   0  0  0  0  0  0  0  0  0  0  0  0
   58.0408   29.8052   47.1979 H   0  0  0  0  0  0  0  0  0  0  0  0
   56.1517   29.2751   46.0555 H   0  0  0  0  0  0  0  0  0  0  0  0
   55.7762   24.8428   46.9655 H   0  0  0  0  0  0  0  0  0  0  0  0
   56.6891   25.3229   44.1615 H   0  0  0  0  0  0  0  0  0  0  0  0
   57.2584   24.1024   45.3197 H   0  0  0  0  0  0  0  0  0  0  0  0
   55.3495   23.7848   43.1296 H   0  0  0  0  0  0  0  0  0  0  0  0
   55.9641   22.5240   44.2219 H   0  0  0  0  0  0  0  0  0  0  0  0
   53.3235   23.3948   44.1858 H   0  0  0  0  0  0  0  0  0  0  0  0
   54.0686   22.6625   45.6122 H   0  0  0  0  0  0  0  0  0  0  0  0
   53.6135   25.5992   44.9540 H   0  0  0  0  0  0  0  0  0  0  0  0
   53.4133   24.7888   46.5096 H   0  0  0  0  0  0  0  0  0  0  0  0
   57.8814   28.4606   43.6786 H   0  0  0  0  0  0  0  0  0  0  0  0
   56.0867   28.3504   43.7382 H   0  0  0  0  0  0  0  0  0  0  0  0
   57.1685   30.4811   42.6801 H   0  0  0  0  0  0  0  0  0  0  0  0
   55.8172   30.6752   43.8956 H   0  0  0  0  0  0  0  0  0  0  0  0
   57.6962   32.9945   47.7903 H   0  0  0  0  0  0  0  0  0  0  0  0
   57.5115   32.8755   50.8791 H   0  0  0  0  0  0  0  0  0  0  0  0
   57.0737   32.7058   53.3290 H   0  0  0  0  0  0  0  0  0  0  0  0
   58.9294   33.0433   54.9636 H   0  0  0  0  0  0  0  0  0  0  0  0
   61.2374   33.5406   54.1477 H   0  0  0  0  0  0  0  0  0  0  0  0
   61.6940   33.6885   51.7010 H   0  0  0  0  0  0  0  0  0  0  0  0
  1  2  2  0
  2  3  1  0
  3  4  1  0
  4  5  2  0
  5  6  1  0
  6  7  2  0
  7  8  1  0
  8  9  1  0
  9 10  1  0
 10 11  1  0
 11 12  1  0
 12 13  1  0
 13 14  1  0
 14 15  2  0
 14 16  1  0
 16 17  1  0
 17 18  1  0
 18 19  1  0
 19 20  1  0
 20 21  1  0
 13 22  1  0
 22 23  1  0
  8 24  2  0
  2 25  1  0
 25 26  2  0
 26 27  1  0
 27 28  2  0
 28 29  1  0
 29 30  2  0
 24  4  1  0
 30 25  1  0
 23 10  1  0
 21 17  1  0
  3 31  1  0
  5 32  1  0
  6 33  1  0
  7 34  1  0
  9 35  1  0
  9 36  1  0
 11 37  1  0
 11 38  1  0
 12 39  1  0
 12 40  1  0
 13 41  1  0
 17 42  1  0
 18 43  1  0
 18 44  1  0
 19 45  1  0
 19 46  1  0
 20 47  1  0
 20 48  1  0
 21 49  1  0
 21 50  1  0
 22 51  1  0
 22 52  1  0
 23 53  1  0
 23 54  1  0
 24 55  1  0
 26 56  1  0
 27 57  1  0
 28 58  1  0
 29 59  1  0
 30 60  1  0
M  CHG  1  16  -1
M  END
>  <UniqueID>  (13) 
12

>  <SMILES>  (13) 
O=C(Nc1cccc(CN2CCC(C(=O)[N-]C3CCCC3)CC2)c1)c1ccccc1

>  <Energy>  (13) 
75.52134469696163

>  <Genealogy>  (13) 
O=C(Nc1cccc(CN2CCC(C(=O)[N-]C3CCCC3)CC2)c1)c1ccccc1 (protonated)
O=C(Nc1cccc(CN2CCC(C(=O)[N-]C3CCCC3)CC2)c1)c1ccccc1 (3D coordinates assigned)
O=C(Nc1cccc(CN2CCC(C(=O)[N-]C3CCCC3)CC2)c1)c1ccccc1 (nonaromatic ring conformer: 75.52134469696163 kcal/mol)

>  <smiles>  (13) 
O=C(Nc1cccc(CN2CCC(C(=O)NC3CCCC3)CC2)c1)c1ccccc1

>  <score_type>  (13) 
oracle

>  <origin>  (13) 
adg

>  <m_score__min__energy>  (13) 
-11.23

>  <m_primary>  (13) 
energy

$$$$
13:0
     RDKit          3D

 37 40  0  0  0  0  0  0  0  0999 V2000
   58.8716   35.2995   45.9589 H   0  0  0  0  0  0  0  0  0  0  0  0
   58.4760   34.3030   45.7130 C   0  0  0  0  0  0  0  0  0  0  0  0
   57.0390   33.9870   44.8950 S   0  0  0  0  0  0  0  0  0  0  0  0
   57.2310   32.3140   44.9840 C   0  0  0  0  0  0  0  0  0  0  0  0
   56.4310   31.4200   44.4820 N   0  0  0  0  0  0  0  0  0  0  0  0
   56.5350   30.0010   44.6650 C   0  0  0  0  0  0  0  0  0  0  0  0
   55.4880   29.3320   44.8620 O   0  0  0  0  0  0  0  0  0  0  0  0
   57.7950   29.3190   44.6090 N   0  0  0  0  0  0  0  0  0  0  0  0
   58.4070   28.5840   45.6790 C   0  0  0  0  0  0  0  0  0  0  0  0
   59.6770   28.9750   46.1210 C   0  0  0  0  0  0  0  0  0  0  0  0
   60.1770   29.8355   45.6525 H   0  0  0  0  0  0  0  0  0  0  0  0
   60.3140   28.2800   47.1530 C   0  0  0  0  0  0  0  0  0  0  0  0
   61.3184   28.5841   47.4826 H   0  0  0  0  0  0  0  0  0  0  0  0
   59.6750   27.1990   47.7660 C   0  0  0  0  0  0  0  0  0  0  0  0
   60.2920   26.5260   48.7690 F   0  0  0  0  0  0  0  0  0  0  0  0
   58.3950   26.8200   47.3550 C   0  0  0  0  0  0  0  0  0  0  0  0
   57.8896   25.9749   47.8454 H   0  0  0  0  0  0  0  0  0  0  0  0
   57.7530   27.5120   46.3210 C   0  0  0  0  0  0  0  0  0  0  0  0
   56.4850   27.1630   45.9890 F   0  0  0  0  0  0  0  0  0  0  0  0
   58.3810   31.9870   45.6080 N   0  0  0  0  0  0  0  0  0  0  0  0
   58.6880   31.0000   45.7520 H   0  0  0  0  0  0  0  0  0  0  0  0
   59.0800   33.0830   46.0260 C   0  0  0  0  0  0  0  0  0  0  0  0
   60.3690   32.9770   46.7460 C   0  0  0  0  0  0  0  0  0  0  0  0
   61.4620   33.8310   46.5780 C   0  0  0  0  0  0  0  0  0  0  0  0
   61.5370   34.6953   45.9017 H   0  0  0  0  0  0  0  0  0  0  0  0
   62.4250   33.3580   47.4410 C   0  0  0  0  0  0  0  0  0  0  0  0
   63.7160   33.8130   47.6970 C   0  0  0  0  0  0  0  0  0  0  0  0
   64.1242   34.6898   47.1730 H   0  0  0  0  0  0  0  0  0  0  0  0
   64.4810   33.1130   48.6490 C   0  0  0  0  0  0  0  0  0  0  0  0
   65.5047   33.4440   48.8781 H   0  0  0  0  0  0  0  0  0  0  0  0
   63.9420   31.9880   49.3120 C   0  0  0  0  0  0  0  0  0  0  0  0
   64.5491   31.4484   50.0538 H   0  0  0  0  0  0  0  0  0  0  0  0
   62.6340   31.5530   49.0300 C   0  0  0  0  0  0  0  0  0  0  0  0
   62.2035   30.6786   49.5399 H   0  0  0  0  0  0  0  0  0  0  0  0
   61.9020   32.2670   48.0830 C   0  0  0  0  0  0  0  0  0  0  0  0
   60.6470   32.0230   47.6690 N   0  0  0  0  0  0  0  0  0  0  0  0
   60.0270   31.2510   48.0010 H   0  0  0  0  0  0  0  0  0  0  0  0
  1  2  1  0
  2  3  1  0
  3  4  1  0
  4  5  2  0
  5  6  1  0
  6  7  2  0
  6  8  1  0
  8  9  1  0
  9 10  2  0
 10 11  1  0
 10 12  1  0
 12 13  1  0
 12 14  2  0
 14 15  1  0
 14 16  1  0
 16 17  1  0
 16 18  2  0
 18 19  1  0
  4 20  1  0
 20 21  1  0
 20 22  1  0
 22 23  1  0
 23 24  2  0
 24 25  1  0
 24 26  1  0
 26 27  2  0
 27 28  1  0
 27 29  1  0
 29 30  1  0
 29 31  2  0
 31 32  1  0
 31 33  1  0
 33 34  1  0
 33 35  2  0
 35 36  1  0
 36 37  1  0
 22  2  2  0
 36 23  1  0
 18  9  1  0
 35 26  1  0
M  CHG  1   8  -1
M  END
>  <UniqueID>  (14) 
13

>  <SMILES>  (14) 
O=C(/N=c1/[nH]c(-c2cc3ccccc3[nH]2)cs1)[N-]c1ccc(F)cc1F

>  <Energy>  (14) 
115.34287158696935

>  <Genealogy>  (14) 
O=C(N=c1[nH]c(-c2cc3ccccc3[nH]2)cs1)[N-]c1ccc(F)cc1F (protonated)
O=C(/N=c1/[nH]c(-c2cc3ccccc3[nH]2)cs1)[N-]c1ccc(F)cc1F (cis-trans isomerization)
O=C(/N=c1/[nH]c(-c2cc3ccccc3[nH]2)cs1)[N-]c1ccc(F)cc1F (3D coordinates assigned)
O=C(/N=c1/[nH]c(-c2cc3ccccc3[nH]2)cs1)[N-]c1ccc(F)cc1F (optimized conformer: 115.34287158696935 kcal/mol)

>  <smiles>  (14) 
O=C(N=c1[nH]c(-c2cc3ccccc3[nH]2)cs1)Nc1ccc(F)cc1F

>  <score_type>  (14) 
oracle

>  <origin>  (14) 
adg

>  <m_score__min__energy>  (14) 
-9.6600000000000001

>  <m_primary>  (14) 
energy

$$$$
14:0
     RDKit          3D

 44 46  0  0  0  0  0  0  0  0999 V2000
   59.1892   27.8912   43.9035 H   0  0  0  0  0  0  0  0  0  0  0  0
   58.4570   27.3220   44.4950 C   0  0  0  0  0  0  0  0  0  0  0  0
   58.0820   26.0410   44.0910 C   0  0  0  0  0  0  0  0  0  0  0  0
   58.5070   25.6138   43.1707 H   0  0  0  0  0  0  0  0  0  0  0  0
   57.1680   25.2920   44.8470 C   0  0  0  0  0  0  0  0  0  0  0  0
   56.8130   23.9680   44.4110 N   0  0  0  0  0  0  0  0  0  0  0  0
   57.4970   22.7890   44.9440 C   0  0  0  0  0  0  0  0  0  0  0  0
   58.5049   23.0710   45.2826 H   0  0  0  0  0  0  0  0  0  0  0  0
   56.9262   22.3849   45.7931 H   0  0  0  0  0  0  0  0  0  0  0  0
   57.6050   21.7260   43.8470 C   0  0  0  0  0  0  0  0  0  0  0  0
   58.2878   22.0851   43.0629 H   0  0  0  0  0  0  0  0  0  0  0  0
   57.9890   20.7968   44.2931 H   0  0  0  0  0  0  0  0  0  0  0  0
   56.3370   21.4640   43.2740 O   0  0  0  0  0  0  0  0  0  0  0  0
   55.8620   22.6180   42.6060 C   0  0  0  0  0  0  0  0  0  0  0  0
   56.6102   22.9403   41.8668 H   0  0  0  0  0  0  0  0  0  0  0  0
   54.9128   22.3711   42.1080 H   0  0  0  0  0  0  0  0  0  0  0  0
   55.6130   23.7590   43.5990 C   0  0  0  0  0  0  0  0  0  0  0  0
   55.3783   24.6811   43.0470 H   0  0  0  0  0  0  0  0  0  0  0  0
   54.7677   23.4987   44.2531 H   0  0  0  0  0  0  0  0  0  0  0  0
   56.6260   25.8400   46.0280 C   0  0  0  0  0  0  0  0  0  0  0  0
   55.7000   25.0850   46.7640 O   0  0  0  0  0  0  0  0  0  0  0  0
   56.0400   24.0020   47.6250 C   0  0  0  0  0  0  0  0  0  0  0  0
   55.9398   24.3213   48.6729 H   0  0  0  0  0  0  0  0  0  0  0  0
   55.3645   23.1553   47.4334 H   0  0  0  0  0  0  0  0  0  0  0  0
   57.0783   23.6933   47.4334 H   0  0  0  0  0  0  0  0  0  0  0  0
   57.0150   27.1340   46.4300 C   0  0  0  0  0  0  0  0  0  0  0  0
   56.6160   27.5564   47.3640 H   0  0  0  0  0  0  0  0  0  0  0  0
   57.9030   27.8870   45.6540 C   0  0  0  0  0  0  0  0  0  0  0  0
   58.3080   29.1830   46.1190 N   0  0  0  0  0  0  0  0  0  0  0  0
   57.9840   30.3250   45.5860 C   0  0  0  0  0  0  0  0  0  0  0  0
   57.5940   30.4890   44.2710 C   0  0  0  0  0  0  0  0  0  0  0  0
   57.4747   29.7141   43.4995 H   0  0  0  0  0  0  0  0  0  0  0  0
   57.3880   31.8510   44.1470 C   0  0  0  0  0  0  0  0  0  0  0  0
   57.0497   32.3670   43.2363 H   0  0  0  0  0  0  0  0  0  0  0  0
   57.6700   32.4430   45.3260 N   0  0  0  0  0  0  0  0  0  0  0  0
   57.5420   33.8650   45.6280 C   0  0  0  0  0  0  0  0  0  0  0  0
   57.5725   34.0095   46.7180 H   0  0  0  0  0  0  0  0  0  0  0  0
   56.5857   34.2331   45.2279 H   0  0  0  0  0  0  0  0  0  0  0  0
   58.6830   34.6420   44.9850 C   0  0  0  0  0  0  0  0  0  0  0  0
   59.3197   35.0756   45.7703 H   0  0  0  0  0  0  0  0  0  0  0  0
   59.2823   33.9635   44.3601 H   0  0  0  0  0  0  0  0  0  0  0  0
   58.2712   35.4482   44.3601 H   0  0  0  0  0  0  0  0  0  0  0  0
   58.0280   31.5220   46.2070 N   0  0  0  0  0  0  0  0  0  0  0  0
   58.3240   31.7270   47.1870 H   0  0  0  0  0  0  0  0  0  0  0  0
  1  2  1  0
  2  3  2  0
  3  4  1  0
  3  5  1  0
  5  6  1  0
  6  7  1  0
  7  8  1  0
  7  9  1  0
  7 10  1  0
 10 11  1  0
 10 12  1  0
 10 13  1  0
 13 14  1  0
 14 15  1  0
 14 16  1  0
 14 17  1  0
 17 18  1  0
 17 19  1  0
  5 20  2  0
 20 21  1  0
 21 22  1  0
 22 23  1  0
 22 24  1  0
 22 25  1  0
 20 26  1  0
 26 27  1  0
 26 28  2  0
 28 29  1  0
 29 30  2  0
 30 31  1  0
 31 32  1  0
 31 33  2  0
 33 34  1  0
 33 35  1  0
 35 36  1  0
 36 37  1  0
 36 38  1  0
 36 39  1  0
 39 40  1  0
 39 41  1  0
 39 42  1  0
 35 43  1  0
 43 44  1  0
 28  2  1  0
 43 30  1  0
 17  6  1  0
M  END
>  <UniqueID>  (15) 
14

>  <SMILES>  (15) 
CCn1cc/c(=N/c2ccc(N3CCOCC3)c(OC)c2)[nH]1

>  <Energy>  (15) 
84.87531305983961

>  <Genealogy>  (15) 
CCn1cc/c(=N/c2ccc(N3CCOCC3)c(OC)c2)[nH]1 (cis-trans isomerization)
CCn1cc/c(=N/c2ccc(N3CCOCC3)c(OC)c2)[nH]1 (3D coordinates assigned)
CCn1cc/c(=N/c2ccc(N3CCOCC3)c(OC)c2)[nH]1 (nonaromatic ring conformer: 84.87531305983961 kcal/mol)

>  <smiles>  (15) 
CCn1ccc(=Nc2ccc(N3CCOCC3)c(OC)c2)[nH]1

>  <score_type>  (15) 
oracle

>  <origin>  (15) 
adg

>  <m_score__min__energy>  (15) 
-6.3700000000000001

>  <m_primary>  (15) 
energy

$$$$
15:0
     RDKit          3D

 51 53  0  0  0  0  0  0  0  0999 V2000
   59.5120   30.6620   48.6680 C   0  0  0  0  0  0  0  0  0  0  0  0
   58.9550   30.2170   47.3470 C   0  0  0  0  0  0  0  0  0  0  0  0
   58.6930   28.8620   47.1140 C   0  0  0  0  0  0  0  0  0  0  0  0
   58.1390   28.4530   45.9010 C   0  0  0  0  0  0  0  0  0  0  0  0
   57.8220   29.3940   44.9190 C   0  0  0  0  0  0  0  0  0  0  0  0
   58.0860   30.7630   45.1240 C   0  0  0  0  0  0  0  0  0  0  0  0
   58.6390   31.1650   46.3600 C   0  0  0  0  0  0  0  0  0  0  0  0
   57.8140   31.7020   44.0500 N   0  0  0  0  0  0  0  0  0  0  0  0
   58.2710   33.1040   44.0990 C   0  0  0  0  0  0  0  0  0  0  0  0
   57.3810   33.9490   45.0200 C   0  0  0  0  0  0  0  0  0  0  0  0
   58.1000   34.3640   46.2220 N   0  0  0  0  0  0  0  0  0  0  0  0
   59.4290   34.9050   46.2640 C   0  0  0  0  0  0  0  0  0  0  0  0
   59.6640   35.9790   45.6510 O   0  0  0  0  0  0  0  0  0  0  0  0
   60.5190   34.2590   47.0200 C   0  0  0  0  0  0  0  0  0  0  0  0
   61.6870   33.8320   46.3720 C   0  0  0  0  0  0  0  0  0  0  0  0
   62.7140   33.2240   47.0970 C   0  0  0  0  0  0  0  0  0  0  0  0
   62.5950   33.0510   48.4850 C   0  0  0  0  0  0  0  0  0  0  0  0
   63.6950   32.3700   49.2570 C   0  0  0  0  0  0  0  0  0  0  0  0
   64.6500   33.3640   49.7890 N   0  0  0  0  0  0  0  0  0  0  0  0
   64.1220   33.9560   51.0290 C   0  0  0  0  0  0  0  0  0  0  0  0
   65.9580   32.7430   50.0590 C   0  0  0  0  0  0  0  0  0  0  0  0
   61.4370   33.5010   49.1370 C   0  0  0  0  0  0  0  0  0  0  0  0
   60.4090   34.1100   48.4110 C   0  0  0  0  0  0  0  0  0  0  0  0
   57.1510   31.2100   42.8630 C   0  0  0  0  0  0  0  0  0  0  0  0
   57.0170   31.9420   41.8460 O   0  0  0  0  0  0  0  0  0  0  0  0
   56.5430   29.8410   42.8550 C   0  0  0  0  0  0  0  0  0  0  0  0
   57.2530   28.9610   43.7190 O   0  0  0  0  0  0  0  0  0  0  0  0
   58.9350   30.2010   49.4832 H   0  0  0  0  0  0  0  0  0  0  0  0
   60.5652   30.3538   48.7444 H   0  0  0  0  0  0  0  0  0  0  0  0
   59.4440   31.7572   48.7444 H   0  0  0  0  0  0  0  0  0  0  0  0
   58.9247   28.1174   47.8898 H   0  0  0  0  0  0  0  0  0  0  0  0
   57.9510   27.3849   45.7171 H   0  0  0  0  0  0  0  0  0  0  0  0
   58.8242   32.2322   46.5517 H   0  0  0  0  0  0  0  0  0  0  0  0
   59.3041   33.1311   44.4757 H   0  0  0  0  0  0  0  0  0  0  0  0
   58.2158   33.5227   43.0833 H   0  0  0  0  0  0  0  0  0  0  0  0
   57.0494   34.8446   44.4742 H   0  0  0  0  0  0  0  0  0  0  0  0
   56.5196   33.3371   45.3258 H   0  0  0  0  0  0  0  0  0  0  0  0
   61.7948   33.9767   45.2869 H   0  0  0  0  0  0  0  0  0  0  0  0
   63.6205   32.8790   46.5781 H   0  0  0  0  0  0  0  0  0  0  0  0
   63.2547   31.8079   50.0938 H   0  0  0  0  0  0  0  0  0  0  0  0
   64.2325   31.6884   48.5814 H   0  0  0  0  0  0  0  0  0  0  0  0
   64.5720   33.4515   51.8967 H   0  0  0  0  0  0  0  0  0  0  0  0
   64.3700   35.0273   51.0584 H   0  0  0  0  0  0  0  0  0  0  0  0
   63.0295   33.8316   51.0584 H   0  0  0  0  0  0  0  0  0  0  0  0
   66.1119   32.6699   51.1457 H   0  0  0  0  0  0  0  0  0  0  0  0
   65.9843   31.7363   49.6165 H   0  0  0  0  0  0  0  0  0  0  0  0
   66.7547   33.3590   49.6165 H   0  0  0  0  0  0  0  0  0  0  0  0
   61.3374   33.3740   50.2251 H   0  0  0  0  0  0  0  0  0  0  0  0
   59.5110   34.4736   48.9319 H   0  0  0  0  0  0  0  0  0  0  0  0
   55.4981   29.9098   43.1918 H   0  0  0  0  0  0  0  0  0  0  0  0
   56.5933   29.4419   41.8312 H   0  0  0  0  0  0  0  0  0  0  0  0
  1  2  1  0
  2  3  2  0
  3  4  1  0
  4  5  2  0
  5  6  1  0
  6  7  2  0
  6  8  1  0
  8  9  1  0
  9 10  1  0
 10 11  1  0
 11 12  1  0
 12 13  2  0
 12 14  1  0
 14 15  2  0
 15 16  1  0
 16 17  2  0
 17 18  1  0
 18 19  1  0
 19 20  1  0
 19 21  1  0
 17 22  1  0
 22 23  2  0
  8 24  1  0
 24 25  2  0
 24 26  1  0
 26 27  1  0
  7  2  1  0
 23 14  1  0
 27  5  1  0
  1 28  1  0
  1 29  1  0
  1 30  1  0
  3 31  1  0
  4 32  1  0
  7 33  1  0
  9 34  1  0
  9 35  1  0
 10 36  1  0
 10 37  1  0
 15 38  1  0
 16 39  1  0
 18 40  1  0
 18 41  1  0
 20 42  1  0
 20 43  1  0
 20 44  1  0
 21 45  1  0
 21 46  1  0
 21 47  1  0
 22 48  1  0
 23 49  1  0
 26 50  1  0
 26 51  1  0
M  CHG  1  11  -1
M  END
>  <UniqueID>  (16) 
15

>  <SMILES>  (16) 
Cc1ccc2c(c1)N(CC[N-]C(=O)c1ccc(CN(C)C)cc1)C(=O)CO2

>  <Energy>  (16) 
57.95508006663342

>  <Genealogy>  (16) 
Cc1ccc2c(c1)N(CC[N-]C(=O)c1ccc(CN(C)C)cc1)C(=O)CO2 (protonated)
Cc1ccc2c(c1)N(CC[N-]C(=O)c1ccc(CN(C)C)cc1)C(=O)CO2 (3D coordinates assigned)
Cc1ccc2c(c1)N(CC[N-]C(=O)c1ccc(CN(C)C)cc1)C(=O)CO2 (nonaromatic ring conformer: 57.95508006663342 kcal/mol)

>  <smiles>  (16) 
Cc1ccc2c(c1)N(CCNC(=O)c1ccc(CN(C)C)cc1)C(=O)CO2

>  <score_type>  (16) 
oracle

>  <origin>  (16) 
adg

>  <m_score__min__energy>  (16) 
-9.0099999999999998

>  <m_primary>  (16) 
energy

$$$$
16:0
     RDKit          3D

 49 51  0  0  0  0  0  0  0  0999 V2000
   55.8260   22.9270   47.9440 C   0  0  0  0  0  0  0  0  0  0  0  0
   55.7200   24.3370   47.8160 O   0  0  0  0  0  0  0  0  0  0  0  0
   56.6710   25.1480   47.1770 C   0  0  0  0  0  0  0  0  0  0  0  0
   58.0470   25.0570   47.4600 C   0  0  0  0  0  0  0  0  0  0  0  0
   58.9570   25.8940   46.8140 C   0  0  0  0  0  0  0  0  0  0  0  0
   58.5110   26.8430   45.8870 C   0  0  0  0  0  0  0  0  0  0  0  0
   59.4950   27.7530   45.2000 C   0  0  0  0  0  0  0  0  0  0  0  0
   58.8060   28.9020   44.4600 C   0  0  0  0  0  0  0  0  0  0  0  0
   58.0100   29.7050   45.3800 N   0  0  0  0  0  0  0  0  0  0  0  0
   57.3640   30.9330   45.0240 C   0  0  0  0  0  0  0  0  0  0  0  0
   56.2010   30.9120   44.5290 O   0  0  0  0  0  0  0  0  0  0  0  0
   58.0450   32.2250   45.2740 C   0  0  0  0  0  0  0  0  0  0  0  0
   57.4560   33.4280   44.8750 C   0  0  0  0  0  0  0  0  0  0  0  0
   58.0740   34.6270   45.1980 C   0  0  0  0  0  0  0  0  0  0  0  0
   59.2800   34.6100   45.8970 C   0  0  0  0  0  0  0  0  0  0  0  0
   59.8570   35.7040   46.1540 O   0  0  0  0  0  0  0  0  0  0  0  0
   59.8350   33.4130   46.2720 N   0  0  0  0  0  0  0  0  0  0  0  0
   61.0690   33.3670   47.0210 C   0  0  0  0  0  0  0  0  0  0  0  0
   61.0720   33.0140   48.3830 C   0  0  0  0  0  0  0  0  0  0  0  0
   62.2760   32.9320   49.0860 C   0  0  0  0  0  0  0  0  0  0  0  0
   63.4870   33.1900   48.4360 C   0  0  0  0  0  0  0  0  0  0  0  0
   63.4950   33.5280   47.0800 C   0  0  0  0  0  0  0  0  0  0  0  0
   62.2930   33.6170   46.3740 C   0  0  0  0  0  0  0  0  0  0  0  0
   59.2190   32.2580   45.9730 N   0  0  0  0  0  0  0  0  0  0  0  0
   57.1420   26.9140   45.5760 C   0  0  0  0  0  0  0  0  0  0  0  0
   56.2180   26.0710   46.2200 C   0  0  0  0  0  0  0  0  0  0  0  0
   54.8440   26.1380   45.9480 O   0  0  0  0  0  0  0  0  0  0  0  0
   54.0380   25.0130   45.5940 C   0  0  0  0  0  0  0  0  0  0  0  0
   55.8464   22.6561   49.0099 H   0  0  0  0  0  0  0  0  0  0  0  0
   54.9613   22.4489   47.4606 H   0  0  0  0  0  0  0  0  0  0  0  0
   56.7525   22.5836   47.4606 H   0  0  0  0  0  0  0  0  0  0  0  0
   58.4067   24.3216   48.1948 H   0  0  0  0  0  0  0  0  0  0  0  0
   60.0312   25.8077   47.0344 H   0  0  0  0  0  0  0  0  0  0  0  0
   60.1732   28.1756   45.9560 H   0  0  0  0  0  0  0  0  0  0  0  0
   60.0434   27.1554   44.4569 H   0  0  0  0  0  0  0  0  0  0  0  0
   59.5705   29.5401   43.9927 H   0  0  0  0  0  0  0  0  0  0  0  0
   58.1401   28.4793   43.6932 H   0  0  0  0  0  0  0  0  0  0  0  0
   56.5119   33.4240   44.3105 H   0  0  0  0  0  0  0  0  0  0  0  0
   57.6163   35.5834   44.9050 H   0  0  0  0  0  0  0  0  0  0  0  0
   60.1224   32.8018   48.8961 H   0  0  0  0  0  0  0  0  0  0  0  0
   62.2717   32.6640   50.1528 H   0  0  0  0  0  0  0  0  0  0  0  0
   64.4338   33.1269   48.9924 H   0  0  0  0  0  0  0  0  0  0  0  0
   64.4487   33.7241   46.5682 H   0  0  0  0  0  0  0  0  0  0  0  0
   62.3035   33.8839   45.3069 H   0  0  0  0  0  0  0  0  0  0  0  0
   59.6350   31.3590   46.3100 H   0  0  0  0  0  0  0  0  0  0  0  0
   56.7903   27.6346   44.8229 H   0  0  0  0  0  0  0  0  0  0  0  0
   53.6814   24.5153   46.5079 H   0  0  0  0  0  0  0  0  0  0  0  0
   53.1758   25.3518   45.0008 H   0  0  0  0  0  0  0  0  0  0  0  0
   54.6361   24.3056   45.0008 H   0  0  0  0  0  0  0  0  0  0  0  0
  1  2  1  0
  2  3  1  0
  3  4  2  0
  4  5  1  0
  5  6  2  0
  6  7  1  0
  7  8  1  0
  8  9  1  0
  9 10  1  0
 10 11  2  0
 10 12  1  0
 12 13  1  0
 13 14  2  0
 14 15  1  0
 15 16  2  0
 15 17  1  0
 17 18  1  0
 18 19  2  0
 19 20  1  0
 20 21  2  0
 21 22  1  0
 22 23  2  0
 17 24  1  0
  6 25  1  0
 25 26  2  0
 26 27  1  0
 27 28  1  0
 26  3  1  0
 24 12  2  0
 23 18  1  0
  1 29  1  0
  1 30  1  0
  1 31  1  0
  4 32  1  0
  5 33  1  0
  7 34  1  0
  7 35  1  0
  8 36  1  0
  8 37  1  0
 13 38  1  0
 14 39  1  0
 19 40  1  0
 20 41  1  0
 21 42  1  0
 22 43  1  0
 23 44  1  0
 24 45  1  0
 25 46  1  0
 28 47  1  0
 28 48  1  0
 28 49  1  0
M  CHG  2   9  -1  24   1
M  END
>  <UniqueID>  (17) 
16

>  <SMILES>  (17) 
COc1ccc(CC[N-]C(=O)c2ccc(=O)n(-c3ccccc3)[nH+]2)cc1OC

>  <Energy>  (17) 
56.3810816749776

>  <Genealogy>  (17) 
COc1ccc(CC[N-]C(=O)c2ccc(=O)n(-c3ccccc3)[nH+]2)cc1OC (protonated)
COc1ccc(CC[N-]C(=O)c2ccc(=O)n(-c3ccccc3)[nH+]2)cc1OC (3D coordinates assigned)
COc1ccc(CC[N-]C(=O)c2ccc(=O)n(-c3ccccc3)[nH+]2)cc1OC (optimized conformer: 56.3810816749776 kcal/mol)

>  <smiles>  (17) 
COc1ccc(CCNC(=O)c2ccc(=O)n(-c3ccccc3)n2)cc1OC

>  <score_type>  (17) 
oracle

>  <origin>  (17) 
adg

>  <m_score__min__energy>  (17) 
-9.6300000000000008

>  <m_primary>  (17) 
energy

$$$$
17:0
     RDKit          3D

 41 43  0  0  0  0  0  0  0  0999 V2000
   53.9140   28.2460   53.2930 C   0  0  0  0  0  0  0  0  0  0  0  0
   53.1730   29.4440   52.7660 C   0  0  0  0  0  0  0  0  0  0  0  0
   51.8110   29.6140   53.0750 C   0  0  0  0  0  0  0  0  0  0  0  0
   51.1000   30.6980   52.5560 C   0  0  0  0  0  0  0  0  0  0  0  0
   51.7380   31.6260   51.7310 C   0  0  0  0  0  0  0  0  0  0  0  0
   51.0320   32.7130   51.2300 O   0  0  0  0  0  0  0  0  0  0  0  0
   53.0870   31.4620   51.4090 C   0  0  0  0  0  0  0  0  0  0  0  0
   53.8100   30.3620   51.9050 C   0  0  0  0  0  0  0  0  0  0  0  0
   55.2060   30.2030   51.6020 N   0  0  0  0  0  0  0  0  0  0  0  0
   56.2800   30.8210   52.3230 C   0  0  0  0  0  0  0  0  0  0  0  0
   56.1890   30.9700   53.5730 O   0  0  0  0  0  0  0  0  0  0  0  0
   57.4710   31.3240   51.6040 C   0  0  0  0  0  0  0  0  0  0  0  0
   57.8040   32.6890   51.6380 C   0  0  0  0  0  0  0  0  0  0  0  0
   58.9020   33.1690   50.9200 C   0  0  0  0  0  0  0  0  0  0  0  0
   59.6870   32.2980   50.1570 C   0  0  0  0  0  0  0  0  0  0  0  0
   60.7730   32.8430   49.3970 N   0  0  0  0  0  0  0  0  0  0  0  0
   61.0200   32.6070   47.6950 S   0  0  0  0  0  0  0  0  0  0  0  0
   62.1250   33.5140   47.2310 O   0  0  0  0  0  0  0  0  0  0  0  0
   61.4200   31.1760   47.4540 O   0  0  0  0  0  0  0  0  0  0  0  0
   59.5530   32.9990   46.7980 C   0  0  0  0  0  0  0  0  0  0  0  0
   59.4130   34.2450   46.1720 C   0  0  0  0  0  0  0  0  0  0  0  0
   58.2620   34.5290   45.4330 C   0  0  0  0  0  0  0  0  0  0  0  0
   57.2580   33.5630   45.3350 C   0  0  0  0  0  0  0  0  0  0  0  0
   57.4140   32.3580   45.9450 N   0  0  0  0  0  0  0  0  0  0  0  0
   58.5250   32.0580   46.6710 C   0  0  0  0  0  0  0  0  0  0  0  0
   59.3750   30.9270   50.1410 C   0  0  0  0  0  0  0  0  0  0  0  0
   58.2730   30.4470   50.8530 C   0  0  0  0  0  0  0  0  0  0  0  0
   53.9035   28.2630   54.3928 H   0  0  0  0  0  0  0  0  0  0  0  0
   53.4264   27.3269   52.9358 H   0  0  0  0  0  0  0  0  0  0  0  0
   54.9541   28.2719   52.9358 H   0  0  0  0  0  0  0  0  0  0  0  0
   51.3036   28.8893   53.7288 H   0  0  0  0  0  0  0  0  0  0  0  0
   50.0340   30.8211   52.7980 H   0  0  0  0  0  0  0  0  0  0  0  0
   53.5877   32.1982   50.7630 H   0  0  0  0  0  0  0  0  0  0  0  0
   57.1955   33.3846   52.2345 H   0  0  0  0  0  0  0  0  0  0  0  0
   59.1512   34.2398   50.9548 H   0  0  0  0  0  0  0  0  0  0  0  0
   60.2089   34.9989   46.2625 H   0  0  0  0  0  0  0  0  0  0  0  0
   58.1477   35.5025   44.9339 H   0  0  0  0  0  0  0  0  0  0  0  0
   56.3420   33.7769   44.7648 H   0  0  0  0  0  0  0  0  0  0  0  0
   58.6151   31.0758   47.1581 H   0  0  0  0  0  0  0  0  0  0  0  0
   60.0013   30.2295   49.5654 H   0  0  0  0  0  0  0  0  0  0  0  0
   58.0309   29.3743   50.8258 H   0  0  0  0  0  0  0  0  0  0  0  0
  1  2  1  0
  2  3  2  0
  3  4  1  0
  4  5  2  0
  5  6  1  0
  5  7  1  0
  7  8  2  0
  8  9  1  0
  9 10  1  0
 10 11  2  0
 10 12  1  0
 12 13  2  0
 13 14  1  0
 14 15  2  0
 15 16  1  0
 16 17  1  0
 17 18  2  0
 17 19  2  0
 17 20  1  0
 20 21  2  0
 21 22  1  0
 22 23  2  0
 23 24  1  0
 24 25  2  0
 15 26  1  0
 26 27  2  0
  8  2  1  0
 27 12  1  0
 25 20  1  0
  1 28  1  0
  1 29  1  0
  1 30  1  0
  3 31  1  0
  4 32  1  0
  7 33  1  0
 13 34  1  0
 14 35  1  0
 21 36  1  0
 22 37  1  0
 23 38  1  0
 25 39  1  0
 26 40  1  0
 27 41  1  0
M  CHG  3   6  -1   9  -1  16  -1
M  END
>  <UniqueID>  (18) 
17

>  <SMILES>  (18) 
Cc1ccc([O-])cc1[N-]C(=O)c1ccc([N-]S(=O)(=O)c2cccnc2)cc1

>  <Energy>  (18) 
53.084954116925516

>  <Genealogy>  (18) 
Cc1ccc([O-])cc1[N-]C(=O)c1ccc([N-]S(=O)(=O)c2cccnc2)cc1 (protonated)
Cc1ccc([O-])cc1[N-]C(=O)c1ccc([N-]S(=O)(=O)c2cccnc2)cc1 (3D coordinates assigned)
Cc1ccc([O-])cc1[N-]C(=O)c1ccc([N-]S(=O)(=O)c2cccnc2)cc1 (optimized conformer: 53.084954116925516 kcal/mol)

>  <smiles>  (18) 
Cc1ccc(O)cc1NC(=O)c1ccc(NS(=O)(=O)c2cccnc2)cc1

>  <score_type>  (18) 
oracle

>  <origin>  (18) 
adg

>  <m_score__min__energy>  (18) 
-14.609999999999999

>  <m_primary>  (18) 
energy

$$$$
18:0
     RDKit          3D

 49 51  0  0  1  0  0  0  0  0999 V2000
   60.5060   26.7080   49.5390 C   0  0  0  0  0  0  0  0  0  0  0  0
   60.7460   27.2640   48.2120 N   0  0  0  0  0  0  0  0  0  0  0  0
   60.0480   26.7440   47.1020 C   0  0  0  0  0  0  0  0  0  0  0  0
   59.2360   25.8100   47.3070 O   0  0  0  0  0  0  0  0  0  0  0  0
   60.3110   27.3280   45.7600 C   0  0  0  0  0  0  0  0  0  0  0  0
   59.3910   28.4240   45.4840 N   0  0  0  0  0  0  0  0  0  0  0  0
   58.5230   28.3860   44.4640 C   0  0  0  0  0  0  0  0  0  0  0  0
   57.6320   29.3910   44.1560 C   0  0  0  0  0  0  0  0  0  0  0  0
   56.6890   29.3300   43.0340 C   0  0  0  0  0  0  0  0  0  0  0  0
   57.6500   30.5050   44.9650 C   0  0  0  0  0  0  0  0  0  0  0  0
   56.9120   31.5240   44.8500 N   0  0  0  0  0  0  0  0  0  0  0  0
   57.3960   32.8030   44.5240 C   0  0  0  0  0  0  0  0  0  0  0  0
   58.3770   33.3890   45.4870 C   0  0  0  0  0  0  0  0  0  0  0  0
   58.1830   34.5920   46.1280 C   0  0  0  0  0  0  0  0  0  0  0  0
   59.2780   34.7860   46.9180 N   0  0  0  0  0  0  0  0  0  0  0  0
   60.1240   33.7800   46.7980 C   0  0  0  0  0  0  0  0  0  0  0  0
   61.4180   33.4870   47.4050 C   0  0  0  0  0  0  0  0  0  0  0  0
   62.5760   33.6570   46.6260 C   0  0  0  0  0  0  0  0  0  0  0  0
   63.8310   33.4150   47.0830 C   0  0  0  0  0  0  0  0  0  0  0  0
   64.0290   32.9770   48.3710 C   0  0  0  0  0  0  0  0  0  0  0  0
   62.9010   32.8070   49.1430 C   0  0  0  0  0  0  0  0  0  0  0  0
   61.6170   33.0550   48.6750 C   0  0  0  0  0  0  0  0  0  0  0  0
   60.5020   32.8260   49.6100 C   0  0  0  0  0  0  0  0  0  0  0  0
   59.5530   32.9350   45.9170 N   0  0  0  0  0  0  0  0  0  0  0  0
   58.5400   30.5160   45.9910 N   0  0  0  0  0  0  0  0  0  0  0  0
   59.3870   29.5200   46.2550 C   0  0  0  0  0  0  0  0  0  0  0  0
   60.1970   29.5780   47.2210 O   0  0  0  0  0  0  0  0  0  0  0  0
   60.8196   27.4345   50.3031 H   0  0  0  0  0  0  0  0  0  0  0  0
   59.4341   26.4911   49.6573 H   0  0  0  0  0  0  0  0  0  0  0  0
   61.0833   25.7792   49.6573 H   0  0  0  0  0  0  0  0  0  0  0  0
   61.4380   28.0410   48.1190 H   0  0  0  0  0  0  0  0  0  0  0  0
   61.3433   27.7066   45.7273 H   0  0  0  0  0  0  0  0  0  0  0  0
   60.1662   26.5459   45.0002 H   0  0  0  0  0  0  0  0  0  0  0  0
   58.5216   27.4890   43.8274 H   0  0  0  0  0  0  0  0  0  0  0  0
   55.6617   29.2635   43.4216 H   0  0  0  0  0  0  0  0  0  0  0  0
   56.7911   30.2366   42.4195 H   0  0  0  0  0  0  0  0  0  0  0  0
   56.9071   28.4441   42.4195 H   0  0  0  0  0  0  0  0  0  0  0  0
   57.8847   32.7390   43.5406 H   0  0  0  0  0  0  0  0  0  0  0  0
   56.5209   33.4692   44.5445 H   0  0  0  0  0  0  0  0  0  0  0  0
   57.3175   35.2629   46.0238 H   0  0  0  0  0  0  0  0  0  0  0  0
   59.3710   35.6230   47.5010 H   0  0  0  0  0  0  0  0  0  0  0  0
   62.4585   34.0053   45.5892 H   0  0  0  0  0  0  0  0  0  0  0  0
   64.6943   33.5702   46.4192 H   0  0  0  0  0  0  0  0  0  0  0  0
   65.0357   32.7729   48.7645 H   0  0  0  0  0  0  0  0  0  0  0  0
   63.0228   32.4583   50.1791 H   0  0  0  0  0  0  0  0  0  0  0  0
   60.8693   32.9014   50.6441 H   0  0  0  0  0  0  0  0  0  0  0  0
   59.7214   33.5826   49.4420 H   0  0  0  0  0  0  0  0  0  0  0  0
   60.0827   31.8230   49.4420 H   0  0  0  0  0  0  0  0  0  0  0  0
   58.6000   31.3510   46.6490 H   0  0  0  0  0  0  0  0  0  0  0  0
  1  2  1  0
  2  3  1  0
  3  4  2  0
  3  5  1  0
  5  6  1  0
  6  7  1  0
  7  8  2  0
  8  9  1  0
  8 10  1  0
 10 11  2  0
 11 12  1  0
 12 13  1  0
 13 14  2  0
 14 15  1  0
 15 16  1  0
 16 17  1  0
 17 18  2  0
 18 19  1  0
 19 20  2  0
 20 21  1  0
 21 22  2  0
 22 23  1  0
 16 24  2  0
 10 25  1  0
 25 26  1  0
 26 27  2  0
 26  6  1  0
 24 13  1  0
 22 17  1  0
  1 28  1  0
  1 29  1  0
  1 30  1  0
  2 31  1  0
  5 32  1  0
  5 33  1  0
  7 34  1  0
  9 35  1  0
  9 36  1  0
  9 37  1  0
 12 38  1  0
 12 39  1  0
 14 40  1  0
 15 41  1  0
 18 42  1  0
 19 43  1  0
 20 44  1  0
 21 45  1  0
 23 46  1  0
 23 47  1  0
 23 48  1  0
 25 49  1  0
M  END
>  <smiles>  (19) 
CNC(=O)Cn1cc(C)c(=NCc2c[nH]c(-c3ccccc3C)n2)[nH]c1=O

>  <score_type>  (19) 
oracle

>  <origin>  (19) 
adg

>  <m_score__min__energy>  (19) 
-8.1199999999999992

>  <m_primary>  (19) 
energy

$$$$
19:0
     RDKit          3D

 50 51  0  0  0  0  0  0  0  0999 V2000
   56.2750   25.9110   46.3840 C   0  0  0  0  0  0  0  0  0  0  0  0
   57.4410   26.8970   46.3120 C   0  0  0  0  0  0  0  0  0  0  0  0
   57.5960   27.5420   44.9220 C   0  0  0  0  0  0  0  0  0  0  0  0
   57.5320   29.0570   44.9760 C   0  0  0  0  0  0  0  0  0  0  0  0
   56.2890   29.7040   44.8360 C   0  0  0  0  0  0  0  0  0  0  0  0
   55.1200   28.9680   44.6680 O   0  0  0  0  0  0  0  0  0  0  0  0
   56.2160   31.0570   44.8620 N   0  0  0  0  0  0  0  0  0  0  0  0
   57.3260   31.8160   45.0090 C   0  0  0  0  0  0  0  0  0  0  0  0
   57.1970   33.5990   45.0810 S   0  0  0  0  0  0  0  0  0  0  0  0
   58.9290   33.8930   44.5730 C   0  0  0  0  0  0  0  0  0  0  0  0
   59.8060   34.1130   45.7690 C   0  0  0  0  0  0  0  0  0  0  0  0
   59.8060   35.2450   46.3290 O   0  0  0  0  0  0  0  0  0  0  0  0
   60.5630   33.0200   46.3160 N   0  0  0  0  0  0  0  0  0  0  0  0
   61.4840   33.1260   47.4170 C   0  0  0  0  0  0  0  0  0  0  0  0
   62.8630   33.0790   47.1600 C   0  0  0  0  0  0  0  0  0  0  0  0
   63.7860   33.1850   48.2040 C   0  0  0  0  0  0  0  0  0  0  0  0
   63.3440   33.3710   49.5200 C   0  0  0  0  0  0  0  0  0  0  0  0
   64.4890   33.5210   50.8480 S   0  0  0  0  0  0  0  0  0  0  0  0
   64.1990   34.9990   51.6950 N   0  0  0  0  0  0  0  0  0  0  0  0
   64.3360   32.3730   51.8050 O   0  0  0  0  0  0  0  0  0  0  0  0
   65.8880   33.5210   50.2990 O   0  0  0  0  0  0  0  0  0  0  0  0
   61.9710   33.4530   49.7800 C   0  0  0  0  0  0  0  0  0  0  0  0
   61.0460   33.3350   48.7380 C   0  0  0  0  0  0  0  0  0  0  0  0
   58.5380   31.2250   45.1440 N   0  0  0  0  0  0  0  0  0  0  0  0
   58.6810   29.8710   45.1550 C   0  0  0  0  0  0  0  0  0  0  0  0
   60.0740   29.2930   45.2910 C   0  0  0  0  0  0  0  0  0  0  0  0
   60.7160   29.6640   46.5950 C   0  0  0  0  0  0  0  0  0  0  0  0
   61.7070   30.4450   46.6060 O   0  0  0  0  0  0  0  0  0  0  0  0
   60.2350   29.1050   47.7830 O   0  0  0  0  0  0  0  0  0  0  0  0
   59.3440   29.7950   48.6480 C   0  0  0  0  0  0  0  0  0  0  0  0
   56.0326   25.7060   47.4372 H   0  0  0  0  0  0  0  0  0  0  0  0
   55.3967   26.3445   45.8833 H   0  0  0  0  0  0  0  0  0  0  0  0
   56.5566   24.9729   45.8833 H   0  0  0  0  0  0  0  0  0  0  0  0
   57.2731   27.6936   47.0518 H   0  0  0  0  0  0  0  0  0  0  0  0
   58.3628   26.3336   46.5189 H   0  0  0  0  0  0  0  0  0  0  0  0
   58.5677   27.2444   44.5010 H   0  0  0  0  0  0  0  0  0  0  0  0
   56.7613   27.1935   44.2960 H   0  0  0  0  0  0  0  0  0  0  0  0
   59.2941   33.0186   44.0144 H   0  0  0  0  0  0  0  0  0  0  0  0
   58.9627   34.7930   43.9415 H   0  0  0  0  0  0  0  0  0  0  0  0
   60.3770   32.0680   45.9260 H   0  0  0  0  0  0  0  0  0  0  0  0
   63.2207   32.9576   46.1269 H   0  0  0  0  0  0  0  0  0  0  0  0
   64.8634   33.1221   47.9915 H   0  0  0  0  0  0  0  0  0  0  0  0
   63.1720   35.1850   51.6410 H   0  0  0  0  0  0  0  0  0  0  0  0
   61.6178   33.6111   50.8097 H   0  0  0  0  0  0  0  0  0  0  0  0
   59.9694   33.4060   48.9521 H   0  0  0  0  0  0  0  0  0  0  0  0
   60.0106   28.1967   45.2265 H   0  0  0  0  0  0  0  0  0  0  0  0
   60.6920   29.7064   44.4804 H   0  0  0  0  0  0  0  0  0  0  0  0
   59.6133   29.5865   49.6939 H   0  0  0  0  0  0  0  0  0  0  0  0
   59.4143   30.8765   48.4599 H   0  0  0  0  0  0  0  0  0  0  0  0
   58.3145   29.4563   48.4599 H   0  0  0  0  0  0  0  0  0  0  0  0
  1  2  1  0
  2  3  1  0
  3  4  1  0
  4  5  2  0
  5  6  1  0
  5  7  1  0
  7  8  2  0
  8  9  1  0
  9 10  1  0
 10 11  1  0
 11 12  2  0
 11 13  1  0
 13 14  1  0
 14 15  2  0
 15 16  1  0
 16 17  2  0
 17 18  1  0
 18 19  1  0
 18 20  2  0
 18 21  2  0
 17 22  1  0
 22 23  2  0
  8 24  1  0
 24 25  2  0
 25 26  1  0
 26 27  1  0
 27 28  2  0
 27 29  1  0
 29 30  1  0
 25  4  1  0
 23 14  1  0
  1 31  1  0
  1 32  1  0
  1 33  1  0
  2 34  1  0
  2 35  1  0
  3 36  1  0
  3 37  1  0
 10 38  1  0
 10 39  1  0
 13 40  1  0
 15 41  1  0
 16 42  1  0
 19 43  1  0
 22 44  1  0
 23 45  1  0
 26 46  1  0
 26 47  1  0
 30 48  1  0
 30 49  1  0
 30 50  1  0
M  CHG  2   6  -1  19  -1
M  END
>  <UniqueID>  (20) 
18

>  <SMILES>  (20) 
CCCc1c([O-])nc(SCC(=O)Nc2ccc(S([NH-])(=O)=O)cc2)nc1CC(=O)OC

>  <Energy>  (20) 
41.50620251268177

>  <Genealogy>  (20) 
CCCc1c([O-])nc(SCC(=O)Nc2ccc(S([NH-])(=O)=O)cc2)nc1CC(=O)OC (protonated)
CCCc1c([O-])nc(SCC(=O)Nc2ccc(S([NH-])(=O)=O)cc2)nc1CC(=O)OC (3D coordinates assigned)
CCCc1c([O-])nc(SCC(=O)Nc2ccc(S([NH-])(=O)=O)cc2)nc1CC(=O)OC (optimized conformer: 41.50620251268177 kcal/mol)

>  <smiles>  (20) 
CCCc1c(O)nc(SCC(=O)Nc2ccc(S(N)(=O)=O)cc2)nc1CC(=O)OC

>  <score_type>  (20) 
oracle

>  <origin>  (20) 
adg

>  <m_score__min__energy>  (20) 
-11.779999999999999

>  <m_primary>  (20) 
energy

$$$$
20:0
     RDKit          3D

 39 41  0  0  0  0  0  0  0  0999 V2000
   54.7270   27.0750   46.7390 H   0  0  0  0  0  0  0  0  0  0  0  0
   54.8070   26.3430   45.9970 N   0  0  0  0  0  0  0  0  0  0  0  0
   56.3080   25.5270   46.2560 S   0  0  0  0  0  0  0  0  0  0  0  0
   56.5690   24.5820   45.1170 O   0  0  0  0  0  0  0  0  0  0  0  0
   56.2350   24.7370   47.5320 O   0  0  0  0  0  0  0  0  0  0  0  0
   57.6070   26.7110   46.3650 C   0  0  0  0  0  0  0  0  0  0  0  0
   58.8550   26.3480   46.8900 C   0  0  0  0  0  0  0  0  0  0  0  0
   59.0231   25.3202   47.2439 H   0  0  0  0  0  0  0  0  0  0  0  0
   59.8860   27.2880   46.9650 C   0  0  0  0  0  0  0  0  0  0  0  0
   60.8593   27.0019   47.3903 H   0  0  0  0  0  0  0  0  0  0  0  0
   59.6840   28.5910   46.5010 C   0  0  0  0  0  0  0  0  0  0  0  0
   60.4930   29.3327   46.5750 H   0  0  0  0  0  0  0  0  0  0  0  0
   58.4500   28.9530   45.9410 C   0  0  0  0  0  0  0  0  0  0  0  0
   58.2230   30.3340   45.4800 C   0  0  0  0  0  0  0  0  0  0  0  0
   57.9480   30.5040   44.1140 C   0  0  0  0  0  0  0  0  0  0  0  0
   57.9042   29.6254   43.4535 H   0  0  0  0  0  0  0  0  0  0  0  0
   57.7300   31.7750   43.5870 C   0  0  0  0  0  0  0  0  0  0  0  0
   57.3890   31.9810   41.8790 Cl  0  0  0  0  0  0  0  0  0  0  0  0
   57.7890   32.8790   44.4300 C   0  0  0  0  0  0  0  0  0  0  0  0
   57.6213   33.8887   44.0270 H   0  0  0  0  0  0  0  0  0  0  0  0
   58.0540   32.7100   45.7520 N   0  0  0  0  0  0  0  0  0  0  0  0
   58.2730   31.4920   46.3170 C   0  0  0  0  0  0  0  0  0  0  0  0
   58.5110   31.4750   47.6030 N   0  0  0  0  0  0  0  0  0  0  0  0
   59.1810   32.4530   48.4540 C   0  0  0  0  0  0  0  0  0  0  0  0
   58.6692   33.4234   48.3743 H   0  0  0  0  0  0  0  0  0  0  0  0
   59.1539   32.1157   49.5006 H   0  0  0  0  0  0  0  0  0  0  0  0
   60.6060   32.5970   48.0040 C   0  0  0  0  0  0  0  0  0  0  0  0
   61.0110   33.7360   47.2880 C   0  0  0  0  0  0  0  0  0  0  0  0
   60.2876   34.5378   47.0789 H   0  0  0  0  0  0  0  0  0  0  0  0
   62.3310   33.8540   46.8400 C   0  0  0  0  0  0  0  0  0  0  0  0
   62.6453   34.7515   46.2871 H   0  0  0  0  0  0  0  0  0  0  0  0
   63.2510   32.8330   47.0940 C   0  0  0  0  0  0  0  0  0  0  0  0
   64.2896   32.9289   46.7447 H   0  0  0  0  0  0  0  0  0  0  0  0
   62.8510   31.6900   47.7920 C   0  0  0  0  0  0  0  0  0  0  0  0
   63.5747   30.8854   47.9892 H   0  0  0  0  0  0  0  0  0  0  0  0
   61.5320   31.5680   48.2400 C   0  0  0  0  0  0  0  0  0  0  0  0
   61.2184   30.6622   48.7796 H   0  0  0  0  0  0  0  0  0  0  0  0
   57.4040   28.0170   45.8990 C   0  0  0  0  0  0  0  0  0  0  0  0
   56.4221   28.3099   45.4990 H   0  0  0  0  0  0  0  0  0  0  0  0
  1  2  1  0
  2  3  1  0
  3  4  2  0
  3  5  2  0
  3  6  1  0
  6  7  2  0
  7  8  1  0
  7  9  1  0
  9 10  1  0
  9 11  2  0
 11 12  1  0
 11 13  1  0
 13 14  1  0
 14 15  2  0
 15 16  1  0
 15 17  1  0
 17 18  1  0
 17 19  2  0
 19 20  1  0
 19 21  1  0
 21 22  1  0
 22 23  2  0
 23 24  1  0
 24 25  1  0
 24 26  1  0
 24 27  1  0
 27 28  2  0
 28 29  1  0
 28 30  1  0
 30 31  1  0
 30 32  2  0
 32 33  1  0
 32 34  1  0
 34 35  1  0
 34 36  2  0
 36 37  1  0
 13 38  2  0
 38 39  1  0
 38  6  1  0
 22 14  1  0
 36 27  1  0
M  CHG  2   2  -1  21  -1
M  END
>  <UniqueID>  (21) 
19

>  <SMILES>  (21) 
[NH-]S(=O)(=O)c1cccc(-c2cc(Cl)c[n-]/c2=N/Cc2ccccc2)c1

>  <Energy>  (21) 
55.97358237101981

>  <Genealogy>  (21) 
[NH-]S(=O)(=O)c1cccc(-c2cc(Cl)c[n-]c2=NCc2ccccc2)c1 (protonated)
[NH-]S(=O)(=O)c1cccc(-c2cc(Cl)c[n-]/c2=N/Cc2ccccc2)c1 (cis-trans isomerization)
[NH-]S(=O)(=O)c1cccc(-c2cc(Cl)c[n-]/c2=N/Cc2ccccc2)c1 (3D coordinates assigned)
[NH-]S(=O)(=O)c1cccc(-c2cc(Cl)c[n-]/c2=N/Cc2ccccc2)c1 (optimized conformer: 55.97358237101981 kcal/mol)

>  <smiles>  (21) 
NS(=O)(=O)c1cccc(-c2cc(Cl)c[nH]c2=NCc2ccccc2)c1

>  <score_type>  (21) 
oracle

>  <origin>  (21) 
adg

>  <m_score__min__energy>  (21) 
-13.02

>  <m_primary>  (21) 
energy

$$$$
21:0
     RDKit          3D

 48 50  0  0  0  0  0  0  0  0999 V2000
   56.1420   18.8520   46.1110 C   0  0  0  0  0  0  0  0  0  0  0  0
   57.2400   19.6370   45.5250 N   0  0  0  0  0  0  0  0  0  0  0  0
   58.1250   20.1150   46.6000 C   0  0  0  0  0  0  0  0  0  0  0  0
   56.6080   20.9960   44.5960 S   0  0  0  0  0  0  0  0  0  0  0  0
   55.1800   21.2770   44.9800 O   0  0  0  0  0  0  0  0  0  0  0  0
   56.6100   20.6430   43.1340 O   0  0  0  0  0  0  0  0  0  0  0  0
   57.5370   22.4830   44.7670 N   0  0  0  0  0  0  0  0  0  0  0  0
   57.5290   23.0030   46.1420 C   0  0  0  0  0  0  0  0  0  0  0  0
   56.8670   24.3150   45.7280 C   0  0  1  0  0  0  0  0  0  0  0  0
   57.6900   25.5610   45.9730 C   0  0  0  0  0  0  0  0  0  0  0  0
   59.0780   25.5170   46.2080 C   0  0  0  0  0  0  0  0  0  0  0  0
   59.7780   26.7050   46.4210 C   0  0  0  0  0  0  0  0  0  0  0  0
   59.1000   27.9260   46.3980 C   0  0  0  0  0  0  0  0  0  0  0  0
   59.8100   29.1590   46.6150 C   0  0  0  0  0  0  0  0  0  0  0  0
   60.4060   30.1920   46.7960 C   0  0  0  0  0  0  0  0  0  0  0  0
   61.1170   31.4230   47.0120 C   0  0  0  0  0  0  0  0  0  0  0  0
   60.5070   32.6500   46.7110 C   0  0  0  0  0  0  0  0  0  0  0  0
   61.1990   33.8470   46.9220 C   0  0  0  0  0  0  0  0  0  0  0  0
   62.5010   33.8220   47.4330 C   0  0  0  0  0  0  0  0  0  0  0  0
   63.1120   32.6000   47.7350 C   0  0  0  0  0  0  0  0  0  0  0  0
   64.3740   32.5780   48.2310 F   0  0  0  0  0  0  0  0  0  0  0  0
   62.4210   31.4010   47.5250 C   0  0  0  0  0  0  0  0  0  0  0  0
   57.7220   27.9360   46.1610 C   0  0  0  0  0  0  0  0  0  0  0  0
   57.0590   26.7670   45.9560 N   0  0  0  0  0  0  0  0  0  0  0  0
   56.9390   23.7570   44.3070 C   0  0  2  0  0  0  0  0  0  0  0  0
   55.5800   23.7250   43.5780 C   0  0  0  0  0  0  0  0  0  0  0  0
   55.5980   22.7380   42.5830 O   0  0  0  0  0  0  0  0  0  0  0  0
   56.2044   18.8966   47.2083 H   0  0  0  0  0  0  0  0  0  0  0  0
   55.1781   19.2669   45.7814 H   0  0  0  0  0  0  0  0  0  0  0  0
   56.2228   17.8057   45.7814 H   0  0  0  0  0  0  0  0  0  0  0  0
   57.7920   19.0060   44.9030 H   0  0  0  0  0  0  0  0  0  0  0  0
   57.6791   19.8742   47.5763 H   0  0  0  0  0  0  0  0  0  0  0  0
   59.1054   19.6238   46.5135 H   0  0  0  0  0  0  0  0  0  0  0  0
   58.2518   21.2042   46.5135 H   0  0  0  0  0  0  0  0  0  0  0  0
   56.9174   22.4036   46.8324 H   0  0  0  0  0  0  0  0  0  0  0  0
   58.4766   23.0408   46.6993 H   0  0  0  0  0  0  0  0  0  0  0  0
   55.9334   24.6804   46.1806 H   0  0  0  0  0  0  0  0  0  0  0  0
   59.6066   24.5525   46.2235 H   0  0  0  0  0  0  0  0  0  0  0  0
   60.8619   26.6801   46.6067 H   0  0  0  0  0  0  0  0  0  0  0  0
   59.4834   32.6707   46.3086 H   0  0  0  0  0  0  0  0  0  0  0  0
   60.7193   34.8084   46.6861 H   0  0  0  0  0  0  0  0  0  0  0  0
   63.0449   34.7638   47.5975 H   0  0  0  0  0  0  0  0  0  0  0  0
   62.9019   30.4407   47.7628 H   0  0  0  0  0  0  0  0  0  0  0  0
   57.1744   28.8898   46.1404 H   0  0  0  0  0  0  0  0  0  0  0  0
   57.4813   24.2909   43.5127 H   0  0  0  0  0  0  0  0  0  0  0  0
   54.7827   23.4996   44.3015 H   0  0  0  0  0  0  0  0  0  0  0  0
   55.3935   24.7049   43.1142 H   0  0  0  0  0  0  0  0  0  0  0  0
   56.4320   22.2140   42.7140 H   0  0  0  0  0  0  0  0  0  0  0  0
  1  2  1  0
  2  3  1  0
  2  4  1  0
  4  5  2  0
  4  6  2  0
  4  7  1  0
  7  8  1  0
  8  9  1  0
  9 10  1  0
 10 11  2  0
 11 12  1  0
 12 13  2  0
 13 14  1  0
 14 15  3  0
 15 16  1  0
 16 17  2  0
 17 18  1  0
 18 19  2  0
 19 20  1  0
 20 21  1  0
 20 22  2  0
 13 23  1  0
 23 24  2  0
  9 25  1  0
 25 26  1  0
 26 27  1  0
 25  7  1  0
 24 10  1  0
 22 16  1  0
  1 28  1  0
  1 29  1  0
  1 30  1  0
  2 31  1  0
  3 32  1  0
  3 33  1  0
  3 34  1  0
  8 35  1  0
  8 36  1  0
  9 37  1  1
 11 38  1  0
 12 39  1  0
 17 40  1  0
 18 41  1  0
 19 42  1  0
 22 43  1  0
 23 44  1  0
 25 45  1  6
 26 46  1  0
 26 47  1  0
 27 48  1  0
M  CHG  1   2   1
M  END
>  <UniqueID>  (22) 
20

>  <SMILES>  (22) 
C[NH+](C)S(=O)(=O)N1C[C@@H](c2ccc(C#Cc3cccc(F)c3)cn2)[C@@H]1CO

>  <Energy>  (22) 
125.21389531867733

>  <Genealogy>  (22) 
C[NH+](C)S(=O)(=O)N1CC(c2ccc(C#Cc3cccc(F)c3)cn2)C1CO (protonated)
C[NH+](C)S(=O)(=O)N1C[C@@H](c2ccc(C#Cc3cccc(F)c3)cn2)[C@@H]1CO (chirality)
C[NH+](C)S(=O)(=O)N1C[C@@H](c2ccc(C#Cc3cccc(F)c3)cn2)[C@@H]1CO (3D coordinates assigned)
C[NH+](C)S(=O)(=O)N1C[C@@H](c2ccc(C#Cc3cccc(F)c3)cn2)[C@@H]1CO (nonaromatic ring conformer: 125.21389531867733 kcal/mol)

>  <smiles>  (22) 
CN(C)S(=O)(=O)N1CC(c2ccc(C#Cc3cccc(F)c3)cn2)C1CO

>  <score_type>  (22) 
oracle

>  <origin>  (22) 
adg

>  <m_score__min__energy>  (22) 
-6.7199999999999998

>  <m_primary>  (22) 
energy

$$$$
22:0
     RDKit          3D

 42 44  0  0  0  0  0  0  0  0999 V2000
   58.0550   32.4740   41.0910 C   0  0  0  0  0  0  0  0  0  0  0  0
   57.3090   32.5870   42.3020 O   0  0  0  0  0  0  0  0  0  0  0  0
   57.4210   31.7030   43.3880 C   0  0  0  0  0  0  0  0  0  0  0  0
   58.4980   31.8620   44.2620 C   0  0  0  0  0  0  0  0  0  0  0  0
   58.6600   31.0080   45.3540 C   0  0  0  0  0  0  0  0  0  0  0  0
   57.7430   29.9710   45.5960 C   0  0  0  0  0  0  0  0  0  0  0  0
   57.9770   29.0480   46.7700 C   0  0  0  0  0  0  0  0  0  0  0  0
   58.9920   28.0520   46.4470 N   0  0  0  0  0  0  0  0  0  0  0  0
   58.6990   26.6790   46.1590 C   0  0  0  0  0  0  0  0  0  0  0  0
   59.2870   25.7570   46.7840 O   0  0  0  0  0  0  0  0  0  0  0  0
   57.7020   26.3440   45.0920 C   0  0  0  0  0  0  0  0  0  0  0  0
   56.8390   25.1680   45.5130 C   0  0  0  0  0  0  0  0  0  0  0  0
   55.5200   25.4140   45.9530 C   0  0  0  0  0  0  0  0  0  0  0  0
   55.0190   26.7110   46.0080 O   0  0  0  0  0  0  0  0  0  0  0  0
   54.7160   24.3860   46.3290 N   0  0  0  0  0  0  0  0  0  0  0  0
   55.1350   23.0970   46.3160 C   0  0  0  0  0  0  0  0  0  0  0  0
   56.4430   22.7850   45.9280 C   0  0  0  0  0  0  0  0  0  0  0  0
   56.8820   21.4520   45.9370 C   0  0  0  0  0  0  0  0  0  0  0  0
   58.1940   21.1420   45.5710 C   0  0  0  0  0  0  0  0  0  0  0  0
   59.0740   22.1570   45.1950 C   0  0  0  0  0  0  0  0  0  0  0  0
   58.6470   23.4880   45.1710 C   0  0  0  0  0  0  0  0  0  0  0  0
   57.3210   23.8280   45.5310 C   0  0  0  0  0  0  0  0  0  0  0  0
   56.6440   29.8020   44.7140 C   0  0  0  0  0  0  0  0  0  0  0  0
   55.6770   28.7580   44.9070 N   0  0  0  0  0  0  0  0  0  0  0  0
   56.4940   30.6700   43.6200 C   0  0  0  0  0  0  0  0  0  0  0  0
   59.1170   32.3131   41.3282 H   0  0  0  0  0  0  0  0  0  0  0  0
   57.6770   31.6229   40.5056 H   0  0  0  0  0  0  0  0  0  0  0  0
   57.9461   33.3989   40.5056 H   0  0  0  0  0  0  0  0  0  0  0  0
   59.2260   32.6682   44.0883 H   0  0  0  0  0  0  0  0  0  0  0  0
   59.5145   31.1481   46.0324 H   0  0  0  0  0  0  0  0  0  0  0  0
   58.3139   29.6402   47.6336 H   0  0  0  0  0  0  0  0  0  0  0  0
   57.0357   28.5304   47.0066 H   0  0  0  0  0  0  0  0  0  0  0  0
   57.0585   27.2178   44.9121 H   0  0  0  0  0  0  0  0  0  0  0  0
   58.2444   26.0735   44.1740 H   0  0  0  0  0  0  0  0  0  0  0  0
   54.4445   22.2933   46.6115 H   0  0  0  0  0  0  0  0  0  0  0  0
   56.1910   20.6490   46.2331 H   0  0  0  0  0  0  0  0  0  0  0  0
   58.5338   20.0958   45.5793 H   0  0  0  0  0  0  0  0  0  0  0  0
   60.1087   21.9089   44.9161 H   0  0  0  0  0  0  0  0  0  0  0  0
   59.3489   24.2794   44.8692 H   0  0  0  0  0  0  0  0  0  0  0  0
   54.7700   28.9590   45.3820 H   0  0  0  0  0  0  0  0  0  0  0  0
   55.8420   27.7780   44.5920 H   0  0  0  0  0  0  0  0  0  0  0  0
   55.6419   30.5408   42.9365 H   0  0  0  0  0  0  0  0  0  0  0  0
  1  2  1  0
  2  3  1  0
  3  4  2  0
  4  5  1  0
  5  6  2  0
  6  7  1  0
  7  8  1  0
  8  9  1  0
  9 10  2  0
  9 11  1  0
 11 12  1  0
 12 13  2  0
 13 14  1  0
 13 15  1  0
 15 16  2  0
 16 17  1  0
 17 18  2  0
 18 19  1  0
 19 20  2  0
 20 21  1  0
 21 22  2  0
  6 23  1  0
 23 24  1  0
 23 25  2  0
 25  3  1  0
 22 12  1  0
 22 17  1  0
  1 26  1  0
  1 27  1  0
  1 28  1  0
  4 29  1  0
  5 30  1  0
  7 31  1  0
  7 32  1  0
 11 33  1  0
 11 34  1  0
 16 35  1  0
 18 36  1  0
 19 37  1  0
 20 38  1  0
 21 39  1  0
 24 40  1  0
 24 41  1  0
 25 42  1  0
M  CHG  2   8  -1  14  -1
M  END
>  <UniqueID>  (23) 
21

>  <SMILES>  (23) 
COc1ccc(C[N-]C(=O)Cc2c([O-])ncc3ccccc23)c(N)c1

>  <Energy>  (23) 
49.1735210165933

>  <Genealogy>  (23) 
COc1ccc(C[N-]C(=O)Cc2c([O-])ncc3ccccc23)c(N)c1 (protonated)
COc1ccc(C[N-]C(=O)Cc2c([O-])ncc3ccccc23)c(N)c1 (3D coordinates assigned)
COc1ccc(C[N-]C(=O)Cc2c([O-])ncc3ccccc23)c(N)c1 (optimized conformer: 49.1735210165933 kcal/mol)

>  <smiles>  (23) 
COc1ccc(CNC(=O)Cc2c(O)ncc3ccccc23)c(N)c1

>  <score_type>  (23) 
oracle

>  <origin>  (23) 
adg

>  <m_score__min__energy>  (23) 
-12.220000000000001

>  <m_primary>  (23) 
energy

$$$$
23:0
     RDKit          3D

 49 51  0  0  0  0  0  0  0  0999 V2000
   59.6290   35.3440   46.7100 C   0  0  0  0  0  0  0  0  0  0  0  0
   60.2180   34.4040   45.6680 C   0  0  0  0  0  0  0  0  0  0  0  0
   59.3330   34.2580   44.5570 O   0  0  0  0  0  0  0  0  0  0  0  0
   58.5130   33.1430   44.3060 C   0  0  0  0  0  0  0  0  0  0  0  0
   57.9800   32.4570   45.4030 C   0  0  0  0  0  0  0  0  0  0  0  0
   57.1630   31.3390   45.2160 C   0  0  0  0  0  0  0  0  0  0  0  0
   56.8520   30.8990   43.9210 C   0  0  0  0  0  0  0  0  0  0  0  0
   55.9260   29.7270   43.7110 C   0  0  0  0  0  0  0  0  0  0  0  0
   55.9020   28.8520   44.8870 N   0  0  0  0  0  0  0  0  0  0  0  0
   57.3220   27.8460   44.9660 S   0  0  0  0  0  0  0  0  0  0  0  0
   57.7810   27.4940   43.5770 O   0  0  0  0  0  0  0  0  0  0  0  0
   56.9850   26.5760   45.6970 O   0  0  0  0  0  0  0  0  0  0  0  0
   58.5990   28.6810   45.8430 C   0  0  0  0  0  0  0  0  0  0  0  0
   58.4920   28.8590   47.2250 C   0  0  0  0  0  0  0  0  0  0  0  0
   59.4530   29.6020   47.9110 C   0  0  0  0  0  0  0  0  0  0  0  0
   60.5280   30.1660   47.2020 C   0  0  0  0  0  0  0  0  0  0  0  0
   61.5390   31.0130   47.8750 C   0  0  0  0  0  0  0  0  0  0  0  0
   61.5520   31.1620   49.2740 C   0  0  0  0  0  0  0  0  0  0  0  0
   62.5060   31.9770   49.8900 C   0  0  0  0  0  0  0  0  0  0  0  0
   63.4640   32.6540   49.1270 C   0  0  0  0  0  0  0  0  0  0  0  0
   64.3950   33.4650   49.7930 O   0  0  0  0  0  0  0  0  0  0  0  0
   65.7390   33.0840   50.0700 C   0  0  0  0  0  0  0  0  0  0  0  0
   63.4610   32.4990   47.7290 C   0  0  0  0  0  0  0  0  0  0  0  0
   62.5100   31.6820   47.1120 C   0  0  0  0  0  0  0  0  0  0  0  0
   60.6150   29.9630   45.8580 N   0  0  0  0  0  0  0  0  0  0  0  0
   59.6960   29.2330   45.1720 C   0  0  0  0  0  0  0  0  0  0  0  0
   57.3940   31.5750   42.8170 C   0  0  0  0  0  0  0  0  0  0  0  0
   58.2190   32.6880   43.0060 C   0  0  0  0  0  0  0  0  0  0  0  0
   59.8641   34.9688   47.7169 H   0  0  0  0  0  0  0  0  0  0  0  0
   60.0597   36.3482   46.5831 H   0  0  0  0  0  0  0  0  0  0  0  0
   58.5375   35.3944   46.5831 H   0  0  0  0  0  0  0  0  0  0  0  0
   61.1760   34.8128   45.3143 H   0  0  0  0  0  0  0  0  0  0  0  0
   60.3692   33.4171   46.1297 H   0  0  0  0  0  0  0  0  0  0  0  0
   58.2065   32.8014   46.4229 H   0  0  0  0  0  0  0  0  0  0  0  0
   56.7620   30.8017   46.0881 H   0  0  0  0  0  0  0  0  0  0  0  0
   54.9094   30.1024   43.5225 H   0  0  0  0  0  0  0  0  0  0  0  0
   56.2906   29.1451   42.8517 H   0  0  0  0  0  0  0  0  0  0  0  0
   57.6489   28.4126   47.7726 H   0  0  0  0  0  0  0  0  0  0  0  0
   59.3702   29.7455   48.9985 H   0  0  0  0  0  0  0  0  0  0  0  0
   60.8067   30.6338   49.8868 H   0  0  0  0  0  0  0  0  0  0  0  0
   62.5037   32.0872   50.9845 H   0  0  0  0  0  0  0  0  0  0  0  0
   65.8910   33.0409   51.1586 H   0  0  0  0  0  0  0  0  0  0  0  0
   65.9371   32.0943   49.6327 H   0  0  0  0  0  0  0  0  0  0  0  0
   66.4270   33.8225   49.6327 H   0  0  0  0  0  0  0  0  0  0  0  0
   64.2108   33.0234   47.1185 H   0  0  0  0  0  0  0  0  0  0  0  0
   62.5220   31.5617   46.0187 H   0  0  0  0  0  0  0  0  0  0  0  0
   59.8146   29.0762   44.0897 H   0  0  0  0  0  0  0  0  0  0  0  0
   57.1687   31.2275   41.7979 H   0  0  0  0  0  0  0  0  0  0  0  0
   58.6406   33.2109   42.1349 H   0  0  0  0  0  0  0  0  0  0  0  0
  1  2  1  0
  2  3  1  0
  3  4  1  0
  4  5  2  0
  5  6  1  0
  6  7  2  0
  7  8  1  0
  8  9  1  0
  9 10  1  0
 10 11  2  0
 10 12  2  0
 10 13  1  0
 13 14  2  0
 14 15  1  0
 15 16  2  0
 16 17  1  0
 17 18  2  0
 18 19  1  0
 19 20  2  0
 20 21  1  0
 21 22  1  0
 20 23  1  0
 23 24  2  0
 16 25  1  0
 25 26  2  0
  7 27  1  0
 27 28  2  0
 28  4  1  0
 26 13  1  0
 24 17  1  0
  1 29  1  0
  1 30  1  0
  1 31  1  0
  2 32  1  0
  2 33  1  0
  5 34  1  0
  6 35  1  0
  8 36  1  0
  8 37  1  0
 14 38  1  0
 15 39  1  0
 18 40  1  0
 19 41  1  0
 22 42  1  0
 22 43  1  0
 22 44  1  0
 23 45  1  0
 24 46  1  0
 26 47  1  0
 27 48  1  0
 28 49  1  0
M  CHG  1   9  -1
M  END
>  <UniqueID>  (24) 
22

>  <SMILES>  (24) 
CCOc1ccc(C[N-]S(=O)(=O)c2ccc(-c3ccc(OC)cc3)nc2)cc1

>  <Energy>  (24) 
45.70405963316681

>  <Genealogy>  (24) 
CCOc1ccc(C[N-]S(=O)(=O)c2ccc(-c3ccc(OC)cc3)nc2)cc1 (protonated)
CCOc1ccc(C[N-]S(=O)(=O)c2ccc(-c3ccc(OC)cc3)nc2)cc1 (3D coordinates assigned)
CCOc1ccc(C[N-]S(=O)(=O)c2ccc(-c3ccc(OC)cc3)nc2)cc1 (optimized conformer: 45.70405963316681 kcal/mol)

>  <smiles>  (24) 
CCOc1ccc(CNS(=O)(=O)c2ccc(-c3ccc(OC)cc3)nc2)cc1

>  <score_type>  (24) 
oracle

>  <origin>  (24) 
adg

>  <m_score__min__energy>  (24) 
-9.8399999999999999

>  <m_primary>  (24) 
energy

$$$$
24:0
     RDKit          3D

 47 50  0  0  0  0  0  0  0  0999 V2000
   60.5150   28.3500   45.2640 C   0  0  0  0  0  0  0  0  0  0  0  0
   59.1880   28.6720   44.6450 C   0  0  0  0  0  0  0  0  0  0  0  0
   58.5850   27.8110   43.7060 C   0  0  0  0  0  0  0  0  0  0  0  0
   57.3850   28.1560   43.1410 N   0  0  0  0  0  0  0  0  0  0  0  0
   56.7560   29.3260   43.4570 C   0  0  0  0  0  0  0  0  0  0  0  0
   57.3720   30.1680   44.3750 C   0  0  0  0  0  0  0  0  0  0  0  0
   56.9260   31.3590   44.8120 N   0  0  0  0  0  0  0  0  0  0  0  0
   57.9210   31.7120   45.6690 C   0  0  0  0  0  0  0  0  0  0  0  0
   57.9080   32.9860   46.4690 C   0  0  0  0  0  0  0  0  0  0  0  0
   59.0870   33.1380   47.3460 N   0  0  0  0  0  0  0  0  0  0  0  0
   59.1450   32.1130   48.4180 C   0  0  0  0  0  0  0  0  0  0  0  0
   60.0070   32.5400   49.6260 C   0  0  0  0  0  0  0  0  0  0  0  0
   61.0380   33.5040   49.2290 N   0  0  0  0  0  0  0  0  0  0  0  0
   62.3960   33.3320   49.6650 C   0  0  0  0  0  0  0  0  0  0  0  0
   62.7090   33.5980   51.0080 C   0  0  0  0  0  0  0  0  0  0  0  0
   64.0200   33.4820   51.4670 C   0  0  0  0  0  0  0  0  0  0  0  0
   65.0360   33.1070   50.5900 C   0  0  0  0  0  0  0  0  0  0  0  0
   64.7420   32.8350   49.2520 C   0  0  0  0  0  0  0  0  0  0  0  0
   63.4200   32.9180   48.7730 C   0  0  0  0  0  0  0  0  0  0  0  0
   63.1370   32.6250   47.3140 C   0  0  0  0  0  0  0  0  0  0  0  0
   64.1180   31.8130   46.7770 F   0  0  0  0  0  0  0  0  0  0  0  0
   61.9110   31.9970   47.2000 F   0  0  0  0  0  0  0  0  0  0  0  0
   63.1060   33.7910   46.5670 F   0  0  0  0  0  0  0  0  0  0  0  0
   60.6970   34.6500   48.3780 C   0  0  0  0  0  0  0  0  0  0  0  0
   59.2740   34.5130   47.8390 C   0  0  0  0  0  0  0  0  0  0  0  0
   58.9130   30.7920   45.7490 N   0  0  0  0  0  0  0  0  0  0  0  0
   58.5400   29.8330   44.9250 N   0  0  0  0  0  0  0  0  0  0  0  0
   60.4234   28.3722   46.3600 H   0  0  0  0  0  0  0  0  0  0  0  0
   60.8358   27.3479   44.9431 H   0  0  0  0  0  0  0  0  0  0  0  0
   61.2594   29.0936   44.9431 H   0  0  0  0  0  0  0  0  0  0  0  0
   59.0753   26.8664   43.4279 H   0  0  0  0  0  0  0  0  0  0  0  0
   56.9430   27.5100   42.4490 H   0  0  0  0  0  0  0  0  0  0  0  0
   55.7922   29.5936   42.9994 H   0  0  0  0  0  0  0  0  0  0  0  0
   57.8801   33.8360   45.7713 H   0  0  0  0  0  0  0  0  0  0  0  0
   57.0210   32.9534   47.1187 H   0  0  0  0  0  0  0  0  0  0  0  0
   58.1214   31.9187   48.7709 H   0  0  0  0  0  0  0  0  0  0  0  0
   59.6120   31.2158   47.9857 H   0  0  0  0  0  0  0  0  0  0  0  0
   59.3577   33.0015   50.3846 H   0  0  0  0  0  0  0  0  0  0  0  0
   60.5041   31.6465   50.0317 H   0  0  0  0  0  0  0  0  0  0  0  0
   61.9125   33.9005   51.7038 H   0  0  0  0  0  0  0  0  0  0  0  0
   64.2528   33.6866   52.5224 H   0  0  0  0  0  0  0  0  0  0  0  0
   66.0714   33.0251   50.9522 H   0  0  0  0  0  0  0  0  0  0  0  0
   65.5525   32.5526   48.5641 H   0  0  0  0  0  0  0  0  0  0  0  0
   60.7726   35.5747   48.9690 H   0  0  0  0  0  0  0  0  0  0  0  0
   61.3965   34.6832   47.5297 H   0  0  0  0  0  0  0  0  0  0  0  0
   58.5521   34.7195   48.6428 H   0  0  0  0  0  0  0  0  0  0  0  0
   59.1121   35.2301   47.0208 H   0  0  0  0  0  0  0  0  0  0  0  0
  1  2  1  0
  2  3  2  0
  3  4  1  0
  4  5  2  0
  5  6  1  0
  6  7  2  0
  7  8  1  0
  8  9  1  0
  9 10  1  0
 10 11  1  0
 11 12  1  0
 12 13  1  0
 13 14  1  0
 14 15  2  0
 15 16  1  0
 16 17  2  0
 17 18  1  0
 18 19  2  0
 19 20  1  0
 20 21  1  0
 20 22  1  0
 20 23  1  0
 13 24  1  0
 24 25  1  0
  8 26  2  0
 26 27  1  0
 27  2  1  0
 27  6  1  0
 25 10  1  0
 19 14  1  0
  1 28  1  0
  1 29  1  0
  1 30  1  0
  3 31  1  0
  4 32  1  0
  5 33  1  0
  9 34  1  0
  9 35  1  0
 11 36  1  0
 11 37  1  0
 12 38  1  0
 12 39  1  0
 15 40  1  0
 16 41  1  0
 17 42  1  0
 18 43  1  0
 24 44  1  0
 24 45  1  0
 25 46  1  0
 25 47  1  0
M  CHG  1   4   1
M  END
>  <UniqueID>  (25) 
23

>  <SMILES>  (25) 
Cc1c[nH+]cc2nc(CN3CCN(c4ccccc4C(F)(F)F)CC3)nn12

>  <Energy>  (25) 
103.20227183799351

>  <Genealogy>  (25) 
Cc1c[nH+]cc2nc(CN3CCN(c4ccccc4C(F)(F)F)CC3)nn12 (protonated)
Cc1c[nH+]cc2nc(CN3CCN(c4ccccc4C(F)(F)F)CC3)nn12 (3D coordinates assigned)
Cc1c[nH+]cc2nc(CN3CCN(c4ccccc4C(F)(F)F)CC3)nn12 (nonaromatic ring conformer: 103.20227183799351 kcal/mol)

>  <smiles>  (25) 
Cc1cncc2nc(CN3CCN(c4ccccc4C(F)(F)F)CC3)nn12

>  <score_type>  (25) 
oracle

>  <origin>  (25) 
adg

>  <m_score__min__energy>  (25) 
-6.4800000000000004

>  <m_primary>  (25) 
energy

$$$$
25:0
     RDKit          3D

 32 33  0  0  0  0  0  0  0  0999 V2000
   59.8620   28.5370   47.6830 C   0  0  0  0  0  0  0  0  0  0  0  0
   58.6380   29.0860   47.2040 O   0  0  0  0  0  0  0  0  0  0  0  0
   58.4990   30.3750   46.6630 C   0  0  0  0  0  0  0  0  0  0  0  0
   58.8970   31.5220   47.3740 C   0  0  0  0  0  0  0  0  0  0  0  0
   58.7260   32.8010   46.8300 C   0  0  0  0  0  0  0  0  0  0  0  0
   59.2620   34.2160   47.8040 S   0  0  0  0  0  0  0  0  0  0  0  0
   60.9940   33.8670   47.5220 C   0  0  0  0  0  0  0  0  0  0  0  0
   61.6550   34.2180   46.4000 N   0  0  0  0  0  0  0  0  0  0  0  0
   62.9600   33.8390   46.4470 C   0  0  0  0  0  0  0  0  0  0  0  0
   63.3410   33.1810   47.6110 C   0  0  0  0  0  0  0  0  0  0  0  0
   61.9940   33.0720   48.6120 S   0  0  0  0  0  0  0  0  0  0  0  0
   58.1470   32.9490   45.5510 C   0  0  0  0  0  0  0  0  0  0  0  0
   57.9870   34.3010   44.9000 C   0  0  0  0  0  0  0  0  0  0  0  0
   59.2170   34.9720   44.8710 O   0  0  0  0  0  0  0  0  0  0  0  0
   57.7710   31.8030   44.8350 C   0  0  0  0  0  0  0  0  0  0  0  0
   57.9450   30.5210   45.3760 C   0  0  0  0  0  0  0  0  0  0  0  0
   57.4880   29.3160   44.5920 C   0  0  0  0  0  0  0  0  0  0  0  0
   56.1110   28.9170   45.0180 C   0  0  0  0  0  0  0  0  0  0  0  0
   55.1490   29.7180   44.8790 O   0  0  0  0  0  0  0  0  0  0  0  0
   55.8980   27.6800   45.6120 O   0  0  0  0  0  0  0  0  0  0  0  0
   59.8589   28.5384   48.7830 H   0  0  0  0  0  0  0  0  0  0  0  0
   59.9686   27.5048   47.3180 H   0  0  0  0  0  0  0  0  0  0  0  0
   60.7037   29.1438   47.3180 H   0  0  0  0  0  0  0  0  0  0  0  0
   59.3487   31.4126   48.3710 H   0  0  0  0  0  0  0  0  0  0  0  0
   63.6627   34.0384   45.6245 H   0  0  0  0  0  0  0  0  0  0  0  0
   64.3472   32.7987   47.8375 H   0  0  0  0  0  0  0  0  0  0  0  0
   57.6211   34.1680   43.8712 H   0  0  0  0  0  0  0  0  0  0  0  0
   57.2667   34.8962   45.4804 H   0  0  0  0  0  0  0  0  0  0  0  0
   59.9010   34.3220   45.1810 H   0  0  0  0  0  0  0  0  0  0  0  0
   57.3322   31.9117   43.8322 H   0  0  0  0  0  0  0  0  0  0  0  0
   57.4802   29.5613   43.5197 H   0  0  0  0  0  0  0  0  0  0  0  0
   58.1790   28.4811   44.7803 H   0  0  0  0  0  0  0  0  0  0  0  0
  1  2  1  0
  2  3  1  0
  3  4  2  0
  4  5  1  0
  5  6  1  0
  6  7  1  0
  7  8  2  0
  8  9  1  0
  9 10  2  0
 10 11  1  0
  5 12  2  0
 12 13  1  0
 13 14  1  0
 12 15  1  0
 15 16  2  0
 16 17  1  0
 17 18  1  0
 18 19  2  0
 18 20  1  0
 16  3  1  0
 11  7  1  0
  1 21  1  0
  1 22  1  0
  1 23  1  0
  4 24  1  0
  9 25  1  0
 10 26  1  0
 13 27  1  0
 13 28  1  0
 14 29  1  0
 15 30  1  0
 17 31  1  0
 17 32  1  0
M  CHG  1  20  -1
M  END
>  <UniqueID>  (26) 
24

>  <SMILES>  (26) 
COc1cc(Sc2nccs2)c(CO)cc1CC(=O)[O-]

>  <Energy>  (26) 
56.544998900940456

>  <Genealogy>  (26) 
COc1cc(Sc2nccs2)c(CO)cc1CC(=O)[O-] (protonated)
COc1cc(Sc2nccs2)c(CO)cc1CC(=O)[O-] (3D coordinates assigned)
COc1cc(Sc2nccs2)c(CO)cc1CC(=O)[O-] (optimized conformer: 56.544998900940456 kcal/mol)

>  <smiles>  (26) 
COc1cc(Sc2nccs2)c(CO)cc1CC(=O)O

>  <score_type>  (26) 
oracle

>  <origin>  (26) 
adg

>  <m_score__min__energy>  (26) 
-8.9000000000000004

>  <m_primary>  (26) 
energy

$$$$
26:0
     RDKit          3D

 39 41  0  0  0  0  0  0  0  0999 V2000
   57.3340   31.0320   43.0310 C   0  0  0  0  0  0  0  0  0  0  0  0
   57.1360   30.9930   44.5160 C   0  0  0  0  0  0  0  0  0  0  0  0
   56.6490   32.0040   45.0900 O   0  0  0  0  0  0  0  0  0  0  0  0
   57.5280   29.8050   45.3200 C   0  0  0  0  0  0  0  0  0  0  0  0
   58.7980   29.7420   45.9270 C   0  0  0  0  0  0  0  0  0  0  0  0
   59.7160   30.8360   45.7210 N   0  0  0  0  0  0  0  0  0  0  0  0
   59.6060   32.1210   46.3630 C   0  0  0  0  0  0  0  0  0  0  0  0
   59.8280   32.1920   47.7480 C   0  0  0  0  0  0  0  0  0  0  0  0
   59.8240   33.4220   48.4080 C   0  0  0  0  0  0  0  0  0  0  0  0
   59.5920   34.5970   47.6940 C   0  0  0  0  0  0  0  0  0  0  0  0
   59.3350   34.5410   46.3230 C   0  0  0  0  0  0  0  0  0  0  0  0
   59.3110   33.3120   45.6510 C   0  0  0  0  0  0  0  0  0  0  0  0
   58.9570   33.3170   44.3020 O   0  0  0  0  0  0  0  0  0  0  0  0
   59.1390   28.6680   46.7220 N   0  0  0  0  0  0  0  0  0  0  0  0
   60.3420   28.7510   47.5760 C   0  0  0  0  0  0  0  0  0  0  0  0
   58.3400   27.5420   46.7540 C   0  0  0  0  0  0  0  0  0  0  0  0
   58.7670   26.3500   47.3900 C   0  0  0  0  0  0  0  0  0  0  0  0
   57.9410   25.2310   47.4520 C   0  0  0  0  0  0  0  0  0  0  0  0
   56.6780   25.2610   46.8770 C   0  0  0  0  0  0  0  0  0  0  0  0
   56.2330   26.4040   46.2140 C   0  0  0  0  0  0  0  0  0  0  0  0
   54.9640   26.3750   45.6410 O   0  0  0  0  0  0  0  0  0  0  0  0
   57.0610   27.5540   46.1310 C   0  0  0  0  0  0  0  0  0  0  0  0
   56.6560   28.7110   45.4350 C   0  0  0  0  0  0  0  0  0  0  0  0
   55.5270   28.7560   44.8750 O   0  0  0  0  0  0  0  0  0  0  0  0
   58.3907   31.2401   42.8073 H   0  0  0  0  0  0  0  0  0  0  0  0
   57.0519   30.0610   42.5978 H   0  0  0  0  0  0  0  0  0  0  0  0
   56.7047   31.8235   42.5978 H   0  0  0  0  0  0  0  0  0  0  0  0
   60.4510   30.7160   44.9880 H   0  0  0  0  0  0  0  0  0  0  0  0
   60.0069   31.2687   48.3186 H   0  0  0  0  0  0  0  0  0  0  0  0
   60.0040   33.4644   49.4923 H   0  0  0  0  0  0  0  0  0  0  0  0
   59.6115   35.5678   48.2109 H   0  0  0  0  0  0  0  0  0  0  0  0
   59.1496   35.4707   45.7651 H   0  0  0  0  0  0  0  0  0  0  0  0
   58.0020   33.2490   43.9790 H   0  0  0  0  0  0  0  0  0  0  0  0
   60.0425   28.7303   48.6343 H   0  0  0  0  0  0  0  0  0  0  0  0
   61.0013   27.8962   47.3647 H   0  0  0  0  0  0  0  0  0  0  0  0
   60.8777   29.6882   47.3647 H   0  0  0  0  0  0  0  0  0  0  0  0
   59.7687   26.3080   47.8427 H   0  0  0  0  0  0  0  0  0  0  0  0
   58.2907   24.3194   47.9587 H   0  0  0  0  0  0  0  0  0  0  0  0
   56.0248   24.3785   46.9447 H   0  0  0  0  0  0  0  0  0  0  0  0
  1  2  1  0
  2  3  2  0
  2  4  1  0
  4  5  2  0
  5  6  1  0
  6  7  1  0
  7  8  2  0
  8  9  1  0
  9 10  2  0
 10 11  1  0
 11 12  2  0
 12 13  1  0
  5 14  1  0
 14 15  1  0
 14 16  1  0
 16 17  2  0
 17 18  1  0
 18 19  2  0
 19 20  1  0
 20 21  1  0
 20 22  2  0
 22 23  1  0
 23 24  2  0
 23  4  1  0
 12  7  1  0
 22 16  1  0
  1 25  1  0
  1 26  1  0
  1 27  1  0
  6 28  1  0
  8 29  1  0
  9 30  1  0
 10 31  1  0
 11 32  1  0
 13 33  1  0
 15 34  1  0
 15 35  1  0
 15 36  1  0
 17 37  1  0
 18 38  1  0
 19 39  1  0
M  CHG  1  21  -1
M  END
>  <UniqueID>  (27) 
25

>  <SMILES>  (27) 
CC(=O)c1c(Nc2ccccc2O)n(C)c2cccc([O-])c2c1=O

>  <Energy>  (27) 
72.84353326900026

>  <Genealogy>  (27) 
CC(=O)c1c(Nc2ccccc2O)n(C)c2cccc([O-])c2c1=O (protonated)
CC(=O)c1c(Nc2ccccc2O)n(C)c2cccc([O-])c2c1=O (3D coordinates assigned)
CC(=O)c1c(Nc2ccccc2O)n(C)c2cccc([O-])c2c1=O (optimized conformer: 72.84353326900026 kcal/mol)

>  <smiles>  (27) 
CC(=O)c1c(Nc2ccccc2O)n(C)c2cccc(O)c2c1=O

>  <score_type>  (27) 
oracle

>  <origin>  (27) 
adg

>  <m_score__min__energy>  (27) 
-10.77

>  <m_primary>  (27) 
energy

$$$$
27:0
     RDKit          3D

 54 57  0  0  0  0  0  0  0  0999 V2000
   60.1400   33.3080   52.3900 C   0  0  0  0  0  0  0  0  0  0  0  0
   60.8650   32.1780   51.9160 O   0  0  0  0  0  0  0  0  0  0  0  0
   60.4700   31.3810   50.8320 C   0  0  0  0  0  0  0  0  0  0  0  0
   59.3060   31.6440   50.0860 C   0  0  0  0  0  0  0  0  0  0  0  0
   58.9530   30.8180   49.0150 C   0  0  0  0  0  0  0  0  0  0  0  0
   59.7540   29.7180   48.6720 C   0  0  0  0  0  0  0  0  0  0  0  0
   59.3890   28.8410   47.5030 C   0  0  0  0  0  0  0  0  0  0  0  0
   59.6770   29.4940   46.2190 N   0  0  0  0  0  0  0  0  0  0  0  0
   60.7530   28.9860   45.3630 C   0  0  0  0  0  0  0  0  0  0  0  0
   58.6250   30.2580   45.6090 C   0  0  0  0  0  0  0  0  0  0  0  0
   57.5070   29.7660   44.9550 C   0  0  0  0  0  0  0  0  0  0  0  0
   57.1940   28.3300   44.6860 C   0  0  0  0  0  0  0  0  0  0  0  0
   56.7110   30.7940   44.5740 N   0  0  0  0  0  0  0  0  0  0  0  0
   57.3710   31.8840   45.0250 C   0  0  0  0  0  0  0  0  0  0  0  0
   56.9530   33.2040   44.8820 C   0  0  0  0  0  0  0  0  0  0  0  0
   57.7730   34.2110   45.4150 C   0  0  0  0  0  0  0  0  0  0  0  0
   58.9800   33.8850   46.0790 C   0  0  0  0  0  0  0  0  0  0  0  0
   59.8550   34.9400   46.6410 C   0  0  0  0  0  0  0  0  0  0  0  0
   60.0180   36.0130   46.0030 O   0  0  0  0  0  0  0  0  0  0  0  0
   60.4910   34.8000   47.9190 N   0  0  0  0  0  0  0  0  0  0  0  0
   61.6600   34.0160   48.2020 C   0  0  0  0  0  0  0  0  0  0  0  0
   62.3580   33.4340   47.1370 C   0  0  0  0  0  0  0  0  0  0  0  0
   63.4970   32.6600   47.3780 C   0  0  0  0  0  0  0  0  0  0  0  0
   63.9400   32.4530   48.6860 C   0  0  0  0  0  0  0  0  0  0  0  0
   63.2360   33.0100   49.7630 C   0  0  0  0  0  0  0  0  0  0  0  0
   63.6610   32.8030   51.0730 O   0  0  0  0  0  0  0  0  0  0  0  0
   62.0930   33.7810   49.5220 C   0  0  0  0  0  0  0  0  0  0  0  0
   59.3550   32.5300   46.1720 C   0  0  0  0  0  0  0  0  0  0  0  0
   58.5230   31.5930   45.6530 N   0  0  0  0  0  0  0  0  0  0  0  0
   60.9160   29.4580   49.4170 C   0  0  0  0  0  0  0  0  0  0  0  0
   61.2690   30.2840   50.4870 C   0  0  0  0  0  0  0  0  0  0  0  0
   60.1397   33.3084   53.4900 H   0  0  0  0  0  0  0  0  0  0  0  0
   60.6160   34.2293   52.0231 H   0  0  0  0  0  0  0  0  0  0  0  0
   59.1041   33.2593   52.0231 H   0  0  0  0  0  0  0  0  0  0  0  0
   58.6711   32.5035   50.3469 H   0  0  0  0  0  0  0  0  0  0  0  0
   58.0415   31.0316   48.4374 H   0  0  0  0  0  0  0  0  0  0  0  0
   59.9668   27.9070   47.5647 H   0  0  0  0  0  0  0  0  0  0  0  0
   58.3082   28.6417   47.5499 H   0  0  0  0  0  0  0  0  0  0  0  0
   61.5698   28.6004   45.9908 H   0  0  0  0  0  0  0  0  0  0  0  0
   60.3649   28.1760   44.7279 H   0  0  0  0  0  0  0  0  0  0  0  0
   61.1318   29.8004   44.7279 H   0  0  0  0  0  0  0  0  0  0  0  0
   57.0774   27.7952   45.6401 H   0  0  0  0  0  0  0  0  0  0  0  0
   56.2595   28.2601   44.1099 H   0  0  0  0  0  0  0  0  0  0  0  0
   58.0146   27.8775   44.1099 H   0  0  0  0  0  0  0  0  0  0  0  0
   56.0117   33.4498   44.3686 H   0  0  0  0  0  0  0  0  0  0  0  0
   57.4744   35.2650   45.3156 H   0  0  0  0  0  0  0  0  0  0  0  0
   62.0084   33.5865   46.1052 H   0  0  0  0  0  0  0  0  0  0  0  0
   64.0453   32.2132   46.5356 H   0  0  0  0  0  0  0  0  0  0  0  0
   64.8425   31.8521   48.8716 H   0  0  0  0  0  0  0  0  0  0  0  0
   63.0130   32.5300   51.8030 H   0  0  0  0  0  0  0  0  0  0  0  0
   61.5304   34.2052   50.3667 H   0  0  0  0  0  0  0  0  0  0  0  0
   60.3000   32.2390   46.6540 H   0  0  0  0  0  0  0  0  0  0  0  0
   61.5518   28.5990   49.1564 H   0  0  0  0  0  0  0  0  0  0  0  0
   62.1817   30.0710   51.0629 H   0  0  0  0  0  0  0  0  0  0  0  0
  1  2  1  0
  2  3  1  0
  3  4  2  0
  4  5  1  0
  5  6  2  0
  6  7  1  0
  7  8  1  0
  8  9  1  0
  8 10  1  0
 10 11  2  0
 11 12  1  0
 11 13  1  0
 13 14  2  0
 14 15  1  0
 15 16  2  0
 16 17  1  0
 17 18  1  0
 18 19  2  0
 18 20  1  0
 20 21  1  0
 21 22  2  0
 22 23  1  0
 23 24  2  0
 24 25  1  0
 25 26  1  0
 25 27  2  0
 17 28  2  0
 28 29  1  0
  6 30  1  0
 30 31  2  0
 31  3  1  0
 29 10  1  0
 29 14  1  0
 27 21  1  0
  1 32  1  0
  1 33  1  0
  1 34  1  0
  4 35  1  0
  5 36  1  0
  7 37  1  0
  7 38  1  0
  9 39  1  0
  9 40  1  0
  9 41  1  0
 12 42  1  0
 12 43  1  0
 12 44  1  0
 15 45  1  0
 16 46  1  0
 22 47  1  0
 23 48  1  0
 24 49  1  0
 26 50  1  0
 27 51  1  0
 28 52  1  0
 30 53  1  0
 31 54  1  0
M  CHG  1  20  -1
M  END
>  <UniqueID>  (28) 
26

>  <SMILES>  (28) 
COc1ccc(CN(C)c2c(C)nc3ccc(C(=O)[N-]c4cccc(O)c4)cn23)cc1

>  <Energy>  (28) 
102.1533005405141

>  <Genealogy>  (28) 
COc1ccc(CN(C)c2c(C)nc3ccc(C(=O)[N-]c4cccc(O)c4)cn23)cc1 (protonated)
COc1ccc(CN(C)c2c(C)nc3ccc(C(=O)[N-]c4cccc(O)c4)cn23)cc1 (3D coordinates assigned)
COc1ccc(CN(C)c2c(C)nc3ccc(C(=O)[N-]c4cccc(O)c4)cn23)cc1 (optimized conformer: 102.1533005405141 kcal/mol)

>  <smiles>  (28) 
COc1ccc(CN(C)c2c(C)nc3ccc(C(=O)Nc4cccc(O)c4)cn23)cc1

>  <score_type>  (28) 
oracle

>  <origin>  (28) 
adg

>  <m_score__min__energy>  (28) 
-10.81

>  <m_primary>  (28) 
energy

$$$$
28:0
     RDKit          3D

 50 53  0  0  0  0  0  0  0  0999 V2000
   59.4180   34.7223   48.7068 H   0  0  0  0  0  0  0  0  0  0  0  0
   59.3020   34.5900   47.6210 C   0  0  0  0  0  0  0  0  0  0  0  0
   58.8180   33.4210   47.1270 N   0  0  0  0  0  0  0  0  0  0  0  0
   58.6500   33.2140   45.7900 C   0  0  0  0  0  0  0  0  0  0  0  0
   58.0890   31.9300   45.3030 C   0  0  0  0  0  0  0  0  0  0  0  0
   58.6990   30.7640   45.6350 N   0  0  0  0  0  0  0  0  0  0  0  0
   58.2280   29.5610   45.2050 C   0  0  0  0  0  0  0  0  0  0  0  0
   58.8450   28.4570   45.5080 N   0  0  0  0  0  0  0  0  0  0  0  0
   58.1960   27.2180   45.8370 C   0  0  0  0  0  0  0  0  0  0  0  0
   58.9740   26.0640   46.0480 C   0  0  0  0  0  0  0  0  0  0  0  0
   60.0701   26.1232   45.9762 H   0  0  0  0  0  0  0  0  0  0  0  0
   58.3610   24.8400   46.3490 C   0  0  0  0  0  0  0  0  0  0  0  0
   58.9781   23.9488   46.5358 H   0  0  0  0  0  0  0  0  0  0  0  0
   56.9560   24.7480   46.4130 C   0  0  0  0  0  0  0  0  0  0  0  0
   56.1850   25.8850   46.0930 C   0  0  0  0  0  0  0  0  0  0  0  0
   56.7940   27.1180   45.8500 C   0  0  0  0  0  0  0  0  0  0  0  0
   56.1769   28.0104   45.6689 H   0  0  0  0  0  0  0  0  0  0  0  0
   54.8010   25.7680   45.9810 O   0  0  0  0  0  0  0  0  0  0  0  0
   54.2150   24.4980   45.7270 C   0  0  0  0  0  0  0  0  0  0  0  0
   54.4182   24.2068   44.6859 H   0  0  0  0  0  0  0  0  0  0  0  0
   53.1302   24.5656   45.8959 H   0  0  0  0  0  0  0  0  0  0  0  0
   54.8010   23.4390   46.6720 C   0  0  0  0  0  0  0  0  0  0  0  0
   54.5086   22.4415   46.3123 H   0  0  0  0  0  0  0  0  0  0  0  0
   54.4073   23.6297   47.6813 H   0  0  0  0  0  0  0  0  0  0  0  0
   56.2740   23.5090   46.7370 N   0  0  0  0  0  0  0  0  0  0  0  0
   56.9320   22.4400   47.4380 C   0  0  0  0  0  0  0  0  0  0  0  0
   56.9750   22.4420   48.6970 O   0  0  0  0  0  0  0  0  0  0  0  0
   57.4690   21.3360   46.6990 N   0  0  0  0  0  0  0  0  0  0  0  0
   56.8540   20.7200   45.5280 C   0  0  0  0  0  0  0  0  0  0  0  0
   55.7750   20.9336   45.5380 H   0  0  0  0  0  0  0  0  0  0  0  0
   57.0416   19.6370   45.5717 H   0  0  0  0  0  0  0  0  0  0  0  0
   57.4580   21.2600   44.2170 C   0  0  0  0  0  0  0  0  0  0  0  0
   56.8376   20.9200   43.3747 H   0  0  0  0  0  0  0  0  0  0  0  0
   58.4864   20.8781   44.1365 H   0  0  0  0  0  0  0  0  0  0  0  0
   57.5170   22.6770   44.1980 O   0  0  0  0  0  0  0  0  0  0  0  0
   56.6220   23.2060   43.2350 C   0  0  0  0  0  0  0  0  0  0  0  0
   55.7837   23.7015   43.7467 H   0  0  0  0  0  0  0  0  0  0  0  0
   57.1508   23.9368   42.6054 H   0  0  0  0  0  0  0  0  0  0  0  0
   56.2368   22.3904   42.6054 H   0  0  0  0  0  0  0  0  0  0  0  0
   57.1200   29.5130   44.4210 N   0  0  0  0  0  0  0  0  0  0  0  0
   56.4680   30.6480   44.0670 C   0  0  0  0  0  0  0  0  0  0  0  0
   55.5635   30.5914   43.4436 H   0  0  0  0  0  0  0  0  0  0  0  0
   56.9440   31.8850   44.4930 C   0  0  0  0  0  0  0  0  0  0  0  0
   56.4306   32.8125   44.1993 H   0  0  0  0  0  0  0  0  0  0  0  0
   58.9970   34.2370   44.8890 C   0  0  0  0  0  0  0  0  0  0  0  0
   58.8700   34.0880   43.8066 H   0  0  0  0  0  0  0  0  0  0  0  0
   59.5030   35.4410   45.3770 C   0  0  0  0  0  0  0  0  0  0  0  0
   59.7837   36.2445   44.6802 H   0  0  0  0  0  0  0  0  0  0  0  0
   59.6520   35.6230   46.7510 C   0  0  0  0  0  0  0  0  0  0  0  0
   60.0421   36.5727   47.1458 H   0  0  0  0  0  0  0  0  0  0  0  0
  1  2  1  0
  2  3  2  0
  3  4  1  0
  4  5  1  0
  5  6  2  0
  6  7  1  0
  7  8  2  0
  8  9  1  0
  9 10  2  0
 10 11  1  0
 10 12  1  0
 12 13  1  0
 12 14  2  0
 14 15  1  0
 15 16  2  0
 16 17  1  0
 15 18  1  0
 18 19  1  0
 19 20  1  0
 19 21  1  0
 19 22  1  0
 22 23  1  0
 22 24  1  0
 22 25  1  0
 25 26  1  0
 26 27  2  0
 26 28  1  0
 28 29  1  0
 29 30  1  0
 29 31  1  0
 29 32  1  0
 32 33  1  0
 32 34  1  0
 32 35  1  0
 35 36  1  0
 36 37  1  0
 36 38  1  0
 36 39  1  0
  7 40  1  0
 40 41  1  0
 41 42  1  0
 41 43  2  0
 43 44  1  0
  4 45  2  0
 45 46  1  0
 45 47  1  0
 47 48  1  0
 47 49  2  0
 49 50  1  0
 49  2  1  0
 43  5  1  0
 16  9  1  0
 25 14  1  0
M  CHG  2  28  -1  40  -1
M  END
>  <UniqueID>  (29) 
27

>  <SMILES>  (29) 
COCC[N-]C(=O)N1CCOc2cc(/N=c3\nc(-c4ccccn4)cc[n-]3)ccc21

>  <Energy>  (29) 
72.47108849122769

>  <Genealogy>  (29) 
COCC[N-]C(=O)N1CCOc2cc(N=c3nc(-c4ccccn4)cc[n-]3)ccc21 (protonated)
COCC[N-]C(=O)N1CCOc2cc(/N=c3\nc(-c4ccccn4)cc[n-]3)ccc21 (cis-trans isomerization)
COCC[N-]C(=O)N1CCOc2cc(/N=c3\nc(-c4ccccn4)cc[n-]3)ccc21 (3D coordinates assigned)
COCC[N-]C(=O)N1CCOc2cc(/N=c3\nc(-c4ccccn4)cc[n-]3)ccc21 (nonaromatic ring conformer: 72.47108849122769 kcal/mol)

>  <smiles>  (29) 
COCCNC(=O)N1CCOc2cc(N=c3nc(-c4ccccn4)cc[nH]3)ccc21

>  <score_type>  (29) 
oracle

>  <origin>  (29) 
adg

>  <m_score__min__energy>  (29) 
-11.5

>  <m_primary>  (29) 
energy

$$$$
29:0
     RDKit          3D

 39 41  0  0  0  0  0  0  0  0999 V2000
   59.0350   30.5620   47.6760 O   0  0  0  0  0  0  0  0  0  0  0  0
   58.8730   30.8460   46.4570 C   0  0  0  0  0  0  0  0  0  0  0  0
   58.7260   29.7880   45.4950 N   0  0  0  0  0  0  0  0  0  0  0  0
   58.2890   28.4580   45.8300 C   0  0  0  0  0  0  0  0  0  0  0  0
   59.2300   27.5110   46.2560 C   0  0  0  0  0  0  0  0  0  0  0  0
   58.8290   26.2160   46.5890 C   0  0  0  0  0  0  0  0  0  0  0  0
   57.4870   25.8470   46.4730 C   0  0  0  0  0  0  0  0  0  0  0  0
   56.5390   26.7610   46.0020 C   0  0  0  0  0  0  0  0  0  0  0  0
   55.1700   26.3430   45.9060 N   0  0  0  0  0  0  0  0  0  0  0  0
   54.7020   25.0180   45.6220 C   0  0  0  0  0  0  0  0  0  0  0  0
   53.4890   24.7250   45.8040 O   0  0  0  0  0  0  0  0  0  0  0  0
   55.6110   24.0200   45.0130 C   0  0  0  0  0  0  0  0  0  0  0  0
   55.8140   24.0530   43.6200 C   0  0  0  0  0  0  0  0  0  0  0  0
   56.6790   23.1460   43.0050 C   0  0  0  0  0  0  0  0  0  0  0  0
   57.3470   22.1880   43.7680 C   0  0  0  0  0  0  0  0  0  0  0  0
   57.1440   22.1300   45.1470 C   0  0  0  0  0  0  0  0  0  0  0  0
   56.2790   23.0340   45.7790 C   0  0  0  0  0  0  0  0  0  0  0  0
   55.9930   22.7960   47.6620 Br  0  0  0  0  0  0  0  0  0  0  0  0
   56.9410   28.0740   45.6930 C   0  0  0  0  0  0  0  0  0  0  0  0
   58.8890   32.2650   46.0300 C   0  0  0  0  0  0  0  0  0  0  0  0
   57.8680   32.7870   45.2110 C   0  0  0  0  0  0  0  0  0  0  0  0
   57.8900   34.1290   44.8200 C   0  0  0  0  0  0  0  0  0  0  0  0
   58.9240   34.9670   45.2450 C   0  0  0  0  0  0  0  0  0  0  0  0
   59.9350   34.4650   46.0660 C   0  0  0  0  0  0  0  0  0  0  0  0
   59.9190   33.1230   46.4600 C   0  0  0  0  0  0  0  0  0  0  0  0
   59.0640   29.9590   44.5210 H   0  0  0  0  0  0  0  0  0  0  0  0
   60.2916   27.7899   46.3285 H   0  0  0  0  0  0  0  0  0  0  0  0
   59.5710   25.4852   46.9432 H   0  0  0  0  0  0  0  0  0  0  0  0
   57.1736   24.8307   46.7540 H   0  0  0  0  0  0  0  0  0  0  0  0
   55.2858   24.8008   43.0103 H   0  0  0  0  0  0  0  0  0  0  0  0
   56.8341   23.1868   41.9168 H   0  0  0  0  0  0  0  0  0  0  0  0
   58.0334   21.4787   43.2825 H   0  0  0  0  0  0  0  0  0  0  0  0
   57.6673   21.3682   45.7436 H   0  0  0  0  0  0  0  0  0  0  0  0
   56.1975   28.8049   45.3423 H   0  0  0  0  0  0  0  0  0  0  0  0
   57.0481   32.1341   44.8771 H   0  0  0  0  0  0  0  0  0  0  0  0
   57.0913   34.5261   44.1762 H   0  0  0  0  0  0  0  0  0  0  0  0
   58.9413   36.0216   44.9328 H   0  0  0  0  0  0  0  0  0  0  0  0
   60.7464   35.1264   46.4040 H   0  0  0  0  0  0  0  0  0  0  0  0
   60.7169   32.7353   47.1104 H   0  0  0  0  0  0  0  0  0  0  0  0
  1  2  2  0
  2  3  1  0
  3  4  1  0
  4  5  2  0
  5  6  1  0
  6  7  2  0
  7  8  1  0
  8  9  1  0
  9 10  1  0
 10 11  2  0
 10 12  1  0
 12 13  2  0
 13 14  1  0
 14 15  2  0
 15 16  1  0
 16 17  2  0
 17 18  1  0
  8 19  2  0
  2 20  1  0
 20 21  2  0
 21 22  1  0
 22 23  2  0
 23 24  1  0
 24 25  2  0
 19  4  1  0
 25 20  1  0
 17 12  1  0
  3 26  1  0
  5 27  1  0
  6 28  1  0
  7 29  1  0
 13 30  1  0
 14 31  1  0
 15 32  1  0
 16 33  1  0
 19 34  1  0
 21 35  1  0
 22 36  1  0
 23 37  1  0
 24 38  1  0
 25 39  1  0
M  CHG  1   9  -1
M  END
>  <UniqueID>  (30) 
28

>  <SMILES>  (30) 
O=C(Nc1cccc([N-]C(=O)c2ccccc2Br)c1)c1ccccc1

>  <Energy>  (30) 
56.29828416052698

>  <Genealogy>  (30) 
O=C(Nc1cccc([N-]C(=O)c2ccccc2Br)c1)c1ccccc1 (protonated)
O=C(Nc1cccc([N-]C(=O)c2ccccc2Br)c1)c1ccccc1 (3D coordinates assigned)
O=C(Nc1cccc([N-]C(=O)c2ccccc2Br)c1)c1ccccc1 (optimized conformer: 56.29828416052698 kcal/mol)

>  <smiles>  (30) 
O=C(Nc1cccc(NC(=O)c2ccccc2Br)c1)c1ccccc1

>  <score_type>  (30) 
oracle

>  <origin>  (30) 
adg

>  <m_score__min__energy>  (30) 
-10.619999999999999

>  <m_primary>  (30) 
energy

$$$$
30:0
     RDKit          3D

 30 31  0  0  0  0  0  0  0  0999 V2000
   55.1660   26.3330   45.9700 N   0  0  0  0  0  0  0  0  0  0  0  0
   56.8420   26.7230   45.7980 S   0  0  0  0  0  0  0  0  0  0  0  0
   57.5390   26.5250   47.1140 O   0  0  0  0  0  0  0  0  0  0  0  0
   57.4460   25.8090   44.7690 O   0  0  0  0  0  0  0  0  0  0  0  0
   57.0170   28.3990   45.2890 C   0  0  0  0  0  0  0  0  0  0  0  0
   55.9410   29.0660   44.6890 C   0  0  0  0  0  0  0  0  0  0  0  0
   56.0740   30.3990   44.2880 C   0  0  0  0  0  0  0  0  0  0  0  0
   57.2930   31.0760   44.4740 C   0  0  0  0  0  0  0  0  0  0  0  0
   57.4640   32.4460   44.0800 N   0  0  0  0  0  0  0  0  0  0  0  0
   57.5610   33.5740   44.9600 C   0  0  0  0  0  0  0  0  0  0  0  0
   56.6860   34.4770   44.8830 O   0  0  0  0  0  0  0  0  0  0  0  0
   58.6360   33.6950   45.9740 C   0  0  0  0  0  0  0  0  0  0  0  0
   59.9310   34.0540   45.5630 C   0  0  0  0  0  0  0  0  0  0  0  0
   60.9670   34.1540   46.4950 C   0  0  0  0  0  0  0  0  0  0  0  0
   60.7210   33.9070   47.8470 C   0  0  0  0  0  0  0  0  0  0  0  0
   62.1420   34.0390   49.1160 Br  0  0  0  0  0  0  0  0  0  0  0  0
   59.4330   33.5690   48.2710 C   0  0  0  0  0  0  0  0  0  0  0  0
   58.3850   33.4720   47.3440 C   0  0  0  0  0  0  0  0  0  0  0  0
   57.0950   33.1780   47.7880 O   0  0  0  0  0  0  0  0  0  0  0  0
   58.3540   30.4160   45.1030 C   0  0  0  0  0  0  0  0  0  0  0  0
   58.2210   29.0830   45.5040 C   0  0  0  0  0  0  0  0  0  0  0  0
   54.7410   27.0760   46.5680 H   0  0  0  0  0  0  0  0  0  0  0  0
   54.9881   28.5392   44.5328 H   0  0  0  0  0  0  0  0  0  0  0  0
   55.2226   30.9199   43.8256 H   0  0  0  0  0  0  0  0  0  0  0  0
   60.1303   34.2576   44.5005 H   0  0  0  0  0  0  0  0  0  0  0  0
   61.9792   34.4281   46.1628 H   0  0  0  0  0  0  0  0  0  0  0  0
   59.2402   33.3781   49.3370 H   0  0  0  0  0  0  0  0  0  0  0  0
   56.2880   33.6940   47.4580 H   0  0  0  0  0  0  0  0  0  0  0  0
   59.2991   30.9491   45.2833 H   0  0  0  0  0  0  0  0  0  0  0  0
   59.0640   28.5698   45.9897 H   0  0  0  0  0  0  0  0  0  0  0  0
  1  2  1  0
  2  3  2  0
  2  4  2  0
  2  5  1  0
  5  6  2  0
  6  7  1  0
  7  8  2  0
  8  9  1  0
  9 10  1  0
 10 11  2  0
 10 12  1  0
 12 13  2  0
 13 14  1  0
 14 15  2  0
 15 16  1  0
 15 17  1  0
 17 18  2  0
 18 19  1  0
  8 20  1  0
 20 21  2  0
 21  5  1  0
 18 12  1  0
  1 22  1  0
  6 23  1  0
  7 24  1  0
 13 25  1  0
 14 26  1  0
 17 27  1  0
 19 28  1  0
 20 29  1  0
 21 30  1  0
M  CHG  2   1  -1   9  -1
M  END
>  <UniqueID>  (31) 
29

>  <SMILES>  (31) 
[NH-]S(=O)(=O)c1ccc([N-]C(=O)c2ccc(Br)cc2O)cc1

>  <Energy>  (31) 
38.16866703428859

>  <Genealogy>  (31) 
[NH-]S(=O)(=O)c1ccc([N-]C(=O)c2ccc(Br)cc2O)cc1 (protonated)
[NH-]S(=O)(=O)c1ccc([N-]C(=O)c2ccc(Br)cc2O)cc1 (3D coordinates assigned)
[NH-]S(=O)(=O)c1ccc([N-]C(=O)c2ccc(Br)cc2O)cc1 (optimized conformer: 38.16866703428859 kcal/mol)

>  <smiles>  (31) 
NS(=O)(=O)c1ccc(NC(=O)c2ccc(Br)cc2O)cc1

>  <score_type>  (31) 
oracle

>  <origin>  (31) 
adg

>  <m_score__min__energy>  (31) 
-11.359999999999999

>  <m_primary>  (31) 
energy

$$$$
31:0
     RDKit          3D

 50 53  0  0  0  0  0  0  0  0999 V2000
   58.8930   35.7130   47.1160 O   0  0  0  0  0  0  0  0  0  0  0  0
   59.5220   34.6250   47.2080 C   0  0  0  0  0  0  0  0  0  0  0  0
   60.0840   34.1090   48.4720 C   0  0  0  0  0  0  0  0  0  0  0  0
   60.6840   32.7470   48.0610 C   0  0  2  0  0  0  0  0  0  0  0  0
   62.1280   32.6010   48.4870 C   0  0  0  0  0  0  0  0  0  0  0  0
   63.2190   33.1650   47.8390 C   0  0  0  0  0  0  0  0  0  0  0  0
   64.3480   32.8220   48.4970 N   0  0  0  0  0  0  0  0  0  0  0  0
   63.9310   32.0610   49.5260 C   0  0  0  0  0  0  0  0  0  0  0  0
   64.7430   31.4690   50.4920 C   0  0  0  0  0  0  0  0  0  0  0  0
   64.1170   30.7080   51.4910 C   0  0  0  0  0  0  0  0  0  0  0  0
   62.7180   30.5590   51.4980 C   0  0  0  0  0  0  0  0  0  0  0  0
   61.9500   31.1770   50.5000 C   0  0  0  0  0  0  0  0  0  0  0  0
   62.5940   31.9080   49.5490 N   0  0  0  0  0  0  0  0  0  0  0  0
   60.5010   32.5970   46.5310 C   0  0  0  0  0  0  0  0  0  0  0  0
   59.7680   33.7760   46.1030 N   0  0  0  0  0  0  0  0  0  0  0  0
   59.3190   34.0180   44.7310 C   0  0  0  0  0  0  0  0  0  0  0  0
   57.8670   33.5660   44.5320 C   0  0  0  0  0  0  0  0  0  0  0  0
   57.5130   32.3480   45.3920 C   0  0  0  0  0  0  0  0  0  0  0  0
   56.3250   31.6830   44.8540 N   0  0  0  0  0  0  0  0  0  0  0  0
   56.6440   30.0100   44.5000 S   0  0  0  0  0  0  0  0  0  0  0  0
   56.7770   29.8230   43.0140 O   0  0  0  0  0  0  0  0  0  0  0  0
   55.4900   29.1770   44.9820 O   0  0  0  0  0  0  0  0  0  0  0  0
   58.1170   29.4750   45.3070 C   0  0  0  0  0  0  0  0  0  0  0  0
   59.2460   29.1330   44.5480 C   0  0  0  0  0  0  0  0  0  0  0  0
   60.4050   28.6740   45.1800 C   0  0  0  0  0  0  0  0  0  0  0  0
   60.4410   28.5500   46.5730 C   0  0  0  0  0  0  0  0  0  0  0  0
   59.3170   28.8850   47.3330 C   0  0  0  0  0  0  0  0  0  0  0  0
   58.1570   29.3450   46.7030 C   0  0  0  0  0  0  0  0  0  0  0  0
   60.8625   34.7817   48.8613 H   0  0  0  0  0  0  0  0  0  0  0  0
   59.3364   34.0266   49.2747 H   0  0  0  0  0  0  0  0  0  0  0  0
   60.1555   31.9343   48.5807 H   0  0  0  0  0  0  0  0  0  0  0  0
   63.1716   33.7904   46.9353 H   0  0  0  0  0  0  0  0  0  0  0  0
   65.3270   33.0900   48.2550 H   0  0  0  0  0  0  0  0  0  0  0  0
   65.8357   31.5939   50.4719 H   0  0  0  0  0  0  0  0  0  0  0  0
   64.7228   30.2257   52.2722 H   0  0  0  0  0  0  0  0  0  0  0  0
   62.2293   29.9613   52.2815 H   0  0  0  0  0  0  0  0  0  0  0  0
   60.8550   31.0736   50.4861 H   0  0  0  0  0  0  0  0  0  0  0  0
   61.4796   32.5517   46.0307 H   0  0  0  0  0  0  0  0  0  0  0  0
   59.9639   31.6715   46.2761 H   0  0  0  0  0  0  0  0  0  0  0  0
   59.3922   35.0940   44.5145 H   0  0  0  0  0  0  0  0  0  0  0  0
   59.9593   33.4394   44.0489 H   0  0  0  0  0  0  0  0  0  0  0  0
   57.1980   34.3963   44.8025 H   0  0  0  0  0  0  0  0  0  0  0  0
   57.7459   33.2792   43.4770 H   0  0  0  0  0  0  0  0  0  0  0  0
   58.3573   31.6430   45.3900 H   0  0  0  0  0  0  0  0  0  0  0  0
   57.3063   32.6799   46.4202 H   0  0  0  0  0  0  0  0  0  0  0  0
   59.2191   29.2263   43.4523 H   0  0  0  0  0  0  0  0  0  0  0  0
   61.2895   28.4101   44.5817 H   0  0  0  0  0  0  0  0  0  0  0  0
   61.3536   28.1890   47.0699 H   0  0  0  0  0  0  0  0  0  0  0  0
   59.3452   28.7866   48.4282 H   0  0  0  0  0  0  0  0  0  0  0  0
   57.2732   29.6057   47.3037 H   0  0  0  0  0  0  0  0  0  0  0  0
  1  2  2  0
  2  3  1  0
  3  4  1  0
  4  5  1  0
  5  6  2  0
  6  7  1  0
  7  8  2  0
  8  9  1  0
  9 10  2  0
 10 11  1  0
 11 12  2  0
 12 13  1  0
  4 14  1  0
 14 15  1  0
 15 16  1  0
 16 17  1  0
 17 18  1  0
 18 19  1  0
 19 20  1  0
 20 21  2  0
 20 22  2  0
 20 23  1  0
 23 24  2  0
 24 25  1  0
 25 26  2  0
 26 27  1  0
 27 28  2  0
 15  2  1  0
 28 23  1  0
 13  5  1  0
 13  8  1  0
  3 29  1  0
  3 30  1  0
  4 31  1  1
  6 32  1  0
  7 33  1  0
  9 34  1  0
 10 35  1  0
 11 36  1  0
 12 37  1  0
 14 38  1  0
 14 39  1  0
 16 40  1  0
 16 41  1  0
 17 42  1  0
 17 43  1  0
 18 44  1  0
 18 45  1  0
 24 46  1  0
 25 47  1  0
 26 48  1  0
 27 49  1  0
 28 50  1  0
M  CHG  2   7   1  19  -1
M  END
>  <UniqueID>  (32) 
30

>  <SMILES>  (32) 
O=C1C[C@H](c2c[nH+]c3ccccn23)CN1CCC[N-]S(=O)(=O)c1ccccc1

>  <Energy>  (32) 
90.81726603442966

>  <Genealogy>  (32) 
O=C1CC(c2c[nH+]c3ccccn23)CN1CCC[N-]S(=O)(=O)c1ccccc1 (protonated)
O=C1C[C@H](c2c[nH+]c3ccccn23)CN1CCC[N-]S(=O)(=O)c1ccccc1 (chirality)
O=C1C[C@H](c2c[nH+]c3ccccn23)CN1CCC[N-]S(=O)(=O)c1ccccc1 (3D coordinates assigned)
O=C1C[C@H](c2c[nH+]c3ccccn23)CN1CCC[N-]S(=O)(=O)c1ccccc1 (nonaromatic ring conformer: 90.81726603442966 kcal/mol)

>  <smiles>  (32) 
O=C1CC(c2cnc3ccccn23)CN1CCCNS(=O)(=O)c1ccccc1

>  <score_type>  (32) 
oracle

>  <origin>  (32) 
adg

>  <m_score__min__energy>  (32) 
-9.3100000000000005

>  <m_primary>  (32) 
energy

$$$$
32:0
     RDKit          3D

 60 64  0  0  0  0  0  0  0  0999 V2000
   55.9430   29.4890   45.1000 O   0  0  0  0  0  0  0  0  0  0  0  0
   57.0960   29.1880   45.6020 C   0  0  0  0  0  0  0  0  0  0  0  0
   57.9920   30.3150   45.7280 C   0  0  0  0  0  0  0  0  0  0  0  0
   59.1600   30.1100   46.4710 C   0  0  0  0  0  0  0  0  0  0  0  0
   60.0610   31.1580   46.6650 C   0  0  0  0  0  0  0  0  0  0  0  0
   59.8890   32.4120   46.1680 C   0  0  0  0  0  0  0  0  0  0  0  0
   60.7170   33.5930   46.3500 C   0  0  0  0  0  0  0  0  0  0  0  0
   61.8420   33.3760   47.2720 C   0  0  0  0  0  0  0  0  0  0  0  0
   63.0820   33.3680   46.6990 N   0  0  0  0  0  0  0  0  0  0  0  0
   64.1610   33.1620   47.4150 N   0  0  0  0  0  0  0  0  0  0  0  0
   64.0530   32.9540   48.7350 C   0  0  0  0  0  0  0  0  0  0  0  0
   65.1360   32.7620   49.3670 O   0  0  0  0  0  0  0  0  0  0  0  0
   62.8190   32.9470   49.4000 C   0  0  0  0  0  0  0  0  0  0  0  0
   61.6970   33.1640   48.6470 C   0  0  0  0  0  0  0  0  0  0  0  0
   60.3760   33.2230   49.3170 C   0  0  0  0  0  0  0  0  0  0  0  0
   60.6900   33.8440   50.7050 C   0  0  0  0  0  0  0  0  0  0  0  0
   61.5210   32.8020   51.4600 C   0  0  0  0  0  0  0  0  0  0  0  0
   62.8890   32.7080   50.8510 C   0  0  0  0  0  0  0  0  0  0  0  0
   58.7020   32.5950   45.4170 C   0  0  0  0  0  0  0  0  0  0  0  0
   57.8070   31.5670   45.2220 C   0  0  0  0  0  0  0  0  0  0  0  0
   57.3480   27.8520   45.9560 N   0  0  0  0  0  0  0  0  0  0  0  0
   58.5250   27.2950   46.5220 C   0  0  0  0  0  0  0  0  0  0  0  0
   58.9150   25.9380   45.9590 C   0  0  0  0  0  0  0  0  0  0  0  0
   57.7620   25.0930   45.7180 N   0  0  0  0  0  0  0  0  0  0  0  0
   57.8100   23.8890   44.9720 C   0  0  0  0  0  0  0  0  0  0  0  0
   56.8480   23.5090   44.0670 C   0  0  0  0  0  0  0  0  0  0  0  0
   56.9700   22.3130   43.3700 C   0  0  0  0  0  0  0  0  0  0  0  0
   58.0560   21.4630   43.5560 C   0  0  0  0  0  0  0  0  0  0  0  0
   59.0210   21.8580   44.4730 C   0  0  0  0  0  0  0  0  0  0  0  0
   58.8840   23.0440   45.1540 C   0  0  0  0  0  0  0  0  0  0  0  0
   56.5020   25.5610   46.2970 C   0  0  0  0  0  0  0  0  0  0  0  0
   56.2360   26.9070   45.7020 C   0  0  0  0  0  0  0  0  0  0  0  0
   59.3685   29.1202   46.9033 H   0  0  0  0  0  0  0  0  0  0  0  0
   60.9664   30.9572   47.2566 H   0  0  0  0  0  0  0  0  0  0  0  0
   61.1200   33.8915   45.3710 H   0  0  0  0  0  0  0  0  0  0  0  0
   60.0797   34.3740   46.7904 H   0  0  0  0  0  0  0  0  0  0  0  0
   65.0910   33.1710   46.9160 H   0  0  0  0  0  0  0  0  0  0  0  0
   59.6785   33.8590   48.7522 H   0  0  0  0  0  0  0  0  0  0  0  0
   59.8935   32.2373   49.3921 H   0  0  0  0  0  0  0  0  0  0  0  0
   61.2631   34.7753   50.5855 H   0  0  0  0  0  0  0  0  0  0  0  0
   59.7681   34.0940   51.2506 H   0  0  0  0  0  0  0  0  0  0  0  0
   61.6102   33.1001   52.5151 H   0  0  0  0  0  0  0  0  0  0  0  0
   61.0247   31.8226   51.3935 H   0  0  0  0  0  0  0  0  0  0  0  0
   63.5441   33.4619   51.3119 H   0  0  0  0  0  0  0  0  0  0  0  0
   63.2918   31.7000   51.0289 H   0  0  0  0  0  0  0  0  0  0  0  0
   58.4902   33.5817   44.9793 H   0  0  0  0  0  0  0  0  0  0  0  0
   56.9009   31.7653   44.6306 H   0  0  0  0  0  0  0  0  0  0  0  0
   59.3560   27.9930   46.3423 H   0  0  0  0  0  0  0  0  0  0  0  0
   58.3152   27.1413   47.5908 H   0  0  0  0  0  0  0  0  0  0  0  0
   59.4485   26.0887   45.0089 H   0  0  0  0  0  0  0  0  0  0  0  0
   59.5528   25.4353   46.7010 H   0  0  0  0  0  0  0  0  0  0  0  0
   55.9755   24.1560   43.8932 H   0  0  0  0  0  0  0  0  0  0  0  0
   56.1865   22.0304   42.6514 H   0  0  0  0  0  0  0  0  0  0  0  0
   58.1462   20.5181   43.0001 H   0  0  0  0  0  0  0  0  0  0  0  0
   59.8981   21.2196   44.6550 H   0  0  0  0  0  0  0  0  0  0  0  0
   59.6641   23.3310   45.8745 H   0  0  0  0  0  0  0  0  0  0  0  0
   55.6869   24.8664   46.0455 H   0  0  0  0  0  0  0  0  0  0  0  0
   56.5641   25.6159   47.3939 H   0  0  0  0  0  0  0  0  0  0  0  0
   56.1046   26.7960   44.6155 H   0  0  0  0  0  0  0  0  0  0  0  0
   55.3283   27.3142   46.1713 H   0  0  0  0  0  0  0  0  0  0  0  0
  1  2  2  0
  2  3  1  0
  3  4  2  0
  4  5  1  0
  5  6  2  0
  6  7  1  0
  7  8  1  0
  8  9  2  0
  9 10  1  0
 10 11  1  0
 11 12  2  0
 11 13  1  0
 13 14  2  0
 14 15  1  0
 15 16  1  0
 16 17  1  0
 17 18  1  0
  6 19  1  0
 19 20  2  0
  2 21  1  0
 21 22  1  0
 22 23  1  0
 23 24  1  0
 24 25  1  0
 25 26  2  0
 26 27  1  0
 27 28  2  0
 28 29  1  0
 29 30  2  0
 24 31  1  0
 31 32  1  0
 20  3  1  0
 32 21  1  0
 14  8  1  0
 30 25  1  0
 18 13  1  0
  4 33  1  0
  5 34  1  0
  7 35  1  0
  7 36  1  0
 10 37  1  0
 15 38  1  0
 15 39  1  0
 16 40  1  0
 16 41  1  0
 17 42  1  0
 17 43  1  0
 18 44  1  0
 18 45  1  0
 19 46  1  0
 20 47  1  0
 22 48  1  0
 22 49  1  0
 23 50  1  0
 23 51  1  0
 26 52  1  0
 27 53  1  0
 28 54  1  0
 29 55  1  0
 30 56  1  0
 31 57  1  0
 31 58  1  0
 32 59  1  0
 32 60  1  0
M  END
>  <smiles>  (33) 
O=C(c1ccc(Cc2n[nH]c(=O)c3c2CCCC3)cc1)N1CCN(c2ccccc2)CC1

>  <score_type>  (33) 
oracle

>  <origin>  (33) 
adg

>  <m_score__min__energy>  (33) 
-9.8599999999999994

>  <m_primary>  (33) 
energy

$$$$
33:0
     RDKit          3D

 55 57  0  0  0  0  0  0  0  0999 V2000
   57.2850   29.7700   51.4670 O   0  0  0  0  0  0  0  0  0  0  0  0
   56.9590   30.3600   52.5320 C   0  0  0  0  0  0  0  0  0  0  0  0
   55.8630   29.7880   53.3780 C   0  0  0  0  0  0  0  0  0  0  0  0
   54.5250   30.2420   52.8650 C   0  0  0  0  0  0  0  0  0  0  0  0
   54.4050   30.7420   51.5570 C   0  0  0  0  0  0  0  0  0  0  0  0
   53.1720   31.2090   51.0920 C   0  0  0  0  0  0  0  0  0  0  0  0
   52.0540   31.1900   51.9300 C   0  0  0  0  0  0  0  0  0  0  0  0
   52.1670   30.7030   53.2360 C   0  0  0  0  0  0  0  0  0  0  0  0
   53.3980   30.2340   53.7050 C   0  0  0  0  0  0  0  0  0  0  0  0
   57.5700   31.6110   52.9010 N   0  0  0  0  0  0  0  0  0  0  0  0
   58.6830   32.2120   52.2160 C   0  0  0  0  0  0  0  0  0  0  0  0
   59.9620   31.6650   52.3770 C   0  0  0  0  0  0  0  0  0  0  0  0
   61.0590   32.2050   51.6990 C   0  0  0  0  0  0  0  0  0  0  0  0
   60.8950   33.3050   50.8440 C   0  0  0  0  0  0  0  0  0  0  0  0
   62.0550   33.8900   50.1350 C   0  0  0  0  0  0  0  0  0  0  0  0
   62.8960   34.5900   50.7660 O   0  0  0  0  0  0  0  0  0  0  0  0
   62.2080   33.6840   48.7610 O   0  0  0  0  0  0  0  0  0  0  0  0
   62.3620   32.3900   48.1870 C   0  0  0  0  0  0  0  0  0  0  0  0
   61.0330   31.8650   47.7290 C   0  0  0  0  0  0  0  0  0  0  0  0
   60.4750   30.9630   48.4130 O   0  0  0  0  0  0  0  0  0  0  0  0
   60.3680   32.3860   46.5560 N   0  0  0  0  0  0  0  0  0  0  0  0
   59.3050   31.5620   45.9440 C   0  0  0  0  0  0  0  0  0  0  0  0
   58.0040   32.3310   45.6520 C   0  0  0  0  0  0  0  0  0  0  0  0
   57.5570   33.2740   46.7860 C   0  0  0  0  0  0  0  0  0  0  0  0
   58.5110   34.4350   47.1070 C   0  0  0  0  0  0  0  0  0  0  0  0
   59.5700   34.7030   46.0240 C   0  0  0  0  0  0  0  0  0  0  0  0
   60.7380   33.6990   45.9940 C   0  0  0  0  0  0  0  0  0  0  0  0
   59.6110   33.8450   50.6680 C   0  0  0  0  0  0  0  0  0  0  0  0
   58.5130   33.2970   51.3370 C   0  0  0  0  0  0  0  0  0  0  0  0
   55.9123   28.6896   53.3437 H   0  0  0  0  0  0  0  0  0  0  0  0
   55.9886   30.1358   54.4140 H   0  0  0  0  0  0  0  0  0  0  0  0
   55.2844   30.7660   50.8967 H   0  0  0  0  0  0  0  0  0  0  0  0
   53.0818   31.5920   50.0648 H   0  0  0  0  0  0  0  0  0  0  0  0
   51.0848   31.5582   51.5623 H   0  0  0  0  0  0  0  0  0  0  0  0
   51.2865   30.6888   53.8951 H   0  0  0  0  0  0  0  0  0  0  0  0
   53.4847   29.8575   54.7349 H   0  0  0  0  0  0  0  0  0  0  0  0
   57.1270   32.1530   53.6780 H   0  0  0  0  0  0  0  0  0  0  0  0
   60.1050   30.8018   53.0436 H   0  0  0  0  0  0  0  0  0  0  0  0
   62.0574   31.7644   51.8369 H   0  0  0  0  0  0  0  0  0  0  0  0
   63.0440   32.4531   47.3262 H   0  0  0  0  0  0  0  0  0  0  0  0
   62.7757   31.7081   48.9446 H   0  0  0  0  0  0  0  0  0  0  0  0
   59.6861   31.1551   44.9958 H   0  0  0  0  0  0  0  0  0  0  0  0
   59.0531   30.7770   46.6722 H   0  0  0  0  0  0  0  0  0  0  0  0
   58.1557   32.9323   44.7435 H   0  0  0  0  0  0  0  0  0  0  0  0
   57.2111   31.5771   45.5380 H   0  0  0  0  0  0  0  0  0  0  0  0
   56.5850   33.7045   46.5032 H   0  0  0  0  0  0  0  0  0  0  0  0
   57.5254   32.6542   47.6942 H   0  0  0  0  0  0  0  0  0  0  0  0
   57.9112   35.3481   47.2355 H   0  0  0  0  0  0  0  0  0  0  0  0
   59.0577   34.1504   48.0181 H   0  0  0  0  0  0  0  0  0  0  0  0
   59.0708   34.6754   45.0442 H   0  0  0  0  0  0  0  0  0  0  0  0
   60.0118   35.6821   46.2612 H   0  0  0  0  0  0  0  0  0  0  0  0
   61.0564   33.5591   44.9504 H   0  0  0  0  0  0  0  0  0  0  0  0
   61.5492   34.1109   46.6122 H   0  0  0  0  0  0  0  0  0  0  0  0
   59.4681   34.7060   49.9984 H   0  0  0  0  0  0  0  0  0  0  0  0
   57.5093   33.7169   51.1751 H   0  0  0  0  0  0  0  0  0  0  0  0
  1  2  2  0
  2  3  1  0
  3  4  1  0
  4  5  2  0
  5  6  1  0
  6  7  2  0
  7  8  1  0
  8  9  2  0
  2 10  1  0
 10 11  1  0
 11 12  2  0
 12 13  1  0
 13 14  2  0
 14 15  1  0
 15 16  2  0
 15 17  1  0
 17 18  1  0
 18 19  1  0
 19 20  2  0
 19 21  1  0
 21 22  1  0
 22 23  1  0
 23 24  1  0
 24 25  1  0
 25 26  1  0
 26 27  1  0
 14 28  1  0
 28 29  2  0
  9  4  1  0
 29 11  1  0
 27 21  1  0
  3 30  1  0
  3 31  1  0
  5 32  1  0
  6 33  1  0
  7 34  1  0
  8 35  1  0
  9 36  1  0
 10 37  1  0
 12 38  1  0
 13 39  1  0
 18 40  1  0
 18 41  1  0
 22 42  1  0
 22 43  1  0
 23 44  1  0
 23 45  1  0
 24 46  1  0
 24 47  1  0
 25 48  1  0
 25 49  1  0
 26 50  1  0
 26 51  1  0
 27 52  1  0
 27 53  1  0
 28 54  1  0
 29 55  1  0
M  END
>  <UniqueID>  (34) 
31

>  <SMILES>  (34) 
O=C(Cc1ccccc1)Nc1ccc(C(=O)OCC(=O)N2CCCCCC2)cc1

>  <Energy>  (34) 
61.212596070380435

>  <Genealogy>  (34) 
O=C(Cc1ccccc1)Nc1ccc(C(=O)OCC(=O)N2CCCCCC2)cc1 (3D coordinates assigned)
O=C(Cc1ccccc1)Nc1ccc(C(=O)OCC(=O)N2CCCCCC2)cc1 (nonaromatic ring conformer: 61.212596070380435 kcal/mol)

>  <smiles>  (34) 
O=C(Cc1ccccc1)Nc1ccc(C(=O)OCC(=O)N2CCCCCC2)cc1

>  <score_type>  (34) 
oracle

>  <origin>  (34) 
adg

>  <m_score__min__energy>  (34) 
-6.6100000000000003

>  <m_primary>  (34) 
energy

$$$$
34:0
     RDKit          3D

 32 33  0  0  0  0  0  0  0  0999 V2000
   55.6030   30.0860   45.6890 H   0  0  0  0  0  0  0  0  0  0  0  0
   55.1810   29.3990   45.0770 O   0  0  0  0  0  0  0  0  0  0  0  0
   55.3720   29.4100   43.7100 N   0  0  0  0  0  0  0  0  0  0  0  0
   56.2550   30.1390   43.0940 C   0  0  0  0  0  0  0  0  0  0  0  0
   56.2975   30.0870   41.9961 H   0  0  0  0  0  0  0  0  0  0  0  0
   57.2030   31.0320   43.7870 C   0  0  0  0  0  0  0  0  0  0  0  0
   58.1110   31.5880   43.1160 O   0  0  0  0  0  0  0  0  0  0  0  0
   57.1030   31.3180   45.1880 N   0  0  0  0  0  0  0  0  0  0  0  0
   57.8920   32.2780   45.9080 C   0  0  0  0  0  0  0  0  0  0  0  0
   57.7030   33.6340   45.6150 C   0  0  0  0  0  0  0  0  0  0  0  0
   56.9262   33.9327   44.8957 H   0  0  0  0  0  0  0  0  0  0  0  0
   58.4910   34.6110   46.2270 C   0  0  0  0  0  0  0  0  0  0  0  0
   58.3400   35.6726   45.9816 H   0  0  0  0  0  0  0  0  0  0  0  0
   59.4690   34.2410   47.1490 C   0  0  0  0  0  0  0  0  0  0  0  0
   60.1046   35.0094   47.6133 H   0  0  0  0  0  0  0  0  0  0  0  0
   59.6430   32.8970   47.4840 C   0  0  0  0  0  0  0  0  0  0  0  0
   60.4146   32.6127   48.2146 H   0  0  0  0  0  0  0  0  0  0  0  0
   58.8410   31.9040   46.8960 C   0  0  0  0  0  0  0  0  0  0  0  0
   58.9780   30.5100   47.3830 C   0  0  0  0  0  0  0  0  0  0  0  0
   58.5260   30.2120   48.5200 O   0  0  0  0  0  0  0  0  0  0  0  0
   59.6290   29.4900   46.6130 N   0  0  0  0  0  0  0  0  0  0  0  0
   58.9850   28.4640   45.8420 C   0  0  0  0  0  0  0  0  0  0  0  0
   59.1990   28.4230   44.4590 C   0  0  0  0  0  0  0  0  0  0  0  0
   59.8473   29.1736   43.9833 H   0  0  0  0  0  0  0  0  0  0  0  0
   58.5930   27.4330   43.6790 C   0  0  0  0  0  0  0  0  0  0  0  0
   58.7553   27.4143   42.5912 H   0  0  0  0  0  0  0  0  0  0  0  0
   57.7810   26.4670   44.2810 C   0  0  0  0  0  0  0  0  0  0  0  0
   57.2985   25.6928   43.6664 H   0  0  0  0  0  0  0  0  0  0  0  0
   57.5830   26.4860   45.6640 C   0  0  0  0  0  0  0  0  0  0  0  0
   56.9497   25.7219   46.1384 H   0  0  0  0  0  0  0  0  0  0  0  0
   58.1880   27.4740   46.4460 C   0  0  0  0  0  0  0  0  0  0  0  0
   58.0408   27.4777   47.5361 H   0  0  0  0  0  0  0  0  0  0  0  0
  1  2  1  0
  2  3  1  0
  3  4  2  0
  4  5  1  0
  4  6  1  0
  6  7  2  0
  6  8  1  0
  8  9  1  0
  9 10  2  0
 10 11  1  0
 10 12  1  0
 12 13  1  0
 12 14  2  0
 14 15  1  0
 14 16  1  0
 16 17  1  0
 16 18  2  0
 18 19  1  0
 19 20  2  0
 19 21  1  0
 21 22  1  0
 22 23  2  0
 23 24  1  0
 23 25  1  0
 25 26  1  0
 25 27  2  0
 27 28  1  0
 27 29  1  0
 29 30  1  0
 29 31  2  0
 31 32  1  0
 18  9  1  0
 31 22  1  0
M  CHG  2   8  -1  21  -1
M  END
>  <UniqueID>  (35) 
32

>  <SMILES>  (35) 
O=C(/C=N\O)[N-]c1ccccc1C(=O)[N-]c1ccccc1

>  <Energy>  (35) 
52.95922826296032

>  <Genealogy>  (35) 
O=C(C=NO)[N-]c1ccccc1C(=O)[N-]c1ccccc1 (protonated)
O=C(/C=N\O)[N-]c1ccccc1C(=O)[N-]c1ccccc1 (cis-trans isomerization)
O=C(/C=N\O)[N-]c1ccccc1C(=O)[N-]c1ccccc1 (3D coordinates assigned)
O=C(/C=N\O)[N-]c1ccccc1C(=O)[N-]c1ccccc1 (optimized conformer: 52.95922826296032 kcal/mol)

>  <smiles>  (35) 
O=C(C=NO)Nc1ccccc1C(=O)Nc1ccccc1

>  <score_type>  (35) 
oracle

>  <origin>  (35) 
adg

>  <m_score__min__energy>  (35) 
-11.539999999999999

>  <m_primary>  (35) 
energy

$$$$
35:0
     RDKit          3D

 18 18  0  0  0  0  0  0  0  0999 V2000
   55.1500   29.3290   44.8740 N   0  0  0  0  0  0  0  0  0  0  0  0
   56.7310   29.3760   44.1810 S   0  0  0  0  0  0  0  0  0  0  0  0
   57.5790   28.2970   44.7960 O   0  0  0  0  0  0  0  0  0  0  0  0
   56.6380   29.1290   42.7010 O   0  0  0  0  0  0  0  0  0  0  0  0
   57.4590   30.9510   44.4790 C   0  0  0  0  0  0  0  0  0  0  0  0
   57.6740   31.8390   43.4190 C   0  0  0  0  0  0  0  0  0  0  0  0
   58.2400   33.0930   43.6570 C   0  0  0  0  0  0  0  0  0  0  0  0
   58.5950   33.4800   44.9580 C   0  0  0  0  0  0  0  0  0  0  0  0
   59.1740   34.7740   45.1700 N   0  0  0  0  0  0  0  0  0  0  0  0
   58.3710   32.5900   46.0280 C   0  0  0  0  0  0  0  0  0  0  0  0
   58.8180   33.0360   47.8390 Br  0  0  0  0  0  0  0  0  0  0  0  0
   57.8030   31.3330   45.7820 C   0  0  0  0  0  0  0  0  0  0  0  0
   55.1700   28.6090   45.6310 H   0  0  0  0  0  0  0  0  0  0  0  0
   57.3962   31.5482   42.3951 H   0  0  0  0  0  0  0  0  0  0  0  0
   58.4090   33.7833   42.8174 H   0  0  0  0  0  0  0  0  0  0  0  0
   58.8090   35.6080   44.6580 H   0  0  0  0  0  0  0  0  0  0  0  0
   59.9670   34.9240   45.8310 H   0  0  0  0  0  0  0  0  0  0  0  0
   57.6259   30.6409   46.6184 H   0  0  0  0  0  0  0  0  0  0  0  0
  1  2  1  0
  2  3  2  0
  2  4  2  0
  2  5  1  0
  5  6  2  0
  6  7  1  0
  7  8  2  0
  8  9  1  0
  8 10  1  0
 10 11  1  0
 10 12  2  0
 12  5  1  0
  1 13  1  0
  6 14  1  0
  7 15  1  0
  9 16  1  0
  9 17  1  0
 12 18  1  0
M  CHG  1   1  -1
M  END
>  <UniqueID>  (36) 
33

>  <SMILES>  (36) 
[NH-]S(=O)(=O)c1ccc(N)c(Br)c1

>  <Energy>  (36) 
16.77112139326996

>  <Genealogy>  (36) 
[NH-]S(=O)(=O)c1ccc(N)c(Br)c1 (protonated)
[NH-]S(=O)(=O)c1ccc(N)c(Br)c1 (3D coordinates assigned)
[NH-]S(=O)(=O)c1ccc(N)c(Br)c1 (optimized conformer: 16.77112139326996 kcal/mol)

>  <smiles>  (36) 
Nc1ccc(S(N)(=O)=O)cc1Br

>  <score_type>  (36) 
oracle

>  <origin>  (36) 
adg

>  <m_score__min__energy>  (36) 
-8.1600000000000001

>  <m_primary>  (36) 
energy

$$$$
36:0
     RDKit          3D

 35 36  0  0  0  0  0  0  0  0999 V2000
   55.1710   26.3790   45.9890 N   0  0  0  0  0  0  0  0  0  0  0  0
   56.0170   24.8740   46.0850 S   0  0  0  0  0  0  0  0  0  0  0  0
   55.6860   24.0310   44.8850 O   0  0  0  0  0  0  0  0  0  0  0  0
   55.5930   24.1370   47.3240 O   0  0  0  0  0  0  0  0  0  0  0  0
   57.7490   25.1790   46.1440 C   0  0  0  0  0  0  0  0  0  0  0  0
   58.6590   24.1290   45.9560 C   0  0  0  0  0  0  0  0  0  0  0  0
   60.0330   24.3800   45.9800 C   0  0  0  0  0  0  0  0  0  0  0  0
   60.5060   25.6770   46.2030 C   0  0  0  0  0  0  0  0  0  0  0  0
   59.6060   26.7280   46.4180 C   0  0  0  0  0  0  0  0  0  0  0  0
   60.1150   28.0510   46.6220 N   0  0  0  0  0  0  0  0  0  0  0  0
   59.9360   29.1680   45.7410 C   0  0  0  0  0  0  0  0  0  0  0  0
   59.9080   28.9620   44.4990 O   0  0  0  0  0  0  0  0  0  0  0  0
   59.8890   30.5810   46.2470 C   0  0  0  0  0  0  0  0  0  0  0  0
   58.1620   31.0590   46.5820 S   0  0  0  0  0  0  0  0  0  0  0  0
   57.7730   31.3030   44.8430 C   0  0  0  0  0  0  0  0  0  0  0  0
   58.3590   32.3540   44.2090 N   0  0  0  0  0  0  0  0  0  0  0  0
   58.1820   32.5920   42.8840 C   0  0  0  0  0  0  0  0  0  0  0  0
   57.3860   31.7400   42.1240 C   0  0  0  0  0  0  0  0  0  0  0  0
   56.7660   30.6540   42.7400 C   0  0  0  0  0  0  0  0  0  0  0  0
   56.9340   30.4220   44.1160 C   0  0  0  0  0  0  0  0  0  0  0  0
   56.2250   29.2790   44.7450 C   0  0  0  0  0  0  0  0  0  0  0  0
   55.0560   29.4300   45.1940 O   0  0  0  0  0  0  0  0  0  0  0  0
   56.8440   28.0460   44.8960 O   0  0  0  0  0  0  0  0  0  0  0  0
   58.2260   26.4800   46.3520 C   0  0  0  0  0  0  0  0  0  0  0  0
   55.7390   27.0810   46.5120 H   0  0  0  0  0  0  0  0  0  0  0  0
   55.1780   26.6700   44.9860 H   0  0  0  0  0  0  0  0  0  0  0  0
   58.2904   23.1061   45.7894 H   0  0  0  0  0  0  0  0  0  0  0  0
   60.7443   23.5557   45.8232 H   0  0  0  0  0  0  0  0  0  0  0  0
   61.5885   25.8722   46.2095 H   0  0  0  0  0  0  0  0  0  0  0  0
   60.4754   30.6565   47.1746 H   0  0  0  0  0  0  0  0  0  0  0  0
   60.3113   31.2538   45.4861 H   0  0  0  0  0  0  0  0  0  0  0  0
   58.6678   33.4583   42.4112 H   0  0  0  0  0  0  0  0  0  0  0  0
   57.2475   31.9218   41.0480 H   0  0  0  0  0  0  0  0  0  0  0  0
   56.1402   29.9731   42.1444 H   0  0  0  0  0  0  0  0  0  0  0  0
   57.5149   27.3117   46.4642 H   0  0  0  0  0  0  0  0  0  0  0  0
  1  2  1  0
  2  3  2  0
  2  4  2  0
  2  5  1  0
  5  6  2  0
  6  7  1  0
  7  8  2  0
  8  9  1  0
  9 10  1  0
 10 11  1  0
 11 12  2  0
 11 13  1  0
 13 14  1  0
 14 15  1  0
 15 16  2  0
 16 17  1  0
 17 18  2  0
 18 19  1  0
 19 20  2  0
 20 21  1  0
 21 22  2  0
 21 23  1  0
  9 24  2  0
 24  5  1  0
 20 15  1  0
  1 25  1  0
  1 26  1  0
  6 27  1  0
  7 28  1  0
  8 29  1  0
 13 30  1  0
 13 31  1  0
 17 32  1  0
 18 33  1  0
 19 34  1  0
 24 35  1  0
M  CHG  2  10  -1  23  -1
M  END
>  <UniqueID>  (37) 
34

>  <SMILES>  (37) 
NS(=O)(=O)c1cccc([N-]C(=O)CSc2ncccc2C(=O)[O-])c1

>  <Energy>  (37) 
37.53128712384959

>  <Genealogy>  (37) 
NS(=O)(=O)c1cccc([N-]C(=O)CSc2ncccc2C(=O)[O-])c1 (protonated)
NS(=O)(=O)c1cccc([N-]C(=O)CSc2ncccc2C(=O)[O-])c1 (3D coordinates assigned)
NS(=O)(=O)c1cccc([N-]C(=O)CSc2ncccc2C(=O)[O-])c1 (optimized conformer: 37.53128712384959 kcal/mol)

>  <smiles>  (37) 
NS(=O)(=O)c1cccc(NC(=O)CSc2ncccc2C(=O)O)c1

>  <score_type>  (37) 
oracle

>  <origin>  (37) 
adg

>  <m_score__min__energy>  (37) 
-12.109999999999999

>  <m_primary>  (37) 
energy

$$$$
37:0
     RDKit          3D

 49 53  0  0  0  0  0  0  0  0999 V2000
   58.1617   34.1763   47.5858 H   0  0  0  0  0  0  0  0  0  0  0  0
   58.1640   33.7870   46.5570 C   0  0  0  0  0  0  0  0  0  0  0  0
   57.3200   32.7270   46.2080 C   0  0  0  0  0  0  0  0  0  0  0  0
   56.6645   32.2775   46.9685 H   0  0  0  0  0  0  0  0  0  0  0  0
   57.3040   32.2340   44.8960 C   0  0  0  0  0  0  0  0  0  0  0  0
   56.4400   31.1310   44.5890 N   0  0  0  0  0  0  0  0  0  0  0  0
   56.6550   29.7520   44.9180 C   0  0  0  0  0  0  0  0  0  0  0  0
   55.6970   28.9350   44.8750 O   0  0  0  0  0  0  0  0  0  0  0  0
   57.9350   29.2810   45.3680 N   0  0  0  0  0  0  0  0  0  0  0  0
   58.7410   29.8390   46.2260 C   0  0  0  0  0  0  0  0  0  0  0  0
   60.3560   30.2530   45.9770 S   0  0  0  0  0  0  0  0  0  0  0  0
   60.5650   30.8540   47.5390 C   0  0  0  0  0  0  0  0  0  0  0  0
   61.8080   31.4980   48.0160 C   0  0  0  0  0  0  0  0  0  0  0  0
   62.4500   32.4610   47.2190 C   0  0  0  0  0  0  0  0  0  0  0  0
   62.0293   32.7293   46.2387 H   0  0  0  0  0  0  0  0  0  0  0  0
   63.6220   33.0800   47.6670 C   0  0  0  0  0  0  0  0  0  0  0  0
   64.1257   33.8250   47.0336 H   0  0  0  0  0  0  0  0  0  0  0  0
   64.1540   32.7540   48.9170 C   0  0  0  0  0  0  0  0  0  0  0  0
   65.2890   33.3560   49.3480 F   0  0  0  0  0  0  0  0  0  0  0  0
   63.5120   31.8110   49.7240 C   0  0  0  0  0  0  0  0  0  0  0  0
   63.9289   31.5576   50.7099 H   0  0  0  0  0  0  0  0  0  0  0  0
   62.3410   31.1890   49.2810 C   0  0  0  0  0  0  0  0  0  0  0  0
   61.8340   30.4547   49.9243 H   0  0  0  0  0  0  0  0  0  0  0  0
   59.3490   30.6990   48.2290 C   0  0  0  0  0  0  0  0  0  0  0  0
   59.1440   31.0260   49.6580 C   0  0  0  0  0  0  0  0  0  0  0  0
   58.8570   30.0140   50.5900 C   0  0  0  0  0  0  0  0  0  0  0  0
   58.7886   28.9681   50.2563 H   0  0  0  0  0  0  0  0  0  0  0  0
   58.6580   30.3260   51.9360 C   0  0  0  0  0  0  0  0  0  0  0  0
   58.4438   29.5244   52.6582 H   0  0  0  0  0  0  0  0  0  0  0  0
   58.7300   31.6560   52.3710 C   0  0  0  0  0  0  0  0  0  0  0  0
   58.5330   31.9810   53.7230 C   0  0  0  0  0  0  0  0  0  0  0  0
   58.3216   31.1862   54.4535 H   0  0  0  0  0  0  0  0  0  0  0  0
   58.6050   33.3120   54.1420 C   0  0  0  0  0  0  0  0  0  0  0  0
   58.4500   33.5620   55.2019 H   0  0  0  0  0  0  0  0  0  0  0  0
   58.8730   34.3260   53.2200 C   0  0  0  0  0  0  0  0  0  0  0  0
   58.9294   35.3717   53.5566 H   0  0  0  0  0  0  0  0  0  0  0  0
   59.0700   34.0170   51.8700 C   0  0  0  0  0  0  0  0  0  0  0  0
   59.2785   34.8199   51.1475 H   0  0  0  0  0  0  0  0  0  0  0  0
   59.0020   32.6840   51.4360 C   0  0  0  0  0  0  0  0  0  0  0  0
   59.2010   32.3610   50.0850 C   0  0  0  0  0  0  0  0  0  0  0  0
   59.4030   33.1597   49.3562 H   0  0  0  0  0  0  0  0  0  0  0  0
   58.3530   30.1440   47.4830 N   0  0  0  0  0  0  0  0  0  0  0  0
   57.3950   29.9430   47.8500 H   0  0  0  0  0  0  0  0  0  0  0  0
   58.1770   32.7900   43.9430 C   0  0  0  0  0  0  0  0  0  0  0  0
   58.1964   32.3899   42.9185 H   0  0  0  0  0  0  0  0  0  0  0  0
   59.0200   33.8490   44.2930 C   0  0  0  0  0  0  0  0  0  0  0  0
   59.6920   34.2879   43.5408 H   0  0  0  0  0  0  0  0  0  0  0  0
   59.0100   34.3510   45.5980 C   0  0  0  0  0  0  0  0  0  0  0  0
   59.8310   35.3760   45.9380 F   0  0  0  0  0  0  0  0  0  0  0  0
  1  2  1  0
  2  3  2  0
  3  4  1  0
  3  5  1  0
  5  6  1  0
  6  7  1  0
  7  8  2  0
  7  9  1  0
  9 10  2  0
 10 11  1  0
 11 12  1  0
 12 13  1  0
 13 14  2  0
 14 15  1  0
 14 16  1  0
 16 17  1  0
 16 18  2  0
 18 19  1  0
 18 20  1  0
 20 21  1  0
 20 22  2  0
 22 23  1  0
 12 24  2  0
 24 25  1  0
 25 26  2  0
 26 27  1  0
 26 28  1  0
 28 29  1  0
 28 30  2  0
 30 31  1  0
 31 32  1  0
 31 33  2  0
 33 34  1  0
 33 35  1  0
 35 36  1  0
 35 37  2  0
 37 38  1  0
 37 39  1  0
 39 40  2  0
 40 41  1  0
 24 42  1  0
 42 43  1  0
  5 44  2  0
 44 45  1  0
 44 46  1  0
 46 47  1  0
 46 48  2  0
 48 49  1  0
 48  2  1  0
 42 10  1  0
 22 13  1  0
 40 25  1  0
 39 30  1  0
M  CHG  1   6  -1
M  END
>  <UniqueID>  (38) 
35

>  <SMILES>  (38) 
O=C(/N=c1/[nH]c(-c2ccc3ccccc3c2)c(-c2ccc(F)cc2)s1)[N-]c1ccc(F)cc1

>  <Energy>  (38) 
104.80390631840639

>  <Genealogy>  (38) 
O=C(N=c1[nH]c(-c2ccc3ccccc3c2)c(-c2ccc(F)cc2)s1)[N-]c1ccc(F)cc1 (protonated)
O=C(/N=c1/[nH]c(-c2ccc3ccccc3c2)c(-c2ccc(F)cc2)s1)[N-]c1ccc(F)cc1 (cis-trans isomerization)
O=C(/N=c1/[nH]c(-c2ccc3ccccc3c2)c(-c2ccc(F)cc2)s1)[N-]c1ccc(F)cc1 (3D coordinates assigned)
O=C(/N=c1/[nH]c(-c2ccc3ccccc3c2)c(-c2ccc(F)cc2)s1)[N-]c1ccc(F)cc1 (optimized conformer: 104.80390631840639 kcal/mol)

>  <smiles>  (38) 
O=C(N=c1[nH]c(-c2ccc3ccccc3c2)c(-c2ccc(F)cc2)s1)Nc1ccc(F)cc1

>  <score_type>  (38) 
oracle

>  <origin>  (38) 
adg

>  <m_score__min__energy>  (38) 
-11.26

>  <m_primary>  (38) 
energy

$$$$
38:0
     RDKit          3D

 53 56  0  0  0  0  0  0  0  0999 V2000
   59.6370   35.3870   46.0640 C   0  0  0  0  0  0  0  0  0  0  0  0
   59.0900   34.9540   44.8230 O   0  0  0  0  0  0  0  0  0  0  0  0
   58.5540   33.6780   44.5970 C   0  0  0  0  0  0  0  0  0  0  0  0
   58.0670   32.9580   45.6930 C   0  0  0  0  0  0  0  0  0  0  0  0
   57.5280   31.6800   45.5210 C   0  0  0  0  0  0  0  0  0  0  0  0
   57.4590   31.1080   44.2430 C   0  0  0  0  0  0  0  0  0  0  0  0
   56.7000   29.5280   44.0110 S   0  0  0  0  0  0  0  0  0  0  0  0
   55.4700   29.4330   44.8710 O   0  0  0  0  0  0  0  0  0  0  0  0
   56.2780   29.3850   42.5750 O   0  0  0  0  0  0  0  0  0  0  0  0
   57.8040   28.2310   44.4260 N   0  0  0  0  0  0  0  0  0  0  0  0
   57.5170   27.7430   45.7960 C   0  0  0  0  0  0  0  0  0  0  0  0
   58.5230   28.3960   46.6630 C   0  0  0  0  0  0  0  0  0  0  0  0
   58.5440   28.4890   48.0530 C   0  0  0  0  0  0  0  0  0  0  0  0
   59.5720   29.2300   48.6580 C   0  0  0  0  0  0  0  0  0  0  0  0
   60.5500   29.8780   47.8660 C   0  0  0  0  0  0  0  0  0  0  0  0
   61.6330   30.7110   48.5080 C   0  0  0  0  0  0  0  0  0  0  0  0
   62.2760   31.7040   47.5050 C   0  0  2  0  0  0  0  0  0  0  0  0
   63.6240   32.2380   47.9780 C   0  0  0  0  0  0  0  0  0  0  0  0
   63.7790   33.5620   47.2460 C   0  0  0  0  0  0  0  0  0  0  0  0
   62.4390   33.8030   46.5510 C   0  0  0  0  0  0  0  0  0  0  0  0
   61.4550   32.8770   47.1360 N   0  0  0  0  0  0  0  0  0  0  0  0
   60.7960   33.5250   48.2880 C   0  0  0  0  0  0  0  0  0  0  0  0
   60.5120   29.7290   46.4630 C   0  0  0  0  0  0  0  0  0  0  0  0
   59.4800   28.9830   45.8960 C   0  0  0  0  0  0  0  0  0  0  0  0
   59.1920   28.7480   44.4660 C   0  0  0  0  0  0  0  0  0  0  0  0
   57.9500   31.8240   43.1420 C   0  0  0  0  0  0  0  0  0  0  0  0
   58.4930   33.1000   43.3140 C   0  0  0  0  0  0  0  0  0  0  0  0
   59.0691   34.9374   46.8918 H   0  0  0  0  0  0  0  0  0  0  0  0
   60.6897   35.0749   46.1295 H   0  0  0  0  0  0  0  0  0  0  0  0
   59.5748   36.4833   46.1295 H   0  0  0  0  0  0  0  0  0  0  0  0
   58.1086   33.4014   46.6988 H   0  0  0  0  0  0  0  0  0  0  0  0
   57.1563   31.1206   46.3922 H   0  0  0  0  0  0  0  0  0  0  0  0
   56.5002   28.0303   46.1020 H   0  0  0  0  0  0  0  0  0  0  0  0
   57.5712   26.6462   45.8599 H   0  0  0  0  0  0  0  0  0  0  0  0
   57.7735   27.9937   48.6621 H   0  0  0  0  0  0  0  0  0  0  0  0
   59.6176   29.3074   49.7543 H   0  0  0  0  0  0  0  0  0  0  0  0
   61.1954   31.2812   49.3407 H   0  0  0  0  0  0  0  0  0  0  0  0
   62.4203   30.0291   48.8619 H   0  0  0  0  0  0  0  0  0  0  0  0
   62.3844   31.0694   46.6131 H   0  0  0  0  0  0  0  0  0  0  0  0
   63.6220   32.3924   49.0671 H   0  0  0  0  0  0  0  0  0  0  0  0
   64.4496   31.5419   47.7688 H   0  0  0  0  0  0  0  0  0  0  0  0
   63.9940   34.3723   47.9582 H   0  0  0  0  0  0  0  0  0  0  0  0
   64.6124   33.5368   46.5285 H   0  0  0  0  0  0  0  0  0  0  0  0
   62.1160   34.8422   46.7112 H   0  0  0  0  0  0  0  0  0  0  0  0
   62.5315   33.6313   45.4684 H   0  0  0  0  0  0  0  0  0  0  0  0
   61.2092   33.1187   49.2230 H   0  0  0  0  0  0  0  0  0  0  0  0
   60.9737   34.6099   48.2495 H   0  0  0  0  0  0  0  0  0  0  0  0
   59.7143   33.3291   48.2495 H   0  0  0  0  0  0  0  0  0  0  0  0
   61.2821   30.1927   45.8291 H   0  0  0  0  0  0  0  0  0  0  0  0
   59.2699   29.6868   43.8980 H   0  0  0  0  0  0  0  0  0  0  0  0
   59.9053   28.0426   44.0148 H   0  0  0  0  0  0  0  0  0  0  0  0
   57.9075   31.3787   42.1371 H   0  0  0  0  0  0  0  0  0  0  0  0
   58.8742   33.6551   42.4442 H   0  0  0  0  0  0  0  0  0  0  0  0
  1  2  1  0
  2  3  1  0
  3  4  2  0
  4  5  1  0
  5  6  2  0
  6  7  1  0
  7  8  2  0
  7  9  2  0
  7 10  1  0
 10 11  1  0
 11 12  1  0
 12 13  2  0
 13 14  1  0
 14 15  2  0
 15 16  1  0
 16 17  1  0
 17 18  1  0
 18 19  1  0
 19 20  1  0
 20 21  1  0
 21 22  1  0
 15 23  1  0
 23 24  2  0
 24 25  1  0
  6 26  1  0
 26 27  2  0
 27  3  1  0
 25 10  1  0
 24 12  1  0
 21 17  1  0
  1 28  1  0
  1 29  1  0
  1 30  1  0
  4 31  1  0
  5 32  1  0
 11 33  1  0
 11 34  1  0
 13 35  1  0
 14 36  1  0
 16 37  1  0
 16 38  1  0
 17 39  1  6
 18 40  1  0
 18 41  1  0
 19 42  1  0
 19 43  1  0
 20 44  1  0
 20 45  1  0
 22 46  1  0
 22 47  1  0
 22 48  1  0
 23 49  1  0
 25 50  1  0
 25 51  1  0
 26 52  1  0
 27 53  1  0
M  END
>  <UniqueID>  (39) 
36

>  <SMILES>  (39) 
COc1ccc(S(=O)(=O)N2Cc3ccc(C[C@@H]4CCCN4C)cc3C2)cc1

>  <Energy>  (39) 
66.97075773905405

>  <Genealogy>  (39) 
COc1ccc(S(=O)(=O)N2Cc3ccc(C[C@@H]4CCCN4C)cc3C2)cc1 (chirality)
COc1ccc(S(=O)(=O)N2Cc3ccc(C[C@@H]4CCCN4C)cc3C2)cc1 (3D coordinates assigned)
COc1ccc(S(=O)(=O)N2Cc3ccc(C[C@@H]4CCCN4C)cc3C2)cc1 (nonaromatic ring conformer: 66.97075773905405 kcal/mol)

>  <smiles>  (39) 
COc1ccc(S(=O)(=O)N2Cc3ccc(CC4CCCN4C)cc3C2)cc1

>  <score_type>  (39) 
oracle

>  <origin>  (39) 
adg

>  <m_score__min__energy>  (39) 
-9.2300000000000004

>  <m_primary>  (39) 
energy

$$$$
39:0
     RDKit          3D

 21 22  0  0  0  0  0  0  0  0999 V2000
   58.5430   27.4340   44.8720 O   0  0  0  0  0  0  0  0  0  0  0  0
   57.4870   27.7610   45.8900 S   0  0  0  0  0  0  0  0  0  0  0  0
   58.1210   28.0680   47.2170 O   0  0  0  0  0  0  0  0  0  0  0  0
   56.5440   29.1190   45.3650 N   0  0  0  0  0  0  0  0  0  0  0  0
   56.9750   30.2080   44.5340 C   0  0  0  0  0  0  0  0  0  0  0  0
   56.6590   30.1490   43.1700 C   0  0  0  0  0  0  0  0  0  0  0  0
   57.0460   31.1740   42.3010 C   0  0  0  0  0  0  0  0  0  0  0  0
   57.7550   32.2720   42.7900 C   0  0  0  0  0  0  0  0  0  0  0  0
   58.0760   32.3470   44.1470 C   0  0  0  0  0  0  0  0  0  0  0  0
   57.6920   31.3250   45.0230 C   0  0  0  0  0  0  0  0  0  0  0  0
   58.0280   31.4470   46.3300 F   0  0  0  0  0  0  0  0  0  0  0  0
   56.4280   26.3780   46.0740 C   0  0  0  0  0  0  0  0  0  0  0  0
   56.7470   25.1690   46.6380 C   0  0  0  0  0  0  0  0  0  0  0  0
   55.6430   24.4050   46.5810 N   0  0  0  0  0  0  0  0  0  0  0  0
   54.6980   25.1330   46.0030 N   0  0  0  0  0  0  0  0  0  0  0  0
   55.1440   26.3400   45.6830 N   0  0  0  0  0  0  0  0  0  0  0  0
   56.1000   29.2864   42.7783 H   0  0  0  0  0  0  0  0  0  0  0  0
   56.7917   31.1148   41.2324 H   0  0  0  0  0  0  0  0  0  0  0  0
   58.0609   33.0781   42.1068 H   0  0  0  0  0  0  0  0  0  0  0  0
   58.6339   33.2143   44.5298 H   0  0  0  0  0  0  0  0  0  0  0  0
   57.7219   24.8797   47.0575 H   0  0  0  0  0  0  0  0  0  0  0  0
  1  2  2  0
  2  3  2  0
  2  4  1  0
  4  5  1  0
  5  6  2  0
  6  7  1  0
  7  8  2  0
  8  9  1  0
  9 10  2  0
 10 11  1  0
  2 12  1  0
 12 13  2  0
 13 14  1  0
 14 15  1  0
 15 16  2  0
 10  5  1  0
 16 12  1  0
  6 17  1  0
  7 18  1  0
  8 19  1  0
  9 20  1  0
 13 21  1  0
M  CHG  2   4  -1  14  -1
M  END
>  <UniqueID>  (40) 
37

>  <SMILES>  (40) 
O=S(=O)([N-]c1ccccc1F)c1c[n-]nn1

>  <Energy>  (40) 
62.12789304126746

>  <Genealogy>  (40) 
O=S(=O)([N-]c1ccccc1F)c1c[n-]nn1 (protonated)
O=S(=O)([N-]c1ccccc1F)c1c[n-]nn1 (3D coordinates assigned)
O=S(=O)([N-]c1ccccc1F)c1c[n-]nn1 (optimized conformer: 62.12789304126746 kcal/mol)

>  <smiles>  (40) 
O=S(=O)(Nc1ccccc1F)c1c[nH]nn1

>  <score_type>  (40) 
oracle

>  <origin>  (40) 
adg

>  <m_score__min__energy>  (40) 
-9.9299999999999997

>  <m_primary>  (40) 
energy

$$$$
40:0
     RDKit          3D

 44 46  0  0  0  0  0  0  0  0999 V2000
   60.7810   29.8770   46.0150 C   0  0  0  0  0  0  0  0  0  0  0  0
   61.3150   30.5230   47.2660 C   0  0  0  0  0  0  0  0  0  0  0  0
   62.1280   31.6650   47.1740 C   0  0  0  0  0  0  0  0  0  0  0  0
   62.6260   32.2730   48.3310 C   0  0  0  0  0  0  0  0  0  0  0  0
   62.3090   31.7540   49.5860 C   0  0  0  0  0  0  0  0  0  0  0  0
   61.4990   30.6190   49.6890 C   0  0  0  0  0  0  0  0  0  0  0  0
   61.0180   29.9810   48.5330 C   0  0  0  0  0  0  0  0  0  0  0  0
   60.1570   28.8320   48.6350 N   0  0  0  0  0  0  0  0  0  0  0  0
   58.9510   28.7740   48.2130 N   0  0  0  0  0  0  0  0  0  0  0  0
   58.5090   27.9980   47.0880 C   0  0  0  0  0  0  0  0  0  0  0  0
   57.7550   28.6210   46.0780 C   0  0  0  0  0  0  0  0  0  0  0  0
   57.4250   30.0110   46.2160 N   0  0  0  0  0  0  0  0  0  0  0  0
   57.6090   31.2140   44.9800 S   0  0  0  0  0  0  0  0  0  0  0  0
   58.4100   30.6440   43.8410 O   0  0  0  0  0  0  0  0  0  0  0  0
   56.2520   31.6010   44.4650 O   0  0  0  0  0  0  0  0  0  0  0  0
   58.3920   32.6420   45.6540 C   0  0  0  0  0  0  0  0  0  0  0  0
   58.6310   33.7480   44.8290 C   0  0  0  0  0  0  0  0  0  0  0  0
   59.2330   34.8960   45.3490 C   0  0  0  0  0  0  0  0  0  0  0  0
   59.6000   34.9450   46.6960 C   0  0  0  0  0  0  0  0  0  0  0  0
   59.3660   33.8450   47.5410 C   0  0  0  0  0  0  0  0  0  0  0  0
   59.7320   33.9070   48.9340 N   0  0  0  0  0  0  0  0  0  0  0  0
   60.7210   34.5740   49.3040 O   0  0  0  0  0  0  0  0  0  0  0  0
   58.9910   33.2370   49.8810 O   0  0  0  0  0  0  0  0  0  0  0  0
   58.7600   32.6920   47.0080 C   0  0  0  0  0  0  0  0  0  0  0  0
   57.3180   27.8650   44.9780 C   0  0  0  0  0  0  0  0  0  0  0  0
   57.6490   26.5150   44.8740 C   0  0  0  0  0  0  0  0  0  0  0  0
   58.4280   25.8980   45.8560 C   0  0  0  0  0  0  0  0  0  0  0  0
   58.8610   24.0460   45.6290 Br  0  0  0  0  0  0  0  0  0  0  0  0
   58.8750   26.6430   46.9650 C   0  0  0  0  0  0  0  0  0  0  0  0
   59.6940   26.0690   47.9400 O   0  0  0  0  0  0  0  0  0  0  0  0
   60.1020   29.0556   46.2876 H   0  0  0  0  0  0  0  0  0  0  0  0
   60.2332   30.6240   45.4218 H   0  0  0  0  0  0  0  0  0  0  0  0
   61.6177   29.4795   45.4218 H   0  0  0  0  0  0  0  0  0  0  0  0
   62.3742   32.0832   46.1869 H   0  0  0  0  0  0  0  0  0  0  0  0
   63.2688   33.1620   48.2509 H   0  0  0  0  0  0  0  0  0  0  0  0
   62.6962   32.2376   50.4949 H   0  0  0  0  0  0  0  0  0  0  0  0
   61.2366   30.2230   50.6811 H   0  0  0  0  0  0  0  0  0  0  0  0
   58.3436   33.7125   43.7678 H   0  0  0  0  0  0  0  0  0  0  0  0
   59.4183   35.7625   44.6972 H   0  0  0  0  0  0  0  0  0  0  0  0
   60.0758   35.8511   47.0992 H   0  0  0  0  0  0  0  0  0  0  0  0
   58.5733   31.8237   47.6570 H   0  0  0  0  0  0  0  0  0  0  0  0
   56.7109   28.3411   44.1939 H   0  0  0  0  0  0  0  0  0  0  0  0
   57.2941   25.9309   44.0121 H   0  0  0  0  0  0  0  0  0  0  0  0
   60.1510   26.6090   48.6620 H   0  0  0  0  0  0  0  0  0  0  0  0
  1  2  1  0
  2  3  2  0
  3  4  1  0
  4  5  2  0
  5  6  1  0
  6  7  2  0
  7  8  1  0
  8  9  2  3
  9 10  1  0
 10 11  1  0
 11 12  1  0
 12 13  1  0
 13 14  2  0
 13 15  2  0
 13 16  1  0
 16 17  2  0
 17 18  1  0
 18 19  2  0
 19 20  1  0
 20 21  1  0
 21 22  2  0
 21 23  1  0
 20 24  2  0
 11 25  2  0
 25 26  1  0
 26 27  2  0
 27 28  1  0
 27 29  1  0
 29 30  1  0
  7  2  1  0
 29 10  2  0
 24 16  1  0
  1 31  1  0
  1 32  1  0
  1 33  1  0
  3 34  1  0
  4 35  1  0
  5 36  1  0
  6 37  1  0
 17 38  1  0
 18 39  1  0
 19 40  1  0
 24 41  1  0
 25 42  1  0
 26 43  1  0
 30 44  1  0
M  CHG  3  12  -1  21   1  23  -1
M  END
>  <UniqueID>  (41) 
38

>  <SMILES>  (41) 
Cc1ccccc1N=Nc1c([N-]S(=O)(=O)c2cccc([N+](=O)[O-])c2)ccc(Br)c1O

>  <Energy>  (41) 
66.26601209038324

>  <Genealogy>  (41) 
Cc1ccccc1N=Nc1c([N-]S(=O)(=O)c2cccc([N+](=O)[O-])c2)ccc(Br)c1O (protonated)
Cc1ccccc1N=Nc1c([N-]S(=O)(=O)c2cccc([N+](=O)[O-])c2)ccc(Br)c1O (3D coordinates assigned)
Cc1ccccc1N=Nc1c([N-]S(=O)(=O)c2cccc([N+](=O)[O-])c2)ccc(Br)c1O (optimized conformer: 66.26601209038324 kcal/mol)

>  <smiles>  (41) 
Cc1ccccc1N=Nc1c(NS(=O)(=O)c2cccc([N+](=O)[O-])c2)ccc(Br)c1O

>  <score_type>  (41) 
oracle

>  <origin>  (41) 
adg

>  <m_score__min__energy>  (41) 
-11.52

>  <m_primary>  (41) 
energy

$$$$
41:0
     RDKit          3D

 48 51  0  0  0  0  0  0  0  0999 V2000
   61.8790   30.2870   50.3240 C   0  0  0  0  0  0  0  0  0  0  0  0
   62.4650   31.2300   49.3070 C   0  0  0  0  0  0  0  0  0  0  0  0
   63.5540   32.0370   49.6800 C   0  0  0  0  0  0  0  0  0  0  0  0
   64.0940   32.9600   48.7810 C   0  0  0  0  0  0  0  0  0  0  0  0
   63.5550   33.0860   47.5010 C   0  0  0  0  0  0  0  0  0  0  0  0
   62.4880   32.2770   47.1080 C   0  0  0  0  0  0  0  0  0  0  0  0
   61.9490   31.3280   47.9890 C   0  0  0  0  0  0  0  0  0  0  0  0
   60.8920   30.4720   47.5270 N   0  0  0  0  0  0  0  0  0  0  0  0
   59.8990   30.8250   46.6910 C   0  0  0  0  0  0  0  0  0  0  0  0
   59.0380   29.7550   46.5580 C   0  0  0  0  0  0  0  0  0  0  0  0
   57.7680   29.6510   45.8010 C   0  0  0  0  0  0  0  0  0  0  0  0
   57.2890   28.5020   45.6060 O   0  0  0  0  0  0  0  0  0  0  0  0
   57.0660   30.7730   45.2390 N   0  0  0  0  0  0  0  0  0  0  0  0
   57.5720   32.1100   44.9450 C   0  0  0  0  0  0  0  0  0  0  0  0
   57.1400   33.1080   46.0370 C   0  0  0  0  0  0  0  0  0  0  0  0
   58.2930   33.6740   46.7550 N   0  0  0  0  0  0  0  0  0  0  0  0
   59.2070   34.5630   46.2680 C   0  0  0  0  0  0  0  0  0  0  0  0
   59.2400   35.0790   44.8600 C   0  0  0  0  0  0  0  0  0  0  0  0
   60.1720   34.8600   47.2240 C   0  0  0  0  0  0  0  0  0  0  0  0
   59.8340   34.1050   48.3230 C   0  0  0  0  0  0  0  0  0  0  0  0
   60.4680   33.9890   49.5590 C   0  0  0  0  0  0  0  0  0  0  0  0
   59.9220   33.0960   50.4960 C   0  0  0  0  0  0  0  0  0  0  0  0
   58.7770   32.3380   50.1750 C   0  0  0  0  0  0  0  0  0  0  0  0
   58.1600   32.4720   48.9180 C   0  0  0  0  0  0  0  0  0  0  0  0
   58.7060   33.3850   48.0100 C   0  0  0  0  0  0  0  0  0  0  0  0
   59.5660   28.7790   47.3880 C   0  0  0  0  0  0  0  0  0  0  0  0
   60.6890   29.2420   47.9710 N   0  0  0  0  0  0  0  0  0  0  0  0
   62.1060   30.6523   51.3364 H   0  0  0  0  0  0  0  0  0  0  0  0
   60.7886   30.2339   50.1893 H   0  0  0  0  0  0  0  0  0  0  0  0
   62.3143   29.2858   50.1893 H   0  0  0  0  0  0  0  0  0  0  0  0
   63.9844   31.9409   50.6878 H   0  0  0  0  0  0  0  0  0  0  0  0
   64.9451   33.5880   49.0831 H   0  0  0  0  0  0  0  0  0  0  0  0
   63.9716   33.8243   46.8000 H   0  0  0  0  0  0  0  0  0  0  0  0
   62.0658   32.3846   46.0980 H   0  0  0  0  0  0  0  0  0  0  0  0
   59.7915   31.8018   46.1968 H   0  0  0  0  0  0  0  0  0  0  0  0
   58.6706   32.0783   44.8989 H   0  0  0  0  0  0  0  0  0  0  0  0
   57.1590   32.4403   43.9805 H   0  0  0  0  0  0  0  0  0  0  0  0
   56.5777   33.9279   45.5662 H   0  0  0  0  0  0  0  0  0  0  0  0
   56.5192   32.5661   46.7656 H   0  0  0  0  0  0  0  0  0  0  0  0
   59.3102   36.1767   44.8733 H   0  0  0  0  0  0  0  0  0  0  0  0
   60.1133   34.6620   44.3371 H   0  0  0  0  0  0  0  0  0  0  0  0
   58.3207   34.7767   44.3371 H   0  0  0  0  0  0  0  0  0  0  0  0
   61.0226   35.5502   47.1231 H   0  0  0  0  0  0  0  0  0  0  0  0
   61.3671   34.5779   49.7932 H   0  0  0  0  0  0  0  0  0  0  0  0
   60.3902   32.9874   51.4855 H   0  0  0  0  0  0  0  0  0  0  0  0
   58.3629   31.6361   50.9138 H   0  0  0  0  0  0  0  0  0  0  0  0
   57.2734   31.8757   48.6566 H   0  0  0  0  0  0  0  0  0  0  0  0
   59.1345   27.7797   47.5466 H   0  0  0  0  0  0  0  0  0  0  0  0
  1  2  1  0
  2  3  2  0
  3  4  1  0
  4  5  2  0
  5  6  1  0
  6  7  2  0
  7  8  1  0
  8  9  1  0
  9 10  2  0
 10 11  1  0
 11 12  2  0
 11 13  1  0
 13 14  1  0
 14 15  1  0
 15 16  1  0
 16 17  1  0
 17 18  1  0
 17 19  2  0
 19 20  1  0
 20 21  2  0
 21 22  1  0
 22 23  2  0
 23 24  1  0
 24 25  2  0
 10 26  1  0
 26 27  2  0
  7  2  1  0
 27  8  1  0
 25 16  1  0
 25 20  1  0
  1 28  1  0
  1 29  1  0
  1 30  1  0
  3 31  1  0
  4 32  1  0
  5 33  1  0
  6 34  1  0
  9 35  1  0
 14 36  1  0
 14 37  1  0
 15 38  1  0
 15 39  1  0
 18 40  1  0
 18 41  1  0
 18 42  1  0
 19 43  1  0
 21 44  1  0
 22 45  1  0
 23 46  1  0
 24 47  1  0
 26 48  1  0
M  CHG  1  13  -1
M  END
>  <UniqueID>  (42) 
39

>  <SMILES>  (42) 
Cc1ccccc1-n1cc(C(=O)[N-]CCn2c(C)cc3ccccc32)cn1

>  <Energy>  (42) 
121.94687474714434

>  <Genealogy>  (42) 
Cc1ccccc1-n1cc(C(=O)[N-]CCn2c(C)cc3ccccc32)cn1 (protonated)
Cc1ccccc1-n1cc(C(=O)[N-]CCn2c(C)cc3ccccc32)cn1 (3D coordinates assigned)
Cc1ccccc1-n1cc(C(=O)[N-]CCn2c(C)cc3ccccc32)cn1 (optimized conformer: 121.94687474714434 kcal/mol)

>  <smiles>  (42) 
Cc1ccccc1-n1cc(C(=O)NCCn2c(C)cc3ccccc32)cn1

>  <score_type>  (42) 
oracle

>  <origin>  (42) 
adg

>  <m_score__min__energy>  (42) 
-9.6400000000000006

>  <m_primary>  (42) 
energy

$$$$
42:0
     RDKit          3D

 36 38  0  0  0  0  0  0  0  0999 V2000
   53.0660   24.0880   45.2260 C   0  0  0  0  0  0  0  0  0  0  0  0
   54.0170   24.9140   45.8890 O   0  0  0  0  0  0  0  0  0  0  0  0
   55.4070   24.8170   45.7190 C   0  0  0  0  0  0  0  0  0  0  0  0
   55.9200   23.6920   45.0640 C   0  0  0  0  0  0  0  0  0  0  0  0
   57.2940   23.5560   44.8600 C   0  0  0  0  0  0  0  0  0  0  0  0
   58.1730   24.5430   45.3150 C   0  0  0  0  0  0  0  0  0  0  0  0
   57.6790   25.6690   45.9890 C   0  0  0  0  0  0  0  0  0  0  0  0
   58.6180   26.7540   46.4410 C   0  0  0  0  0  0  0  0  0  0  0  0
   58.2940   28.0320   45.7380 C   0  0  0  0  0  0  0  0  0  0  0  0
   58.6480   29.2460   46.2120 N   0  0  0  0  0  0  0  0  0  0  0  0
   58.0920   30.1150   45.3420 C   0  0  0  0  0  0  0  0  0  0  0  0
   58.2000   31.5820   45.4910 C   0  0  0  0  0  0  0  0  0  0  0  0
   58.1760   32.4330   44.3720 C   0  0  0  0  0  0  0  0  0  0  0  0
   58.2930   33.8170   44.5350 C   0  0  0  0  0  0  0  0  0  0  0  0
   58.4490   34.3620   45.8120 C   0  0  0  0  0  0  0  0  0  0  0  0
   58.4940   33.5230   46.9280 C   0  0  0  0  0  0  0  0  0  0  0  0
   58.3770   32.1390   46.7700 C   0  0  0  0  0  0  0  0  0  0  0  0
   57.3920   29.4100   44.3760 C   0  0  0  0  0  0  0  0  0  0  0  0
   56.2530   30.0960   43.0010 Br  0  0  0  0  0  0  0  0  0  0  0  0
   57.5220   28.1000   44.6370 N   0  0  0  0  0  0  0  0  0  0  0  0
   56.2940   25.8100   46.1790 C   0  0  0  0  0  0  0  0  0  0  0  0
   52.4564   23.5585   45.9730 H   0  0  0  0  0  0  0  0  0  0  0  0
   52.4144   24.7117   44.5964 H   0  0  0  0  0  0  0  0  0  0  0  0
   53.5923   23.3555   44.5964 H   0  0  0  0  0  0  0  0  0  0  0  0
   55.2351   22.9087   44.7071 H   0  0  0  0  0  0  0  0  0  0  0  0
   57.6862   22.6697   44.3398 H   0  0  0  0  0  0  0  0  0  0  0  0
   59.2544   24.4362   45.1440 H   0  0  0  0  0  0  0  0  0  0  0  0
   58.5134   26.8981   47.5265 H   0  0  0  0  0  0  0  0  0  0  0  0
   59.6512   26.4614   46.2027 H   0  0  0  0  0  0  0  0  0  0  0  0
   58.0647   32.0081   43.3635 H   0  0  0  0  0  0  0  0  0  0  0  0
   58.2621   34.4778   43.6561 H   0  0  0  0  0  0  0  0  0  0  0  0
   58.5363   35.4512   45.9385 H   0  0  0  0  0  0  0  0  0  0  0  0
   58.6217   33.9521   47.9328 H   0  0  0  0  0  0  0  0  0  0  0  0
   58.4236   31.4820   47.6510 H   0  0  0  0  0  0  0  0  0  0  0  0
   57.0780   27.3070   44.1220 H   0  0  0  0  0  0  0  0  0  0  0  0
   55.9001   26.7009   46.6899 H   0  0  0  0  0  0  0  0  0  0  0  0
  1  2  1  0
  2  3  1  0
  3  4  2  0
  4  5  1  0
  5  6  2  0
  6  7  1  0
  7  8  1  0
  8  9  1  0
  9 10  2  0
 10 11  1  0
 11 12  1  0
 12 13  2  0
 13 14  1  0
 14 15  2  0
 15 16  1  0
 16 17  2  0
 11 18  2  0
 18 19  1  0
 18 20  1  0
  7 21  2  0
 21  3  1  0
 20  9  1  0
 17 12  1  0
  1 22  1  0
  1 23  1  0
  1 24  1  0
  4 25  1  0
  5 26  1  0
  6 27  1  0
  8 28  1  0
  8 29  1  0
 13 30  1  0
 14 31  1  0
 15 32  1  0
 16 33  1  0
 17 34  1  0
 20 35  1  0
 21 36  1  0
M  END
>  <UniqueID>  (43) 
40

>  <SMILES>  (43) 
COc1cccc(Cc2nc(-c3ccccc3)c(Br)[nH]2)c1

>  <Energy>  (43) 
68.65657662839628

>  <Genealogy>  (43) 
COc1cccc(Cc2nc(-c3ccccc3)c(Br)[nH]2)c1 (3D coordinates assigned)
COc1cccc(Cc2nc(-c3ccccc3)c(Br)[nH]2)c1 (optimized conformer: 68.65657662839628 kcal/mol)

>  <smiles>  (43) 
COc1cccc(Cc2nc(-c3ccccc3)c(Br)[nH]2)c1

>  <score_type>  (43) 
oracle

>  <origin>  (43) 
adg

>  <m_score__min__energy>  (43) 
-7.8399999999999999

>  <m_primary>  (43) 
energy

$$$$
43:0
     RDKit          3D

 33 34  0  0  0  0  0  0  0  0999 V2000
   55.7440   24.1710   45.6470 C   0  0  0  0  0  0  0  0  0  0  0  0
   55.8980   25.6410   45.9030 C   0  0  0  0  0  0  0  0  0  0  0  0
   54.8550   26.3430   46.0000 O   0  0  0  0  0  0  0  0  0  0  0  0
   57.2350   26.2810   46.0420 C   0  0  0  0  0  0  0  0  0  0  0  0
   58.4010   25.5000   45.9430 C   0  0  0  0  0  0  0  0  0  0  0  0
   59.6620   26.0880   46.0560 C   0  0  0  0  0  0  0  0  0  0  0  0
   59.7790   27.4600   46.2790 C   0  0  0  0  0  0  0  0  0  0  0  0
   58.6340   28.2580   46.4050 C   0  0  0  0  0  0  0  0  0  0  0  0
   58.7820   29.6730   46.6120 N   0  0  0  0  0  0  0  0  0  0  0  0
   58.1080   30.6720   45.8290 C   0  0  0  0  0  0  0  0  0  0  0  0
   57.0630   30.3720   45.1900 O   0  0  0  0  0  0  0  0  0  0  0  0
   58.5760   32.0750   45.8360 C   0  0  0  0  0  0  0  0  0  0  0  0
   59.0850   32.6160   47.0310 C   0  0  0  0  0  0  0  0  0  0  0  0
   59.5570   33.9390   47.0840 C   0  0  0  0  0  0  0  0  0  0  0  0
   60.0870   34.4750   48.3110 N   0  0  0  0  0  0  0  0  0  0  0  0
   59.3270   34.9700   49.1700 O   0  0  0  0  0  0  0  0  0  0  0  0
   61.4400   34.4510   48.5590 O   0  0  0  0  0  0  0  0  0  0  0  0
   59.5070   34.7260   45.9220 C   0  0  0  0  0  0  0  0  0  0  0  0
   58.9860   34.2060   44.7360 C   0  0  0  0  0  0  0  0  0  0  0  0
   58.5160   32.8890   44.6840 C   0  0  0  0  0  0  0  0  0  0  0  0
   57.7840   32.3370   43.1800 Cl  0  0  0  0  0  0  0  0  0  0  0  0
   57.3650   27.6670   46.2670 C   0  0  0  0  0  0  0  0  0  0  0  0
   55.6879   23.6357   46.6063 H   0  0  0  0  0  0  0  0  0  0  0  0
   54.8223   23.9933   45.0735 H   0  0  0  0  0  0  0  0  0  0  0  0
   56.6088   23.8061   45.0735 H   0  0  0  0  0  0  0  0  0  0  0  0
   58.3182   24.4161   45.7750 H   0  0  0  0  0  0  0  0  0  0  0  0
   60.5661   25.4675   45.9689 H   0  0  0  0  0  0  0  0  0  0  0  0
   60.7760   27.9182   46.3564 H   0  0  0  0  0  0  0  0  0  0  0  0
   59.3390   29.9960   47.4350 H   0  0  0  0  0  0  0  0  0  0  0  0
   59.1140   31.9940   47.9378 H   0  0  0  0  0  0  0  0  0  0  0  0
   59.8812   35.7601   45.9466 H   0  0  0  0  0  0  0  0  0  0  0  0
   58.9446   34.8363   43.8354 H   0  0  0  0  0  0  0  0  0  0  0  0
   56.4634   28.2934   46.3354 H   0  0  0  0  0  0  0  0  0  0  0  0
  1  2  1  0
  2  3  2  0
  2  4  1  0
  4  5  2  0
  5  6  1  0
  6  7  2  0
  7  8  1  0
  8  9  1  0
  9 10  1  0
 10 11  2  0
 10 12  1  0
 12 13  2  0
 13 14  1  0
 14 15  1  0
 15 16  2  0
 15 17  1  0
 14 18  2  0
 18 19  1  0
 19 20  2  0
 20 21  1  0
  8 22  2  0
 22  4  1  0
 20 12  1  0
  1 23  1  0
  1 24  1  0
  1 25  1  0
  5 26  1  0
  6 27  1  0
  7 28  1  0
  9 29  1  0
 13 30  1  0
 18 31  1  0
 19 32  1  0
 22 33  1  0
M  CHG  2  15   1  17  -1
M  END
>  <UniqueID>  (44) 
41

>  <SMILES>  (44) 
CC(=O)c1cccc(NC(=O)c2cc([N+](=O)[O-])ccc2Cl)c1

>  <Energy>  (44) 
44.01487790043722

>  <Genealogy>  (44) 
CC(=O)c1cccc(NC(=O)c2cc([N+](=O)[O-])ccc2Cl)c1 (3D coordinates assigned)
CC(=O)c1cccc(NC(=O)c2cc([N+](=O)[O-])ccc2Cl)c1 (optimized conformer: 44.01487790043722 kcal/mol)

>  <smiles>  (44) 
CC(=O)c1cccc(NC(=O)c2cc([N+](=O)[O-])ccc2Cl)c1

>  <score_type>  (44) 
oracle

>  <origin>  (44) 
adg

>  <m_score__min__energy>  (44) 
-8.1899999999999995

>  <m_primary>  (44) 
energy

$$$$
44:0
     RDKit          3D

 39 41  0  0  0  0  0  0  0  0999 V2000
   55.1840   26.5180   46.0070 N   0  0  0  0  0  0  0  0  0  0  0  0
   56.8170   25.9740   46.1680 S   0  0  0  0  0  0  0  0  0  0  0  0
   57.2260   25.2480   44.9170 O   0  0  0  0  0  0  0  0  0  0  0  0
   56.9160   25.0260   47.3320 O   0  0  0  0  0  0  0  0  0  0  0  0
   57.8710   27.3560   46.4420 C   0  0  0  0  0  0  0  0  0  0  0  0
   58.4030   28.0710   45.3620 C   0  0  0  0  0  0  0  0  0  0  0  0
   59.2170   29.1860   45.5870 C   0  0  0  0  0  0  0  0  0  0  0  0
   59.5140   29.5980   46.8990 C   0  0  0  0  0  0  0  0  0  0  0  0
   60.3040   30.7710   47.1610 N   0  0  0  0  0  0  0  0  0  0  0  0
   60.2000   31.5620   48.3560 C   0  0  0  0  0  0  0  0  0  0  0  0
   59.1290   31.5730   49.0200 O   0  0  0  0  0  0  0  0  0  0  0  0
   61.3370   32.4430   48.7860 C   0  0  0  0  0  0  0  0  0  0  0  0
   61.5980   33.8440   47.6380 S   0  0  0  0  0  0  0  0  0  0  0  0
   60.0420   33.6380   46.7780 C   0  0  0  0  0  0  0  0  0  0  0  0
   58.9270   34.3410   47.0460 N   0  0  0  0  0  0  0  0  0  0  0  0
   58.0110   33.9150   46.1890 N   0  0  0  0  0  0  0  0  0  0  0  0
   58.6050   32.9680   45.4360 C   0  0  0  0  0  0  0  0  0  0  0  0
   57.9440   32.2290   44.3420 C   0  0  0  0  0  0  0  0  0  0  0  0
   58.1640   32.6050   43.0050 C   0  0  0  0  0  0  0  0  0  0  0  0
   57.5270   31.9210   41.9660 C   0  0  0  0  0  0  0  0  0  0  0  0
   56.6690   30.8560   42.2510 C   0  0  0  0  0  0  0  0  0  0  0  0
   56.4510   30.4690   43.5770 C   0  0  0  0  0  0  0  0  0  0  0  0
   57.0840   31.1520   44.6200 C   0  0  0  0  0  0  0  0  0  0  0  0
   59.8530   32.7920   45.7970 O   0  0  0  0  0  0  0  0  0  0  0  0
   58.9630   28.8860   47.9760 C   0  0  0  0  0  0  0  0  0  0  0  0
   58.1520   27.7720   47.7510 C   0  0  0  0  0  0  0  0  0  0  0  0
   55.1500   27.1270   45.1590 H   0  0  0  0  0  0  0  0  0  0  0  0
   58.1799   27.7545   44.3324 H   0  0  0  0  0  0  0  0  0  0  0  0
   59.6275   29.7443   44.7327 H   0  0  0  0  0  0  0  0  0  0  0  0
   60.9940   31.0750   46.4360 H   0  0  0  0  0  0  0  0  0  0  0  0
   61.1172   32.8417   49.7873 H   0  0  0  0  0  0  0  0  0  0  0  0
   62.2532   31.8343   48.7899 H   0  0  0  0  0  0  0  0  0  0  0  0
   58.8407   33.4414   42.7758 H   0  0  0  0  0  0  0  0  0  0  0  0
   57.7015   32.2216   40.9224 H   0  0  0  0  0  0  0  0  0  0  0  0
   56.1648   30.3218   41.4322 H   0  0  0  0  0  0  0  0  0  0  0  0
   55.7805   29.6259   43.7998 H   0  0  0  0  0  0  0  0  0  0  0  0
   56.9085   30.8456   45.6618 H   0  0  0  0  0  0  0  0  0  0  0  0
   59.1721   29.2087   49.0066 H   0  0  0  0  0  0  0  0  0  0  0  0
   57.7320   27.2187   48.6039 H   0  0  0  0  0  0  0  0  0  0  0  0
  1  2  1  0
  2  3  2  0
  2  4  2  0
  2  5  1  0
  5  6  2  0
  6  7  1  0
  7  8  2  0
  8  9  1  0
  9 10  1  0
 10 11  2  0
 10 12  1  0
 12 13  1  0
 13 14  1  0
 14 15  2  0
 15 16  1  0
 16 17  2  0
 17 18  1  0
 18 19  2  0
 19 20  1  0
 20 21  2  0
 21 22  1  0
 22 23  2  0
 17 24  1  0
  8 25  1  0
 25 26  2  0
 26  5  1  0
 24 14  1  0
 23 18  1  0
  1 27  1  0
  6 28  1  0
  7 29  1  0
  9 30  1  0
 12 31  1  0
 12 32  1  0
 19 33  1  0
 20 34  1  0
 21 35  1  0
 22 36  1  0
 23 37  1  0
 25 38  1  0
 26 39  1  0
M  CHG  1   1  -1
M  END
>  <UniqueID>  (45) 
42

>  <SMILES>  (45) 
[NH-]S(=O)(=O)c1ccc(NC(=O)CSc2nnc(-c3ccccc3)o2)cc1

>  <Energy>  (45) 
71.77952672390815

>  <Genealogy>  (45) 
[NH-]S(=O)(=O)c1ccc(NC(=O)CSc2nnc(-c3ccccc3)o2)cc1 (protonated)
[NH-]S(=O)(=O)c1ccc(NC(=O)CSc2nnc(-c3ccccc3)o2)cc1 (3D coordinates assigned)
[NH-]S(=O)(=O)c1ccc(NC(=O)CSc2nnc(-c3ccccc3)o2)cc1 (optimized conformer: 71.77952672390815 kcal/mol)

>  <smiles>  (45) 
NS(=O)(=O)c1ccc(NC(=O)CSc2nnc(-c3ccccc3)o2)cc1

>  <score_type>  (45) 
oracle

>  <origin>  (45) 
adg

>  <m_score__min__energy>  (45) 
-10.970000000000001

>  <m_primary>  (45) 
energy

$$$$
45:0
     RDKit          3D

 47 50  0  0  0  0  0  0  0  0999 V2000
   67.3550   32.8280   50.8100 C   0  0  0  0  0  0  0  0  0  0  0  0
   66.3760   33.2300   49.8560 O   0  0  0  0  0  0  0  0  0  0  0  0
   65.1010   32.6580   49.7380 C   0  0  0  0  0  0  0  0  0  0  0  0
   64.7700   31.5970   50.5880 C   0  0  0  0  0  0  0  0  0  0  0  0
   63.5170   30.9820   50.5170 C   0  0  0  0  0  0  0  0  0  0  0  0
   63.2390   29.9280   51.3990 O   0  0  0  0  0  0  0  0  0  0  0  0
   61.9680   29.2990   51.5270 C   0  0  0  0  0  0  0  0  0  0  0  0
   62.5800   31.4370   49.5710 C   0  0  0  0  0  0  0  0  0  0  0  0
   62.8830   32.5170   48.7260 C   0  0  0  0  0  0  0  0  0  0  0  0
   61.8890   33.0160   47.7470 C   0  0  0  0  0  0  0  0  0  0  0  0
   62.1430   33.8320   46.6580 C   0  0  0  0  0  0  0  0  0  0  0  0
   60.9940   34.0640   45.9920 N   0  0  0  0  0  0  0  0  0  0  0  0
   60.0180   33.4290   46.6230 N   0  0  0  0  0  0  0  0  0  0  0  0
   58.6220   33.4940   46.1930 C   0  0  0  0  0  0  0  0  0  0  0  0
   58.2030   32.1930   45.5900 C   0  0  0  0  0  0  0  0  0  0  0  0
   56.9560   31.9280   45.1540 N   0  0  0  0  0  0  0  0  0  0  0  0
   57.0940   30.6560   44.7270 C   0  0  0  0  0  0  0  0  0  0  0  0
   56.0050   29.8740   44.1360 C   0  0  0  0  0  0  0  0  0  0  0  0
   55.1510   29.3190   44.8760 O   0  0  0  0  0  0  0  0  0  0  0  0
   55.9080   29.7440   42.7570 O   0  0  0  0  0  0  0  0  0  0  0  0
   58.3430   30.1820   44.8980 N   0  0  0  0  0  0  0  0  0  0  0  0
   58.9980   31.1620   45.4390 O   0  0  0  0  0  0  0  0  0  0  0  0
   60.5220   32.7720   47.6920 C   0  0  0  0  0  0  0  0  0  0  0  0
   59.7210   32.0290   48.6860 C   0  0  0  0  0  0  0  0  0  0  0  0
   59.5500   30.6420   48.5680 C   0  0  0  0  0  0  0  0  0  0  0  0
   58.8220   29.9370   49.5300 C   0  0  0  0  0  0  0  0  0  0  0  0
   58.2630   30.6130   50.6200 C   0  0  0  0  0  0  0  0  0  0  0  0
   57.5620   29.9280   51.5560 F   0  0  0  0  0  0  0  0  0  0  0  0
   58.4340   31.9940   50.7470 C   0  0  0  0  0  0  0  0  0  0  0  0
   59.1620   32.7020   49.7850 C   0  0  0  0  0  0  0  0  0  0  0  0
   64.1520   33.1150   48.8050 C   0  0  0  0  0  0  0  0  0  0  0  0
   66.9646   32.9883   51.8258 H   0  0  0  0  0  0  0  0  0  0  0  0
   67.5870   31.7618   50.6703 H   0  0  0  0  0  0  0  0  0  0  0  0
   68.2693   33.4235   50.6703 H   0  0  0  0  0  0  0  0  0  0  0  0
   65.5070   31.2416   51.3232 H   0  0  0  0  0  0  0  0  0  0  0  0
   61.7243   29.1784   52.5929 H   0  0  0  0  0  0  0  0  0  0  0  0
   61.2006   29.9213   51.0435 H   0  0  0  0  0  0  0  0  0  0  0  0
   61.9973   28.3114   51.0435 H   0  0  0  0  0  0  0  0  0  0  0  0
   61.6008   30.9420   49.4926 H   0  0  0  0  0  0  0  0  0  0  0  0
   63.1299   34.2297   46.3791 H   0  0  0  0  0  0  0  0  0  0  0  0
   57.9845   33.7128   47.0623 H   0  0  0  0  0  0  0  0  0  0  0  0
   58.5170   34.2878   45.4387 H   0  0  0  0  0  0  0  0  0  0  0  0
   59.9910   30.1067   47.7142 H   0  0  0  0  0  0  0  0  0  0  0  0
   58.6883   28.8497   49.4303 H   0  0  0  0  0  0  0  0  0  0  0  0
   57.9955   32.5251   51.6047 H   0  0  0  0  0  0  0  0  0  0  0  0
   59.2971   33.7887   49.8894 H   0  0  0  0  0  0  0  0  0  0  0  0
   64.4057   33.9473   48.1320 H   0  0  0  0  0  0  0  0  0  0  0  0
  1  2  1  0
  2  3  1  0
  3  4  2  0
  4  5  1  0
  5  6  1  0
  6  7  1  0
  5  8  2  0
  8  9  1  0
  9 10  1  0
 10 11  1  0
 11 12  2  0
 12 13  1  0
 13 14  1  0
 14 15  1  0
 15 16  2  0
 16 17  1  0
 17 18  1  0
 18 19  2  0
 18 20  1  0
 17 21  2  0
 21 22  1  0
 13 23  1  0
 23 24  1  0
 24 25  2  0
 25 26  1  0
 26 27  2  0
 27 28  1  0
 27 29  1  0
 29 30  2  0
  9 31  2  0
 31  3  1  0
 23 10  2  0
 30 24  1  0
 22 15  1  0
  1 32  1  0
  1 33  1  0
  1 34  1  0
  4 35  1  0
  7 36  1  0
  7 37  1  0
  7 38  1  0
  8 39  1  0
 11 40  1  0
 14 41  1  0
 14 42  1  0
 25 43  1  0
 26 44  1  0
 29 45  1  0
 30 46  1  0
 31 47  1  0
M  CHG  1  20  -1
M  END
>  <UniqueID>  (46) 
43

>  <SMILES>  (46) 
COc1cc(OC)cc(-c2cnn(Cc3nc(C(=O)[O-])no3)c2-c2ccc(F)cc2)c1

>  <Energy>  (46) 
118.54263558542405

>  <Genealogy>  (46) 
COc1cc(OC)cc(-c2cnn(Cc3nc(C(=O)[O-])no3)c2-c2ccc(F)cc2)c1 (protonated)
COc1cc(OC)cc(-c2cnn(Cc3nc(C(=O)[O-])no3)c2-c2ccc(F)cc2)c1 (3D coordinates assigned)
COc1cc(OC)cc(-c2cnn(Cc3nc(C(=O)[O-])no3)c2-c2ccc(F)cc2)c1 (optimized conformer: 118.54263558542405 kcal/mol)

>  <smiles>  (46) 
COc1cc(OC)cc(-c2cnn(Cc3nc(C(=O)O)no3)c2-c2ccc(F)cc2)c1

>  <score_type>  (46) 
oracle

>  <origin>  (46) 
adg

>  <m_score__min__energy>  (46) 
-10.720000000000001

>  <m_primary>  (46) 
energy

$$$$
46:0
     RDKit          3D

 58 60  0  0  1  0  0  0  0  0999 V2000
   56.5610   21.8450   42.6650 C   0  0  0  0  0  0  0  0  0  0  0  0
   55.4990   22.6410   43.1030 O   0  0  0  0  0  0  0  0  0  0  0  0
   55.7150   23.6830   43.9730 C   0  0  0  0  0  0  0  0  0  0  0  0
   56.9900   24.2620   43.9970 C   0  0  0  0  0  0  0  0  0  0  0  0
   57.2850   25.3100   44.8400 C   0  0  0  0  0  0  0  0  0  0  0  0
   58.5560   25.9380   44.9130 N   0  0  0  0  0  0  0  0  0  0  0  0
   58.7900   26.8740   45.7560 C   0  0  0  0  0  0  0  0  0  0  0  0
   58.5380   28.1360   45.3770 N   0  0  0  0  0  0  0  0  0  0  0  0
   58.7520   29.2160   46.1970 C   0  0  0  0  0  0  0  0  0  0  0  0
   58.3460   30.4940   45.6850 C   0  0  0  0  0  0  0  0  0  0  0  0
   59.1870   31.5770   46.0080 C   0  0  0  0  0  0  0  0  0  0  0  0
   58.9640   32.8500   45.6130 C   0  0  0  0  0  0  0  0  0  0  0  0
   57.8540   33.1200   44.8520 C   0  0  0  0  0  0  0  0  0  0  0  0
   57.0250   32.0860   44.5230 C   0  0  0  0  0  0  0  0  0  0  0  0
   57.2460   30.7570   44.9240 C   0  0  0  0  0  0  0  0  0  0  0  0
   56.3740   29.7720   44.3310 C   0  0  0  0  0  0  0  0  0  0  0  0
   55.9140   29.9910   43.1530 O   0  0  0  0  0  0  0  0  0  0  0  0
   55.9600   28.5780   44.8750 O   0  0  0  0  0  0  0  0  0  0  0  0
   59.2330   28.9230   47.4010 N   0  0  0  0  0  0  0  0  0  0  0  0
   59.4950   27.6420   47.8050 C   0  0  0  0  0  0  0  0  0  0  0  0
   59.9580   27.4050   48.9850 N   0  0  0  0  0  0  0  0  0  0  0  0
   59.2730   26.6090   46.9820 N   0  0  0  0  0  0  0  0  0  0  0  0
   56.2700   25.7610   45.6540 C   0  0  0  0  0  0  0  0  0  0  0  0
   55.0230   25.1920   45.6270 C   0  0  0  0  0  0  0  0  0  0  0  0
   54.6980   24.1250   44.7790 C   0  0  0  0  0  0  0  0  0  0  0  0
   53.3600   23.5990   44.8370 C   0  0  0  0  0  0  0  0  0  0  0  0
   53.1640   22.5610   45.5470 O   0  0  0  0  0  0  0  0  0  0  0  0
   52.2200   24.1130   44.1820 N   0  0  0  0  0  0  0  0  0  0  0  0
   50.8930   23.5230   44.2820 C   0  0  0  0  0  0  0  0  0  0  0  0
   50.0080   23.8200   43.1180 C   0  0  0  0  0  0  0  0  0  0  0  0
   50.7190   24.6170   42.1360 N   0  0  0  0  0  0  0  0  0  0  0  0
   50.1790   25.9410   41.9780 C   0  0  0  0  0  0  0  0  0  0  0  0
   50.8120   23.9050   40.8740 C   0  0  0  0  0  0  0  0  0  0  0  0
   57.0997   21.4412   43.5349 H   0  0  0  0  0  0  0  0  0  0  0  0
   56.1709   21.0150   42.0577 H   0  0  0  0  0  0  0  0  0  0  0  0
   57.2483   22.4523   42.0577 H   0  0  0  0  0  0  0  0  0  0  0  0
   57.7717   23.8716   43.3288 H   0  0  0  0  0  0  0  0  0  0  0  0
   60.0792   31.3742   46.6187 H   0  0  0  0  0  0  0  0  0  0  0  0
   59.6588   33.6545   45.8959 H   0  0  0  0  0  0  0  0  0  0  0  0
   57.6375   34.1446   44.5153 H   0  0  0  0  0  0  0  0  0  0  0  0
   56.1371   32.3047   43.9117 H   0  0  0  0  0  0  0  0  0  0  0  0
   56.4920   27.7460   44.6940 H   0  0  0  0  0  0  0  0  0  0  0  0
   59.5030   29.6520   48.0870 H   0  0  0  0  0  0  0  0  0  0  0  0
   60.8250   27.8740   49.2790 H   0  0  0  0  0  0  0  0  0  0  0  0
   59.4690   25.6380   47.2890 H   0  0  0  0  0  0  0  0  0  0  0  0
   56.4642   26.5972   46.3418 H   0  0  0  0  0  0  0  0  0  0  0  0
   54.2467   25.5889   46.2977 H   0  0  0  0  0  0  0  0  0  0  0  0
   52.2970   24.9560   43.5870 H   0  0  0  0  0  0  0  0  0  0  0  0
   51.0047   22.4316   44.3621 H   0  0  0  0  0  0  0  0  0  0  0  0
   50.4136   23.9656   45.1676 H   0  0  0  0  0  0  0  0  0  0  0  0
   49.6875   22.8749   42.6552 H   0  0  0  0  0  0  0  0  0  0  0  0
   49.1311   24.3835   43.4695 H   0  0  0  0  0  0  0  0  0  0  0  0
   49.9984   26.3839   42.9685 H   0  0  0  0  0  0  0  0  0  0  0  0
   50.8945   26.5649   41.4223 H   0  0  0  0  0  0  0  0  0  0  0  0
   49.2312   25.8865   41.4223 H   0  0  0  0  0  0  0  0  0  0  0  0
   50.9522   22.8314   41.0682 H   0  0  0  0  0  0  0  0  0  0  0  0
   49.8865   24.0558   40.2989 H   0  0  0  0  0  0  0  0  0  0  0  0
   51.6677   24.2884   40.2989 H   0  0  0  0  0  0  0  0  0  0  0  0
  1  2  1  0
  2  3  1  0
  3  4  2  0
  4  5  1  0
  5  6  1  0
  6  7  2  0
  7  8  1  0
  8  9  2  0
  9 10  1  0
 10 11  2  0
 11 12  1  0
 12 13  2  0
 13 14  1  0
 14 15  2  0
 15 16  1  0
 16 17  2  0
 16 18  1  0
  9 19  1  0
 19 20  1  0
 20 21  2  3
 20 22  1  0
  5 23  2  0
 23 24  1  0
 24 25  2  0
 25 26  1  0
 26 27  2  0
 26 28  1  0
 28 29  1  0
 29 30  1  0
 30 31  1  0
 31 32  1  0
 31 33  1  0
 25  3  1  0
 22  7  1  0
 15 10  1  0
  1 34  1  0
  1 35  1  0
  1 36  1  0
  4 37  1  0
 11 38  1  0
 12 39  1  0
 13 40  1  0
 14 41  1  0
 18 42  1  0
 19 43  1  0
 21 44  1  0
 22 45  1  0
 23 46  1  0
 24 47  1  0
 28 48  1  0
 29 49  1  0
 29 50  1  0
 30 51  1  0
 30 52  1  0
 32 53  1  0
 32 54  1  0
 32 55  1  0
 33 56  1  0
 33 57  1  0
 33 58  1  0
M  END
>  <smiles>  (47) 
COc1cc(N=c2nc(-c3ccccc3C(=O)O)[nH]c(=N)[nH]2)ccc1C(=O)NCCN(C)C

>  <score_type>  (47) 
oracle

>  <origin>  (47) 
adg

>  <m_score__min__energy>  (47) 
-8.6500000000000004

>  <m_primary>  (47) 
energy

$$$$
47:0
     RDKit          3D

 43 46  0  0  0  0  0  0  0  0999 V2000
   55.8950   28.6030   45.2570 O   0  0  0  0  0  0  0  0  0  0  0  0
   56.5280   29.1280   44.3010 C   0  0  0  0  0  0  0  0  0  0  0  0
   55.8090   30.0460   43.3650 C   0  0  0  0  0  0  0  0  0  0  0  0
   57.0210   30.9270   42.3320 S   0  0  0  0  0  0  0  0  0  0  0  0
   57.5940   31.9520   43.6820 C   0  0  0  0  0  0  0  0  0  0  0  0
   57.2030   31.7530   44.9670 N   0  0  0  0  0  0  0  0  0  0  0  0
   57.8570   32.7260   45.6170 C   0  0  0  0  0  0  0  0  0  0  0  0
   57.8290   33.0070   46.9810 C   0  0  0  0  0  0  0  0  0  0  0  0
   58.6030   34.0900   47.4400 C   0  0  0  0  0  0  0  0  0  0  0  0
   59.3740   34.8530   46.5340 C   0  0  0  0  0  0  0  0  0  0  0  0
   59.3750   34.5390   45.1610 C   0  0  0  0  0  0  0  0  0  0  0  0
   58.5990   33.4610   44.7430 C   0  0  0  0  0  0  0  0  0  0  0  0
   58.4510   32.9890   43.4980 N   0  0  0  0  0  0  0  0  0  0  0  0
   57.9430   28.9270   44.1600 N   0  0  0  0  0  0  0  0  0  0  0  0
   58.6950   27.9460   44.8950 C   0  0  0  0  0  0  0  0  0  0  0  0
   59.9860   28.2630   45.3400 C   0  0  0  0  0  0  0  0  0  0  0  0
   60.7470   27.3180   46.0320 C   0  0  0  0  0  0  0  0  0  0  0  0
   60.2280   26.0450   46.2800 C   0  0  0  0  0  0  0  0  0  0  0  0
   58.9380   25.7090   45.8370 C   0  0  0  0  0  0  0  0  0  0  0  0
   58.3950   24.4310   46.0380 O   0  0  0  0  0  0  0  0  0  0  0  0
   57.8880   23.5950   45.0320 C   0  0  0  0  0  0  0  0  0  0  0  0
   56.8060   23.9800   44.2180 C   0  0  0  0  0  0  0  0  0  0  0  0
   56.3410   23.1260   43.2140 C   0  0  0  0  0  0  0  0  0  0  0  0
   56.9580   21.8890   43.0060 C   0  0  0  0  0  0  0  0  0  0  0  0
   58.0460   21.5100   43.7980 C   0  0  0  0  0  0  0  0  0  0  0  0
   58.5130   22.3630   44.8030 C   0  0  0  0  0  0  0  0  0  0  0  0
   58.1870   26.6540   45.1260 C   0  0  0  0  0  0  0  0  0  0  0  0
   55.1355   29.4605   42.7219 H   0  0  0  0  0  0  0  0  0  0  0  0
   55.2213   30.7740   43.9436 H   0  0  0  0  0  0  0  0  0  0  0  0
   57.2240   32.4046   47.6746 H   0  0  0  0  0  0  0  0  0  0  0  0
   58.6076   34.3438   48.5103 H   0  0  0  0  0  0  0  0  0  0  0  0
   59.9763   35.6963   46.9030 H   0  0  0  0  0  0  0  0  0  0  0  0
   59.9683   35.1251   44.4437 H   0  0  0  0  0  0  0  0  0  0  0  0
   58.4690   29.5940   43.5500 H   0  0  0  0  0  0  0  0  0  0  0  0
   60.4022   29.2620   45.1430 H   0  0  0  0  0  0  0  0  0  0  0  0
   61.7571   27.5767   46.3824 H   0  0  0  0  0  0  0  0  0  0  0  0
   60.8314   25.3033   46.8239 H   0  0  0  0  0  0  0  0  0  0  0  0
   56.3245   24.9569   44.3727 H   0  0  0  0  0  0  0  0  0  0  0  0
   55.4889   23.4275   42.5871 H   0  0  0  0  0  0  0  0  0  0  0  0
   56.5878   21.2144   42.2199 H   0  0  0  0  0  0  0  0  0  0  0  0
   58.5355   20.5393   43.6304 H   0  0  0  0  0  0  0  0  0  0  0  0
   59.3757   22.0646   45.4168 H   0  0  0  0  0  0  0  0  0  0  0  0
   57.1912   26.3837   44.7448 H   0  0  0  0  0  0  0  0  0  0  0  0
  1  2  2  0
  2  3  1  0
  3  4  1  0
  4  5  1  0
  5  6  2  0
  6  7  1  0
  7  8  2  0
  8  9  1  0
  9 10  2  0
 10 11  1  0
 11 12  2  0
 12 13  1  0
  2 14  1  0
 14 15  1  0
 15 16  2  0
 16 17  1  0
 17 18  2  0
 18 19  1  0
 19 20  1  0
 20 21  1  0
 21 22  2  0
 22 23  1  0
 23 24  2  0
 24 25  1  0
 25 26  2  0
 19 27  2  0
 13  5  1  0
 27 15  1  0
 12  7  1  0
 26 21  1  0
  3 28  1  0
  3 29  1  0
  8 30  1  0
  9 31  1  0
 10 32  1  0
 11 33  1  0
 14 34  1  0
 16 35  1  0
 17 36  1  0
 18 37  1  0
 22 38  1  0
 23 39  1  0
 24 40  1  0
 25 41  1  0
 26 42  1  0
 27 43  1  0
M  CHG  1  13  -1
M  END
>  <UniqueID>  (48) 
44

>  <SMILES>  (48) 
O=C(CSc1nc2ccccc2[n-]1)Nc1cccc(Oc2ccccc2)c1

>  <Energy>  (48) 
87.03015900917333

>  <Genealogy>  (48) 
O=C(CSc1nc2ccccc2[n-]1)Nc1cccc(Oc2ccccc2)c1 (protonated)
O=C(CSc1nc2ccccc2[n-]1)Nc1cccc(Oc2ccccc2)c1 (3D coordinates assigned)
O=C(CSc1nc2ccccc2[n-]1)Nc1cccc(Oc2ccccc2)c1 (optimized conformer: 87.03015900917333 kcal/mol)

>  <smiles>  (48) 
O=C(CSc1nc2ccccc2[nH]1)Nc1cccc(Oc2ccccc2)c1

>  <score_type>  (48) 
oracle

>  <origin>  (48) 
adg

>  <m_score__min__energy>  (48) 
-10.44

>  <m_primary>  (48) 
energy

$$$$
48:0
     RDKit          3D

 43 45  0  0  0  0  0  0  0  0999 V2000
   61.7492   34.3088   49.3121 H   0  0  0  0  0  0  0  0  0  0  0  0
   61.1040   34.2520   48.4230 C   0  0  0  0  0  0  0  0  0  0  0  0
   59.7460   34.5790   48.5230 C   0  0  0  0  0  0  0  0  0  0  0  0
   59.3274   34.9024   49.4874 H   0  0  0  0  0  0  0  0  0  0  0  0
   58.9210   34.4940   47.3940 C   0  0  0  0  0  0  0  0  0  0  0  0
   57.8542   34.7499   47.4740 H   0  0  0  0  0  0  0  0  0  0  0  0
   59.4530   34.0820   46.1570 C   0  0  0  0  0  0  0  0  0  0  0  0
   58.5760   34.0430   44.9320 C   0  0  0  0  0  0  0  0  0  0  0  0
   59.1293   34.4517   44.0736 H   0  0  0  0  0  0  0  0  0  0  0  0
   57.6735   34.6455   45.1122 H   0  0  0  0  0  0  0  0  0  0  0  0
   58.1770   32.6310   44.6390 C   0  0  0  0  0  0  0  0  0  0  0  0
   57.8140   31.4610   45.8010 S   0  0  0  0  0  0  0  0  0  0  0  0
   57.6080   30.2480   44.6390 C   0  0  0  0  0  0  0  0  0  0  0  0
   57.2480   29.0200   44.8740 N   0  0  0  0  0  0  0  0  0  0  0  0
   58.0620   27.8800   44.5830 C   0  0  0  0  0  0  0  0  0  0  0  0
   58.7160   27.8550   43.5050 O   0  0  0  0  0  0  0  0  0  0  0  0
   58.2050   26.7420   45.5890 C   0  0  0  0  0  0  0  0  0  0  0  0
   57.2000   25.5860   45.2950 C   0  0  0  0  0  0  0  0  0  0  0  0
   57.7058   24.6285   45.4882 H   0  0  0  0  0  0  0  0  0  0  0  0
   56.8871   25.6910   44.2457 H   0  0  0  0  0  0  0  0  0  0  0  0
   55.9490   25.6420   46.1360 C   0  0  0  0  0  0  0  0  0  0  0  0
   55.6820   24.7090   46.9440 O   0  0  0  0  0  0  0  0  0  0  0  0
   55.0590   26.7070   45.9970 O   0  0  0  0  0  0  0  0  0  0  0  0
   59.6620   26.2090   45.6220 C   0  0  0  0  0  0  0  0  0  0  0  0
   59.6644   25.1093   45.6486 H   0  0  0  0  0  0  0  0  0  0  0  0
   60.2207   26.5191   44.7266 H   0  0  0  0  0  0  0  0  0  0  0  0
   60.2940   26.7670   46.8870 C   0  0  0  0  0  0  0  0  0  0  0  0
   61.0669   26.0848   47.2709 H   0  0  0  0  0  0  0  0  0  0  0  0
   60.7945   27.7319   46.7183 H   0  0  0  0  0  0  0  0  0  0  0  0
   59.1400   26.8740   47.8610 C   0  0  0  0  0  0  0  0  0  0  0  0
   58.9462   25.9027   48.3396 H   0  0  0  0  0  0  0  0  0  0  0  0
   59.3473   27.5878   48.6719 H   0  0  0  0  0  0  0  0  0  0  0  0
   57.9500   27.3000   47.0130 C   0  0  0  0  0  0  0  0  0  0  0  0
   57.0200   26.8811   47.4248 H   0  0  0  0  0  0  0  0  0  0  0  0
   57.8419   28.3946   46.9989 H   0  0  0  0  0  0  0  0  0  0  0  0
   57.8230   30.7130   43.3880 N   0  0  0  0  0  0  0  0  0  0  0  0
   57.7520   30.1280   42.5230 H   0  0  0  0  0  0  0  0  0  0  0  0
   58.1470   32.0360   43.3780 C   0  0  0  0  0  0  0  0  0  0  0  0
   58.3666   32.5889   42.4527 H   0  0  0  0  0  0  0  0  0  0  0  0
   60.8220   33.7760   46.0620 C   0  0  0  0  0  0  0  0  0  0  0  0
   61.2503   33.4750   45.0946 H   0  0  0  0  0  0  0  0  0  0  0  0
   61.6420   33.8530   47.1940 C   0  0  0  0  0  0  0  0  0  0  0  0
   62.7097   33.5998   47.1176 H   0  0  0  0  0  0  0  0  0  0  0  0
  1  2  1  0
  2  3  2  0
  3  4  1  0
  3  5  1  0
  5  6  1  0
  5  7  2  0
  7  8  1  0
  8  9  1  0
  8 10  1  0
  8 11  1  0
 11 12  1  0
 12 13  1  0
 13 14  2  0
 14 15  1  0
 15 16  2  0
 15 17  1  0
 17 18  1  0
 18 19  1  0
 18 20  1  0
 18 21  1  0
 21 22  2  0
 21 23  1  0
 17 24  1  0
 24 25  1  0
 24 26  1  0
 24 27  1  0
 27 28  1  0
 27 29  1  0
 27 30  1  0
 30 31  1  0
 30 32  1  0
 30 33  1  0
 33 34  1  0
 33 35  1  0
 13 36  1  0
 36 37  1  0
 36 38  1  0
 38 39  1  0
  7 40  1  0
 40 41  1  0
 40 42  2  0
 42 43  1  0
 42  2  1  0
 38 11  2  0
 33 17  1  0
M  CHG  1  23  -1
M  END
>  <UniqueID>  (49) 
45

>  <SMILES>  (49) 
O=C([O-])CC1(C(=O)/N=c2/[nH]cc(Cc3ccccc3)s2)CCCC1

>  <Energy>  (49) 
84.50526035741339

>  <Genealogy>  (49) 
O=C([O-])CC1(C(=O)N=c2[nH]cc(Cc3ccccc3)s2)CCCC1 (protonated)
O=C([O-])CC1(C(=O)/N=c2/[nH]cc(Cc3ccccc3)s2)CCCC1 (cis-trans isomerization)
O=C([O-])CC1(C(=O)/N=c2/[nH]cc(Cc3ccccc3)s2)CCCC1 (3D coordinates assigned)
O=C([O-])CC1(C(=O)/N=c2/[nH]cc(Cc3ccccc3)s2)CCCC1 (nonaromatic ring conformer: 84.50526035741339 kcal/mol)

>  <smiles>  (49) 
O=C(O)CC1(C(=O)N=c2[nH]cc(Cc3ccccc3)s2)CCCC1

>  <score_type>  (49) 
oracle

>  <origin>  (49) 
adg

>  <m_score__min__energy>  (49) 
-11.949999999999999

>  <m_primary>  (49) 
energy

$$$$
49:0
     RDKit          3D

 30 31  0  0  0  0  0  0  0  0999 V2000
   55.1490   29.3370   44.8560 N   0  0  0  0  0  0  0  0  0  0  0  0
   56.6950   29.4500   44.0920 S   0  0  0  0  0  0  0  0  0  0  0  0
   57.6600   28.5300   44.7820 O   0  0  0  0  0  0  0  0  0  0  0  0
   56.5800   29.0480   42.6480 O   0  0  0  0  0  0  0  0  0  0  0  0
   57.2870   31.0940   44.1970 C   0  0  0  0  0  0  0  0  0  0  0  0
   58.0500   31.7340   43.2420 C   0  0  0  0  0  0  0  0  0  0  0  0
   58.2950   32.9930   43.7470 C   0  0  0  0  0  0  0  0  0  0  0  0
   57.6710   33.0320   44.9800 C   0  0  0  0  0  0  0  0  0  0  0  0
   57.6620   34.2010   45.9140 C   0  0  0  0  0  0  0  0  0  0  0  0
   59.3390   34.9070   46.1060 S   0  0  0  0  0  0  0  0  0  0  0  0
   59.7530   34.0990   47.6980 C   0  0  0  0  0  0  0  0  0  0  0  0
   60.9970   33.2600   47.5820 C   0  0  0  0  0  0  0  0  0  0  0  0
   62.2670   33.8420   47.7330 C   0  0  0  0  0  0  0  0  0  0  0  0
   63.4200   33.0650   47.5900 C   0  0  0  0  0  0  0  0  0  0  0  0
   63.3140   31.7000   47.3030 C   0  0  0  0  0  0  0  0  0  0  0  0
   62.0550   31.1120   47.1630 C   0  0  0  0  0  0  0  0  0  0  0  0
   60.9000   31.8860   47.3050 C   0  0  0  0  0  0  0  0  0  0  0  0
   57.0670   31.8910   45.2170 O   0  0  0  0  0  0  0  0  0  0  0  0
   55.2460   28.6510   45.6380 H   0  0  0  0  0  0  0  0  0  0  0  0
   58.3912   31.3252   42.2795 H   0  0  0  0  0  0  0  0  0  0  0  0
   58.8686   33.8001   43.2678 H   0  0  0  0  0  0  0  0  0  0  0  0
   56.9905   34.9749   45.5138 H   0  0  0  0  0  0  0  0  0  0  0  0
   57.3138   33.8572   46.8992 H   0  0  0  0  0  0  0  0  0  0  0  0
   59.9144   34.8744   48.4613 H   0  0  0  0  0  0  0  0  0  0  0  0
   58.9174   33.4413   47.9795 H   0  0  0  0  0  0  0  0  0  0  0  0
   62.3542   34.9138   47.9648 H   0  0  0  0  0  0  0  0  0  0  0  0
   64.4117   33.5273   47.7032 H   0  0  0  0  0  0  0  0  0  0  0  0
   64.2220   31.0899   47.1876 H   0  0  0  0  0  0  0  0  0  0  0  0
   61.9723   30.0379   46.9406 H   0  0  0  0  0  0  0  0  0  0  0  0
   59.9105   31.4173   47.1994 H   0  0  0  0  0  0  0  0  0  0  0  0
  1  2  1  0
  2  3  2  0
  2  4  2  0
  2  5  1  0
  5  6  2  0
  6  7  1  0
  7  8  2  0
  8  9  1  0
  9 10  1  0
 10 11  1  0
 11 12  1  0
 12 13  2  0
 13 14  1  0
 14 15  2  0
 15 16  1  0
 16 17  2  0
  8 18  1  0
 18  5  1  0
 17 12  1  0
  1 19  1  0
  6 20  1  0
  7 21  1  0
  9 22  1  0
  9 23  1  0
 11 24  1  0
 11 25  1  0
 13 26  1  0
 14 27  1  0
 15 28  1  0
 16 29  1  0
 17 30  1  0
M  CHG  1   1  -1
M  END
>  <UniqueID>  (50) 
46

>  <SMILES>  (50) 
[NH-]S(=O)(=O)c1ccc(CSCc2ccccc2)o1

>  <Energy>  (50) 
48.10172234514733

>  <Genealogy>  (50) 
[NH-]S(=O)(=O)c1ccc(CSCc2ccccc2)o1 (protonated)
[NH-]S(=O)(=O)c1ccc(CSCc2ccccc2)o1 (3D coordinates assigned)
[NH-]S(=O)(=O)c1ccc(CSCc2ccccc2)o1 (optimized conformer: 48.10172234514733 kcal/mol)

>  <smiles>  (50) 
NS(=O)(=O)c1ccc(CSCc2ccccc2)o1

>  <score_type>  (50) 
oracle

>  <origin>  (50) 
adg

>  <m_score__min__energy>  (50) 
-10.5

>  <m_primary>  (50) 
energy

$$$$
50:0
     RDKit          3D

 44 47  0  0  0  0  0  0  0  0999 V2000
   55.4800   29.2510   45.2160 N   0  0  0  0  0  0  0  0  0  0  0  0
   56.6260   29.9270   44.1110 S   0  0  0  0  0  0  0  0  0  0  0  0
   55.9120   30.4680   42.9060 O   0  0  0  0  0  0  0  0  0  0  0  0
   57.5640   28.8360   43.6720 O   0  0  0  0  0  0  0  0  0  0  0  0
   57.5320   31.2250   44.9080 C   0  0  0  0  0  0  0  0  0  0  0  0
   57.1610   32.5590   44.6700 C   0  0  0  0  0  0  0  0  0  0  0  0
   57.8840   33.6090   45.2420 C   0  0  0  0  0  0  0  0  0  0  0  0
   58.9860   33.3400   46.0530 C   0  0  0  0  0  0  0  0  0  0  0  0
   59.3640   32.0200   46.3040 C   0  0  0  0  0  0  0  0  0  0  0  0
   58.6400   30.9540   45.7470 C   0  0  0  0  0  0  0  0  0  0  0  0
   59.0590   29.5770   46.0650 C   0  0  0  0  0  0  0  0  0  0  0  0
   58.4290   28.8670   47.0960 C   0  0  0  0  0  0  0  0  0  0  0  0
   58.8120   27.5540   47.3820 C   0  0  0  0  0  0  0  0  0  0  0  0
   59.8220   26.9310   46.6290 C   0  0  0  0  0  0  0  0  0  0  0  0
   60.2140   25.5730   46.8740 N   0  0  0  0  0  0  0  0  0  0  0  0
   60.0150   24.4640   45.9860 C   0  0  0  0  0  0  0  0  0  0  0  0
   61.0140   23.7820   45.6370 O   0  0  0  0  0  0  0  0  0  0  0  0
   58.6780   24.1310   45.4400 C   0  0  0  0  0  0  0  0  0  0  0  0
   58.5170   23.0630   44.7010 N   0  0  0  0  0  0  0  0  0  0  0  0
   57.2410   22.6650   44.0870 C   0  0  0  0  0  0  0  0  0  0  0  0
   56.0520   23.3940   44.6580 C   0  0  0  0  0  0  0  0  0  0  0  0
   54.7440   22.9910   44.3720 C   0  0  0  0  0  0  0  0  0  0  0  0
   53.6940   23.7050   44.8540 N   0  0  0  0  0  0  0  0  0  0  0  0
   53.8950   24.8180   45.6080 C   0  0  0  0  0  0  0  0  0  0  0  0
   55.1570   25.2320   45.8880 N   0  0  0  0  0  0  0  0  0  0  0  0
   56.2340   24.5420   45.4280 C   0  0  0  0  0  0  0  0  0  0  0  0
   57.5550   24.9700   45.7470 N   0  0  0  0  0  0  0  0  0  0  0  0
   60.4860   27.6610   45.6350 C   0  0  0  0  0  0  0  0  0  0  0  0
   60.1080   28.9760   45.3510 C   0  0  0  0  0  0  0  0  0  0  0  0
   54.5360   29.3630   44.7850 H   0  0  0  0  0  0  0  0  0  0  0  0
   56.2948   32.7785   44.0285 H   0  0  0  0  0  0  0  0  0  0  0  0
   57.5833   34.6499   45.0522 H   0  0  0  0  0  0  0  0  0  0  0  0
   59.5580   34.1689   46.4954 H   0  0  0  0  0  0  0  0  0  0  0  0
   60.2354   31.8136   46.9428 H   0  0  0  0  0  0  0  0  0  0  0  0
   57.6303   29.3450   47.6821 H   0  0  0  0  0  0  0  0  0  0  0  0
   58.3211   27.0059   48.1997 H   0  0  0  0  0  0  0  0  0  0  0  0
   59.3420   22.4580   44.4860 H   0  0  0  0  0  0  0  0  0  0  0  0
   57.2928   22.8728   43.0080 H   0  0  0  0  0  0  0  0  0  0  0  0
   57.0984   21.5946   44.2964 H   0  0  0  0  0  0  0  0  0  0  0  0
   54.5656   22.0965   43.7572 H   0  0  0  0  0  0  0  0  0  0  0  0
   53.0335   25.3841   45.9919 H   0  0  0  0  0  0  0  0  0  0  0  0
   57.6910   25.8780   46.2470 H   0  0  0  0  0  0  0  0  0  0  0  0
   61.3103   27.1962   45.0743 H   0  0  0  0  0  0  0  0  0  0  0  0
   60.6331   29.5412   44.5669 H   0  0  0  0  0  0  0  0  0  0  0  0
  1  2  1  0
  2  3  2  0
  2  4  2  0
  2  5  1  0
  5  6  2  0
  6  7  1  0
  7  8  2  0
  8  9  1  0
  9 10  2  0
 10 11  1  0
 11 12  2  0
 12 13  1  0
 13 14  2  0
 14 15  1  0
 15 16  1  0
 16 17  2  0
 16 18  1  0
 18 19  2  0
 19 20  1  0
 20 21  1  0
 21 22  2  0
 22 23  1  0
 23 24  2  0
 24 25  1  0
 25 26  2  0
 26 27  1  0
 14 28  1  0
 28 29  2  0
 10  5  1  0
 29 11  1  0
 27 18  1  0
 26 21  1  0
  1 30  1  0
  6 31  1  0
  7 32  1  0
  8 33  1  0
  9 34  1  0
 12 35  1  0
 13 36  1  0
 19 37  1  0
 20 38  1  0
 20 39  1  0
 22 40  1  0
 24 41  1  0
 27 42  1  0
 28 43  1  0
 29 44  1  0
M  CHG  3   1  -1  15  -1  19   1
M  END
>  <UniqueID>  (51) 
47

>  <SMILES>  (51) 
[NH-]S(=O)(=O)c1ccccc1-c1ccc([N-]C(=O)C2=[NH+]Cc3cncnc3N2)cc1

>  <Energy>  (51) 
64.0167945066203

>  <Genealogy>  (51) 
[NH-]S(=O)(=O)c1ccccc1-c1ccc([N-]C(=O)C2=[NH+]Cc3cncnc3N2)cc1 (protonated)
[NH-]S(=O)(=O)c1ccccc1-c1ccc([N-]C(=O)C2=[NH+]Cc3cncnc3N2)cc1 (3D coordinates assigned)
[NH-]S(=O)(=O)c1ccccc1-c1ccc([N-]C(=O)C2=[NH+]Cc3cncnc3N2)cc1 (nonaromatic ring conformer: 64.0167945066203 kcal/mol)

>  <smiles>  (51) 
NS(=O)(=O)c1ccccc1-c1ccc(NC(=O)C2=NCc3cncnc3N2)cc1

>  <score_type>  (51) 
oracle

>  <origin>  (51) 
adg

>  <m_score__min__energy>  (51) 
-10.9

>  <m_primary>  (51) 
energy

$$$$
51:0
     RDKit          3D

 44 47  0  0  0  0  0  0  0  0999 V2000
   58.5280   27.3270   44.0500 O   0  0  0  0  0  0  0  0  0  0  0  0
   57.5530   27.2280   44.8420 C   0  0  0  0  0  0  0  0  0  0  0  0
   56.8600   28.4230   45.2280 N   0  0  0  0  0  0  0  0  0  0  0  0
   57.2820   29.7680   44.9660 C   0  0  0  0  0  0  0  0  0  0  0  0
   57.0030   30.4040   43.7430 C   0  0  0  0  0  0  0  0  0  0  0  0
   57.4220   31.7180   43.5180 C   0  0  0  0  0  0  0  0  0  0  0  0
   58.1100   32.4210   44.5160 C   0  0  0  0  0  0  0  0  0  0  0  0
   58.5280   33.7020   44.3020 N   0  0  0  0  0  0  0  0  0  0  0  0
   59.1960   34.4030   45.2580 C   0  0  0  0  0  0  0  0  0  0  0  0
   59.4680   33.8240   46.5050 C   0  0  0  0  0  0  0  0  0  0  0  0
   60.2400   34.5910   47.5450 C   0  0  0  0  0  0  0  0  0  0  0  0
   61.5950   34.0540   47.6600 N   0  0  0  0  0  0  0  0  0  0  0  0
   62.4210   33.6560   46.5360 C   0  0  0  0  0  0  0  0  0  0  0  0
   63.7420   33.1370   47.1410 C   0  0  0  0  0  0  0  0  0  0  0  0
   63.6750   33.3640   48.6610 C   0  0  0  0  0  0  0  0  0  0  0  0
   62.3170   33.9010   48.8660 C   0  0  0  0  0  0  0  0  0  0  0  0
   61.8480   34.2080   49.9950 O   0  0  0  0  0  0  0  0  0  0  0  0
   59.0530   32.5080   46.7480 C   0  0  0  0  0  0  0  0  0  0  0  0
   58.3690   31.7960   45.7560 C   0  0  0  0  0  0  0  0  0  0  0  0
   57.9470   30.4750   45.9750 C   0  0  0  0  0  0  0  0  0  0  0  0
   57.1110   25.8830   45.2940 C   0  0  0  0  0  0  0  0  0  0  0  0
   57.9270   24.7600   45.0710 C   0  0  0  0  0  0  0  0  0  0  0  0
   57.5140   23.4960   45.4950 C   0  0  0  0  0  0  0  0  0  0  0  0
   58.5270   22.0920   45.2090 Cl  0  0  0  0  0  0  0  0  0  0  0  0
   56.2910   23.3610   46.1530 C   0  0  0  0  0  0  0  0  0  0  0  0
   55.5140   24.4540   46.3740 N   0  0  0  0  0  0  0  0  0  0  0  0
   55.8870   25.6980   45.9690 C   0  0  0  0  0  0  0  0  0  0  0  0
   55.1180   26.6700   46.1930 O   0  0  0  0  0  0  0  0  0  0  0  0
   56.4518   29.8640   42.9591 H   0  0  0  0  0  0  0  0  0  0  0  0
   57.2108   32.2026   42.5533 H   0  0  0  0  0  0  0  0  0  0  0  0
   58.3400   34.1680   43.3850 H   0  0  0  0  0  0  0  0  0  0  0  0
   59.5250   35.4319   45.0505 H   0  0  0  0  0  0  0  0  0  0  0  0
   60.2917   35.6502   47.2526 H   0  0  0  0  0  0  0  0  0  0  0  0
   59.7307   34.4959   48.5153 H   0  0  0  0  0  0  0  0  0  0  0  0
   61.9255   32.8601   45.9606 H   0  0  0  0  0  0  0  0  0  0  0  0
   62.5960   34.4959   45.8475 H   0  0  0  0  0  0  0  0  0  0  0  0
   63.8576   32.0644   46.9262 H   0  0  0  0  0  0  0  0  0  0  0  0
   64.6019   33.6685   46.7074 H   0  0  0  0  0  0  0  0  0  0  0  0
   63.8111   32.4186   49.2067 H   0  0  0  0  0  0  0  0  0  0  0  0
   64.4633   34.0364   49.0303 H   0  0  0  0  0  0  0  0  0  0  0  0
   59.2647   32.0346   47.7181 H   0  0  0  0  0  0  0  0  0  0  0  0
   58.1399   29.9928   46.9447 H   0  0  0  0  0  0  0  0  0  0  0  0
   58.8943   24.8780   44.5606 H   0  0  0  0  0  0  0  0  0  0  0  0
   55.9557   22.3700   46.4929 H   0  0  0  0  0  0  0  0  0  0  0  0
  1  2  2  0
  2  3  1  0
  3  4  1  0
  4  5  2  0
  5  6  1  0
  6  7  2  0
  7  8  1  0
  8  9  2  0
  9 10  1  0
 10 11  1  0
 11 12  1  0
 12 13  1  0
 13 14  1  0
 14 15  1  0
 15 16  1  0
 16 17  2  0
 10 18  2  0
 18 19  1  0
 19 20  2  0
  2 21  1  0
 21 22  2  0
 22 23  1  0
 23 24  1  0
 23 25  2  0
 25 26  1  0
 26 27  1  0
 27 28  2  0
 20  4  1  0
 27 21  1  0
 19  7  1  0
 16 12  1  0
  5 29  1  0
  6 30  1  0
  8 31  1  0
  9 32  1  0
 11 33  1  0
 11 34  1  0
 13 35  1  0
 13 36  1  0
 14 37  1  0
 14 38  1  0
 15 39  1  0
 15 40  1  0
 18 41  1  0
 20 42  1  0
 22 43  1  0
 25 44  1  0
M  CHG  3   3  -1   8   1  26  -1
M  END
>  <UniqueID>  (52) 
48

>  <SMILES>  (52) 
O=C([N-]c1ccc2[nH+]cc(CN3CCCC3=O)cc2c1)c1cc(Cl)c[n-]c1=O

>  <Energy>  (52) 
63.11092324566295

>  <Genealogy>  (52) 
O=C([N-]c1ccc2[nH+]cc(CN3CCCC3=O)cc2c1)c1cc(Cl)c[n-]c1=O (protonated)
O=C([N-]c1ccc2[nH+]cc(CN3CCCC3=O)cc2c1)c1cc(Cl)c[n-]c1=O (3D coordinates assigned)
O=C([N-]c1ccc2[nH+]cc(CN3CCCC3=O)cc2c1)c1cc(Cl)c[n-]c1=O (nonaromatic ring conformer: 63.11092324566295 kcal/mol)

>  <smiles>  (52) 
O=C(Nc1ccc2ncc(CN3CCCC3=O)cc2c1)c1cc(Cl)c[nH]c1=O

>  <score_type>  (52) 
oracle

>  <origin>  (52) 
adg

>  <m_score__min__energy>  (52) 
-11.289999999999999

>  <m_primary>  (52) 
energy

$$$$
52:0
     RDKit          3D

 44 46  0  0  0  0  0  0  0  0999 V2000
   58.4700   34.5990   44.9470 N   0  0  0  0  0  0  0  0  0  0  0  0
   58.0180   33.4310   44.6920 C   0  0  0  0  0  0  0  0  0  0  0  0
   58.1480   33.0210   43.3590 C   0  0  0  0  0  0  0  0  0  0  0  0
   57.6830   31.7550   42.9970 C   0  0  0  0  0  0  0  0  0  0  0  0
   57.1230   30.9960   44.0020 C   0  0  0  0  0  0  0  0  0  0  0  0
   56.4790   29.3890   43.7530 S   0  0  0  0  0  0  0  0  0  0  0  0
   55.0430   29.3740   44.2170 O   0  0  0  0  0  0  0  0  0  0  0  0
   56.4530   29.1460   42.2450 O   0  0  0  0  0  0  0  0  0  0  0  0
   57.3790   28.1390   44.4390 N   0  0  0  0  0  0  0  0  0  0  0  0
   58.3810   28.2400   45.4360 C   0  0  0  0  0  0  0  0  0  0  0  0
   59.2070   27.1870   45.7490 C   0  0  0  0  0  0  0  0  0  0  0  0
   60.2170   27.2540   46.6790 C   0  0  0  0  0  0  0  0  0  0  0  0
   60.3750   28.4840   47.3170 C   0  0  0  0  0  0  0  0  0  0  0  0
   59.5980   29.5830   47.0700 C   0  0  0  0  0  0  0  0  0  0  0  0
   59.7500   30.8810   47.6830 C   0  0  0  0  0  0  0  0  0  0  0  0
   58.6210   31.5420   47.8070 O   0  0  0  0  0  0  0  0  0  0  0  0
   60.8480   31.5580   48.1570 N   0  0  0  0  0  0  0  0  0  0  0  0
   60.5670   32.9290   48.7060 C   0  0  0  0  0  0  0  0  0  0  0  0
   61.2550   33.8990   47.7710 C   0  0  0  0  0  0  0  0  0  0  0  0
   62.2170   33.2970   46.8190 C   0  0  0  0  0  0  0  0  0  0  0  0
   63.0540   32.1570   47.3240 C   0  0  0  0  0  0  0  0  0  0  0  0
   62.2440   31.2190   48.2160 C   0  0  0  0  0  0  0  0  0  0  0  0
   58.5910   29.4200   46.1040 C   0  0  0  0  0  0  0  0  0  0  0  0
   57.0300   31.4680   45.2860 N   0  0  0  0  0  0  0  0  0  0  0  0
   57.4670   32.6650   45.6360 N   0  0  0  0  0  0  0  0  0  0  0  0
   59.4720   34.8570   45.0040 H   0  0  0  0  0  0  0  0  0  0  0  0
   58.6078   33.6839   42.6112 H   0  0  0  0  0  0  0  0  0  0  0  0
   57.7596   31.3832   41.9646 H   0  0  0  0  0  0  0  0  0  0  0  0
   57.1890   27.1480   44.0980 H   0  0  0  0  0  0  0  0  0  0  0  0
   59.0504   26.2333   45.2237 H   0  0  0  0  0  0  0  0  0  0  0  0
   60.8605   26.3912   46.9059 H   0  0  0  0  0  0  0  0  0  0  0  0
   61.1750   28.5766   48.0663 H   0  0  0  0  0  0  0  0  0  0  0  0
   59.4837   33.1189   48.7250 H   0  0  0  0  0  0  0  0  0  0  0  0
   60.9335   33.0338   49.7378 H   0  0  0  0  0  0  0  0  0  0  0  0
   60.4785   34.4146   47.1869 H   0  0  0  0  0  0  0  0  0  0  0  0
   61.8461   34.5683   48.4134 H   0  0  0  0  0  0  0  0  0  0  0  0
   61.6433   32.9301   45.9552 H   0  0  0  0  0  0  0  0  0  0  0  0
   62.9345   34.0994   46.5926 H   0  0  0  0  0  0  0  0  0  0  0  0
   63.4393   31.5886   46.4647 H   0  0  0  0  0  0  0  0  0  0  0  0
   63.8791   32.5731   47.9207 H   0  0  0  0  0  0  0  0  0  0  0  0
   62.3809   30.1830   47.8725 H   0  0  0  0  0  0  0  0  0  0  0  0
   62.5939   31.3206   49.2539 H   0  0  0  0  0  0  0  0  0  0  0  0
   57.9415   30.2771   45.8727 H   0  0  0  0  0  0  0  0  0  0  0  0
   57.3670   32.9760   46.6440 H   0  0  0  0  0  0  0  0  0  0  0  0
  1  2  2  3
  2  3  1  0
  3  4  2  0
  4  5  1  0
  5  6  1  0
  6  7  2  0
  6  8  2  0
  6  9  1  0
  9 10  1  0
 10 11  2  0
 11 12  1  0
 12 13  2  0
 13 14  1  0
 14 15  1  0
 15 16  2  0
 15 17  1  0
 17 18  1  0
 18 19  1  0
 19 20  1  0
 20 21  1  0
 21 22  1  0
 14 23  2  0
  5 24  2  0
 24 25  1  0
 25  2  1  0
 23 10  1  0
 22 17  1  0
  1 26  1  0
  3 27  1  0
  4 28  1  0
  9 29  1  0
 11 30  1  0
 12 31  1  0
 13 32  1  0
 18 33  1  0
 18 34  1  0
 19 35  1  0
 19 36  1  0
 20 37  1  0
 20 38  1  0
 21 39  1  0
 21 40  1  0
 22 41  1  0
 22 42  1  0
 23 43  1  0
 25 44  1  0
M  END
>  <smiles>  (53) 
N=c1ccc(S(=O)(=O)Nc2cccc(C(=O)N3CCCCC3)c2)n[nH]1

>  <score_type>  (53) 
oracle

>  <origin>  (53) 
adg

>  <m_score__min__energy>  (53) 
-10.25

>  <m_primary>  (53) 
energy

$$$$
53:0
     RDKit          3D

 41 43  0  0  0  0  0  0  0  0999 V2000
   55.0157   23.2335   47.4099 H   0  0  0  0  0  0  0  0  0  0  0  0
   55.5730   23.8590   46.6970 C   0  0  0  0  0  0  0  0  0  0  0  0
   55.5260   25.2170   46.7260 N   0  0  0  0  0  0  0  0  0  0  0  0
   56.2920   25.7590   45.7520 C   0  0  0  0  0  0  0  0  0  0  0  0
   56.4180   27.0350   45.5410 N   0  0  0  0  0  0  0  0  0  0  0  0
   57.5630   27.6940   44.9730 C   0  0  0  0  0  0  0  0  0  0  0  0
   57.7550   27.6840   43.7270 O   0  0  0  0  0  0  0  0  0  0  0  0
   58.5000   28.4370   45.8490 C   0  0  0  0  0  0  0  0  0  0  0  0
   59.4110   27.7090   46.6360 C   0  0  0  0  0  0  0  0  0  0  0  0
   59.3709   26.6097   46.6380 H   0  0  0  0  0  0  0  0  0  0  0  0
   60.3660   28.3670   47.4150 C   0  0  0  0  0  0  0  0  0  0  0  0
   61.0734   27.7850   48.0239 H   0  0  0  0  0  0  0  0  0  0  0  0
   60.4240   29.7590   47.4220 C   0  0  0  0  0  0  0  0  0  0  0  0
   61.1857   30.2739   48.0258 H   0  0  0  0  0  0  0  0  0  0  0  0
   59.5170   30.5010   46.6640 C   0  0  0  0  0  0  0  0  0  0  0  0
   59.5677   31.5998   46.6736 H   0  0  0  0  0  0  0  0  0  0  0  0
   58.5400   29.8550   45.8890 C   0  0  0  0  0  0  0  0  0  0  0  0
   57.5430   30.6940   45.1930 C   0  0  0  0  0  0  0  0  0  0  0  0
   56.3500   30.2900   45.1340 O   0  0  0  0  0  0  0  0  0  0  0  0
   57.9210   31.9270   44.5490 N   0  0  0  0  0  0  0  0  0  0  0  0
   58.1440   31.9620   43.1010 C   0  0  0  0  0  0  0  0  0  0  0  0
   59.2121   32.1296   42.8985 H   0  0  0  0  0  0  0  0  0  0  0  0
   57.8329   31.0040   42.6588 H   0  0  0  0  0  0  0  0  0  0  0  0
   57.5544   32.7786   42.6588 H   0  0  0  0  0  0  0  0  0  0  0  0
   57.8870   33.4150   45.4540 S   0  0  0  0  0  0  0  0  0  0  0  0
   56.6590   33.4570   46.3190 O   0  0  0  0  0  0  0  0  0  0  0  0
   57.8420   34.5650   44.4860 O   0  0  0  0  0  0  0  0  0  0  0  0
   59.2990   33.5610   46.5050 C   0  0  0  0  0  0  0  0  0  0  0  0
   60.5560   33.8680   45.9610 C   0  0  0  0  0  0  0  0  0  0  0  0
   60.6624   34.0171   44.8764 H   0  0  0  0  0  0  0  0  0  0  0  0
   61.6740   33.9850   46.7940 C   0  0  0  0  0  0  0  0  0  0  0  0
   62.6574   34.2245   46.3631 H   0  0  0  0  0  0  0  0  0  0  0  0
   61.5430   33.7980   48.1730 C   0  0  0  0  0  0  0  0  0  0  0  0
   62.6270   33.9110   48.9780 F   0  0  0  0  0  0  0  0  0  0  0  0
   60.2930   33.4930   48.7200 C   0  0  0  0  0  0  0  0  0  0  0  0
   60.1900   33.3463   49.8053 H   0  0  0  0  0  0  0  0  0  0  0  0
   59.1740   33.3740   47.8910 C   0  0  0  0  0  0  0  0  0  0  0  0
   57.9720   33.0700   48.4410 F   0  0  0  0  0  0  0  0  0  0  0  0
   57.0520   24.5870   44.8240 S   0  0  0  0  0  0  0  0  0  0  0  0
   56.3780   23.3180   45.6990 C   0  0  0  0  0  0  0  0  0  0  0  0
   56.5447   22.2465   45.5143 H   0  0  0  0  0  0  0  0  0  0  0  0
  1  2  1  0
  2  3  1  0
  3  4  1  0
  4  5  2  0
  5  6  1  0
  6  7  2  0
  6  8  1  0
  8  9  2  0
  9 10  1  0
  9 11  1  0
 11 12  1  0
 11 13  2  0
 13 14  1  0
 13 15  1  0
 15 16  1  0
 15 17  2  0
 17 18  1  0
 18 19  2  0
 18 20  1  0
 20 21  1  0
 21 22  1  0
 21 23  1  0
 21 24  1  0
 20 25  1  0
 25 26  2  0
 25 27  2  0
 25 28  1  0
 28 29  2  0
 29 30  1  0
 29 31  1  0
 31 32  1  0
 31 33  2  0
 33 34  1  0
 33 35  1  0
 35 36  1  0
 35 37  2  0
 37 38  1  0
  4 39  1  0
 39 40  1  0
 40 41  1  0
 40  2  2  0
 17  8  1  0
 37 28  1  0
M  CHG  1   3  -1
M  END
>  <UniqueID>  (54) 
49

>  <SMILES>  (54) 
CN(C(=O)c1ccccc1C(=O)/N=c1\[n-]ccs1)S(=O)(=O)c1ccc(F)cc1F

>  <Energy>  (54) 
86.12040566042776

>  <Genealogy>  (54) 
CN(C(=O)c1ccccc1C(=O)N=c1[n-]ccs1)S(=O)(=O)c1ccc(F)cc1F (protonated)
CN(C(=O)c1ccccc1C(=O)/N=c1\[n-]ccs1)S(=O)(=O)c1ccc(F)cc1F (cis-trans isomerization)
CN(C(=O)c1ccccc1C(=O)/N=c1\[n-]ccs1)S(=O)(=O)c1ccc(F)cc1F (3D coordinates assigned)
CN(C(=O)c1ccccc1C(=O)/N=c1\[n-]ccs1)S(=O)(=O)c1ccc(F)cc1F (optimized conformer: 86.12040566042776 kcal/mol)

>  <smiles>  (54) 
CN(C(=O)c1ccccc1C(=O)N=c1[nH]ccs1)S(=O)(=O)c1ccc(F)cc1F

>  <score_type>  (54) 
oracle

>  <origin>  (54) 
adg

>  <m_score__min__energy>  (54) 
-10.23

>  <m_primary>  (54) 
energy

$$$$
54:0
     RDKit          3D

 32 34  0  0  0  0  0  0  0  0999 V2000
   54.8530   29.3560   44.2840 N   0  0  0  0  0  0  0  0  0  0  0  0
   56.5650   29.4030   44.5180 S   0  0  0  0  0  0  0  0  0  0  0  0
   57.2380   29.2880   43.1790 O   0  0  0  0  0  0  0  0  0  0  0  0
   56.9340   30.7140   45.1550 O   0  0  0  0  0  0  0  0  0  0  0  0
   57.0940   28.0780   45.5610 C   0  0  0  0  0  0  0  0  0  0  0  0
   56.2960   26.9180   45.6720 C   0  0  0  0  0  0  0  0  0  0  0  0
   56.7470   25.8890   46.4900 C   0  0  0  0  0  0  0  0  0  0  0  0
   56.1470   24.7150   46.7340 N   0  0  0  0  0  0  0  0  0  0  0  0
   57.0190   24.1260   47.5920 C   0  0  0  0  0  0  0  0  0  0  0  0
   56.8210   22.9800   48.0750 O   0  0  0  0  0  0  0  0  0  0  0  0
   58.1200   24.8600   47.8950 N   0  0  0  0  0  0  0  0  0  0  0  0
   57.9160   25.9760   47.1770 C   0  0  0  0  0  0  0  0  0  0  0  0
   58.7330   27.0980   47.1060 C   0  0  0  0  0  0  0  0  0  0  0  0
   58.3190   28.1730   46.2830 C   0  0  0  0  0  0  0  0  0  0  0  0
   59.1100   29.3660   46.1650 N   0  0  0  0  0  0  0  0  0  0  0  0
   59.5640   30.3990   47.4800 S   0  0  0  0  0  0  0  0  0  0  0  0
   60.9660   30.0650   47.9090 O   0  0  0  0  0  0  0  0  0  0  0  0
   58.6300   30.1680   48.6340 O   0  0  0  0  0  0  0  0  0  0  0  0
   59.4480   32.0840   46.9820 C   0  0  0  0  0  0  0  0  0  0  0  0
   60.6050   32.8430   46.7560 C   0  0  0  0  0  0  0  0  0  0  0  0
   60.5030   34.1770   46.3490 C   0  0  0  0  0  0  0  0  0  0  0  0
   59.2450   34.7590   46.1680 C   0  0  0  0  0  0  0  0  0  0  0  0
   58.0870   34.0080   46.3960 C   0  0  0  0  0  0  0  0  0  0  0  0
   58.1880   32.6730   46.8040 C   0  0  0  0  0  0  0  0  0  0  0  0
   54.4150   29.3360   45.2330 H   0  0  0  0  0  0  0  0  0  0  0  0
   55.3447   26.8315   45.1266 H   0  0  0  0  0  0  0  0  0  0  0  0
   59.6742   27.1493   47.6729 H   0  0  0  0  0  0  0  0  0  0  0  0
   61.5961   32.3877   46.8993 H   0  0  0  0  0  0  0  0  0  0  0  0
   61.4131   34.7686   46.1712 H   0  0  0  0  0  0  0  0  0  0  0  0
   59.1656   35.8079   45.8462 H   0  0  0  0  0  0  0  0  0  0  0  0
   57.0972   34.4666   46.2546 H   0  0  0  0  0  0  0  0  0  0  0  0
   57.2767   32.0844   46.9855 H   0  0  0  0  0  0  0  0  0  0  0  0
  1  2  1  0
  2  3  2  0
  2  4  2  0
  2  5  1  0
  5  6  2  0
  6  7  1  0
  7  8  1  0
  8  9  1  0
  9 10  2  0
  9 11  1  0
 11 12  1  0
 12 13  1  0
 13 14  2  0
 14 15  1  0
 15 16  1  0
 16 17  2  0
 16 18  2  0
 16 19  1  0
 19 20  2  0
 20 21  1  0
 21 22  2  0
 22 23  1  0
 23 24  2  0
 14  5  1  0
 24 19  1  0
 12  7  2  0
  1 25  1  0
  6 26  1  0
 13 27  1  0
 20 28  1  0
 21 29  1  0
 22 30  1  0
 23 31  1  0
 24 32  1  0
M  CHG  4   1  -1   8  -1  11  -1  15  -1
M  END
>  <UniqueID>  (55) 
50

>  <SMILES>  (55) 
[NH-]S(=O)(=O)c1cc2[n-]c(=O)[n-]c2cc1[N-]S(=O)(=O)c1ccccc1

>  <Energy>  (55) 
73.48912128942368

>  <Genealogy>  (55) 
[NH-]S(=O)(=O)c1cc2[n-]c(=O)[n-]c2cc1[N-]S(=O)(=O)c1ccccc1 (protonated)
[NH-]S(=O)(=O)c1cc2[n-]c(=O)[n-]c2cc1[N-]S(=O)(=O)c1ccccc1 (3D coordinates assigned)
[NH-]S(=O)(=O)c1cc2[n-]c(=O)[n-]c2cc1[N-]S(=O)(=O)c1ccccc1 (optimized conformer: 73.48912128942368 kcal/mol)

>  <smiles>  (55) 
NS(=O)(=O)c1cc2[nH]c(=O)[nH]c2cc1NS(=O)(=O)c1ccccc1

>  <score_type>  (55) 
oracle

>  <origin>  (55) 
adg

>  <m_score__min__energy>  (55) 
-14.460000000000001

>  <m_primary>  (55) 
energy

$$$$
55:0
     RDKit          3D

 60 63  0  0  0  0  0  0  0  0999 V2000
   57.7130   26.5470   46.9310 C   0  0  0  0  0  0  0  0  0  0  0  0
   57.7350   26.3290   45.4430 C   0  0  0  0  0  0  0  0  0  0  0  0
   57.2460   25.1260   44.9070 C   0  0  0  0  0  0  0  0  0  0  0  0
   57.2570   24.9080   43.5230 C   0  0  0  0  0  0  0  0  0  0  0  0
   56.7790   23.7130   42.9900 O   0  0  0  0  0  0  0  0  0  0  0  0
   57.7570   25.8940   42.6690 C   0  0  0  0  0  0  0  0  0  0  0  0
   58.2470   27.0930   43.1900 C   0  0  0  0  0  0  0  0  0  0  0  0
   58.2330   27.3240   44.5720 C   0  0  0  0  0  0  0  0  0  0  0  0
   58.7740   28.5970   45.0880 C   0  0  0  0  0  0  0  0  0  0  0  0
   60.0990   28.6020   45.5510 C   0  0  0  0  0  0  0  0  0  0  0  0
   60.6470   29.7490   46.1210 C   0  0  0  0  0  0  0  0  0  0  0  0
   59.8810   30.9080   46.2480 C   0  0  0  0  0  0  0  0  0  0  0  0
   60.4710   32.0680   46.8410 N   0  0  0  0  0  0  0  0  0  0  0  0
   60.9420   32.1880   48.5080 S   0  0  0  0  0  0  0  0  0  0  0  0
   61.5230   33.5520   48.7470 O   0  0  0  0  0  0  0  0  0  0  0  0
   62.0020   31.1610   48.7930 O   0  0  0  0  0  0  0  0  0  0  0  0
   59.5930   31.9390   49.6150 C   0  0  0  0  0  0  0  0  0  0  0  0
   58.9110   30.7130   49.6290 C   0  0  0  0  0  0  0  0  0  0  0  0
   57.8250   30.5220   50.4880 C   0  0  0  0  0  0  0  0  0  0  0  0
   57.3990   31.5550   51.3370 C   0  0  0  0  0  0  0  0  0  0  0  0
   56.2930   31.3300   52.2270 N   0  0  0  0  0  0  0  0  0  0  0  0
   55.7900   30.0250   52.5580 C   0  0  0  0  0  0  0  0  0  0  0  0
   56.5310   29.0130   52.4270 O   0  0  0  0  0  0  0  0  0  0  0  0
   54.4720   29.8580   53.1000 N   0  0  0  0  0  0  0  0  0  0  0  0
   53.4110   30.8090   52.9120 C   0  0  0  0  0  0  0  0  0  0  0  0
   53.4690   31.6270   51.9550 O   0  0  0  0  0  0  0  0  0  0  0  0
   52.2230   30.8060   53.7970 C   0  0  0  0  0  0  0  0  0  0  0  0
   51.0580   31.4970   53.4190 C   0  0  0  0  0  0  0  0  0  0  0  0
   49.9360   31.5010   54.2510 C   0  0  0  0  0  0  0  0  0  0  0  0
   49.9640   30.8210   55.4710 C   0  0  0  0  0  0  0  0  0  0  0  0
   51.1150   30.1390   55.8620 C   0  0  0  0  0  0  0  0  0  0  0  0
   52.2420   30.1330   55.0330 C   0  0  0  0  0  0  0  0  0  0  0  0
   58.0960   32.7770   51.3310 C   0  0  0  0  0  0  0  0  0  0  0  0
   59.1820   32.9680   50.4710 C   0  0  0  0  0  0  0  0  0  0  0  0
   58.5780   30.9340   45.7350 C   0  0  0  0  0  0  0  0  0  0  0  0
   57.9980   29.7850   45.1660 C   0  0  0  0  0  0  0  0  0  0  0  0
   56.5980   29.8690   44.6730 C   0  0  0  0  0  0  0  0  0  0  0  0
   56.2750   30.6680   43.7580 O   0  0  0  0  0  0  0  0  0  0  0  0
   55.6100   29.0650   45.2290 O   0  0  0  0  0  0  0  0  0  0  0  0
   57.8107   25.5793   47.4448 H   0  0  0  0  0  0  0  0  0  0  0  0
   58.5497   27.2007   47.2182 H   0  0  0  0  0  0  0  0  0  0  0  0
   56.7625   27.0204   47.2182 H   0  0  0  0  0  0  0  0  0  0  0  0
   56.8516   24.3495   45.5789 H   0  0  0  0  0  0  0  0  0  0  0  0
   56.6890   23.5760   41.9890 H   0  0  0  0  0  0  0  0  0  0  0  0
   57.7647   25.7251   41.5821 H   0  0  0  0  0  0  0  0  0  0  0  0
   58.6465   27.8611   42.5114 H   0  0  0  0  0  0  0  0  0  0  0  0
   60.7104   27.6918   45.4630 H   0  0  0  0  0  0  0  0  0  0  0  0
   61.6892   29.7407   46.4728 H   0  0  0  0  0  0  0  0  0  0  0  0
   59.2320   29.8995   48.9618 H   0  0  0  0  0  0  0  0  0  0  0  0
   57.3006   29.5551   50.4986 H   0  0  0  0  0  0  0  0  0  0  0  0
   55.8810   32.1530   52.7230 H   0  0  0  0  0  0  0  0  0  0  0  0
   54.2440   28.9370   53.5430 H   0  0  0  0  0  0  0  0  0  0  0  0
   51.0301   32.0380   52.4616 H   0  0  0  0  0  0  0  0  0  0  0  0
   49.0279   32.0410   53.9447 H   0  0  0  0  0  0  0  0  0  0  0  0
   49.0780   30.8238   56.1229 H   0  0  0  0  0  0  0  0  0  0  0  0
   51.1373   29.6049   56.8234 H   0  0  0  0  0  0  0  0  0  0  0  0
   53.1497   29.5983   55.3496 H   0  0  0  0  0  0  0  0  0  0  0  0
   57.7848   33.5872   52.0069 H   0  0  0  0  0  0  0  0  0  0  0  0
   59.7153   33.9301   50.4670 H   0  0  0  0  0  0  0  0  0  0  0  0
   57.9984   31.8680   45.7776 H   0  0  0  0  0  0  0  0  0  0  0  0
  1  2  1  0
  2  3  2  0
  3  4  1  0
  4  5  1  0
  4  6  2  0
  6  7  1  0
  7  8  2  0
  8  9  1  0
  9 10  2  0
 10 11  1  0
 11 12  2  0
 12 13  1  0
 13 14  1  0
 14 15  2  0
 14 16  2  0
 14 17  1  0
 17 18  2  0
 18 19  1  0
 19 20  2  0
 20 21  1  0
 21 22  1  0
 22 23  2  0
 22 24  1  0
 24 25  1  0
 25 26  2  0
 25 27  1  0
 27 28  2  0
 28 29  1  0
 29 30  2  0
 30 31  1  0
 31 32  2  0
 20 33  1  0
 33 34  2  0
 12 35  1  0
 35 36  2  0
 36 37  1  0
 37 38  2  0
 37 39  1  0
  8  2  1  0
 36  9  1  0
 34 17  1  0
 32 27  1  0
  1 40  1  0
  1 41  1  0
  1 42  1  0
  3 43  1  0
  5 44  1  0
  6 45  1  0
  7 46  1  0
 10 47  1  0
 11 48  1  0
 18 49  1  0
 19 50  1  0
 21 51  1  0
 24 52  1  0
 28 53  1  0
 29 54  1  0
 30 55  1  0
 31 56  1  0
 32 57  1  0
 33 58  1  0
 34 59  1  0
 35 60  1  0
M  CHG  2  13  -1  39  -1
M  END
>  <UniqueID>  (56) 
51

>  <SMILES>  (56) 
Cc1cc(O)ccc1-c1ccc([N-]S(=O)(=O)c2ccc(NC(=O)NC(=O)c3ccccc3)cc2)cc1C(=O)[O-]

>  <Energy>  (56) 
90.12064565876268

>  <Genealogy>  (56) 
Cc1cc(O)ccc1-c1ccc([N-]S(=O)(=O)c2ccc(NC(=O)NC(=O)c3ccccc3)cc2)cc1C(=O)[O-] (protonated)
Cc1cc(O)ccc1-c1ccc([N-]S(=O)(=O)c2ccc(NC(=O)NC(=O)c3ccccc3)cc2)cc1C(=O)[O-] (3D coordinates assigned)
Cc1cc(O)ccc1-c1ccc([N-]S(=O)(=O)c2ccc(NC(=O)NC(=O)c3ccccc3)cc2)cc1C(=O)[O-] (optimized conformer: 90.12064565876268 kcal/mol)

>  <smiles>  (56) 
Cc1cc(O)ccc1-c1ccc(NS(=O)(=O)c2ccc(NC(=O)NC(=O)c3ccccc3)cc2)cc1C(=O)O

>  <score_type>  (56) 
oracle

>  <origin>  (56) 
adg

>  <m_score__min__energy>  (56) 
-14.029999999999999

>  <m_primary>  (56) 
energy

$$$$
56:0
     RDKit          3D

 44 46  0  0  0  0  0  0  0  0999 V2000
   56.5470   29.8560   42.6520 C   0  0  0  0  0  0  0  0  0  0  0  0
   55.4680   29.6800   43.7150 C   0  0  0  0  0  0  0  0  0  0  0  0
   56.0400   29.3650   44.9870 O   0  0  0  0  0  0  0  0  0  0  0  0
   57.3130   29.7650   45.4290 C   0  0  0  0  0  0  0  0  0  0  0  0
   58.3230   28.8560   45.7950 C   0  0  0  0  0  0  0  0  0  0  0  0
   58.0810   27.4460   45.8900 N   0  0  0  0  0  0  0  0  0  0  0  0
   57.0300   26.9390   46.7810 C   0  0  0  0  0  0  0  0  0  0  0  0
   56.0900   26.0180   45.9990 C   0  0  0  0  0  0  0  0  0  0  0  0
   56.8380   24.8980   45.2400 C   0  0  0  0  0  0  0  0  0  0  0  0
   58.3650   25.0840   45.1970 C   0  0  0  0  0  0  0  0  0  0  0  0
   58.7480   26.5450   44.9380 C   0  0  0  0  0  0  0  0  0  0  0  0
   59.5700   29.3560   46.1730 C   0  0  0  0  0  0  0  0  0  0  0  0
   59.7870   30.6960   46.2010 N   0  0  0  0  0  0  0  0  0  0  0  0
   58.8270   31.5740   45.8830 N   0  0  0  0  0  0  0  0  0  0  0  0
   59.1240   32.9830   45.9500 C   0  0  0  0  0  0  0  0  0  0  0  0
   58.9430   33.8080   44.8250 C   0  0  0  0  0  0  0  0  0  0  0  0
   59.2490   35.1710   44.8940 C   0  0  0  0  0  0  0  0  0  0  0  0
   59.7440   35.7190   46.0800 C   0  0  0  0  0  0  0  0  0  0  0  0
   59.9350   34.9050   47.2000 C   0  0  0  0  0  0  0  0  0  0  0  0
   59.6310   33.5410   47.1350 C   0  0  0  0  0  0  0  0  0  0  0  0
   57.5820   31.1360   45.5100 C   0  0  0  0  0  0  0  0  0  0  0  0
   56.6650   31.9610   45.2370 O   0  0  0  0  0  0  0  0  0  0  0  0
   57.5200   30.0147   43.1399 H   0  0  0  0  0  0  0  0  0  0  0  0
   56.5943   28.9537   42.0246 H   0  0  0  0  0  0  0  0  0  0  0  0
   56.3051   30.7266   42.0246 H   0  0  0  0  0  0  0  0  0  0  0  0
   54.8940   30.6144   43.8015 H   0  0  0  0  0  0  0  0  0  0  0  0
   54.8140   28.8489   43.4124 H   0  0  0  0  0  0  0  0  0  0  0  0
   57.4905   26.3760   47.6062 H   0  0  0  0  0  0  0  0  0  0  0  0
   56.4564   27.7857   47.1861 H   0  0  0  0  0  0  0  0  0  0  0  0
   55.3861   25.5536   46.7053 H   0  0  0  0  0  0  0  0  0  0  0  0
   55.5718   26.6347   45.2500 H   0  0  0  0  0  0  0  0  0  0  0  0
   56.6199   23.9398   45.7342 H   0  0  0  0  0  0  0  0  0  0  0  0
   56.4841   24.9274   44.1989 H   0  0  0  0  0  0  0  0  0  0  0  0
   58.7903   24.7690   46.1613 H   0  0  0  0  0  0  0  0  0  0  0  0
   58.7631   24.4727   44.3737 H   0  0  0  0  0  0  0  0  0  0  0  0
   59.8375   26.6545   45.0433 H   0  0  0  0  0  0  0  0  0  0  0  0
   58.4279   26.8141   43.9206 H   0  0  0  0  0  0  0  0  0  0  0  0
   60.3786   28.6631   46.4488 H   0  0  0  0  0  0  0  0  0  0  0  0
   60.7360   31.0320   46.4840 H   0  0  0  0  0  0  0  0  0  0  0  0
   58.5593   33.3794   43.8874 H   0  0  0  0  0  0  0  0  0  0  0  0
   59.0997   35.8126   44.0130 H   0  0  0  0  0  0  0  0  0  0  0  0
   59.9835   36.7913   46.1323 H   0  0  0  0  0  0  0  0  0  0  0  0
   60.3247   35.3372   48.1334 H   0  0  0  0  0  0  0  0  0  0  0  0
   59.7898   32.9023   48.0164 H   0  0  0  0  0  0  0  0  0  0  0  0
  1  2  1  0
  2  3  1  0
  3  4  1  0
  4  5  2  0
  5  6  1  0
  6  7  1  0
  7  8  1  0
  8  9  1  0
  9 10  1  0
 10 11  1  0
  5 12  1  0
 12 13  2  0
 13 14  1  0
 14 15  1  0
 15 16  2  0
 16 17  1  0
 17 18  2  0
 18 19  1  0
 19 20  2  0
 14 21  1  0
 21 22  2  0
 21  4  1  0
 11  6  1  0
 20 15  1  0
  1 23  1  0
  1 24  1  0
  1 25  1  0
  2 26  1  0
  2 27  1  0
  7 28  1  0
  7 29  1  0
  8 30  1  0
  8 31  1  0
  9 32  1  0
  9 33  1  0
 10 34  1  0
 10 35  1  0
 11 36  1  0
 11 37  1  0
 12 38  1  0
 13 39  1  0
 16 40  1  0
 17 41  1  0
 18 42  1  0
 19 43  1  0
 20 44  1  0
M  CHG  1  13   1
M  END
>  <UniqueID>  (57) 
52

>  <SMILES>  (57) 
CCOc1c(N2CCCCC2)c[nH+]n(-c2ccccc2)c1=O

>  <Energy>  (57) 
61.367324304101786

>  <Genealogy>  (57) 
CCOc1c(N2CCCCC2)c[nH+]n(-c2ccccc2)c1=O (protonated)
CCOc1c(N2CCCCC2)c[nH+]n(-c2ccccc2)c1=O (3D coordinates assigned)
CCOc1c(N2CCCCC2)c[nH+]n(-c2ccccc2)c1=O (nonaromatic ring conformer: 61.367324304101786 kcal/mol)

>  <smiles>  (57) 
CCOc1c(N2CCCCC2)cnn(-c2ccccc2)c1=O

>  <score_type>  (57) 
oracle

>  <origin>  (57) 
adg

>  <m_score__min__energy>  (57) 
-6.04

>  <m_primary>  (57) 
energy

$$$$
57:0
     RDKit          3D

 57 60  0  0  0  0  0  0  0  0999 V2000
   57.0430   21.4440   42.9210 C   0  0  0  0  0  0  0  0  0  0  0  0
   56.2290   21.5400   44.1380 N   0  0  0  0  0  0  0  0  0  0  0  0
   57.0960   21.5890   45.3220 C   0  0  0  0  0  0  0  0  0  0  0  0
   55.2330   22.9720   44.0770 S   0  0  0  0  0  0  0  0  0  0  0  0
   54.8300   23.2490   42.6560 O   0  0  0  0  0  0  0  0  0  0  0  0
   53.9810   22.7370   44.8750 O   0  0  0  0  0  0  0  0  0  0  0  0
   56.0720   24.3850   44.7240 C   0  0  0  0  0  0  0  0  0  0  0  0
   55.5790   25.0380   45.8620 C   0  0  0  0  0  0  0  0  0  0  0  0
   56.2570   26.1430   46.3880 C   0  0  0  0  0  0  0  0  0  0  0  0
   57.4480   26.5960   45.7930 C   0  0  0  0  0  0  0  0  0  0  0  0
   58.1770   27.7540   46.3640 C   0  0  0  0  0  0  0  0  0  0  0  0
   58.1910   27.9280   47.6110 O   0  0  0  0  0  0  0  0  0  0  0  0
   58.8220   28.7220   45.5260 N   0  0  0  0  0  0  0  0  0  0  0  0
   58.6670   30.0100   45.6310 C   0  0  0  0  0  0  0  0  0  0  0  0
   57.5370   30.6580   45.2410 N   0  0  0  0  0  0  0  0  0  0  0  0
   57.8380   31.9460   45.4760 C   0  0  0  0  0  0  0  0  0  0  0  0
   57.0280   33.0550   45.2430 C   0  0  0  0  0  0  0  0  0  0  0  0
   57.5570   34.3250   45.5330 C   0  0  0  0  0  0  0  0  0  0  0  0
   58.8720   34.4550   46.0300 C   0  0  0  0  0  0  0  0  0  0  0  0
   59.6660   33.3150   46.2530 C   0  0  0  0  0  0  0  0  0  0  0  0
   59.1030   32.0650   45.9790 C   0  0  0  0  0  0  0  0  0  0  0  0
   59.6380   30.8360   46.1080 N   0  0  0  0  0  0  0  0  0  0  0  0
   60.9520   30.4610   46.6540 C   0  0  0  0  0  0  0  0  0  0  0  0
   61.1850   31.0020   48.0920 C   0  0  0  0  0  0  0  0  0  0  0  0
   62.4420   31.7560   48.3090 N   0  0  0  0  0  0  0  0  0  0  0  0
   63.3120   31.8730   47.1320 C   0  0  0  0  0  0  0  0  0  0  0  0
   63.4330   33.3480   46.7930 C   0  0  0  0  0  0  0  0  0  0  0  0
   63.0550   34.0860   48.0610 C   0  0  0  0  0  0  0  0  0  0  0  0
   62.2830   33.0870   48.9130 C   0  0  0  0  0  0  0  0  0  0  0  0
   57.9260   25.9460   44.6410 C   0  0  0  0  0  0  0  0  0  0  0  0
   57.2420   24.8490   44.1120 C   0  0  0  0  0  0  0  0  0  0  0  0
   58.1007   21.3193   43.1962 H   0  0  0  0  0  0  0  0  0  0  0  0
   56.7141   20.5784   42.3272 H   0  0  0  0  0  0  0  0  0  0  0  0
   56.9245   22.3623   42.3272 H   0  0  0  0  0  0  0  0  0  0  0  0
   56.4776   21.5540   46.2310 H   0  0  0  0  0  0  0  0  0  0  0  0
   57.7807   20.7281   45.3110 H   0  0  0  0  0  0  0  0  0  0  0  0
   57.6793   22.5215   45.3110 H   0  0  0  0  0  0  0  0  0  0  0  0
   54.6565   24.6807   46.3429 H   0  0  0  0  0  0  0  0  0  0  0  0
   55.8562   26.6605   47.2721 H   0  0  0  0  0  0  0  0  0  0  0  0
   56.0087   32.9410   44.8455 H   0  0  0  0  0  0  0  0  0  0  0  0
   56.9424   35.2229   45.3716 H   0  0  0  0  0  0  0  0  0  0  0  0
   59.2786   35.4543   46.2444 H   0  0  0  0  0  0  0  0  0  0  0  0
   60.6954   33.4043   46.6303 H   0  0  0  0  0  0  0  0  0  0  0  0
   61.0229   29.3635   46.6759 H   0  0  0  0  0  0  0  0  0  0  0  0
   61.7194   30.9074   46.0045 H   0  0  0  0  0  0  0  0  0  0  0  0
   60.3460   31.6687   48.3403 H   0  0  0  0  0  0  0  0  0  0  0  0
   61.2597   30.1120   48.7341 H   0  0  0  0  0  0  0  0  0  0  0  0
   64.3053   31.4576   47.3574 H   0  0  0  0  0  0  0  0  0  0  0  0
   62.8891   31.3157   46.2831 H   0  0  0  0  0  0  0  0  0  0  0  0
   64.4646   33.5917   46.4991 H   0  0  0  0  0  0  0  0  0  0  0  0
   62.7853   33.6277   45.9490 H   0  0  0  0  0  0  0  0  0  0  0  0
   63.9581   34.4230   48.5909 H   0  0  0  0  0  0  0  0  0  0  0  0
   62.4526   34.9802   47.8428 H   0  0  0  0  0  0  0  0  0  0  0  0
   62.6834   33.0822   49.9375 H   0  0  0  0  0  0  0  0  0  0  0  0
   61.2190   33.3628   48.9552 H   0  0  0  0  0  0  0  0  0  0  0  0
   58.8447   26.3039   44.1533 H   0  0  0  0  0  0  0  0  0  0  0  0
   57.6245   24.3477   43.2107 H   0  0  0  0  0  0  0  0  0  0  0  0
  1  2  1  0
  2  3  1  0
  2  4  1  0
  4  5  2  0
  4  6  2  0
  4  7  1  0
  7  8  2  0
  8  9  1  0
  9 10  2  0
 10 11  1  0
 11 12  2  0
 11 13  1  0
 13 14  2  3
 14 15  1  0
 15 16  1  0
 16 17  2  0
 17 18  1  0
 18 19  2  0
 19 20  1  0
 20 21  2  0
 21 22  1  0
 22 23  1  0
 23 24  1  0
 24 25  1  0
 25 26  1  0
 26 27  1  0
 27 28  1  0
 28 29  1  0
 10 30  1  0
 30 31  2  0
 31  7  1  0
 22 14  1  0
 29 25  1  0
 21 16  1  0
  1 32  1  0
  1 33  1  0
  1 34  1  0
  3 35  1  0
  3 36  1  0
  3 37  1  0
  8 38  1  0
  9 39  1  0
 17 40  1  0
 18 41  1  0
 19 42  1  0
 20 43  1  0
 23 44  1  0
 23 45  1  0
 24 46  1  0
 24 47  1  0
 26 48  1  0
 26 49  1  0
 27 50  1  0
 27 51  1  0
 28 52  1  0
 28 53  1  0
 29 54  1  0
 29 55  1  0
 30 56  1  0
 31 57  1  0
M  CHG  1  15  -1
M  END
>  <UniqueID>  (58) 
53

>  <SMILES>  (58) 
CN(C)S(=O)(=O)c1ccc(C(=O)N=c2[n-]c3ccccc3n2CCN2CCCC2)cc1

>  <Energy>  (58) 
109.08612548138288

>  <Genealogy>  (58) 
CN(C)S(=O)(=O)c1ccc(C(=O)N=c2[n-]c3ccccc3n2CCN2CCCC2)cc1 (protonated)
CN(C)S(=O)(=O)c1ccc(C(=O)N=c2[n-]c3ccccc3n2CCN2CCCC2)cc1 (3D coordinates assigned)
CN(C)S(=O)(=O)c1ccc(C(=O)N=c2[n-]c3ccccc3n2CCN2CCCC2)cc1 (nonaromatic ring conformer: 109.08612548138288 kcal/mol)

>  <smiles>  (58) 
CN(C)S(=O)(=O)c1ccc(C(=O)N=c2[nH]c3ccccc3n2CCN2CCCC2)cc1

>  <score_type>  (58) 
oracle

>  <origin>  (58) 
adg

>  <m_score__min__energy>  (58) 
-10.289999999999999

>  <m_primary>  (58) 
energy

$$$$
58:0
     RDKit          3D

 30 32  0  0  0  0  0  0  0  0999 V2000
   57.9694   26.5457   45.8565 H   0  0  0  0  0  0  0  0  0  0  0  0
   58.4140   27.5340   46.0450 C   0  0  0  0  0  0  0  0  0  0  0  0
   59.2210   28.1020   45.1140 N   0  0  0  0  0  0  0  0  0  0  0  0
   59.7870   29.3170   45.3290 C   0  0  0  0  0  0  0  0  0  0  0  0
   60.4380   29.7623   44.5622 H   0  0  0  0  0  0  0  0  0  0  0  0
   59.5440   30.0060   46.5260 C   0  0  0  0  0  0  0  0  0  0  0  0
   60.1380   31.3400   46.7830 C   0  0  0  0  0  0  0  0  0  0  0  0
   61.4980   31.4310   47.1290 C   0  0  0  0  0  0  0  0  0  0  0  0
   62.1058   30.5166   47.1955 H   0  0  0  0  0  0  0  0  0  0  0  0
   62.0840   32.6720   47.3890 C   0  0  0  0  0  0  0  0  0  0  0  0
   63.1456   32.7300   47.6714 H   0  0  0  0  0  0  0  0  0  0  0  0
   61.3250   33.8370   47.2910 C   0  0  0  0  0  0  0  0  0  0  0  0
   61.7900   34.8138   47.4904 H   0  0  0  0  0  0  0  0  0  0  0  0
   59.9750   33.7660   46.9400 C   0  0  0  0  0  0  0  0  0  0  0  0
   59.3858   34.6903   46.8479 H   0  0  0  0  0  0  0  0  0  0  0  0
   59.3620   32.5200   46.7030 C   0  0  0  0  0  0  0  0  0  0  0  0
   57.9950   32.4450   46.2580 N   0  0  0  0  0  0  0  0  0  0  0  0
   57.5600   31.8590   45.1800 C   0  0  0  0  0  0  0  0  0  0  0  0
   56.6470   30.8480   45.2440 N   0  0  0  0  0  0  0  0  0  0  0  0
   56.2020   30.2070   44.1300 C   0  0  0  0  0  0  0  0  0  0  0  0
   55.2910   29.2110   44.2420 F   0  0  0  0  0  0  0  0  0  0  0  0
   56.6880   30.5750   42.8720 C   0  0  0  0  0  0  0  0  0  0  0  0
   56.3309   30.0639   41.9658 H   0  0  0  0  0  0  0  0  0  0  0  0
   57.6320   31.5990   42.7800 C   0  0  0  0  0  0  0  0  0  0  0  0
   58.0266   31.8977   41.7976 H   0  0  0  0  0  0  0  0  0  0  0  0
   58.0750   32.2440   43.9370 C   0  0  0  0  0  0  0  0  0  0  0  0
   58.8227   33.0482   43.8717 H   0  0  0  0  0  0  0  0  0  0  0  0
   58.6970   29.4010   47.4660 C   0  0  0  0  0  0  0  0  0  0  0  0
   58.4722   29.9138   48.4128 H   0  0  0  0  0  0  0  0  0  0  0  0
   58.1540   28.1830   47.2090 N   0  0  0  0  0  0  0  0  0  0  0  0
  1  2  1  0
  2  3  2  0
  3  4  1  0
  4  5  1  0
  4  6  2  0
  6  7  1  0
  7  8  2  0
  8  9  1  0
  8 10  1  0
 10 11  1  0
 10 12  2  0
 12 13  1  0
 12 14  1  0
 14 15  1  0
 14 16  2  0
 16 17  1  0
 17 18  2  0
 18 19  1  0
 19 20  1  0
 20 21  1  0
 20 22  2  0
 22 23  1  0
 22 24  1  0
 24 25  1  0
 24 26  2  0
 26 27  1  0
  6 28  1  0
 28 29  1  0
 28 30  2  0
 30  2  1  0
 16  7  1  0
 26 18  1  0
M  CHG  1  19  -1
M  END
>  <UniqueID>  (59) 
54

>  <SMILES>  (59) 
Fc1ccc/c(=N/c2ccccc2-c2cncnc2)[n-]1

>  <Energy>  (59) 
48.045281196397454

>  <Genealogy>  (59) 
Fc1cccc(=Nc2ccccc2-c2cncnc2)[n-]1 (protonated)
Fc1ccc/c(=N/c2ccccc2-c2cncnc2)[n-]1 (cis-trans isomerization)
Fc1ccc/c(=N/c2ccccc2-c2cncnc2)[n-]1 (3D coordinates assigned)
Fc1ccc/c(=N/c2ccccc2-c2cncnc2)[n-]1 (optimized conformer: 48.045281196397454 kcal/mol)

>  <smiles>  (59) 
Fc1cccc(=Nc2ccccc2-c2cncnc2)[nH]1

>  <score_type>  (59) 
oracle

>  <origin>  (59) 
adg

>  <m_score__min__energy>  (59) 
-8.5399999999999991

>  <m_primary>  (59) 
energy

$$$$
59:0
     RDKit          3D

 53 56  0  0  0  0  0  0  0  0999 V2000
   55.6980   31.1280   52.0470 C   0  0  0  0  0  0  0  0  0  0  0  0
   56.9170   30.3990   52.6030 C   0  0  0  0  0  0  0  0  0  0  0  0
   58.0250   30.5180   51.7110 O   0  0  0  0  0  0  0  0  0  0  0  0
   58.9950   31.5230   51.8170 C   0  0  0  0  0  0  0  0  0  0  0  0
   59.7250   31.6060   52.8420 O   0  0  0  0  0  0  0  0  0  0  0  0
   59.1670   32.4820   50.7190 C   0  0  0  0  0  0  0  0  0  0  0  0
   59.5940   33.7890   50.8340 C   0  0  0  0  0  0  0  0  0  0  0  0
   59.6300   34.3650   49.6190 N   0  0  0  0  0  0  0  0  0  0  0  0
   59.2280   33.4340   48.7260 C   0  0  0  0  0  0  0  0  0  0  0  0
   59.1290   33.6410   47.2630 C   0  0  0  0  0  0  0  0  0  0  0  0
   58.6960   32.6200   46.3990 C   0  0  0  0  0  0  0  0  0  0  0  0
   58.6330   32.8600   45.0160 C   0  0  0  0  0  0  0  0  0  0  0  0
   58.2080   31.8760   44.1110 O   0  0  0  0  0  0  0  0  0  0  0  0
   57.5500   30.6860   44.4580 C   0  0  0  0  0  0  0  0  0  0  0  0
   56.1920   30.4750   44.1660 C   0  0  0  0  0  0  0  0  0  0  0  0
   55.5660   29.2840   44.5460 C   0  0  0  0  0  0  0  0  0  0  0  0
   56.2770   28.3030   45.2450 C   0  0  0  0  0  0  0  0  0  0  0  0
   55.6020   27.0950   45.6220 N   0  0  0  0  0  0  0  0  0  0  0  0
   56.2180   25.8220   45.8590 C   0  0  0  0  0  0  0  0  0  0  0  0
   55.8430   25.1370   46.8450 O   0  0  0  0  0  0  0  0  0  0  0  0
   57.2550   25.3090   45.0100 N   0  0  0  0  0  0  0  0  0  0  0  0
   57.2840   24.0100   44.4050 C   0  0  0  0  0  0  0  0  0  0  0  0
   56.3510   23.7080   43.4040 C   0  0  0  0  0  0  0  0  0  0  0  0
   56.3500   22.4490   42.7960 C   0  0  0  0  0  0  0  0  0  0  0  0
   57.2740   21.4790   43.1930 C   0  0  0  0  0  0  0  0  0  0  0  0
   58.1920   21.7630   44.2060 C   0  0  0  0  0  0  0  0  0  0  0  0
   58.1940   23.0200   44.8190 C   0  0  0  0  0  0  0  0  0  0  0  0
   57.6370   28.5120   45.5330 C   0  0  0  0  0  0  0  0  0  0  0  0
   58.2610   29.7030   45.1550 C   0  0  0  0  0  0  0  0  0  0  0  0
   58.9640   34.1250   44.5270 C   0  0  0  0  0  0  0  0  0  0  0  0
   59.3920   35.1160   45.4120 C   0  0  0  0  0  0  0  0  0  0  0  0
   59.4680   34.8520   46.7420 N   0  0  0  0  0  0  0  0  0  0  0  0
   58.9350   32.2470   49.3770 C   0  0  0  0  0  0  0  0  0  0  0  0
   55.0805   31.4973   52.8791 H   0  0  0  0  0  0  0  0  0  0  0  0
   56.0282   31.9771   51.4305 H   0  0  0  0  0  0  0  0  0  0  0  0
   55.1062   30.4354   51.4305 H   0  0  0  0  0  0  0  0  0  0  0  0
   57.1873   30.8366   53.5753 H   0  0  0  0  0  0  0  0  0  0  0  0
   56.6695   29.3336   52.7202 H   0  0  0  0  0  0  0  0  0  0  0  0
   59.8644   34.2854   51.7776 H   0  0  0  0  0  0  0  0  0  0  0  0
   59.9310   35.3450   49.4290 H   0  0  0  0  0  0  0  0  0  0  0  0
   58.4081   31.6384   46.8035 H   0  0  0  0  0  0  0  0  0  0  0  0
   55.6189   31.2501   43.6362 H   0  0  0  0  0  0  0  0  0  0  0  0
   54.5083   29.1175   44.2938 H   0  0  0  0  0  0  0  0  0  0  0  0
   55.6156   24.4654   43.0950 H   0  0  0  0  0  0  0  0  0  0  0  0
   55.6210   22.2219   42.0042 H   0  0  0  0  0  0  0  0  0  0  0  0
   57.2782   20.4919   42.7076 H   0  0  0  0  0  0  0  0  0  0  0  0
   58.9149   20.9967   44.5225 H   0  0  0  0  0  0  0  0  0  0  0  0
   58.9088   23.2352   45.6269 H   0  0  0  0  0  0  0  0  0  0  0  0
   58.2118   27.7348   46.0579 H   0  0  0  0  0  0  0  0  0  0  0  0
   59.3187   29.8693   45.4070 H   0  0  0  0  0  0  0  0  0  0  0  0
   58.8880   34.3395   43.4508 H   0  0  0  0  0  0  0  0  0  0  0  0
   59.6677   36.1108   45.0321 H   0  0  0  0  0  0  0  0  0  0  0  0
   58.5884   31.3087   48.9192 H   0  0  0  0  0  0  0  0  0  0  0  0
  1  2  1  0
  2  3  1  0
  3  4  1  0
  4  5  2  0
  4  6  1  0
  6  7  2  0
  7  8  1  0
  8  9  1  0
  9 10  1  0
 10 11  2  0
 11 12  1  0
 12 13  1  0
 13 14  1  0
 14 15  2  0
 15 16  1  0
 16 17  2  0
 17 18  1  0
 18 19  1  0
 19 20  2  0
 19 21  1  0
 21 22  1  0
 22 23  2  0
 23 24  1  0
 24 25  2  0
 25 26  1  0
 26 27  2  0
 17 28  1  0
 28 29  2  0
 12 30  2  0
 30 31  1  0
 31 32  2  0
  9 33  2  0
 33  6  1  0
 32 10  1  0
 29 14  1  0
 27 22  1  0
  1 34  1  0
  1 35  1  0
  1 36  1  0
  2 37  1  0
  2 38  1  0
  7 39  1  0
  8 40  1  0
 11 41  1  0
 15 42  1  0
 16 43  1  0
 23 44  1  0
 24 45  1  0
 25 46  1  0
 26 47  1  0
 27 48  1  0
 28 49  1  0
 29 50  1  0
 30 51  1  0
 31 52  1  0
 33 53  1  0
M  CHG  2  18  -1  21  -1
M  END
>  <UniqueID>  (60) 
55

>  <SMILES>  (60) 
CCOC(=O)c1c[nH]c(-c2cc(Oc3ccc([N-]C(=O)[N-]c4ccccc4)cc3)ccn2)c1

>  <Energy>  (60) 
93.47017938250787

>  <Genealogy>  (60) 
CCOC(=O)c1c[nH]c(-c2cc(Oc3ccc([N-]C(=O)[N-]c4ccccc4)cc3)ccn2)c1 (protonated)
CCOC(=O)c1c[nH]c(-c2cc(Oc3ccc([N-]C(=O)[N-]c4ccccc4)cc3)ccn2)c1 (3D coordinates assigned)
CCOC(=O)c1c[nH]c(-c2cc(Oc3ccc([N-]C(=O)[N-]c4ccccc4)cc3)ccn2)c1 (optimized conformer: 93.47017938250787 kcal/mol)

>  <smiles>  (60) 
CCOC(=O)c1c[nH]c(-c2cc(Oc3ccc(NC(=O)Nc4ccccc4)cc3)ccn2)c1

>  <score_type>  (60) 
oracle

>  <origin>  (60) 
adg

>  <m_score__min__energy>  (60) 
-11.57

>  <m_primary>  (60) 
energy

$$$$
60:0
     RDKit          3D

 32 33  0  0  0  0  0  0  0  0999 V2000
   53.5320   23.7820   44.9370 C   0  0  0  0  0  0  0  0  0  0  0  0
   54.5350   24.6640   45.5980 C   0  0  0  0  0  0  0  0  0  0  0  0
   55.7380   24.2620   46.1390 C   0  0  0  0  0  0  0  0  0  0  0  0
   56.2640   25.4420   46.6150 C   0  0  0  0  0  0  0  0  0  0  0  0
   57.4050   25.5500   47.2220 N   0  0  0  0  0  0  0  0  0  0  0  0
   58.7530   26.4100   46.5520 S   0  0  0  0  0  0  0  0  0  0  0  0
   59.8210   26.5500   47.5990 O   0  0  0  0  0  0  0  0  0  0  0  0
   59.3040   25.6290   45.3910 O   0  0  0  0  0  0  0  0  0  0  0  0
   58.2430   28.0140   46.0340 C   0  0  0  0  0  0  0  0  0  0  0  0
   58.5940   29.1350   46.7930 C   0  0  0  0  0  0  0  0  0  0  0  0
   58.1800   30.4110   46.3970 C   0  0  0  0  0  0  0  0  0  0  0  0
   57.4130   30.5820   45.2390 C   0  0  0  0  0  0  0  0  0  0  0  0
   57.0050   31.9080   44.8770 N   0  0  0  0  0  0  0  0  0  0  0  0
   57.4850   33.3700   45.6760 S   0  0  0  0  0  0  0  0  0  0  0  0
   59.2140   33.6890   45.3890 C   0  0  0  0  0  0  0  0  0  0  0  0
   57.2080   33.2670   47.1490 O   0  0  0  0  0  0  0  0  0  0  0  0
   56.6870   34.5120   45.1140 O   0  0  0  0  0  0  0  0  0  0  0  0
   57.0720   29.4530   44.4700 C   0  0  0  0  0  0  0  0  0  0  0  0
   57.4860   28.1780   44.8680 C   0  0  0  0  0  0  0  0  0  0  0  0
   55.4280   26.4710   46.3710 N   0  0  0  0  0  0  0  0  0  0  0  0
   54.3990   25.9620   45.7570 O   0  0  0  0  0  0  0  0  0  0  0  0
   52.9398   23.2612   45.7039 H   0  0  0  0  0  0  0  0  0  0  0  0
   52.8648   24.3913   44.3096 H   0  0  0  0  0  0  0  0  0  0  0  0
   54.0510   23.0424   44.3096 H   0  0  0  0  0  0  0  0  0  0  0  0
   56.1696   23.2510   46.1800 H   0  0  0  0  0  0  0  0  0  0  0  0
   59.1977   29.0128   47.7044 H   0  0  0  0  0  0  0  0  0  0  0  0
   58.4595   31.2871   47.0006 H   0  0  0  0  0  0  0  0  0  0  0  0
   59.7342   33.7850   46.3535 H   0  0  0  0  0  0  0  0  0  0  0  0
   59.6507   32.8563   44.8182 H   0  0  0  0  0  0  0  0  0  0  0  0
   59.3248   34.6227   44.8182 H   0  0  0  0  0  0  0  0  0  0  0  0
   56.4775   29.5744   43.5525 H   0  0  0  0  0  0  0  0  0  0  0  0
   57.2157   27.3004   44.2624 H   0  0  0  0  0  0  0  0  0  0  0  0
  1  2  1  0
  2  3  2  0
  3  4  1  0
  4  5  2  3
  5  6  1  0
  6  7  2  0
  6  8  2  0
  6  9  1  0
  9 10  2  0
 10 11  1  0
 11 12  2  0
 12 13  1  0
 13 14  1  0
 14 15  1  0
 14 16  2  0
 14 17  2  0
 12 18  1  0
 18 19  2  0
  4 20  1  0
 20 21  1  0
 21  2  1  0
 19  9  1  0
  1 22  1  0
  1 23  1  0
  1 24  1  0
  3 25  1  0
 10 26  1  0
 11 27  1  0
 15 28  1  0
 15 29  1  0
 15 30  1  0
 18 31  1  0
 19 32  1  0
M  CHG  2  13  -1  20  -1
M  END
>  <UniqueID>  (61) 
56

>  <SMILES>  (61) 
Cc1cc(=NS(=O)(=O)c2ccc([N-]S(C)(=O)=O)cc2)[n-]o1

>  <Energy>  (61) 
63.610473611667246

>  <Genealogy>  (61) 
Cc1cc(=NS(=O)(=O)c2ccc([N-]S(C)(=O)=O)cc2)[n-]o1 (protonated)
Cc1cc(=NS(=O)(=O)c2ccc([N-]S(C)(=O)=O)cc2)[n-]o1 (3D coordinates assigned)
Cc1cc(=NS(=O)(=O)c2ccc([N-]S(C)(=O)=O)cc2)[n-]o1 (optimized conformer: 63.610473611667246 kcal/mol)

>  <smiles>  (61) 
Cc1cc(=NS(=O)(=O)c2ccc(NS(C)(=O)=O)cc2)[nH]o1

>  <score_type>  (61) 
oracle

>  <origin>  (61) 
adg

>  <m_score__min__energy>  (61) 
-10.619999999999999

>  <m_primary>  (61) 
energy

$$$$
61:0
     RDKit          3D

 27 30  0  0  0  0  0  0  0  0999 V2000
   55.5280   29.0110   44.8520 O   0  0  0  0  0  0  0  0  0  0  0  0
   56.6660   28.8970   45.3840 C   0  0  0  0  0  0  0  0  0  0  0  0
   57.1660   27.6440   45.7970 C   0  0  0  0  0  0  0  0  0  0  0  0
   56.4280   26.4580   45.6400 C   0  0  0  0  0  0  0  0  0  0  0  0
   56.9620   25.2370   46.0640 C   0  0  0  0  0  0  0  0  0  0  0  0
   58.2310   25.1870   46.6450 C   0  0  0  0  0  0  0  0  0  0  0  0
   58.9800   26.3550   46.8090 C   0  0  0  0  0  0  0  0  0  0  0  0
   58.4640   27.5910   46.3910 C   0  0  0  0  0  0  0  0  0  0  0  0
   59.1960   28.7360   46.5520 N   0  0  0  0  0  0  0  0  0  0  0  0
   58.6660   29.9130   46.1360 C   0  0  0  0  0  0  0  0  0  0  0  0
   59.2030   31.1740   46.1910 C   0  0  0  0  0  0  0  0  0  0  0  0
   60.4100   31.6820   46.6610 C   0  0  0  0  0  0  0  0  0  0  0  0
   60.6150   33.0710   46.5460 C   0  0  0  0  0  0  0  0  0  0  0  0
   62.2470   33.8410   47.1690 Br  0  0  0  0  0  0  0  0  0  0  0  0
   59.6190   33.9000   45.9720 C   0  0  0  0  0  0  0  0  0  0  0  0
   58.4090   33.3500   45.5070 C   0  0  0  0  0  0  0  0  0  0  0  0
   58.2300   31.9750   45.6310 C   0  0  0  0  0  0  0  0  0  0  0  0
   57.1550   31.2450   45.2540 N   0  0  0  0  0  0  0  0  0  0  0  0
   57.4470   29.9890   45.5740 N   0  0  0  0  0  0  0  0  0  0  0  0
   55.4281   26.4904   45.1826 H   0  0  0  0  0  0  0  0  0  0  0  0
   56.3800   24.3120   45.9393 H   0  0  0  0  0  0  0  0  0  0  0  0
   58.6433   24.2222   46.9755 H   0  0  0  0  0  0  0  0  0  0  0  0
   59.9785   26.3053   47.2678 H   0  0  0  0  0  0  0  0  0  0  0  0
   60.1470   28.7120   46.9840 H   0  0  0  0  0  0  0  0  0  0  0  0
   61.1733   31.0256   47.1044 H   0  0  0  0  0  0  0  0  0  0  0  0
   59.7928   34.9830   45.8890 H   0  0  0  0  0  0  0  0  0  0  0  0
   57.6306   33.9861   45.0603 H   0  0  0  0  0  0  0  0  0  0  0  0
  1  2  2  0
  2  3  1  0
  3  4  2  0
  4  5  1  0
  5  6  2  0
  6  7  1  0
  7  8  2  0
  8  9  1  0
  9 10  2  0
 10 11  1  0
 11 12  2  0
 12 13  1  0
 13 14  1  0
 13 15  2  0
 15 16  1  0
 16 17  2  0
 17 18  1  0
 18 19  1  0
 19  2  1  0
  8  3  1  0
 19 10  1  0
 17 11  1  0
  4 20  1  0
  5 21  1  0
  6 22  1  0
  7 23  1  0
  9 24  1  0
 12 25  1  0
 15 26  1  0
 16 27  1  0
M  CHG  2   9   1  18  -1
M  END
>  <UniqueID>  (62) 
57

>  <SMILES>  (62) 
O=c1c2ccccc2[nH+]c2c3cc(Br)ccc3[n-]n12

>  <Energy>  (62) 
81.14427493801367

>  <Genealogy>  (62) 
O=c1c2ccccc2[nH+]c2c3cc(Br)ccc3[n-]n12 (protonated)
O=c1c2ccccc2[nH+]c2c3cc(Br)ccc3[n-]n12 (3D coordinates assigned)
O=c1c2ccccc2[nH+]c2c3cc(Br)ccc3[n-]n12 (optimized conformer: 81.14427493801367 kcal/mol)

>  <smiles>  (62) 
O=c1c2ccccc2nc2c3cc(Br)ccc3[nH]n12

>  <score_type>  (62) 
oracle

>  <origin>  (62) 
adg

>  <m_score__min__energy>  (62) 
-6.7800000000000002

>  <m_primary>  (62) 
energy

$$$$
62:0
     RDKit          3D

 41 43  0  0  0  0  0  0  0  0999 V2000
   56.6660   20.7400   42.9950 C   0  0  0  0  0  0  0  0  0  0  0  0
   55.9340   21.8480   43.5110 O   0  0  0  0  0  0  0  0  0  0  0  0
   56.5120   23.0610   43.9190 C   0  0  0  0  0  0  0  0  0  0  0  0
   56.8360   24.0810   43.0030 C   0  0  0  0  0  0  0  0  0  0  0  0
   57.3960   25.2810   43.4500 C   0  0  0  0  0  0  0  0  0  0  0  0
   57.6310   25.4900   44.8200 C   0  0  0  0  0  0  0  0  0  0  0  0
   58.1820   26.7210   45.3170 N   0  0  0  0  0  0  0  0  0  0  0  0
   59.5250   26.8620   45.8130 C   0  0  0  0  0  0  0  0  0  0  0  0
   60.2500   25.8510   46.0180 O   0  0  0  0  0  0  0  0  0  0  0  0
   60.1110   28.2240   46.0100 C   0  0  0  0  0  0  0  0  0  0  0  0
   59.2270   29.1160   47.3390 S   0  0  0  0  0  0  0  0  0  0  0  0
   58.1330   30.0220   46.2350 C   0  0  0  0  0  0  0  0  0  0  0  0
   57.1670   29.3140   45.5830 N   0  0  0  0  0  0  0  0  0  0  0  0
   56.3190   29.8980   44.6900 C   0  0  0  0  0  0  0  0  0  0  0  0
   56.4180   31.2250   44.4190 N   0  0  0  0  0  0  0  0  0  0  0  0
   57.3580   31.9570   45.0590 C   0  0  0  0  0  0  0  0  0  0  0  0
   57.6220   33.5960   44.8690 S   0  0  0  0  0  0  0  0  0  0  0  0
   58.8790   33.6620   45.9930 C   0  0  0  0  0  0  0  0  0  0  0  0
   59.6250   34.9150   46.3240 C   0  0  0  0  0  0  0  0  0  0  0  0
   59.0910   32.3890   46.5540 C   0  0  0  0  0  0  0  0  0  0  0  0
   60.0840   32.1410   47.6540 C   0  0  0  0  0  0  0  0  0  0  0  0
   58.2320   31.4100   45.9890 C   0  0  0  0  0  0  0  0  0  0  0  0
   57.3500   24.4560   45.7220 C   0  0  0  0  0  0  0  0  0  0  0  0
   56.7790   23.2570   45.2810 C   0  0  0  0  0  0  0  0  0  0  0  0
   56.3960   22.0090   46.4560 Cl  0  0  0  0  0  0  0  0  0  0  0  0
   57.0614   20.1414   43.8289 H   0  0  0  0  0  0  0  0  0  0  0  0
   56.0015   20.1165   42.3789 H   0  0  0  0  0  0  0  0  0  0  0  0
   57.5002   21.1066   42.3789 H   0  0  0  0  0  0  0  0  0  0  0  0
   56.6471   23.9322   41.9296 H   0  0  0  0  0  0  0  0  0  0  0  0
   57.6545   26.0669   42.7251 H   0  0  0  0  0  0  0  0  0  0  0  0
   57.6500   27.5990   45.1210 H   0  0  0  0  0  0  0  0  0  0  0  0
   61.1718   28.1254   46.2838 H   0  0  0  0  0  0  0  0  0  0  0  0
   60.0121   28.7925   45.0735 H   0  0  0  0  0  0  0  0  0  0  0  0
   55.5513   29.2920   44.1867 H   0  0  0  0  0  0  0  0  0  0  0  0
   59.6905   35.0250   47.4165 H   0  0  0  0  0  0  0  0  0  0  0  0
   60.6384   34.8614   45.8995 H   0  0  0  0  0  0  0  0  0  0  0  0
   59.0949   35.7803   45.8995 H   0  0  0  0  0  0  0  0  0  0  0  0
   59.5897   32.2645   48.6289 H   0  0  0  0  0  0  0  0  0  0  0  0
   60.4770   31.1171   47.5692 H   0  0  0  0  0  0  0  0  0  0  0  0
   60.9123   32.8599   47.5692 H   0  0  0  0  0  0  0  0  0  0  0  0
   57.5808   24.5880   46.7894 H   0  0  0  0  0  0  0  0  0  0  0  0
  1  2  1  0
  2  3  1  0
  3  4  2  0
  4  5  1  0
  5  6  2  0
  6  7  1  0
  7  8  1  0
  8  9  2  0
  8 10  1  0
 10 11  1  0
 11 12  1  0
 12 13  2  0
 13 14  1  0
 14 15  2  0
 15 16  1  0
 16 17  1  0
 17 18  1  0
 18 19  1  0
 18 20  2  0
 20 21  1  0
 20 22  1  0
  6 23  1  0
 23 24  2  0
 24 25  1  0
 24  3  1  0
 22 12  1  0
 22 16  2  0
  1 26  1  0
  1 27  1  0
  1 28  1  0
  4 29  1  0
  5 30  1  0
  7 31  1  0
 10 32  1  0
 10 33  1  0
 14 34  1  0
 19 35  1  0
 19 36  1  0
 19 37  1  0
 21 38  1  0
 21 39  1  0
 21 40  1  0
 23 41  1  0
M  END
>  <UniqueID>  (63) 
58

>  <SMILES>  (63) 
COc1ccc(NC(=O)CSc2ncnc3sc(C)c(C)c23)cc1Cl

>  <Energy>  (63) 
72.97971670588039

>  <Genealogy>  (63) 
COc1ccc(NC(=O)CSc2ncnc3sc(C)c(C)c23)cc1Cl (3D coordinates assigned)
COc1ccc(NC(=O)CSc2ncnc3sc(C)c(C)c23)cc1Cl (optimized conformer: 72.97971670588039 kcal/mol)

>  <smiles>  (63) 
COc1ccc(NC(=O)CSc2ncnc3sc(C)c(C)c23)cc1Cl

>  <score_type>  (63) 
oracle

>  <origin>  (63) 
adg

>  <m_score__min__energy>  (63) 
-8.1099999999999994

>  <m_primary>  (63) 
energy

$$$$
63:0
     RDKit          3D

 29 30  0  0  0  0  0  0  0  0999 V2000
   57.5240   32.9540   47.5030 O   0  0  0  0  0  0  0  0  0  0  0  0
   58.2730   32.8160   46.5000 C   0  0  0  0  0  0  0  0  0  0  0  0
   57.6750   32.6870   45.2040 N   0  0  0  0  0  0  0  0  0  0  0  0
   57.3780   31.1840   44.3860 S   0  0  0  0  0  0  0  0  0  0  0  0
   55.9260   30.8230   44.5320 O   0  0  0  0  0  0  0  0  0  0  0  0
   57.6960   31.3410   42.9260 O   0  0  0  0  0  0  0  0  0  0  0  0
   58.3450   29.8940   45.1000 C   0  0  0  0  0  0  0  0  0  0  0  0
   57.8900   29.2010   46.2310 C   0  0  0  0  0  0  0  0  0  0  0  0
   58.6290   28.1310   46.7450 C   0  0  0  0  0  0  0  0  0  0  0  0
   59.8290   27.7530   46.1340 C   0  0  0  0  0  0  0  0  0  0  0  0
   60.7480   26.3990   46.7680 Cl  0  0  0  0  0  0  0  0  0  0  0  0
   60.2940   28.4510   45.0140 C   0  0  0  0  0  0  0  0  0  0  0  0
   59.5540   29.5190   44.4980 C   0  0  0  0  0  0  0  0  0  0  0  0
   59.7330   32.7650   46.6990 C   0  0  0  0  0  0  0  0  0  0  0  0
   60.5260   33.8700   46.3540 C   0  0  0  0  0  0  0  0  0  0  0  0
   61.9040   33.8450   46.5830 C   0  0  0  0  0  0  0  0  0  0  0  0
   62.5050   32.7120   47.1400 C   0  0  0  0  0  0  0  0  0  0  0  0
   63.8800   32.7050   47.3720 O   0  0  0  0  0  0  0  0  0  0  0  0
   61.7210   31.5950   47.4600 C   0  0  0  0  0  0  0  0  0  0  0  0
   60.3420   31.6200   47.2360 C   0  0  0  0  0  0  0  0  0  0  0  0
   56.9488   29.5001   46.7154 H   0  0  0  0  0  0  0  0  0  0  0  0
   58.2667   27.5867   47.6296 H   0  0  0  0  0  0  0  0  0  0  0  0
   61.2424   28.1592   44.5392 H   0  0  0  0  0  0  0  0  0  0  0  0
   59.9214   30.0664   43.6174 H   0  0  0  0  0  0  0  0  0  0  0  0
   60.0613   34.7586   45.9019 H   0  0  0  0  0  0  0  0  0  0  0  0
   62.5184   34.7199   46.3241 H   0  0  0  0  0  0  0  0  0  0  0  0
   64.5230   32.2650   46.7250 H   0  0  0  0  0  0  0  0  0  0  0  0
   62.1919   30.6977   47.8880 H   0  0  0  0  0  0  0  0  0  0  0  0
   59.7311   30.7388   47.4815 H   0  0  0  0  0  0  0  0  0  0  0  0
  1  2  2  0
  2  3  1  0
  3  4  1  0
  4  5  2  0
  4  6  2  0
  4  7  1  0
  7  8  2  0
  8  9  1  0
  9 10  2  0
 10 11  1  0
 10 12  1  0
 12 13  2  0
  2 14  1  0
 14 15  2  0
 15 16  1  0
 16 17  2  0
 17 18  1  0
 17 19  1  0
 19 20  2  0
 13  7  1  0
 20 14  1  0
  8 21  1  0
  9 22  1  0
 12 23  1  0
 13 24  1  0
 15 25  1  0
 16 26  1  0
 18 27  1  0
 19 28  1  0
 20 29  1  0
M  CHG  1   3  -1
M  END
>  <UniqueID>  (64) 
59

>  <SMILES>  (64) 
O=C([N-]S(=O)(=O)c1ccc(Cl)cc1)c1ccc(O)cc1

>  <Energy>  (64) 
34.5646984659276

>  <Genealogy>  (64) 
O=C([N-]S(=O)(=O)c1ccc(Cl)cc1)c1ccc(O)cc1 (protonated)
O=C([N-]S(=O)(=O)c1ccc(Cl)cc1)c1ccc(O)cc1 (3D coordinates assigned)
O=C([N-]S(=O)(=O)c1ccc(Cl)cc1)c1ccc(O)cc1 (optimized conformer: 34.5646984659276 kcal/mol)

>  <smiles>  (64) 
O=C(NS(=O)(=O)c1ccc(Cl)cc1)c1ccc(O)cc1

>  <score_type>  (64) 
oracle

>  <origin>  (64) 
adg

>  <m_score__min__energy>  (64) 
-10.119999999999999

>  <m_primary>  (64) 
energy

$$$$
64:0
     RDKit          3D

 57 60  0  0  0  0  0  0  0  0999 V2000
   65.6670   31.6490   50.8150 C   0  0  0  0  0  0  0  0  0  0  0  0
   64.2010   32.0360   50.6440 C   0  0  0  0  0  0  0  0  0  0  0  0
   64.0900   33.4130   50.1040 N   0  0  0  0  0  0  0  0  0  0  0  0
   64.5280   33.4890   48.6930 C   0  0  0  0  0  0  0  0  0  0  0  0
   63.5320   32.7840   47.7630 C   0  0  0  0  0  0  0  0  0  0  0  0
   62.1560   33.1710   48.0950 N   0  0  0  0  0  0  0  0  0  0  0  0
   61.0530   32.5590   47.4070 C   0  0  0  0  0  0  0  0  0  0  0  0
   60.8380   31.1790   47.5220 C   0  0  0  0  0  0  0  0  0  0  0  0
   59.7370   30.5550   46.8930 C   0  0  0  0  0  0  0  0  0  0  0  0
   58.8440   31.3590   46.1350 C   0  0  0  0  0  0  0  0  0  0  0  0
   59.0820   32.7410   46.0110 C   0  0  0  0  0  0  0  0  0  0  0  0
   60.1730   33.3350   46.6430 C   0  0  0  0  0  0  0  0  0  0  0  0
   60.3790   34.6680   46.4990 F   0  0  0  0  0  0  0  0  0  0  0  0
   57.7200   30.7630   45.5360 C   0  0  0  0  0  0  0  0  0  0  0  0
   56.9070   31.4570   44.8630 O   0  0  0  0  0  0  0  0  0  0  0  0
   57.4880   29.3960   45.7100 C   0  0  0  0  0  0  0  0  0  0  0  0
   56.2840   28.7480   45.1620 C   0  0  0  0  0  0  0  0  0  0  0  0
   55.6280   29.3260   44.2570 O   0  0  0  0  0  0  0  0  0  0  0  0
   55.8620   27.4550   45.6180 N   0  0  0  0  0  0  0  0  0  0  0  0
   56.7690   26.3620   45.9680 C   0  0  0  0  0  0  0  0  0  0  0  0
   56.4790   25.1080   45.1820 C   0  0  0  0  0  0  0  0  0  0  0  0
   57.5090   24.4880   44.4510 C   0  0  0  0  0  0  0  0  0  0  0  0
   57.2580   23.3140   43.7340 C   0  0  0  0  0  0  0  0  0  0  0  0
   55.9770   22.7510   43.7390 C   0  0  0  0  0  0  0  0  0  0  0  0
   54.9450   23.3620   44.4550 C   0  0  0  0  0  0  0  0  0  0  0  0
   55.1890   24.5400   45.1700 C   0  0  0  0  0  0  0  0  0  0  0  0
   54.1700   25.1120   45.8610 F   0  0  0  0  0  0  0  0  0  0  0  0
   58.4100   28.6310   46.4290 C   0  0  0  0  0  0  0  0  0  0  0  0
   59.5090   29.1990   47.0100 N   0  0  0  0  0  0  0  0  0  0  0  0
   60.4210   28.3250   47.7660 C   0  0  0  0  0  0  0  0  0  0  0  0
   61.9250   34.2510   49.0570 C   0  0  0  0  0  0  0  0  0  0  0  0
   62.7460   34.0130   50.3390 C   0  0  0  0  0  0  0  0  0  0  0  0
   65.9069   31.5857   51.8866 H   0  0  0  0  0  0  0  0  0  0  0  0
   65.8462   30.6728   50.3408 H   0  0  0  0  0  0  0  0  0  0  0  0
   66.3047   32.4096   50.3408 H   0  0  0  0  0  0  0  0  0  0  0  0
   63.7194   31.3336   49.9478 H   0  0  0  0  0  0  0  0  0  0  0  0
   63.7043   31.9959   51.6247 H   0  0  0  0  0  0  0  0  0  0  0  0
   64.6072   34.5459   48.3985 H   0  0  0  0  0  0  0  0  0  0  0  0
   65.5026   32.9868   48.6038 H   0  0  0  0  0  0  0  0  0  0  0  0
   63.7464   33.0669   46.7218 H   0  0  0  0  0  0  0  0  0  0  0  0
   63.6359   31.6963   47.8896 H   0  0  0  0  0  0  0  0  0  0  0  0
   61.5388   30.5705   48.1125 H   0  0  0  0  0  0  0  0  0  0  0  0
   58.3995   33.3587   45.4088 H   0  0  0  0  0  0  0  0  0  0  0  0
   57.8019   26.6788   45.7614 H   0  0  0  0  0  0  0  0  0  0  0  0
   56.6265   26.1330   47.0344 H   0  0  0  0  0  0  0  0  0  0  0  0
   58.5167   24.9290   44.4435 H   0  0  0  0  0  0  0  0  0  0  0  0
   58.0678   22.8329   43.1659 H   0  0  0  0  0  0  0  0  0  0  0  0
   55.7823   21.8252   43.1778 H   0  0  0  0  0  0  0  0  0  0  0  0
   53.9392   22.9167   44.4569 H   0  0  0  0  0  0  0  0  0  0  0  0
   58.2478   27.5477   46.5297 H   0  0  0  0  0  0  0  0  0  0  0  0
   60.2636   28.4758   48.8442 H   0  0  0  0  0  0  0  0  0  0  0  0
   60.2190   27.2746   47.5094 H   0  0  0  0  0  0  0  0  0  0  0  0
   61.4619   28.5715   47.5094 H   0  0  0  0  0  0  0  0  0  0  0  0
   62.2259   35.2083   48.6064 H   0  0  0  0  0  0  0  0  0  0  0  0
   60.8564   34.2749   49.3169 H   0  0  0  0  0  0  0  0  0  0  0  0
   62.8841   34.9803   50.8442 H   0  0  0  0  0  0  0  0  0  0  0  0
   62.1803   33.2907   50.9459 H   0  0  0  0  0  0  0  0  0  0  0  0
  1  2  1  0
  2  3  1  0
  3  4  1  0
  4  5  1  0
  5  6  1  0
  6  7  1  0
  7  8  2  0
  8  9  1  0
  9 10  2  0
 10 11  1  0
 11 12  2  0
 12 13  1  0
 10 14  1  0
 14 15  2  0
 14 16  1  0
 16 17  1  0
 17 18  2  0
 17 19  1  0
 19 20  1  0
 20 21  1  0
 21 22  2  0
 22 23  1  0
 23 24  2  0
 24 25  1  0
 25 26  2  0
 26 27  1  0
 16 28  2  0
 28 29  1  0
 29 30  1  0
  6 31  1  0
 31 32  1  0
 32  3  1  0
 12  7  1  0
 26 21  1  0
 29  9  1  0
  1 33  1  0
  1 34  1  0
  1 35  1  0
  2 36  1  0
  2 37  1  0
  4 38  1  0
  4 39  1  0
  5 40  1  0
  5 41  1  0
  8 42  1  0
 11 43  1  0
 20 44  1  0
 20 45  1  0
 22 46  1  0
 23 47  1  0
 24 48  1  0
 25 49  1  0
 28 50  1  0
 30 51  1  0
 30 52  1  0
 30 53  1  0
 31 54  1  0
 31 55  1  0
 32 56  1  0
 32 57  1  0
M  CHG  1  19  -1
M  END
>  <UniqueID>  (65) 
60

>  <SMILES>  (65) 
CCN1CCN(c2cc3c(cc2F)c(=O)c(C(=O)[N-]Cc2ccccc2F)cn3C)CC1

>  <Energy>  (65) 
84.90876860740659

>  <Genealogy>  (65) 
CCN1CCN(c2cc3c(cc2F)c(=O)c(C(=O)[N-]Cc2ccccc2F)cn3C)CC1 (protonated)
CCN1CCN(c2cc3c(cc2F)c(=O)c(C(=O)[N-]Cc2ccccc2F)cn3C)CC1 (3D coordinates assigned)
CCN1CCN(c2cc3c(cc2F)c(=O)c(C(=O)[N-]Cc2ccccc2F)cn3C)CC1 (nonaromatic ring conformer: 84.90876860740659 kcal/mol)

>  <smiles>  (65) 
CCN1CCN(c2cc3c(cc2F)c(=O)c(C(=O)NCc2ccccc2F)cn3C)CC1

>  <score_type>  (65) 
oracle

>  <origin>  (65) 
adg

>  <m_score__min__energy>  (65) 
-10.609999999999999

>  <m_primary>  (65) 
energy

$$$$
65:0
     RDKit          3D

 63 67  0  0  0  0  0  0  0  0999 V2000
   58.0390   25.9760   47.3390 O   0  0  0  0  0  0  0  0  0  0  0  0
   57.5480   26.8670   46.5950 C   0  0  0  0  0  0  0  0  0  0  0  0
   57.7250   28.2530   46.9110 N   0  0  0  0  0  0  0  0  0  0  0  0
   58.9680   28.9690   46.9470 C   0  0  0  0  0  0  0  0  0  0  0  0
   59.8130   29.0570   45.8270 C   0  0  0  0  0  0  0  0  0  0  0  0
   61.0270   29.7450   45.9120 C   0  0  0  0  0  0  0  0  0  0  0  0
   61.4150   30.3550   47.1110 C   0  0  0  0  0  0  0  0  0  0  0  0
   62.6740   31.0410   47.1660 N   0  0  0  0  0  0  0  0  0  0  0  0
   62.8620   32.4500   47.3500 C   0  0  0  0  0  0  0  0  0  0  0  0
   63.1920   33.1500   46.3560 O   0  0  0  0  0  0  0  0  0  0  0  0
   62.6020   33.1090   48.6520 C   0  0  0  0  0  0  0  0  0  0  0  0
   63.6330   33.2080   49.6000 C   0  0  0  0  0  0  0  0  0  0  0  0
   63.3860   33.7650   50.8540 C   0  0  0  0  0  0  0  0  0  0  0  0
   62.1030   34.2140   51.1620 C   0  0  0  0  0  0  0  0  0  0  0  0
   61.1110   34.1190   50.2390 N   0  0  0  0  0  0  0  0  0  0  0  0
   61.3200   33.5920   49.0010 C   0  0  0  0  0  0  0  0  0  0  0  0
   60.2340   33.5720   48.0640 N   0  0  0  0  0  0  0  0  0  0  0  0
   60.4030   34.2460   46.7660 C   0  0  0  0  0  0  0  0  0  0  0  0
   59.0670   34.3690   46.0300 C   0  0  0  0  0  0  0  0  0  0  0  0
   58.3530   33.0870   46.0950 N   0  0  0  0  0  0  0  0  0  0  0  0
   57.9330   32.4150   44.8920 C   0  0  0  0  0  0  0  0  0  0  0  0
   58.1840   32.9870   43.6300 C   0  0  0  0  0  0  0  0  0  0  0  0
   57.7560   32.3430   42.4650 C   0  0  0  0  0  0  0  0  0  0  0  0
   57.0730   31.1270   42.5470 C   0  0  0  0  0  0  0  0  0  0  0  0
   56.8150   30.5530   43.7950 C   0  0  0  0  0  0  0  0  0  0  0  0
   57.2390   31.1930   44.9630 C   0  0  0  0  0  0  0  0  0  0  0  0
   58.1550   32.4310   47.3980 C   0  0  0  0  0  0  0  0  0  0  0  0
   58.9030   33.1620   48.5220 C   0  0  0  0  0  0  0  0  0  0  0  0
   60.5940   30.2250   48.2430 C   0  0  0  0  0  0  0  0  0  0  0  0
   59.3810   29.5370   48.1590 C   0  0  0  0  0  0  0  0  0  0  0  0
   56.8880   26.5100   45.3720 N   0  0  0  0  0  0  0  0  0  0  0  0
   56.4730   25.1740   45.0360 C   0  0  0  0  0  0  0  0  0  0  0  0
   56.9990   24.5010   43.9180 C   0  0  0  0  0  0  0  0  0  0  0  0
   56.5970   23.1910   43.6310 C   0  0  0  0  0  0  0  0  0  0  0  0
   55.6770   22.5410   44.4590 C   0  0  0  0  0  0  0  0  0  0  0  0
   55.1660   23.1960   45.5820 C   0  0  0  0  0  0  0  0  0  0  0  0
   55.5660   24.5040   45.8730 C   0  0  0  0  0  0  0  0  0  0  0  0
   59.5177   28.5824   44.8796 H   0  0  0  0  0  0  0  0  0  0  0  0
   61.6821   29.8075   45.0306 H   0  0  0  0  0  0  0  0  0  0  0  0
   64.6410   32.8441   49.3520 H   0  0  0  0  0  0  0  0  0  0  0  0
   64.1961   33.8493   51.5934 H   0  0  0  0  0  0  0  0  0  0  0  0
   61.8938   34.6451   52.1521 H   0  0  0  0  0  0  0  0  0  0  0  0
   60.8140   35.2523   46.9347 H   0  0  0  0  0  0  0  0  0  0  0  0
   61.0879   33.6467   46.1481 H   0  0  0  0  0  0  0  0  0  0  0  0
   58.4578   35.1526   46.5042 H   0  0  0  0  0  0  0  0  0  0  0  0
   59.2505   34.6339   44.9783 H   0  0  0  0  0  0  0  0  0  0  0  0
   58.7195   33.9453   43.5603 H   0  0  0  0  0  0  0  0  0  0  0  0
   57.9574   32.7945   41.4824 H   0  0  0  0  0  0  0  0  0  0  0  0
   56.7383   30.6213   41.6293 H   0  0  0  0  0  0  0  0  0  0  0  0
   56.2771   29.5956   43.8581 H   0  0  0  0  0  0  0  0  0  0  0  0
   57.0291   30.7391   45.9427 H   0  0  0  0  0  0  0  0  0  0  0  0
   57.0803   32.4215   47.6326 H   0  0  0  0  0  0  0  0  0  0  0  0
   58.5531   31.4078   47.3305 H   0  0  0  0  0  0  0  0  0  0  0  0
   58.3308   34.0533   48.8189 H   0  0  0  0  0  0  0  0  0  0  0  0
   59.0132   32.4822   49.3798 H   0  0  0  0  0  0  0  0  0  0  0  0
   60.9075   30.6670   49.2003 H   0  0  0  0  0  0  0  0  0  0  0  0
   58.7453   29.4406   49.0515 H   0  0  0  0  0  0  0  0  0  0  0  0
   56.7670   27.2590   44.6520 H   0  0  0  0  0  0  0  0  0  0  0  0
   57.7284   25.0057   43.2674 H   0  0  0  0  0  0  0  0  0  0  0  0
   57.0061   22.6718   42.7517 H   0  0  0  0  0  0  0  0  0  0  0  0
   55.3559   21.5149   44.2264 H   0  0  0  0  0  0  0  0  0  0  0  0
   54.4481   22.6823   46.2382 H   0  0  0  0  0  0  0  0  0  0  0  0
   55.1674   25.0116   46.7638 H   0  0  0  0  0  0  0  0  0  0  0  0
  1  2  2  0
  2  3  1  0
  3  4  1  0
  4  5  2  0
  5  6  1  0
  6  7  2  0
  7  8  1  0
  8  9  1  0
  9 10  2  0
  9 11  1  0
 11 12  2  0
 12 13  1  0
 13 14  2  0
 14 15  1  0
 15 16  2  0
 16 17  1  0
 17 18  1  0
 18 19  1  0
 19 20  1  0
 20 21  1  0
 21 22  2  0
 22 23  1  0
 23 24  2  0
 24 25  1  0
 25 26  2  0
 20 27  1  0
 27 28  1  0
  7 29  1  0
 29 30  2  0
  2 31  1  0
 31 32  1  0
 32 33  2  0
 33 34  1  0
 34 35  2  0
 35 36  1  0
 36 37  2  0
 30  4  1  0
 37 32  1  0
 16 11  1  0
 28 17  1  0
 26 21  1  0
  5 38  1  0
  6 39  1  0
 12 40  1  0
 13 41  1  0
 14 42  1  0
 18 43  1  0
 18 44  1  0
 19 45  1  0
 19 46  1  0
 22 47  1  0
 23 48  1  0
 24 49  1  0
 25 50  1  0
 26 51  1  0
 27 52  1  0
 27 53  1  0
 28 54  1  0
 28 55  1  0
 29 56  1  0
 30 57  1  0
 31 58  1  0
 33 59  1  0
 34 60  1  0
 35 61  1  0
 36 62  1  0
 37 63  1  0
M  CHG  2   3  -1   8  -1
M  END
>  <UniqueID>  (66) 
61

>  <SMILES>  (66) 
O=C([N-]c1ccc([N-]C(=O)c2cccnc2N2CCN(c3ccccc3)CC2)cc1)Nc1ccccc1

>  <Energy>  (66) 
92.61009160281976

>  <Genealogy>  (66) 
O=C([N-]c1ccc([N-]C(=O)c2cccnc2N2CCN(c3ccccc3)CC2)cc1)Nc1ccccc1 (protonated)
O=C([N-]c1ccc([N-]C(=O)c2cccnc2N2CCN(c3ccccc3)CC2)cc1)Nc1ccccc1 (3D coordinates assigned)
O=C([N-]c1ccc([N-]C(=O)c2cccnc2N2CCN(c3ccccc3)CC2)cc1)Nc1ccccc1 (nonaromatic ring conformer: 92.61009160281976 kcal/mol)

>  <smiles>  (66) 
O=C(Nc1ccccc1)Nc1ccc(NC(=O)c2cccnc2N2CCN(c3ccccc3)CC2)cc1

>  <score_type>  (66) 
oracle

>  <origin>  (66) 
adg

>  <m_score__min__energy>  (66) 
-12.460000000000001

>  <m_primary>  (66) 
energy

$$$$
66:0
     RDKit          3D

 40 42  0  0  0  0  0  0  0  0999 V2000
   57.1157   21.2661   43.4947 H   0  0  0  0  0  0  0  0  0  0  0  0
   56.9570   22.1260   44.1620 C   0  0  0  0  0  0  0  0  0  0  0  0
   55.8820   22.9910   43.9430 C   0  0  0  0  0  0  0  0  0  0  0  0
   55.1989   22.8163   43.0987 H   0  0  0  0  0  0  0  0  0  0  0  0
   55.6740   24.0790   44.7970 C   0  0  0  0  0  0  0  0  0  0  0  0
   54.8363   24.7672   44.6111 H   0  0  0  0  0  0  0  0  0  0  0  0
   56.5260   24.2980   45.8880 C   0  0  0  0  0  0  0  0  0  0  0  0
   56.2970   25.4470   46.7220 N   0  0  0  0  0  0  0  0  0  0  0  0
   56.6260   26.6790   46.4630 C   0  0  0  0  0  0  0  0  0  0  0  0
   55.8970   27.4390   45.6020 N   0  0  0  0  0  0  0  0  0  0  0  0
   56.2730   28.7130   45.3230 C   0  0  0  0  0  0  0  0  0  0  0  0
   55.5600   29.4240   44.5030 N   0  0  0  0  0  0  0  0  0  0  0  0
   56.0330   29.8780   43.1960 C   0  0  0  0  0  0  0  0  0  0  0  0
   55.1735   30.1975   42.5885 H   0  0  0  0  0  0  0  0  0  0  0  0
   56.5576   29.0511   42.6949 H   0  0  0  0  0  0  0  0  0  0  0  0
   56.9950   31.0510   43.3670 C   0  0  0  0  0  0  0  0  0  0  0  0
   56.6676   31.8835   42.7268 H   0  0  0  0  0  0  0  0  0  0  0  0
   58.0059   30.7256   43.0802 H   0  0  0  0  0  0  0  0  0  0  0  0
   57.0200   31.4960   44.7580 N   0  0  0  0  0  0  0  0  0  0  0  0
   57.9270   31.1950   45.1820 H   0  0  0  0  0  0  0  0  0  0  0  0
   56.2680   30.9810   45.2700 H   0  0  0  0  0  0  0  0  0  0  0  0
   57.3890   29.2250   45.9060 N   0  0  0  0  0  0  0  0  0  0  0  0
   58.1230   28.4750   46.7680 C   0  0  0  0  0  0  0  0  0  0  0  0
   59.2090   28.9410   47.3140 N   0  0  0  0  0  0  0  0  0  0  0  0
   59.6750   30.3010   47.2820 C   0  0  0  0  0  0  0  0  0  0  0  0
   58.8050   31.3950   47.4570 C   0  0  0  0  0  0  0  0  0  0  0  0
   57.7282   31.2217   47.6004 H   0  0  0  0  0  0  0  0  0  0  0  0
   59.3060   32.7010   47.4490 C   0  0  0  0  0  0  0  0  0  0  0  0
   58.6206   33.5529   47.5697 H   0  0  0  0  0  0  0  0  0  0  0  0
   60.6750   32.9250   47.2880 C   0  0  0  0  0  0  0  0  0  0  0  0
   61.0658   33.9531   47.2714 H   0  0  0  0  0  0  0  0  0  0  0  0
   61.5480   31.8440   47.1480 C   0  0  0  0  0  0  0  0  0  0  0  0
   62.6274   32.0212   47.0321 H   0  0  0  0  0  0  0  0  0  0  0  0
   61.0520   30.5370   47.1550 C   0  0  0  0  0  0  0  0  0  0  0  0
   61.7456   29.6885   47.0604 H   0  0  0  0  0  0  0  0  0  0  0  0
   57.7430   27.2000   47.0320 N   0  0  0  0  0  0  0  0  0  0  0  0
   57.6250   23.4390   46.0840 C   0  0  0  0  0  0  0  0  0  0  0  0
   58.3240   23.6233   46.9131 H   0  0  0  0  0  0  0  0  0  0  0  0
   57.8300   22.3530   45.2280 C   0  0  0  0  0  0  0  0  0  0  0  0
   58.6807   21.6759   45.3945 H   0  0  0  0  0  0  0  0  0  0  0  0
  1  2  1  0
  2  3  2  0
  3  4  1  0
  3  5  1  0
  5  6  1  0
  5  7  2  0
  7  8  1  0
  8  9  2  3
  9 10  1  0
 10 11  1  0
 11 12  2  0
 12 13  1  0
 13 14  1  0
 13 15  1  0
 13 16  1  0
 16 17  1  0
 16 18  1  0
 16 19  1  0
 19 20  1  0
 19 21  1  0
 11 22  1  0
 22 23  1  0
 23 24  2  0
 24 25  1  0
 25 26  2  0
 26 27  1  0
 26 28  1  0
 28 29  1  0
 28 30  2  0
 30 31  1  0
 30 32  1  0
 32 33  1  0
 32 34  2  0
 34 35  1  0
 23 36  1  0
  7 37  1  0
 37 38  1  0
 37 39  2  0
 39 40  1  0
 39  2  1  0
 36  9  1  0
 34 25  1  0
M  CHG  3  10  -1  22  -1  36  -1
M  END
>  <UniqueID>  (67) 
62

>  <SMILES>  (67) 
NCC/N=c1/[n-]c(=Nc2ccccc2)[n-]/c(=N/c2ccccc2)[n-]1

>  <Energy>  (67) 
50.601843244075155

>  <Genealogy>  (67) 
NCCN=c1[n-]c(=Nc2ccccc2)[n-]c(=Nc2ccccc2)[n-]1 (protonated)
NCC/N=c1/[n-]c(=Nc2ccccc2)[n-]/c(=N/c2ccccc2)[n-]1 (cis-trans isomerization)
NCC/N=c1/[n-]c(=Nc2ccccc2)[n-]/c(=N/c2ccccc2)[n-]1 (3D coordinates assigned)
NCC/N=c1/[n-]c(=Nc2ccccc2)[n-]/c(=N/c2ccccc2)[n-]1 (optimized conformer: 50.601843244075155 kcal/mol)

>  <smiles>  (67) 
NCCN=c1[nH]c(=Nc2ccccc2)[nH]c(=Nc2ccccc2)[nH]1

>  <score_type>  (67) 
oracle

>  <origin>  (67) 
adg

>  <m_score__min__energy>  (67) 
-11.640000000000001

>  <m_primary>  (67) 
energy

$$$$
67:0
     RDKit          3D

 50 54  0  0  1  0  0  0  0  0999 V2000
   59.7310   29.1400   49.0190 C   0  0  0  0  0  0  0  0  0  0  0  0
   59.3210   29.3790   47.6070 C   0  0  0  0  0  0  0  0  0  0  0  0
   59.1140   28.3570   46.7040 C   0  0  0  0  0  0  0  0  0  0  0  0
   58.7340   28.6460   45.4050 C   0  0  0  0  0  0  0  0  0  0  0  0
   58.5560   27.6720   44.6080 N   0  0  0  0  0  0  0  0  0  0  0  0
   58.6800   26.2690   44.9280 C   0  0  0  0  0  0  0  0  0  0  0  0
   57.3070   25.7080   45.1480 C   0  0  0  0  0  0  0  0  0  0  0  0
   56.9220   24.5420   44.5250 C   0  0  0  0  0  0  0  0  0  0  0  0
   55.6350   24.0760   44.7720 C   0  0  0  0  0  0  0  0  0  0  0  0
   54.7520   24.7280   45.6020 C   0  0  0  0  0  0  0  0  0  0  0  0
   55.1640   25.8670   46.1950 N   0  0  0  0  0  0  0  0  0  0  0  0
   56.3910   26.3290   45.9710 C   0  0  0  0  0  0  0  0  0  0  0  0
   58.5520   29.9110   44.9790 N   0  0  0  0  0  0  0  0  0  0  0  0
   58.1960   30.4570   43.8110 N   0  0  0  0  0  0  0  0  0  0  0  0
   58.1650   31.8030   43.9320 C   0  0  0  0  0  0  0  0  0  0  0  0
   58.5170   32.1130   45.2290 C   0  0  0  0  0  0  0  0  0  0  0  0
   58.6660   33.6750   46.0030 S   0  0  0  0  0  0  0  0  0  0  0  0
   59.3040   34.6770   45.0600 O   0  0  0  0  0  0  0  0  0  0  0  0
   57.2600   34.2090   46.2300 O   0  0  0  0  0  0  0  0  0  0  0  0
   59.5760   33.6420   47.4730 C   0  0  0  0  0  0  0  0  0  0  0  0
   58.9230   33.5680   48.7120 C   0  0  0  0  0  0  0  0  0  0  0  0
   59.6220   33.5470   49.9000 C   0  0  0  0  0  0  0  0  0  0  0  0
   61.0020   33.5990   49.9220 C   0  0  0  0  0  0  0  0  0  0  0  0
   61.6500   33.6720   48.7170 C   0  0  0  0  0  0  0  0  0  0  0  0
   63.0430   33.7210   48.7660 C   0  0  0  0  0  0  0  0  0  0  0  0
   63.7510   33.7930   47.5860 C   0  0  0  0  0  0  0  0  0  0  0  0
   63.0570   33.8130   46.3940 C   0  0  0  0  0  0  0  0  0  0  0  0
   61.6800   33.7640   46.3710 C   0  0  0  0  0  0  0  0  0  0  0  0
   60.9500   33.6920   47.5360 C   0  0  0  0  0  0  0  0  0  0  0  0
   58.7580   30.9130   45.8780 C   0  0  0  0  0  0  0  0  0  0  0  0
   59.1320   30.6350   47.1570 N   0  0  0  0  0  0  0  0  0  0  0  0
   58.9826   29.5762   49.6970 H   0  0  0  0  0  0  0  0  0  0  0  0
   59.8043   28.0577   49.2014 H   0  0  0  0  0  0  0  0  0  0  0  0
   60.7089   29.6096   49.2014 H   0  0  0  0  0  0  0  0  0  0  0  0
   59.2511   27.3113   47.0167 H   0  0  0  0  0  0  0  0  0  0  0  0
   59.1679   25.7403   44.0958 H   0  0  0  0  0  0  0  0  0  0  0  0
   59.2889   26.1417   45.8352 H   0  0  0  0  0  0  0  0  0  0  0  0
   57.6068   23.9992   43.8568 H   0  0  0  0  0  0  0  0  0  0  0  0
   55.3089   23.1463   44.2828 H   0  0  0  0  0  0  0  0  0  0  0  0
   53.7407   24.3321   45.7765 H   0  0  0  0  0  0  0  0  0  0  0  0
   56.6928   27.2609   46.4715 H   0  0  0  0  0  0  0  0  0  0  0  0
   57.9700   29.9260   42.9190 H   0  0  0  0  0  0  0  0  0  0  0  0
   57.9060   32.5208   43.1398 H   0  0  0  0  0  0  0  0  0  0  0  0
   57.8241   33.5256   48.7365 H   0  0  0  0  0  0  0  0  0  0  0  0
   59.0696   33.4876   50.8494 H   0  0  0  0  0  0  0  0  0  0  0  0
   61.5593   33.5824   50.8702 H   0  0  0  0  0  0  0  0  0  0  0  0
   63.5686   33.7025   49.7321 H   0  0  0  0  0  0  0  0  0  0  0  0
   64.8502   33.8338   47.5944 H   0  0  0  0  0  0  0  0  0  0  0  0
   63.6120   33.8690   45.4460 H   0  0  0  0  0  0  0  0  0  0  0  0
   61.1548   33.7827   45.4047 H   0  0  0  0  0  0  0  0  0  0  0  0
  1  2  1  0
  2  3  2  0
  3  4  1  0
  4  5  2  0
  5  6  1  0
  6  7  1  0
  7  8  2  0
  8  9  1  0
  9 10  2  0
 10 11  1  0
 11 12  2  0
  4 13  1  0
 13 14  1  0
 14 15  1  0
 15 16  2  0
 16 17  1  0
 17 18  2  0
 17 19  2  0
 17 20  1  0
 20 21  2  0
 21 22  1  0
 22 23  2  0
 23 24  1  0
 24 25  2  0
 25 26  1  0
 26 27  2  0
 27 28  1  0
 28 29  2  0
 16 30  1  0
 30 31  2  0
 31  2  1  0
 12  7  1  0
 30 13  1  0
 29 20  1  0
 29 24  1  0
  1 32  1  0
  1 33  1  0
  1 34  1  0
  3 35  1  0
  6 36  1  0
  6 37  1  0
  8 38  1  0
  9 39  1  0
 10 40  1  0
 12 41  1  0
 14 42  1  0
 15 43  1  0
 21 44  1  0
 22 45  1  0
 23 46  1  0
 25 47  1  0
 26 48  1  0
 27 49  1  0
 28 50  1  0
M  END
>  <smiles>  (68) 
Cc1cc(=NCc2cccnc2)n2[nH]cc(S(=O)(=O)c3cccc4ccccc34)c2n1

>  <score_type>  (68) 
oracle

>  <origin>  (68) 
adg

>  <m_score__min__energy>  (68) 
-9.8499999999999996

>  <m_primary>  (68) 
energy

$$$$
68:0
     RDKit          3D

 44 46  0  0  0  0  0  0  0  0999 V2000
   55.6890   29.7690   44.1070 C   0  0  0  0  0  0  0  0  0  0  0  0
   56.8640   30.7000   43.8390 C   0  0  0  0  0  0  0  0  0  0  0  0
   57.0490   31.6000   44.9300 O   0  0  0  0  0  0  0  0  0  0  0  0
   57.9150   32.7000   44.8880 C   0  0  0  0  0  0  0  0  0  0  0  0
   57.9840   33.4070   43.8470 O   0  0  0  0  0  0  0  0  0  0  0  0
   58.7050   33.1060   46.0710 C   0  0  0  0  0  0  0  0  0  0  0  0
   59.4250   32.2870   46.8820 C   0  0  0  0  0  0  0  0  0  0  0  0
   58.7270   31.0950   47.5540 C   0  0  0  0  0  0  0  0  0  0  0  0
   59.6140   30.1250   48.2200 N   0  0  0  0  0  0  0  0  0  0  0  0
   60.4180   29.3550   47.2480 C   0  0  0  0  0  0  0  0  0  0  0  0
   59.5230   28.5690   46.3280 C   0  0  0  0  0  0  0  0  0  0  0  0
   58.4800   27.7910   46.8570 C   0  0  0  0  0  0  0  0  0  0  0  0
   57.6440   27.0600   46.0070 C   0  0  0  0  0  0  0  0  0  0  0  0
   57.8390   27.1050   44.6240 C   0  0  0  0  0  0  0  0  0  0  0  0
   58.8700   27.8810   44.0890 C   0  0  0  0  0  0  0  0  0  0  0  0
   59.7090   28.6140   44.9350 C   0  0  0  0  0  0  0  0  0  0  0  0
   60.6190   30.9770   49.3550 S   0  0  0  0  0  0  0  0  0  0  0  0
   59.7720   31.6310   50.4110 O   0  0  0  0  0  0  0  0  0  0  0  0
   61.5950   30.0370   50.0020 O   0  0  0  0  0  0  0  0  0  0  0  0
   61.4470   32.1910   48.4160 C   0  0  0  0  0  0  0  0  0  0  0  0
   62.7400   32.5890   48.7810 C   0  0  0  0  0  0  0  0  0  0  0  0
   63.4740   33.4300   47.9470 C   0  0  0  0  0  0  0  0  0  0  0  0
   62.9320   33.8490   46.7340 C   0  0  0  0  0  0  0  0  0  0  0  0
   61.6410   33.4590   46.3670 C   0  0  0  0  0  0  0  0  0  0  0  0
   60.8530   32.6540   47.2230 C   0  0  0  0  0  0  0  0  0  0  0  0
   55.5491   29.6582   45.1924 H   0  0  0  0  0  0  0  0  0  0  0  0
   54.7768   30.1921   43.6611 H   0  0  0  0  0  0  0  0  0  0  0  0
   55.8923   28.7842   43.6611 H   0  0  0  0  0  0  0  0  0  0  0  0
   57.7769   30.1011   43.7054 H   0  0  0  0  0  0  0  0  0  0  0  0
   56.6553   31.2825   42.9296 H   0  0  0  0  0  0  0  0  0  0  0  0
   58.7102   34.1777   46.3189 H   0  0  0  0  0  0  0  0  0  0  0  0
   58.0333   31.4922   48.3096 H   0  0  0  0  0  0  0  0  0  0  0  0
   58.2341   30.5406   46.7418 H   0  0  0  0  0  0  0  0  0  0  0  0
   61.0286   30.0497   46.6525 H   0  0  0  0  0  0  0  0  0  0  0  0
   61.0655   28.6556   47.7971 H   0  0  0  0  0  0  0  0  0  0  0  0
   58.3200   27.7566   47.9448 H   0  0  0  0  0  0  0  0  0  0  0  0
   56.8319   26.4488   46.4276 H   0  0  0  0  0  0  0  0  0  0  0  0
   57.1807   26.5294   43.9567 H   0  0  0  0  0  0  0  0  0  0  0  0
   59.0225   27.9158   43.0002 H   0  0  0  0  0  0  0  0  0  0  0  0
   60.5167   29.2274   44.5092 H   0  0  0  0  0  0  0  0  0  0  0  0
   63.1763   32.2370   49.7274 H   0  0  0  0  0  0  0  0  0  0  0  0
   64.4791   33.7623   48.2457 H   0  0  0  0  0  0  0  0  0  0  0  0
   63.5225   34.4894   46.0623 H   0  0  0  0  0  0  0  0  0  0  0  0
   61.2317   33.7826   45.3986 H   0  0  0  0  0  0  0  0  0  0  0  0
  1  2  1  0
  2  3  1  0
  3  4  1  0
  4  5  2  0
  4  6  1  0
  6  7  2  3
  7  8  1  0
  8  9  1  0
  9 10  1  0
 10 11  1  0
 11 12  2  0
 12 13  1  0
 13 14  2  0
 14 15  1  0
 15 16  2  0
  9 17  1  0
 17 18  2  0
 17 19  2  0
 17 20  1  0
 20 21  2  0
 21 22  1  0
 22 23  2  0
 23 24  1  0
 24 25  2  0
 25  7  1  0
 16 11  1  0
 25 20  1  0
  1 26  1  0
  1 27  1  0
  1 28  1  0
  2 29  1  0
  2 30  1  0
  6 31  1  0
  8 32  1  0
  8 33  1  0
 10 34  1  0
 10 35  1  0
 12 36  1  0
 13 37  1  0
 14 38  1  0
 15 39  1  0
 16 40  1  0
 21 41  1  0
 22 42  1  0
 23 43  1  0
 24 44  1  0
M  END
>  <UniqueID>  (69) 
63

>  <SMILES>  (69) 
CCOC(=O)C=C1CN(Cc2ccccc2)S(=O)(=O)c2ccccc21

>  <Energy>  (69) 
57.79312893201162

>  <Genealogy>  (69) 
CCOC(=O)C=C1CN(Cc2ccccc2)S(=O)(=O)c2ccccc21 (3D coordinates assigned)
CCOC(=O)C=C1CN(Cc2ccccc2)S(=O)(=O)c2ccccc21 (nonaromatic ring conformer: 57.79312893201162 kcal/mol)

>  <smiles>  (69) 
CCOC(=O)C=C1CN(Cc2ccccc2)S(=O)(=O)c2ccccc21

>  <score_type>  (69) 
oracle

>  <origin>  (69) 
adg

>  <m_score__min__energy>  (69) 
-8.5199999999999996

>  <m_primary>  (69) 
energy

$$$$
69:0
     RDKit          3D

 48 51  0  0  0  0  0  0  0  0999 V2000
   56.8630   29.8330   44.3150 C   0  0  0  0  0  0  0  0  0  0  0  0
   57.5610   31.1250   44.3620 N   0  0  0  0  0  0  0  0  0  0  0  0
   57.7550   31.8750   43.2230 C   0  0  0  0  0  0  0  0  0  0  0  0
   57.3590   31.4480   42.1040 O   0  0  0  0  0  0  0  0  0  0  0  0
   58.3760   33.0970   43.2920 N   0  0  0  0  0  0  0  0  0  0  0  0
   58.8040   33.6160   44.4800 C   0  0  0  0  0  0  0  0  0  0  0  0
   59.3620   34.7440   44.5140 O   0  0  0  0  0  0  0  0  0  0  0  0
   58.5920   32.8640   45.6340 C   0  0  0  0  0  0  0  0  0  0  0  0
   57.9750   31.6530   45.5490 C   0  0  0  0  0  0  0  0  0  0  0  0
   57.8500   31.0890   46.7650 N   0  0  0  0  0  0  0  0  0  0  0  0
   58.4200   32.0160   47.5790 C   0  0  0  0  0  0  0  0  0  0  0  0
   58.5200   31.8690   48.8670 N   0  0  0  0  0  0  0  0  0  0  0  0
   59.2910   30.8150   49.5250 C   0  0  0  0  0  0  0  0  0  0  0  0
   60.5810   30.5040   48.7550 C   0  0  0  0  0  0  0  0  0  0  0  0
   60.3270   29.5400   47.6240 C   0  0  0  0  0  0  0  0  0  0  0  0
   60.7810   29.8340   46.3270 C   0  0  0  0  0  0  0  0  0  0  0  0
   60.5080   28.9590   45.2710 C   0  0  0  0  0  0  0  0  0  0  0  0
   59.7780   27.7900   45.5010 C   0  0  0  0  0  0  0  0  0  0  0  0
   59.3150   27.4960   46.7870 C   0  0  0  0  0  0  0  0  0  0  0  0
   59.5840   28.3690   47.8460 C   0  0  0  0  0  0  0  0  0  0  0  0
   58.8790   33.1180   46.9270 N   0  0  0  0  0  0  0  0  0  0  0  0
   59.5790   34.2580   47.5270 C   0  0  0  0  0  0  0  0  0  0  0  0
   61.0370   33.9320   47.7150 C   0  0  0  0  0  0  0  0  0  0  0  0
   61.8720   33.7470   46.6000 C   0  0  0  0  0  0  0  0  0  0  0  0
   63.2330   33.4810   46.7750 C   0  0  0  0  0  0  0  0  0  0  0  0
   63.7720   33.4060   48.0620 C   0  0  0  0  0  0  0  0  0  0  0  0
   62.9510   33.5970   49.1760 C   0  0  0  0  0  0  0  0  0  0  0  0
   61.5880   33.8640   49.0050 C   0  0  0  0  0  0  0  0  0  0  0  0
   56.6730   29.4814   45.3398 H   0  0  0  0  0  0  0  0  0  0  0  0
   55.9065   29.9521   43.7850 H   0  0  0  0  0  0  0  0  0  0  0  0
   57.4869   29.0983   43.7850 H   0  0  0  0  0  0  0  0  0  0  0  0
   58.5180   33.6470   42.4140 H   0  0  0  0  0  0  0  0  0  0  0  0
   59.5512   31.1433   50.5421 H   0  0  0  0  0  0  0  0  0  0  0  0
   58.6766   29.9031   49.5554 H   0  0  0  0  0  0  0  0  0  0  0  0
   60.9867   31.4399   48.3434 H   0  0  0  0  0  0  0  0  0  0  0  0
   61.2966   30.0413   49.4505 H   0  0  0  0  0  0  0  0  0  0  0  0
   61.3529   30.7553   46.1419 H   0  0  0  0  0  0  0  0  0  0  0  0
   60.8684   29.1912   44.2580 H   0  0  0  0  0  0  0  0  0  0  0  0
   59.5675   27.1008   44.6699 H   0  0  0  0  0  0  0  0  0  0  0  0
   58.7382   26.5766   46.9662 H   0  0  0  0  0  0  0  0  0  0  0  0
   59.2127   28.1379   48.8553 H   0  0  0  0  0  0  0  0  0  0  0  0
   59.4843   35.1317   46.8655 H   0  0  0  0  0  0  0  0  0  0  0  0
   59.1312   34.4790   48.5071 H   0  0  0  0  0  0  0  0  0  0  0  0
   61.4527   33.8118   45.5851 H   0  0  0  0  0  0  0  0  0  0  0  0
   63.8805   33.3305   45.8986 H   0  0  0  0  0  0  0  0  0  0  0  0
   64.8433   33.1965   48.1980 H   0  0  0  0  0  0  0  0  0  0  0  0
   63.3764   33.5375   50.1887 H   0  0  0  0  0  0  0  0  0  0  0  0
   60.9459   34.0212   49.8842 H   0  0  0  0  0  0  0  0  0  0  0  0
  1  2  1  0
  2  3  1  0
  3  4  2  0
  3  5  1  0
  5  6  1  0
  6  7  2  0
  6  8  1  0
  8  9  2  0
  9 10  1  0
 10 11  1  0
 11 12  2  3
 12 13  1  0
 13 14  1  0
 14 15  1  0
 15 16  2  0
 16 17  1  0
 17 18  2  0
 18 19  1  0
 19 20  2  0
 11 21  1  0
 21 22  1  0
 22 23  1  0
 23 24  2  0
 24 25  1  0
 25 26  2  0
 26 27  1  0
 27 28  2  0
  9  2  1  0
 20 15  1  0
 28 23  1  0
 21  8  1  0
  1 29  1  0
  1 30  1  0
  1 31  1  0
  5 32  1  0
 13 33  1  0
 13 34  1  0
 14 35  1  0
 14 36  1  0
 16 37  1  0
 17 38  1  0
 18 39  1  0
 19 40  1  0
 20 41  1  0
 22 42  1  0
 22 43  1  0
 24 44  1  0
 25 45  1  0
 26 46  1  0
 27 47  1  0
 28 48  1  0
M  CHG  1  10  -1
M  END
>  <UniqueID>  (70) 
64

>  <SMILES>  (70) 
Cn1c(=O)[nH]c(=O)c2c1[n-]c(=NCCc1ccccc1)n2Cc1ccccc1

>  <Energy>  (70) 
90.91555278705299

>  <Genealogy>  (70) 
Cn1c(=O)[nH]c(=O)c2c1[n-]c(=NCCc1ccccc1)n2Cc1ccccc1 (protonated)
Cn1c(=O)[nH]c(=O)c2c1[n-]c(=NCCc1ccccc1)n2Cc1ccccc1 (3D coordinates assigned)
Cn1c(=O)[nH]c(=O)c2c1[n-]c(=NCCc1ccccc1)n2Cc1ccccc1 (optimized conformer: 90.91555278705299 kcal/mol)

>  <smiles>  (70) 
Cn1c(=O)[nH]c(=O)c2c1[nH]c(=NCCc1ccccc1)n2Cc1ccccc1

>  <score_type>  (70) 
oracle

>  <origin>  (70) 
adg

>  <m_score__min__energy>  (70) 
-9.8800000000000008

>  <m_primary>  (70) 
energy

$$$$
70:0
     RDKit          3D

 45 48  0  0  0  0  0  0  0  0999 V2000
   60.5920   34.2160   49.7660 C   0  0  0  0  0  0  0  0  0  0  0  0
   61.5950   33.8680   48.7050 C   0  0  0  0  0  0  0  0  0  0  0  0
   62.9360   33.6410   49.0640 C   0  0  0  0  0  0  0  0  0  0  0  0
   63.8910   33.3480   48.0890 C   0  0  0  0  0  0  0  0  0  0  0  0
   63.5210   33.2800   46.7460 C   0  0  0  0  0  0  0  0  0  0  0  0
   62.1940   33.5030   46.3740 C   0  0  0  0  0  0  0  0  0  0  0  0
   61.2210   33.7980   47.3440 C   0  0  0  0  0  0  0  0  0  0  0  0
   59.8530   33.9910   46.9350 N   0  0  0  0  0  0  0  0  0  0  0  0
   59.2940   35.3460   47.0070 C   0  0  0  0  0  0  0  0  0  0  0  0
   59.1510   32.9220   46.2510 C   0  0  0  0  0  0  0  0  0  0  0  0
   58.8060   33.0820   44.9360 N   0  0  0  0  0  0  0  0  0  0  0  0
   58.1040   32.1320   44.2570 C   0  0  0  0  0  0  0  0  0  0  0  0
   57.7500   32.3160   42.9120 C   0  0  0  0  0  0  0  0  0  0  0  0
   57.0230   31.3280   42.2380 C   0  0  0  0  0  0  0  0  0  0  0  0
   56.6450   30.1570   42.9040 C   0  0  0  0  0  0  0  0  0  0  0  0
   56.9940   29.9680   44.2450 C   0  0  0  0  0  0  0  0  0  0  0  0
   57.7210   30.9530   44.9220 C   0  0  0  0  0  0  0  0  0  0  0  0
   58.0700   30.7790   46.2190 N   0  0  0  0  0  0  0  0  0  0  0  0
   58.7770   31.7150   46.9050 C   0  0  0  0  0  0  0  0  0  0  0  0
   59.1510   31.4000   48.2930 C   0  0  0  0  0  0  0  0  0  0  0  0
   60.1900   30.4970   48.5610 C   0  0  0  0  0  0  0  0  0  0  0  0
   60.5290   30.1900   49.8830 C   0  0  0  0  0  0  0  0  0  0  0  0
   59.8230   30.7700   50.9400 C   0  0  0  0  0  0  0  0  0  0  0  0
   60.1520   30.4710   52.2210 F   0  0  0  0  0  0  0  0  0  0  0  0
   58.7670   31.6490   50.6770 C   0  0  0  0  0  0  0  0  0  0  0  0
   58.4240   31.9560   49.3570 C   0  0  0  0  0  0  0  0  0  0  0  0
   61.0396   34.0607   50.7588 H   0  0  0  0  0  0  0  0  0  0  0  0
   60.2951   35.2697   49.6584 H   0  0  0  0  0  0  0  0  0  0  0  0
   59.7063   33.5726   49.6584 H   0  0  0  0  0  0  0  0  0  0  0  0
   63.2344   33.6948   50.1214 H   0  0  0  0  0  0  0  0  0  0  0  0
   64.9368   33.1705   48.3803 H   0  0  0  0  0  0  0  0  0  0  0  0
   64.2755   33.0504   45.9791 H   0  0  0  0  0  0  0  0  0  0  0  0
   61.9079   33.4473   45.3133 H   0  0  0  0  0  0  0  0  0  0  0  0
   59.1737   35.6375   48.0608 H   0  0  0  0  0  0  0  0  0  0  0  0
   59.9749   36.0506   46.5071 H   0  0  0  0  0  0  0  0  0  0  0  0
   58.3144   35.3655   46.5071 H   0  0  0  0  0  0  0  0  0  0  0  0
   59.0610   33.9660   44.4400 H   0  0  0  0  0  0  0  0  0  0  0  0
   58.0439   33.2369   42.3870 H   0  0  0  0  0  0  0  0  0  0  0  0
   56.7483   31.4724   41.1827 H   0  0  0  0  0  0  0  0  0  0  0  0
   56.0721   29.3834   42.3717 H   0  0  0  0  0  0  0  0  0  0  0  0
   56.6973   29.0462   44.7667 H   0  0  0  0  0  0  0  0  0  0  0  0
   60.7392   30.0294   47.7305 H   0  0  0  0  0  0  0  0  0  0  0  0
   61.3526   29.4910   50.0907 H   0  0  0  0  0  0  0  0  0  0  0  0
   58.2061   32.0989   51.5094 H   0  0  0  0  0  0  0  0  0  0  0  0
   57.5828   32.6345   49.1519 H   0  0  0  0  0  0  0  0  0  0  0  0
  1  2  1  0
  2  3  2  0
  3  4  1  0
  4  5  2  0
  5  6  1  0
  6  7  2  0
  7  8  1  0
  8  9  1  0
  8 10  1  0
 10 11  2  0
 11 12  1  0
 12 13  2  0
 13 14  1  0
 14 15  2  0
 15 16  1  0
 16 17  2  0
 17 18  1  0
 18 19  2  0
 19 20  1  0
 20 21  2  0
 21 22  1  0
 22 23  2  0
 23 24  1  0
 23 25  1  0
 25 26  2  0
  7  2  1  0
 19 10  1  0
 26 20  1  0
 17 12  1  0
  1 27  1  0
  1 28  1  0
  1 29  1  0
  3 30  1  0
  4 31  1  0
  5 32  1  0
  6 33  1  0
  9 34  1  0
  9 35  1  0
  9 36  1  0
 11 37  1  0
 13 38  1  0
 14 39  1  0
 15 40  1  0
 16 41  1  0
 21 42  1  0
 22 43  1  0
 25 44  1  0
 26 45  1  0
M  CHG  1  11   1
M  END
>  <UniqueID>  (71) 
65

>  <SMILES>  (71) 
Cc1ccccc1N(C)c1[nH+]c2ccccc2nc1-c1ccc(F)cc1

>  <Energy>  (71) 
71.33217798845669

>  <Genealogy>  (71) 
Cc1ccccc1N(C)c1[nH+]c2ccccc2nc1-c1ccc(F)cc1 (protonated)
Cc1ccccc1N(C)c1[nH+]c2ccccc2nc1-c1ccc(F)cc1 (3D coordinates assigned)
Cc1ccccc1N(C)c1[nH+]c2ccccc2nc1-c1ccc(F)cc1 (optimized conformer: 71.33217798845669 kcal/mol)

>  <smiles>  (71) 
Cc1ccccc1N(C)c1nc2ccccc2nc1-c1ccc(F)cc1

>  <score_type>  (71) 
oracle

>  <origin>  (71) 
adg

>  <m_score__min__energy>  (71) 
-6.5099999999999998

>  <m_primary>  (71) 
energy

$$$$
71:0
     RDKit          3D

 47 49  0  0  1  0  0  0  0  0999 V2000
   59.1420   27.7290   44.9270 C   0  0  0  0  0  0  0  0  0  0  0  0
   58.2600   28.9150   44.8030 C   0  0  0  0  0  0  0  0  0  0  0  0
   57.1060   28.7520   44.1360 N   0  0  0  0  0  0  0  0  0  0  0  0
   56.2530   29.7820   43.9890 C   0  0  0  0  0  0  0  0  0  0  0  0
   55.1380   29.6600   43.3540 N   0  0  0  0  0  0  0  0  0  0  0  0
   56.5910   30.9870   44.5320 N   0  0  0  0  0  0  0  0  0  0  0  0
   57.7420   31.1680   45.2030 C   0  0  0  0  0  0  0  0  0  0  0  0
   57.9940   32.3350   45.6840 N   0  0  0  0  0  0  0  0  0  0  0  0
   57.5650   33.5820   45.0740 C   0  0  0  0  0  0  0  0  0  0  0  0
   58.7090   34.5710   44.9920 C   0  0  0  0  0  0  0  0  0  0  0  0
   59.6060   34.3090   46.1490 C   0  0  0  0  0  0  0  0  0  0  0  0
   59.1240   34.5810   47.4260 C   0  0  0  0  0  0  0  0  0  0  0  0
   59.9320   34.3450   48.5180 C   0  0  0  0  0  0  0  0  0  0  0  0
   61.2100   33.8490   48.3970 C   0  0  0  0  0  0  0  0  0  0  0  0
   62.2070   33.5650   49.8210 Cl  0  0  0  0  0  0  0  0  0  0  0  0
   61.6920   33.5780   47.1190 C   0  0  0  0  0  0  0  0  0  0  0  0
   60.8840   33.8130   46.0200 C   0  0  0  0  0  0  0  0  0  0  0  0
   58.6460   30.1090   45.3680 C   0  0  0  0  0  0  0  0  0  0  0  0
   59.8890   30.3460   46.0980 C   0  0  0  0  0  0  0  0  0  0  0  0
   59.8230   30.1930   47.5560 C   0  0  0  0  0  0  0  0  0  0  0  0
   60.5150   29.1510   48.1320 C   0  0  0  0  0  0  0  0  0  0  0  0
   60.5430   28.9000   49.4850 C   0  0  0  0  0  0  0  0  0  0  0  0
   59.8390   29.7310   50.3350 C   0  0  0  0  0  0  0  0  0  0  0  0
   59.8520   29.4980   51.7150 O   0  0  0  0  0  0  0  0  0  0  0  0
   59.1460   30.7750   49.7620 C   0  0  0  0  0  0  0  0  0  0  0  0
   58.1520   31.9590   50.9090 Br  0  0  0  0  0  0  0  0  0  0  0  0
   59.1220   31.0210   48.4060 C   0  0  0  0  0  0  0  0  0  0  0  0
   59.3083   27.5054   45.9911 H   0  0  0  0  0  0  0  0  0  0  0  0
   58.6652   26.8651   44.4409 H   0  0  0  0  0  0  0  0  0  0  0  0
   60.1066   27.9370   44.4409 H   0  0  0  0  0  0  0  0  0  0  0  0
   56.8230   27.8350   43.7080 H   0  0  0  0  0  0  0  0  0  0  0  0
   55.1150   29.1450   42.4590 H   0  0  0  0  0  0  0  0  0  0  0  0
   55.9000   31.7570   44.3940 H   0  0  0  0  0  0  0  0  0  0  0  0
   57.1944   33.3765   44.0589 H   0  0  0  0  0  0  0  0  0  0  0  0
   56.7693   34.0191   45.6951 H   0  0  0  0  0  0  0  0  0  0  0  0
   59.2597   34.4318   44.0500 H   0  0  0  0  0  0  0  0  0  0  0  0
   58.3324   35.6042   45.0182 H   0  0  0  0  0  0  0  0  0  0  0  0
   58.1082   34.9804   47.5628 H   0  0  0  0  0  0  0  0  0  0  0  0
   59.5407   34.5612   49.5231 H   0  0  0  0  0  0  0  0  0  0  0  0
   62.7084   33.1797   46.9837 H   0  0  0  0  0  0  0  0  0  0  0  0
   61.2742   33.5973   45.0144 H   0  0  0  0  0  0  0  0  0  0  0  0
   60.6407   29.6375   45.7198 H   0  0  0  0  0  0  0  0  0  0  0  0
   60.1358   31.4037   45.9237 H   0  0  0  0  0  0  0  0  0  0  0  0
   61.0800   28.4780   47.4702 H   0  0  0  0  0  0  0  0  0  0  0  0
   61.1172   28.0506   49.8835 H   0  0  0  0  0  0  0  0  0  0  0  0
   60.5220   28.8040   52.0470 H   0  0  0  0  0  0  0  0  0  0  0  0
   58.5487   31.8703   48.0060 H   0  0  0  0  0  0  0  0  0  0  0  0
  1  2  1  0
  2  3  1  0
  3  4  1  0
  4  5  2  3
  4  6  1  0
  6  7  1  0
  7  8  2  0
  8  9  1  0
  9 10  1  0
 10 11  1  0
 11 12  2  0
 12 13  1  0
 13 14  2  0
 14 15  1  0
 14 16  1  0
 16 17  2  0
  7 18  1  0
 18 19  1  0
 19 20  1  0
 20 21  2  0
 21 22  1  0
 22 23  2  0
 23 24  1  0
 23 25  1  0
 25 26  1  0
 25 27  2  0
 18  2  2  0
 27 20  1  0
 17 11  1  0
  1 28  1  0
  1 29  1  0
  1 30  1  0
  3 31  1  0
  5 32  1  0
  6 33  1  0
  9 34  1  0
  9 35  1  0
 10 36  1  0
 10 37  1  0
 12 38  1  0
 13 39  1  0
 16 40  1  0
 17 41  1  0
 19 42  1  0
 19 43  1  0
 21 44  1  0
 22 45  1  0
 24 46  1  0
 27 47  1  0
M  END
>  <smiles>  (72) 
Cc1[nH]c(=N)[nH]c(=NCCc2ccc(Cl)cc2)c1Cc1ccc(O)c(Br)c1

>  <score_type>  (72) 
oracle

>  <origin>  (72) 
adg

>  <m_score__min__energy>  (72) 
-8.9000000000000004

>  <m_primary>  (72) 
energy

$$$$
72:0
     RDKit          3D

 60 64  0  0  0  0  0  0  0  0999 V2000
   57.4890   23.9910   48.8490 O   0  0  0  0  0  0  0  0  0  0  0  0
   56.9960   24.0830   47.6930 C   0  0  0  0  0  0  0  0  0  0  0  0
   57.9140   24.2880   46.5270 C   0  0  0  0  0  0  0  0  0  0  0  0
   58.4060   25.6160   46.5510 O   0  0  0  0  0  0  0  0  0  0  0  0
   57.7070   26.6360   45.9490 N   0  0  0  0  0  0  0  0  0  0  0  0
   58.0170   27.8830   46.1270 C   0  0  0  0  0  0  0  0  0  0  0  0
   58.8900   28.4700   47.1510 C   0  0  0  0  0  0  0  0  0  0  0  0
   59.6260   27.8670   48.1780 C   0  0  0  0  0  0  0  0  0  0  0  0
   60.4560   28.6740   48.9700 C   0  0  0  0  0  0  0  0  0  0  0  0
   60.5620   30.0520   48.7150 C   0  0  0  0  0  0  0  0  0  0  0  0
   59.8240   30.6440   47.6780 C   0  0  0  0  0  0  0  0  0  0  0  0
   58.9610   29.8410   46.9250 C   0  0  0  0  0  0  0  0  0  0  0  0
   58.1080   30.1730   45.7670 C   0  0  0  0  0  0  0  0  0  0  0  0
   57.8180   31.3980   45.1330 C   0  0  0  0  0  0  0  0  0  0  0  0
   58.2330   32.6960   45.6850 C   0  0  0  0  0  0  0  0  0  0  0  0
   57.3540   33.5250   46.0420 O   0  0  0  0  0  0  0  0  0  0  0  0
   59.6240   32.9850   45.8740 N   0  0  0  0  0  0  0  0  0  0  0  0
   60.0970   34.2760   46.3700 C   0  0  0  0  0  0  0  0  0  0  0  0
   61.2720   34.0840   47.2900 C   0  0  0  0  0  0  0  0  0  0  0  0
   61.1070   34.2220   48.6780 C   0  0  0  0  0  0  0  0  0  0  0  0
   62.1960   34.0550   49.5370 C   0  0  0  0  0  0  0  0  0  0  0  0
   63.4580   33.7510   49.0170 C   0  0  0  0  0  0  0  0  0  0  0  0
   63.6320   33.6170   47.6370 C   0  0  0  0  0  0  0  0  0  0  0  0
   62.5440   33.7840   46.7740 C   0  0  0  0  0  0  0  0  0  0  0  0
   57.0370   31.3660   43.9590 C   0  0  0  0  0  0  0  0  0  0  0  0
   56.5260   30.1520   43.4660 C   0  0  0  0  0  0  0  0  0  0  0  0
   56.7840   28.9480   44.1360 C   0  0  0  0  0  0  0  0  0  0  0  0
   57.5740   28.9860   45.2830 C   0  0  0  0  0  0  0  0  0  0  0  0
   55.5730   24.0370   47.5420 N   0  0  0  0  0  0  0  0  0  0  0  0
   54.7330   24.1510   46.0300 S   0  0  0  0  0  0  0  0  0  0  0  0
   53.3280   23.6390   46.1690 O   0  0  0  0  0  0  0  0  0  0  0  0
   54.7140   25.5860   45.5850 O   0  0  0  0  0  0  0  0  0  0  0  0
   55.5760   23.1670   44.8390 C   0  0  0  0  0  0  0  0  0  0  0  0
   55.9210   23.7190   43.5970 C   0  0  0  0  0  0  0  0  0  0  0  0
   56.5930   22.9450   42.6450 C   0  0  0  0  0  0  0  0  0  0  0  0
   56.9270   21.6200   42.9320 C   0  0  0  0  0  0  0  0  0  0  0  0
   56.5920   21.0670   44.1720 C   0  0  0  0  0  0  0  0  0  0  0  0
   55.9200   21.8380   45.1250 C   0  0  0  0  0  0  0  0  0  0  0  0
   58.7554   23.5825   46.5924 H   0  0  0  0  0  0  0  0  0  0  0  0
   57.3661   24.1132   45.5893 H   0  0  0  0  0  0  0  0  0  0  0  0
   59.5549   26.7845   48.3598 H   0  0  0  0  0  0  0  0  0  0  0  0
   61.0276   28.2255   49.7959 H   0  0  0  0  0  0  0  0  0  0  0  0
   61.2286   30.6716   49.3329 H   0  0  0  0  0  0  0  0  0  0  0  0
   59.9224   31.7181   47.4618 H   0  0  0  0  0  0  0  0  0  0  0  0
   60.3340   32.2590   45.6210 H   0  0  0  0  0  0  0  0  0  0  0  0
   60.4015   34.9023   45.5185 H   0  0  0  0  0  0  0  0  0  0  0  0
   59.2837   34.7651   46.9261 H   0  0  0  0  0  0  0  0  0  0  0  0
   60.1160   34.4626   49.0904 H   0  0  0  0  0  0  0  0  0  0  0  0
   62.0606   34.1627   50.6233 H   0  0  0  0  0  0  0  0  0  0  0  0
   64.3141   33.6173   49.6946 H   0  0  0  0  0  0  0  0  0  0  0  0
   64.6256   33.3799   47.2290 H   0  0  0  0  0  0  0  0  0  0  0  0
   62.6846   33.6802   45.6880 H   0  0  0  0  0  0  0  0  0  0  0  0
   56.8249   32.3024   43.4222 H   0  0  0  0  0  0  0  0  0  0  0  0
   55.9196   30.1472   42.5482 H   0  0  0  0  0  0  0  0  0  0  0  0
   56.3731   27.9972   43.7655 H   0  0  0  0  0  0  0  0  0  0  0  0
   55.6624   24.7639   43.3706 H   0  0  0  0  0  0  0  0  0  0  0  0
   56.8583   23.3803   41.6702 H   0  0  0  0  0  0  0  0  0  0  0  0
   57.4537   21.0110   42.1826 H   0  0  0  0  0  0  0  0  0  0  0  0
   56.8577   20.0237   44.3978 H   0  0  0  0  0  0  0  0  0  0  0  0
   55.6607   21.4015   46.1008 H   0  0  0  0  0  0  0  0  0  0  0  0
  1  2  2  0
  2  3  1  0
  3  4  1  0
  4  5  1  0
  5  6  2  3
  6  7  1  0
  7  8  2  0
  8  9  1  0
  9 10  2  0
 10 11  1  0
 11 12  2  0
 12 13  1  0
 13 14  2  0
 14 15  1  0
 15 16  2  0
 15 17  1  0
 17 18  1  0
 18 19  1  0
 19 20  2  0
 20 21  1  0
 21 22  2  0
 22 23  1  0
 23 24  2  0
 14 25  1  0
 25 26  2  0
 26 27  1  0
 27 28  2  0
  2 29  1  0
 29 30  1  0
 30 31  2  0
 30 32  2  0
 30 33  1  0
 33 34  2  0
 34 35  1  0
 35 36  2  0
 36 37  1  0
 37 38  2  0
 28  6  1  0
 38 33  1  0
 12  7  1  0
 28 13  1  0
 24 19  1  0
  3 39  1  0
  3 40  1  0
  8 41  1  0
  9 42  1  0
 10 43  1  0
 11 44  1  0
 17 45  1  0
 18 46  1  0
 18 47  1  0
 20 48  1  0
 21 49  1  0
 22 50  1  0
 23 51  1  0
 24 52  1  0
 25 53  1  0
 26 54  1  0
 27 55  1  0
 34 56  1  0
 35 57  1  0
 36 58  1  0
 37 59  1  0
 38 60  1  0
M  CHG  1  29  -1
M  END
>  <UniqueID>  (73) 
66

>  <SMILES>  (73) 
O=C(CON=C1c2ccccc2-c2c(C(=O)NCc3ccccc3)cccc21)[N-]S(=O)(=O)c1ccccc1

>  <Energy>  (73) 
103.10934837045218

>  <Genealogy>  (73) 
O=C(CON=C1c2ccccc2-c2c(C(=O)NCc3ccccc3)cccc21)[N-]S(=O)(=O)c1ccccc1 (protonated)
O=C(CON=C1c2ccccc2-c2c(C(=O)NCc3ccccc3)cccc21)[N-]S(=O)(=O)c1ccccc1 (3D coordinates assigned)
O=C(CON=C1c2ccccc2-c2c(C(=O)NCc3ccccc3)cccc21)[N-]S(=O)(=O)c1ccccc1 (nonaromatic ring conformer: 103.10934837045218 kcal/mol)

>  <smiles>  (73) 
O=C(CON=C1c2ccccc2-c2c(C(=O)NCc3ccccc3)cccc21)NS(=O)(=O)c1ccccc1

>  <score_type>  (73) 
oracle

>  <origin>  (73) 
adg

>  <m_score__min__energy>  (73) 
-13.140000000000001

>  <m_primary>  (73) 
energy

$$$$
73:0
     RDKit          3D

 30 31  0  0  0  0  0  0  0  0999 V2000
   58.9550   30.0054   50.7095 H   0  0  0  0  0  0  0  0  0  0  0  0
   58.0900   30.3700   51.2830 C   0  0  0  0  0  0  0  0  0  0  0  0
   57.2940   29.4880   51.9430 N   0  0  0  0  0  0  0  0  0  0  0  0
   56.2140   29.8820   52.6700 C   0  0  0  0  0  0  0  0  0  0  0  0
   55.5100   28.9710   53.2800 N   0  0  0  0  0  0  0  0  0  0  0  0
   54.0810   28.9140   53.3940 C   0  0  0  0  0  0  0  0  0  0  0  0
   53.5660   28.6680   54.5160 O   0  0  0  0  0  0  0  0  0  0  0  0
   53.1980   29.0060   52.1810 C   0  0  0  0  0  0  0  0  0  0  0  0
   53.8181   28.9447   51.2745 H   0  0  0  0  0  0  0  0  0  0  0  0
   52.4760   28.1763   52.1985 H   0  0  0  0  0  0  0  0  0  0  0  0
   52.4480   30.3100   52.1830 C   0  0  0  0  0  0  0  0  0  0  0  0
   52.0520   30.9000   53.3940 C   0  0  0  0  0  0  0  0  0  0  0  0
   52.3114   30.4189   54.3486 H   0  0  0  0  0  0  0  0  0  0  0  0
   51.3290   32.0970   53.3910 C   0  0  0  0  0  0  0  0  0  0  0  0
   51.0286   32.5591   54.3430 H   0  0  0  0  0  0  0  0  0  0  0  0
   50.9870   32.7080   52.1800 C   0  0  0  0  0  0  0  0  0  0  0  0
   50.2680   33.8960   52.1850 O   0  0  0  0  0  0  0  0  0  0  0  0
   51.3660   32.1180   50.9690 C   0  0  0  0  0  0  0  0  0  0  0  0
   51.0240   32.7170   49.7620 O   0  0  0  0  0  0  0  0  0  0  0  0
   52.0900   30.9210   50.9690 C   0  0  0  0  0  0  0  0  0  0  0  0
   52.3802   30.4562   50.0152 H   0  0  0  0  0  0  0  0  0  0  0  0
   55.9250   31.2580   52.7730 C   0  0  0  0  0  0  0  0  0  0  0  0
   55.0727   31.6017   53.3775 H   0  0  0  0  0  0  0  0  0  0  0  0
   56.7300   32.1820   52.1010 C   0  0  0  0  0  0  0  0  0  0  0  0
   56.5124   33.2575   52.1777 H   0  0  0  0  0  0  0  0  0  0  0  0
   57.8120   31.7420   51.3310 C   0  0  0  0  0  0  0  0  0  0  0  0
   58.7080   32.7270   50.6410 C   0  0  0  0  0  0  0  0  0  0  0  0
   59.2481   33.3208   51.3931 H   0  0  0  0  0  0  0  0  0  0  0  0
   59.4309   32.1870   50.0119 H   0  0  0  0  0  0  0  0  0  0  0  0
   58.1021   33.3957   50.0119 H   0  0  0  0  0  0  0  0  0  0  0  0
  1  2  1  0
  2  3  1  0
  3  4  1  0
  4  5  2  0
  5  6  1  0
  6  7  2  0
  6  8  1  0
  8  9  1  0
  8 10  1  0
  8 11  1  0
 11 12  2  0
 12 13  1  0
 12 14  1  0
 14 15  1  0
 14 16  2  0
 16 17  1  0
 16 18  1  0
 18 19  1  0
 18 20  2  0
 20 21  1  0
  4 22  1  0
 22 23  1  0
 22 24  2  0
 24 25  1  0
 24 26  1  0
 26 27  1  0
 27 28  1  0
 27 29  1  0
 27 30  1  0
 26  2  2  0
 20 11  1  0
M  CHG  3   3  -1  17  -1  19  -1
M  END
>  <UniqueID>  (74) 
67

>  <SMILES>  (74) 
Cc1cc/c(=N\C(=O)Cc2ccc([O-])c([O-])c2)[n-]c1

>  <Energy>  (74) 
38.80873377629626

>  <Genealogy>  (74) 
Cc1ccc(=NC(=O)Cc2ccc([O-])c([O-])c2)[n-]c1 (protonated)
Cc1cc/c(=N\C(=O)Cc2ccc([O-])c([O-])c2)[n-]c1 (cis-trans isomerization)
Cc1cc/c(=N\C(=O)Cc2ccc([O-])c([O-])c2)[n-]c1 (3D coordinates assigned)
Cc1cc/c(=N\C(=O)Cc2ccc([O-])c([O-])c2)[n-]c1 (optimized conformer: 38.80873377629626 kcal/mol)

>  <smiles>  (74) 
Cc1ccc(=NC(=O)Cc2ccc(O)c(O)c2)[nH]c1

>  <score_type>  (74) 
oracle

>  <origin>  (74) 
adg

>  <m_score__min__energy>  (74) 
-16.699999999999999

>  <m_primary>  (74) 
energy

$$$$
74:0
     RDKit          3D

 44 46  0  0  1  0  0  0  0  0999 V2000
   63.5430   33.8780   45.9790 N   0  0  0  0  0  0  0  0  0  0  0  0
   63.1760   33.7220   47.0540 C   0  0  0  0  0  0  0  0  0  0  0  0
   62.6960   33.5050   48.4180 C   0  0  0  0  0  0  0  0  0  0  0  0
   61.2230   33.2160   48.4010 C   0  0  0  0  0  0  0  0  0  0  0  0
   60.5720   33.3360   49.6180 C   0  0  0  0  0  0  0  0  0  0  0  0
   59.2150   33.0860   49.6830 C   0  0  0  0  0  0  0  0  0  0  0  0
   58.5530   32.7250   48.5270 C   0  0  0  0  0  0  0  0  0  0  0  0
   59.1850   32.6010   47.3060 C   0  0  0  0  0  0  0  0  0  0  0  0
   58.4880   32.2180   46.0820 C   0  0  0  0  0  0  0  0  0  0  0  0
   57.8700   31.0200   46.0040 N   0  0  0  0  0  0  0  0  0  0  0  0
   57.2220   30.6560   44.8760 C   0  0  0  0  0  0  0  0  0  0  0  0
   56.6240   29.5090   44.7850 N   0  0  0  0  0  0  0  0  0  0  0  0
   57.2970   28.2950   45.1130 C   0  0  0  0  0  0  0  0  0  0  0  0
   58.6610   28.2500   44.8510 C   0  0  0  0  0  0  0  0  0  0  0  0
   59.3920   27.1110   45.1390 C   0  0  0  0  0  0  0  0  0  0  0  0
   58.7390   26.0110   45.6950 C   0  0  0  0  0  0  0  0  0  0  0  0
   59.5360   24.7750   46.0070 C   0  0  0  0  0  0  0  0  0  0  0  0
   58.7100   23.3150   45.4890 S   0  0  0  0  0  0  0  0  0  0  0  0
   59.8010   22.0640   45.0400 N   0  0  0  0  0  0  0  0  0  0  0  0
   57.9440   23.6700   44.2380 O   0  0  0  0  0  0  0  0  0  0  0  0
   57.7820   22.7700   46.5160 O   0  0  0  0  0  0  0  0  0  0  0  0
   57.3810   26.0770   45.9480 C   0  0  0  0  0  0  0  0  0  0  0  0
   56.6380   27.2070   45.6660 C   0  0  0  0  0  0  0  0  0  0  0  0
   57.1550   31.4460   43.7850 N   0  0  0  0  0  0  0  0  0  0  0  0
   57.7580   32.6550   43.8140 C   0  0  0  0  0  0  0  0  0  0  0  0
   58.4210   33.0290   44.9670 C   0  0  0  0  0  0  0  0  0  0  0  0
   59.2020   34.5990   44.9990 Cl  0  0  0  0  0  0  0  0  0  0  0  0
   60.5580   32.8550   47.2480 C   0  0  0  0  0  0  0  0  0  0  0  0
   63.2301   32.6516   48.8612 H   0  0  0  0  0  0  0  0  0  0  0  0
   62.8808   34.4100   49.0154 H   0  0  0  0  0  0  0  0  0  0  0  0
   61.1287   33.6267   50.5211 H   0  0  0  0  0  0  0  0  0  0  0  0
   58.6732   33.1728   50.6364 H   0  0  0  0  0  0  0  0  0  0  0  0
   57.4723   32.5270   48.5811 H   0  0  0  0  0  0  0  0  0  0  0  0
   59.1626   29.1251   44.4120 H   0  0  0  0  0  0  0  0  0  0  0  0
   60.4718   27.0736   44.9326 H   0  0  0  0  0  0  0  0  0  0  0  0
   60.5054   24.8373   45.4908 H   0  0  0  0  0  0  0  0  0  0  0  0
   59.6699   24.7221   47.0975 H   0  0  0  0  0  0  0  0  0  0  0  0
   59.4970   21.1270   45.3750 H   0  0  0  0  0  0  0  0  0  0  0  0
   60.7820   22.2860   45.2270 H   0  0  0  0  0  0  0  0  0  0  0  0
   56.8772   25.2033   46.3871 H   0  0  0  0  0  0  0  0  0  0  0  0
   55.5583   27.2428   45.8734 H   0  0  0  0  0  0  0  0  0  0  0  0
   56.6370   31.1230   42.9180 H   0  0  0  0  0  0  0  0  0  0  0  0
   57.7219   33.3243   42.9418 H   0  0  0  0  0  0  0  0  0  0  0  0
   61.1011   32.7681   46.2954 H   0  0  0  0  0  0  0  0  0  0  0  0
  1  2  3  0
  2  3  1  0
  3  4  1  0
  4  5  2  0
  5  6  1  0
  6  7  2  0
  7  8  1  0
  8  9  1  0
  9 10  2  0
 10 11  1  0
 11 12  2  0
 12 13  1  0
 13 14  2  0
 14 15  1  0
 15 16  2  0
 16 17  1  0
 17 18  1  0
 18 19  1  0
 18 20  2  0
 18 21  2  0
 16 22  1  0
 22 23  2  0
 11 24  1  0
 24 25  1  0
 25 26  2  0
 26 27  1  0
  8 28  2  0
 28  4  1  0
 26  9  1  0
 23 13  1  0
  3 29  1  0
  3 30  1  0
  5 31  1  0
  6 32  1  0
  7 33  1  0
 14 34  1  0
 15 35  1  0
 17 36  1  0
 17 37  1  0
 19 38  1  0
 19 39  1  0
 22 40  1  0
 23 41  1  0
 24 42  1  0
 25 43  1  0
 28 44  1  0
M  END
>  <smiles>  (75) 
N#CCc1cccc(-c2nc(=Nc3ccc(CS(N)(=O)=O)cc3)[nH]cc2Cl)c1

>  <score_type>  (75) 
oracle

>  <origin>  (75) 
adg

>  <m_score__min__energy>  (75) 
-10.01

>  <m_primary>  (75) 
energy

$$$$
75:0
     RDKit          3D

 38 39  0  0  0  0  0  0  0  0999 V2000
   57.1260   21.0760   43.1310 C   0  0  0  0  0  0  0  0  0  0  0  0
   55.8960   21.7630   43.3390 O   0  0  0  0  0  0  0  0  0  0  0  0
   55.7620   22.9470   44.0790 C   0  0  0  0  0  0  0  0  0  0  0  0
   54.5260   23.2270   44.6630 C   0  0  0  0  0  0  0  0  0  0  0  0
   54.3450   24.3880   45.4140 C   0  0  0  0  0  0  0  0  0  0  0  0
   55.3940   25.2950   45.5970 C   0  0  0  0  0  0  0  0  0  0  0  0
   55.1310   26.4290   46.3700 O   0  0  0  0  0  0  0  0  0  0  0  0
   56.6580   25.0300   45.0060 C   0  0  0  0  0  0  0  0  0  0  0  0
   57.8670   25.9210   45.1900 C   0  0  0  0  0  0  0  0  0  0  0  0
   57.6350   26.9130   46.2520 N   0  0  0  0  0  0  0  0  0  0  0  0
   58.8740   27.5790   46.6880 C   0  0  0  0  0  0  0  0  0  0  0  0
   59.5200   28.3110   45.5070 C   0  0  0  0  0  0  0  0  0  0  0  0
   58.5160   29.1940   44.8160 C   0  0  0  0  0  0  0  0  0  0  0  0
   58.3580   30.5310   45.2200 C   0  0  0  0  0  0  0  0  0  0  0  0
   57.4030   31.3440   44.6010 C   0  0  0  0  0  0  0  0  0  0  0  0
   56.5940   30.8250   43.5860 C   0  0  0  0  0  0  0  0  0  0  0  0
   56.7370   29.4920   43.1900 C   0  0  0  0  0  0  0  0  0  0  0  0
   57.6900   28.6770   43.8050 C   0  0  0  0  0  0  0  0  0  0  0  0
   56.8250   23.8520   44.2540 C   0  0  0  0  0  0  0  0  0  0  0  0
   57.5749   20.8253   44.1034 H   0  0  0  0  0  0  0  0  0  0  0  0
   56.9386   20.1519   42.5645 H   0  0  0  0  0  0  0  0  0  0  0  0
   57.8145   21.7202   42.5645 H   0  0  0  0  0  0  0  0  0  0  0  0
   53.6882   22.5267   44.5300 H   0  0  0  0  0  0  0  0  0  0  0  0
   53.3645   24.5932   45.8684 H   0  0  0  0  0  0  0  0  0  0  0  0
   55.8360   26.9770   46.8410 H   0  0  0  0  0  0  0  0  0  0  0  0
   58.7335   25.3000   45.4611 H   0  0  0  0  0  0  0  0  0  0  0  0
   58.0552   26.4551   44.2469 H   0  0  0  0  0  0  0  0  0  0  0  0
   57.2360   26.3990   47.0730 H   0  0  0  0  0  0  0  0  0  0  0  0
   58.6380   28.3041   47.4808 H   0  0  0  0  0  0  0  0  0  0  0  0
   59.5749   26.8224   47.0704 H   0  0  0  0  0  0  0  0  0  0  0  0
   60.3513   28.9295   45.8764 H   0  0  0  0  0  0  0  0  0  0  0  0
   59.8899   27.5654   44.7878 H   0  0  0  0  0  0  0  0  0  0  0  0
   58.9870   30.9389   46.0250 H   0  0  0  0  0  0  0  0  0  0  0  0
   57.2884   32.3926   44.9131 H   0  0  0  0  0  0  0  0  0  0  0  0
   55.8445   31.4659   43.0986 H   0  0  0  0  0  0  0  0  0  0  0  0
   56.0980   29.0844   42.3928 H   0  0  0  0  0  0  0  0  0  0  0  0
   57.7939   27.6263   43.4963 H   0  0  0  0  0  0  0  0  0  0  0  0
   57.8015   23.6356   43.7961 H   0  0  0  0  0  0  0  0  0  0  0  0
  1  2  1  0
  2  3  1  0
  3  4  2  0
  4  5  1  0
  5  6  2  0
  6  7  1  0
  6  8  1  0
  8  9  1  0
  9 10  1  0
 10 11  1  0
 11 12  1  0
 12 13  1  0
 13 14  2  0
 14 15  1  0
 15 16  2  0
 16 17  1  0
 17 18  2  0
  8 19  2  0
 19  3  1  0
 18 13  1  0
  1 20  1  0
  1 21  1  0
  1 22  1  0
  4 23  1  0
  5 24  1  0
  7 25  1  0
  9 26  1  0
  9 27  1  0
 10 28  1  0
 11 29  1  0
 11 30  1  0
 12 31  1  0
 12 32  1  0
 14 33  1  0
 15 34  1  0
 16 35  1  0
 17 36  1  0
 18 37  1  0
 19 38  1  0
M  END
>  <UniqueID>  (76) 
68

>  <SMILES>  (76) 
COc1ccc(O)c(CNCCc2ccccc2)c1

>  <Energy>  (76) 
37.31978424908106

>  <Genealogy>  (76) 
COc1ccc(O)c(CNCCc2ccccc2)c1 (3D coordinates assigned)
COc1ccc(O)c(CNCCc2ccccc2)c1 (optimized conformer: 37.31978424908106 kcal/mol)

>  <smiles>  (76) 
COc1ccc(O)c(CNCCc2ccccc2)c1

>  <score_type>  (76) 
oracle

>  <origin>  (76) 
adg

>  <m_score__min__energy>  (76) 
-7.7699999999999996

>  <m_primary>  (76) 
energy

$$$$
76:0
     RDKit          3D

 34 36  0  0  0  0  0  0  0  0999 V2000
   56.2693   25.8276   46.3528 H   0  0  0  0  0  0  0  0  0  0  0  0
   56.6830   26.5350   45.6190 C   0  0  0  0  0  0  0  0  0  0  0  0
   56.2890   27.8370   45.6330 N   0  0  0  0  0  0  0  0  0  0  0  0
   56.7780   28.7470   44.7430 C   0  0  0  0  0  0  0  0  0  0  0  0
   56.3900   29.9890   44.7620 N   0  0  0  0  0  0  0  0  0  0  0  0
   57.1730   31.1520   44.4450 C   0  0  0  0  0  0  0  0  0  0  0  0
   57.2050   31.6070   43.2700 O   0  0  0  0  0  0  0  0  0  0  0  0
   57.9230   31.8410   45.5150 C   0  0  0  0  0  0  0  0  0  0  0  0
   57.8280   33.1770   45.8860 C   0  0  0  0  0  0  0  0  0  0  0  0
   57.0110   34.2430   45.2340 C   0  0  0  0  0  0  0  0  0  0  0  0
   56.5348   34.8643   46.0068 H   0  0  0  0  0  0  0  0  0  0  0  0
   57.6610   34.8714   44.6074 H   0  0  0  0  0  0  0  0  0  0  0  0
   56.2352   33.7787   44.6074 H   0  0  0  0  0  0  0  0  0  0  0  0
   58.5770   33.3750   46.9460 O   0  0  0  0  0  0  0  0  0  0  0  0
   59.1590   32.2720   47.3090 N   0  0  0  0  0  0  0  0  0  0  0  0
   59.8170   32.1850   48.1150 H   0  0  0  0  0  0  0  0  0  0  0  0
   58.7950   31.2970   46.4530 C   0  0  0  0  0  0  0  0  0  0  0  0
   59.3180   29.9170   46.5230 C   0  0  0  0  0  0  0  0  0  0  0  0
   60.2130   29.4380   45.5510 C   0  0  0  0  0  0  0  0  0  0  0  0
   60.5237   30.0920   44.7229 H   0  0  0  0  0  0  0  0  0  0  0  0
   60.7100   28.1340   45.6320 C   0  0  0  0  0  0  0  0  0  0  0  0
   61.4004   27.7604   44.8615 H   0  0  0  0  0  0  0  0  0  0  0  0
   60.3310   27.3050   46.6900 C   0  0  0  0  0  0  0  0  0  0  0  0
   60.7181   26.2771   46.7489 H   0  0  0  0  0  0  0  0  0  0  0  0
   59.4600   27.7810   47.6740 C   0  0  0  0  0  0  0  0  0  0  0  0
   59.1674   27.1295   48.5106 H   0  0  0  0  0  0  0  0  0  0  0  0
   58.9600   29.0850   47.5960 C   0  0  0  0  0  0  0  0  0  0  0  0
   58.2837   29.4602   48.3782 H   0  0  0  0  0  0  0  0  0  0  0  0
   57.7110   28.3390   43.7820 C   0  0  0  0  0  0  0  0  0  0  0  0
   58.1131   29.0623   43.0574 H   0  0  0  0  0  0  0  0  0  0  0  0
   58.1270   27.0060   43.7510 C   0  0  0  0  0  0  0  0  0  0  0  0
   58.8593   26.6746   43.0001 H   0  0  0  0  0  0  0  0  0  0  0  0
   57.6120   26.0960   44.6740 C   0  0  0  0  0  0  0  0  0  0  0  0
   57.9342   25.0444   44.6575 H   0  0  0  0  0  0  0  0  0  0  0  0
  1  2  1  0
  2  3  1  0
  3  4  1  0
  4  5  2  0
  5  6  1  0
  6  7  2  0
  6  8  1  0
  8  9  2  0
  9 10  1  0
 10 11  1  0
 10 12  1  0
 10 13  1  0
  9 14  1  0
 14 15  1  0
 15 16  1  0
 15 17  2  0
 17 18  1  0
 18 19  2  0
 19 20  1  0
 19 21  1  0
 21 22  1  0
 21 23  2  0
 23 24  1  0
 23 25  1  0
 25 26  1  0
 25 27  2  0
 27 28  1  0
  4 29  1  0
 29 30  1  0
 29 31  2  0
 31 32  1  0
 31 33  1  0
 33 34  1  0
 33  2  2  0
 17  8  1  0
 27 18  1  0
M  CHG  2   3  -1  15   1
M  END
>  <UniqueID>  (77) 
69

>  <SMILES>  (77) 
Cc1o[nH+]c(-c2ccccc2)c1C(=O)/N=c1/cccc[n-]1

>  <Energy>  (77) 
75.72971639437276

>  <Genealogy>  (77) 
Cc1o[nH+]c(-c2ccccc2)c1C(=O)N=c1cccc[n-]1 (protonated)
Cc1o[nH+]c(-c2ccccc2)c1C(=O)/N=c1/cccc[n-]1 (cis-trans isomerization)
Cc1o[nH+]c(-c2ccccc2)c1C(=O)/N=c1/cccc[n-]1 (3D coordinates assigned)
Cc1o[nH+]c(-c2ccccc2)c1C(=O)/N=c1/cccc[n-]1 (optimized conformer: 75.72971639437276 kcal/mol)

>  <smiles>  (77) 
Cc1onc(-c2ccccc2)c1C(=O)N=c1cccc[nH]1

>  <score_type>  (77) 
oracle

>  <origin>  (77) 
adg

>  <m_score__min__energy>  (77) 
-7.8700000000000001

>  <m_primary>  (77) 
energy

$$$$
77:0
     RDKit          3D

 45 46  0  0  0  0  0  0  0  0999 V2000
   61.1600   31.0450   47.3980 C   0  0  0  0  0  0  0  0  0  0  0  0
   61.1560   32.4900   47.1210 N   0  0  0  0  0  0  0  0  0  0  0  0
   60.2370   33.2020   48.0350 C   0  0  0  0  0  0  0  0  0  0  0  0
   59.3120   34.1290   47.2380 C   0  0  0  0  0  0  0  0  0  0  0  0
   58.1280   33.3540   46.6360 C   0  0  0  0  0  0  0  0  0  0  0  0
   57.6060   33.9670   45.3230 C   0  0  0  0  0  0  0  0  0  0  0  0
   58.2200   33.3550   44.0490 C   0  0  0  0  0  0  0  0  0  0  0  0
   58.4890   31.9230   44.2080 N   0  0  0  0  0  0  0  0  0  0  0  0
   57.6320   30.9590   44.4080 C   0  0  0  0  0  0  0  0  0  0  0  0
   56.2590   31.1110   44.1330 C   0  0  0  0  0  0  0  0  0  0  0  0
   55.3810   30.0500   44.3530 C   0  0  0  0  0  0  0  0  0  0  0  0
   55.8410   28.8600   44.8200 N   0  0  0  0  0  0  0  0  0  0  0  0
   57.1610   28.6620   45.0920 C   0  0  0  0  0  0  0  0  0  0  0  0
   57.6080   27.4130   45.5540 C   0  0  0  0  0  0  0  0  0  0  0  0
   58.9640   27.1990   45.8110 C   0  0  0  0  0  0  0  0  0  0  0  0
   59.5140   25.6310   46.3720 Cl  0  0  0  0  0  0  0  0  0  0  0  0
   59.8850   28.2300   45.6210 C   0  0  0  0  0  0  0  0  0  0  0  0
   59.4550   29.4820   45.1760 C   0  0  0  0  0  0  0  0  0  0  0  0
   58.0920   29.7150   44.8990 C   0  0  0  0  0  0  0  0  0  0  0  0
   62.7820   33.1130   47.2680 S   0  0  0  0  0  0  0  0  0  0  0  0
   63.0320   33.8260   48.8820 C   0  0  0  0  0  0  0  0  0  0  0  0
   63.7670   31.9900   47.0970 O   0  0  0  0  0  0  0  0  0  0  0  0
   63.0360   34.1560   46.2160 O   0  0  0  0  0  0  0  0  0  0  0  0
   61.1605   30.8801   48.4856 H   0  0  0  0  0  0  0  0  0  0  0  0
   60.2631   30.5848   46.9578 H   0  0  0  0  0  0  0  0  0  0  0  0
   62.0594   30.5898   46.9578 H   0  0  0  0  0  0  0  0  0  0  0  0
   59.6299   32.4677   48.5847 H   0  0  0  0  0  0  0  0  0  0  0  0
   60.8276   33.8042   48.7411 H   0  0  0  0  0  0  0  0  0  0  0  0
   58.9250   34.9111   47.9077 H   0  0  0  0  0  0  0  0  0  0  0  0
   59.8909   34.5730   46.4148 H   0  0  0  0  0  0  0  0  0  0  0  0
   58.4514   32.3219   46.4356 H   0  0  0  0  0  0  0  0  0  0  0  0
   57.3057   33.3952   47.3655 H   0  0  0  0  0  0  0  0  0  0  0  0
   56.5163   33.8216   45.2843 H   0  0  0  0  0  0  0  0  0  0  0  0
   57.8958   35.0281   45.3338 H   0  0  0  0  0  0  0  0  0  0  0  0
   57.5187   33.4949   43.2132 H   0  0  0  0  0  0  0  0  0  0  0  0
   59.1759   33.8626   43.8523 H   0  0  0  0  0  0  0  0  0  0  0  0
   55.8789   32.0673   43.7444 H   0  0  0  0  0  0  0  0  0  0  0  0
   54.3080   30.1776   44.1469 H   0  0  0  0  0  0  0  0  0  0  0  0
   55.1520   28.0870   44.9630 H   0  0  0  0  0  0  0  0  0  0  0  0
   56.8859   26.5988   45.7143 H   0  0  0  0  0  0  0  0  0  0  0  0
   60.9524   28.0561   45.8222 H   0  0  0  0  0  0  0  0  0  0  0  0
   60.1855   30.2931   45.0404 H   0  0  0  0  0  0  0  0  0  0  0  0
   62.7727   33.0863   49.6538 H   0  0  0  0  0  0  0  0  0  0  0  0
   64.0864   34.1187   48.9942 H   0  0  0  0  0  0  0  0  0  0  0  0
   62.3913   34.7131   48.9942 H   0  0  0  0  0  0  0  0  0  0  0  0
  1  2  1  0
  2  3  1  0
  3  4  1  0
  4  5  1  0
  5  6  1  0
  6  7  1  0
  7  8  1  0
  8  9  2  3
  9 10  1  0
 10 11  2  0
 11 12  1  0
 12 13  1  0
 13 14  2  0
 14 15  1  0
 15 16  1  0
 15 17  2  0
 17 18  1  0
 18 19  2  0
  2 20  1  0
 20 21  1  0
 20 22  2  0
 20 23  2  0
 19  9  1  0
 19 13  1  0
  1 24  1  0
  1 25  1  0
  1 26  1  0
  3 27  1  0
  3 28  1  0
  4 29  1  0
  4 30  1  0
  5 31  1  0
  5 32  1  0
  6 33  1  0
  6 34  1  0
  7 35  1  0
  7 36  1  0
 10 37  1  0
 11 38  1  0
 12 39  1  0
 14 40  1  0
 17 41  1  0
 18 42  1  0
 21 43  1  0
 21 44  1  0
 21 45  1  0
M  END
>  <UniqueID>  (78) 
70

>  <SMILES>  (78) 
CN(CCCCCN=c1cc[nH]c2cc(Cl)ccc12)S(C)(=O)=O

>  <Energy>  (78) 
38.86519947844928

>  <Genealogy>  (78) 
CN(CCCCCN=c1cc[nH]c2cc(Cl)ccc12)S(C)(=O)=O (3D coordinates assigned)
CN(CCCCCN=c1cc[nH]c2cc(Cl)ccc12)S(C)(=O)=O (optimized conformer: 38.86519947844928 kcal/mol)

>  <smiles>  (78) 
CN(CCCCCN=c1cc[nH]c2cc(Cl)ccc12)S(C)(=O)=O

>  <score_type>  (78) 
oracle

>  <origin>  (78) 
adg

>  <m_score__min__energy>  (78) 
-8.5800000000000001

>  <m_primary>  (78) 
energy

$$$$
78:0
     RDKit          3D

 30 31  0  0  0  0  0  0  0  0999 V2000
   59.8330   35.6912   45.7248 H   0  0  0  0  0  0  0  0  0  0  0  0
   59.3060   34.7310   45.6240 C   0  0  0  0  0  0  0  0  0  0  0  0
   58.1700   34.6500   44.8890 N   0  0  0  0  0  0  0  0  0  0  0  0
   57.5030   33.4770   44.7410 C   0  0  0  0  0  0  0  0  0  0  0  0
   56.5835   33.4353   44.1386 H   0  0  0  0  0  0  0  0  0  0  0  0
   57.9960   32.3130   45.3640 C   0  0  0  0  0  0  0  0  0  0  0  0
   57.3910   31.1590   45.2780 N   0  0  0  0  0  0  0  0  0  0  0  0
   56.5700   30.6690   44.2070 C   0  0  0  0  0  0  0  0  0  0  0  0
   55.5060   30.0570   44.4840 O   0  0  0  0  0  0  0  0  0  0  0  0
   57.0020   30.7640   42.7760 C   0  0  0  0  0  0  0  0  0  0  0  0
   58.0755   31.0001   42.7320 H   0  0  0  0  0  0  0  0  0  0  0  0
   56.8168   29.8037   42.2726 H   0  0  0  0  0  0  0  0  0  0  0  0
   56.4310   31.5580   42.2726 H   0  0  0  0  0  0  0  0  0  0  0  0
   59.1260   32.4080   46.1220 N   0  0  0  0  0  0  0  0  0  0  0  0
   59.4740   31.5580   46.6220 H   0  0  0  0  0  0  0  0  0  0  0  0
   59.8040   33.5840   46.2540 C   0  0  0  0  0  0  0  0  0  0  0  0
   61.0370   33.6560   47.0720 C   0  0  0  0  0  0  0  0  0  0  0  0
   62.2800   33.4960   46.4360 C   0  0  0  0  0  0  0  0  0  0  0  0
   62.3179   33.2966   45.3549 H   0  0  0  0  0  0  0  0  0  0  0  0
   63.4670   33.5880   47.1650 C   0  0  0  0  0  0  0  0  0  0  0  0
   64.4345   33.4615   46.6572 H   0  0  0  0  0  0  0  0  0  0  0  0
   63.4280   33.8400   48.5360 C   0  0  0  0  0  0  0  0  0  0  0  0
   64.3652   33.9223   49.1060 H   0  0  0  0  0  0  0  0  0  0  0  0
   62.2020   33.9880   49.1860 C   0  0  0  0  0  0  0  0  0  0  0  0
   62.1797   34.1912   50.2668 H   0  0  0  0  0  0  0  0  0  0  0  0
   60.9950   33.8800   48.4730 C   0  0  0  0  0  0  0  0  0  0  0  0
   59.6960   34.0220   49.2210 C   0  0  0  0  0  0  0  0  0  0  0  0
   59.8918   34.0006   50.3032 H   0  0  0  0  0  0  0  0  0  0  0  0
   59.2212   34.9774   48.9531 H   0  0  0  0  0  0  0  0  0  0  0  0
   59.0260   33.1917   48.9531 H   0  0  0  0  0  0  0  0  0  0  0  0
  1  2  1  0
  2  3  1  0
  3  4  2  0
  4  5  1  0
  4  6  1  0
  6  7  2  0
  7  8  1  0
  8  9  2  0
  8 10  1  0
 10 11  1  0
 10 12  1  0
 10 13  1  0
  6 14  1  0
 14 15  1  0
 14 16  1  0
 16 17  1  0
 17 18  2  0
 18 19  1  0
 18 20  1  0
 20 21  1  0
 20 22  2  0
 22 23  1  0
 22 24  1  0
 24 25  1  0
 24 26  2  0
 26 27  1  0
 27 28  1  0
 27 29  1  0
 27 30  1  0
 16  2  2  0
 26 17  1  0
M  END
>  <UniqueID>  (79) 
71

>  <SMILES>  (79) 
CC(=O)/N=c1\cncc(-c2ccccc2C)[nH]1

>  <Energy>  (79) 
46.75082293988932

>  <Genealogy>  (79) 
CC(=O)/N=c1\cncc(-c2ccccc2C)[nH]1 (cis-trans isomerization)
CC(=O)/N=c1\cncc(-c2ccccc2C)[nH]1 (3D coordinates assigned)
CC(=O)/N=c1\cncc(-c2ccccc2C)[nH]1 (optimized conformer: 46.75082293988932 kcal/mol)

>  <smiles>  (79) 
CC(=O)N=c1cncc(-c2ccccc2C)[nH]1

>  <score_type>  (79) 
oracle

>  <origin>  (79) 
adg

>  <m_score__min__energy>  (79) 
-7.0899999999999999

>  <m_primary>  (79) 
energy

$$$$
79:0
     RDKit          3D

 42 45  0  0  0  0  0  0  0  0999 V2000
   57.6158   27.9893   42.9087 H   0  0  0  0  0  0  0  0  0  0  0  0
   57.4070   28.8140   43.6060 C   0  0  0  0  0  0  0  0  0  0  0  0
   57.3710   30.4510   43.2140 S   0  0  0  0  0  0  0  0  0  0  0  0
   57.0160   30.9200   44.7840 C   0  0  0  0  0  0  0  0  0  0  0  0
   56.8190   32.1550   45.1380 N   0  0  0  0  0  0  0  0  0  0  0  0
   57.8070   33.0650   45.6490 C   0  0  0  0  0  0  0  0  0  0  0  0
   58.1570   32.9850   47.0040 C   0  0  0  0  0  0  0  0  0  0  0  0
   57.6896   32.2231   47.6452 H   0  0  0  0  0  0  0  0  0  0  0  0
   59.0970   33.8680   47.5460 C   0  0  0  0  0  0  0  0  0  0  0  0
   59.3773   33.7884   48.6067 H   0  0  0  0  0  0  0  0  0  0  0  0
   59.6800   34.8500   46.7430 C   0  0  0  0  0  0  0  0  0  0  0  0
   60.4256   35.5377   47.1687 H   0  0  0  0  0  0  0  0  0  0  0  0
   59.3160   34.9590   45.3980 C   0  0  0  0  0  0  0  0  0  0  0  0
   59.7692   35.7386   44.7680 H   0  0  0  0  0  0  0  0  0  0  0  0
   58.3770   34.0790   44.8520 C   0  0  0  0  0  0  0  0  0  0  0  0
   58.0818   34.1779   43.7970 H   0  0  0  0  0  0  0  0  0  0  0  0
   56.9090   29.8620   45.6150 N   0  0  0  0  0  0  0  0  0  0  0  0
   57.1260   28.6820   44.9700 C   0  0  0  0  0  0  0  0  0  0  0  0
   57.0810   27.3860   45.6930 C   0  0  0  0  0  0  0  0  0  0  0  0
   58.2130   26.9360   46.3920 C   0  0  0  0  0  0  0  0  0  0  0  0
   59.1271   27.5479   46.4003 H   0  0  0  0  0  0  0  0  0  0  0  0
   58.1890   25.7200   47.0760 C   0  0  0  0  0  0  0  0  0  0  0  0
   59.0808   25.3865   47.6269 H   0  0  0  0  0  0  0  0  0  0  0  0
   57.0370   24.9190   47.0670 C   0  0  0  0  0  0  0  0  0  0  0  0
   57.0270   23.6070   47.8020 C   0  0  0  0  0  0  0  0  0  0  0  0
   57.0284   23.7940   48.8860 H   0  0  0  0  0  0  0  0  0  0  0  0
   56.1245   23.0405   47.5288 H   0  0  0  0  0  0  0  0  0  0  0  0
   57.9208   23.0268   47.5288 H   0  0  0  0  0  0  0  0  0  0  0  0
   55.8980   25.3510   46.3610 C   0  0  0  0  0  0  0  0  0  0  0  0
   54.7100   24.5410   46.3660 N   0  0  0  0  0  0  0  0  0  0  0  0
   54.4730   23.3850   45.5520 C   0  0  0  0  0  0  0  0  0  0  0  0
   53.3100   22.9030   45.5090 O   0  0  0  0  0  0  0  0  0  0  0  0
   55.5550   22.7150   44.8060 C   0  0  0  0  0  0  0  0  0  0  0  0
   55.9390   23.0090   43.1940 S   0  0  0  0  0  0  0  0  0  0  0  0
   57.1910   21.8910   43.0920 C   0  0  0  0  0  0  0  0  0  0  0  0
   57.8065   21.6916   42.2024 H   0  0  0  0  0  0  0  0  0  0  0  0
   57.3140   21.2630   44.3240 C   0  0  0  0  0  0  0  0  0  0  0  0
   58.0615   20.4824   44.5287 H   0  0  0  0  0  0  0  0  0  0  0  0
   56.3990   21.7150   45.2810 C   0  0  0  0  0  0  0  0  0  0  0  0
   56.3513   21.3197   46.3064 H   0  0  0  0  0  0  0  0  0  0  0  0
   55.9190   26.5950   45.7040 C   0  0  0  0  0  0  0  0  0  0  0  0
   55.0138   26.9535   45.1920 H   0  0  0  0  0  0  0  0  0  0  0  0
  1  2  1  0
  2  3  1  0
  3  4  1  0
  4  5  2  0
  5  6  1  0
  6  7  2  0
  7  8  1  0
  7  9  1  0
  9 10  1  0
  9 11  2  0
 11 12  1  0
 11 13  1  0
 13 14  1  0
 13 15  2  0
 15 16  1  0
  4 17  1  0
 17 18  1  0
 18 19  1  0
 19 20  2  0
 20 21  1  0
 20 22  1  0
 22 23  1  0
 22 24  2  0
 24 25  1  0
 25 26  1  0
 25 27  1  0
 25 28  1  0
 24 29  1  0
 29 30  1  0
 30 31  1  0
 31 32  2  0
 31 33  1  0
 33 34  1  0
 34 35  1  0
 35 36  1  0
 35 37  2  0
 37 38  1  0
 37 39  1  0
 39 40  1  0
 29 41  2  0
 41 42  1  0
 18  2  2  0
 41 19  1  0
 15  6  1  0
 39 33  2  0
M  CHG  2  17  -1  30  -1
M  END
>  <UniqueID>  (80) 
72

>  <SMILES>  (80) 
Cc1ccc(-c2cs/c(=N/c3ccccc3)[n-]2)cc1[N-]C(=O)c1cccs1

>  <Energy>  (80) 
114.802739404895

>  <Genealogy>  (80) 
Cc1ccc(-c2csc(=Nc3ccccc3)[n-]2)cc1[N-]C(=O)c1cccs1 (protonated)
Cc1ccc(-c2cs/c(=N/c3ccccc3)[n-]2)cc1[N-]C(=O)c1cccs1 (cis-trans isomerization)
Cc1ccc(-c2cs/c(=N/c3ccccc3)[n-]2)cc1[N-]C(=O)c1cccs1 (3D coordinates assigned)
Cc1ccc(-c2cs/c(=N/c3ccccc3)[n-]2)cc1[N-]C(=O)c1cccs1 (optimized conformer: 114.802739404895 kcal/mol)

>  <smiles>  (80) 
Cc1ccc(-c2csc(=Nc3ccccc3)[nH]2)cc1NC(=O)c1cccs1

>  <score_type>  (80) 
oracle

>  <origin>  (80) 
adg

>  <m_score__min__energy>  (80) 
-12.220000000000001

>  <m_primary>  (80) 
energy

$$$$
80:0
     RDKit          3D

 49 53  0  0  1  0  0  0  0  0999 V2000
   54.2180   23.9190   44.6120 C   0  0  0  0  0  0  0  0  0  0  0  0
   55.6620   23.9180   44.8480 N   0  0  0  0  0  0  0  0  0  0  0  0
   56.2220   24.9440   45.5400 C   0  0  0  0  0  0  0  0  0  0  0  0
   55.5150   25.9040   45.9930 O   0  0  0  0  0  0  0  0  0  0  0  0
   57.5740   24.9710   45.7730 C   0  0  0  0  0  0  0  0  0  0  0  0
   58.4660   25.8100   46.4060 C   0  0  0  0  0  0  0  0  0  0  0  0
   58.1660   26.8980   46.9960 N   0  0  0  0  0  0  0  0  0  0  0  0
   58.9970   27.9520   47.3690 C   0  0  0  0  0  0  0  0  0  0  0  0
   59.8400   27.7090   48.3090 O   0  0  0  0  0  0  0  0  0  0  0  0
   59.0370   29.2930   46.8310 C   0  0  0  0  0  0  0  0  0  0  0  0
   59.9750   30.1630   47.4090 C   0  0  0  0  0  0  0  0  0  0  0  0
   60.1140   31.4620   46.9810 C   0  0  0  0  0  0  0  0  0  0  0  0
   61.0630   32.4100   47.5410 C   0  0  0  0  0  0  0  0  0  0  0  0
   62.3770   32.3520   47.1130 C   0  0  0  0  0  0  0  0  0  0  0  0
   63.3260   33.2470   47.6230 C   0  0  0  0  0  0  0  0  0  0  0  0
   62.9480   34.1790   48.5430 N   0  0  0  0  0  0  0  0  0  0  0  0
   61.6890   34.2300   48.9500 C   0  0  0  0  0  0  0  0  0  0  0  0
   60.7300   33.3650   48.4700 C   0  0  0  0  0  0  0  0  0  0  0  0
   59.3110   31.8670   45.9820 N   0  0  0  0  0  0  0  0  0  0  0  0
   58.4000   31.0620   45.4040 C   0  0  0  0  0  0  0  0  0  0  0  0
   57.6040   31.5480   44.3740 C   0  0  0  0  0  0  0  0  0  0  0  0
   56.6650   30.6910   43.7870 C   0  0  0  0  0  0  0  0  0  0  0  0
   56.5290   29.3920   44.2180 C   0  0  0  0  0  0  0  0  0  0  0  0
   57.3210   28.8900   45.2510 C   0  0  0  0  0  0  0  0  0  0  0  0
   58.2290   29.7450   45.8070 C   0  0  0  0  0  0  0  0  0  0  0  0
   59.6960   25.3140   46.3100 N   0  0  0  0  0  0  0  0  0  0  0  0
   59.6130   24.1930   45.6410 N   0  0  0  0  0  0  0  0  0  0  0  0
   58.3340   23.9290   45.2840 C   0  0  0  0  0  0  0  0  0  0  0  0
   57.7690   22.9000   44.5880 N   0  0  0  0  0  0  0  0  0  0  0  0
   58.6060   21.8350   44.1000 C   0  0  0  0  0  0  0  0  0  0  0  0
   56.4430   22.9080   44.3800 C   0  0  0  0  0  0  0  0  0  0  0  0
   55.8850   21.9720   43.7390 O   0  0  0  0  0  0  0  0  0  0  0  0
   53.6889   23.9194   45.5764 H   0  0  0  0  0  0  0  0  0  0  0  0
   53.9404   24.8173   44.0411 H   0  0  0  0  0  0  0  0  0  0  0  0
   53.9391   23.0210   44.0411 H   0  0  0  0  0  0  0  0  0  0  0  0
   60.6149   29.7960   48.2250 H   0  0  0  0  0  0  0  0  0  0  0  0
   62.6779   31.5998   46.3689 H   0  0  0  0  0  0  0  0  0  0  0  0
   64.3709   33.1980   47.2829 H   0  0  0  0  0  0  0  0  0  0  0  0
   61.3998   34.9864   49.6944 H   0  0  0  0  0  0  0  0  0  0  0  0
   59.6940   33.4396   48.8322 H   0  0  0  0  0  0  0  0  0  0  0  0
   57.7095   32.5863   44.0263 H   0  0  0  0  0  0  0  0  0  0  0  0
   56.0278   31.0615   42.9705 H   0  0  0  0  0  0  0  0  0  0  0  0
   55.7839   28.7385   43.7406 H   0  0  0  0  0  0  0  0  0  0  0  0
   57.2187   27.8524   45.6017 H   0  0  0  0  0  0  0  0  0  0  0  0
   60.5500   25.7450   46.6960 H   0  0  0  0  0  0  0  0  0  0  0  0
   60.4510   23.5990   45.4260 H   0  0  0  0  0  0  0  0  0  0  0  0
   59.0364   21.2874   44.9514 H   0  0  0  0  0  0  0  0  0  0  0  0
   58.0044   21.1470   43.4879 H   0  0  0  0  0  0  0  0  0  0  0  0
   59.4167   22.2569   43.4879 H   0  0  0  0  0  0  0  0  0  0  0  0
  1  2  1  0
  2  3  1  0
  3  4  2  0
  3  5  1  0
  5  6  1  0
  6  7  2  0
  7  8  1  0
  8  9  2  0
  8 10  1  0
 10 11  2  0
 11 12  1  0
 12 13  1  0
 13 14  2  0
 14 15  1  0
 15 16  2  0
 16 17  1  0
 17 18  2  0
 12 19  2  0
 19 20  1  0
 20 21  2  0
 21 22  1  0
 22 23  2  0
 23 24  1  0
 24 25  2  0
  6 26  1  0
 26 27  1  0
 27 28  1  0
 28 29  1  0
 29 30  1  0
 29 31  1  0
 31 32  2  0
 31  2  1  0
 28  5  2  0
 25 10  1  0
 18 13  1  0
 25 20  1  0
  1 33  1  0
  1 34  1  0
  1 35  1  0
 11 36  1  0
 14 37  1  0
 15 38  1  0
 17 39  1  0
 18 40  1  0
 21 41  1  0
 22 42  1  0
 23 43  1  0
 24 44  1  0
 26 45  1  0
 27 46  1  0
 30 47  1  0
 30 48  1  0
 30 49  1  0
M  END
>  <smiles>  (81) 
Cn1c(=O)c2c(=NC(=O)c3cc(-c4ccncc4)nc4ccccc34)[nH][nH]c2n(C)c1=O

>  <score_type>  (81) 
oracle

>  <origin>  (81) 
adg

>  <m_score__min__energy>  (81) 
-9.2100000000000009

>  <m_primary>  (81) 
energy

$$$$
81:0
     RDKit          3D

 49 52  0  0  0  0  0  0  0  0999 V2000
   56.3180   30.6070   42.5820 O   0  0  0  0  0  0  0  0  0  0  0  0
   56.7640   30.2340   43.9680 S   0  0  0  0  0  0  0  0  0  0  0  0
   55.5620   29.8210   44.7700 O   0  0  0  0  0  0  0  0  0  0  0  0
   57.8740   28.9020   43.8770 N   0  0  0  0  0  0  0  0  0  0  0  0
   58.5200   28.3250   45.0250 C   0  0  0  0  0  0  0  0  0  0  0  0
   57.7710   28.0880   46.1880 C   0  0  0  0  0  0  0  0  0  0  0  0
   58.3690   27.5180   47.3150 C   0  0  0  0  0  0  0  0  0  0  0  0
   59.7300   27.1990   47.3100 C   0  0  0  0  0  0  0  0  0  0  0  0
   60.2930   26.6190   48.4560 O   0  0  0  0  0  0  0  0  0  0  0  0
   60.7410   27.3230   49.5840 C   0  0  0  0  0  0  0  0  0  0  0  0
   61.1390   26.6030   50.7150 C   0  0  0  0  0  0  0  0  0  0  0  0
   61.5760   27.2890   51.8510 C   0  0  0  0  0  0  0  0  0  0  0  0
   61.5970   28.6480   51.8610 N   0  0  0  0  0  0  0  0  0  0  0  0
   61.1960   29.3740   50.7840 C   0  0  0  0  0  0  0  0  0  0  0  0
   60.7530   28.7270   49.6270 C   0  0  0  0  0  0  0  0  0  0  0  0
   60.4850   27.4290   46.1460 C   0  0  0  0  0  0  0  0  0  0  0  0
   59.8880   27.9990   45.0190 C   0  0  0  0  0  0  0  0  0  0  0  0
   57.5630   31.6240   44.6980 C   0  0  0  0  0  0  0  0  0  0  0  0
   57.7530   32.7860   43.9420 C   0  0  0  0  0  0  0  0  0  0  0  0
   58.4210   33.8820   44.4920 C   0  0  0  0  0  0  0  0  0  0  0  0
   58.9040   33.8310   45.8080 C   0  0  0  0  0  0  0  0  0  0  0  0
   58.7370   32.6520   46.5650 C   0  0  0  0  0  0  0  0  0  0  0  0
   58.0460   31.5640   46.0110 C   0  0  0  0  0  0  0  0  0  0  0  0
   59.2190   32.5730   47.9900 C   0  0  0  0  0  0  0  0  0  0  0  0
   60.2670   33.6620   48.2880 C   0  0  2  0  0  0  0  0  0  0  0  0
   60.5990   33.7240   49.7820 C   0  0  0  0  0  0  0  0  0  0  0  0
   61.7880   34.4010   50.0000 F   0  0  0  0  0  0  0  0  0  0  0  0
   59.7910   34.9750   47.8210 N   0  0  0  0  0  0  0  0  0  0  0  0
   59.6940   35.0000   46.3550 C   0  0  0  0  0  0  0  0  0  0  0  0
   58.1540   28.5840   42.9230 H   0  0  0  0  0  0  0  0  0  0  0  0
   56.7038   28.3533   46.2126 H   0  0  0  0  0  0  0  0  0  0  0  0
   57.7646   27.3189   48.2123 H   0  0  0  0  0  0  0  0  0  0  0  0
   61.1082   25.5034   50.7102 H   0  0  0  0  0  0  0  0  0  0  0  0
   61.9036   26.7283   52.7388 H   0  0  0  0  0  0  0  0  0  0  0  0
   61.2202   30.4730   50.8231 H   0  0  0  0  0  0  0  0  0  0  0  0
   60.4168   29.3118   48.7581 H   0  0  0  0  0  0  0  0  0  0  0  0
   61.5510   27.1587   46.1229 H   0  0  0  0  0  0  0  0  0  0  0  0
   60.4921   28.1942   44.1207 H   0  0  0  0  0  0  0  0  0  0  0  0
   57.3747   32.8363   42.9103 H   0  0  0  0  0  0  0  0  0  0  0  0
   58.5693   34.7905   43.8899 H   0  0  0  0  0  0  0  0  0  0  0  0
   57.8825   30.6575   46.6122 H   0  0  0  0  0  0  0  0  0  0  0  0
   58.3616   32.7063   48.6661 H   0  0  0  0  0  0  0  0  0  0  0  0
   59.6871   31.5895   48.1440 H   0  0  0  0  0  0  0  0  0  0  0  0
   61.1866   33.3989   47.7447 H   0  0  0  0  0  0  0  0  0  0  0  0
   59.7866   34.2453   50.3094 H   0  0  0  0  0  0  0  0  0  0  0  0
   60.7072   32.6964   50.1593 H   0  0  0  0  0  0  0  0  0  0  0  0
   58.8400   35.1640   48.2190 H   0  0  0  0  0  0  0  0  0  0  0  0
   59.1995   35.9340   46.0498 H   0  0  0  0  0  0  0  0  0  0  0  0
   60.7148   34.9329   45.9506 H   0  0  0  0  0  0  0  0  0  0  0  0
  1  2  2  0
  2  3  2  0
  2  4  1  0
  4  5  1  0
  5  6  2  0
  6  7  1  0
  7  8  2  0
  8  9  1  0
  9 10  1  0
 10 11  2  0
 11 12  1  0
 12 13  2  0
 13 14  1  0
 14 15  2  0
  8 16  1  0
 16 17  2  0
  2 18  1  0
 18 19  2  0
 19 20  1  0
 20 21  2  0
 21 22  1  0
 22 23  2  0
 22 24  1  0
 24 25  1  0
 25 26  1  0
 26 27  1  0
 25 28  1  0
 28 29  1  0
 17  5  1  0
 23 18  1  0
 15 10  1  0
 29 21  1  0
  4 30  1  0
  6 31  1  0
  7 32  1  0
 11 33  1  0
 12 34  1  0
 14 35  1  0
 15 36  1  0
 16 37  1  0
 17 38  1  0
 19 39  1  0
 20 40  1  0
 23 41  1  0
 24 42  1  0
 24 43  1  0
 25 44  1  6
 26 45  1  0
 26 46  1  0
 28 47  1  0
 29 48  1  0
 29 49  1  0
M  END
>  <UniqueID>  (82) 
73

>  <SMILES>  (82) 
O=S(=O)(Nc1ccc(Oc2ccncc2)cc1)c1ccc2c(c1)C[C@H](CF)NC2

>  <Energy>  (82) 
63.29668113989736

>  <Genealogy>  (82) 
O=S(=O)(Nc1ccc(Oc2ccncc2)cc1)c1ccc2c(c1)C[C@H](CF)NC2 (chirality)
O=S(=O)(Nc1ccc(Oc2ccncc2)cc1)c1ccc2c(c1)C[C@H](CF)NC2 (3D coordinates assigned)
O=S(=O)(Nc1ccc(Oc2ccncc2)cc1)c1ccc2c(c1)C[C@H](CF)NC2 (nonaromatic ring conformer: 63.29668113989736 kcal/mol)

>  <smiles>  (82) 
O=S(=O)(Nc1ccc(Oc2ccncc2)cc1)c1ccc2c(c1)CC(CF)NC2

>  <score_type>  (82) 
oracle

>  <origin>  (82) 
adg

>  <m_score__min__energy>  (82) 
-9.0999999999999996

>  <m_primary>  (82) 
energy

$$$$
82:0
     RDKit          3D

 61 66  0  0  0  0  0  0  0  0999 V2000
   57.4920   29.3360   43.5370 O   0  0  0  0  0  0  0  0  0  0  0  0
   57.2430   29.7390   44.7030 C   0  0  0  0  0  0  0  0  0  0  0  0
   57.0770   31.1440   44.9260 N   0  0  0  0  0  0  0  0  0  0  0  0
   57.7710   31.9330   45.9020 C   0  0  0  0  0  0  0  0  0  0  0  0
   57.7260   33.3390   45.8860 C   0  0  0  0  0  0  0  0  0  0  0  0
   58.4000   34.0760   46.8650 C   0  0  0  0  0  0  0  0  0  0  0  0
   59.0860   33.4230   47.8940 C   0  0  0  0  0  0  0  0  0  0  0  0
   59.8220   34.1950   48.8510 N   0  0  0  0  0  0  0  0  0  0  0  0
   60.7000   33.8210   49.7530 C   0  0  0  0  0  0  0  0  0  0  0  0
   62.0800   33.5590   49.4730 C   0  0  0  0  0  0  0  0  0  0  0  0
   62.5880   33.3020   48.1770 C   0  0  0  0  0  0  0  0  0  0  0  0
   63.9550   33.1000   47.9690 C   0  0  0  0  0  0  0  0  0  0  0  0
   64.8380   33.0990   49.0460 C   0  0  0  0  0  0  0  0  0  0  0  0
   64.3500   33.2480   50.3430 C   0  0  0  0  0  0  0  0  0  0  0  0
   62.9810   33.4390   50.5640 C   0  0  0  0  0  0  0  0  0  0  0  0
   62.5210   33.4510   51.8390 N   0  0  0  0  0  0  0  0  0  0  0  0
   61.2040   33.5580   52.1310 C   0  0  0  0  0  0  0  0  0  0  0  0
   60.7920   33.5180   53.4690 C   0  0  0  0  0  0  0  0  0  0  0  0
   59.4390   33.6390   53.7920 C   0  0  0  0  0  0  0  0  0  0  0  0
   58.4910   33.8060   52.7810 C   0  0  0  0  0  0  0  0  0  0  0  0
   58.8910   33.8550   51.4430 C   0  0  0  0  0  0  0  0  0  0  0  0
   60.2550   33.7250   51.0950 C   0  0  0  0  0  0  0  0  0  0  0  0
   59.1420   32.0180   47.9050 C   0  0  0  0  0  0  0  0  0  0  0  0
   58.4700   31.2820   46.9250 C   0  0  0  0  0  0  0  0  0  0  0  0
   57.0230   28.7950   45.7640 N   0  0  0  0  0  0  0  0  0  0  0  0
   57.4550   27.4230   45.7240 C   0  0  0  0  0  0  0  0  0  0  0  0
   58.8190   27.0830   45.6520 C   0  0  0  0  0  0  0  0  0  0  0  0
   59.2110   25.7410   45.6280 C   0  0  0  0  0  0  0  0  0  0  0  0
   58.2510   24.7170   45.6770 C   0  0  0  0  0  0  0  0  0  0  0  0
   58.6360   23.3320   45.6780 N   0  0  0  0  0  0  0  0  0  0  0  0
   57.8360   22.2680   45.1350 C   0  0  0  0  0  0  0  0  0  0  0  0
   57.4750   22.2440   43.7740 C   0  0  0  0  0  0  0  0  0  0  0  0
   56.6720   21.2130   43.2760 C   0  0  0  0  0  0  0  0  0  0  0  0
   56.2120   20.2070   44.1300 C   0  0  0  0  0  0  0  0  0  0  0  0
   56.5480   20.2350   45.4850 C   0  0  0  0  0  0  0  0  0  0  0  0
   57.3500   21.2650   45.9890 C   0  0  0  0  0  0  0  0  0  0  0  0
   56.8960   25.0570   45.8000 C   0  0  0  0  0  0  0  0  0  0  0  0
   56.5020   26.3980   45.8210 C   0  0  0  0  0  0  0  0  0  0  0  0
   57.1588   33.8604   45.1009 H   0  0  0  0  0  0  0  0  0  0  0  0
   58.3905   35.1752   46.8255 H   0  0  0  0  0  0  0  0  0  0  0  0
   61.8973   33.2607   47.3219 H   0  0  0  0  0  0  0  0  0  0  0  0
   64.3356   32.9409   46.9493 H   0  0  0  0  0  0  0  0  0  0  0  0
   65.9179   32.9809   48.8734 H   0  0  0  0  0  0  0  0  0  0  0  0
   65.0434   33.2154   51.1963 H   0  0  0  0  0  0  0  0  0  0  0  0
   61.5370   33.3908   54.2683 H   0  0  0  0  0  0  0  0  0  0  0  0
   59.1198   33.6027   54.8440 H   0  0  0  0  0  0  0  0  0  0  0  0
   57.4256   33.8993   53.0384 H   0  0  0  0  0  0  0  0  0  0  0  0
   58.1380   33.9960   50.6536 H   0  0  0  0  0  0  0  0  0  0  0  0
   59.7155   31.4973   48.6860 H   0  0  0  0  0  0  0  0  0  0  0  0
   58.4907   30.1827   46.9580 H   0  0  0  0  0  0  0  0  0  0  0  0
   56.4240   29.0970   46.5650 H   0  0  0  0  0  0  0  0  0  0  0  0
   59.5799   27.8765   45.6145 H   0  0  0  0  0  0  0  0  0  0  0  0
   60.2793   25.4853   45.5703 H   0  0  0  0  0  0  0  0  0  0  0  0
   59.5540   23.0800   46.1110 H   0  0  0  0  0  0  0  0  0  0  0  0
   57.8260   23.0393   43.1000 H   0  0  0  0  0  0  0  0  0  0  0  0
   56.4019   21.1939   42.2098 H   0  0  0  0  0  0  0  0  0  0  0  0
   55.5856   19.3936   43.7350 H   0  0  0  0  0  0  0  0  0  0  0  0
   56.1814   19.4457   46.1577 H   0  0  0  0  0  0  0  0  0  0  0  0
   57.6010   21.2890   47.0597 H   0  0  0  0  0  0  0  0  0  0  0  0
   56.1385   24.2635   45.8805 H   0  0  0  0  0  0  0  0  0  0  0  0
   55.4357   26.6517   45.9144 H   0  0  0  0  0  0  0  0  0  0  0  0
  1  2  2  0
  2  3  1  0
  3  4  1  0
  4  5  2  0
  5  6  1  0
  6  7  2  0
  7  8  1  0
  8  9  2  3
  9 10  1  0
 10 11  2  0
 11 12  1  0
 12 13  2  0
 13 14  1  0
 14 15  2  0
 15 16  1  0
 16 17  1  0
 17 18  2  0
 18 19  1  0
 19 20  2  0
 20 21  1  0
 21 22  2  0
  7 23  1  0
 23 24  2  0
  2 25  1  0
 25 26  1  0
 26 27  2  0
 27 28  1  0
 28 29  2  0
 29 30  1  0
 30 31  1  0
 31 32  2  0
 32 33  1  0
 33 34  2  0
 34 35  1  0
 35 36  2  0
 29 37  1  0
 37 38  2  0
 24  4  1  0
 38 26  1  0
 22  9  1  0
 36 31  1  0
 15 10  1  0
 22 17  1  0
  5 39  1  0
  6 40  1  0
 11 41  1  0
 12 42  1  0
 13 43  1  0
 14 44  1  0
 18 45  1  0
 19 46  1  0
 20 47  1  0
 21 48  1  0
 23 49  1  0
 24 50  1  0
 25 51  1  0
 27 52  1  0
 28 53  1  0
 30 54  1  0
 32 55  1  0
 33 56  1  0
 34 57  1  0
 35 58  1  0
 36 59  1  0
 37 60  1  0
 38 61  1  0
M  CHG  2   3  -1  16  -1
M  END
>  <UniqueID>  (83) 
74

>  <SMILES>  (83) 
O=C([N-]c1ccc(N=c2c3ccccc3[n-]c3ccccc23)cc1)Nc1ccc(Nc2ccccc2)cc1

>  <Energy>  (83) 
110.70049238286225

>  <Genealogy>  (83) 
O=C([N-]c1ccc(N=c2c3ccccc3[n-]c3ccccc23)cc1)Nc1ccc(Nc2ccccc2)cc1 (protonated)
O=C([N-]c1ccc(N=c2c3ccccc3[n-]c3ccccc23)cc1)Nc1ccc(Nc2ccccc2)cc1 (3D coordinates assigned)
O=C([N-]c1ccc(N=c2c3ccccc3[n-]c3ccccc23)cc1)Nc1ccc(Nc2ccccc2)cc1 (optimized conformer: 110.70049238286225 kcal/mol)

>  <smiles>  (83) 
O=C(Nc1ccc(N=c2c3ccccc3[nH]c3ccccc23)cc1)Nc1ccc(Nc2ccccc2)cc1

>  <score_type>  (83) 
oracle

>  <origin>  (83) 
adg

>  <m_score__min__energy>  (83) 
-12.300000000000001

>  <m_primary>  (83) 
energy

$$$$
83:0
     RDKit          3D

 65 69  0  0  0  0  0  0  0  0999 V2000
   67.8510   25.9710   51.1350 C   0  0  0  0  0  0  0  0  0  0  0  0
   67.1320   27.2520   51.1830 N   0  0  0  0  0  0  0  0  0  0  0  0
   66.3100   27.3370   52.4040 C   0  0  0  0  0  0  0  0  0  0  0  0
   65.3620   28.5350   52.2860 C   0  0  0  0  0  0  0  0  0  0  0  0
   66.0250   29.6600   51.6180 N   0  0  0  0  0  0  0  0  0  0  0  0
   65.2430   30.7220   51.0360 C   0  0  0  0  0  0  0  0  0  0  0  0
   65.8280   31.6200   50.1250 C   0  0  0  0  0  0  0  0  0  0  0  0
   65.0650   32.6360   49.5440 C   0  0  0  0  0  0  0  0  0  0  0  0
   63.7040   32.7640   49.8540 C   0  0  0  0  0  0  0  0  0  0  0  0
   62.7570   34.0520   49.1120 S   0  0  0  0  0  0  0  0  0  0  0  0
   62.6640   35.1980   50.0820 O   0  0  0  0  0  0  0  0  0  0  0  0
   63.4370   34.5370   47.8630 O   0  0  0  0  0  0  0  0  0  0  0  0
   61.1560   33.4660   48.7240 N   0  0  2  0  0  0  0  0  0  0  0  0
   61.1550   31.9770   48.6040 C   0  0  0  0  0  0  0  0  0  0  0  0
   60.9060   31.4580   47.1780 C   0  0  0  0  0  0  0  0  0  0  0  0
   59.6680   32.1080   46.6170 C   0  0  0  0  0  0  0  0  0  0  0  0
   59.5100   33.4790   46.8670 C   0  0  0  0  0  0  0  0  0  0  0  0
   58.3710   34.1540   46.4080 C   0  0  0  0  0  0  0  0  0  0  0  0
   57.3810   33.4590   45.7140 C   0  0  0  0  0  0  0  0  0  0  0  0
   57.5350   32.0970   45.4470 C   0  0  0  0  0  0  0  0  0  0  0  0
   58.6830   31.4090   45.8770 C   0  0  0  0  0  0  0  0  0  0  0  0
   58.8250   29.9780   45.5280 C   0  0  0  0  0  0  0  0  0  0  0  0
   59.9690   29.5220   44.8560 C   0  0  0  0  0  0  0  0  0  0  0  0
   60.0870   28.1760   44.5030 C   0  0  0  0  0  0  0  0  0  0  0  0
   59.0660   27.2750   44.8170 C   0  0  0  0  0  0  0  0  0  0  0  0
   57.9180   27.7120   45.5010 C   0  0  0  0  0  0  0  0  0  0  0  0
   56.7940   26.7510   45.7980 C   0  0  0  0  0  0  0  0  0  0  0  0
   56.8700   26.2990   47.1060 F   0  0  0  0  0  0  0  0  0  0  0  0
   55.5630   27.3650   45.6270 F   0  0  0  0  0  0  0  0  0  0  0  0
   56.8790   25.6700   44.9390 F   0  0  0  0  0  0  0  0  0  0  0  0
   57.7940   29.0730   45.8300 C   0  0  0  0  0  0  0  0  0  0  0  0
   60.6360   34.2110   47.5480 C   0  0  0  0  0  0  0  0  0  0  0  0
   63.1140   31.8710   50.7590 C   0  0  0  0  0  0  0  0  0  0  0  0
   63.8770   30.8560   51.3440 C   0  0  0  0  0  0  0  0  0  0  0  0
   67.4930   29.7120   51.6110 C   0  0  0  0  0  0  0  0  0  0  0  0
   68.0850   28.3840   51.0920 C   0  0  0  0  0  0  0  0  0  0  0  0
   68.0469   25.6219   52.1596 H   0  0  0  0  0  0  0  0  0  0  0  0
   67.2389   25.2266   50.6048 H   0  0  0  0  0  0  0  0  0  0  0  0
   68.8053   26.1058   50.6048 H   0  0  0  0  0  0  0  0  0  0  0  0
   65.7240   26.4132   52.5189 H   0  0  0  0  0  0  0  0  0  0  0  0
   66.9609   27.4638   53.2816 H   0  0  0  0  0  0  0  0  0  0  0  0
   64.4779   28.2392   51.7022 H   0  0  0  0  0  0  0  0  0  0  0  0
   65.0651   28.8506   53.2971 H   0  0  0  0  0  0  0  0  0  0  0  0
   66.8931   31.5217   49.8684 H   0  0  0  0  0  0  0  0  0  0  0  0
   65.5345   33.3388   48.8400 H   0  0  0  0  0  0  0  0  0  0  0  0
   60.5510   33.7170   49.5410 H   0  0  0  0  0  0  0  0  0  0  0  0
   62.1333   31.6034   48.9408 H   0  0  0  0  0  0  0  0  0  0  0  0
   60.3222   31.6113   49.2226 H   0  0  0  0  0  0  0  0  0  0  0  0
   61.7694   31.7036   46.5423 H   0  0  0  0  0  0  0  0  0  0  0  0
   60.7684   30.3669   47.2033 H   0  0  0  0  0  0  0  0  0  0  0  0
   58.2578   35.2320   46.5951 H   0  0  0  0  0  0  0  0  0  0  0  0
   56.4761   33.9852   45.3759 H   0  0  0  0  0  0  0  0  0  0  0  0
   56.7510   31.5577   44.8953 H   0  0  0  0  0  0  0  0  0  0  0  0
   60.7757   30.2270   44.6063 H   0  0  0  0  0  0  0  0  0  0  0  0
   60.9862   27.8240   43.9763 H   0  0  0  0  0  0  0  0  0  0  0  0
   59.1610   26.2181   44.5274 H   0  0  0  0  0  0  0  0  0  0  0  0
   56.8816   29.4325   46.3283 H   0  0  0  0  0  0  0  0  0  0  0  0
   61.4547   34.3521   46.8271 H   0  0  0  0  0  0  0  0  0  0  0  0
   60.2467   35.1764   47.9034 H   0  0  0  0  0  0  0  0  0  0  0  0
   62.0475   31.9691   51.0097 H   0  0  0  0  0  0  0  0  0  0  0  0
   63.4056   30.1569   52.0505 H   0  0  0  0  0  0  0  0  0  0  0  0
   67.8218   30.5335   50.9575 H   0  0  0  0  0  0  0  0  0  0  0  0
   67.8453   29.8774   52.6398 H   0  0  0  0  0  0  0  0  0  0  0  0
   68.3731   28.5162   50.0387 H   0  0  0  0  0  0  0  0  0  0  0  0
   68.9500   28.1386   51.7257 H   0  0  0  0  0  0  0  0  0  0  0  0
  1  2  1  0
  2  3  1  0
  3  4  1  0
  4  5  1  0
  5  6  1  0
  6  7  2  0
  7  8  1  0
  8  9  2  0
  9 10  1  0
 10 11  2  0
 10 12  2  0
 10 13  1  0
 13 14  1  0
 14 15  1  0
 15 16  1  0
 16 17  2  0
 17 18  1  0
 18 19  2  0
 19 20  1  0
 20 21  2  0
 21 22  1  0
 22 23  2  0
 23 24  1  0
 24 25  2  0
 25 26  1  0
 26 27  1  0
 27 28  1  0
 27 29  1  0
 27 30  1  0
 26 31  2  0
 17 32  1  0
  9 33  1  0
 33 34  2  0
  5 35  1  0
 35 36  1  0
 36  2  1  0
 34  6  1  0
 32 13  1  0
 21 16  1  0
 31 22  1  0
  1 37  1  0
  1 38  1  0
  1 39  1  0
  3 40  1  0
  3 41  1  0
  4 42  1  0
  4 43  1  0
  7 44  1  0
  8 45  1  0
 13 46  1  1
 14 47  1  0
 14 48  1  0
 15 49  1  0
 15 50  1  0
 18 51  1  0
 19 52  1  0
 20 53  1  0
 23 54  1  0
 24 55  1  0
 25 56  1  0
 31 57  1  0
 32 58  1  0
 32 59  1  0
 33 60  1  0
 34 61  1  0
 35 62  1  0
 35 63  1  0
 36 64  1  0
 36 65  1  0
M  CHG  1  13   1
M  END
>  <UniqueID>  (84) 
75

>  <SMILES>  (84) 
CN1CCN(c2ccc(S(=O)(=O)[N@@H+]3CCc4c(cccc4-c4cccc(C(F)(F)F)c4)C3)cc2)CC1

>  <Energy>  (84) 
96.15874911100569

>  <Genealogy>  (84) 
CN1CCN(c2ccc(S(=O)(=O)[NH+]3CCc4c(cccc4-c4cccc(C(F)(F)F)c4)C3)cc2)CC1 (protonated)
CN1CCN(c2ccc(S(=O)(=O)[N@@H+]3CCc4c(cccc4-c4cccc(C(F)(F)F)c4)C3)cc2)CC1 (chirality)
CN1CCN(c2ccc(S(=O)(=O)[N@@H+]3CCc4c(cccc4-c4cccc(C(F)(F)F)c4)C3)cc2)CC1 (3D coordinates assigned)
CN1CCN(c2ccc(S(=O)(=O)[N@@H+]3CCc4c(cccc4-c4cccc(C(F)(F)F)c4)C3)cc2)CC1 (nonaromatic ring conformer: 96.15874911100569 kcal/mol)

>  <smiles>  (84) 
CN1CCN(c2ccc(S(=O)(=O)N3CCc4c(cccc4-c4cccc(C(F)(F)F)c4)C3)cc2)CC1

>  <score_type>  (84) 
oracle

>  <origin>  (84) 
adg

>  <m_score__min__energy>  (84) 
-8.4700000000000006

>  <m_primary>  (84) 
energy

$$$$
84:0
     RDKit          3D

 46 47  0  0  0  0  0  0  0  0999 V2000
   59.5230   33.9820   48.4170 C   0  0  0  0  0  0  0  0  0  0  0  0
   59.2600   34.5980   47.0430 C   0  0  0  0  0  0  0  0  0  0  0  0
   59.3410   33.5800   45.8960 C   0  0  0  0  0  0  0  0  0  0  0  0
   57.7500   32.8590   45.4850 S   0  0  0  0  0  0  0  0  0  0  0  0
   57.3180   33.3430   44.1280 O   0  0  0  0  0  0  0  0  0  0  0  0
   56.7380   33.3070   46.5010 O   0  0  0  0  0  0  0  0  0  0  0  0
   57.8130   31.1090   45.5110 N   0  0  0  0  0  0  0  0  0  0  0  0
   59.1890   30.5650   45.4320 C   0  0  0  0  0  0  0  0  0  0  0  0
   59.3890   29.1780   46.0740 C   0  0  0  0  0  0  0  0  0  0  0  0
   58.1020   28.4060   46.4090 C   0  0  0  0  0  0  0  0  0  0  0  0
   57.2340   28.0210   45.1860 C   0  0  1  0  0  0  0  0  0  0  0  0
   55.8860   27.6390   45.6180 N   0  0  0  0  0  0  0  0  0  0  0  0
   55.4820   26.3290   46.0350 C   0  0  0  0  0  0  0  0  0  0  0  0
   54.2620   26.0200   45.9800 O   0  0  0  0  0  0  0  0  0  0  0  0
   56.4180   25.3780   46.5540 N   0  0  0  0  0  0  0  0  0  0  0  0
   57.0300   24.3210   45.8020 C   0  0  0  0  0  0  0  0  0  0  0  0
   58.3710   23.9490   46.0110 C   0  0  0  0  0  0  0  0  0  0  0  0
   58.9430   22.9270   45.2460 C   0  0  0  0  0  0  0  0  0  0  0  0
   58.1890   22.2820   44.2620 C   0  0  0  0  0  0  0  0  0  0  0  0
   56.8630   22.6610   44.0370 C   0  0  0  0  0  0  0  0  0  0  0  0
   56.2870   23.6810   44.8010 C   0  0  0  0  0  0  0  0  0  0  0  0
   57.1260   29.1140   44.0840 C   0  0  0  0  0  0  0  0  0  0  0  0
   56.7960   30.5320   44.5970 C   0  0  0  0  0  0  0  0  0  0  0  0
   59.2200   34.6916   49.2010 H   0  0  0  0  0  0  0  0  0  0  0  0
   58.9431   33.0529   48.5194 H   0  0  0  0  0  0  0  0  0  0  0  0
   60.5951   33.7582   48.5194 H   0  0  0  0  0  0  0  0  0  0  0  0
   58.2534   35.0415   47.0460 H   0  0  0  0  0  0  0  0  0  0  0  0
   60.0434   35.3500   46.8675 H   0  0  0  0  0  0  0  0  0  0  0  0
   59.7367   34.0877   45.0040 H   0  0  0  0  0  0  0  0  0  0  0  0
   59.9972   32.7619   46.2278 H   0  0  0  0  0  0  0  0  0  0  0  0
   59.4639   30.4901   44.3695 H   0  0  0  0  0  0  0  0  0  0  0  0
   59.8226   31.2584   46.0045 H   0  0  0  0  0  0  0  0  0  0  0  0
   59.9790   28.5649   45.3769 H   0  0  0  0  0  0  0  0  0  0  0  0
   59.8870   29.3627   47.0373 H   0  0  0  0  0  0  0  0  0  0  0  0
   58.3853   27.4804   46.9316 H   0  0  0  0  0  0  0  0  0  0  0  0
   57.4879   29.0824   47.0217 H   0  0  0  0  0  0  0  0  0  0  0  0
   57.7600   27.1726   44.7238 H   0  0  0  0  0  0  0  0  0  0  0  0
   58.9704   24.4627   46.7771 H   0  0  0  0  0  0  0  0  0  0  0  0
   59.9880   22.6306   45.4193 H   0  0  0  0  0  0  0  0  0  0  0  0
   58.6394   21.4758   43.6644 H   0  0  0  0  0  0  0  0  0  0  0  0
   56.2718   22.1567   43.2584 H   0  0  0  0  0  0  0  0  0  0  0  0
   55.2455   23.9824   44.6152 H   0  0  0  0  0  0  0  0  0  0  0  0
   58.0886   29.1591   43.5536 H   0  0  0  0  0  0  0  0  0  0  0  0
   56.2843   28.8178   43.4408 H   0  0  0  0  0  0  0  0  0  0  0  0
   56.6990   31.1980   43.7269 H   0  0  0  0  0  0  0  0  0  0  0  0
   55.8665   30.4453   45.1787 H   0  0  0  0  0  0  0  0  0  0  0  0
  1  2  1  0
  2  3  1  0
  3  4  1  0
  4  5  2  0
  4  6  2  0
  4  7  1  0
  7  8  1  0
  8  9  1  0
  9 10  1  0
 10 11  1  0
 11 12  1  0
 12 13  1  0
 13 14  2  0
 13 15  1  0
 15 16  1  0
 16 17  2  0
 17 18  1  0
 18 19  2  0
 19 20  1  0
 20 21  2  0
 11 22  1  0
 22 23  1  0
 23  7  1  0
 21 16  1  0
  1 24  1  0
  1 25  1  0
  1 26  1  0
  2 27  1  0
  2 28  1  0
  3 29  1  0
  3 30  1  0
  8 31  1  0
  8 32  1  0
  9 33  1  0
  9 34  1  0
 10 35  1  0
 10 36  1  0
 11 37  1  6
 17 38  1  0
 18 39  1  0
 19 40  1  0
 20 41  1  0
 21 42  1  0
 22 43  1  0
 22 44  1  0
 23 45  1  0
 23 46  1  0
M  CHG  2  12  -1  15  -1
M  END
>  <UniqueID>  (85) 
76

>  <SMILES>  (85) 
CCCS(=O)(=O)N1CCC[C@@H]([N-]C(=O)[N-]c2ccccc2)CC1

>  <Energy>  (85) 
57.951808836675745

>  <Genealogy>  (85) 
CCCS(=O)(=O)N1CCCC([N-]C(=O)[N-]c2ccccc2)CC1 (protonated)
CCCS(=O)(=O)N1CCC[C@@H]([N-]C(=O)[N-]c2ccccc2)CC1 (chirality)
CCCS(=O)(=O)N1CCC[C@@H]([N-]C(=O)[N-]c2ccccc2)CC1 (3D coordinates assigned)
CCCS(=O)(=O)N1CCC[C@@H]([N-]C(=O)[N-]c2ccccc2)CC1 (nonaromatic ring conformer: 57.951808836675745 kcal/mol)

>  <smiles>  (85) 
CCCS(=O)(=O)N1CCCC(NC(=O)Nc2ccccc2)CC1

>  <score_type>  (85) 
oracle

>  <origin>  (85) 
adg

>  <m_score__min__energy>  (85) 
-10.16

>  <m_primary>  (85) 
energy

$$$$
85:0
     RDKit          3D

 34 36  0  0  0  0  0  0  0  0999 V2000
   61.1180   30.6870   46.5510 O   0  0  0  0  0  0  0  0  0  0  0  0
   60.0110   30.0890   46.4750 C   0  0  0  0  0  0  0  0  0  0  0  0
   59.6820   29.2860   45.2600 C   0  0  0  0  0  0  0  0  0  0  0  0
   59.5870   27.8420   45.6460 C   0  0  0  0  0  0  0  0  0  0  0  0
   60.6380   27.0120   46.0250 C   0  0  0  0  0  0  0  0  0  0  0  0
   60.1690   25.8530   46.4520 O   0  0  0  0  0  0  0  0  0  0  0  0
   58.8600   25.9000   46.3840 C   0  0  0  0  0  0  0  0  0  0  0  0
   57.9530   24.9120   46.7580 C   0  0  0  0  0  0  0  0  0  0  0  0
   56.5810   25.1950   46.6260 C   0  0  0  0  0  0  0  0  0  0  0  0
   56.1520   26.4470   46.1310 C   0  0  0  0  0  0  0  0  0  0  0  0
   54.7940   26.7160   46.0130 O   0  0  0  0  0  0  0  0  0  0  0  0
   57.0930   27.4250   45.7590 C   0  0  0  0  0  0  0  0  0  0  0  0
   58.4450   27.1110   45.8950 C   0  0  0  0  0  0  0  0  0  0  0  0
   59.1150   30.0800   47.5890 N   0  0  0  0  0  0  0  0  0  0  0  0
   58.8530   31.2610   48.4020 C   0  0  0  0  0  0  0  0  0  0  0  0
   58.9060   32.4850   47.5290 C   0  0  0  0  0  0  0  0  0  0  0  0
   59.9590   33.4050   47.6690 C   0  0  0  0  0  0  0  0  0  0  0  0
   60.0640   34.4940   46.7970 C   0  0  0  0  0  0  0  0  0  0  0  0
   59.1300   34.6630   45.7710 C   0  0  0  0  0  0  0  0  0  0  0  0
   59.2440   35.7090   44.9170 F   0  0  0  0  0  0  0  0  0  0  0  0
   58.0850   33.7460   45.6200 C   0  0  0  0  0  0  0  0  0  0  0  0
   57.9730   32.6600   46.4930 C   0  0  0  0  0  0  0  0  0  0  0  0
   58.7203   29.6215   44.8445 H   0  0  0  0  0  0  0  0  0  0  0  0
   60.4669   29.4187   44.5009 H   0  0  0  0  0  0  0  0  0  0  0  0
   61.7033   27.2816   45.9762 H   0  0  0  0  0  0  0  0  0  0  0  0
   58.2979   23.9415   47.1442 H   0  0  0  0  0  0  0  0  0  0  0  0
   55.8371   24.4362   46.9102 H   0  0  0  0  0  0  0  0  0  0  0  0
   56.7729   28.4044   45.3738 H   0  0  0  0  0  0  0  0  0  0  0  0
   57.8562   31.1786   48.8598 H   0  0  0  0  0  0  0  0  0  0  0  0
   59.6118   31.3395   49.1945 H   0  0  0  0  0  0  0  0  0  0  0  0
   60.7035   33.2684   48.4672 H   0  0  0  0  0  0  0  0  0  0  0  0
   60.8828   35.2183   46.9190 H   0  0  0  0  0  0  0  0  0  0  0  0
   57.3498   33.8795   44.8128 H   0  0  0  0  0  0  0  0  0  0  0  0
   57.1512   31.9395   46.3684 H   0  0  0  0  0  0  0  0  0  0  0  0
  1  2  2  0
  2  3  1  0
  3  4  1  0
  4  5  2  0
  5  6  1  0
  6  7  1  0
  7  8  2  0
  8  9  1  0
  9 10  2  0
 10 11  1  0
 10 12  1  0
 12 13  2  0
  2 14  1  0
 14 15  1  0
 15 16  1  0
 16 17  2  0
 17 18  1  0
 18 19  2  0
 19 20  1  0
 19 21  1  0
 21 22  2  0
 13  4  1  0
 22 16  1  0
 13  7  1  0
  3 23  1  0
  3 24  1  0
  5 25  1  0
  8 26  1  0
  9 27  1  0
 12 28  1  0
 15 29  1  0
 15 30  1  0
 17 31  1  0
 18 32  1  0
 21 33  1  0
 22 34  1  0
M  CHG  2  11  -1  14  -1
M  END
>  <UniqueID>  (86) 
77

>  <SMILES>  (86) 
O=C(Cc1coc2ccc([O-])cc12)[N-]Cc1ccc(F)cc1

>  <Energy>  (86) 
63.015773459589695

>  <Genealogy>  (86) 
O=C(Cc1coc2ccc([O-])cc12)[N-]Cc1ccc(F)cc1 (protonated)
O=C(Cc1coc2ccc([O-])cc12)[N-]Cc1ccc(F)cc1 (3D coordinates assigned)
O=C(Cc1coc2ccc([O-])cc12)[N-]Cc1ccc(F)cc1 (optimized conformer: 63.015773459589695 kcal/mol)

>  <smiles>  (86) 
O=C(Cc1coc2ccc(O)cc12)NCc1ccc(F)cc1

>  <score_type>  (86) 
oracle

>  <origin>  (86) 
adg

>  <m_score__min__energy>  (86) 
-12.5

>  <m_primary>  (86) 
energy

$$$$
86:0
     RDKit          3D

 82 86  0  0  0  0  0  0  0  0999 V2000
   55.8750   28.9860   53.2750 C   0  0  0  0  0  0  0  0  0  0  0  0
   57.2250   29.5010   52.7680 C   0  0  0  0  0  0  0  0  0  0  0  0
   57.0660   30.6830   51.8000 C   0  0  0  0  0  0  0  0  0  0  0  0
   57.7670   31.9650   52.3000 C   0  0  0  0  0  0  0  0  0  0  0  0
   58.4300   32.7010   51.1680 C   0  0  0  0  0  0  0  0  0  0  0  0
   57.9450   32.6810   49.9110 N   0  0  0  0  0  0  0  0  0  0  0  0
   58.7870   33.3540   49.1420 N   0  0  0  0  0  0  0  0  0  0  0  0
   58.6680   33.4640   47.7080 C   0  0  0  0  0  0  0  0  0  0  0  0
   59.3970   34.4270   46.9880 C   0  0  0  0  0  0  0  0  0  0  0  0
   59.3090   34.4790   45.5940 C   0  0  0  0  0  0  0  0  0  0  0  0
   58.5210   33.5570   44.9030 C   0  0  0  0  0  0  0  0  0  0  0  0
   57.8230   32.5680   45.6010 C   0  0  0  0  0  0  0  0  0  0  0  0
   57.0660   31.5920   44.8710 N   0  0  0  0  0  0  0  0  0  0  0  0
   57.0720   30.1840   45.1450 C   0  0  0  0  0  0  0  0  0  0  0  0
   56.0290   29.5150   44.9230 O   0  0  0  0  0  0  0  0  0  0  0  0
   58.2480   29.5230   45.6490 N   0  0  0  0  0  0  0  0  0  0  0  0
   59.5870   29.9090   45.1950 C   0  0  0  0  0  0  0  0  0  0  0  0
   58.1050   28.4270   46.6070 C   0  0  0  0  0  0  0  0  0  0  0  0
   57.8700   32.5490   47.0030 C   0  0  0  0  0  0  0  0  0  0  0  0
   59.7760   33.7950   49.9500 C   0  0  0  0  0  0  0  0  0  0  0  0
   60.7540   34.4910   49.5630 O   0  0  0  0  0  0  0  0  0  0  0  0
   59.5880   33.4070   51.2310 N   0  0  0  0  0  0  0  0  0  0  0  0
   60.5610   33.4940   52.3260 C   0  0  0  0  0  0  0  0  0  0  0  0
   61.1330   32.1280   52.5930 C   0  0  0  0  0  0  0  0  0  0  0  0
   60.4600   31.2300   53.4370 C   0  0  0  0  0  0  0  0  0  0  0  0
   60.8330   29.8840   53.4710 C   0  0  0  0  0  0  0  0  0  0  0  0
   61.8780   29.4230   52.6580 C   0  0  0  0  0  0  0  0  0  0  0  0
   62.0870   27.9750   52.4830 C   0  0  0  0  0  0  0  0  0  0  0  0
   62.8290   27.2780   53.4480 C   0  0  0  0  0  0  0  0  0  0  0  0
   63.0450   25.9050   53.3160 C   0  0  0  0  0  0  0  0  0  0  0  0
   62.5180   25.2150   52.2230 C   0  0  0  0  0  0  0  0  0  0  0  0
   61.7650   25.8930   51.2620 C   0  0  0  0  0  0  0  0  0  0  0  0
   61.5300   27.2720   51.3820 C   0  0  0  0  0  0  0  0  0  0  0  0
   60.5580   28.0690   50.1270 S   0  0  0  0  0  0  0  0  0  0  0  0
   60.0740   27.0630   49.1230 O   0  0  0  0  0  0  0  0  0  0  0  0
   59.3780   28.7480   50.7650 O   0  0  0  0  0  0  0  0  0  0  0  0
   61.5190   29.2440   49.2900 N   0  0  0  0  0  0  0  0  0  0  0  0
   60.9910   30.5000   48.8540 C   0  0  0  0  0  0  0  0  0  0  0  0
   59.7500   30.7140   48.9160 O   0  0  0  0  0  0  0  0  0  0  0  0
   61.8930   31.5470   48.3230 C   0  0  0  0  0  0  0  0  0  0  0  0
   63.0970   31.8610   48.9810 C   0  0  0  0  0  0  0  0  0  0  0  0
   63.9440   32.8500   48.4710 C   0  0  0  0  0  0  0  0  0  0  0  0
   63.5990   33.5360   47.3030 C   0  0  0  0  0  0  0  0  0  0  0  0
   62.4100   33.2290   46.6390 C   0  0  0  0  0  0  0  0  0  0  0  0
   61.5600   32.2400   47.1430 C   0  0  0  0  0  0  0  0  0  0  0  0
   62.6200   30.3390   51.8970 C   0  0  0  0  0  0  0  0  0  0  0  0
   62.2470   31.6830   51.8650 C   0  0  0  0  0  0  0  0  0  0  0  0
   55.8726   28.9851   54.3750 H   0  0  0  0  0  0  0  0  0  0  0  0
   55.0712   29.6406   52.9071 H   0  0  0  0  0  0  0  0  0  0  0  0
   55.7114   27.9623   52.9071 H   0  0  0  0  0  0  0  0  0  0  0  0
   57.8267   29.8265   53.6294 H   0  0  0  0  0  0  0  0  0  0  0  0
   57.7175   28.6816   52.2240 H   0  0  0  0  0  0  0  0  0  0  0  0
   57.4986   30.4021   50.8284 H   0  0  0  0  0  0  0  0  0  0  0  0
   55.9912   30.9031   51.7201 H   0  0  0  0  0  0  0  0  0  0  0  0
   57.0197   32.6235   52.7668 H   0  0  0  0  0  0  0  0  0  0  0  0
   58.5401   31.6773   53.0277 H   0  0  0  0  0  0  0  0  0  0  0  0
   57.0990   32.1640   49.5830 H   0  0  0  0  0  0  0  0  0  0  0  0
   60.0388   35.1419   47.5237 H   0  0  0  0  0  0  0  0  0  0  0  0
   59.8633   35.2501   45.0389 H   0  0  0  0  0  0  0  0  0  0  0  0
   58.4494   33.6091   43.8066 H   0  0  0  0  0  0  0  0  0  0  0  0
   60.2307   30.0946   46.0675 H   0  0  0  0  0  0  0  0  0  0  0  0
   60.0164   29.0981   44.5884 H   0  0  0  0  0  0  0  0  0  0  0  0
   59.5189   30.8241   44.5884 H   0  0  0  0  0  0  0  0  0  0  0  0
   58.1570   28.8258   47.6308 H   0  0  0  0  0  0  0  0  0  0  0  0
   57.1346   27.9317   46.4553 H   0  0  0  0  0  0  0  0  0  0  0  0
   58.9158   27.6993   46.4553 H   0  0  0  0  0  0  0  0  0  0  0  0
   57.2744   31.8082   47.5566 H   0  0  0  0  0  0  0  0  0  0  0  0
   61.3710   34.1828   52.0439 H   0  0  0  0  0  0  0  0  0  0  0  0
   60.0630   33.8685   53.2325 H   0  0  0  0  0  0  0  0  0  0  0  0
   59.6368   31.5873   54.0732 H   0  0  0  0  0  0  0  0  0  0  0  0
   60.3059   29.1848   54.1368 H   0  0  0  0  0  0  0  0  0  0  0  0
   63.2430   27.8161   54.3135 H   0  0  0  0  0  0  0  0  0  0  0  0
   63.6315   25.3660   54.0746 H   0  0  0  0  0  0  0  0  0  0  0  0
   62.6963   24.1346   52.1184 H   0  0  0  0  0  0  0  0  0  0  0  0
   61.3526   25.3421   50.4039 H   0  0  0  0  0  0  0  0  0  0  0  0
   63.3732   31.3256   49.9013 H   0  0  0  0  0  0  0  0  0  0  0  0
   64.8839   33.0886   48.9902 H   0  0  0  0  0  0  0  0  0  0  0  0
   64.2642   34.3175   46.9072 H   0  0  0  0  0  0  0  0  0  0  0  0
   62.1414   33.7663   45.7175 H   0  0  0  0  0  0  0  0  0  0  0  0
   60.6252   32.0016   46.6145 H   0  0  0  0  0  0  0  0  0  0  0  0
   63.4957   29.9975   51.3257 H   0  0  0  0  0  0  0  0  0  0  0  0
   62.8296   32.3980   51.2656 H   0  0  0  0  0  0  0  0  0  0  0  0
  1  2  1  0
  2  3  1  0
  3  4  1  0
  4  5  1  0
  5  6  2  0
  6  7  1  0
  7  8  1  0
  8  9  2  0
  9 10  1  0
 10 11  2  0
 11 12  1  0
 12 13  1  0
 13 14  1  0
 14 15  2  0
 14 16  1  0
 16 17  1  0
 16 18  1  0
 12 19  2  0
  7 20  1  0
 20 21  2  0
 20 22  1  0
 22 23  1  0
 23 24  1  0
 24 25  2  0
 25 26  1  0
 26 27  2  0
 27 28  1  0
 28 29  2  0
 29 30  1  0
 30 31  2  0
 31 32  1  0
 32 33  2  0
 33 34  1  0
 34 35  2  0
 34 36  2  0
 34 37  1  0
 37 38  1  0
 38 39  2  0
 38 40  1  0
 40 41  2  0
 41 42  1  0
 42 43  2  0
 43 44  1  0
 44 45  2  0
 27 46  1  0
 46 47  2  0
 22  5  1  0
 47 24  1  0
 19  8  1  0
 33 28  1  0
 45 40  1  0
  1 48  1  0
  1 49  1  0
  1 50  1  0
  2 51  1  0
  2 52  1  0
  3 53  1  0
  3 54  1  0
  4 55  1  0
  4 56  1  0
  6 57  1  0
  9 58  1  0
 10 59  1  0
 11 60  1  0
 17 61  1  0
 17 62  1  0
 17 63  1  0
 18 64  1  0
 18 65  1  0
 18 66  1  0
 19 67  1  0
 23 68  1  0
 23 69  1  0
 25 70  1  0
 26 71  1  0
 29 72  1  0
 30 73  1  0
 31 74  1  0
 32 75  1  0
 41 76  1  0
 42 77  1  0
 43 78  1  0
 44 79  1  0
 45 80  1  0
 46 81  1  0
 47 82  1  0
M  CHG  3   6   1  13  -1  37  -1
M  END
>  <UniqueID>  (87) 
78

>  <SMILES>  (87) 
CCCCc1[nH+]n(-c2cccc([N-]C(=O)N(C)C)c2)c(=O)n1Cc1ccc(-c2ccccc2S(=O)(=O)[N-]C(=O)c2ccccc2)cc1

>  <Energy>  (87) 
138.43250463708256

>  <Genealogy>  (87) 
CCCCc1[nH+]n(-c2cccc([N-]C(=O)N(C)C)c2)c(=O)n1Cc1ccc(-c2ccccc2S(=O)(=O)[N-]C(=O)c2ccccc2)cc1 (protonated)
CCCCc1[nH+]n(-c2cccc([N-]C(=O)N(C)C)c2)c(=O)n1Cc1ccc(-c2ccccc2S(=O)(=O)[N-]C(=O)c2ccccc2)cc1 (3D coordinates assigned)
CCCCc1[nH+]n(-c2cccc([N-]C(=O)N(C)C)c2)c(=O)n1Cc1ccc(-c2ccccc2S(=O)(=O)[N-]C(=O)c2ccccc2)cc1 (optimized conformer: 138.43250463708256 kcal/mol)

>  <smiles>  (87) 
CCCCc1nn(-c2cccc(NC(=O)N(C)C)c2)c(=O)n1Cc1ccc(-c2ccccc2S(=O)(=O)NC(=O)c2ccccc2)cc1

>  <score_type>  (87) 
oracle

>  <origin>  (87) 
adg

>  <m_score__min__energy>  (87) 
-14.130000000000001

>  <m_primary>  (87) 
energy

$$$$
87:0
     RDKit          3D

 24 25  0  0  0  0  0  0  0  0999 V2000
   60.2570   25.9750   46.7710 C   0  0  0  0  0  0  0  0  0  0  0  0
   58.7790   26.0970   46.5170 C   0  0  0  0  0  0  0  0  0  0  0  0
   57.8830   25.3780   47.3220 C   0  0  0  0  0  0  0  0  0  0  0  0
   56.5430   25.4810   47.1230 N   0  0  0  0  0  0  0  0  0  0  0  0
   56.0230   26.2780   46.1560 C   0  0  0  0  0  0  0  0  0  0  0  0
   54.7750   26.3410   46.0000 O   0  0  0  0  0  0  0  0  0  0  0  0
   56.8700   27.0270   45.3380 C   0  0  0  0  0  0  0  0  0  0  0  0
   58.2560   26.9560   45.5250 C   0  0  0  0  0  0  0  0  0  0  0  0
   59.3150   27.9540   44.4640 S   0  0  0  0  0  0  0  0  0  0  0  0
   58.2840   29.4140   44.6100 C   0  0  0  0  0  0  0  0  0  0  0  0
   58.5910   30.4000   45.5540 C   0  0  0  0  0  0  0  0  0  0  0  0
   57.7750   31.5300   45.6550 C   0  0  0  0  0  0  0  0  0  0  0  0
   56.6880   31.6590   44.8470 N   0  0  0  0  0  0  0  0  0  0  0  0
   56.3630   30.7080   43.9310 C   0  0  0  0  0  0  0  0  0  0  0  0
   57.1550   29.5630   43.8000 C   0  0  0  0  0  0  0  0  0  0  0  0
   60.4427   25.9597   47.8551 H   0  0  0  0  0  0  0  0  0  0  0  0
   60.6305   25.0430   46.3218 H   0  0  0  0  0  0  0  0  0  0  0  0
   60.7783   26.8332   46.3218 H   0  0  0  0  0  0  0  0  0  0  0  0
   58.2681   24.7262   48.1200 H   0  0  0  0  0  0  0  0  0  0  0  0
   56.4509   27.6701   44.5501 H   0  0  0  0  0  0  0  0  0  0  0  0
   59.4664   30.2868   46.2105 H   0  0  0  0  0  0  0  0  0  0  0  0
   58.0116   32.3154   46.3880 H   0  0  0  0  0  0  0  0  0  0  0  0
   55.4767   30.8394   43.2928 H   0  0  0  0  0  0  0  0  0  0  0  0
   56.8918   28.7869   43.0663 H   0  0  0  0  0  0  0  0  0  0  0  0
  1  2  1  0
  2  3  2  0
  3  4  1  0
  4  5  1  0
  5  6  2  0
  5  7  1  0
  7  8  2  0
  8  9  1  0
  9 10  1  0
 10 11  2  0
 11 12  1  0
 12 13  2  0
 13 14  1  0
 14 15  2  0
  8  2  1  0
 15 10  1  0
  1 16  1  0
  1 17  1  0
  1 18  1  0
  3 19  1  0
  7 20  1  0
 11 21  1  0
 12 22  1  0
 14 23  1  0
 15 24  1  0
M  CHG  1   4  -1
M  END
>  <UniqueID>  (88) 
79

>  <SMILES>  (88) 
Cc1c[n-]c(=O)cc1Sc1ccncc1

>  <Energy>  (88) 
22.66820563193383

>  <Genealogy>  (88) 
Cc1c[n-]c(=O)cc1Sc1ccncc1 (protonated)
Cc1c[n-]c(=O)cc1Sc1ccncc1 (3D coordinates assigned)
Cc1c[n-]c(=O)cc1Sc1ccncc1 (optimized conformer: 22.66820563193383 kcal/mol)

>  <smiles>  (88) 
Cc1c[nH]c(=O)cc1Sc1ccncc1

>  <score_type>  (88) 
oracle

>  <origin>  (88) 
adg

>  <m_score__min__energy>  (88) 
-8.5

>  <m_primary>  (88) 
energy

$$$$
88:0
     RDKit          3D

 41 42  0  0  0  0  0  0  0  0999 V2000
   57.7320   32.3320   41.8190 C   0  0  0  0  0  0  0  0  0  0  0  0
   58.2520   32.0680   43.2380 C   0  0  0  0  0  0  0  0  0  0  0  0
   58.1060   33.3140   44.1200 C   0  0  0  0  0  0  0  0  0  0  0  0
   57.5520   30.8730   43.8570 C   0  0  0  0  0  0  0  0  0  0  0  0
   56.1850   30.6590   43.6180 C   0  0  0  0  0  0  0  0  0  0  0  0
   55.5260   29.5760   44.2030 C   0  0  0  0  0  0  0  0  0  0  0  0
   56.2160   28.7020   45.0460 C   0  0  0  0  0  0  0  0  0  0  0  0
   55.5270   27.6380   45.6190 O   0  0  0  0  0  0  0  0  0  0  0  0
   57.5850   28.9040   45.3050 C   0  0  0  0  0  0  0  0  0  0  0  0
   58.4840   27.8620   46.4210 S   0  0  0  0  0  0  0  0  0  0  0  0
   59.2410   26.8350   45.6250 O   0  0  0  0  0  0  0  0  0  0  0  0
   57.5290   27.1310   47.3220 O   0  0  0  0  0  0  0  0  0  0  0  0
   59.6050   28.7810   47.4040 N   0  0  0  0  0  0  0  0  0  0  0  0
   60.6240   29.4340   46.5560 C   0  0  0  0  0  0  0  0  0  0  0  0
   61.2770   30.6190   47.2800 C   0  0  0  0  0  0  0  0  0  0  0  0
   60.2900   31.6680   47.6370 N   0  0  0  0  0  0  0  0  0  0  0  0
   60.3120   32.7760   46.6680 C   0  0  0  0  0  0  0  0  0  0  0  0
   58.9090   31.1560   47.8000 C   0  0  0  0  0  0  0  0  0  0  0  0
   58.9000   29.7090   48.3180 C   0  0  0  0  0  0  0  0  0  0  0  0
   58.2450   29.9780   44.6920 C   0  0  0  0  0  0  0  0  0  0  0  0
   56.7524   32.8293   41.8741 H   0  0  0  0  0  0  0  0  0  0  0  0
   58.4420   32.9788   41.2827 H   0  0  0  0  0  0  0  0  0  0  0  0
   57.6288   31.3771   41.2827 H   0  0  0  0  0  0  0  0  0  0  0  0
   59.3242   31.8324   43.1683 H   0  0  0  0  0  0  0  0  0  0  0  0
   58.1405   33.0195   45.1793 H   0  0  0  0  0  0  0  0  0  0  0  0
   58.9284   34.0127   43.9067 H   0  0  0  0  0  0  0  0  0  0  0  0
   57.1443   33.8036   43.9067 H   0  0  0  0  0  0  0  0  0  0  0  0
   55.6297   31.3490   42.9657 H   0  0  0  0  0  0  0  0  0  0  0  0
   54.4579   29.4103   43.9989 H   0  0  0  0  0  0  0  0  0  0  0  0
   61.4010   28.6988   46.2994 H   0  0  0  0  0  0  0  0  0  0  0  0
   60.1299   29.8115   45.6486 H   0  0  0  0  0  0  0  0  0  0  0  0
   61.7540   30.2527   48.2010 H   0  0  0  0  0  0  0  0  0  0  0  0
   62.0155   31.0667   46.5987 H   0  0  0  0  0  0  0  0  0  0  0  0
   60.3310   33.7345   47.2074 H   0  0  0  0  0  0  0  0  0  0  0  0
   61.2087   32.6929   46.0363 H   0  0  0  0  0  0  0  0  0  0  0  0
   59.4127   32.7285   46.0363 H   0  0  0  0  0  0  0  0  0  0  0  0
   58.3735   31.7954   48.5173 H   0  0  0  0  0  0  0  0  0  0  0  0
   58.4174   31.1725   46.8161 H   0  0  0  0  0  0  0  0  0  0  0  0
   59.3943   29.6817   49.3003 H   0  0  0  0  0  0  0  0  0  0  0  0
   57.8518   29.3824   48.3868 H   0  0  0  0  0  0  0  0  0  0  0  0
   59.3213   30.1231   44.8666 H   0  0  0  0  0  0  0  0  0  0  0  0
  1  2  1  0
  2  3  1  0
  2  4  1  0
  4  5  2  0
  5  6  1  0
  6  7  2  0
  7  8  1  0
  7  9  1  0
  9 10  1  0
 10 11  2  0
 10 12  2  0
 10 13  1  0
 13 14  1  0
 14 15  1  0
 15 16  1  0
 16 17  1  0
 16 18  1  0
 18 19  1  0
  9 20  2  0
 20  4  1  0
 19 13  1  0
  1 21  1  0
  1 22  1  0
  1 23  1  0
  2 24  1  0
  3 25  1  0
  3 26  1  0
  3 27  1  0
  5 28  1  0
  6 29  1  0
 14 30  1  0
 14 31  1  0
 15 32  1  0
 15 33  1  0
 17 34  1  0
 17 35  1  0
 17 36  1  0
 18 37  1  0
 18 38  1  0
 19 39  1  0
 19 40  1  0
 20 41  1  0
M  CHG  1   8  -1
M  END
>  <UniqueID>  (89) 
80

>  <SMILES>  (89) 
CC(C)c1ccc([O-])c(S(=O)(=O)N2CCN(C)CC2)c1

>  <Energy>  (89) 
46.22742488865023

>  <Genealogy>  (89) 
CC(C)c1ccc([O-])c(S(=O)(=O)N2CCN(C)CC2)c1 (protonated)
CC(C)c1ccc([O-])c(S(=O)(=O)N2CCN(C)CC2)c1 (3D coordinates assigned)
CC(C)c1ccc([O-])c(S(=O)(=O)N2CCN(C)CC2)c1 (nonaromatic ring conformer: 46.22742488865023 kcal/mol)

>  <smiles>  (89) 
CC(C)c1ccc(O)c(S(=O)(=O)N2CCN(C)CC2)c1

>  <score_type>  (89) 
oracle

>  <origin>  (89) 
adg

>  <m_score__min__energy>  (89) 
-10.99

>  <m_primary>  (89) 
energy

$$$$
89:0
     RDKit          3D

 45 47  0  0  0  0  0  0  0  0999 V2000
   58.1710   26.9380   43.3420 C   0  0  0  0  0  0  0  0  0  0  0  0
   57.5350   25.5700   43.1290 C   0  0  0  0  0  0  0  0  0  0  0  0
   57.7870   24.7160   44.2450 O   0  0  0  0  0  0  0  0  0  0  0  0
   57.3370   23.3930   44.3900 C   0  0  0  0  0  0  0  0  0  0  0  0
   57.0270   22.5790   43.2800 C   0  0  0  0  0  0  0  0  0  0  0  0
   56.6400   21.2500   43.4630 C   0  0  0  0  0  0  0  0  0  0  0  0
   56.5630   20.7140   44.7480 C   0  0  0  0  0  0  0  0  0  0  0  0
   56.8510   21.5110   45.8560 C   0  0  0  0  0  0  0  0  0  0  0  0
   57.2030   22.8570   45.6900 C   0  0  0  0  0  0  0  0  0  0  0  0
   57.4680   23.6450   46.8630 N   0  0  0  0  0  0  0  0  0  0  0  0
   56.7710   24.6550   47.3030 C   0  0  0  0  0  0  0  0  0  0  0  0
   56.8850   26.0350   46.7720 C   0  0  0  0  0  0  0  0  0  0  0  0
   55.8690   26.5480   45.9590 C   0  0  0  0  0  0  0  0  0  0  0  0
   54.7650   25.7680   45.6310 O   0  0  0  0  0  0  0  0  0  0  0  0
   55.9460   27.8240   45.5000 N   0  0  0  0  0  0  0  0  0  0  0  0
   57.0010   28.6230   45.8090 C   0  0  0  0  0  0  0  0  0  0  0  0
   57.0280   29.8050   45.3680 O   0  0  0  0  0  0  0  0  0  0  0  0
   58.0290   28.1440   46.5780 N   0  0  0  0  0  0  0  0  0  0  0  0
   59.1430   28.9980   46.9040 C   0  0  0  0  0  0  0  0  0  0  0  0
   60.0960   29.3190   45.9250 C   0  0  0  0  0  0  0  0  0  0  0  0
   61.1720   30.1550   46.2370 C   0  0  0  0  0  0  0  0  0  0  0  0
   61.3160   30.6690   47.5350 C   0  0  0  0  0  0  0  0  0  0  0  0
   62.4480   31.5980   47.8580 C   0  0  0  0  0  0  0  0  0  0  0  0
   60.3540   30.3620   48.5090 C   0  0  0  0  0  0  0  0  0  0  0  0
   59.2770   29.5270   48.1970 C   0  0  0  0  0  0  0  0  0  0  0  0
   57.9960   26.8550   47.0420 C   0  0  0  0  0  0  0  0  0  0  0  0
   58.9650   26.3960   47.7090 O   0  0  0  0  0  0  0  0  0  0  0  0
   58.2629   27.1357   44.4202 H   0  0  0  0  0  0  0  0  0  0  0  0
   59.1691   26.9543   42.8798 H   0  0  0  0  0  0  0  0  0  0  0  0
   57.5402   27.7116   42.8798 H   0  0  0  0  0  0  0  0  0  0  0  0
   56.4487   25.6922   43.0061 H   0  0  0  0  0  0  0  0  0  0  0  0
   57.9725   25.1134   42.2289 H   0  0  0  0  0  0  0  0  0  0  0  0
   57.0907   22.9943   42.2634 H   0  0  0  0  0  0  0  0  0  0  0  0
   56.3954   20.6246   42.5918 H   0  0  0  0  0  0  0  0  0  0  0  0
   56.2749   19.6617   44.8881 H   0  0  0  0  0  0  0  0  0  0  0  0
   56.8014   21.0799   46.8668 H   0  0  0  0  0  0  0  0  0  0  0  0
   56.0548   24.4725   48.1177 H   0  0  0  0  0  0  0  0  0  0  0  0
   55.1720   28.1970   44.9040 H   0  0  0  0  0  0  0  0  0  0  0  0
   59.9958   28.9112   44.9083 H   0  0  0  0  0  0  0  0  0  0  0  0
   61.9091   30.4111   45.4617 H   0  0  0  0  0  0  0  0  0  0  0  0
   62.5521   31.6834   48.9497 H   0  0  0  0  0  0  0  0  0  0  0  0
   63.3809   31.2017   47.4306 H   0  0  0  0  0  0  0  0  0  0  0  0
   62.2414   32.5903   47.4306 H   0  0  0  0  0  0  0  0  0  0  0  0
   60.4475   30.7800   49.5222 H   0  0  0  0  0  0  0  0  0  0  0  0
   58.5314   29.2836   48.9683 H   0  0  0  0  0  0  0  0  0  0  0  0
  1  2  1  0
  2  3  1  0
  3  4  1  0
  4  5  2  0
  5  6  1  0
  6  7  2  0
  7  8  1  0
  8  9  2  0
  9 10  1  0
 10 11  2  3
 11 12  1  0
 12 13  2  0
 13 14  1  0
 13 15  1  0
 15 16  1  0
 16 17  2  0
 16 18  1  0
 18 19  1  0
 19 20  2  0
 20 21  1  0
 21 22  2  0
 22 23  1  0
 22 24  1  0
 24 25  2  0
 18 26  1  0
 26 27  2  0
  9  4  1  0
 26 12  1  0
 25 19  1  0
  1 28  1  0
  1 29  1  0
  1 30  1  0
  2 31  1  0
  2 32  1  0
  5 33  1  0
  6 34  1  0
  7 35  1  0
  8 36  1  0
 11 37  1  0
 15 38  1  0
 20 39  1  0
 21 40  1  0
 23 41  1  0
 23 42  1  0
 23 43  1  0
 24 44  1  0
 25 45  1  0
M  CHG  1  14  -1
M  END
>  <UniqueID>  (90) 
81

>  <SMILES>  (90) 
CCOc1ccccc1N=Cc1c([O-])[nH]c(=O)n(-c2ccc(C)cc2)c1=O

>  <Energy>  (90) 
68.42535011207455

>  <Genealogy>  (90) 
CCOc1ccccc1N=Cc1c([O-])[nH]c(=O)n(-c2ccc(C)cc2)c1=O (protonated)
CCOc1ccccc1N=Cc1c([O-])[nH]c(=O)n(-c2ccc(C)cc2)c1=O (3D coordinates assigned)
CCOc1ccccc1N=Cc1c([O-])[nH]c(=O)n(-c2ccc(C)cc2)c1=O (optimized conformer: 68.42535011207455 kcal/mol)

>  <smiles>  (90) 
CCOc1ccccc1N=Cc1c(O)[nH]c(=O)n(-c2ccc(C)cc2)c1=O

>  <score_type>  (90) 
oracle

>  <origin>  (90) 
adg

>  <m_score__min__energy>  (90) 
-9.5199999999999996

>  <m_primary>  (90) 
energy

$$$$
90:0
     RDKit          3D

 52 56  0  0  1  0  0  0  0  0999 V2000
   57.0510   25.2940   44.6300 C   0  0  0  0  0  0  0  0  0  0  0  0
   58.1070   26.0610   44.1790 C   0  0  0  0  0  0  0  0  0  0  0  0
   58.5160   27.1210   44.9660 C   0  0  0  0  0  0  0  0  0  0  0  0
   57.9170   27.4330   46.1590 C   0  0  0  0  0  0  0  0  0  0  0  0
   58.3980   28.5730   46.9340 C   0  0  0  0  0  0  0  0  0  0  0  0
   58.8950   28.3210   48.1820 N   0  0  0  0  0  0  0  0  0  0  0  0
   59.3570   29.2720   48.9570 N   0  0  0  0  0  0  0  0  0  0  0  0
   59.3580   30.5500   48.5430 C   0  0  0  0  0  0  0  0  0  0  0  0
   59.8180   31.4350   49.3210 N   0  0  0  0  0  0  0  0  0  0  0  0
   59.1520   32.1570   50.3490 C   0  0  0  0  0  0  0  0  0  0  0  0
   58.2350   31.2840   51.1650 C   0  0  0  0  0  0  0  0  0  0  0  0
   57.1060   31.6960   51.8620 C   0  0  0  0  0  0  0  0  0  0  0  0
   56.5740   30.5600   52.4670 C   0  0  0  0  0  0  0  0  0  0  0  0
   57.3840   29.5220   52.1190 C   0  0  0  0  0  0  0  0  0  0  0  0
   58.3230   29.9910   51.3720 O   0  0  0  0  0  0  0  0  0  0  0  0
   58.8600   30.8500   47.2770 C   0  0  0  0  0  0  0  0  0  0  0  0
   58.8910   32.2600   46.8950 C   0  0  0  0  0  0  0  0  0  0  0  0
   60.1210   32.8450   46.7650 C   0  0  0  0  0  0  0  0  0  0  0  0
   60.3250   34.1620   46.4110 C   0  0  0  0  0  0  0  0  0  0  0  0
   59.1670   34.9090   46.1810 C   0  0  0  0  0  0  0  0  0  0  0  0
   57.9370   34.3270   46.3110 C   0  0  0  0  0  0  0  0  0  0  0  0
   57.7470   33.0020   46.6680 C   0  0  0  0  0  0  0  0  0  0  0  0
   58.3700   29.8640   46.4490 C   0  0  0  0  0  0  0  0  0  0  0  0
   57.8450   30.1730   45.1370 C   0  0  0  0  0  0  0  0  0  0  0  0
   58.4550   30.9270   44.1870 C   0  0  0  0  0  0  0  0  0  0  0  0
   57.9140   31.1950   42.9560 C   0  0  0  0  0  0  0  0  0  0  0  0
   56.6750   30.6830   42.6250 C   0  0  0  0  0  0  0  0  0  0  0  0
   56.0310   29.9110   43.5720 C   0  0  0  0  0  0  0  0  0  0  0  0
   56.5870   29.6490   44.8080 C   0  0  0  0  0  0  0  0  0  0  0  0
   56.8650   26.6360   46.5650 C   0  0  0  0  0  0  0  0  0  0  0  0
   56.4050   25.5590   45.8270 C   0  0  0  0  0  0  0  0  0  0  0  0
   56.7114   24.4447   44.0190 H   0  0  0  0  0  0  0  0  0  0  0  0
   58.6061   25.8358   43.2250 H   0  0  0  0  0  0  0  0  0  0  0  0
   59.3572   27.7401   44.6207 H   0  0  0  0  0  0  0  0  0  0  0  0
   59.7300   29.0560   49.9060 H   0  0  0  0  0  0  0  0  0  0  0  0
   59.9070   32.5972   51.0170 H   0  0  0  0  0  0  0  0  0  0  0  0
   58.5364   32.9318   49.8687 H   0  0  0  0  0  0  0  0  0  0  0  0
   56.7095   32.7202   51.9239 H   0  0  0  0  0  0  0  0  0  0  0  0
   55.6764   30.5108   53.1010 H   0  0  0  0  0  0  0  0  0  0  0  0
   57.2590   28.4718   52.4214 H   0  0  0  0  0  0  0  0  0  0  0  0
   61.0075   32.2223   46.9559 H   0  0  0  0  0  0  0  0  0  0  0  0
   61.3316   34.5952   46.3161 H   0  0  0  0  0  0  0  0  0  0  0  0
   59.2453   35.9682   45.8946 H   0  0  0  0  0  0  0  0  0  0  0  0
   57.0476   34.9459   46.1214 H   0  0  0  0  0  0  0  0  0  0  0  0
   56.7423   32.5649   46.7654 H   0  0  0  0  0  0  0  0  0  0  0  0
   59.4440   31.3488   44.4191 H   0  0  0  0  0  0  0  0  0  0  0  0
   58.4652   31.8159   42.2344 H   0  0  0  0  0  0  0  0  0  0  0  0
   56.2183   30.8824   41.6444 H   0  0  0  0  0  0  0  0  0  0  0  0
   55.0426   29.4912   43.3335 H   0  0  0  0  0  0  0  0  0  0  0  0
   56.0427   29.0287   45.5352 H   0  0  0  0  0  0  0  0  0  0  0  0
   56.3694   26.8677   47.5193 H   0  0  0  0  0  0  0  0  0  0  0  0
   55.5642   24.9411   46.1752 H   0  0  0  0  0  0  0  0  0  0  0  0
  1  2  2  0
  2  3  1  0
  3  4  2  0
  4  5  1  0
  5  6  2  0
  6  7  1  0
  7  8  1  0
  8  9  2  0
  9 10  1  0
 10 11  1  0
 11 12  2  0
 12 13  1  0
 13 14  2  0
 14 15  1  0
  8 16  1  0
 16 17  1  0
 17 18  2  0
 18 19  1  0
 19 20  2  0
 20 21  1  0
 21 22  2  0
 16 23  2  0
 23 24  1  0
 24 25  2  0
 25 26  1  0
 26 27  2  0
 27 28  1  0
 28 29  2  0
  4 30  1  0
 30 31  2  0
 31  1  1  0
 23  5  1  0
 29 24  1  0
 15 11  1  0
 22 17  1  0
  1 32  1  0
  2 33  1  0
  3 34  1  0
  7 35  1  0
 10 36  1  0
 10 37  1  0
 12 38  1  0
 13 39  1  0
 14 40  1  0
 18 41  1  0
 19 42  1  0
 20 43  1  0
 21 44  1  0
 22 45  1  0
 25 46  1  0
 26 47  1  0
 27 48  1  0
 28 49  1  0
 29 50  1  0
 30 51  1  0
 31 52  1  0
M  END
>  <smiles>  (91) 
c1ccc(-c2n[nH]c(=NCc3ccco3)c(-c3ccccc3)c2-c2ccccc2)cc1

>  <score_type>  (91) 
oracle

>  <origin>  (91) 
adg

>  <m_score__min__energy>  (91) 
-8.8800000000000008

>  <m_primary>  (91) 
energy

$$$$
