0:0
     RDKit          3D

 53 56  0  0  0  0  0  0  0  0999 V2000
   59.5420   28.9090   46.4430 O   0  0  0  0  0  0  0  0  0  0  0  0
   58.8300   29.7160   47.0990 C   0  0  0  0  0  0  0  0  0  0  0  0
   59.0830   29.9000   48.5620 C   0  0  0  0  0  0  0  0  0  0  0  0
   59.5540   31.3100   48.8330 C   0  0  0  0  0  0  0  0  0  0  0  0
   60.7280   31.7480   48.1950 C   0  0  0  0  0  0  0  0  0  0  0  0
   61.2480   33.0180   48.4450 C   0  0  0  0  0  0  0  0  0  0  0  0
   60.6090   33.8680   49.3440 C   0  0  0  0  0  0  0  0  0  0  0  0
   59.4480   33.4520   49.9970 C   0  0  0  0  0  0  0  0  0  0  0  0
   58.9040   32.1750   49.7580 C   0  0  0  0  0  0  0  0  0  0  0  0
   57.6240   31.7920   50.4750 C   0  0  0  0  0  0  0  0  0  0  0  0
   57.9010   31.0390   51.7630 C   0  0  0  0  0  0  0  0  0  0  0  0
   59.1850   30.5020   51.9820 C   0  0  0  0  0  0  0  0  0  0  0  0
   59.4700   29.7880   53.1470 C   0  0  0  0  0  0  0  0  0  0  0  0
   58.4780   29.5920   54.1060 C   0  0  0  0  0  0  0  0  0  0  0  0
   57.1930   30.0900   53.8940 C   0  0  0  0  0  0  0  0  0  0  0  0
   56.8830   30.7920   52.7140 C   0  0  0  0  0  0  0  0  0  0  0  0
   55.5600   31.3140   52.5020 N   0  0  0  0  0  0  0  0  0  0  0  0
   54.3960   30.5530   52.1610 C   0  0  0  0  0  0  0  0  0  0  0  0
   54.5020   29.4140   51.6300 O   0  0  0  0  0  0  0  0  0  0  0  0
   53.0420   31.1150   52.4430 C   0  0  0  0  0  0  0  0  0  0  0  0
   52.2470   31.1860   51.1770 C   0  0  0  0  0  0  0  0  0  0  0  0
   52.2560   30.0240   49.9580 S   0  0  0  0  0  0  0  0  0  0  0  0
   51.0840   30.8330   49.0660 C   0  0  0  0  0  0  0  0  0  0  0  0
   50.6350   30.4350   47.9610 O   0  0  0  0  0  0  0  0  0  0  0  0
   50.6610   31.9650   49.6670 N   0  0  0  0  0  0  0  0  0  0  0  0
   51.3050   32.1580   50.8470 C   0  0  0  0  0  0  0  0  0  0  0  0
   51.0310   33.2520   51.6560 O   0  0  0  0  0  0  0  0  0  0  0  0
   57.7900   30.4640   46.4560 N   0  0  0  0  0  0  0  0  0  0  0  0
   57.9100   31.7980   45.9420 C   0  0  0  0  0  0  0  0  0  0  0  0
   57.7860   32.9280   46.7730 C   0  0  0  0  0  0  0  0  0  0  0  0
   57.9350   34.2120   46.2400 C   0  0  0  0  0  0  0  0  0  0  0  0
   58.2220   34.3790   44.8830 C   0  0  0  0  0  0  0  0  0  0  0  0
   58.3700   33.2610   44.0570 C   0  0  0  0  0  0  0  0  0  0  0  0
   58.2220   31.9760   44.5870 C   0  0  0  0  0  0  0  0  0  0  0  0
   58.1527   29.7136   49.1186 H   0  0  0  0  0  0  0  0  0  0  0  0
   59.8602   29.1919   48.8854 H   0  0  0  0  0  0  0  0  0  0  0  0
   61.2434   31.0801   47.4891 H   0  0  0  0  0  0  0  0  0  0  0  0
   62.1632   33.3482   47.9318 H   0  0  0  0  0  0  0  0  0  0  0  0
   61.0202   34.8693   49.5398 H   0  0  0  0  0  0  0  0  0  0  0  0
   58.9516   34.1297   50.7071 H   0  0  0  0  0  0  0  0  0  0  0  0
   57.0615   32.7071   50.7119 H   0  0  0  0  0  0  0  0  0  0  0  0
   57.0458   31.1320   49.8116 H   0  0  0  0  0  0  0  0  0  0  0  0
   59.9714   30.6470   51.2267 H   0  0  0  0  0  0  0  0  0  0  0  0
   60.4786   29.3796   53.3083 H   0  0  0  0  0  0  0  0  0  0  0  0
   58.7090   29.0438   55.0313 H   0  0  0  0  0  0  0  0  0  0  0  0
   56.4148   29.9329   54.6554 H   0  0  0  0  0  0  0  0  0  0  0  0
   52.5216   30.4683   53.1648 H   0  0  0  0  0  0  0  0  0  0  0  0
   53.1494   32.1269   52.8608 H   0  0  0  0  0  0  0  0  0  0  0  0
   57.5714   32.8002   47.8443 H   0  0  0  0  0  0  0  0  0  0  0  0
   57.8260   35.0924   46.8904 H   0  0  0  0  0  0  0  0  0  0  0  0
   58.3315   35.3904   44.4645 H   0  0  0  0  0  0  0  0  0  0  0  0
   58.6029   33.3924   42.9900 H   0  0  0  0  0  0  0  0  0  0  0  0
   58.3512   31.0985   43.9364 H   0  0  0  0  0  0  0  0  0  0  0  0
  1  2  2  0
  2  3  1  0
  3  4  1  0
  4  5  2  0
  5  6  1  0
  6  7  2  0
  7  8  1  0
  8  9  2  0
  9 10  1  0
 10 11  1  0
 11 12  2  0
 12 13  1  0
 13 14  2  0
 14 15  1  0
 15 16  2  0
 16 17  1  0
 17 18  1  0
 18 19  2  0
 18 20  1  0
 20 21  1  0
 21 22  1  0
 22 23  1  0
 23 24  2  0
 23 25  1  0
 25 26  1  0
 26 27  1  0
  2 28  1  0
 28 29  1  0
 29 30  2  0
 30 31  1  0
 31 32  2  0
 32 33  1  0
 33 34  2  0
  9  4  1  0
 16 11  1  0
 26 21  2  0
 34 29  1  0
  3 35  1  0
  3 36  1  0
  5 37  1  0
  6 38  1  0
  7 39  1  0
  8 40  1  0
 10 41  1  0
 10 42  1  0
 12 43  1  0
 13 44  1  0
 14 45  1  0
 15 46  1  0
 20 47  1  0
 20 48  1  0
 30 49  1  0
 31 50  1  0
 32 51  1  0
 33 52  1  0
 34 53  1  0
M  CHG  4  17  -1  25  -1  27  -1  28  -1
M  END
>  <UniqueID>  (1) 
1

>  <SMILES>  (1) 
O=C(Cc1ccccc1Cc1ccccc1[N-]C(=O)Cc1sc(=O)[n-]c1[O-])[N-]c1ccccc1

>  <Energy>  (1) 
91.74834879659774

>  <Genealogy>  (1) 
O=C(Cc1ccccc1Cc1ccccc1[N-]C(=O)Cc1sc(=O)[n-]c1[O-])[N-]c1ccccc1 (protonated)
O=C(Cc1ccccc1Cc1ccccc1[N-]C(=O)Cc1sc(=O)[n-]c1[O-])[N-]c1ccccc1 (3D coordinates assigned)
O=C(Cc1ccccc1Cc1ccccc1[N-]C(=O)Cc1sc(=O)[n-]c1[O-])[N-]c1ccccc1 (optimized conformer: 91.74834879659774 kcal/mol)

>  <smiles>  (1) 
O=C(Cc1ccccc1Cc1ccccc1NC(=O)Cc1sc(=O)[nH]c1O)Nc1ccccc1

>  <score_type>  (1) 
oracle

>  <origin>  (1) 
adg

>  <m_score__min__energy>  (1) 
-18.629999999999999

>  <m_primary>  (1) 
energy

$$$$
1:0
     RDKit          3D

 40 43  0  0  0  0  0  0  0  0999 V2000
   56.4878   21.3747   43.5760 H   0  0  0  0  0  0  0  0  0  0  0  0
   56.3000   22.3410   44.0670 C   0  0  0  0  0  0  0  0  0  0  0  0
   57.0810   23.4530   43.7420 C   0  0  0  0  0  0  0  0  0  0  0  0
   57.8892   23.3589   43.0018 H   0  0  0  0  0  0  0  0  0  0  0  0
   56.8370   24.6850   44.3560 C   0  0  0  0  0  0  0  0  0  0  0  0
   57.4643   25.5542   44.1093 H   0  0  0  0  0  0  0  0  0  0  0  0
   55.7900   24.8170   45.2900 C   0  0  0  0  0  0  0  0  0  0  0  0
   55.5240   26.0560   45.9700 N   0  0  0  0  0  0  0  0  0  0  0  0
   56.2700   27.1220   45.9680 C   0  0  0  0  0  0  0  0  0  0  0  0
   55.8690   28.2160   45.2510 N   0  0  0  0  0  0  0  0  0  0  0  0
   56.6290   29.3470   45.1950 C   0  0  0  0  0  0  0  0  0  0  0  0
   56.2380   30.3430   44.5340 O   0  0  0  0  0  0  0  0  0  0  0  0
   57.8350   29.3540   45.8910 C   0  0  0  0  0  0  0  0  0  0  0  0
   58.8410   30.2960   46.0380 C   0  0  0  0  0  0  0  0  0  0  0  0
   58.9400   31.6440   45.3870 C   0  0  0  0  0  0  0  0  0  0  0  0
   59.6061   31.5771   44.5142 H   0  0  0  0  0  0  0  0  0  0  0  0
   57.9356   31.9631   45.0718 H   0  0  0  0  0  0  0  0  0  0  0  0
   59.4920   32.6540   46.3560 C   0  0  0  0  0  0  0  0  0  0  0  0
   58.6700   33.6820   46.8470 C   0  0  0  0  0  0  0  0  0  0  0  0
   57.6262   33.7570   46.5080 H   0  0  0  0  0  0  0  0  0  0  0  0
   59.1720   34.6110   47.7650 C   0  0  0  0  0  0  0  0  0  0  0  0
   58.5234   35.4137   48.1457 H   0  0  0  0  0  0  0  0  0  0  0  0
   60.4970   34.5190   48.1980 C   0  0  0  0  0  0  0  0  0  0  0  0
   60.8914   35.2501   48.9191 H   0  0  0  0  0  0  0  0  0  0  0  0
   61.3220   33.4990   47.7160 C   0  0  0  0  0  0  0  0  0  0  0  0
   62.3646   33.4276   48.0593 H   0  0  0  0  0  0  0  0  0  0  0  0
   60.8240   32.5690   46.7980 C   0  0  0  0  0  0  0  0  0  0  0  0
   61.4767   31.7681   46.4204 H   0  0  0  0  0  0  0  0  0  0  0  0
   59.8300   29.7670   46.8060 N   0  0  0  0  0  0  0  0  0  0  0  0
   59.3870   28.5270   47.1310 C   0  0  0  0  0  0  0  0  0  0  0  0
   60.1790   27.5450   47.9300 C   0  0  0  0  0  0  0  0  0  0  0  0
   60.0251   27.7358   49.0023 H   0  0  0  0  0  0  0  0  0  0  0  0
   59.8485   26.5241   47.6881 H   0  0  0  0  0  0  0  0  0  0  0  0
   61.2468   27.6518   47.6881 H   0  0  0  0  0  0  0  0  0  0  0  0
   58.1940   28.2670   46.5760 N   0  0  0  0  0  0  0  0  0  0  0  0
   57.4640   27.1570   46.6300 N   0  0  0  0  0  0  0  0  0  0  0  0
   55.0340   23.6870   45.6320 C   0  0  0  0  0  0  0  0  0  0  0  0
   54.2415   23.7693   46.3904 H   0  0  0  0  0  0  0  0  0  0  0  0
   55.2800   22.4560   45.0160 C   0  0  0  0  0  0  0  0  0  0  0  0
   54.6710   21.5783   45.2781 H   0  0  0  0  0  0  0  0  0  0  0  0
  1  2  1  0
  2  3  2  0
  3  4  1  0
  3  5  1  0
  5  6  1  0
  5  7  2  0
  7  8  1  0
  8  9  2  0
  9 10  1  0
 10 11  1  0
 11 12  2  0
 11 13  1  0
 13 14  2  0
 14 15  1  0
 15 16  1  0
 15 17  1  0
 15 18  1  0
 18 19  2  0
 19 20  1  0
 19 21  1  0
 21 22  1  0
 21 23  2  0
 23 24  1  0
 23 25  1  0
 25 26  1  0
 25 27  2  0
 27 28  1  0
 14 29  1  0
 29 30  2  0
 30 31  1  0
 31 32  1  0
 31 33  1  0
 31 34  1  0
 30 35  1  0
 35 36  1  0
  7 37  1  0
 37 38  1  0
 37 39  2  0
 39 40  1  0
 39  2  1  0
 36  9  1  0
 35 13  1  0
 27 18  1  0
M  CHG  2  10  -1  36  -1
M  END
>  <UniqueID>  (2) 
2

>  <SMILES>  (2) 
Cc1nc(Cc2ccccc2)c2c(=O)[n-]/c(=N/c3ccccc3)[n-]n12

>  <Energy>  (2) 
88.1525521468073

>  <Genealogy>  (2) 
Cc1nc(Cc2ccccc2)c2c(=O)[n-]c(=Nc3ccccc3)[n-]n12 (protonated)
Cc1nc(Cc2ccccc2)c2c(=O)[n-]/c(=N/c3ccccc3)[n-]n12 (cis-trans isomerization)
Cc1nc(Cc2ccccc2)c2c(=O)[n-]/c(=N/c3ccccc3)[n-]n12 (3D coordinates assigned)
Cc1nc(Cc2ccccc2)c2c(=O)[n-]/c(=N/c3ccccc3)[n-]n12 (optimized conformer: 88.1525521468073 kcal/mol)

>  <smiles>  (2) 
Cc1nc(Cc2ccccc2)c2c(=O)[nH]c(=Nc3ccccc3)[nH]n12

>  <score_type>  (2) 
oracle

>  <origin>  (2) 
adg

>  <m_score__min__energy>  (2) 
-11.77

>  <m_primary>  (2) 
energy

$$$$
2:0
     RDKit          3D

 48 50  0  0  0  0  0  0  0  0999 V2000
   60.3440   30.5130   45.9830 H   0  0  0  0  0  0  0  0  0  0  0  0
   59.7020   30.4710   45.2050 O   0  0  0  0  0  0  0  0  0  0  0  0
   58.5700   29.6580   45.2230 C   0  0  0  0  0  0  0  0  0  0  0  0
   58.5680   28.3270   45.5960 C   0  0  0  0  0  0  0  0  0  0  0  0
   59.7280   27.5470   46.1320 C   0  0  0  0  0  0  0  0  0  0  0  0
   60.6505   28.1330   46.0073 H   0  0  0  0  0  0  0  0  0  0  0  0
   59.8126   26.5988   45.5809 H   0  0  0  0  0  0  0  0  0  0  0  0
   59.5180   27.2560   47.5830 C   0  0  0  0  0  0  0  0  0  0  0  0
   58.6300   26.4300   47.9280 O   0  0  0  0  0  0  0  0  0  0  0  0
   60.2950   27.9720   48.5570 N   0  0  0  0  0  0  0  0  0  0  0  0
   60.5370   29.2490   48.5920 C   0  0  0  0  0  0  0  0  0  0  0  0
   61.0450   29.9090   47.5290 N   0  0  0  0  0  0  0  0  0  0  0  0
   61.2380   31.2070   47.7570 N   0  0  0  0  0  0  0  0  0  0  0  0
   60.8920   31.5890   49.0070 C   0  0  0  0  0  0  0  0  0  0  0  0
   60.9620   33.0060   49.4820 C   0  0  0  0  0  0  0  0  0  0  0  0
   60.3426   33.1125   50.3847 H   0  0  0  0  0  0  0  0  0  0  0  0
   60.5936   33.6607   48.6784 H   0  0  0  0  0  0  0  0  0  0  0  0
   62.3980   33.4090   49.8130 C   0  0  0  0  0  0  0  0  0  0  0  0
   63.0069   32.5049   49.9608 H   0  0  0  0  0  0  0  0  0  0  0  0
   62.4048   34.0126   50.7326 H   0  0  0  0  0  0  0  0  0  0  0  0
   62.9360   34.1700   48.7480 O   0  0  0  0  0  0  0  0  0  0  0  0
   63.5290   33.3240   47.7800 C   0  0  0  0  0  0  0  0  0  0  0  0
   63.1294   32.3058   47.8969 H   0  0  0  0  0  0  0  0  0  0  0  0
   64.6189   33.3256   47.9290 H   0  0  0  0  0  0  0  0  0  0  0  0
   63.2260   33.8220   46.3710 C   0  0  0  0  0  0  0  0  0  0  0  0
   62.6550   34.7604   46.4287 H   0  0  0  0  0  0  0  0  0  0  0  0
   64.1695   33.9992   45.8339 H   0  0  0  0  0  0  0  0  0  0  0  0
   62.6349   33.0656   45.8339 H   0  0  0  0  0  0  0  0  0  0  0  0
   60.3010   30.2900   49.9050 S   0  0  0  0  0  0  0  0  0  0  0  0
   57.2580   27.8930   45.5150 C   0  0  0  0  0  0  0  0  0  0  0  0
   56.8757   26.8882   45.7480 H   0  0  0  0  0  0  0  0  0  0  0  0
   56.5290   28.9820   45.0810 C   0  0  0  0  0  0  0  0  0  0  0  0
   55.1550   28.9810   44.8800 O   0  0  0  0  0  0  0  0  0  0  0  0
   57.3220   30.0580   44.8930 N   0  0  0  0  0  0  0  0  0  0  0  0
   56.8740   31.4150   44.5670 C   0  0  0  0  0  0  0  0  0  0  0  0
   56.9504   31.5724   43.4810 H   0  0  0  0  0  0  0  0  0  0  0  0
   55.8296   31.5369   44.8900 H   0  0  0  0  0  0  0  0  0  0  0  0
   57.7320   32.4280   45.2790 C   0  0  0  0  0  0  0  0  0  0  0  0
   58.4470   33.3880   44.5440 C   0  0  0  0  0  0  0  0  0  0  0  0
   58.4115   33.3728   43.4447 H   0  0  0  0  0  0  0  0  0  0  0  0
   59.2030   34.3620   45.2010 C   0  0  0  0  0  0  0  0  0  0  0  0
   59.7633   35.1082   44.6186 H   0  0  0  0  0  0  0  0  0  0  0  0
   59.2480   34.3890   46.5980 C   0  0  0  0  0  0  0  0  0  0  0  0
   59.8391   35.1596   47.1146 H   0  0  0  0  0  0  0  0  0  0  0  0
   58.5420   33.4370   47.3380 C   0  0  0  0  0  0  0  0  0  0  0  0
   58.5809   33.4568   48.4371 H   0  0  0  0  0  0  0  0  0  0  0  0
   57.7860   32.4590   46.6840 C   0  0  0  0  0  0  0  0  0  0  0  0
   57.2317   31.7115   47.2705 H   0  0  0  0  0  0  0  0  0  0  0  0
  1  2  1  0
  2  3  1  0
  3  4  2  0
  4  5  1  0
  5  6  1  0
  5  7  1  0
  5  8  1  0
  8  9  2  0
  8 10  1  0
 10 11  2  0
 11 12  1  0
 12 13  1  0
 13 14  2  0
 14 15  1  0
 15 16  1  0
 15 17  1  0
 15 18  1  0
 18 19  1  0
 18 20  1  0
 18 21  1  0
 21 22  1  0
 22 23  1  0
 22 24  1  0
 22 25  1  0
 25 26  1  0
 25 27  1  0
 25 28  1  0
 14 29  1  0
  4 30  1  0
 30 31  1  0
 30 32  2  0
 32 33  1  0
 32 34  1  0
 34 35  1  0
 35 36  1  0
 35 37  1  0
 35 38  1  0
 38 39  2  0
 39 40  1  0
 39 41  1  0
 41 42  1  0
 41 43  2  0
 43 44  1  0
 43 45  1  0
 45 46  1  0
 45 47  2  0
 47 48  1  0
 34  3  1  0
 47 38  1  0
 29 11  1  0
M  CHG  2  12  -1  33  -1
M  END
>  <UniqueID>  (3) 
3

>  <SMILES>  (3) 
CCOCCc1n[n-]/c(=N/C(=O)Cc2cc([O-])n(Cc3ccccc3)c2O)s1

>  <Energy>  (3) 
107.46398762856931

>  <Genealogy>  (3) 
CCOCCc1n[n-]c(=NC(=O)Cc2cc([O-])n(Cc3ccccc3)c2O)s1 (protonated)
CCOCCc1n[n-]/c(=N/C(=O)Cc2cc([O-])n(Cc3ccccc3)c2O)s1 (cis-trans isomerization)
CCOCCc1n[n-]/c(=N/C(=O)Cc2cc([O-])n(Cc3ccccc3)c2O)s1 (3D coordinates assigned)
CCOCCc1n[n-]/c(=N/C(=O)Cc2cc([O-])n(Cc3ccccc3)c2O)s1 (optimized conformer: 107.46398762856931 kcal/mol)

>  <smiles>  (3) 
CCOCCc1n[nH]c(=NC(=O)Cc2cc(O)n(Cc3ccccc3)c2O)s1

>  <score_type>  (3) 
oracle

>  <origin>  (3) 
adg

>  <m_score__min__energy>  (3) 
-11.289999999999999

>  <m_primary>  (3) 
energy

$$$$
3:0
     RDKit          3D

 57 61  0  0  0  0  0  0  0  0999 V2000
   63.7920   34.0950   50.5060 N   0  0  0  0  0  0  0  0  0  0  0  0
   62.8670   33.7380   49.6730 C   0  0  0  0  0  0  0  0  0  0  0  0
   63.1450   32.8700   48.6090 C   0  0  0  0  0  0  0  0  0  0  0  0
   62.1500   32.5160   47.7520 N   0  0  0  0  0  0  0  0  0  0  0  0
   60.8820   33.0000   47.9000 C   0  0  0  0  0  0  0  0  0  0  0  0
   59.8120   32.5940   46.9590 C   0  0  0  0  0  0  0  0  0  0  0  0
   58.7570   33.4770   46.6850 C   0  0  0  0  0  0  0  0  0  0  0  0
   57.7420   33.1170   45.7970 C   0  0  0  0  0  0  0  0  0  0  0  0
   57.7270   31.8430   45.1970 C   0  0  0  0  0  0  0  0  0  0  0  0
   56.6600   31.4820   44.1710 C   0  0  0  0  0  0  0  0  0  0  0  0
   57.1950   31.0070   42.8160 C   0  0  0  0  0  0  0  0  0  0  0  0
   56.4530   29.6920   42.9720 C   0  0  0  0  0  0  0  0  0  0  0  0
   55.9740   30.1200   44.3500 C   0  0  0  0  0  0  0  0  0  0  0  0
   58.8210   30.9800   45.4260 C   0  0  0  0  0  0  0  0  0  0  0  0
   58.9120   29.7530   44.7620 O   0  0  0  0  0  0  0  0  0  0  0  0
   58.8030   28.5100   45.4030 C   0  0  0  0  0  0  0  0  0  0  0  0
   59.8420   27.9740   46.1860 C   0  0  0  0  0  0  0  0  0  0  0  0
   59.6850   26.7320   46.8030 C   0  0  0  0  0  0  0  0  0  0  0  0
   58.5000   26.0090   46.6400 C   0  0  0  0  0  0  0  0  0  0  0  0
   57.4630   26.5220   45.8450 C   0  0  0  0  0  0  0  0  0  0  0  0
   56.2010   25.7680   45.6680 C   0  0  0  0  0  0  0  0  0  0  0  0
   55.1170   26.3080   46.0230 O   0  0  0  0  0  0  0  0  0  0  0  0
   56.1800   24.4420   45.1000 N   0  0  0  0  0  0  0  0  0  0  0  0
   57.0370   24.1180   43.9440 C   0  0  0  0  0  0  0  0  0  0  0  0
   56.3170   23.1710   42.9890 C   0  0  0  0  0  0  0  0  0  0  0  0
   55.8990   21.9830   43.7140 N   0  0  0  0  0  0  0  0  0  0  0  0
   55.3580   22.1020   45.0280 C   0  0  0  0  0  0  0  0  0  0  0  0
   54.9310   21.0760   45.6210 O   0  0  0  0  0  0  0  0  0  0  0  0
   55.2630   23.4480   45.6920 C   0  0  0  0  0  0  0  0  0  0  0  0
   57.6180   27.7820   45.2420 C   0  0  0  0  0  0  0  0  0  0  0  0
   59.8390   31.3430   46.3190 C   0  0  0  0  0  0  0  0  0  0  0  0
   60.8430   30.4620   46.5680 F   0  0  0  0  0  0  0  0  0  0  0  0
   60.6070   33.8630   48.9720 C   0  0  0  0  0  0  0  0  0  0  0  0
   61.6040   34.2090   49.8280 N   0  0  0  0  0  0  0  0  0  0  0  0
   63.7670   35.0060   51.0160 H   0  0  0  0  0  0  0  0  0  0  0  0
   64.1626   32.4769   48.4675 H   0  0  0  0  0  0  0  0  0  0  0  0
   62.3780   31.8760   46.9580 H   0  0  0  0  0  0  0  0  0  0  0  0
   58.7293   34.4618   47.1743 H   0  0  0  0  0  0  0  0  0  0  0  0
   56.9441   33.8372   45.5630 H   0  0  0  0  0  0  0  0  0  0  0  0
   56.0772   32.4104   44.2622 H   0  0  0  0  0  0  0  0  0  0  0  0
   56.8560   31.6137   41.9634 H   0  0  0  0  0  0  0  0  0  0  0  0
   58.2766   31.0115   42.6160 H   0  0  0  0  0  0  0  0  0  0  0  0
   55.6436   29.5445   42.2418 H   0  0  0  0  0  0  0  0  0  0  0  0
   56.9825   28.7369   42.8403 H   0  0  0  0  0  0  0  0  0  0  0  0
   54.8798   30.1783   44.4462 H   0  0  0  0  0  0  0  0  0  0  0  0
   56.1935   29.4995   45.2314 H   0  0  0  0  0  0  0  0  0  0  0  0
   60.7798   28.5349   46.3121 H   0  0  0  0  0  0  0  0  0  0  0  0
   60.4972   26.3204   47.4201 H   0  0  0  0  0  0  0  0  0  0  0  0
   58.3796   25.0348   47.1363 H   0  0  0  0  0  0  0  0  0  0  0  0
   57.2898   25.0460   43.4103 H   0  0  0  0  0  0  0  0  0  0  0  0
   57.9513   23.6264   44.3078 H   0  0  0  0  0  0  0  0  0  0  0  0
   55.4339   23.6745   42.5687 H   0  0  0  0  0  0  0  0  0  0  0  0
   56.9965   22.8843   42.1729 H   0  0  0  0  0  0  0  0  0  0  0  0
   54.2317   23.8175   45.5922 H   0  0  0  0  0  0  0  0  0  0  0  0
   55.5490   23.3190   46.7463 H   0  0  0  0  0  0  0  0  0  0  0  0
   56.7999   28.2005   44.6374 H   0  0  0  0  0  0  0  0  0  0  0  0
   59.5905   34.2570   49.1184 H   0  0  0  0  0  0  0  0  0  0  0  0
  1  2  2  3
  2  3  1  0
  3  4  2  0
  4  5  1  0
  5  6  1  0
  6  7  2  0
  7  8  1  0
  8  9  2  0
  9 10  1  0
 10 11  1  0
 11 12  1  0
 12 13  1  0
  9 14  1  0
 14 15  1  0
 15 16  1  0
 16 17  2  0
 17 18  1  0
 18 19  2  0
 19 20  1  0
 20 21  1  0
 21 22  2  0
 21 23  1  0
 23 24  1  0
 24 25  1  0
 25 26  1  0
 26 27  1  0
 27 28  2  0
 27 29  1  0
 20 30  2  0
 14 31  2  0
 31 32  1  0
  5 33  2  0
 33 34  1  0
 34  2  1  0
 31  6  1  0
 13 10  1  0
 30 16  1  0
 29 23  1  0
  1 35  1  0
  3 36  1  0
  4 37  1  0
  7 38  1  0
  8 39  1  0
 10 40  1  0
 11 41  1  0
 11 42  1  0
 12 43  1  0
 12 44  1  0
 13 45  1  0
 13 46  1  0
 17 47  1  0
 18 48  1  0
 19 49  1  0
 24 50  1  0
 24 51  1  0
 25 52  1  0
 25 53  1  0
 29 54  1  0
 29 55  1  0
 30 56  1  0
 33 57  1  0
M  CHG  3   4   1  26  -1  34  -1
M  END
>  <UniqueID>  (4) 
4

>  <SMILES>  (4) 
N=c1c[nH+]c(-c2ccc(C3CCC3)c(Oc3cccc(C(=O)N4CC[N-]C(=O)C4)c3)c2F)c[n-]1

>  <Energy>  (4) 
145.3950117134557

>  <Genealogy>  (4) 
N=c1c[nH+]c(-c2ccc(C3CCC3)c(Oc3cccc(C(=O)N4CC[N-]C(=O)C4)c3)c2F)c[n-]1 (protonated)
N=c1c[nH+]c(-c2ccc(C3CCC3)c(Oc3cccc(C(=O)N4CC[N-]C(=O)C4)c3)c2F)c[n-]1 (3D coordinates assigned)
N=c1c[nH+]c(-c2ccc(C3CCC3)c(Oc3cccc(C(=O)N4CC[N-]C(=O)C4)c3)c2F)c[n-]1 (nonaromatic ring conformer: 145.3950117134557 kcal/mol)

>  <smiles>  (4) 
N=c1cnc(-c2ccc(C3CCC3)c(Oc3cccc(C(=O)N4CCNC(=O)C4)c3)c2F)c[nH]1

>  <score_type>  (4) 
oracle

>  <origin>  (4) 
adg

>  <m_score__min__energy>  (4) 
-10.99

>  <m_primary>  (4) 
energy

$$$$
4:0
     RDKit          3D

 66 69  0  0  0  0  0  0  0  0999 V2000
   59.1210   29.9780   44.0730 O   0  0  0  0  0  0  0  0  0  0  0  0
   58.0890   29.5040   44.6170 C   0  0  0  0  0  0  0  0  0  0  0  0
   56.8190   30.1220   44.3640 N   0  0  0  0  0  0  0  0  0  0  0  0
   56.5490   31.5470   44.5440 C   0  0  0  0  0  0  0  0  0  0  0  0
   57.7940   32.3750   44.2060 C   0  0  0  0  0  0  0  0  0  0  0  0
   58.5990   32.6730   45.4420 C   0  0  0  0  0  0  0  0  0  0  0  0
   58.5420   31.8220   46.5560 C   0  0  0  0  0  0  0  0  0  0  0  0
   59.2820   32.1170   47.7050 C   0  0  0  0  0  0  0  0  0  0  0  0
   60.0910   33.2630   47.7500 C   0  0  0  0  0  0  0  0  0  0  0  0
   60.9850   33.6620   49.2180 S   0  0  0  0  0  0  0  0  0  0  0  0
   61.6980   34.9670   49.0010 O   0  0  0  0  0  0  0  0  0  0  0  0
   60.0100   33.8570   50.3470 O   0  0  0  0  0  0  0  0  0  0  0  0
   62.1580   32.4350   49.6650 N   0  0  0  0  0  0  0  0  0  0  0  0
   63.4100   33.0210   50.2010 C   0  0  0  0  0  0  0  0  0  0  0  0
   64.5330   33.1120   49.1520 C   0  0  0  0  0  0  0  0  0  0  0  0
   63.9970   33.2110   47.8520 O   0  0  0  0  0  0  0  0  0  0  0  0
   63.3770   31.9930   47.4970 C   0  0  0  0  0  0  0  0  0  0  0  0
   62.4000   31.4660   48.5740 C   0  0  0  0  0  0  0  0  0  0  0  0
   60.1760   34.0930   46.6240 C   0  0  0  0  0  0  0  0  0  0  0  0
   59.4320   33.8020   45.4790 C   0  0  0  0  0  0  0  0  0  0  0  0
   58.2180   28.3470   45.5200 C   0  0  0  0  0  0  0  0  0  0  0  0
   59.3510   28.2060   46.3340 C   0  0  0  0  0  0  0  0  0  0  0  0
   59.4850   27.0920   47.1660 C   0  0  0  0  0  0  0  0  0  0  0  0
   58.4920   26.1100   47.1860 C   0  0  0  0  0  0  0  0  0  0  0  0
   57.3560   26.2390   46.3740 C   0  0  0  0  0  0  0  0  0  0  0  0
   56.1100   24.9930   46.3970 S   0  0  0  0  0  0  0  0  0  0  0  0
   55.9020   24.5120   47.8070 O   0  0  0  0  0  0  0  0  0  0  0  0
   54.8200   25.5870   45.9010 O   0  0  0  0  0  0  0  0  0  0  0  0
   56.5800   23.6640   45.3660 N   0  0  0  0  0  0  0  0  0  0  0  0
   55.8940   23.7770   44.0600 C   0  0  0  0  0  0  0  0  0  0  0  0
   56.5260   22.8770   42.9740 C   0  0  0  0  0  0  0  0  0  0  0  0
   57.3890   21.7750   43.5920 C   0  0  0  0  0  0  0  0  0  0  0  0
   58.4940   22.3720   44.4800 C   0  0  0  0  0  0  0  0  0  0  0  0
   58.0420   23.6590   45.1960 C   0  0  0  0  0  0  0  0  0  0  0  0
   57.2120   27.3690   45.5560 C   0  0  0  0  0  0  0  0  0  0  0  0
   55.7241   31.8460   43.8806 H   0  0  0  0  0  0  0  0  0  0  0  0
   56.2751   31.7279   45.5939 H   0  0  0  0  0  0  0  0  0  0  0  0
   58.4189   31.8112   43.4977 H   0  0  0  0  0  0  0  0  0  0  0  0
   57.4697   33.3279   43.7623 H   0  0  0  0  0  0  0  0  0  0  0  0
   57.9132   30.9200   46.5253 H   0  0  0  0  0  0  0  0  0  0  0  0
   59.2300   31.4484   48.5770 H   0  0  0  0  0  0  0  0  0  0  0  0
   61.7060   31.9020   50.4450 H   0  0  0  0  0  0  0  0  0  0  0  0
   63.1923   34.0344   50.5693 H   0  0  0  0  0  0  0  0  0  0  0  0
   63.7646   32.3577   51.0037 H   0  0  0  0  0  0  0  0  0  0  0  0
   65.1472   34.0011   49.3575 H   0  0  0  0  0  0  0  0  0  0  0  0
   65.1462   32.2007   49.2120 H   0  0  0  0  0  0  0  0  0  0  0  0
   62.8170   32.1458   46.5626 H   0  0  0  0  0  0  0  0  0  0  0  0
   64.1737   31.2428   47.3854 H   0  0  0  0  0  0  0  0  0  0  0  0
   61.4388   31.2356   48.0914 H   0  0  0  0  0  0  0  0  0  0  0  0
   62.8601   30.5743   49.0247 H   0  0  0  0  0  0  0  0  0  0  0  0
   60.8310   34.9766   46.6424 H   0  0  0  0  0  0  0  0  0  0  0  0
   59.4990   34.4612   44.6010 H   0  0  0  0  0  0  0  0  0  0  0  0
   60.1370   28.9753   46.3173 H   0  0  0  0  0  0  0  0  0  0  0  0
   60.3735   26.9880   47.8061 H   0  0  0  0  0  0  0  0  0  0  0  0
   58.6014   25.2328   47.8407 H   0  0  0  0  0  0  0  0  0  0  0  0
   54.8411   23.4859   44.1893 H   0  0  0  0  0  0  0  0  0  0  0  0
   55.9896   24.8200   43.7239 H   0  0  0  0  0  0  0  0  0  0  0  0
   55.7230   22.4129   42.3825 H   0  0  0  0  0  0  0  0  0  0  0  0
   57.1689   23.5031   42.3378 H   0  0  0  0  0  0  0  0  0  0  0  0
   56.7515   21.1193   44.2033 H   0  0  0  0  0  0  0  0  0  0  0  0
   57.8627   21.2043   42.7797 H   0  0  0  0  0  0  0  0  0  0  0  0
   58.7785   21.6275   45.2381 H   0  0  0  0  0  0  0  0  0  0  0  0
   59.3429   22.6307   43.8300 H   0  0  0  0  0  0  0  0  0  0  0  0
   58.5222   23.7119   46.1843 H   0  0  0  0  0  0  0  0  0  0  0  0
   58.3339   24.5276   44.5875 H   0  0  0  0  0  0  0  0  0  0  0  0
   56.3080   27.4892   44.9409 H   0  0  0  0  0  0  0  0  0  0  0  0
  1  2  2  0
  2  3  1  0
  3  4  1  0
  4  5  1  0
  5  6  1  0
  6  7  2  0
  7  8  1  0
  8  9  2  0
  9 10  1  0
 10 11  2  0
 10 12  2  0
 10 13  1  0
 13 14  1  0
 14 15  1  0
 15 16  1  0
 16 17  1  0
 17 18  1  0
  9 19  1  0
 19 20  2  0
  2 21  1  0
 21 22  2  0
 22 23  1  0
 23 24  2  0
 24 25  1  0
 25 26  1  0
 26 27  2  0
 26 28  2  0
 26 29  1  0
 29 30  1  0
 30 31  1  0
 31 32  1  0
 32 33  1  0
 33 34  1  0
 25 35  2  0
 20  6  1  0
 35 21  1  0
 18 13  1  0
 34 29  1  0
  4 36  1  0
  4 37  1  0
  5 38  1  0
  5 39  1  0
  7 40  1  0
  8 41  1  0
 13 42  1  0
 14 43  1  0
 14 44  1  0
 15 45  1  0
 15 46  1  0
 17 47  1  0
 17 48  1  0
 18 49  1  0
 18 50  1  0
 19 51  1  0
 20 52  1  0
 22 53  1  0
 23 54  1  0
 24 55  1  0
 30 56  1  0
 30 57  1  0
 31 58  1  0
 31 59  1  0
 32 60  1  0
 32 61  1  0
 33 62  1  0
 33 63  1  0
 34 64  1  0
 34 65  1  0
 35 66  1  0
M  CHG  2   3  -1  13   1
M  END
>  <UniqueID>  (5) 
5

>  <SMILES>  (5) 
O=C([N-]CCc1ccc(S(=O)(=O)[NH+]2CCOCC2)cc1)c1cccc(S(=O)(=O)N2CCCCC2)c1

>  <Energy>  (5) 
81.68580606938599

>  <Genealogy>  (5) 
O=C([N-]CCc1ccc(S(=O)(=O)[NH+]2CCOCC2)cc1)c1cccc(S(=O)(=O)N2CCCCC2)c1 (protonated)
O=C([N-]CCc1ccc(S(=O)(=O)[NH+]2CCOCC2)cc1)c1cccc(S(=O)(=O)N2CCCCC2)c1 (3D coordinates assigned)
O=C([N-]CCc1ccc(S(=O)(=O)[NH+]2CCOCC2)cc1)c1cccc(S(=O)(=O)N2CCCCC2)c1 (nonaromatic ring conformer: 81.68580606938599 kcal/mol)

>  <smiles>  (5) 
O=C(NCCc1ccc(S(=O)(=O)N2CCOCC2)cc1)c1cccc(S(=O)(=O)N2CCCCC2)c1

>  <score_type>  (5) 
oracle

>  <origin>  (5) 
adg

>  <m_score__min__energy>  (5) 
-11.25

>  <m_primary>  (5) 
energy

$$$$
5:0
     RDKit          3D

 38 40  0  0  0  0  0  0  0  0999 V2000
   62.2010   29.0150   50.4360 H   0  0  0  0  0  0  0  0  0  0  0  0
   61.6410   28.8190   51.2940 N   0  0  0  0  0  0  0  0  0  0  0  0
   60.3660   29.0400   51.3290 C   0  0  0  0  0  0  0  0  0  0  0  0
   59.6640   29.1430   52.4740 N   0  0  0  0  0  0  0  0  0  0  0  0
   58.4340   29.4440   52.0030 C   0  0  0  0  0  0  0  0  0  0  0  0
   57.4090   29.6050   52.7870 N   0  0  0  0  0  0  0  0  0  0  0  0
   56.0490   29.8400   52.3840 C   0  0  0  0  0  0  0  0  0  0  0  0
   55.0710   28.9050   52.7470 C   0  0  0  0  0  0  0  0  0  0  0  0
   55.3589   28.0053   53.3106 H   0  0  0  0  0  0  0  0  0  0  0  0
   53.7330   29.1060   52.3990 C   0  0  0  0  0  0  0  0  0  0  0  0
   52.9769   28.3550   52.6715 H   0  0  0  0  0  0  0  0  0  0  0  0
   53.3510   30.2610   51.7040 C   0  0  0  0  0  0  0  0  0  0  0  0
   51.6670   30.5120   51.2540 S   0  0  0  0  0  0  0  0  0  0  0  0
   51.4060   29.9130   49.9010 O   0  0  0  0  0  0  0  0  0  0  0  0
   50.7670   29.8470   52.2570 O   0  0  0  0  0  0  0  0  0  0  0  0
   51.3290   32.2050   51.2070 N   0  0  0  0  0  0  0  0  0  0  0  0
   50.3420   32.3090   50.8800 H   0  0  0  0  0  0  0  0  0  0  0  0
   54.3200   31.2120   51.3610 C   0  0  0  0  0  0  0  0  0  0  0  0
   54.0258   32.1215   50.8167 H   0  0  0  0  0  0  0  0  0  0  0  0
   55.6590   31.0110   51.7070 C   0  0  0  0  0  0  0  0  0  0  0  0
   56.4113   31.7710   51.4493 H   0  0  0  0  0  0  0  0  0  0  0  0
   58.3790   29.5140   50.6560 N   0  0  0  0  0  0  0  0  0  0  0  0
   59.6030   29.2480   50.2360 N   0  0  0  0  0  0  0  0  0  0  0  0
   59.9930   29.2730   48.8540 C   0  0  0  0  0  0  0  0  0  0  0  0
   61.0410   29.8920   48.5270 O   0  0  0  0  0  0  0  0  0  0  0  0
   59.1830   28.6180   47.8010 C   0  0  0  0  0  0  0  0  0  0  0  0
   59.3490   27.2510   47.5350 C   0  0  0  0  0  0  0  0  0  0  0  0
   60.0723   26.6636   48.1197 H   0  0  0  0  0  0  0  0  0  0  0  0
   58.6010   26.6320   46.5320 C   0  0  0  0  0  0  0  0  0  0  0  0
   58.7310   25.5575   46.3355 H   0  0  0  0  0  0  0  0  0  0  0  0
   57.6880   27.3720   45.7770 C   0  0  0  0  0  0  0  0  0  0  0  0
   57.0980   26.8760   44.9922 H   0  0  0  0  0  0  0  0  0  0  0  0
   57.5190   28.7480   46.0150 C   0  0  0  0  0  0  0  0  0  0  0  0
   56.5610   29.5400   45.2110 C   0  0  0  0  0  0  0  0  0  0  0  0
   56.8500   30.7080   44.8380 O   0  0  0  0  0  0  0  0  0  0  0  0
   55.3280   29.0060   44.8550 O   0  0  0  0  0  0  0  0  0  0  0  0
   58.2780   29.3650   47.0260 C   0  0  0  0  0  0  0  0  0  0  0  0
   58.1624   30.4429   47.2123 H   0  0  0  0  0  0  0  0  0  0  0  0
  1  2  1  0
  2  3  2  3
  3  4  1  0
  4  5  1  0
  5  6  2  0
  6  7  1  0
  7  8  2  0
  8  9  1  0
  8 10  1  0
 10 11  1  0
 10 12  2  0
 12 13  1  0
 13 14  2  0
 13 15  2  0
 13 16  1  0
 16 17  1  0
 12 18  1  0
 18 19  1  0
 18 20  2  0
 20 21  1  0
  5 22  1  0
 22 23  1  0
 23 24  1  0
 24 25  2  0
 24 26  1  0
 26 27  2  0
 27 28  1  0
 27 29  1  0
 29 30  1  0
 29 31  2  0
 31 32  1  0
 31 33  1  0
 33 34  1  0
 34 35  2  0
 34 36  1  0
 33 37  2  0
 37 38  1  0
 23  3  1  0
 37 26  1  0
 20  7  1  0
M  CHG  4   4  -1  16  -1  22  -1  36  -1
M  END
>  <UniqueID>  (6) 
6

>  <SMILES>  (6) 
N=c1[n-]/c(=N/c2ccc(S([NH-])(=O)=O)cc2)[n-]n1C(=O)c1cccc(C(=O)[O-])c1

>  <Energy>  (6) 
87.48138969781049

>  <Genealogy>  (6) 
N=c1[n-]c(=Nc2ccc(S([NH-])(=O)=O)cc2)[n-]n1C(=O)c1cccc(C(=O)[O-])c1 (protonated)
N=c1[n-]/c(=N/c2ccc(S([NH-])(=O)=O)cc2)[n-]n1C(=O)c1cccc(C(=O)[O-])c1 (cis-trans isomerization)
N=c1[n-]/c(=N/c2ccc(S([NH-])(=O)=O)cc2)[n-]n1C(=O)c1cccc(C(=O)[O-])c1 (3D coordinates assigned)
N=c1[n-]/c(=N/c2ccc(S([NH-])(=O)=O)cc2)[n-]n1C(=O)c1cccc(C(=O)[O-])c1 (optimized conformer: 87.48138969781049 kcal/mol)

>  <smiles>  (6) 
N=c1[nH]c(=Nc2ccc(S(N)(=O)=O)cc2)[nH]n1C(=O)c1cccc(C(=O)O)c1

>  <score_type>  (6) 
oracle

>  <origin>  (6) 
adg

>  <m_score__min__energy>  (6) 
-14.789999999999999

>  <m_primary>  (6) 
energy

$$$$
6:0
     RDKit          3D

 43 46  0  0  0  0  0  0  0  0999 V2000
   64.5570   33.0930   49.2590 C   0  0  0  0  0  0  0  0  0  0  0  0
   63.2590   32.2940   49.3080 C   0  0  0  0  0  0  0  0  0  0  0  0
   62.1900   32.9630   48.4860 C   0  0  0  0  0  0  0  0  0  0  0  0
   62.4240   33.2760   47.1390 C   0  0  0  0  0  0  0  0  0  0  0  0
   61.4220   33.8690   46.3660 C   0  0  0  0  0  0  0  0  0  0  0  0
   60.1630   34.1520   46.9320 C   0  0  0  0  0  0  0  0  0  0  0  0
   59.1220   34.7540   46.2040 O   0  0  0  0  0  0  0  0  0  0  0  0
   57.8000   34.2340   46.0750 C   0  0  0  0  0  0  0  0  0  0  0  0
   57.8110   32.9560   45.2870 C   0  0  0  0  0  0  0  0  0  0  0  0
   57.8420   31.7100   45.9310 C   0  0  0  0  0  0  0  0  0  0  0  0
   57.8560   30.5280   45.1700 C   0  0  0  0  0  0  0  0  0  0  0  0
   57.8990   29.1910   45.8140 C   0  0  0  0  0  0  0  0  0  0  0  0
   58.9560   28.8250   46.6900 C   0  0  0  0  0  0  0  0  0  0  0  0
   58.9500   27.5460   47.2650 C   0  0  0  0  0  0  0  0  0  0  0  0
   59.8690   27.1830   48.0450 O   0  0  0  0  0  0  0  0  0  0  0  0
   57.9300   26.7110   46.9540 N   0  0  0  0  0  0  0  0  0  0  0  0
   57.7420   25.4750   47.3820 N   0  0  0  0  0  0  0  0  0  0  0  0
   56.5980   25.0370   46.7990 C   0  0  0  0  0  0  0  0  0  0  0  0
   56.0570   26.0270   45.9810 C   0  0  0  0  0  0  0  0  0  0  0  0
   56.9470   27.0640   46.1220 C   0  0  0  0  0  0  0  0  0  0  0  0
   56.9080   28.2870   45.5410 N   0  0  0  0  0  0  0  0  0  0  0  0
   57.8050   30.6280   43.7700 C   0  0  0  0  0  0  0  0  0  0  0  0
   57.7620   31.8860   43.1660 C   0  0  0  0  0  0  0  0  0  0  0  0
   57.7670   33.0100   43.9290 N   0  0  0  0  0  0  0  0  0  0  0  0
   59.9290   33.8220   48.2720 C   0  0  0  0  0  0  0  0  0  0  0  0
   60.9300   33.2280   49.0440 C   0  0  0  0  0  0  0  0  0  0  0  0
   64.8975   33.3026   50.2838 H   0  0  0  0  0  0  0  0  0  0  0  0
   65.3257   32.5115   48.7289 H   0  0  0  0  0  0  0  0  0  0  0  0
   64.3841   34.0412   48.7289 H   0  0  0  0  0  0  0  0  0  0  0  0
   63.4413   31.2847   48.9105 H   0  0  0  0  0  0  0  0  0  0  0  0
   62.9181   32.2376   50.3523 H   0  0  0  0  0  0  0  0  0  0  0  0
   63.4023   33.0533   46.6881 H   0  0  0  0  0  0  0  0  0  0  0  0
   61.6169   34.1157   45.3119 H   0  0  0  0  0  0  0  0  0  0  0  0
   57.3890   34.0381   47.0763 H   0  0  0  0  0  0  0  0  0  0  0  0
   57.1780   34.9717   45.5468 H   0  0  0  0  0  0  0  0  0  0  0  0
   57.8553   31.6580   47.0297 H   0  0  0  0  0  0  0  0  0  0  0  0
   59.7667   29.5341   46.9138 H   0  0  0  0  0  0  0  0  0  0  0  0
   56.1589   24.0399   46.9508 H   0  0  0  0  0  0  0  0  0  0  0  0
   55.1419   25.9878   45.3719 H   0  0  0  0  0  0  0  0  0  0  0  0
   57.7990   29.7183   43.1516 H   0  0  0  0  0  0  0  0  0  0  0  0
   57.7240   31.9672   42.0697 H   0  0  0  0  0  0  0  0  0  0  0  0
   58.9473   34.0325   48.7214 H   0  0  0  0  0  0  0  0  0  0  0  0
   60.7299   32.9669   50.0936 H   0  0  0  0  0  0  0  0  0  0  0  0
  1  2  1  0
  2  3  1  0
  3  4  2  0
  4  5  1  0
  5  6  2  0
  6  7  1  0
  7  8  1  0
  8  9  1  0
  9 10  2  0
 10 11  1  0
 11 12  1  0
 12 13  2  0
 13 14  1  0
 14 15  2  0
 14 16  1  0
 16 17  1  0
 17 18  2  0
 18 19  1  0
 19 20  2  0
 20 21  1  0
 11 22  2  0
 22 23  1  0
 23 24  2  0
  6 25  1  0
 25 26  2  0
 26  3  1  0
 24  9  1  0
 21 12  1  0
 20 16  1  0
  1 27  1  0
  1 28  1  0
  1 29  1  0
  2 30  1  0
  2 31  1  0
  4 32  1  0
  5 33  1  0
  8 34  1  0
  8 35  1  0
 10 36  1  0
 13 37  1  0
 18 38  1  0
 19 39  1  0
 22 40  1  0
 23 41  1  0
 25 42  1  0
 26 43  1  0
M  CHG  1  21  -1
M  END
>  <UniqueID>  (7) 
7

>  <SMILES>  (7) 
CCc1ccc(OCc2cc(-c3cc(=O)n4nccc4[n-]3)ccn2)cc1

>  <Energy>  (7) 
85.34050828223332

>  <Genealogy>  (7) 
CCc1ccc(OCc2cc(-c3cc(=O)n4nccc4[n-]3)ccn2)cc1 (protonated)
CCc1ccc(OCc2cc(-c3cc(=O)n4nccc4[n-]3)ccn2)cc1 (3D coordinates assigned)
CCc1ccc(OCc2cc(-c3cc(=O)n4nccc4[n-]3)ccn2)cc1 (optimized conformer: 85.34050828223332 kcal/mol)

>  <smiles>  (7) 
CCc1ccc(OCc2cc(-c3cc(=O)n4nccc4[nH]3)ccn2)cc1

>  <score_type>  (7) 
oracle

>  <origin>  (7) 
adg

>  <m_score__min__energy>  (7) 
-9.3499999999999996

>  <m_primary>  (7) 
energy

$$$$
7:0
     RDKit          3D

 47 50  0  0  0  0  0  0  0  0999 V2000
   60.9308   33.6604   48.7098 H   0  0  0  0  0  0  0  0  0  0  0  0
   60.2090   32.9910   48.2190 C   0  0  0  0  0  0  0  0  0  0  0  0
   59.9290   31.7420   48.7770 C   0  0  0  0  0  0  0  0  0  0  0  0
   60.4291   31.4348   49.7073 H   0  0  0  0  0  0  0  0  0  0  0  0
   59.0170   30.8790   48.1610 C   0  0  0  0  0  0  0  0  0  0  0  0
   58.7520   29.6080   48.7660 N   0  0  0  0  0  0  0  0  0  0  0  0
   59.7040   28.6150   49.1790 C   0  0  0  0  0  0  0  0  0  0  0  0
   60.1440   28.6630   50.3570 O   0  0  0  0  0  0  0  0  0  0  0  0
   60.2970   27.6010   48.2300 C   0  0  0  0  0  0  0  0  0  0  0  0
   61.3909   27.7163   48.2262 H   0  0  0  0  0  0  0  0  0  0  0  0
   60.0019   26.5998   48.5771 H   0  0  0  0  0  0  0  0  0  0  0  0
   59.7770   27.7760   46.7990 C   0  0  0  0  0  0  0  0  0  0  0  0
   59.2711   28.7496   46.7204 H   0  0  0  0  0  0  0  0  0  0  0  0
   60.6357   27.7206   46.1137 H   0  0  0  0  0  0  0  0  0  0  0  0
   58.8100   26.6950   46.4230 C   0  0  0  0  0  0  0  0  0  0  0  0
   57.4710   26.9060   46.5350 N   0  0  0  0  0  0  0  0  0  0  0  0
   56.5740   25.9330   46.2290 C   0  0  0  0  0  0  0  0  0  0  0  0
   55.3410   26.1710   46.3480 O   0  0  0  0  0  0  0  0  0  0  0  0
   57.0290   24.6770   45.7960 C   0  0  0  0  0  0  0  0  0  0  0  0
   56.1540   23.6190   45.4900 C   0  0  0  0  0  0  0  0  0  0  0  0
   55.0665   23.7636   45.5708 H   0  0  0  0  0  0  0  0  0  0  0  0
   56.6670   22.3830   45.0830 C   0  0  0  0  0  0  0  0  0  0  0  0
   55.9814   21.5553   44.8487 H   0  0  0  0  0  0  0  0  0  0  0  0
   58.0480   22.1960   44.9730 C   0  0  0  0  0  0  0  0  0  0  0  0
   58.4455   21.2225   44.6501 H   0  0  0  0  0  0  0  0  0  0  0  0
   58.9250   23.2420   45.2720 C   0  0  0  0  0  0  0  0  0  0  0  0
   60.0109   23.0912   45.1826 H   0  0  0  0  0  0  0  0  0  0  0  0
   58.4230   24.4810   45.6850 C   0  0  0  0  0  0  0  0  0  0  0  0
   59.2740   25.4900   45.9980 N   0  0  0  0  0  0  0  0  0  0  0  0
   58.3300   31.3110   47.0180 C   0  0  0  0  0  0  0  0  0  0  0  0
   57.5446   30.6754   46.5830 H   0  0  0  0  0  0  0  0  0  0  0  0
   58.6330   32.5460   46.4220 C   0  0  0  0  0  0  0  0  0  0  0  0
   57.8170   33.0080   44.9220 S   0  0  0  0  0  0  0  0  0  0  0  0
   57.3030   34.4130   45.0540 O   0  0  0  0  0  0  0  0  0  0  0  0
   58.7720   32.9370   43.7620 O   0  0  0  0  0  0  0  0  0  0  0  0
   56.4810   31.9490   44.6050 N   0  0  0  0  0  0  0  0  0  0  0  0
   56.6230   30.6660   44.4950 C   0  0  0  0  0  0  0  0  0  0  0  0
   57.6170   30.0920   43.7950 N   0  0  0  0  0  0  0  0  0  0  0  0
   57.3140   28.7850   43.9570 C   0  0  0  0  0  0  0  0  0  0  0  0
   58.1370   27.6730   43.4020 C   0  0  0  0  0  0  0  0  0  0  0  0
   58.5692   27.0891   44.2280 H   0  0  0  0  0  0  0  0  0  0  0  0
   57.5027   27.0203   42.7842 H   0  0  0  0  0  0  0  0  0  0  0  0
   58.9465   28.0890   42.7842 H   0  0  0  0  0  0  0  0  0  0  0  0
   56.2230   28.5910   44.7240 N   0  0  0  0  0  0  0  0  0  0  0  0
   55.8180   29.7840   45.0340 O   0  0  0  0  0  0  0  0  0  0  0  0
   59.5760   33.3950   47.0390 C   0  0  0  0  0  0  0  0  0  0  0  0
   59.9730   34.9820   46.3880 Cl  0  0  0  0  0  0  0  0  0  0  0  0
  1  2  1  0
  2  3  2  0
  3  4  1  0
  3  5  1  0
  5  6  1  0
  6  7  1  0
  7  8  2  0
  7  9  1  0
  9 10  1  0
  9 11  1  0
  9 12  1  0
 12 13  1  0
 12 14  1  0
 12 15  1  0
 15 16  2  0
 16 17  1  0
 17 18  2  0
 17 19  1  0
 19 20  2  0
 20 21  1  0
 20 22  1  0
 22 23  1  0
 22 24  2  0
 24 25  1  0
 24 26  1  0
 26 27  1  0
 26 28  2  0
 28 29  1  0
  5 30  2  0
 30 31  1  0
 30 32  1  0
 32 33  1  0
 33 34  2  0
 33 35  2  0
 33 36  1  0
 36 37  2  0
 37 38  1  0
 38 39  1  0
 39 40  1  0
 40 41  1  0
 40 42  1  0
 40 43  1  0
 39 44  2  0
 44 45  1  0
 32 46  2  0
 46 47  1  0
 46  2  1  0
 29 15  1  0
 45 37  1  0
 28 19  1  0
M  CHG  3   6  -1  29  -1  38  -1
M  END
>  <UniqueID>  (8) 
8

>  <SMILES>  (8) 
Cc1no/c(=N\S(=O)(=O)c2cc([N-]C(=O)CCc3nc(=O)c4ccccc4[n-]3)ccc2Cl)[n-]1

>  <Energy>  (8) 
85.39466152174307

>  <Genealogy>  (8) 
Cc1noc(=NS(=O)(=O)c2cc([N-]C(=O)CCc3nc(=O)c4ccccc4[n-]3)ccc2Cl)[n-]1 (protonated)
Cc1no/c(=N\S(=O)(=O)c2cc([N-]C(=O)CCc3nc(=O)c4ccccc4[n-]3)ccc2Cl)[n-]1 (cis-trans isomerization)
Cc1no/c(=N\S(=O)(=O)c2cc([N-]C(=O)CCc3nc(=O)c4ccccc4[n-]3)ccc2Cl)[n-]1 (3D coordinates assigned)
Cc1no/c(=N\S(=O)(=O)c2cc([N-]C(=O)CCc3nc(=O)c4ccccc4[n-]3)ccc2Cl)[n-]1 (optimized conformer: 85.39466152174307 kcal/mol)

>  <smiles>  (8) 
Cc1noc(=NS(=O)(=O)c2cc(NC(=O)CCc3nc(=O)c4ccccc4[nH]3)ccc2Cl)[nH]1

>  <score_type>  (8) 
oracle

>  <origin>  (8) 
adg

>  <m_score__min__energy>  (8) 
-14.359999999999999

>  <m_primary>  (8) 
energy

$$$$
8:0
     RDKit          3D

 48 50  0  0  0  0  0  0  0  0999 V2000
   57.3560   24.8630   47.7890 C   0  0  0  0  0  0  0  0  0  0  0  0
   58.0700   24.9560   46.4450 C   0  0  0  0  0  0  0  0  0  0  0  0
   57.9590   26.3080   45.8950 N   0  0  0  0  0  0  0  0  0  0  0  0
   59.0350   27.0440   45.6500 N   0  0  0  0  0  0  0  0  0  0  0  0
   58.6360   28.2700   45.2620 C   0  0  0  0  0  0  0  0  0  0  0  0
   57.2550   28.3280   45.2790 C   0  0  0  0  0  0  0  0  0  0  0  0
   56.4010   29.4650   44.8780 C   0  0  0  0  0  0  0  0  0  0  0  0
   55.1490   29.3450   44.9170 O   0  0  0  0  0  0  0  0  0  0  0  0
   56.9660   30.6750   44.3550 N   0  0  0  0  0  0  0  0  0  0  0  0
   57.4030   31.6700   45.0680 C   0  0  0  0  0  0  0  0  0  0  0  0
   58.5900   31.5940   45.7340 N   0  0  0  0  0  0  0  0  0  0  0  0
   59.0530   32.6280   46.4870 C   0  0  0  0  0  0  0  0  0  0  0  0
   60.2900   32.4900   47.2150 N   0  0  0  0  0  0  0  0  0  0  0  0
   61.0620   31.3020   47.2060 C   0  0  0  0  0  0  0  0  0  0  0  0
   60.5650   30.1450   47.2380 O   0  0  0  0  0  0  0  0  0  0  0  0
   62.4130   31.5390   47.1610 O   0  0  0  0  0  0  0  0  0  0  0  0
   62.6380   32.9370   47.0830 C   0  0  0  0  0  0  0  0  0  0  0  0
   61.2510   33.5940   47.3640 C   0  0  2  0  0  0  0  0  0  0  0  0
   61.2130   34.2100   48.7950 C   0  0  0  0  0  0  0  0  0  0  0  0
   62.5190   33.9990   49.5670 C   0  0  0  0  0  0  0  0  0  0  0  0
   60.0520   33.6210   49.6150 C   0  0  0  0  0  0  0  0  0  0  0  0
   58.2790   33.7940   46.5860 C   0  0  0  0  0  0  0  0  0  0  0  0
   57.0620   33.8510   45.9110 C   0  0  0  0  0  0  0  0  0  0  0  0
   56.6450   32.7920   45.1720 N   0  0  0  0  0  0  0  0  0  0  0  0
   56.8530   27.0680   45.6750 C   0  0  0  0  0  0  0  0  0  0  0  0
   55.5060   26.6960   45.8230 O   0  0  0  0  0  0  0  0  0  0  0  0
   54.9690   25.3970   45.6190 C   0  0  0  0  0  0  0  0  0  0  0  0
   58.0908   24.9587   48.6020 H   0  0  0  0  0  0  0  0  0  0  0  0
   56.6150   25.6722   47.8673 H   0  0  0  0  0  0  0  0  0  0  0  0
   56.8470   23.8910   47.8673 H   0  0  0  0  0  0  0  0  0  0  0  0
   59.1328   24.7077   46.5823 H   0  0  0  0  0  0  0  0  0  0  0  0
   57.6014   24.2488   45.7448 H   0  0  0  0  0  0  0  0  0  0  0  0
   59.3041   29.0958   44.9763 H   0  0  0  0  0  0  0  0  0  0  0  0
   63.3733   33.2516   47.8382 H   0  0  0  0  0  0  0  0  0  0  0  0
   63.0410   33.2333   46.1033 H   0  0  0  0  0  0  0  0  0  0  0  0
   61.0244   34.4261   46.6812 H   0  0  0  0  0  0  0  0  0  0  0  0
   61.0684   35.2914   48.6548 H   0  0  0  0  0  0  0  0  0  0  0  0
   62.3156   34.0319   50.6475 H   0  0  0  0  0  0  0  0  0  0  0  0
   62.9464   33.0202   49.3039 H   0  0  0  0  0  0  0  0  0  0  0  0
   63.2329   34.7935   49.3039 H   0  0  0  0  0  0  0  0  0  0  0  0
   60.2682   33.7307   50.6879 H   0  0  0  0  0  0  0  0  0  0  0  0
   59.1225   34.1566   49.3717 H   0  0  0  0  0  0  0  0  0  0  0  0
   59.9352   32.5546   49.3717 H   0  0  0  0  0  0  0  0  0  0  0  0
   58.6270   34.6478   47.1859 H   0  0  0  0  0  0  0  0  0  0  0  0
   56.4386   34.7549   45.9770 H   0  0  0  0  0  0  0  0  0  0  0  0
   54.7735   24.9240   46.5927 H   0  0  0  0  0  0  0  0  0  0  0  0
   54.0288   25.4736   45.0532 H   0  0  0  0  0  0  0  0  0  0  0  0
   55.6888   24.7874   45.0532 H   0  0  0  0  0  0  0  0  0  0  0  0
  1  2  1  0
  2  3  1  0
  3  4  1  0
  4  5  2  0
  5  6  1  0
  6  7  1  0
  7  8  2  0
  7  9  1  0
  9 10  2  3
 10 11  1  0
 11 12  2  0
 12 13  1  0
 13 14  1  0
 14 15  2  0
 14 16  1  0
 16 17  1  0
 17 18  1  0
 18 19  1  0
 19 20  1  0
 19 21  1  0
 12 22  1  0
 22 23  2  0
 23 24  1  0
  6 25  2  0
 25 26  1  0
 26 27  1  0
 25  3  1  0
 24 10  1  0
 18 13  1  0
  1 28  1  0
  1 29  1  0
  1 30  1  0
  2 31  1  0
  2 32  1  0
  5 33  1  0
 17 34  1  0
 17 35  1  0
 18 36  1  6
 19 37  1  0
 20 38  1  0
 20 39  1  0
 20 40  1  0
 21 41  1  0
 21 42  1  0
 21 43  1  0
 22 44  1  0
 23 45  1  0
 27 46  1  0
 27 47  1  0
 27 48  1  0
M  CHG  1  24  -1
M  END
>  <UniqueID>  (9) 
9

>  <SMILES>  (9) 
CCn1ncc(C(=O)N=c2nc(N3C(=O)OC[C@@H]3C(C)C)cc[n-]2)c1OC

>  <Energy>  (9) 
104.65189963405872

>  <Genealogy>  (9) 
CCn1ncc(C(=O)N=c2nc(N3C(=O)OCC3C(C)C)cc[n-]2)c1OC (protonated)
CCn1ncc(C(=O)N=c2nc(N3C(=O)OC[C@@H]3C(C)C)cc[n-]2)c1OC (chirality)
CCn1ncc(C(=O)N=c2nc(N3C(=O)OC[C@@H]3C(C)C)cc[n-]2)c1OC (3D coordinates assigned)
CCn1ncc(C(=O)N=c2nc(N3C(=O)OC[C@@H]3C(C)C)cc[n-]2)c1OC (nonaromatic ring conformer: 104.65189963405872 kcal/mol)

>  <smiles>  (9) 
CCn1ncc(C(=O)N=c2nc(N3C(=O)OCC3C(C)C)cc[nH]2)c1OC

>  <score_type>  (9) 
oracle

>  <origin>  (9) 
adg

>  <m_score__min__energy>  (9) 
-9.1500000000000004

>  <m_primary>  (9) 
energy

$$$$
9:0
     RDKit          3D

 33 34  0  0  0  0  0  0  0  0999 V2000
   54.7870   27.4560   46.3320 H   0  0  0  0  0  0  0  0  0  0  0  0
   55.3520   26.6320   46.0300 N   0  0  0  0  0  0  0  0  0  0  0  0
   56.6460   26.6710   45.9940 C   0  0  0  0  0  0  0  0  0  0  0  0
   57.3570   25.5580   46.3230 N   0  0  0  0  0  0  0  0  0  0  0  0
   58.7140   25.5450   46.2990 C   0  0  0  0  0  0  0  0  0  0  0  0
   59.2656   24.6327   46.5699 H   0  0  0  0  0  0  0  0  0  0  0  0
   59.4010   26.6980   45.9280 C   0  0  0  0  0  0  0  0  0  0  0  0
   60.5007   26.7043   45.9018 H   0  0  0  0  0  0  0  0  0  0  0  0
   58.7020   27.8140   45.5990 N   0  0  0  0  0  0  0  0  0  0  0  0
   57.3390   27.8470   45.6180 C   0  0  0  0  0  0  0  0  0  0  0  0
   56.6670   29.1130   45.2410 C   0  0  0  0  0  0  0  0  0  0  0  0
   55.4450   29.0900   44.9300 O   0  0  0  0  0  0  0  0  0  0  0  0
   57.3800   30.3560   45.2150 N   0  0  0  0  0  0  0  0  0  0  0  0
   56.8340   31.5930   44.6690 C   0  0  0  0  0  0  0  0  0  0  0  0
   56.3746   31.3859   43.6912 H   0  0  0  0  0  0  0  0  0  0  0  0
   56.0794   31.9879   45.3651 H   0  0  0  0  0  0  0  0  0  0  0  0
   57.9430   32.6350   44.4950 C   0  0  0  0  0  0  0  0  0  0  0  0
   58.7798   32.1830   43.9423 H   0  0  0  0  0  0  0  0  0  0  0  0
   57.5379   33.4933   43.9390 H   0  0  0  0  0  0  0  0  0  0  0  0
   58.4390   33.1170   45.8400 C   0  0  0  0  0  0  0  0  0  0  0  0
   58.2550   32.2830   46.9580 C   0  0  0  0  0  0  0  0  0  0  0  0
   57.7760   31.3009   46.8315 H   0  0  0  0  0  0  0  0  0  0  0  0
   58.6740   32.6890   48.2260 C   0  0  0  0  0  0  0  0  0  0  0  0
   58.5282   32.0257   49.0913 H   0  0  0  0  0  0  0  0  0  0  0  0
   59.2770   33.9340   48.3970 C   0  0  0  0  0  0  0  0  0  0  0  0
   59.6109   34.2495   49.3965 H   0  0  0  0  0  0  0  0  0  0  0  0
   59.4580   34.7810   47.3030 C   0  0  0  0  0  0  0  0  0  0  0  0
   59.9375   35.7606   47.4459 H   0  0  0  0  0  0  0  0  0  0  0  0
   59.0330   34.3940   46.0190 C   0  0  0  0  0  0  0  0  0  0  0  0
   59.2570   35.3330   44.8630 C   0  0  0  0  0  0  0  0  0  0  0  0
   59.4962   36.3359   45.2463 H   0  0  0  0  0  0  0  0  0  0  0  0
   60.0928   34.9661   44.2492 H   0  0  0  0  0  0  0  0  0  0  0  0
   58.3455   35.3829   44.2492 H   0  0  0  0  0  0  0  0  0  0  0  0
  1  2  1  0
  2  3  2  0
  3  4  1  0
  4  5  1  0
  5  6  1  0
  5  7  2  0
  7  8  1  0
  7  9  1  0
  9 10  2  0
 10 11  1  0
 11 12  2  0
 11 13  1  0
 13 14  1  0
 14 15  1  0
 14 16  1  0
 14 17  1  0
 17 18  1  0
 17 19  1  0
 17 20  1  0
 20 21  2  0
 21 22  1  0
 21 23  1  0
 23 24  1  0
 23 25  2  0
 25 26  1  0
 25 27  1  0
 27 28  1  0
 27 29  2  0
 29 30  1  0
 30 31  1  0
 30 32  1  0
 30 33  1  0
 10  3  1  0
 29 20  1  0
M  CHG  2   4  -1  13  -1
M  END
>  <UniqueID>  (10) 
10

>  <SMILES>  (10) 
[H]/N=c1\[n-]ccnc1C(=O)[N-]CCc1ccccc1C

>  <Energy>  (10) 
34.311760127037644

>  <Genealogy>  (10) 
Cc1ccccc1CC[N-]C(=O)c1ncc[n-]c1=N (protonated)
[H]/N=c1\[n-]ccnc1C(=O)[N-]CCc1ccccc1C (cis-trans isomerization)
[H]/N=c1\[n-]ccnc1C(=O)[N-]CCc1ccccc1C (3D coordinates assigned)
[H]/N=c1\[n-]ccnc1C(=O)[N-]CCc1ccccc1C (optimized conformer: 34.311760127037644 kcal/mol)

>  <smiles>  (10) 
Cc1ccccc1CCNC(=O)c1ncc[nH]c1=N

>  <score_type>  (10) 
oracle

>  <origin>  (10) 
adg

>  <m_score__min__energy>  (10) 
-10.85

>  <m_primary>  (10) 
energy

$$$$
10:0
     RDKit          3D

 47 50  0  0  0  0  0  0  0  0999 V2000
   60.6050   33.0620   47.3620 O   0  0  0  0  0  0  0  0  0  0  0  0
   60.7280   31.8160   47.5110 C   0  0  0  0  0  0  0  0  0  0  0  0
   60.7800   30.9940   46.3920 O   0  0  0  0  0  0  0  0  0  0  0  0
   60.7900   31.2280   48.8910 C   0  0  0  0  0  0  0  0  0  0  0  0
   59.4250   30.7250   49.4050 C   0  0  1  0  0  0  0  0  0  0  0  0
   59.4880   29.3070   49.7820 N   0  0  0  0  0  0  0  0  0  0  0  0
   59.8620   28.2690   48.8670 C   0  0  0  0  0  0  0  0  0  0  0  0
   59.7740   28.0340   47.4970 C   0  0  0  0  0  0  0  0  0  0  0  0
   59.2630   28.7560   46.3710 N   0  0  0  0  0  0  0  0  0  0  0  0
   57.9430   28.5040   45.8800 C   0  0  0  0  0  0  0  0  0  0  0  0
   57.1850   27.3710   46.0930 C   0  0  0  0  0  0  0  0  0  0  0  0
   57.6380   26.2120   46.7060 O   0  0  0  0  0  0  0  0  0  0  0  0
   55.9280   27.5250   45.6210 N   0  0  0  0  0  0  0  0  0  0  0  0
   55.9020   28.7740   45.1100 C   0  0  0  0  0  0  0  0  0  0  0  0
   54.7740   29.3340   44.5260 O   0  0  0  0  0  0  0  0  0  0  0  0
   57.1240   29.4070   45.2350 C   0  0  0  0  0  0  0  0  0  0  0  0
   57.4620   30.7800   44.8130 C   0  0  0  0  0  0  0  0  0  0  0  0
   57.7660   31.7650   45.7660 C   0  0  0  0  0  0  0  0  0  0  0  0
   58.0900   33.0640   45.3580 C   0  0  0  0  0  0  0  0  0  0  0  0
   58.0940   33.3910   43.9990 C   0  0  0  0  0  0  0  0  0  0  0  0
   57.7750   32.4190   43.0470 C   0  0  0  0  0  0  0  0  0  0  0  0
   57.4680   31.1150   43.4490 C   0  0  0  0  0  0  0  0  0  0  0  0
   60.3070   26.7650   47.6870 C   0  0  0  0  0  0  0  0  0  0  0  0
   60.5740   25.7820   46.9430 O   0  0  0  0  0  0  0  0  0  0  0  0
   60.4180   27.0120   49.0400 C   0  0  0  0  0  0  0  0  0  0  0  0
   60.8310   26.3530   50.0330 O   0  0  0  0  0  0  0  0  0  0  0  0
   58.8970   31.5840   50.5510 C   0  0  0  0  0  0  0  0  0  0  0  0
   59.3630   32.9040   50.7410 C   0  0  0  0  0  0  0  0  0  0  0  0
   58.8670   33.6980   51.7760 C   0  0  0  0  0  0  0  0  0  0  0  0
   57.8980   33.1920   52.6430 C   0  0  0  0  0  0  0  0  0  0  0  0
   57.4200   31.8920   52.4660 C   0  0  0  0  0  0  0  0  0  0  0  0
   57.9050   31.0880   51.4270 C   0  0  0  0  0  0  0  0  0  0  0  0
   57.3890   29.8030   51.2760 O   0  0  0  0  0  0  0  0  0  0  0  0
   61.4913   30.3806   48.8777 H   0  0  0  0  0  0  0  0  0  0  0  0
   61.1177   32.0286   49.5705 H   0  0  0  0  0  0  0  0  0  0  0  0
   58.7091   30.8195   48.5752 H   0  0  0  0  0  0  0  0  0  0  0  0
   59.2240   29.0030   50.7480 H   0  0  0  0  0  0  0  0  0  0  0  0
   59.7150   29.6580   46.1110 H   0  0  0  0  0  0  0  0  0  0  0  0
   57.7495   31.5150   46.8371 H   0  0  0  0  0  0  0  0  0  0  0  0
   58.3418   33.8285   46.1077 H   0  0  0  0  0  0  0  0  0  0  0  0
   58.3480   34.4124   43.6792 H   0  0  0  0  0  0  0  0  0  0  0  0
   57.7653   32.6802   41.9785 H   0  0  0  0  0  0  0  0  0  0  0  0
   57.2307   30.3500   42.6951 H   0  0  0  0  0  0  0  0  0  0  0  0
   60.1277   33.3118   50.0635 H   0  0  0  0  0  0  0  0  0  0  0  0
   59.2405   34.7241   51.9084 H   0  0  0  0  0  0  0  0  0  0  0  0
   57.5119   33.8151   53.4632 H   0  0  0  0  0  0  0  0  0  0  0  0
   56.6548   31.4955   53.1495 H   0  0  0  0  0  0  0  0  0  0  0  0
  1  2  2  0
  2  3  1  0
  2  4  1  0
  4  5  1  0
  5  6  1  0
  6  7  1  0
  7  8  2  0
  8  9  1  0
  9 10  1  0
 10 11  2  0
 11 12  1  0
 11 13  1  0
 13 14  1  0
 14 15  1  0
 14 16  2  0
 16 17  1  0
 17 18  2  0
 18 19  1  0
 19 20  2  0
 20 21  1  0
 21 22  2  0
  8 23  1  0
 23 24  2  0
 23 25  1  0
 25 26  2  0
  5 27  1  0
 27 28  2  0
 28 29  1  0
 29 30  2  0
 30 31  1  0
 31 32  2  0
 32 33  1  0
 25  7  1  0
 32 27  1  0
 16 10  1  0
 22 17  1  0
  4 34  1  0
  4 35  1  0
  5 36  1  6
  6 37  1  0
  9 38  1  0
 18 39  1  0
 19 40  1  0
 20 41  1  0
 21 42  1  0
 22 43  1  0
 28 44  1  0
 29 45  1  0
 30 46  1  0
 31 47  1  0
M  CHG  5   3  -1  12  -1  13  -1  15  -1  33  -1
M  END
>  <UniqueID>  (11) 
11

>  <SMILES>  (11) 
O=C([O-])C[C@@H](Nc1c(Nc2c([O-])[n-]c([O-])c2-c2ccccc2)c(=O)c1=O)c1ccccc1[O-]

>  <Energy>  (11) 
81.30862437893734

>  <Genealogy>  (11) 
O=C([O-])CC(Nc1c(Nc2c([O-])[n-]c([O-])c2-c2ccccc2)c(=O)c1=O)c1ccccc1[O-] (protonated)
O=C([O-])C[C@@H](Nc1c(Nc2c([O-])[n-]c([O-])c2-c2ccccc2)c(=O)c1=O)c1ccccc1[O-] (chirality)
O=C([O-])C[C@@H](Nc1c(Nc2c([O-])[n-]c([O-])c2-c2ccccc2)c(=O)c1=O)c1ccccc1[O-] (3D coordinates assigned)
O=C([O-])C[C@@H](Nc1c(Nc2c([O-])[n-]c([O-])c2-c2ccccc2)c(=O)c1=O)c1ccccc1[O-] (optimized conformer: 81.30862437893734 kcal/mol)

>  <smiles>  (11) 
O=C(O)CC(Nc1c(Nc2c(O)[nH]c(O)c2-c2ccccc2)c(=O)c1=O)c1ccccc1O

>  <score_type>  (11) 
oracle

>  <origin>  (11) 
adg

>  <m_score__min__energy>  (11) 
-17.739999999999998

>  <m_primary>  (11) 
energy

$$$$
11:0
     RDKit          3D

 43 45  0  0  0  0  0  0  0  0999 V2000
   57.7600   24.5960   48.0300 O   0  0  0  0  0  0  0  0  0  0  0  0
   57.6220   25.4430   47.1080 C   0  0  0  0  0  0  0  0  0  0  0  0
   57.4200   24.9760   45.6860 C   0  0  0  0  0  0  0  0  0  0  0  0
   56.0000   24.5120   45.4410 C   0  0  0  0  0  0  0  0  0  0  0  0
   54.9110   25.3810   45.6320 C   0  0  0  0  0  0  0  0  0  0  0  0
   55.1170   26.7000   46.0250 O   0  0  0  0  0  0  0  0  0  0  0  0
   53.6430   24.9330   45.4320 N   0  0  0  0  0  0  0  0  0  0  0  0
   53.4010   23.6520   45.0550 C   0  0  0  0  0  0  0  0  0  0  0  0
   52.2190   23.2620   44.8740 O   0  0  0  0  0  0  0  0  0  0  0  0
   54.4340   22.7900   44.8760 N   0  0  0  0  0  0  0  0  0  0  0  0
   55.7190   23.1850   45.0630 C   0  0  0  0  0  0  0  0  0  0  0  0
   56.6500   22.3510   44.8980 O   0  0  0  0  0  0  0  0  0  0  0  0
   57.8440   26.8270   47.4130 N   0  0  0  0  0  0  0  0  0  0  0  0
   58.4660   27.7840   46.5490 C   0  0  0  0  0  0  0  0  0  0  0  0
   59.7860   27.6110   46.1040 C   0  0  0  0  0  0  0  0  0  0  0  0
   60.3650   28.5460   45.2430 C   0  0  0  0  0  0  0  0  0  0  0  0
   59.6290   29.6520   44.8120 C   0  0  0  0  0  0  0  0  0  0  0  0
   58.3030   29.8220   45.2330 C   0  0  0  0  0  0  0  0  0  0  0  0
   57.3800   31.2310   44.7090 S   0  0  0  0  0  0  0  0  0  0  0  0
   57.9770   31.7540   43.4330 O   0  0  0  0  0  0  0  0  0  0  0  0
   55.9660   30.8130   44.4150 O   0  0  0  0  0  0  0  0  0  0  0  0
   57.3710   32.5100   45.9060 N   0  0  0  0  0  0  0  0  0  0  0  0
   57.2970   33.8580   45.3040 C   0  0  0  0  0  0  0  0  0  0  0  0
   58.6550   34.5810   45.2840 C   0  0  0  0  0  0  0  0  0  0  0  0
   59.7080   33.6490   45.1940 O   0  0  0  0  0  0  0  0  0  0  0  0
   59.8090   32.9280   46.4050 C   0  0  0  0  0  0  0  0  0  0  0  0
   58.4540   32.3660   46.8980 C   0  0  0  0  0  0  0  0  0  0  0  0
   57.7200   28.8720   46.0840 C   0  0  0  0  0  0  0  0  0  0  0  0
   57.6451   25.8083   45.0029 H   0  0  0  0  0  0  0  0  0  0  0  0
   58.0927   24.1241   45.5079 H   0  0  0  0  0  0  0  0  0  0  0  0
   55.8120   26.9320   46.7250 H   0  0  0  0  0  0  0  0  0  0  0  0
   60.3660   26.7366   46.4343 H   0  0  0  0  0  0  0  0  0  0  0  0
   61.4026   28.4110   44.9037 H   0  0  0  0  0  0  0  0  0  0  0  0
   60.0909   30.3911   44.1409 H   0  0  0  0  0  0  0  0  0  0  0  0
   56.9360   33.7609   44.2695 H   0  0  0  0  0  0  0  0  0  0  0  0
   56.6130   34.4581   45.9221 H   0  0  0  0  0  0  0  0  0  0  0  0
   58.6933   35.2557   44.4161 H   0  0  0  0  0  0  0  0  0  0  0  0
   58.7664   35.1554   46.2155 H   0  0  0  0  0  0  0  0  0  0  0  0
   60.5015   32.0869   46.2538 H   0  0  0  0  0  0  0  0  0  0  0  0
   60.1694   33.6290   47.1723 H   0  0  0  0  0  0  0  0  0  0  0  0
   58.5804   31.2972   47.1253 H   0  0  0  0  0  0  0  0  0  0  0  0
   58.1631   32.9451   47.7868 H   0  0  0  0  0  0  0  0  0  0  0  0
   56.6687   28.9832   46.3880 H   0  0  0  0  0  0  0  0  0  0  0  0
  1  2  2  0
  2  3  1  0
  3  4  1  0
  4  5  2  0
  5  6  1  0
  5  7  1  0
  7  8  1  0
  8  9  2  0
  8 10  1  0
 10 11  1  0
 11 12  2  0
  2 13  1  0
 13 14  1  0
 14 15  2  0
 15 16  1  0
 16 17  2  0
 17 18  1  0
 18 19  1  0
 19 20  2  0
 19 21  2  0
 19 22  1  0
 22 23  1  0
 23 24  1  0
 24 25  1  0
 25 26  1  0
 26 27  1  0
 18 28  2  0
 11  4  1  0
 28 14  1  0
 27 22  1  0
  3 29  1  0
  3 30  1  0
  6 31  1  0
 15 32  1  0
 16 33  1  0
 17 34  1  0
 23 35  1  0
 23 36  1  0
 24 37  1  0
 24 38  1  0
 26 39  1  0
 26 40  1  0
 27 41  1  0
 27 42  1  0
 28 43  1  0
M  CHG  3   7  -1  10  -1  13  -1
M  END
>  <UniqueID>  (12) 
12

>  <SMILES>  (12) 
O=C(Cc1c(O)[n-]c(=O)[n-]c1=O)[N-]c1cccc(S(=O)(=O)N2CCOCC2)c1

>  <Energy>  (12) 
62.48292659572699

>  <Genealogy>  (12) 
O=C(Cc1c(O)[n-]c(=O)[n-]c1=O)[N-]c1cccc(S(=O)(=O)N2CCOCC2)c1 (protonated)
O=C(Cc1c(O)[n-]c(=O)[n-]c1=O)[N-]c1cccc(S(=O)(=O)N2CCOCC2)c1 (3D coordinates assigned)
O=C(Cc1c(O)[n-]c(=O)[n-]c1=O)[N-]c1cccc(S(=O)(=O)N2CCOCC2)c1 (nonaromatic ring conformer: 62.48292659572699 kcal/mol)

>  <smiles>  (12) 
O=C(Cc1c(O)[nH]c(=O)[nH]c1=O)Nc1cccc(S(=O)(=O)N2CCOCC2)c1

>  <score_type>  (12) 
oracle

>  <origin>  (12) 
adg

>  <m_score__min__energy>  (12) 
-14.800000000000001

>  <m_primary>  (12) 
energy

$$$$
12:0
     RDKit          3D

 57 60  0  0  0  0  0  0  0  0999 V2000
   56.1800   29.7070   42.6750 C   0  0  0  0  0  0  0  0  0  0  0  0
   56.8630   29.8680   44.3140 S   0  0  0  0  0  0  0  0  0  0  0  0
   56.2210   28.8570   45.2240 O   0  0  0  0  0  0  0  0  0  0  0  0
   56.5470   31.2510   44.8150 O   0  0  0  0  0  0  0  0  0  0  0  0
   58.5990   29.6270   44.2740 N   0  0  2  0  0  0  0  0  0  0  0  0
   58.9390   28.1850   44.4790 C   0  0  0  0  0  0  0  0  0  0  0  0
   59.9380   27.9210   45.6160 C   0  0  0  0  0  0  0  0  0  0  0  0
   59.5570   28.7310   46.8170 C   0  0  0  0  0  0  0  0  0  0  0  0
   59.5310   28.1750   48.0930 C   0  0  0  0  0  0  0  0  0  0  0  0
   59.1730   28.9660   49.1750 C   0  0  0  0  0  0  0  0  0  0  0  0
   58.8900   30.3200   48.9850 C   0  0  0  0  0  0  0  0  0  0  0  0
   58.5670   31.0070   49.9930 O   0  0  0  0  0  0  0  0  0  0  0  0
   58.9740   30.8910   47.7310 N   0  0  0  0  0  0  0  0  0  0  0  0
   58.7550   32.3500   47.5790 C   0  0  0  0  0  0  0  0  0  0  0  0
   59.9920   33.0890   47.1120 C   0  0  0  0  0  0  0  0  0  0  0  0
   59.8450   34.0160   46.2670 O   0  0  0  0  0  0  0  0  0  0  0  0
   61.3040   32.8400   47.6650 N   0  0  0  0  0  0  0  0  0  0  0  0
   62.3270   33.8920   47.5910 C   0  0  0  0  0  0  0  0  0  0  0  0
   63.1930   33.8810   48.8540 C   0  0  0  0  0  0  0  0  0  0  0  0
   63.7130   32.5350   49.1400 N   0  0  0  0  0  0  0  0  0  0  0  0
   64.8550   32.3850   50.0120 C   0  0  0  0  0  0  0  0  0  0  0  0
   65.8330   33.3960   50.0970 C   0  0  0  0  0  0  0  0  0  0  0  0
   66.9310   33.2510   50.9510 C   0  0  0  0  0  0  0  0  0  0  0  0
   67.0660   32.1010   51.7310 C   0  0  0  0  0  0  0  0  0  0  0  0
   68.1300   31.9650   52.5610 F   0  0  0  0  0  0  0  0  0  0  0  0
   66.1030   31.0920   51.6590 C   0  0  0  0  0  0  0  0  0  0  0  0
   65.0030   31.2310   50.8070 C   0  0  0  0  0  0  0  0  0  0  0  0
   63.1740   31.3730   48.4210 C   0  0  0  0  0  0  0  0  0  0  0  0
   61.6630   31.5160   48.1970 C   0  0  0  0  0  0  0  0  0  0  0  0
   59.2400   30.0850   46.6370 C   0  0  0  0  0  0  0  0  0  0  0  0
   59.2670   30.5780   45.2000 C   0  0  0  0  0  0  0  0  0  0  0  0
   55.1116   29.4551   42.7461 H   0  0  0  0  0  0  0  0  0  0  0  0
   56.2974   30.6574   42.1338 H   0  0  0  0  0  0  0  0  0  0  0  0
   56.7096   28.9091   42.1338 H   0  0  0  0  0  0  0  0  0  0  0  0
   58.8990   29.8910   43.3050 H   0  0  0  0  0  0  0  0  0  0  0  0
   58.0096   27.6418   44.7053 H   0  0  0  0  0  0  0  0  0  0  0  0
   59.4226   27.8429   43.5521 H   0  0  0  0  0  0  0  0  0  0  0  0
   59.9234   26.8522   45.8755 H   0  0  0  0  0  0  0  0  0  0  0  0
   60.9486   28.2062   45.2883 H   0  0  0  0  0  0  0  0  0  0  0  0
   59.7922   27.1169   48.2421 H   0  0  0  0  0  0  0  0  0  0  0  0
   59.1121   28.5269   50.1817 H   0  0  0  0  0  0  0  0  0  0  0  0
   57.9530   32.5092   46.8432 H   0  0  0  0  0  0  0  0  0  0  0  0
   58.4887   32.7475   48.5695 H   0  0  0  0  0  0  0  0  0  0  0  0
   62.9648   33.7167   46.7121 H   0  0  0  0  0  0  0  0  0  0  0  0
   61.8296   34.8695   47.5067 H   0  0  0  0  0  0  0  0  0  0  0  0
   64.0398   34.5687   48.7126 H   0  0  0  0  0  0  0  0  0  0  0  0
   62.5690   34.1972   49.7029 H   0  0  0  0  0  0  0  0  0  0  0  0
   65.7321   34.3059   49.4872 H   0  0  0  0  0  0  0  0  0  0  0  0
   67.6901   34.0450   51.0083 H   0  0  0  0  0  0  0  0  0  0  0  0
   66.2101   30.1861   52.2738 H   0  0  0  0  0  0  0  0  0  0  0  0
   64.2473   30.4333   50.7570 H   0  0  0  0  0  0  0  0  0  0  0  0
   63.6757   31.2893   47.4457 H   0  0  0  0  0  0  0  0  0  0  0  0
   63.3544   30.4724   49.0263 H   0  0  0  0  0  0  0  0  0  0  0  0
   61.3362   30.7463   47.4823 H   0  0  0  0  0  0  0  0  0  0  0  0
   61.1640   31.3958   49.1699 H   0  0  0  0  0  0  0  0  0  0  0  0
   58.7503   31.5477   45.1472 H   0  0  0  0  0  0  0  0  0  0  0  0
   60.3188   30.6711   44.8918 H   0  0  0  0  0  0  0  0  0  0  0  0
  1  2  1  0
  2  3  2  0
  2  4  2  0
  2  5  1  0
  5  6  1  0
  6  7  1  0
  7  8  1  0
  8  9  1  0
  9 10  2  0
 10 11  1  0
 11 12  2  0
 11 13  1  0
 13 14  1  0
 14 15  1  0
 15 16  2  0
 15 17  1  0
 17 18  1  0
 18 19  1  0
 19 20  1  0
 20 21  1  0
 21 22  2  0
 22 23  1  0
 23 24  2  0
 24 25  1  0
 24 26  1  0
 26 27  2  0
 20 28  1  0
 28 29  1  0
 13 30  1  0
 30 31  1  0
 31  5  1  0
 30  8  2  0
 29 17  1  0
 27 21  1  0
  1 32  1  0
  1 33  1  0
  1 34  1  0
  5 35  1  6
  6 36  1  0
  6 37  1  0
  7 38  1  0
  7 39  1  0
  9 40  1  0
 10 41  1  0
 14 42  1  0
 14 43  1  0
 18 44  1  0
 18 45  1  0
 19 46  1  0
 19 47  1  0
 22 48  1  0
 23 49  1  0
 26 50  1  0
 27 51  1  0
 28 52  1  0
 28 53  1  0
 29 54  1  0
 29 55  1  0
 31 56  1  0
 31 57  1  0
M  CHG  1   5   1
M  END
>  <UniqueID>  (13) 
13

>  <SMILES>  (13) 
CS(=O)(=O)[N@@H+]1CCc2ccc(=O)n(CC(=O)N3CCN(c4ccc(F)cc4)CC3)c2C1

>  <Energy>  (13) 
76.49421925641043

>  <Genealogy>  (13) 
CS(=O)(=O)[NH+]1CCc2ccc(=O)n(CC(=O)N3CCN(c4ccc(F)cc4)CC3)c2C1 (protonated)
CS(=O)(=O)[N@@H+]1CCc2ccc(=O)n(CC(=O)N3CCN(c4ccc(F)cc4)CC3)c2C1 (chirality)
CS(=O)(=O)[N@@H+]1CCc2ccc(=O)n(CC(=O)N3CCN(c4ccc(F)cc4)CC3)c2C1 (3D coordinates assigned)
CS(=O)(=O)[N@@H+]1CCc2ccc(=O)n(CC(=O)N3CCN(c4ccc(F)cc4)CC3)c2C1 (nonaromatic ring conformer: 76.49421925641043 kcal/mol)

>  <smiles>  (13) 
CS(=O)(=O)N1CCc2ccc(=O)n(CC(=O)N3CCN(c4ccc(F)cc4)CC3)c2C1

>  <score_type>  (13) 
oracle

>  <origin>  (13) 
adg

>  <m_score__min__energy>  (13) 
-8.0700000000000003

>  <m_primary>  (13) 
energy

$$$$
13:0
     RDKit          3D

 37 39  0  0  0  0  0  0  0  0999 V2000
   59.2930   31.9460   45.6180 H   0  0  0  0  0  0  0  0  0  0  0  0
   59.4590   30.9840   45.3490 O   0  0  0  0  0  0  0  0  0  0  0  0
   58.4370   30.0390   45.3850 C   0  0  0  0  0  0  0  0  0  0  0  0
   58.5700   28.7160   45.7660 C   0  0  0  0  0  0  0  0  0  0  0  0
   57.3310   28.1420   45.6270 C   0  0  0  0  0  0  0  0  0  0  0  0
   56.4870   29.1320   45.1680 C   0  0  0  0  0  0  0  0  0  0  0  0
   55.1390   28.9660   44.8700 O   0  0  0  0  0  0  0  0  0  0  0  0
   57.1580   30.2960   45.0320 N   0  0  0  0  0  0  0  0  0  0  0  0
   56.6300   31.5530   44.5040 C   0  0  0  0  0  0  0  0  0  0  0  0
   56.1974   32.1402   45.3275 H   0  0  0  0  0  0  0  0  0  0  0  0
   55.8557   31.3313   43.7547 H   0  0  0  0  0  0  0  0  0  0  0  0
   57.7510   32.3590   43.8420 C   0  0  0  0  0  0  0  0  0  0  0  0
   57.4615   32.5922   42.8067 H   0  0  0  0  0  0  0  0  0  0  0  0
   58.6709   31.7561   43.8623 H   0  0  0  0  0  0  0  0  0  0  0  0
   58.0090   33.6440   44.5800 C   0  0  0  0  0  0  0  0  0  0  0  0
   57.0500   34.4410   44.7570 O   0  0  0  0  0  0  0  0  0  0  0  0
   59.3270   34.0580   44.9760 N   0  0  0  0  0  0  0  0  0  0  0  0
   59.8720   33.9630   46.1520 C   0  0  0  0  0  0  0  0  0  0  0  0
   60.9310   33.1610   46.3830 N   0  0  0  0  0  0  0  0  0  0  0  0
   61.3640   33.2530   47.6710 C   0  0  0  0  0  0  0  0  0  0  0  0
   62.5420   32.4780   48.1650 C   0  0  0  0  0  0  0  0  0  0  0  0
   62.5446   32.4763   49.2650 H   0  0  0  0  0  0  0  0  0  0  0  0
   62.4807   31.4433   47.7969 H   0  0  0  0  0  0  0  0  0  0  0  0
   63.4680   32.9439   47.7969 H   0  0  0  0  0  0  0  0  0  0  0  0
   60.6640   34.1520   48.4710 C   0  0  0  0  0  0  0  0  0  0  0  0
   60.8657   34.3706   49.5300 H   0  0  0  0  0  0  0  0  0  0  0  0
   59.4550   34.8440   47.5290 S   0  0  0  0  0  0  0  0  0  0  0  0
   57.0360   26.7030   45.9030 C   0  0  0  0  0  0  0  0  0  0  0  0
   56.6876   26.2263   44.9749 H   0  0  0  0  0  0  0  0  0  0  0  0
   56.2638   26.6555   46.6850 H   0  0  0  0  0  0  0  0  0  0  0  0
   58.2610   25.9650   46.4040 C   0  0  0  0  0  0  0  0  0  0  0  0
   58.1498   24.9042   46.6730 H   0  0  0  0  0  0  0  0  0  0  0  0
   59.4820   26.5290   46.5410 C   0  0  0  0  0  0  0  0  0  0  0  0
   60.3023   25.8985   46.9145 H   0  0  0  0  0  0  0  0  0  0  0  0
   59.7910   27.9760   46.2120 C   0  0  0  0  0  0  0  0  0  0  0  0
   60.5399   28.0062   45.4068 H   0  0  0  0  0  0  0  0  0  0  0  0
   60.1713   28.4607   47.1233 H   0  0  0  0  0  0  0  0  0  0  0  0
  1  2  1  0
  2  3  1  0
  3  4  2  0
  4  5  1  0
  5  6  2  0
  6  7  1  0
  6  8  1  0
  8  9  1  0
  9 10  1  0
  9 11  1  0
  9 12  1  0
 12 13  1  0
 12 14  1  0
 12 15  1  0
 15 16  2  0
 15 17  1  0
 17 18  2  0
 18 19  1  0
 19 20  1  0
 20 21  1  0
 21 22  1  0
 21 23  1  0
 21 24  1  0
 20 25  2  0
 25 26  1  0
 25 27  1  0
  5 28  1  0
 28 29  1  0
 28 30  1  0
 28 31  1  0
 31 32  1  0
 31 33  2  0
 33 34  1  0
 33 35  1  0
 35 36  1  0
 35 37  1  0
  8  3  1  0
 27 18  1  0
 35  4  1  0
M  CHG  2   7  -1  19  -1
M  END
>  <UniqueID>  (14) 
14

>  <SMILES>  (14) 
Cc1cs/c(=N\C(=O)CCn2c([O-])c3c(c2O)CC=CC3)[n-]1

>  <Energy>  (14) 
101.39526132598014

>  <Genealogy>  (14) 
Cc1csc(=NC(=O)CCn2c([O-])c3c(c2O)CC=CC3)[n-]1 (protonated)
Cc1cs/c(=N\C(=O)CCn2c([O-])c3c(c2O)CC=CC3)[n-]1 (cis-trans isomerization)
Cc1cs/c(=N\C(=O)CCn2c([O-])c3c(c2O)CC=CC3)[n-]1 (3D coordinates assigned)
Cc1cs/c(=N\C(=O)CCn2c([O-])c3c(c2O)CC=CC3)[n-]1 (nonaromatic ring conformer: 101.39526132598014 kcal/mol)

>  <smiles>  (14) 
Cc1csc(=NC(=O)CCn2c(O)c3c(c2O)CC=CC3)[nH]1

>  <score_type>  (14) 
oracle

>  <origin>  (14) 
adg

>  <m_score__min__energy>  (14) 
-12.550000000000001

>  <m_primary>  (14) 
energy

$$$$
14:0
     RDKit          3D

 36 38  0  0  0  0  0  0  0  0999 V2000
   55.8360   29.7230   45.9670 H   0  0  0  0  0  0  0  0  0  0  0  0
   55.7980   29.6730   44.9240 N   0  0  0  0  0  0  0  0  0  0  0  0
   56.4630   30.4730   44.1470 C   0  0  0  0  0  0  0  0  0  0  0  0
   57.3970   31.3890   44.6750 C   0  0  0  0  0  0  0  0  0  0  0  0
   57.6000   31.4540   46.0630 O   0  0  0  0  0  0  0  0  0  0  0  0
   58.1760   32.5310   46.7520 C   0  0  0  0  0  0  0  0  0  0  0  0
   57.4620   33.5110   47.1050 O   0  0  0  0  0  0  0  0  0  0  0  0
   59.6350   32.5170   47.0350 C   0  0  0  0  0  0  0  0  0  0  0  0
   60.2520   33.7250   47.4120 C   0  0  0  0  0  0  0  0  0  0  0  0
   59.6443   34.6359   47.5164 H   0  0  0  0  0  0  0  0  0  0  0  0
   61.6260   33.7810   47.6550 C   0  0  0  0  0  0  0  0  0  0  0  0
   62.0936   34.7331   47.9464 H   0  0  0  0  0  0  0  0  0  0  0  0
   62.4060   32.6330   47.5290 C   0  0  0  0  0  0  0  0  0  0  0  0
   63.4889   32.6813   47.7160 H   0  0  0  0  0  0  0  0  0  0  0  0
   61.8150   31.4230   47.1660 C   0  0  0  0  0  0  0  0  0  0  0  0
   62.4359   30.5198   47.0724 H   0  0  0  0  0  0  0  0  0  0  0  0
   60.4350   31.3470   46.9190 C   0  0  0  0  0  0  0  0  0  0  0  0
   59.8590   30.0210   46.6070 C   0  0  0  0  0  0  0  0  0  0  0  0
   59.9670   29.5190   45.3010 C   0  0  0  0  0  0  0  0  0  0  0  0
   60.4831   30.1080   44.5285 H   0  0  0  0  0  0  0  0  0  0  0  0
   59.4210   28.2730   44.9780 C   0  0  0  0  0  0  0  0  0  0  0  0
   59.5091   27.8838   43.9529 H   0  0  0  0  0  0  0  0  0  0  0  0
   58.7640   27.5220   45.9550 C   0  0  0  0  0  0  0  0  0  0  0  0
   58.3352   26.5419   45.6990 H   0  0  0  0  0  0  0  0  0  0  0  0
   58.6510   28.0150   47.2580 C   0  0  0  0  0  0  0  0  0  0  0  0
   58.1335   27.4206   48.0254 H   0  0  0  0  0  0  0  0  0  0  0  0
   59.1940   29.2630   47.5910 C   0  0  0  0  0  0  0  0  0  0  0  0
   59.0390   29.8730   49.4030 Br  0  0  0  0  0  0  0  0  0  0  0  0
   58.0710   32.2480   43.7890 C   0  0  0  0  0  0  0  0  0  0  0  0
   58.7862   32.9872   44.1789 H   0  0  0  0  0  0  0  0  0  0  0  0
   57.8350   32.1650   42.4180 C   0  0  0  0  0  0  0  0  0  0  0  0
   58.3671   32.8301   41.7220 H   0  0  0  0  0  0  0  0  0  0  0  0
   56.9190   31.2320   41.9370 C   0  0  0  0  0  0  0  0  0  0  0  0
   56.7327   31.1540   40.8557 H   0  0  0  0  0  0  0  0  0  0  0  0
   56.2540   30.4170   42.8000 N   0  0  0  0  0  0  0  0  0  0  0  0
   55.5670   29.7320   42.4100 H   0  0  0  0  0  0  0  0  0  0  0  0
  1  2  1  0
  2  3  2  0
  3  4  1  0
  4  5  1  0
  5  6  1  0
  6  7  2  0
  6  8  1  0
  8  9  2  0
  9 10  1  0
  9 11  1  0
 11 12  1  0
 11 13  2  0
 13 14  1  0
 13 15  1  0
 15 16  1  0
 15 17  2  0
 17 18  1  0
 18 19  2  0
 19 20  1  0
 19 21  1  0
 21 22  1  0
 21 23  2  0
 23 24  1  0
 23 25  1  0
 25 26  1  0
 25 27  2  0
 27 28  1  0
  4 29  2  0
 29 30  1  0
 29 31  1  0
 31 32  1  0
 31 33  2  0
 33 34  1  0
 33 35  1  0
 35 36  1  0
 35  3  1  0
 17  8  1  0
 27 18  1  0
M  END
>  <UniqueID>  (15) 
15

>  <SMILES>  (15) 
[H]/N=c1/[nH]cccc1OC(=O)c1ccccc1-c1ccccc1Br

>  <Energy>  (15) 
56.61148039446265

>  <Genealogy>  (15) 
[H]/N=c1/[nH]cccc1OC(=O)c1ccccc1-c1ccccc1Br (cis-trans isomerization)
[H]/N=c1/[nH]cccc1OC(=O)c1ccccc1-c1ccccc1Br (3D coordinates assigned)
[H]/N=c1/[nH]cccc1OC(=O)c1ccccc1-c1ccccc1Br (optimized conformer: 56.61148039446265 kcal/mol)

>  <smiles>  (15) 
N=c1[nH]cccc1OC(=O)c1ccccc1-c1ccccc1Br

>  <score_type>  (15) 
oracle

>  <origin>  (15) 
adg

>  <m_score__min__energy>  (15) 
-8.5899999999999999

>  <m_primary>  (15) 
energy

$$$$
15:0
     RDKit          3D

 39 41  0  0  0  0  0  0  0  0999 V2000
   56.9120   33.2260   53.1090 H   0  0  0  0  0  0  0  0  0  0  0  0
   57.6180   33.3750   52.3970 O   0  0  0  0  0  0  0  0  0  0  0  0
   58.0530   32.3440   51.5660 C   0  0  0  0  0  0  0  0  0  0  0  0
   57.3420   31.1300   51.4740 C   0  0  0  0  0  0  0  0  0  0  0  0
   56.0990   30.8680   52.2340 C   0  0  0  0  0  0  0  0  0  0  0  0
   56.0420   31.2130   53.4470 O   0  0  0  0  0  0  0  0  0  0  0  0
   54.9730   30.2300   51.6070 N   0  0  0  0  0  0  0  0  0  0  0  0
   53.7270   30.5950   51.6960 C   0  0  0  0  0  0  0  0  0  0  0  0
   53.2390   31.7520   51.1930 N   0  0  0  0  0  0  0  0  0  0  0  0
   51.9370   31.7080   51.5400 C   0  0  0  0  0  0  0  0  0  0  0  0
   51.0240   32.7080   51.2350 O   0  0  0  0  0  0  0  0  0  0  0  0
   51.6510   30.5550   52.2340 C   0  0  0  0  0  0  0  0  0  0  0  0
   50.6721   30.2665   52.6445 H   0  0  0  0  0  0  0  0  0  0  0  0
   52.7900   29.8470   52.3170 N   0  0  0  0  0  0  0  0  0  0  0  0
   52.9850   28.5910   53.0330 C   0  0  0  0  0  0  0  0  0  0  0  0
   52.9559   28.7783   54.1165 H   0  0  0  0  0  0  0  0  0  0  0  0
   52.1855   27.8860   52.7612 H   0  0  0  0  0  0  0  0  0  0  0  0
   53.9606   28.1616   52.7612 H   0  0  0  0  0  0  0  0  0  0  0  0
   57.8130   30.1510   50.6550 N   0  0  0  0  0  0  0  0  0  0  0  0
   58.9440   30.2810   49.9100 C   0  0  0  0  0  0  0  0  0  0  0  0
   59.3700   29.1460   49.0580 C   0  0  0  0  0  0  0  0  0  0  0  0
   60.1750   28.1190   49.5850 C   0  0  0  0  0  0  0  0  0  0  0  0
   60.5055   28.1664   50.6331 H   0  0  0  0  0  0  0  0  0  0  0  0
   60.5570   27.0390   48.7840 C   0  0  0  0  0  0  0  0  0  0  0  0
   61.1920   26.2433   49.2008 H   0  0  0  0  0  0  0  0  0  0  0  0
   60.1330   26.9690   47.4540 C   0  0  0  0  0  0  0  0  0  0  0  0
   60.5150   25.8950   46.6590 O   0  0  0  0  0  0  0  0  0  0  0  0
   59.3230   27.9770   46.9250 C   0  0  0  0  0  0  0  0  0  0  0  0
   58.9887   27.9194   45.8786 H   0  0  0  0  0  0  0  0  0  0  0  0
   58.9360   29.0590   47.7220 C   0  0  0  0  0  0  0  0  0  0  0  0
   58.1600   30.0320   47.1800 F   0  0  0  0  0  0  0  0  0  0  0  0
   59.6720   31.4860   49.9590 C   0  0  0  0  0  0  0  0  0  0  0  0
   60.8100   31.6410   49.1510 O   0  0  0  0  0  0  0  0  0  0  0  0
   60.8810   32.4850   48.0070 C   0  0  0  0  0  0  0  0  0  0  0  0
   60.9692   33.5330   48.3294 H   0  0  0  0  0  0  0  0  0  0  0  0
   61.7593   32.2118   47.4038 H   0  0  0  0  0  0  0  0  0  0  0  0
   59.9694   32.3624   47.4038 H   0  0  0  0  0  0  0  0  0  0  0  0
   59.2150   32.5110   50.8050 C   0  0  0  0  0  0  0  0  0  0  0  0
   59.7769   33.4545   50.8695 H   0  0  0  0  0  0  0  0  0  0  0  0
  1  2  1  0
  2  3  1  0
  3  4  2  0
  4  5  1  0
  5  6  2  0
  5  7  1  0
  7  8  2  0
  8  9  1  0
  9 10  1  0
 10 11  1  0
 10 12  2  0
 12 13  1  0
 12 14  1  0
 14 15  1  0
 15 16  1  0
 15 17  1  0
 15 18  1  0
  4 19  1  0
 19 20  2  0
 20 21  1  0
 21 22  2  0
 22 23  1  0
 22 24  1  0
 24 25  1  0
 24 26  2  0
 26 27  1  0
 26 28  1  0
 28 29  1  0
 28 30  2  0
 30 31  1  0
 20 32  1  0
 32 33  1  0
 33 34  1  0
 34 35  1  0
 34 36  1  0
 34 37  1  0
 32 38  2  0
 38 39  1  0
 38  3  1  0
 14  8  1  0
 30 21  1  0
M  CHG  3   9  -1  11  -1  27  -1
M  END
>  <UniqueID>  (16) 
16

>  <SMILES>  (16) 
COc1cc(O)c(C(=O)/N=c2\[n-]c([O-])cn2C)nc1-c1ccc([O-])cc1F

>  <Energy>  (16) 
81.259000837967

>  <Genealogy>  (16) 
COc1cc(O)c(C(=O)N=c2[n-]c([O-])cn2C)nc1-c1ccc([O-])cc1F (protonated)
COc1cc(O)c(C(=O)/N=c2\[n-]c([O-])cn2C)nc1-c1ccc([O-])cc1F (cis-trans isomerization)
COc1cc(O)c(C(=O)/N=c2\[n-]c([O-])cn2C)nc1-c1ccc([O-])cc1F (3D coordinates assigned)
COc1cc(O)c(C(=O)/N=c2\[n-]c([O-])cn2C)nc1-c1ccc([O-])cc1F (optimized conformer: 81.259000837967 kcal/mol)

>  <smiles>  (16) 
COc1cc(O)c(C(=O)N=c2[nH]c(O)cn2C)nc1-c1ccc(O)cc1F

>  <score_type>  (16) 
oracle

>  <origin>  (16) 
adg

>  <m_score__min__energy>  (16) 
-12.619999999999999

>  <m_primary>  (16) 
energy

$$$$
16:0
     RDKit          3D

 36 37  0  0  0  0  0  0  0  0999 V2000
   53.0377   30.3450   54.6056 H   0  0  0  0  0  0  0  0  0  0  0  0
   53.4820   30.4610   53.6060 C   0  0  0  0  0  0  0  0  0  0  0  0
   54.8000   30.2350   53.3590 N   0  0  0  0  0  0  0  0  0  0  0  0
   55.1090   30.4180   52.0580 C   0  0  0  0  0  0  0  0  0  0  0  0
   56.3270   30.2850   51.6180 N   0  0  0  0  0  0  0  0  0  0  0  0
   57.5000   31.0130   52.0150 C   0  0  0  0  0  0  0  0  0  0  0  0
   58.2890   30.4820   52.8400 O   0  0  0  0  0  0  0  0  0  0  0  0
   57.8670   32.3460   51.4250 C   0  0  0  0  0  0  0  0  0  0  0  0
   56.9511   32.9339   51.2652 H   0  0  0  0  0  0  0  0  0  0  0  0
   58.5399   32.8665   52.1224 H   0  0  0  0  0  0  0  0  0  0  0  0
   58.5570   32.1770   50.1470 N   0  0  0  0  0  0  0  0  0  0  0  0
   58.4030   31.3120   49.5810 H   0  0  0  0  0  0  0  0  0  0  0  0
   59.4880   33.1550   49.6660 C   0  0  0  0  0  0  0  0  0  0  0  0
   59.6850   34.2190   50.3130 O   0  0  0  0  0  0  0  0  0  0  0  0
   60.2740   32.8930   48.4180 C   0  0  0  0  0  0  0  0  0  0  0  0
   61.1442   33.5652   48.3876 H   0  0  0  0  0  0  0  0  0  0  0  0
   60.6115   31.8461   48.4166 H   0  0  0  0  0  0  0  0  0  0  0  0
   59.4120   33.1370   47.2060 C   0  0  0  0  0  0  0  0  0  0  0  0
   59.5030   34.3580   46.5160 C   0  0  0  0  0  0  0  0  0  0  0  0
   60.2171   35.1241   46.8525 H   0  0  0  0  0  0  0  0  0  0  0  0
   58.6920   34.6050   45.4050 C   0  0  0  0  0  0  0  0  0  0  0  0
   58.7734   35.5610   44.8670 H   0  0  0  0  0  0  0  0  0  0  0  0
   57.7780   33.6390   44.9770 C   0  0  0  0  0  0  0  0  0  0  0  0
   57.1461   33.8317   44.0974 H   0  0  0  0  0  0  0  0  0  0  0  0
   57.6660   32.4290   45.6650 C   0  0  0  0  0  0  0  0  0  0  0  0
   56.9404   31.6731   45.3302 H   0  0  0  0  0  0  0  0  0  0  0  0
   58.4740   32.1750   46.7790 C   0  0  0  0  0  0  0  0  0  0  0  0
   58.3390   30.9670   47.4550 O   0  0  0  0  0  0  0  0  0  0  0  0
   53.7590   30.8920   51.1590 S   0  0  0  0  0  0  0  0  0  0  0  0
   52.7400   30.8500   52.4970 C   0  0  0  0  0  0  0  0  0  0  0  0
   51.2690   31.1130   52.4730 C   0  0  0  0  0  0  0  0  0  0  0  0
   50.9055   31.2432   53.5030 H   0  0  0  0  0  0  0  0  0  0  0  0
   50.7578   30.2607   52.0015 H   0  0  0  0  0  0  0  0  0  0  0  0
   50.9830   32.3520   51.6870 C   0  0  0  0  0  0  0  0  0  0  0  0
   50.6500   33.4120   52.2770 O   0  0  0  0  0  0  0  0  0  0  0  0
   51.0330   32.3220   50.2990 O   0  0  0  0  0  0  0  0  0  0  0  0
  1  2  1  0
  2  3  1  0
  3  4  1  0
  4  5  2  0
  5  6  1  0
  6  7  2  0
  6  8  1  0
  8  9  1  0
  8 10  1  0
  8 11  1  0
 11 12  1  0
 11 13  1  0
 13 14  2  0
 13 15  1  0
 15 16  1  0
 15 17  1  0
 15 18  1  0
 18 19  2  0
 19 20  1  0
 19 21  1  0
 21 22  1  0
 21 23  2  0
 23 24  1  0
 23 25  1  0
 25 26  1  0
 25 27  2  0
 27 28  1  0
  4 29  1  0
 29 30  1  0
 30 31  1  0
 31 32  1  0
 31 33  1  0
 31 34  1  0
 34 35  2  0
 34 36  1  0
 30  2  2  0
 27 18  1  0
M  CHG  3   3  -1  28  -1  36  -1
M  END
>  <UniqueID>  (17) 
17

>  <SMILES>  (17) 
O=C([O-])Cc1c[n-]/c(=N/C(=O)CNC(=O)Cc2ccccc2[O-])s1

>  <Energy>  (17) 
62.86556155367707

>  <Genealogy>  (17) 
O=C([O-])Cc1c[n-]c(=NC(=O)CNC(=O)Cc2ccccc2[O-])s1 (protonated)
O=C([O-])Cc1c[n-]/c(=N/C(=O)CNC(=O)Cc2ccccc2[O-])s1 (cis-trans isomerization)
O=C([O-])Cc1c[n-]/c(=N/C(=O)CNC(=O)Cc2ccccc2[O-])s1 (3D coordinates assigned)
O=C([O-])Cc1c[n-]/c(=N/C(=O)CNC(=O)Cc2ccccc2[O-])s1 (optimized conformer: 62.86556155367707 kcal/mol)

>  <smiles>  (17) 
O=C(O)Cc1c[nH]c(=NC(=O)CNC(=O)Cc2ccccc2O)s1

>  <score_type>  (17) 
oracle

>  <origin>  (17) 
adg

>  <m_score__min__energy>  (17) 
-14.789999999999999

>  <m_primary>  (17) 
energy

$$$$
17:0
     RDKit          3D

 59 63  0  0  0  0  0  0  0  0999 V2000
   57.3230   25.6120   47.5520 C   0  0  0  0  0  0  0  0  0  0  0  0
   57.8630   26.1290   46.4360 C   0  0  0  0  0  0  0  0  0  0  0  0
   57.5040   25.8330   45.1110 C   0  0  0  0  0  0  0  0  0  0  0  0
   56.7490   24.8400   44.6000 C   0  0  0  0  0  0  0  0  0  0  0  0
   55.3750   24.5120   45.0140 C   0  0  0  0  0  0  0  0  0  0  0  0
   54.7310   23.3710   44.7060 N   0  0  0  0  0  0  0  0  0  0  0  0
   53.4800   23.5850   45.1680 C   0  0  0  0  0  0  0  0  0  0  0  0
   52.5670   22.7240   45.0740 O   0  0  0  0  0  0  0  0  0  0  0  0
   53.2790   24.7990   45.7220 N   0  0  0  0  0  0  0  0  0  0  0  0
   54.4860   25.3770   45.6040 C   0  0  0  0  0  0  0  0  0  0  0  0
   54.7690   26.6710   46.0220 O   0  0  0  0  0  0  0  0  0  0  0  0
   58.1150   26.7920   44.3190 C   0  0  0  0  0  0  0  0  0  0  0  0
   58.8790   27.5740   45.1590 C   0  0  0  0  0  0  0  0  0  0  0  0
   59.7320   28.7200   44.7040 C   0  0  0  0  0  0  0  0  0  0  0  0
   58.7280   27.1770   46.4430 N   0  0  0  0  0  0  0  0  0  0  0  0
   59.3550   27.7800   47.5920 C   0  0  0  0  0  0  0  0  0  0  0  0
   60.1920   27.0180   48.4160 C   0  0  0  0  0  0  0  0  0  0  0  0
   60.8170   27.6060   49.5140 C   0  0  0  0  0  0  0  0  0  0  0  0
   60.6210   28.9600   49.7970 C   0  0  0  0  0  0  0  0  0  0  0  0
   59.7820   29.7490   48.9830 C   0  0  0  0  0  0  0  0  0  0  0  0
   59.5690   31.2080   49.2330 C   0  0  0  0  0  0  0  0  0  0  0  0
   58.5040   31.5680   49.8100 O   0  0  0  0  0  0  0  0  0  0  0  0
   60.5140   32.2210   48.7800 N   0  0  0  0  0  0  0  0  0  0  0  0
   59.9280   33.5910   48.7810 C   0  0  0  0  0  0  0  0  0  0  0  0
   59.3980   34.0530   47.4060 C   0  0  0  0  0  0  0  0  0  0  0  0
   59.0070   32.9060   46.5780 N   0  0  0  0  0  0  0  0  0  0  0  0
   57.6820   32.8310   46.0030 C   0  0  0  0  0  0  0  0  0  0  0  0
   56.7450   33.5110   46.5050 O   0  0  0  0  0  0  0  0  0  0  0  0
   57.3760   31.9700   44.8410 C   0  0  0  0  0  0  0  0  0  0  0  0
   57.7680   32.2130   43.5370 C   0  0  0  0  0  0  0  0  0  0  0  0
   57.2760   31.1610   42.7950 C   0  0  0  0  0  0  0  0  0  0  0  0
   56.6210   30.3390   43.6870 C   0  0  0  0  0  0  0  0  0  0  0  0
   56.6990   30.8450   44.8950 O   0  0  0  0  0  0  0  0  0  0  0  0
   59.9900   31.8350   46.3680 C   0  0  0  0  0  0  0  0  0  0  0  0
   61.0750   31.8600   47.4580 C   0  0  0  0  0  0  0  0  0  0  0  0
   59.1470   29.1370   47.8820 C   0  0  0  0  0  0  0  0  0  0  0  0
   57.6935   25.9263   48.5389 H   0  0  0  0  0  0  0  0  0  0  0  0
   56.5103   24.8743   47.4790 H   0  0  0  0  0  0  0  0  0  0  0  0
   57.1972   24.2231   43.8072 H   0  0  0  0  0  0  0  0  0  0  0  0
   58.0106   26.9071   43.2300 H   0  0  0  0  0  0  0  0  0  0  0  0
   60.1285   29.2527   45.5809 H   0  0  0  0  0  0  0  0  0  0  0  0
   60.5671   28.3378   44.0986 H   0  0  0  0  0  0  0  0  0  0  0  0
   59.1262   29.4103   44.0986 H   0  0  0  0  0  0  0  0  0  0  0  0
   60.3566   25.9528   48.1962 H   0  0  0  0  0  0  0  0  0  0  0  0
   61.4683   27.0006   50.1615 H   0  0  0  0  0  0  0  0  0  0  0  0
   61.1255   29.4147   50.6623 H   0  0  0  0  0  0  0  0  0  0  0  0
   61.3050   32.2530   49.4640 H   0  0  0  0  0  0  0  0  0  0  0  0
   59.0927   33.6085   49.4965 H   0  0  0  0  0  0  0  0  0  0  0  0
   60.7387   34.2817   49.0560 H   0  0  0  0  0  0  0  0  0  0  0  0
   58.5226   34.7015   47.5578 H   0  0  0  0  0  0  0  0  0  0  0  0
   60.1996   34.6004   46.8885 H   0  0  0  0  0  0  0  0  0  0  0  0
   58.3519   33.0692   43.1683 H   0  0  0  0  0  0  0  0  0  0  0  0
   57.3840   31.0082   41.7110 H   0  0  0  0  0  0  0  0  0  0  0  0
   56.1101   29.4006   43.4255 H   0  0  0  0  0  0  0  0  0  0  0  0
   59.4748   30.8635   46.3958 H   0  0  0  0  0  0  0  0  0  0  0  0
   60.4716   31.9885   45.3910 H   0  0  0  0  0  0  0  0  0  0  0  0
   61.5352   30.8632   47.5260 H   0  0  0  0  0  0  0  0  0  0  0  0
   61.8208   32.6201   47.1825 H   0  0  0  0  0  0  0  0  0  0  0  0
   58.4793   29.7321   47.2417 H   0  0  0  0  0  0  0  0  0  0  0  0
  1  2  2  0
  2  3  1  0
  3  4  2  3
  4  5  1  0
  5  6  1  0
  6  7  1  0
  7  8  2  0
  7  9  1  0
  9 10  1  0
 10 11  1  0
  3 12  1  0
 12 13  2  0
 13 14  1  0
 13 15  1  0
 15 16  1  0
 16 17  2  0
 17 18  1  0
 18 19  2  0
 19 20  1  0
 20 21  1  0
 21 22  2  0
 21 23  1  0
 23 24  1  0
 24 25  1  0
 25 26  1  0
 26 27  1  0
 27 28  2  0
 27 29  1  0
 29 30  2  0
 30 31  1  0
 31 32  2  0
 32 33  1  0
 26 34  1  0
 34 35  1  0
 20 36  2  0
 15  2  1  0
 36 16  1  0
 10  5  2  0
 35 23  1  0
 33 29  1  0
  1 37  1  0
  1 38  1  0
  4 39  1  0
 12 40  1  0
 14 41  1  0
 14 42  1  0
 14 43  1  0
 17 44  1  0
 18 45  1  0
 19 46  1  0
 23 47  1  0
 24 48  1  0
 24 49  1  0
 25 50  1  0
 25 51  1  0
 30 52  1  0
 31 53  1  0
 32 54  1  0
 34 55  1  0
 34 56  1  0
 35 57  1  0
 35 58  1  0
 36 59  1  0
M  CHG  4   6  -1   9  -1  11  -1  23   1
M  END
>  <UniqueID>  (18) 
18

>  <SMILES>  (18) 
C=c1c(=Cc2[n-]c(=O)[n-]c2[O-])cc(C)n1-c1cccc(C(=O)[NH+]2CCN(C(=O)c3ccco3)CC2)c1

>  <Energy>  (18) 
179.54456638502154

>  <Genealogy>  (18) 
C=c1c(=Cc2[n-]c(=O)[n-]c2[O-])cc(C)n1-c1cccc(C(=O)[NH+]2CCN(C(=O)c3ccco3)CC2)c1 (protonated)
C=c1c(=Cc2[n-]c(=O)[n-]c2[O-])cc(C)n1-c1cccc(C(=O)[NH+]2CCN(C(=O)c3ccco3)CC2)c1 (3D coordinates assigned)
C=c1c(=Cc2[n-]c(=O)[n-]c2[O-])cc(C)n1-c1cccc(C(=O)[NH+]2CCN(C(=O)c3ccco3)CC2)c1 (nonaromatic ring conformer: 179.54456638502154 kcal/mol)

>  <smiles>  (18) 
C=c1c(=Cc2[nH]c(=O)[nH]c2O)cc(C)n1-c1cccc(C(=O)N2CCN(C(=O)c3ccco3)CC2)c1

>  <score_type>  (18) 
oracle

>  <origin>  (18) 
adg

>  <m_score__min__energy>  (18) 
-17.48

>  <m_primary>  (18) 
energy

$$$$
18:0
     RDKit          3D

 35 37  0  0  0  0  0  0  0  0999 V2000
   62.2080   33.8420   46.7240 C   0  0  0  0  0  0  0  0  0  0  0  0
   62.3020   32.5990   47.1980 C   0  0  0  0  0  0  0  0  0  0  0  0
   61.1610   31.6580   47.3050 C   0  0  0  0  0  0  0  0  0  0  0  0
   61.2270   30.4610   48.0470 C   0  0  0  0  0  0  0  0  0  0  0  0
   60.1210   29.6110   48.1170 C   0  0  0  0  0  0  0  0  0  0  0  0
   58.9440   29.9310   47.4380 C   0  0  0  0  0  0  0  0  0  0  0  0
   58.8710   31.0970   46.6610 C   0  0  0  0  0  0  0  0  0  0  0  0
   57.6630   31.4540   45.9740 N   0  0  0  0  0  0  0  0  0  0  0  0
   57.2280   30.8210   44.7670 C   0  0  0  0  0  0  0  0  0  0  0  0
   56.5020   29.6850   44.4370 C   0  0  0  0  0  0  0  0  0  0  0  0
   55.8630   28.6460   45.1890 N   0  0  0  0  0  0  0  0  0  0  0  0
   56.5320   27.4460   45.6020 C   0  0  0  0  0  0  0  0  0  0  0  0
   57.9300   27.3910   45.6990 C   0  0  0  0  0  0  0  0  0  0  0  0
   58.5570   26.2210   46.1310 C   0  0  0  0  0  0  0  0  0  0  0  0
   57.7760   25.1160   46.4800 C   0  0  0  0  0  0  0  0  0  0  0  0
   58.3230   24.0520   46.8710 O   0  0  0  0  0  0  0  0  0  0  0  0
   56.4220   25.1900   46.4020 N   0  0  0  0  0  0  0  0  0  0  0  0
   55.7860   26.3180   45.9820 C   0  0  0  0  0  0  0  0  0  0  0  0
   54.3980   26.3390   45.9250 O   0  0  0  0  0  0  0  0  0  0  0  0
   56.6470   29.9910   43.0950 C   0  0  0  0  0  0  0  0  0  0  0  0
   56.2510   29.4840   42.0130 O   0  0  0  0  0  0  0  0  0  0  0  0
   57.4210   31.0830   43.4250 C   0  0  0  0  0  0  0  0  0  0  0  0
   58.0340   31.9680   42.7720 O   0  0  0  0  0  0  0  0  0  0  0  0
   59.9750   31.9620   46.6140 C   0  0  0  0  0  0  0  0  0  0  0  0
   63.1018   34.4814   46.6759 H   0  0  0  0  0  0  0  0  0  0  0  0
   61.2367   34.2279   46.3811 H   0  0  0  0  0  0  0  0  0  0  0  0
   63.2902   32.2491   47.5313 H   0  0  0  0  0  0  0  0  0  0  0  0
   62.1552   30.1949   48.5740 H   0  0  0  0  0  0  0  0  0  0  0  0
   60.1776   28.6859   48.7094 H   0  0  0  0  0  0  0  0  0  0  0  0
   58.0705   29.2665   47.5124 H   0  0  0  0  0  0  0  0  0  0  0  0
   57.0730   32.2240   46.3590 H   0  0  0  0  0  0  0  0  0  0  0  0
   54.8460   28.7420   45.4010 H   0  0  0  0  0  0  0  0  0  0  0  0
   58.5337   28.2716   45.4341 H   0  0  0  0  0  0  0  0  0  0  0  0
   59.6539   26.1694   46.1960 H   0  0  0  0  0  0  0  0  0  0  0  0
   59.9115   32.8909   46.0283 H   0  0  0  0  0  0  0  0  0  0  0  0
  1  2  2  0
  2  3  1  0
  3  4  2  0
  4  5  1  0
  5  6  2  0
  6  7  1  0
  7  8  1  0
  8  9  1  0
  9 10  2  0
 10 11  1  0
 11 12  1  0
 12 13  1  0
 13 14  2  0
 14 15  1  0
 15 16  2  0
 15 17  1  0
 17 18  1  0
 18 19  1  0
 10 20  1  0
 20 21  2  0
 20 22  1  0
 22 23  2  0
  7 24  2  0
 24  3  1  0
 22  9  1  0
 18 12  2  0
  1 25  1  0
  1 26  1  0
  2 27  1  0
  4 28  1  0
  5 29  1  0
  6 30  1  0
  8 31  1  0
 11 32  1  0
 13 33  1  0
 14 34  1  0
 24 35  1  0
M  CHG  2  17  -1  19  -1
M  END
>  <UniqueID>  (19) 
19

>  <SMILES>  (19) 
C=Cc1cccc(Nc2c(Nc3ccc(=O)[n-]c3[O-])c(=O)c2=O)c1

>  <Energy>  (19) 
37.89409392919116

>  <Genealogy>  (19) 
C=Cc1cccc(Nc2c(Nc3ccc(=O)[n-]c3[O-])c(=O)c2=O)c1 (protonated)
C=Cc1cccc(Nc2c(Nc3ccc(=O)[n-]c3[O-])c(=O)c2=O)c1 (3D coordinates assigned)
C=Cc1cccc(Nc2c(Nc3ccc(=O)[n-]c3[O-])c(=O)c2=O)c1 (optimized conformer: 37.89409392919116 kcal/mol)

>  <smiles>  (19) 
C=Cc1cccc(Nc2c(Nc3ccc(=O)[nH]c3O)c(=O)c2=O)c1

>  <score_type>  (19) 
oracle

>  <origin>  (19) 
adg

>  <m_score__min__energy>  (19) 
-14.16

>  <m_primary>  (19) 
energy

$$$$
19:0
     RDKit          3D

 50 52  0  0  0  0  0  0  0  0999 V2000
   56.4870   29.8810   43.2360 C   0  0  0  0  0  0  0  0  0  0  0  0
   56.3170   30.7200   44.3730 O   0  0  0  0  0  0  0  0  0  0  0  0
   57.3050   31.5780   44.8800 C   0  0  0  0  0  0  0  0  0  0  0  0
   57.7770   31.4830   46.2050 C   0  0  0  0  0  0  0  0  0  0  0  0
   58.7610   32.3670   46.6770 C   0  0  0  0  0  0  0  0  0  0  0  0
   59.2290   32.2760   48.1020 C   0  0  0  0  0  0  0  0  0  0  0  0
   60.6570   31.9970   48.1190 N   0  0  0  0  0  0  0  0  0  0  0  0
   61.2770   31.0070   47.2950 C   0  0  0  0  0  0  0  0  0  0  0  0
   62.5050   31.0860   47.0170 O   0  0  0  0  0  0  0  0  0  0  0  0
   60.4540   29.8400   46.8240 C   0  0  0  0  0  0  0  0  0  0  0  0
   60.6050   28.6440   47.7790 C   0  0  0  0  0  0  0  0  0  0  0  0
   60.3710   27.2780   47.0990 C   0  0  0  0  0  0  0  0  0  0  0  0
   59.4720   27.3300   45.9280 N   0  0  0  0  0  0  0  0  0  0  0  0
   57.7720   27.2360   46.3440 S   0  0  0  0  0  0  0  0  0  0  0  0
   57.0510   28.4220   45.7660 O   0  0  0  0  0  0  0  0  0  0  0  0
   57.6330   27.3080   47.8390 O   0  0  0  0  0  0  0  0  0  0  0  0
   57.0100   25.7410   45.7800 C   0  0  0  0  0  0  0  0  0  0  0  0
   57.8190   24.6430   45.4400 C   0  0  0  0  0  0  0  0  0  0  0  0
   57.2470   23.4690   44.9410 C   0  0  0  0  0  0  0  0  0  0  0  0
   58.3630   22.0000   44.4510 Br  0  0  0  0  0  0  0  0  0  0  0  0
   55.8600   23.3740   44.7940 C   0  0  0  0  0  0  0  0  0  0  0  0
   55.0450   24.4490   45.1560 C   0  0  0  0  0  0  0  0  0  0  0  0
   55.6110   25.6290   45.6540 C   0  0  0  0  0  0  0  0  0  0  0  0
   54.7750   26.6820   46.0060 O   0  0  0  0  0  0  0  0  0  0  0  0
   59.7800   28.3650   44.9110 C   0  0  0  0  0  0  0  0  0  0  0  0
   60.7820   29.4300   45.3870 C   0  0  0  0  0  0  0  0  0  0  0  0
   59.2730   33.3520   45.8190 C   0  0  0  0  0  0  0  0  0  0  0  0
   58.8130   33.4460   44.5040 C   0  0  0  0  0  0  0  0  0  0  0  0
   57.8340   32.5640   44.0360 C   0  0  0  0  0  0  0  0  0  0  0  0
   57.3840   32.6720   42.7250 O   0  0  0  0  0  0  0  0  0  0  0  0
   56.6953   28.8528   43.5669 H   0  0  0  0  0  0  0  0  0  0  0  0
   55.5683   29.8925   42.6312 H   0  0  0  0  0  0  0  0  0  0  0  0
   57.3288   30.2492   42.6312 H   0  0  0  0  0  0  0  0  0  0  0  0
   57.3713   30.7103   46.8746 H   0  0  0  0  0  0  0  0  0  0  0  0
   59.0341   33.2294   48.6150 H   0  0  0  0  0  0  0  0  0  0  0  0
   58.6883   31.4690   48.6181 H   0  0  0  0  0  0  0  0  0  0  0  0
   59.4044   30.1690   46.8302 H   0  0  0  0  0  0  0  0  0  0  0  0
   61.6238   28.6563   48.1936 H   0  0  0  0  0  0  0  0  0  0  0  0
   59.8357   28.7532   48.5576 H   0  0  0  0  0  0  0  0  0  0  0  0
   61.3443   26.8856   46.7694 H   0  0  0  0  0  0  0  0  0  0  0  0
   59.8818   26.6338   47.8444 H   0  0  0  0  0  0  0  0  0  0  0  0
   58.9097   24.7079   45.5674 H   0  0  0  0  0  0  0  0  0  0  0  0
   55.4108   22.4532   44.3935 H   0  0  0  0  0  0  0  0  0  0  0  0
   53.9532   24.3683   45.0494 H   0  0  0  0  0  0  0  0  0  0  0  0
   60.2003   27.8657   44.0255 H   0  0  0  0  0  0  0  0  0  0  0  0
   58.8374   28.8889   44.6940 H   0  0  0  0  0  0  0  0  0  0  0  0
   61.8008   29.0170   45.3480 H   0  0  0  0  0  0  0  0  0  0  0  0
   60.7157   30.3114   44.7323 H   0  0  0  0  0  0  0  0  0  0  0  0
   60.0391   34.0523   46.1834 H   0  0  0  0  0  0  0  0  0  0  0  0
   59.2221   34.2165   43.8339 H   0  0  0  0  0  0  0  0  0  0  0  0
  1  2  1  0
  2  3  1  0
  3  4  2  0
  4  5  1  0
  5  6  1  0
  6  7  1  0
  7  8  1  0
  8  9  2  0
  8 10  1  0
 10 11  1  0
 11 12  1  0
 12 13  1  0
 13 14  1  0
 14 15  2  0
 14 16  2  0
 14 17  1  0
 17 18  2  0
 18 19  1  0
 19 20  1  0
 19 21  2  0
 21 22  1  0
 22 23  2  0
 23 24  1  0
 13 25  1  0
 25 26  1  0
  5 27  2  0
 27 28  1  0
 28 29  2  0
 29 30  1  0
 29  3  1  0
 26 10  1  0
 23 17  1  0
  1 31  1  0
  1 32  1  0
  1 33  1  0
  4 34  1  0
  6 35  1  0
  6 36  1  0
 10 37  1  0
 11 38  1  0
 11 39  1  0
 12 40  1  0
 12 41  1  0
 18 42  1  0
 21 43  1  0
 22 44  1  0
 25 45  1  0
 25 46  1  0
 26 47  1  0
 26 48  1  0
 27 49  1  0
 28 50  1  0
M  CHG  3   7  -1  24  -1  30  -1
M  END
>  <UniqueID>  (20) 
20

>  <SMILES>  (20) 
COc1cc(C[N-]C(=O)C2CCN(S(=O)(=O)c3cc(Br)ccc3[O-])CC2)ccc1[O-]

>  <Energy>  (20) 
55.82011504502392

>  <Genealogy>  (20) 
COc1cc(C[N-]C(=O)C2CCN(S(=O)(=O)c3cc(Br)ccc3[O-])CC2)ccc1[O-] (protonated)
COc1cc(C[N-]C(=O)C2CCN(S(=O)(=O)c3cc(Br)ccc3[O-])CC2)ccc1[O-] (3D coordinates assigned)
COc1cc(C[N-]C(=O)C2CCN(S(=O)(=O)c3cc(Br)ccc3[O-])CC2)ccc1[O-] (nonaromatic ring conformer: 55.82011504502392 kcal/mol)

>  <smiles>  (20) 
COc1cc(CNC(=O)C2CCN(S(=O)(=O)c3cc(Br)ccc3O)CC2)ccc1O

>  <score_type>  (20) 
oracle

>  <origin>  (20) 
adg

>  <m_score__min__energy>  (20) 
-15.85

>  <m_primary>  (20) 
energy

$$$$
20:0
     RDKit          3D

 63 66  0  0  0  0  0  0  0  0999 V2000
   50.1015   24.4069   42.7085 H   0  0  0  0  0  0  0  0  0  0  0  0
   51.0470   24.1220   43.1930 C   0  0  0  0  0  0  0  0  0  0  0  0
   51.8382   23.6298   42.6083 H   0  0  0  0  0  0  0  0  0  0  0  0
   51.2340   24.3730   44.4880 C   0  0  0  0  0  0  0  0  0  0  0  0
   50.4299   24.8660   45.0541 H   0  0  0  0  0  0  0  0  0  0  0  0
   52.4860   24.0120   45.1930 C   0  0  0  0  0  0  0  0  0  0  0  0
   53.2510   24.9230   45.6110 O   0  0  0  0  0  0  0  0  0  0  0  0
   52.8120   22.6480   45.5010 N   0  0  0  0  0  0  0  0  0  0  0  0
   53.9890   22.1690   45.7880 C   0  0  0  0  0  0  0  0  0  0  0  0
   54.1760   20.8390   46.0170 N   0  0  0  0  0  0  0  0  0  0  0  0
   55.3970   20.3220   46.3180 C   0  0  0  0  0  0  0  0  0  0  0  0
   55.5084   19.2422   46.4960 H   0  0  0  0  0  0  0  0  0  0  0  0
   56.5070   21.1600   46.4010 C   0  0  0  0  0  0  0  0  0  0  0  0
   57.4932   20.7500   46.6642 H   0  0  0  0  0  0  0  0  0  0  0  0
   56.3560   22.5310   46.1460 C   0  0  0  0  0  0  0  0  0  0  0  0
   57.4560   23.4000   46.1770 O   0  0  0  0  0  0  0  0  0  0  0  0
   57.4070   24.7450   45.7860 C   0  0  0  0  0  0  0  0  0  0  0  0
   57.0330   25.7140   46.7210 C   0  0  0  0  0  0  0  0  0  0  0  0
   56.7459   25.4107   47.7386 H   0  0  0  0  0  0  0  0  0  0  0  0
   57.0220   27.0680   46.3690 C   0  0  0  0  0  0  0  0  0  0  0  0
   56.7194   27.8218   47.1108 H   0  0  0  0  0  0  0  0  0  0  0  0
   57.3930   27.4720   45.0800 C   0  0  0  0  0  0  0  0  0  0  0  0
   57.4590   28.8750   44.7830 N   0  0  0  0  0  0  0  0  0  0  0  0
   56.3590   29.7870   44.8490 C   0  0  0  0  0  0  0  0  0  0  0  0
   55.1820   29.3360   44.8560 O   0  0  0  0  0  0  0  0  0  0  0  0
   56.5890   31.2000   44.8400 N   0  0  0  0  0  0  0  0  0  0  0  0
   57.7610   31.8390   45.3650 C   0  0  0  0  0  0  0  0  0  0  0  0
   58.0960   33.1550   45.0110 C   0  0  0  0  0  0  0  0  0  0  0  0
   57.4888   33.6944   44.2692 H   0  0  0  0  0  0  0  0  0  0  0  0
   59.1990   33.7830   45.5980 C   0  0  0  0  0  0  0  0  0  0  0  0
   59.4534   34.8148   45.3139 H   0  0  0  0  0  0  0  0  0  0  0  0
   59.9860   33.1080   46.5480 C   0  0  0  0  0  0  0  0  0  0  0  0
   61.1260   33.7580   47.1520 N   0  0  0  0  0  0  0  0  0  0  0  0
   62.4040   33.8430   46.4330 C   0  0  0  0  0  0  0  0  0  0  0  0
   62.6056   32.8802   45.9406 H   0  0  0  0  0  0  0  0  0  0  0  0
   62.3359   34.6478   45.6862 H   0  0  0  0  0  0  0  0  0  0  0  0
   63.5550   34.1650   47.4020 C   0  0  0  0  0  0  0  0  0  0  0  0
   64.5061   33.8589   46.9419 H   0  0  0  0  0  0  0  0  0  0  0  0
   63.5471   35.2469   47.6007 H   0  0  0  0  0  0  0  0  0  0  0  0
   63.3930   33.4550   48.6890 N   0  0  0  0  0  0  0  0  0  0  0  0
   63.5420   31.9900   48.5330 C   0  0  0  0  0  0  0  0  0  0  0  0
   63.6469   31.7480   47.4651 H   0  0  0  0  0  0  0  0  0  0  0  0
   64.4353   31.6613   49.0844 H   0  0  0  0  0  0  0  0  0  0  0  0
   62.3190   31.2680   49.0950 C   0  0  0  0  0  0  0  0  0  0  0  0
   62.3540   31.2887   50.1942 H   0  0  0  0  0  0  0  0  0  0  0  0
   61.4045   31.7711   48.7478 H   0  0  0  0  0  0  0  0  0  0  0  0
   62.3177   30.2242   48.7478 H   0  0  0  0  0  0  0  0  0  0  0  0
   62.1370   33.8270   49.3990 C   0  0  0  0  0  0  0  0  0  0  0  0
   61.7425   32.9297   49.8983 H   0  0  0  0  0  0  0  0  0  0  0  0
   62.3961   34.6258   50.1095 H   0  0  0  0  0  0  0  0  0  0  0  0
   61.0410   34.3890   48.4740 C   0  0  0  0  0  0  0  0  0  0  0  0
   60.0535   34.1832   48.9128 H   0  0  0  0  0  0  0  0  0  0  0  0
   61.1828   35.4744   48.3652 H   0  0  0  0  0  0  0  0  0  0  0  0
   59.6540   31.7820   46.8840 C   0  0  0  0  0  0  0  0  0  0  0  0
   60.2760   31.2291   47.6033 H   0  0  0  0  0  0  0  0  0  0  0  0
   58.5390   31.1620   46.3100 C   0  0  0  0  0  0  0  0  0  0  0  0
   58.2725   30.1359   46.6036 H   0  0  0  0  0  0  0  0  0  0  0  0
   57.7850   26.4980   44.1440 C   0  0  0  0  0  0  0  0  0  0  0  0
   58.0952   26.8028   43.1336 H   0  0  0  0  0  0  0  0  0  0  0  0
   57.7820   25.1460   44.4920 C   0  0  0  0  0  0  0  0  0  0  0  0
   58.0750   24.3897   43.7489 H   0  0  0  0  0  0  0  0  0  0  0  0
   55.0910   23.0340   45.8230 C   0  0  0  0  0  0  0  0  0  0  0  0
   54.9621   24.1029   45.5977 H   0  0  0  0  0  0  0  0  0  0  0  0
  1  2  1  0
  2  3  1  0
  2  4  2  0
  4  5  1  0
  4  6  1  0
  6  7  2  0
  6  8  1  0
  8  9  2  0
  9 10  1  0
 10 11  1  0
 11 12  1  0
 11 13  2  0
 13 14  1  0
 13 15  1  0
 15 16  1  0
 16 17  1  0
 17 18  2  0
 18 19  1  0
 18 20  1  0
 20 21  1  0
 20 22  2  0
 22 23  1  0
 23 24  1  0
 24 25  2  0
 24 26  1  0
 26 27  1  0
 27 28  2  0
 28 29  1  0
 28 30  1  0
 30 31  1  0
 30 32  2  0
 32 33  1  0
 33 34  1  0
 34 35  1  0
 34 36  1  0
 34 37  1  0
 37 38  1  0
 37 39  1  0
 37 40  1  0
 40 41  1  0
 41 42  1  0
 41 43  1  0
 41 44  1  0
 44 45  1  0
 44 46  1  0
 44 47  1  0
 40 48  1  0
 48 49  1  0
 48 50  1  0
 48 51  1  0
 51 52  1  0
 51 53  1  0
 32 54  1  0
 54 55  1  0
 54 56  2  0
 56 57  1  0
 22 58  1  0
 58 59  1  0
 58 60  2  0
 60 61  1  0
 15 62  2  0
 62 63  1  0
 62  9  1  0
 60 17  1  0
 56 27  1  0
 51 33  1  0
M  CHG  3  10  -1  23  -1  26  -1
M  END
>  <UniqueID>  (21) 
21

>  <SMILES>  (21) 
C=CC(=O)/N=c1/cc(Oc2ccc([N-]C(=O)[N-]c3ccc(N4CCN(CC)CC4)cc3)cc2)cc[n-]1

>  <Energy>  (21) 
96.37564837391763

>  <Genealogy>  (21) 
C=CC(=O)N=c1cc(Oc2ccc([N-]C(=O)[N-]c3ccc(N4CCN(CC)CC4)cc3)cc2)cc[n-]1 (protonated)
C=CC(=O)/N=c1/cc(Oc2ccc([N-]C(=O)[N-]c3ccc(N4CCN(CC)CC4)cc3)cc2)cc[n-]1 (cis-trans isomerization)
C=CC(=O)/N=c1/cc(Oc2ccc([N-]C(=O)[N-]c3ccc(N4CCN(CC)CC4)cc3)cc2)cc[n-]1 (3D coordinates assigned)
C=CC(=O)/N=c1/cc(Oc2ccc([N-]C(=O)[N-]c3ccc(N4CCN(CC)CC4)cc3)cc2)cc[n-]1 (nonaromatic ring conformer: 96.37564837391763 kcal/mol)

>  <smiles>  (21) 
C=CC(=O)N=c1cc(Oc2ccc(NC(=O)Nc3ccc(N4CCN(CC)CC4)cc3)cc2)cc[nH]1

>  <score_type>  (21) 
oracle

>  <origin>  (21) 
adg

>  <m_score__min__energy>  (21) 
-13.19

>  <m_primary>  (21) 
energy

$$$$
21:0
     RDKit          3D

 58 62  0  0  0  0  0  0  0  0999 V2000
   56.2690   28.2140   43.0230 H   0  0  0  0  0  0  0  0  0  0  0  0
   56.7190   29.0720   42.7290 O   0  0  0  0  0  0  0  0  0  0  0  0
   57.0990   30.0300   43.6650 C   0  0  0  0  0  0  0  0  0  0  0  0
   56.4500   31.2100   43.8170 N   0  0  0  0  0  0  0  0  0  0  0  0
   57.0840   31.8010   44.8480 C   0  0  0  0  0  0  0  0  0  0  0  0
   56.7850   33.0420   45.4050 C   0  0  0  0  0  0  0  0  0  0  0  0
   55.9664   33.6589   45.0058 H   0  0  0  0  0  0  0  0  0  0  0  0
   57.5600   33.4840   46.4930 C   0  0  0  0  0  0  0  0  0  0  0  0
   57.3480   34.4608   46.9523 H   0  0  0  0  0  0  0  0  0  0  0  0
   58.6110   32.6820   47.0020 C   0  0  0  0  0  0  0  0  0  0  0  0
   59.5870   33.2520   48.3580 S   0  0  0  0  0  0  0  0  0  0  0  0
   59.2480   32.4450   49.5800 O   0  0  0  0  0  0  0  0  0  0  0  0
   59.2550   34.6910   48.6420 O   0  0  0  0  0  0  0  0  0  0  0  0
   61.2950   33.1060   48.0250 N   0  0  0  0  0  0  0  0  0  0  0  0
   61.6160   31.7520   47.5610 C   0  0  0  0  0  0  0  0  0  0  0  0
   61.1909   31.0161   48.2594 H   0  0  0  0  0  0  0  0  0  0  0  0
   61.1892   31.6006   46.5585 H   0  0  0  0  0  0  0  0  0  0  0  0
   63.1460   31.5720   47.4960 C   0  0  0  0  0  0  0  0  0  0  0  0
   63.4917   31.1711   48.4602 H   0  0  0  0  0  0  0  0  0  0  0  0
   63.3584   30.8867   46.6622 H   0  0  0  0  0  0  0  0  0  0  0  0
   63.8740   32.8350   47.2230 N   0  0  0  0  0  0  0  0  0  0  0  0
   64.3760   33.4680   48.4560 C   0  0  0  0  0  0  0  0  0  0  0  0
   63.9618   32.9458   49.3311 H   0  0  0  0  0  0  0  0  0  0  0  0
   65.4741   33.4072   48.4785 H   0  0  0  0  0  0  0  0  0  0  0  0
   64.0667   34.5234   48.4785 H   0  0  0  0  0  0  0  0  0  0  0  0
   63.0860   33.7750   46.4020 C   0  0  0  0  0  0  0  0  0  0  0  0
   63.6600   34.7059   46.2838 H   0  0  0  0  0  0  0  0  0  0  0  0
   62.8939   33.2904   45.4333 H   0  0  0  0  0  0  0  0  0  0  0  0
   61.7160   34.1150   47.0350 C   0  0  0  0  0  0  0  0  0  0  0  0
   61.7890   35.0925   47.5342 H   0  0  0  0  0  0  0  0  0  0  0  0
   60.9665   34.1322   46.2300 H   0  0  0  0  0  0  0  0  0  0  0  0
   58.8850   31.4290   46.4200 C   0  0  0  0  0  0  0  0  0  0  0  0
   59.6932   30.7902   46.8055 H   0  0  0  0  0  0  0  0  0  0  0  0
   58.1010   31.0220   45.3400 C   0  0  0  0  0  0  0  0  0  0  0  0
   58.1440   29.8840   44.5710 C   0  0  0  0  0  0  0  0  0  0  0  0
   59.0200   28.7150   44.7770 C   0  0  0  0  0  0  0  0  0  0  0  0
   60.0998   28.8891   44.8938 H   0  0  0  0  0  0  0  0  0  0  0  0
   58.5710   27.4470   44.8300 C   0  0  0  0  0  0  0  0  0  0  0  0
   58.8150   26.5260   45.8650 C   0  0  0  0  0  0  0  0  0  0  0  0
   59.4920   26.7200   47.0030 C   0  0  0  0  0  0  0  0  0  0  0  0
   59.6012   25.8974   47.7251 H   0  0  0  0  0  0  0  0  0  0  0  0
   59.9392   27.7021   47.2163 H   0  0  0  0  0  0  0  0  0  0  0  0
   58.1970   25.3500   45.4700 C   0  0  0  0  0  0  0  0  0  0  0  0
   58.1050   24.1000   46.0840 C   0  0  0  0  0  0  0  0  0  0  0  0
   58.5658   23.9164   47.0658 H   0  0  0  0  0  0  0  0  0  0  0  0
   57.4060   23.0820   45.4110 C   0  0  0  0  0  0  0  0  0  0  0  0
   57.3153   22.0871   45.8714 H   0  0  0  0  0  0  0  0  0  0  0  0
   56.8150   23.3270   44.1400 C   0  0  0  0  0  0  0  0  0  0  0  0
   56.1130   22.3360   43.4380 O   0  0  0  0  0  0  0  0  0  0  0  0
   56.6620   21.0800   43.0550 C   0  0  0  0  0  0  0  0  0  0  0  0
   56.9152   20.5007   43.9552 H   0  0  0  0  0  0  0  0  0  0  0  0
   55.9246   20.5246   42.4569 H   0  0  0  0  0  0  0  0  0  0  0  0
   57.5705   21.2440   42.4569 H   0  0  0  0  0  0  0  0  0  0  0  0
   56.9330   24.6010   43.5530 C   0  0  0  0  0  0  0  0  0  0  0  0
   56.4872   24.8108   42.5695 H   0  0  0  0  0  0  0  0  0  0  0  0
   57.6280   25.5910   44.2470 C   0  0  0  0  0  0  0  0  0  0  0  0
   57.8480   26.8540   43.8450 N   0  0  0  0  0  0  0  0  0  0  0  0
   57.5540   27.2600   42.9280 H   0  0  0  0  0  0  0  0  0  0  0  0
  1  2  1  0
  2  3  1  0
  3  4  1  0
  4  5  1  0
  5  6  2  0
  6  7  1  0
  6  8  1  0
  8  9  1  0
  8 10  2  0
 10 11  1  0
 11 12  2  0
 11 13  2  0
 11 14  1  0
 14 15  1  0
 15 16  1  0
 15 17  1  0
 15 18  1  0
 18 19  1  0
 18 20  1  0
 18 21  1  0
 21 22  1  0
 22 23  1  0
 22 24  1  0
 22 25  1  0
 21 26  1  0
 26 27  1  0
 26 28  1  0
 26 29  1  0
 29 30  1  0
 29 31  1  0
 10 32  1  0
 32 33  1  0
 32 34  2  0
 34 35  1  0
 35 36  1  0
 36 37  1  0
 36 38  2  0
 38 39  1  0
 39 40  2  0
 40 41  1  0
 40 42  1  0
 39 43  1  0
 43 44  2  0
 44 45  1  0
 44 46  1  0
 46 47  1  0
 46 48  2  0
 48 49  1  0
 49 50  1  0
 50 51  1  0
 50 52  1  0
 50 53  1  0
 48 54  1  0
 54 55  1  0
 54 56  2  0
 56 57  1  0
 57 58  1  0
 35  3  2  0
 57 38  1  0
 34  5  1  0
 56 43  1  0
 29 14  1  0
M  CHG  1   4  -1
M  END
>  <UniqueID>  (22) 
22

>  <SMILES>  (22) 
C=c1/c(=C/c2c(O)[n-]c3ccc(S(=O)(=O)N4CCN(C)CC4)cc23)[nH]c2cc(OC)ccc12

>  <Energy>  (22) 
144.2879415362755

>  <Genealogy>  (22) 
C=c1c(=Cc2c(O)[n-]c3ccc(S(=O)(=O)N4CCN(C)CC4)cc23)[nH]c2cc(OC)ccc12 (protonated)
C=c1/c(=C/c2c(O)[n-]c3ccc(S(=O)(=O)N4CCN(C)CC4)cc23)[nH]c2cc(OC)ccc12 (cis-trans isomerization)
C=c1/c(=C/c2c(O)[n-]c3ccc(S(=O)(=O)N4CCN(C)CC4)cc23)[nH]c2cc(OC)ccc12 (3D coordinates assigned)
C=c1/c(=C/c2c(O)[n-]c3ccc(S(=O)(=O)N4CCN(C)CC4)cc23)[nH]c2cc(OC)ccc12 (nonaromatic ring conformer: 144.2879415362755 kcal/mol)

>  <smiles>  (22) 
C=c1c(=Cc2c(O)[nH]c3ccc(S(=O)(=O)N4CCN(C)CC4)cc23)[nH]c2cc(OC)ccc12

>  <score_type>  (22) 
oracle

>  <origin>  (22) 
adg

>  <m_score__min__energy>  (22) 
-12.34

>  <m_primary>  (22) 
energy

$$$$
22:0
     RDKit          3D

 50 52  0  0  0  0  0  0  0  0999 V2000
   57.9560   26.8300   42.7240 C   0  0  0  0  0  0  0  0  0  0  0  0
   57.7770   26.3300   44.1100 C   0  0  0  0  0  0  0  0  0  0  0  0
   57.3300   25.0340   44.3430 C   0  0  0  0  0  0  0  0  0  0  0  0
   57.0730   24.1300   43.2790 N   0  0  0  0  0  0  0  0  0  0  0  0
   56.6670   22.4710   43.5210 S   0  0  0  0  0  0  0  0  0  0  0  0
   58.0770   21.5930   44.1440 C   0  0  0  0  0  0  0  0  0  0  0  0
   56.1890   21.8440   42.2340 O   0  0  0  0  0  0  0  0  0  0  0  0
   55.5770   22.3730   44.5550 O   0  0  0  0  0  0  0  0  0  0  0  0
   57.1740   24.6590   45.6590 C   0  0  0  0  0  0  0  0  0  0  0  0
   57.4390   25.5050   46.7260 C   0  0  0  0  0  0  0  0  0  0  0  0
   57.8860   26.7910   46.4320 C   0  0  0  0  0  0  0  0  0  0  0  0
   58.0500   27.1850   45.1470 C   0  0  0  0  0  0  0  0  0  0  0  0
   58.5790   28.5530   44.9230 C   0  0  0  0  0  0  0  0  0  0  0  0
   59.7620   28.6860   44.5380 O   0  0  0  0  0  0  0  0  0  0  0  0
   57.6720   29.5980   45.1750 N   0  0  0  0  0  0  0  0  0  0  0  0
   57.8890   30.9870   45.0650 C   0  0  0  0  0  0  0  0  0  0  0  0
   57.8800   31.4950   43.7530 C   0  0  0  0  0  0  0  0  0  0  0  0
   58.1120   32.8070   43.4840 C   0  0  0  0  0  0  0  0  0  0  0  0
   58.3630   33.6700   44.5170 C   0  0  0  0  0  0  0  0  0  0  0  0
   58.3690   33.1600   45.8200 C   0  0  0  0  0  0  0  0  0  0  0  0
   58.6680   34.1750   46.8820 C   0  0  0  0  0  0  0  0  0  0  0  0
   60.0640   34.0080   47.3710 C   0  0  0  0  0  0  0  0  0  0  0  0
   61.1080   34.0060   46.4670 C   0  0  0  0  0  0  0  0  0  0  0  0
   62.4200   33.8470   46.8790 C   0  0  0  0  0  0  0  0  0  0  0  0
   63.3600   33.8470   46.0330 O   0  0  0  0  0  0  0  0  0  0  0  0
   62.6670   33.6870   48.2480 C   0  0  0  0  0  0  0  0  0  0  0  0
   63.8470   33.5390   48.6750 O   0  0  0  0  0  0  0  0  0  0  0  0
   61.6070   33.6970   49.0950 N   0  0  0  0  0  0  0  0  0  0  0  0
   60.3800   33.8500   48.6680 N   0  0  0  0  0  0  0  0  0  0  0  0
   58.1360   31.8380   46.1010 C   0  0  0  0  0  0  0  0  0  0  0  0
   58.3266   27.8653   42.7527 H   0  0  0  0  0  0  0  0  0  0  0  0
   58.6826   26.1949   42.1961 H   0  0  0  0  0  0  0  0  0  0  0  0
   56.9914   26.8004   42.1961 H   0  0  0  0  0  0  0  0  0  0  0  0
   57.1350   24.4940   42.3010 H   0  0  0  0  0  0  0  0  0  0  0  0
   58.0593   21.6040   45.2438 H   0  0  0  0  0  0  0  0  0  0  0  0
   58.0483   20.5529   43.7873 H   0  0  0  0  0  0  0  0  0  0  0  0
   58.9978   22.0777   43.7873 H   0  0  0  0  0  0  0  0  0  0  0  0
   56.8222   23.6393   45.8744 H   0  0  0  0  0  0  0  0  0  0  0  0
   57.3012   25.1726   47.7655 H   0  0  0  0  0  0  0  0  0  0  0  0
   58.1075   27.4921   47.2502 H   0  0  0  0  0  0  0  0  0  0  0  0
   56.6790   29.3330   45.4930 H   0  0  0  0  0  0  0  0  0  0  0  0
   57.6787   30.8081   42.9178 H   0  0  0  0  0  0  0  0  0  0  0  0
   58.0982   33.1720   42.4464 H   0  0  0  0  0  0  0  0  0  0  0  0
   58.5549   34.7364   44.3275 H   0  0  0  0  0  0  0  0  0  0  0  0
   58.5474   35.1853   46.4639 H   0  0  0  0  0  0  0  0  0  0  0  0
   57.9727   34.0321   47.7224 H   0  0  0  0  0  0  0  0  0  0  0  0
   60.8923   34.1336   45.3959 H   0  0  0  0  0  0  0  0  0  0  0  0
   61.7880   33.5790   50.1130 H   0  0  0  0  0  0  0  0  0  0  0  0
   59.6100   33.8450   49.3940 H   0  0  0  0  0  0  0  0  0  0  0  0
   58.1481   31.4727   47.1385 H   0  0  0  0  0  0  0  0  0  0  0  0
  1  2  1  0
  2  3  2  0
  3  4  1  0
  4  5  1  0
  5  6  1  0
  5  7  2  0
  5  8  2  0
  3  9  1  0
  9 10  2  0
 10 11  1  0
 11 12  2  0
 12 13  1  0
 13 14  2  0
 13 15  1  0
 15 16  1  0
 16 17  2  0
 17 18  1  0
 18 19  2  0
 19 20  1  0
 20 21  1  0
 21 22  1  0
 22 23  2  0
 23 24  1  0
 24 25  2  0
 24 26  1  0
 26 27  2  0
 26 28  1  0
 28 29  1  0
 20 30  2  0
 12  2  1  0
 30 16  1  0
 29 22  1  0
  1 31  1  0
  1 32  1  0
  1 33  1  0
  4 34  1  0
  6 35  1  0
  6 36  1  0
  6 37  1  0
  9 38  1  0
 10 39  1  0
 11 40  1  0
 15 41  1  0
 17 42  1  0
 18 43  1  0
 19 44  1  0
 21 45  1  0
 21 46  1  0
 23 47  1  0
 28 48  1  0
 29 49  1  0
 30 50  1  0
M  END
>  <smiles>  (23) 
Cc1c(NS(C)(=O)=O)cccc1C(=O)Nc1cccc(Cc2cc(=O)c(=O)[nH][nH]2)c1

>  <score_type>  (23) 
oracle

>  <origin>  (23) 
adg

>  <m_score__min__energy>  (23) 
-9.4900000000000002

>  <m_primary>  (23) 
energy

$$$$
23:0
     RDKit          3D

 55 58  0  0  0  0  0  0  0  0999 V2000
   54.8320   30.9250   51.6100 C   0  0  0  0  0  0  0  0  0  0  0  0
   54.4740   30.3560   52.7720 C   0  0  0  0  0  0  0  0  0  0  0  0
   53.2020   30.3660   53.3680 C   0  0  0  0  0  0  0  0  0  0  0  0
   52.0040   30.7570   52.8930 C   0  0  0  0  0  0  0  0  0  0  0  0
   51.7050   31.0880   51.4890 C   0  0  0  0  0  0  0  0  0  0  0  0
   51.6940   30.2000   50.4780 N   0  0  0  0  0  0  0  0  0  0  0  0
   51.2320   30.9220   49.4350 C   0  0  0  0  0  0  0  0  0  0  0  0
   51.0910   30.4350   48.2830 O   0  0  0  0  0  0  0  0  0  0  0  0
   50.9190   32.2030   49.7260 N   0  0  0  0  0  0  0  0  0  0  0  0
   51.2110   32.2850   51.0330 C   0  0  0  0  0  0  0  0  0  0  0  0
   51.0230   33.4300   51.7960 O   0  0  0  0  0  0  0  0  0  0  0  0
   53.3650   29.8360   54.6380 C   0  0  0  0  0  0  0  0  0  0  0  0
   54.6900   29.4690   54.7510 C   0  0  0  0  0  0  0  0  0  0  0  0
   55.3010   28.8320   55.9630 C   0  0  0  0  0  0  0  0  0  0  0  0
   55.3610   29.7730   53.6200 N   0  0  0  0  0  0  0  0  0  0  0  0
   56.7730   29.5900   53.4190 C   0  0  0  0  0  0  0  0  0  0  0  0
   57.3730   28.3550   53.6980 C   0  0  0  0  0  0  0  0  0  0  0  0
   58.7430   28.1750   53.4900 C   0  0  0  0  0  0  0  0  0  0  0  0
   59.5350   29.2300   53.0050 C   0  0  0  0  0  0  0  0  0  0  0  0
   60.9860   29.0280   52.7770 C   0  0  0  0  0  0  0  0  0  0  0  0
   61.7570   30.0270   52.8230 O   0  0  0  0  0  0  0  0  0  0  0  0
   61.5390   27.7220   52.5260 N   0  0  0  0  0  0  0  0  0  0  0  0
   61.1470   26.9730   51.3310 C   0  0  0  0  0  0  0  0  0  0  0  0
   61.0660   25.4610   51.6170 C   0  0  0  0  0  0  0  0  0  0  0  0
   61.8460   25.0150   52.8000 N   0  0  0  0  0  0  0  0  0  0  0  0
   61.0030   24.8970   54.0030 C   0  0  0  0  0  0  0  0  0  0  0  0
   63.0660   25.8150   53.0610 C   0  0  1  0  0  0  0  0  0  0  0  0
   64.1200   25.5710   51.9700 C   0  0  0  0  0  0  0  0  0  0  0  0
   62.7500   27.3190   53.2490 C   0  0  0  0  0  0  0  0  0  0  0  0
   58.9220   30.4600   52.7050 C   0  0  0  0  0  0  0  0  0  0  0  0
   57.5520   30.6390   52.9140 C   0  0  0  0  0  0  0  0  0  0  0  0
   55.8694   30.8422   51.2537 H   0  0  0  0  0  0  0  0  0  0  0  0
   54.0880   31.4740   51.0142 H   0  0  0  0  0  0  0  0  0  0  0  0
   51.1781   30.8360   53.6152 H   0  0  0  0  0  0  0  0  0  0  0  0
   52.5871   29.7285   55.4083 H   0  0  0  0  0  0  0  0  0  0  0  0
   54.8701   29.2812   56.8699 H   0  0  0  0  0  0  0  0  0  0  0  0
   55.0924   27.7520   55.9541 H   0  0  0  0  0  0  0  0  0  0  0  0
   56.3888   28.9954   55.9541 H   0  0  0  0  0  0  0  0  0  0  0  0
   56.7633   27.5240   54.0822 H   0  0  0  0  0  0  0  0  0  0  0  0
   59.2049   27.2007   53.7074 H   0  0  0  0  0  0  0  0  0  0  0  0
   60.1615   27.3269   50.9940 H   0  0  0  0  0  0  0  0  0  0  0  0
   61.9076   27.1382   50.5537 H   0  0  0  0  0  0  0  0  0  0  0  0
   60.0106   25.1987   51.7826 H   0  0  0  0  0  0  0  0  0  0  0  0
   61.5036   24.9538   50.7445 H   0  0  0  0  0  0  0  0  0  0  0  0
   61.6317   24.9850   54.9013 H   0  0  0  0  0  0  0  0  0  0  0  0
   60.2495   25.6984   54.0028 H   0  0  0  0  0  0  0  0  0  0  0  0
   60.4985   23.9195   54.0028 H   0  0  0  0  0  0  0  0  0  0  0  0
   63.4922   25.4743   54.0161 H   0  0  0  0  0  0  0  0  0  0  0  0
   65.0890   25.3467   52.4399 H   0  0  0  0  0  0  0  0  0  0  0  0
   63.8103   24.7208   51.3445 H   0  0  0  0  0  0  0  0  0  0  0  0
   64.2154   26.4708   51.3445 H   0  0  0  0  0  0  0  0  0  0  0  0
   62.6069   27.5203   54.3209 H   0  0  0  0  0  0  0  0  0  0  0  0
   63.5945   27.8962   52.8443 H   0  0  0  0  0  0  0  0  0  0  0  0
   59.5256   31.2871   52.3029 H   0  0  0  0  0  0  0  0  0  0  0  0
   57.0838   31.6068   52.6812 H   0  0  0  0  0  0  0  0  0  0  0  0
  1  2  2  0
  2  3  1  0
  3  4  2  3
  4  5  1  0
  5  6  1  0
  6  7  1  0
  7  8  2  0
  7  9  1  0
  9 10  1  0
 10 11  1  0
  3 12  1  0
 12 13  2  0
 13 14  1  0
 13 15  1  0
 15 16  1  0
 16 17  2  0
 17 18  1  0
 18 19  2  0
 19 20  1  0
 20 21  2  0
 20 22  1  0
 22 23  1  0
 23 24  1  0
 24 25  1  0
 25 26  1  0
 25 27  1  0
 27 28  1  0
 27 29  1  0
 19 30  1  0
 30 31  2  0
 15  2  1  0
 31 16  1  0
 10  5  2  0
 29 22  1  0
  1 32  1  0
  1 33  1  0
  4 34  1  0
 12 35  1  0
 14 36  1  0
 14 37  1  0
 14 38  1  0
 17 39  1  0
 18 40  1  0
 23 41  1  0
 23 42  1  0
 24 43  1  0
 24 44  1  0
 26 45  1  0
 26 46  1  0
 26 47  1  0
 27 48  1  1
 28 49  1  0
 28 50  1  0
 28 51  1  0
 29 52  1  0
 29 53  1  0
 30 54  1  0
 31 55  1  0
M  CHG  3   6  -1   9  -1  11  -1
M  END
>  <UniqueID>  (24) 
23

>  <SMILES>  (24) 
C=c1c(=Cc2[n-]c(=O)[n-]c2[O-])cc(C)n1-c1ccc(C(=O)N2CCN(C)[C@@H](C)C2)cc1

>  <Energy>  (24) 
145.7863510140217

>  <Genealogy>  (24) 
C=c1c(=Cc2[n-]c(=O)[n-]c2[O-])cc(C)n1-c1ccc(C(=O)N2CCN(C)C(C)C2)cc1 (protonated)
C=c1c(=Cc2[n-]c(=O)[n-]c2[O-])cc(C)n1-c1ccc(C(=O)N2CCN(C)[C@@H](C)C2)cc1 (chirality)
C=c1c(=Cc2[n-]c(=O)[n-]c2[O-])cc(C)n1-c1ccc(C(=O)N2CCN(C)[C@@H](C)C2)cc1 (3D coordinates assigned)
C=c1c(=Cc2[n-]c(=O)[n-]c2[O-])cc(C)n1-c1ccc(C(=O)N2CCN(C)[C@@H](C)C2)cc1 (nonaromatic ring conformer: 145.7863510140217 kcal/mol)

>  <smiles>  (24) 
C=c1c(=Cc2[nH]c(=O)[nH]c2O)cc(C)n1-c1ccc(C(=O)N2CCN(C)C(C)C2)cc1

>  <score_type>  (24) 
oracle

>  <origin>  (24) 
adg

>  <m_score__min__energy>  (24) 
-15.92

>  <m_primary>  (24) 
energy

$$$$
24:0
     RDKit          3D

 43 45  0  0  0  0  0  0  0  0999 V2000
   56.6530   21.5180   42.9650 C   0  0  0  0  0  0  0  0  0  0  0  0
   57.3990   22.1660   43.8540 C   0  0  0  0  0  0  0  0  0  0  0  0
   58.7500   21.8390   44.1670 N   0  0  0  0  0  0  0  0  0  0  0  0
   59.1410   22.8100   45.1360 C   0  0  0  0  0  0  0  0  0  0  0  0
   60.3040   22.8740   45.6150 O   0  0  0  0  0  0  0  0  0  0  0  0
   58.0920   23.7160   45.4850 N   0  0  0  0  0  0  0  0  0  0  0  0
   58.2470   25.0050   46.1560 C   0  0  0  0  0  0  0  0  0  0  0  0
   58.3150   26.1370   45.1240 C   0  0  0  0  0  0  0  0  0  0  0  0
   57.2190   27.1550   45.3210 C   0  0  0  0  0  0  0  0  0  0  0  0
   56.0910   26.7740   45.7440 O   0  0  0  0  0  0  0  0  0  0  0  0
   57.4450   28.5600   45.0810 N   0  0  0  0  0  0  0  0  0  0  0  0
   56.2880   29.4290   44.8220 C   0  0  0  0  0  0  0  0  0  0  0  0
   56.7120   30.7700   44.2160 C   0  0  0  0  0  0  0  0  0  0  0  0
   57.7860   31.3850   45.0080 N   0  0  0  0  0  0  0  0  0  0  0  0
   57.9100   32.8230   45.0260 C   0  0  0  0  0  0  0  0  0  0  0  0
   57.3570   33.5060   44.1200 O   0  0  0  0  0  0  0  0  0  0  0  0
   58.6580   33.5320   46.0850 C   0  0  0  0  0  0  0  0  0  0  0  0
   59.5200   34.5960   45.8850 C   0  0  0  0  0  0  0  0  0  0  0  0
   59.9790   34.9450   47.1360 C   0  0  0  0  0  0  0  0  0  0  0  0
   59.3720   34.0800   48.0220 C   0  0  0  0  0  0  0  0  0  0  0  0
   58.5910   33.2530   47.3660 O   0  0  0  0  0  0  0  0  0  0  0  0
   58.8280   30.5380   45.6080 C   0  0  0  0  0  0  0  0  0  0  0  0
   58.8050   29.1150   45.0390 C   0  0  0  0  0  0  0  0  0  0  0  0
   57.0070   23.3240   44.6500 C   0  0  0  0  0  0  0  0  0  0  0  0
   55.8980   23.9180   44.5990 O   0  0  0  0  0  0  0  0  0  0  0  0
   55.6158   21.8352   42.7819 H   0  0  0  0  0  0  0  0  0  0  0  0
   57.0729   20.6645   42.4124 H   0  0  0  0  0  0  0  0  0  0  0  0
   59.3400   21.0870   43.7470 H   0  0  0  0  0  0  0  0  0  0  0  0
   57.3882   25.1727   46.8226 H   0  0  0  0  0  0  0  0  0  0  0  0
   59.1799   24.9953   46.7387 H   0  0  0  0  0  0  0  0  0  0  0  0
   59.2880   26.6419   45.2157 H   0  0  0  0  0  0  0  0  0  0  0  0
   58.1870   25.6921   44.1261 H   0  0  0  0  0  0  0  0  0  0  0  0
   55.6093   28.9199   44.1218 H   0  0  0  0  0  0  0  0  0  0  0  0
   55.7873   29.6287   45.7809 H   0  0  0  0  0  0  0  0  0  0  0  0
   57.0707   30.6044   43.1894 H   0  0  0  0  0  0  0  0  0  0  0  0
   55.8442   31.4459   44.2144 H   0  0  0  0  0  0  0  0  0  0  0  0
   59.7839   35.0656   44.9259 H   0  0  0  0  0  0  0  0  0  0  0  0
   60.6869   35.7511   47.3792 H   0  0  0  0  0  0  0  0  0  0  0  0
   59.5196   34.0824   49.1121 H   0  0  0  0  0  0  0  0  0  0  0  0
   59.8116   30.9865   45.4048 H   0  0  0  0  0  0  0  0  0  0  0  0
   58.6364   30.4761   46.6894 H   0  0  0  0  0  0  0  0  0  0  0  0
   59.1536   29.1377   43.9959 H   0  0  0  0  0  0  0  0  0  0  0  0
   59.4648   28.4800   45.6485 H   0  0  0  0  0  0  0  0  0  0  0  0
  1  2  2  0
  2  3  1  0
  3  4  1  0
  4  5  2  0
  4  6  1  0
  6  7  1  0
  7  8  1  0
  8  9  1  0
  9 10  2  0
  9 11  1  0
 11 12  1  0
 12 13  1  0
 13 14  1  0
 14 15  1  0
 15 16  2  0
 15 17  1  0
 17 18  2  0
 18 19  1  0
 19 20  2  0
 20 21  1  0
 14 22  1  0
 22 23  1  0
  6 24  1  0
 24 25  2  0
 24  2  1  0
 23 11  1  0
 21 17  1  0
  1 26  1  0
  1 27  1  0
  3 28  1  0
  7 29  1  0
  7 30  1  0
  8 31  1  0
  8 32  1  0
 12 33  1  0
 12 34  1  0
 13 35  1  0
 13 36  1  0
 18 37  1  0
 19 38  1  0
 20 39  1  0
 22 40  1  0
 22 41  1  0
 23 42  1  0
 23 43  1  0
M  END
>  <UniqueID>  (25) 
24

>  <SMILES>  (25) 
C=C1NC(=O)N(CCC(=O)N2CCN(C(=O)c3ccco3)CC2)C1=O

>  <Energy>  (25) 
96.11118216917998

>  <Genealogy>  (25) 
C=C1NC(=O)N(CCC(=O)N2CCN(C(=O)c3ccco3)CC2)C1=O (3D coordinates assigned)
C=C1NC(=O)N(CCC(=O)N2CCN(C(=O)c3ccco3)CC2)C1=O (nonaromatic ring conformer: 96.11118216917998 kcal/mol)

>  <smiles>  (25) 
C=C1NC(=O)N(CCC(=O)N2CCN(C(=O)c3ccco3)CC2)C1=O

>  <score_type>  (25) 
oracle

>  <origin>  (25) 
adg

>  <m_score__min__energy>  (25) 
-8.5

>  <m_primary>  (25) 
energy

$$$$
25:0
     RDKit          3D

 57 60  0  0  0  0  0  0  0  0999 V2000
   58.2960   31.8560   49.8780 C   0  0  0  0  0  0  0  0  0  0  0  0
   59.2160   30.7260   49.9450 N   0  0  0  0  0  0  0  0  0  0  0  0
   59.0400   29.5960   49.2780 N   0  0  0  0  0  0  0  0  0  0  0  0
   60.1330   28.8310   49.4840 C   0  0  0  0  0  0  0  0  0  0  0  0
   60.4050   27.5780   48.7740 C   0  0  0  0  0  0  0  0  0  0  0  0
   60.2380   26.4740   49.3570 O   0  0  0  0  0  0  0  0  0  0  0  0
   60.7980   27.6170   47.3990 N   0  0  0  0  0  0  0  0  0  0  0  0
   60.1480   26.8170   46.3700 C   0  0  0  0  0  0  0  0  0  0  0  0
   58.8240   27.4420   46.0210 C   0  0  0  0  0  0  0  0  0  0  0  0
   58.7820   28.7000   45.3970 C   0  0  0  0  0  0  0  0  0  0  0  0
   57.5610   29.2470   44.9940 C   0  0  0  0  0  0  0  0  0  0  0  0
   56.3710   28.5450   45.2110 C   0  0  0  0  0  0  0  0  0  0  0  0
   55.1610   29.0950   44.8000 O   0  0  0  0  0  0  0  0  0  0  0  0
   56.3990   27.2940   45.8380 C   0  0  0  0  0  0  0  0  0  0  0  0
   55.2080   26.6050   46.0570 O   0  0  0  0  0  0  0  0  0  0  0  0
   57.6260   26.7390   46.2300 C   0  0  0  0  0  0  0  0  0  0  0  0
   61.0390   29.4960   50.2900 C   0  0  0  0  0  0  0  0  0  0  0  0
   60.4240   30.7090   50.5400 C   0  0  0  0  0  0  0  0  0  0  0  0
   60.9620   31.7510   51.1070 N   0  0  0  0  0  0  0  0  0  0  0  0
   61.2990   32.9780   50.4410 C   0  0  0  0  0  0  0  0  0  0  0  0
   60.3950   33.7340   49.9920 O   0  0  0  0  0  0  0  0  0  0  0  0
   62.7370   33.3360   50.2200 C   0  0  0  0  0  0  0  0  0  0  0  0
   63.4520   32.3580   49.2750 C   0  0  0  0  0  0  0  0  0  0  0  0
   63.2610   32.7750   47.5400 S   0  0  0  0  0  0  0  0  0  0  0  0
   64.0920   31.8340   46.7140 O   0  0  0  0  0  0  0  0  0  0  0  0
   63.7570   34.1740   47.3020 O   0  0  0  0  0  0  0  0  0  0  0  0
   61.5790   32.6440   47.0330 C   0  0  0  0  0  0  0  0  0  0  0  0
   60.8570   31.4650   47.2630 C   0  0  0  0  0  0  0  0  0  0  0  0
   59.5280   31.3560   46.8520 C   0  0  0  0  0  0  0  0  0  0  0  0
   58.8990   32.4320   46.2100 C   0  0  0  0  0  0  0  0  0  0  0  0
   57.5600   32.3390   45.8020 C   0  0  0  0  0  0  0  0  0  0  0  0
   56.9450   33.4190   45.1620 C   0  0  0  0  0  0  0  0  0  0  0  0
   57.6600   34.5960   44.9260 C   0  0  0  0  0  0  0  0  0  0  0  0
   58.9940   34.7030   45.3270 C   0  0  0  0  0  0  0  0  0  0  0  0
   59.6240   33.6250   45.9710 C   0  0  0  0  0  0  0  0  0  0  0  0
   60.9610   33.7200   46.3830 C   0  0  0  0  0  0  0  0  0  0  0  0
   58.0347   32.1770   50.8972 H   0  0  0  0  0  0  0  0  0  0  0  0
   58.7763   32.6886   49.3432 H   0  0  0  0  0  0  0  0  0  0  0  0
   57.3833   31.5545   49.3432 H   0  0  0  0  0  0  0  0  0  0  0  0
   60.7855   26.7810   45.4743 H   0  0  0  0  0  0  0  0  0  0  0  0
   59.9876   25.7946   46.7427 H   0  0  0  0  0  0  0  0  0  0  0  0
   59.7148   29.2570   45.2249 H   0  0  0  0  0  0  0  0  0  0  0  0
   57.5357   30.2320   44.5050 H   0  0  0  0  0  0  0  0  0  0  0  0
   54.3630   27.0840   46.3490 H   0  0  0  0  0  0  0  0  0  0  0  0
   57.6503   25.7468   46.7042 H   0  0  0  0  0  0  0  0  0  0  0  0
   62.0176   29.1433   50.6477 H   0  0  0  0  0  0  0  0  0  0  0  0
   62.7858   34.3451   49.7850 H   0  0  0  0  0  0  0  0  0  0  0  0
   63.2452   33.2886   51.1944 H   0  0  0  0  0  0  0  0  0  0  0  0
   64.5248   32.3598   49.5180 H   0  0  0  0  0  0  0  0  0  0  0  0
   62.9936   31.3692   49.4236 H   0  0  0  0  0  0  0  0  0  0  0  0
   61.3419   30.6187   47.7716 H   0  0  0  0  0  0  0  0  0  0  0  0
   58.9726   30.4238   47.0321 H   0  0  0  0  0  0  0  0  0  0  0  0
   56.9930   31.4146   45.9860 H   0  0  0  0  0  0  0  0  0  0  0  0
   55.8950   33.3420   44.8432 H   0  0  0  0  0  0  0  0  0  0  0  0
   57.1703   35.4423   44.4221 H   0  0  0  0  0  0  0  0  0  0  0  0
   59.5516   35.6322   45.1383 H   0  0  0  0  0  0  0  0  0  0  0  0
   61.5273   34.6441   46.1948 H   0  0  0  0  0  0  0  0  0  0  0  0
  1  2  1  0
  2  3  1  0
  3  4  1  0
  4  5  1  0
  5  6  2  0
  5  7  1  0
  7  8  1  0
  8  9  1  0
  9 10  2  0
 10 11  1  0
 11 12  2  0
 12 13  1  0
 12 14  1  0
 14 15  1  0
 14 16  2  0
  4 17  2  0
 17 18  1  0
 18 19  2  3
 19 20  1  0
 20 21  2  0
 20 22  1  0
 22 23  1  0
 23 24  1  0
 24 25  2  0
 24 26  2  0
 24 27  1  0
 27 28  2  0
 28 29  1  0
 29 30  2  0
 30 31  1  0
 31 32  2  0
 32 33  1  0
 33 34  2  0
 34 35  1  0
 35 36  2  0
 18  2  1  0
 36 27  1  0
 16  9  1  0
 35 30  1  0
  1 37  1  0
  1 38  1  0
  1 39  1  0
  8 40  1  0
  8 41  1  0
 10 42  1  0
 11 43  1  0
 15 44  1  0
 16 45  1  0
 17 46  1  0
 22 47  1  0
 22 48  1  0
 23 49  1  0
 23 50  1  0
 28 51  1  0
 29 52  1  0
 31 53  1  0
 32 54  1  0
 33 55  1  0
 34 56  1  0
 36 57  1  0
M  CHG  3   3  -1   7  -1  13  -1
M  END
>  <UniqueID>  (26) 
25

>  <SMILES>  (26) 
Cn1[n-]c(C(=O)[N-]Cc2ccc([O-])c(O)c2)cc1=NC(=O)CCS(=O)(=O)c1ccc2ccccc2c1

>  <Energy>  (26) 
89.0771218986226

>  <Genealogy>  (26) 
Cn1[n-]c(C(=O)[N-]Cc2ccc([O-])c(O)c2)cc1=NC(=O)CCS(=O)(=O)c1ccc2ccccc2c1 (protonated)
Cn1[n-]c(C(=O)[N-]Cc2ccc([O-])c(O)c2)cc1=NC(=O)CCS(=O)(=O)c1ccc2ccccc2c1 (3D coordinates assigned)
Cn1[n-]c(C(=O)[N-]Cc2ccc([O-])c(O)c2)cc1=NC(=O)CCS(=O)(=O)c1ccc2ccccc2c1 (optimized conformer: 89.0771218986226 kcal/mol)

>  <smiles>  (26) 
Cn1[nH]c(C(=O)NCc2ccc(O)c(O)c2)cc1=NC(=O)CCS(=O)(=O)c1ccc2ccccc2c1

>  <score_type>  (26) 
oracle

>  <origin>  (26) 
adg

>  <m_score__min__energy>  (26) 
-16.609999999999999

>  <m_primary>  (26) 
energy

$$$$
26:0
     RDKit          3D

 73 77  0  0  0  0  0  0  0  0999 V2000
   53.5800   23.7400   44.5880 C   0  0  0  0  0  0  0  0  0  0  0  0
   55.0180   23.9960   44.9220 C   0  0  0  0  0  0  0  0  0  0  0  0
   55.3960   24.2850   46.2410 C   0  0  0  0  0  0  0  0  0  0  0  0
   56.7390   24.5080   46.5570 C   0  0  0  0  0  0  0  0  0  0  0  0
   57.7230   24.4310   45.5610 C   0  0  0  0  0  0  0  0  0  0  0  0
   59.1660   24.6930   45.8860 C   0  0  0  0  0  0  0  0  0  0  0  0
   59.2790   25.4630   47.1200 N   0  0  0  0  0  0  0  0  0  0  0  0
   60.3520   26.3700   47.3950 C   0  0  0  0  0  0  0  0  0  0  0  0
   60.9310   26.3520   48.5150 O   0  0  0  0  0  0  0  0  0  0  0  0
   60.7620   27.3750   46.3580 C   0  0  0  0  0  0  0  0  0  0  0  0
   59.9940   28.6190   46.5190 N   0  0  0  0  0  0  0  0  0  0  0  0
   60.6260   29.7600   47.1330 C   0  0  0  0  0  0  0  0  0  0  0  0
   61.5240   30.3790   46.5010 O   0  0  0  0  0  0  0  0  0  0  0  0
   60.2090   30.2400   48.4770 C   0  0  0  0  0  0  0  0  0  0  0  0
   58.8920   30.0390   48.9280 C   0  0  0  0  0  0  0  0  0  0  0  0
   58.4980   30.4970   50.1870 C   0  0  0  0  0  0  0  0  0  0  0  0
   59.4090   31.1640   51.0100 C   0  0  0  0  0  0  0  0  0  0  0  0
   60.7240   31.3680   50.5770 C   0  0  0  0  0  0  0  0  0  0  0  0
   61.8560   32.2750   51.5710 S   0  0  0  0  0  0  0  0  0  0  0  0
   63.0250   31.3980   51.9210 O   0  0  0  0  0  0  0  0  0  0  0  0
   61.1970   32.7280   52.8450 O   0  0  0  0  0  0  0  0  0  0  0  0
   62.4160   33.6440   50.6740 N   0  0  0  0  0  0  0  0  0  0  0  0
   62.7050   33.5290   49.2810 C   0  0  0  0  0  0  0  0  0  0  0  0
   63.9160   33.2380   48.6990 C   0  0  0  0  0  0  0  0  0  0  0  0
   65.2110   32.9760   49.3940 C   0  0  0  0  0  0  0  0  0  0  0  0
   63.7750   33.2850   47.3590 N   0  0  0  0  0  0  0  0  0  0  0  0
   62.5280   33.5810   47.1170 O   0  0  0  0  0  0  0  0  0  0  0  0
   61.8420   33.7390   48.2290 C   0  0  0  0  0  0  0  0  0  0  0  0
   60.4200   34.1240   48.3050 C   0  0  0  0  0  0  0  0  0  0  0  0
   59.9830   34.6240   49.3740 O   0  0  0  0  0  0  0  0  0  0  0  0
   59.4960   33.9670   47.1570 C   0  0  0  0  0  0  0  0  0  0  0  0
   59.7890   34.5990   45.9360 C   0  0  0  0  0  0  0  0  0  0  0  0
   58.9130   34.4860   44.8520 C   0  0  0  0  0  0  0  0  0  0  0  0
   57.7310   33.7510   44.9800 C   0  0  0  0  0  0  0  0  0  0  0  0
   57.4240   33.1270   46.1920 C   0  0  0  0  0  0  0  0  0  0  0  0
   58.2990   33.2360   47.2780 C   0  0  0  0  0  0  0  0  0  0  0  0
   61.1160   30.9180   49.3100 C   0  0  0  0  0  0  0  0  0  0  0  0
   58.6720   28.7450   45.9490 C   0  0  0  0  0  0  0  0  0  0  0  0
   58.2780   29.9410   45.3170 C   0  0  0  0  0  0  0  0  0  0  0  0
   56.9810   30.0840   44.8140 C   0  0  0  0  0  0  0  0  0  0  0  0
   56.0620   29.0370   44.9370 C   0  0  0  0  0  0  0  0  0  0  0  0
   54.7710   29.1810   44.4450 O   0  0  0  0  0  0  0  0  0  0  0  0
   56.4430   27.8450   45.5600 C   0  0  0  0  0  0  0  0  0  0  0  0
   57.7420   27.6950   46.0600 C   0  0  0  0  0  0  0  0  0  0  0  0
   57.3480   24.1070   44.2470 C   0  0  0  0  0  0  0  0  0  0  0  0
   56.0050   23.8880   43.9310 C   0  0  0  0  0  0  0  0  0  0  0  0
   53.0005   23.6368   45.5173 H   0  0  0  0  0  0  0  0  0  0  0  0
   53.1845   24.5819   44.0008 H   0  0  0  0  0  0  0  0  0  0  0  0
   53.4993   22.8134   44.0008 H   0  0  0  0  0  0  0  0  0  0  0  0
   54.6320   24.3364   47.0307 H   0  0  0  0  0  0  0  0  0  0  0  0
   57.0255   24.7451   47.5922 H   0  0  0  0  0  0  0  0  0  0  0  0
   59.6897   23.7334   46.0086 H   0  0  0  0  0  0  0  0  0  0  0  0
   59.6174   25.2685   45.0644 H   0  0  0  0  0  0  0  0  0  0  0  0
   61.8343   27.5939   46.4691 H   0  0  0  0  0  0  0  0  0  0  0  0
   60.5631   26.9591   45.3593 H   0  0  0  0  0  0  0  0  0  0  0  0
   58.1677   29.5177   48.2849 H   0  0  0  0  0  0  0  0  0  0  0  0
   57.4666   30.3320   50.5321 H   0  0  0  0  0  0  0  0  0  0  0  0
   59.0926   31.5288   51.9983 H   0  0  0  0  0  0  0  0  0  0  0  0
   65.0558   33.0074   50.4826 H   0  0  0  0  0  0  0  0  0  0  0  0
   65.5876   31.9835   49.1058 H   0  0  0  0  0  0  0  0  0  0  0  0
   65.9438   33.7441   49.1058 H   0  0  0  0  0  0  0  0  0  0  0  0
   60.7134   35.1862   45.8327 H   0  0  0  0  0  0  0  0  0  0  0  0
   59.1544   34.9762   43.8973 H   0  0  0  0  0  0  0  0  0  0  0  0
   57.0424   33.6638   44.1266 H   0  0  0  0  0  0  0  0  0  0  0  0
   56.4932   32.5494   46.2923 H   0  0  0  0  0  0  0  0  0  0  0  0
   58.0503   32.7478   48.2318 H   0  0  0  0  0  0  0  0  0  0  0  0
   62.1444   31.0970   48.9630 H   0  0  0  0  0  0  0  0  0  0  0  0
   58.9960   30.7685   45.2185 H   0  0  0  0  0  0  0  0  0  0  0  0
   56.6833   31.0212   44.3210 H   0  0  0  0  0  0  0  0  0  0  0  0
   55.7197   27.0221   45.6577 H   0  0  0  0  0  0  0  0  0  0  0  0
   58.0371   26.7514   46.5421 H   0  0  0  0  0  0  0  0  0  0  0  0
   58.1153   24.0253   43.4630 H   0  0  0  0  0  0  0  0  0  0  0  0
   55.7201   23.6297   42.9004 H   0  0  0  0  0  0  0  0  0  0  0  0
  1  2  1  0
  2  3  2  0
  3  4  1  0
  4  5  2  0
  5  6  1  0
  6  7  1  0
  7  8  1  0
  8  9  2  0
  8 10  1  0
 10 11  1  0
 11 12  1  0
 12 13  2  0
 12 14  1  0
 14 15  2  0
 15 16  1  0
 16 17  2  0
 17 18  1  0
 18 19  1  0
 19 20  2  0
 19 21  2  0
 19 22  1  0
 22 23  1  0
 23 24  1  0
 24 25  1  0
 24 26  2  0
 26 27  1  0
 27 28  1  0
 28 29  1  0
 29 30  2  0
 29 31  1  0
 31 32  2  0
 32 33  1  0
 33 34  2  0
 34 35  1  0
 35 36  2  0
 18 37  2  0
 11 38  1  0
 38 39  2  0
 39 40  1  0
 40 41  2  0
 41 42  1  0
 41 43  1  0
 43 44  2  0
  5 45  1  0
 45 46  2  0
 46  2  1  0
 37 14  1  0
 44 38  1  0
 28 23  2  0
 36 31  1  0
  1 47  1  0
  1 48  1  0
  1 49  1  0
  3 50  1  0
  4 51  1  0
  6 52  1  0
  6 53  1  0
 10 54  1  0
 10 55  1  0
 15 56  1  0
 16 57  1  0
 17 58  1  0
 25 59  1  0
 25 60  1  0
 25 61  1  0
 32 62  1  0
 33 63  1  0
 34 64  1  0
 35 65  1  0
 36 66  1  0
 37 67  1  0
 39 68  1  0
 40 69  1  0
 43 70  1  0
 44 71  1  0
 45 72  1  0
 46 73  1  0
M  CHG  3   7  -1  22  -1  42  -1
M  END
>  <UniqueID>  (27) 
26

>  <SMILES>  (27) 
Cc1ccc(C[N-]C(=O)CN(C(=O)c2cccc(S(=O)(=O)[N-]c3c(C)noc3C(=O)c3ccccc3)c2)c2ccc([O-])cc2)cc1

>  <Energy>  (27) 
122.92300042092475

>  <Genealogy>  (27) 
Cc1ccc(C[N-]C(=O)CN(C(=O)c2cccc(S(=O)(=O)[N-]c3c(C)noc3C(=O)c3ccccc3)c2)c2ccc([O-])cc2)cc1 (protonated)
Cc1ccc(C[N-]C(=O)CN(C(=O)c2cccc(S(=O)(=O)[N-]c3c(C)noc3C(=O)c3ccccc3)c2)c2ccc([O-])cc2)cc1 (3D coordinates assigned)
Cc1ccc(C[N-]C(=O)CN(C(=O)c2cccc(S(=O)(=O)[N-]c3c(C)noc3C(=O)c3ccccc3)c2)c2ccc([O-])cc2)cc1 (optimized conformer: 122.92300042092475 kcal/mol)

>  <smiles>  (27) 
Cc1ccc(CNC(=O)CN(C(=O)c2cccc(S(=O)(=O)Nc3c(C)noc3C(=O)c3ccccc3)c2)c2ccc(O)cc2)cc1

>  <score_type>  (27) 
oracle

>  <origin>  (27) 
adg

>  <m_score__min__energy>  (27) 
-16.98

>  <m_primary>  (27) 
energy

$$$$
27:0
     RDKit          3D

 46 48  0  0  0  0  0  0  0  0999 V2000
   60.0460   26.7610   47.5950 C   0  0  0  0  0  0  0  0  0  0  0  0
   59.7030   26.0940   46.2690 C   0  0  0  0  0  0  0  0  0  0  0  0
   58.2230   25.8740   46.1490 C   0  0  0  0  0  0  0  0  0  0  0  0
   57.5940   24.6730   45.8670 C   0  0  0  0  0  0  0  0  0  0  0  0
   56.2530   24.8330   45.7970 N   0  0  0  0  0  0  0  0  0  0  0  0
   56.0370   26.1420   46.0300 C   0  0  0  0  0  0  0  0  0  0  0  0
   54.7710   26.7140   46.0170 O   0  0  0  0  0  0  0  0  0  0  0  0
   57.2220   26.8150   46.2560 C   0  0  0  0  0  0  0  0  0  0  0  0
   57.3960   28.2210   46.4880 N   0  0  0  0  0  0  0  0  0  0  0  0
   57.3900   29.1930   45.4290 C   0  0  0  0  0  0  0  0  0  0  0  0
   56.2180   29.3960   44.6810 C   0  0  0  0  0  0  0  0  0  0  0  0
   56.1850   30.3550   43.6640 C   0  0  0  0  0  0  0  0  0  0  0  0
   57.3170   31.1220   43.3870 C   0  0  0  0  0  0  0  0  0  0  0  0
   58.4880   30.9320   44.1230 C   0  0  0  0  0  0  0  0  0  0  0  0
   58.5380   29.9760   45.1550 C   0  0  0  0  0  0  0  0  0  0  0  0
   59.8390   29.7480   45.8870 C   0  0  0  0  0  0  0  0  0  0  0  0
   59.7740   30.2660   47.3030 C   0  0  0  0  0  0  0  0  0  0  0  0
   58.8450   29.8820   48.0630 O   0  0  0  0  0  0  0  0  0  0  0  0
   60.7770   31.1360   47.8390 N   0  0  0  0  0  0  0  0  0  0  0  0
   60.8520   32.8480   47.5680 S   0  0  0  0  0  0  0  0  0  0  0  0
   62.0790   33.1630   46.7610 O   0  0  0  0  0  0  0  0  0  0  0  0
   60.9410   33.5550   48.8930 O   0  0  0  0  0  0  0  0  0  0  0  0
   59.4330   33.3840   46.6710 C   0  0  0  0  0  0  0  0  0  0  0  0
   58.1510   33.0230   47.1080 C   0  0  0  0  0  0  0  0  0  0  0  0
   57.0210   33.4620   46.4110 C   0  0  0  0  0  0  0  0  0  0  0  0
   57.1670   34.2540   45.2700 C   0  0  0  0  0  0  0  0  0  0  0  0
   58.4450   34.6080   44.8240 C   0  0  0  0  0  0  0  0  0  0  0  0
   59.5770   34.1740   45.5210 C   0  0  0  0  0  0  0  0  0  0  0  0
   59.7157   26.1188   48.4247 H   0  0  0  0  0  0  0  0  0  0  0  0
   61.1337   26.9122   47.6589 H   0  0  0  0  0  0  0  0  0  0  0  0
   59.5362   27.7337   47.6589 H   0  0  0  0  0  0  0  0  0  0  0  0
   60.0397   26.7385   45.4436 H   0  0  0  0  0  0  0  0  0  0  0  0
   60.2088   25.1182   46.2244 H   0  0  0  0  0  0  0  0  0  0  0  0
   58.1158   23.7159   45.7195 H   0  0  0  0  0  0  0  0  0  0  0  0
   57.4760   28.5570   47.4770 H   0  0  0  0  0  0  0  0  0  0  0  0
   55.3211   28.7969   44.8968 H   0  0  0  0  0  0  0  0  0  0  0  0
   55.2644   30.5051   43.0810 H   0  0  0  0  0  0  0  0  0  0  0  0
   57.2868   31.8773   42.5878 H   0  0  0  0  0  0  0  0  0  0  0  0
   59.3794   31.5346   43.8945 H   0  0  0  0  0  0  0  0  0  0  0  0
   60.0519   28.6690   45.9103 H   0  0  0  0  0  0  0  0  0  0  0  0
   60.6341   30.2921   45.3562 H   0  0  0  0  0  0  0  0  0  0  0  0
   58.0335   32.3926   48.0017 H   0  0  0  0  0  0  0  0  0  0  0  0
   56.0163   33.1833   46.7617 H   0  0  0  0  0  0  0  0  0  0  0  0
   56.2777   34.5993   44.7223 H   0  0  0  0  0  0  0  0  0  0  0  0
   58.5596   35.2290   43.9233 H   0  0  0  0  0  0  0  0  0  0  0  0
   60.5807   34.4523   45.1673 H   0  0  0  0  0  0  0  0  0  0  0  0
  1  2  1  0
  2  3  1  0
  3  4  2  0
  4  5  1  0
  5  6  1  0
  6  7  1  0
  6  8  2  0
  8  9  1  0
  9 10  1  0
 10 11  2  0
 11 12  1  0
 12 13  2  0
 13 14  1  0
 14 15  2  0
 15 16  1  0
 16 17  1  0
 17 18  2  0
 17 19  1  0
 19 20  1  0
 20 21  2  0
 20 22  2  0
 20 23  1  0
 23 24  2  0
 24 25  1  0
 25 26  2  0
 26 27  1  0
 27 28  2  0
  8  3  1  0
 15 10  1  0
 28 23  1  0
  1 29  1  0
  1 30  1  0
  1 31  1  0
  2 32  1  0
  2 33  1  0
  4 34  1  0
  9 35  1  0
 11 36  1  0
 12 37  1  0
 13 38  1  0
 14 39  1  0
 16 40  1  0
 16 41  1  0
 24 42  1  0
 25 43  1  0
 26 44  1  0
 27 45  1  0
 28 46  1  0
M  CHG  3   5  -1   7  -1  19  -1
M  END
>  <UniqueID>  (28) 
27

>  <SMILES>  (28) 
CCc1c[n-]c([O-])c1Nc1ccccc1CC(=O)[N-]S(=O)(=O)c1ccccc1

>  <Energy>  (28) 
78.50798107670218

>  <Genealogy>  (28) 
CCc1c[n-]c([O-])c1Nc1ccccc1CC(=O)[N-]S(=O)(=O)c1ccccc1 (protonated)
CCc1c[n-]c([O-])c1Nc1ccccc1CC(=O)[N-]S(=O)(=O)c1ccccc1 (3D coordinates assigned)
CCc1c[n-]c([O-])c1Nc1ccccc1CC(=O)[N-]S(=O)(=O)c1ccccc1 (optimized conformer: 78.50798107670218 kcal/mol)

>  <smiles>  (28) 
CCc1c[nH]c(O)c1Nc1ccccc1CC(=O)NS(=O)(=O)c1ccccc1

>  <score_type>  (28) 
oracle

>  <origin>  (28) 
adg

>  <m_score__min__energy>  (28) 
-16.079999999999998

>  <m_primary>  (28) 
energy

$$$$
28:0
     RDKit          3D

 59 63  0  0  0  0  0  0  0  0999 V2000
   57.1480   27.1290   45.3540 C   0  0  0  0  0  0  0  0  0  0  0  0
   56.7490   28.4970   45.4680 O   0  0  0  0  0  0  0  0  0  0  0  0
   57.0930   29.5020   44.5480 C   0  0  0  0  0  0  0  0  0  0  0  0
   56.3250   29.7350   43.3890 C   0  0  0  0  0  0  0  0  0  0  0  0
   56.6540   30.7800   42.5220 C   0  0  0  0  0  0  0  0  0  0  0  0
   57.7480   31.6040   42.7980 C   0  0  0  0  0  0  0  0  0  0  0  0
   58.5270   31.3780   43.9340 C   0  0  0  0  0  0  0  0  0  0  0  0
   58.2180   30.3210   44.8080 C   0  0  0  0  0  0  0  0  0  0  0  0
   59.0790   30.0740   45.9800 C   0  0  0  0  0  0  0  0  0  0  0  0
   60.1940   30.8540   46.2900 C   0  0  0  0  0  0  0  0  0  0  0  0
   60.9610   30.1590   47.6150 S   0  0  0  0  0  0  0  0  0  0  0  0
   59.8520   28.9070   47.7320 C   0  0  0  0  0  0  0  0  0  0  0  0
   60.0230   27.4970   48.8250 S   0  0  0  0  0  0  0  0  0  0  0  0
   60.9580   28.3970   50.1190 C   0  0  0  0  0  0  0  0  0  0  0  0
   60.0960   29.4210   50.8140 C   0  0  0  0  0  0  0  0  0  0  0  0
   58.9100   29.8740   50.2120 C   0  0  0  0  0  0  0  0  0  0  0  0
   58.1800   30.9150   50.7880 C   0  0  0  0  0  0  0  0  0  0  0  0
   58.6110   31.5040   51.9860 C   0  0  0  0  0  0  0  0  0  0  0  0
   57.8540   32.6680   52.5620 C   0  0  0  0  0  0  0  0  0  0  0  0
   58.9800   34.0700   52.8780 S   0  0  0  0  0  0  0  0  0  0  0  0
   59.9230   33.8560   51.3720 C   0  0  0  0  0  0  0  0  0  0  0  0
   61.2580   33.6270   51.4430 N   0  0  0  0  0  0  0  0  0  0  0  0
   62.0040   33.4630   50.3210 C   0  0  0  0  0  0  0  0  0  0  0  0
   63.2380   33.2370   50.4270 O   0  0  0  0  0  0  0  0  0  0  0  0
   61.3940   33.5430   49.0590 C   0  0  0  0  0  0  0  0  0  0  0  0
   62.1780   33.3070   47.8650 C   0  0  0  0  0  0  0  0  0  0  0  0
   62.8030   33.1200   46.9090 N   0  0  0  0  0  0  0  0  0  0  0  0
   60.0080   33.8100   49.0030 C   0  0  0  0  0  0  0  0  0  0  0  0
   59.2790   33.9550   47.7220 C   0  0  0  0  0  0  0  0  0  0  0  0
   59.7940   34.7880   46.7110 C   0  0  0  0  0  0  0  0  0  0  0  0
   59.1050   34.9440   45.5020 C   0  0  0  0  0  0  0  0  0  0  0  0
   57.9140   34.2410   45.2820 C   0  0  0  0  0  0  0  0  0  0  0  0
   57.4120   33.3820   46.2690 C   0  0  0  0  0  0  0  0  0  0  0  0
   58.0880   33.2440   47.4860 C   0  0  0  0  0  0  0  0  0  0  0  0
   59.3110   33.9530   50.1640 N   0  0  0  0  0  0  0  0  0  0  0  0
   59.7800   31.0350   52.6050 C   0  0  0  0  0  0  0  0  0  0  0  0
   60.5180   30.0000   52.0220 C   0  0  0  0  0  0  0  0  0  0  0  0
   58.8930   28.9950   46.7860 N   0  0  0  0  0  0  0  0  0  0  0  0
   57.2735   26.6987   46.3585 H   0  0  0  0  0  0  0  0  0  0  0  0
   56.3765   26.5663   44.8079 H   0  0  0  0  0  0  0  0  0  0  0  0
   58.1010   27.0693   44.8079 H   0  0  0  0  0  0  0  0  0  0  0  0
   55.4619   29.0905   43.1660 H   0  0  0  0  0  0  0  0  0  0  0  0
   56.0499   30.9545   41.6194 H   0  0  0  0  0  0  0  0  0  0  0  0
   57.9960   32.4327   42.1185 H   0  0  0  0  0  0  0  0  0  0  0  0
   59.3870   32.0302   44.1465 H   0  0  0  0  0  0  0  0  0  0  0  0
   60.5146   31.7634   45.7607 H   0  0  0  0  0  0  0  0  0  0  0  0
   61.3243   27.6743   50.8630 H   0  0  0  0  0  0  0  0  0  0  0  0
   61.7957   28.9219   49.6367 H   0  0  0  0  0  0  0  0  0  0  0  0
   58.5550   29.4059   49.2820 H   0  0  0  0  0  0  0  0  0  0  0  0
   57.2623   31.2753   50.3001 H   0  0  0  0  0  0  0  0  0  0  0  0
   57.0762   32.9818   51.8503 H   0  0  0  0  0  0  0  0  0  0  0  0
   57.3956   32.3587   53.5129 H   0  0  0  0  0  0  0  0  0  0  0  0
   60.7435   35.3197   46.8716 H   0  0  0  0  0  0  0  0  0  0  0  0
   59.4986   35.6175   44.7265 H   0  0  0  0  0  0  0  0  0  0  0  0
   57.3716   34.3632   44.3329 H   0  0  0  0  0  0  0  0  0  0  0  0
   56.4864   32.8163   46.0868 H   0  0  0  0  0  0  0  0  0  0  0  0
   57.6864   32.5762   48.2624 H   0  0  0  0  0  0  0  0  0  0  0  0
   60.1168   31.4829   53.5516 H   0  0  0  0  0  0  0  0  0  0  0  0
   61.4337   29.6375   52.5120 H   0  0  0  0  0  0  0  0  0  0  0  0
  1  2  1  0
  2  3  1  0
  3  4  2  0
  4  5  1  0
  5  6  2  0
  6  7  1  0
  7  8  2  0
  8  9  1  0
  9 10  2  0
 10 11  1  0
 11 12  1  0
 12 13  1  0
 13 14  1  0
 14 15  1  0
 15 16  2  0
 16 17  1  0
 17 18  2  0
 18 19  1  0
 19 20  1  0
 20 21  1  0
 21 22  2  0
 22 23  1  0
 23 24  2  0
 23 25  1  0
 25 26  1  0
 26 27  3  0
 25 28  2  0
 28 29  1  0
 29 30  2  0
 30 31  1  0
 31 32  2  0
 32 33  1  0
 33 34  2  0
 28 35  1  0
 18 36  1  0
 36 37  2  0
 12 38  2  0
  8  3  1  0
 38  9  1  0
 37 15  1  0
 35 21  1  0
 34 29  1  0
  1 39  1  0
  1 40  1  0
  1 41  1  0
  4 42  1  0
  5 43  1  0
  6 44  1  0
  7 45  1  0
 10 46  1  0
 14 47  1  0
 14 48  1  0
 16 49  1  0
 17 50  1  0
 19 51  1  0
 19 52  1  0
 30 53  1  0
 31 54  1  0
 32 55  1  0
 33 56  1  0
 34 57  1  0
 36 58  1  0
 37 59  1  0
M  CHG  1  35  -1
M  END
>  <UniqueID>  (29) 
28

>  <SMILES>  (29) 
COc1ccccc1-c1csc(SCc2ccc(CSc3nc(=O)c(C#N)c(-c4ccccc4)[n-]3)cc2)n1

>  <Energy>  (29) 
88.72099279530188

>  <Genealogy>  (29) 
COc1ccccc1-c1csc(SCc2ccc(CSc3nc(=O)c(C#N)c(-c4ccccc4)[n-]3)cc2)n1 (protonated)
COc1ccccc1-c1csc(SCc2ccc(CSc3nc(=O)c(C#N)c(-c4ccccc4)[n-]3)cc2)n1 (3D coordinates assigned)
COc1ccccc1-c1csc(SCc2ccc(CSc3nc(=O)c(C#N)c(-c4ccccc4)[n-]3)cc2)n1 (optimized conformer: 88.72099279530188 kcal/mol)

>  <smiles>  (29) 
COc1ccccc1-c1csc(SCc2ccc(CSc3nc(=O)c(C#N)c(-c4ccccc4)[nH]3)cc2)n1

>  <score_type>  (29) 
oracle

>  <origin>  (29) 
adg

>  <m_score__min__energy>  (29) 
-10.34

>  <m_primary>  (29) 
energy

$$$$
29:0
     RDKit          3D

 51 53  0  0  0  0  0  0  0  0999 V2000
   61.2040   30.7030   47.1200 N   0  0  0  0  0  0  0  0  0  0  0  0
   62.0820   31.7280   47.6000 C   0  0  0  0  0  0  0  0  0  0  0  0
   62.4020   32.8020   46.7500 C   0  0  0  0  0  0  0  0  0  0  0  0
   63.3360   33.7630   47.1410 C   0  0  0  0  0  0  0  0  0  0  0  0
   63.9670   33.6580   48.3810 C   0  0  0  0  0  0  0  0  0  0  0  0
   63.6450   32.6080   49.2430 C   0  0  0  0  0  0  0  0  0  0  0  0
   62.6840   31.6550   48.8790 C   0  0  0  0  0  0  0  0  0  0  0  0
   62.3610   30.6270   49.8280 N   0  0  0  0  0  0  0  0  0  0  0  0
   61.0350   30.1710   50.1220 C   0  0  0  0  0  0  0  0  0  0  0  0
   60.6050   29.1070   49.6020 O   0  0  0  0  0  0  0  0  0  0  0  0
   60.2070   30.9660   51.0520 C   0  0  0  0  0  0  0  0  0  0  0  0
   59.5240   32.0840   50.7490 C   0  0  0  0  0  0  0  0  0  0  0  0
   59.3210   32.6130   49.3860 C   0  0  0  0  0  0  0  0  0  0  0  0
   59.5560   33.9700   49.1070 C   0  0  0  0  0  0  0  0  0  0  0  0
   59.3400   34.4740   47.8220 C   0  0  0  0  0  0  0  0  0  0  0  0
   58.8820   33.6300   46.7990 C   0  0  0  0  0  0  0  0  0  0  0  0
   58.6530   34.1480   45.4360 C   0  0  0  0  0  0  0  0  0  0  0  0
   59.2370   35.2060   45.0810 O   0  0  0  0  0  0  0  0  0  0  0  0
   57.7710   33.5030   44.5060 N   0  0  0  0  0  0  0  0  0  0  0  0
   57.9920   32.2160   43.8460 C   0  0  0  0  0  0  0  0  0  0  0  0
   56.8620   31.2210   44.1420 C   0  0  0  0  0  0  0  0  0  0  0  0
   57.3840   29.9290   44.7310 C   0  0  0  0  0  0  0  0  0  0  0  0
   58.7650   29.7760   44.9400 C   0  0  0  0  0  0  0  0  0  0  0  0
   59.2720   28.5890   45.4780 C   0  0  0  0  0  0  0  0  0  0  0  0
   58.4050   27.5450   45.8150 C   0  0  0  0  0  0  0  0  0  0  0  0
   57.0300   27.6840   45.6100 C   0  0  0  0  0  0  0  0  0  0  0  0
   56.5150   28.8680   45.0680 C   0  0  0  0  0  0  0  0  0  0  0  0
   55.1410   28.9800   44.8790 O   0  0  0  0  0  0  0  0  0  0  0  0
   58.5870   32.2910   47.0940 C   0  0  0  0  0  0  0  0  0  0  0  0
   58.8050   31.7800   48.3800 C   0  0  0  0  0  0  0  0  0  0  0  0
   58.5200   30.4420   48.6580 O   0  0  0  0  0  0  0  0  0  0  0  0
   60.5240   30.2450   47.7690 H   0  0  0  0  0  0  0  0  0  0  0  0
   61.1780   30.4230   46.1150 H   0  0  0  0  0  0  0  0  0  0  0  0
   61.9121   32.8854   45.7687 H   0  0  0  0  0  0  0  0  0  0  0  0
   63.5744   34.6028   46.4717 H   0  0  0  0  0  0  0  0  0  0  0  0
   64.7189   34.4032   48.6797 H   0  0  0  0  0  0  0  0  0  0  0  0
   64.1502   32.5280   50.2168 H   0  0  0  0  0  0  0  0  0  0  0  0
   60.1431   30.6096   52.0907 H   0  0  0  0  0  0  0  0  0  0  0  0
   59.0816   32.6490   51.5827 H   0  0  0  0  0  0  0  0  0  0  0  0
   59.9119   34.6389   49.9044 H   0  0  0  0  0  0  0  0  0  0  0  0
   59.5298   35.5368   47.6114 H   0  0  0  0  0  0  0  0  0  0  0  0
   58.0477   32.3782   42.7595 H   0  0  0  0  0  0  0  0  0  0  0  0
   58.9306   31.7913   44.2316 H   0  0  0  0  0  0  0  0  0  0  0  0
   56.1628   31.6800   44.8565 H   0  0  0  0  0  0  0  0  0  0  0  0
   56.3613   30.9832   43.1919 H   0  0  0  0  0  0  0  0  0  0  0  0
   59.4515   30.5949   44.6788 H   0  0  0  0  0  0  0  0  0  0  0  0
   60.3547   28.4764   45.6364 H   0  0  0  0  0  0  0  0  0  0  0  0
   58.8058   26.6137   46.2418 H   0  0  0  0  0  0  0  0  0  0  0  0
   56.3500   26.8610   45.8751 H   0  0  0  0  0  0  0  0  0  0  0  0
   58.1809   31.6364   46.3088 H   0  0  0  0  0  0  0  0  0  0  0  0
   59.2530   29.7510   48.7680 H   0  0  0  0  0  0  0  0  0  0  0  0
  1  2  1  0
  2  3  2  0
  3  4  1  0
  4  5  2  0
  5  6  1  0
  6  7  2  0
  7  8  1  0
  8  9  1  0
  9 10  2  0
  9 11  1  0
 11 12  2  3
 12 13  1  0
 13 14  2  0
 14 15  1  0
 15 16  2  0
 16 17  1  0
 17 18  2  0
 17 19  1  0
 19 20  1  0
 20 21  1  0
 21 22  1  0
 22 23  2  0
 23 24  1  0
 24 25  2  0
 25 26  1  0
 26 27  2  0
 27 28  1  0
 16 29  1  0
 29 30  2  0
 30 31  1  0
  7  2  1  0
 30 13  1  0
 27 22  1  0
  1 32  1  0
  1 33  1  0
  3 34  1  0
  4 35  1  0
  5 36  1  0
  6 37  1  0
 11 38  1  0
 12 39  1  0
 14 40  1  0
 15 41  1  0
 20 42  1  0
 20 43  1  0
 21 44  1  0
 21 45  1  0
 23 46  1  0
 24 47  1  0
 25 48  1  0
 26 49  1  0
 29 50  1  0
 31 51  1  0
M  CHG  3   8  -1  19  -1  28  -1
M  END
>  <UniqueID>  (30) 
29

>  <SMILES>  (30) 
Nc1ccccc1[N-]C(=O)C=Cc1ccc(C(=O)[N-]CCc2ccccc2[O-])cc1O

>  <Energy>  (30) 
70.01618858767529

>  <Genealogy>  (30) 
Nc1ccccc1[N-]C(=O)C=Cc1ccc(C(=O)[N-]CCc2ccccc2[O-])cc1O (protonated)
Nc1ccccc1[N-]C(=O)C=Cc1ccc(C(=O)[N-]CCc2ccccc2[O-])cc1O (3D coordinates assigned)
Nc1ccccc1[N-]C(=O)C=Cc1ccc(C(=O)[N-]CCc2ccccc2[O-])cc1O (optimized conformer: 70.01618858767529 kcal/mol)

>  <smiles>  (30) 
Nc1ccccc1NC(=O)C=Cc1ccc(C(=O)NCCc2ccccc2O)cc1O

>  <score_type>  (30) 
oracle

>  <origin>  (30) 
adg

>  <m_score__min__energy>  (30) 
-14.369999999999999

>  <m_primary>  (30) 
energy

$$$$
30:0
     RDKit          3D

 24 25  0  0  0  0  0  0  0  0999 V2000
   60.3781   29.5635   45.1197 H   0  0  0  0  0  0  0  0  0  0  0  0
   59.2880   29.4340   45.0490 C   0  0  0  0  0  0  0  0  0  0  0  0
   58.6570   28.5370   45.8510 N   0  0  0  0  0  0  0  0  0  0  0  0
   57.3120   28.3290   45.8070 C   0  0  0  0  0  0  0  0  0  0  0  0
   56.8130   27.4340   46.6170 N   0  0  0  0  0  0  0  0  0  0  0  0
   57.1910   26.0600   46.7920 C   0  0  0  0  0  0  0  0  0  0  0  0
   58.0660   25.7600   47.6490 O   0  0  0  0  0  0  0  0  0  0  0  0
   56.4670   24.9880   46.0600 C   0  0  0  0  0  0  0  0  0  0  0  0
   55.1090   25.1510   45.6950 C   0  0  0  0  0  0  0  0  0  0  0  0
   54.4200   26.3220   45.9930 O   0  0  0  0  0  0  0  0  0  0  0  0
   54.4360   24.1350   45.0090 C   0  0  0  0  0  0  0  0  0  0  0  0
   53.3796   24.2686   44.7329 H   0  0  0  0  0  0  0  0  0  0  0  0
   55.0960   22.9540   44.6730 C   0  0  0  0  0  0  0  0  0  0  0  0
   54.5615   22.1613   44.1290 H   0  0  0  0  0  0  0  0  0  0  0  0
   56.4330   22.7770   45.0260 C   0  0  0  0  0  0  0  0  0  0  0  0
   56.9506   21.8440   44.7584 H   0  0  0  0  0  0  0  0  0  0  0  0
   57.1200   23.7800   45.7190 C   0  0  0  0  0  0  0  0  0  0  0  0
   58.4440   23.5520   46.0790 O   0  0  0  0  0  0  0  0  0  0  0  0
   56.5310   29.1160   44.9210 C   0  0  0  0  0  0  0  0  0  0  0  0
   55.1430   29.0560   44.8930 O   0  0  0  0  0  0  0  0  0  0  0  0
   57.1720   30.0300   44.0790 C   0  0  0  0  0  0  0  0  0  0  0  0
   56.5820   30.6259   43.3671 H   0  0  0  0  0  0  0  0  0  0  0  0
   58.5550   30.1890   44.1380 C   0  0  0  0  0  0  0  0  0  0  0  0
   59.0617   30.9031   43.4722 H   0  0  0  0  0  0  0  0  0  0  0  0
  1  2  1  0
  2  3  1  0
  3  4  1  0
  4  5  2  0
  5  6  1  0
  6  7  2  0
  6  8  1  0
  8  9  2  0
  9 10  1  0
  9 11  1  0
 11 12  1  0
 11 13  2  0
 13 14  1  0
 13 15  1  0
 15 16  1  0
 15 17  2  0
 17 18  1  0
  4 19  1  0
 19 20  1  0
 19 21  2  0
 21 22  1  0
 21 23  1  0
 23 24  1  0
 23  2  2  0
 17  8  1  0
M  CHG  4   3  -1  10  -1  18  -1  20  -1
M  END
>  <UniqueID>  (31) 
30

>  <SMILES>  (31) 
O=C(/N=c1/[n-]cccc1[O-])c1c([O-])cccc1[O-]

>  <Energy>  (31) 
42.587627440466804

>  <Genealogy>  (31) 
O=C(N=c1[n-]cccc1[O-])c1c([O-])cccc1[O-] (protonated)
O=C(/N=c1/[n-]cccc1[O-])c1c([O-])cccc1[O-] (cis-trans isomerization)
O=C(/N=c1/[n-]cccc1[O-])c1c([O-])cccc1[O-] (3D coordinates assigned)
O=C(/N=c1/[n-]cccc1[O-])c1c([O-])cccc1[O-] (optimized conformer: 42.587627440466804 kcal/mol)

>  <smiles>  (31) 
O=C(N=c1[nH]cccc1O)c1c(O)cccc1O

>  <score_type>  (31) 
oracle

>  <origin>  (31) 
adg

>  <m_score__min__energy>  (31) 
-15.970000000000001

>  <m_primary>  (31) 
energy

$$$$
31:0
     RDKit          3D

 56 59  0  0  0  0  0  0  0  0999 V2000
   57.8040   29.9910   43.3680 O   0  0  0  0  0  0  0  0  0  0  0  0
   57.5560   29.6970   44.5670 C   0  0  0  0  0  0  0  0  0  0  0  0
   57.0370   30.7120   45.4370 N   0  0  0  0  0  0  0  0  0  0  0  0
   57.6650   31.9700   45.7240 C   0  0  0  0  0  0  0  0  0  0  0  0
   57.6560   33.0270   44.7960 C   0  0  0  0  0  0  0  0  0  0  0  0
   58.3220   34.2200   45.0820 C   0  0  0  0  0  0  0  0  0  0  0  0
   59.0200   34.3630   46.2830 C   0  0  0  0  0  0  0  0  0  0  0  0
   59.0470   33.3140   47.2130 C   0  0  0  0  0  0  0  0  0  0  0  0
   59.9540   33.4900   48.7170 S   0  0  0  0  0  0  0  0  0  0  0  0
   59.1570   32.9070   49.8510 O   0  0  0  0  0  0  0  0  0  0  0  0
   60.1630   34.9550   48.9880 O   0  0  0  0  0  0  0  0  0  0  0  0
   61.5050   32.6920   48.5940 N   0  0  0  0  0  0  0  0  0  0  0  0
   62.5220   33.4300   49.3690 C   0  0  0  0  0  0  0  0  0  0  0  0
   63.9360   33.1010   48.8610 C   0  0  0  0  0  0  0  0  0  0  0  0
   64.1540   33.4570   47.5020 O   0  0  0  0  0  0  0  0  0  0  0  0
   62.9650   33.5040   46.7250 C   0  0  0  0  0  0  0  0  0  0  0  0
   61.8940   32.4950   47.1780 C   0  0  0  0  0  0  0  0  0  0  0  0
   58.3680   32.1190   46.9270 C   0  0  0  0  0  0  0  0  0  0  0  0
   57.8850   28.3450   45.0720 C   0  0  0  0  0  0  0  0  0  0  0  0
   56.8370   27.4540   45.3540 C   0  0  0  0  0  0  0  0  0  0  0  0
   57.1000   26.1530   45.8020 C   0  0  0  0  0  0  0  0  0  0  0  0
   55.7670   25.0520   46.1600 S   0  0  0  0  0  0  0  0  0  0  0  0
   54.4600   25.7730   45.9780 O   0  0  0  0  0  0  0  0  0  0  0  0
   55.8700   24.6100   47.5950 O   0  0  0  0  0  0  0  0  0  0  0  0
   55.8480   23.6410   45.1260 N   0  0  0  0  0  0  0  0  0  0  0  0
   55.9640   24.0330   43.7200 C   0  0  0  0  0  0  0  0  0  0  0  0
   56.7520   22.9410   43.0320 C   0  0  0  0  0  0  0  0  0  0  0  0
   57.7030   22.4590   44.1030 C   0  0  0  0  0  0  0  0  0  0  0  0
   57.0120   22.7890   45.4210 C   0  0  0  0  0  0  0  0  0  0  0  0
   58.4280   25.7470   45.9860 C   0  0  0  0  0  0  0  0  0  0  0  0
   59.4780   26.6290   45.7230 C   0  0  0  0  0  0  0  0  0  0  0  0
   59.2180   27.9260   45.2680 C   0  0  0  0  0  0  0  0  0  0  0  0
   60.5860   28.9690   44.8950 Cl  0  0  0  0  0  0  0  0  0  0  0  0
   57.1220   32.9131   43.8411 H   0  0  0  0  0  0  0  0  0  0  0  0
   58.2969   35.0493   44.3597 H   0  0  0  0  0  0  0  0  0  0  0  0
   59.5505   35.3018   46.5002 H   0  0  0  0  0  0  0  0  0  0  0  0
   62.3426   34.5102   49.2639 H   0  0  0  0  0  0  0  0  0  0  0  0
   62.4471   33.1321   50.4252 H   0  0  0  0  0  0  0  0  0  0  0  0
   64.6631   33.6439   49.4828 H   0  0  0  0  0  0  0  0  0  0  0  0
   64.0556   32.0097   48.9298 H   0  0  0  0  0  0  0  0  0  0  0  0
   62.5418   34.5167   46.7974 H   0  0  0  0  0  0  0  0  0  0  0  0
   63.2422   33.2399   45.6938 H   0  0  0  0  0  0  0  0  0  0  0  0
   61.0024   32.6163   46.5452 H   0  0  0  0  0  0  0  0  0  0  0  0
   62.3183   31.4848   47.0811 H   0  0  0  0  0  0  0  0  0  0  0  0
   58.3880   31.2930   47.6531 H   0  0  0  0  0  0  0  0  0  0  0  0
   55.7955   27.7820   45.2213 H   0  0  0  0  0  0  0  0  0  0  0  0
   54.9655   24.1236   43.2674 H   0  0  0  0  0  0  0  0  0  0  0  0
   56.4642   25.0075   43.6193 H   0  0  0  0  0  0  0  0  0  0  0  0
   56.0893   22.1280   42.7006 H   0  0  0  0  0  0  0  0  0  0  0  0
   57.2702   23.2932   42.1279 H   0  0  0  0  0  0  0  0  0  0  0  0
   57.8685   21.3752   44.0139 H   0  0  0  0  0  0  0  0  0  0  0  0
   58.6911   22.9358   44.0235 H   0  0  0  0  0  0  0  0  0  0  0  0
   56.6807   21.8615   45.9108 H   0  0  0  0  0  0  0  0  0  0  0  0
   57.7063   23.3121   46.0950 H   0  0  0  0  0  0  0  0  0  0  0  0
   58.6447   24.7281   46.3395 H   0  0  0  0  0  0  0  0  0  0  0  0
   60.5171   26.3016   45.8747 H   0  0  0  0  0  0  0  0  0  0  0  0
  1  2  2  0
  2  3  1  0
  3  4  1  0
  4  5  2  0
  5  6  1  0
  6  7  2  0
  7  8  1  0
  8  9  1  0
  9 10  2  0
  9 11  2  0
  9 12  1  0
 12 13  1  0
 13 14  1  0
 14 15  1  0
 15 16  1  0
 16 17  1  0
  8 18  2  0
  2 19  1  0
 19 20  2  0
 20 21  1  0
 21 22  1  0
 22 23  2  0
 22 24  2  0
 22 25  1  0
 25 26  1  0
 26 27  1  0
 27 28  1  0
 28 29  1  0
 21 30  2  0
 30 31  1  0
 31 32  2  0
 32 33  1  0
 18  4  1  0
 32 19  1  0
 17 12  1  0
 29 25  1  0
  5 34  1  0
  6 35  1  0
  7 36  1  0
 13 37  1  0
 13 38  1  0
 14 39  1  0
 14 40  1  0
 16 41  1  0
 16 42  1  0
 17 43  1  0
 17 44  1  0
 18 45  1  0
 20 46  1  0
 26 47  1  0
 26 48  1  0
 27 49  1  0
 27 50  1  0
 28 51  1  0
 28 52  1  0
 29 53  1  0
 29 54  1  0
 30 55  1  0
 31 56  1  0
M  CHG  1   3  -1
M  END
>  <UniqueID>  (32) 
31

>  <SMILES>  (32) 
O=C([N-]c1cccc(S(=O)(=O)N2CCOCC2)c1)c1cc(S(=O)(=O)N2CCCC2)ccc1Cl

>  <Energy>  (32) 
77.48316080296296

>  <Genealogy>  (32) 
O=C([N-]c1cccc(S(=O)(=O)N2CCOCC2)c1)c1cc(S(=O)(=O)N2CCCC2)ccc1Cl (protonated)
O=C([N-]c1cccc(S(=O)(=O)N2CCOCC2)c1)c1cc(S(=O)(=O)N2CCCC2)ccc1Cl (3D coordinates assigned)
O=C([N-]c1cccc(S(=O)(=O)N2CCOCC2)c1)c1cc(S(=O)(=O)N2CCCC2)ccc1Cl (nonaromatic ring conformer: 77.48316080296296 kcal/mol)

>  <smiles>  (32) 
O=C(Nc1cccc(S(=O)(=O)N2CCOCC2)c1)c1cc(S(=O)(=O)N2CCCC2)ccc1Cl

>  <score_type>  (32) 
oracle

>  <origin>  (32) 
adg

>  <m_score__min__energy>  (32) 
-13.140000000000001

>  <m_primary>  (32) 
energy

$$$$
32:0
     RDKit          3D

 33 34  0  0  0  0  0  0  0  0999 V2000
   57.2860   31.8060   44.8350 H   0  0  0  0  0  0  0  0  0  0  0  0
   56.6160   31.1230   44.4130 N   0  0  0  0  0  0  0  0  0  0  0  0
   56.4770   29.9230   44.8820 C   0  0  0  0  0  0  0  0  0  0  0  0
   57.5730   29.3050   45.6690 C   0  0  0  0  0  0  0  0  0  0  0  0
   57.8030   27.9120   45.6530 C   0  0  0  0  0  0  0  0  0  0  0  0
   56.9820   27.0710   44.8880 O   0  0  0  0  0  0  0  0  0  0  0  0
   56.6680   25.7480   45.2270 C   0  0  0  0  0  0  0  0  0  0  0  0
   57.6240   24.7540   44.9930 C   0  0  0  0  0  0  0  0  0  0  0  0
   58.5941   25.0238   44.5502 H   0  0  0  0  0  0  0  0  0  0  0  0
   57.3570   23.4210   45.3170 C   0  0  0  0  0  0  0  0  0  0  0  0
   58.1251   22.6526   45.1452 H   0  0  0  0  0  0  0  0  0  0  0  0
   56.1110   23.0550   45.8620 C   0  0  0  0  0  0  0  0  0  0  0  0
   55.7800   21.6580   46.2360 C   0  0  0  0  0  0  0  0  0  0  0  0
   55.5153   20.9550   45.4324 H   0  0  0  0  0  0  0  0  0  0  0  0
   55.7850   21.2030   47.4980 C   0  0  0  0  0  0  0  0  0  0  0  0
   54.8872   20.6987   47.8847 H   0  0  0  0  0  0  0  0  0  0  0  0
   56.9520   21.3560   48.3830 C   0  0  0  0  0  0  0  0  0  0  0  0
   57.7390   20.3950   48.5980 O   0  0  0  0  0  0  0  0  0  0  0  0
   57.1870   22.5800   48.9950 O   0  0  0  0  0  0  0  0  0  0  0  0
   55.1500   24.0550   46.0840 C   0  0  0  0  0  0  0  0  0  0  0  0
   54.1778   23.7863   46.5228 H   0  0  0  0  0  0  0  0  0  0  0  0
   55.4140   25.3880   45.7540 C   0  0  0  0  0  0  0  0  0  0  0  0
   54.4160   26.3410   45.9250 O   0  0  0  0  0  0  0  0  0  0  0  0
   58.8370   27.3880   46.3710 N   0  0  0  0  0  0  0  0  0  0  0  0
   59.6590   28.1620   47.1260 C   0  0  0  0  0  0  0  0  0  0  0  0
   60.4793   27.7007   47.6955 H   0  0  0  0  0  0  0  0  0  0  0  0
   59.4630   29.5400   47.1790 C   0  0  0  0  0  0  0  0  0  0  0  0
   60.1235   30.1715   47.7914 H   0  0  0  0  0  0  0  0  0  0  0  0
   58.4210   30.1120   46.4480 C   0  0  0  0  0  0  0  0  0  0  0  0
   58.2622   31.2000   46.4814 H   0  0  0  0  0  0  0  0  0  0  0  0
   55.2570   29.2090   44.6460 N   0  0  0  0  0  0  0  0  0  0  0  0
   54.4640   29.6630   44.1420 H   0  0  0  0  0  0  0  0  0  0  0  0
   55.1590   28.2040   44.9120 H   0  0  0  0  0  0  0  0  0  0  0  0
  1  2  1  0
  2  3  2  0
  3  4  1  0
  4  5  2  0
  5  6  1  0
  6  7  1  0
  7  8  2  0
  8  9  1  0
  8 10  1  0
 10 11  1  0
 10 12  2  0
 12 13  1  0
 13 14  1  0
 13 15  2  3
 15 16  1  0
 15 17  1  0
 17 18  2  0
 17 19  1  0
 12 20  1  0
 20 21  1  0
 20 22  2  0
 22 23  1  0
  5 24  1  0
 24 25  2  0
 25 26  1  0
 25 27  1  0
 27 28  1  0
 27 29  2  0
 29 30  1  0
  3 31  1  0
 31 32  1  0
 31 33  1  0
 29  4  1  0
 22  7  1  0
M  CHG  2  19  -1  23  -1
M  END
>  <UniqueID>  (33) 
32

>  <SMILES>  (33) 
[H]/N=C(\N)c1cccnc1Oc1ccc(C=CC(=O)[O-])cc1[O-]

>  <Energy>  (33) 
45.00809327564739

>  <Genealogy>  (33) 
N=C(N)c1cccnc1Oc1ccc(C=CC(=O)[O-])cc1[O-] (protonated)
[H]/N=C(\N)c1cccnc1Oc1ccc(C=CC(=O)[O-])cc1[O-] (cis-trans isomerization)
[H]/N=C(\N)c1cccnc1Oc1ccc(C=CC(=O)[O-])cc1[O-] (3D coordinates assigned)
[H]/N=C(\N)c1cccnc1Oc1ccc(C=CC(=O)[O-])cc1[O-] (optimized conformer: 45.00809327564739 kcal/mol)

>  <smiles>  (33) 
N=C(N)c1cccnc1Oc1ccc(C=CC(=O)O)cc1O

>  <score_type>  (33) 
oracle

>  <origin>  (33) 
adg

>  <m_score__min__energy>  (33) 
-12.720000000000001

>  <m_primary>  (33) 
energy

$$$$
33:0
     RDKit          3D

 35 37  0  0  0  0  0  0  0  0999 V2000
   55.4864   29.2167   42.3169 H   0  0  0  0  0  0  0  0  0  0  0  0
   56.2590   29.9130   42.6750 C   0  0  0  0  0  0  0  0  0  0  0  0
   56.5500   30.7762   42.0583 H   0  0  0  0  0  0  0  0  0  0  0  0
   56.8420   29.7110   43.8550 C   0  0  0  0  0  0  0  0  0  0  0  0
   57.8210   30.5140   44.4080 C   0  0  0  0  0  0  0  0  0  0  0  0
   58.2521   31.4272   43.9717 H   0  0  0  0  0  0  0  0  0  0  0  0
   58.1490   29.9370   45.6210 C   0  0  0  0  0  0  0  0  0  0  0  0
   59.2380   30.4200   46.5400 C   0  0  0  0  0  0  0  0  0  0  0  0
   59.0159   30.0945   47.5670 H   0  0  0  0  0  0  0  0  0  0  0  0
   60.1977   29.9974   46.2077 H   0  0  0  0  0  0  0  0  0  0  0  0
   59.3290   31.9230   46.5050 C   0  0  0  0  0  0  0  0  0  0  0  0
   58.1670   32.7130   46.5280 C   0  0  0  0  0  0  0  0  0  0  0  0
   57.1782   32.2318   46.5532 H   0  0  0  0  0  0  0  0  0  0  0  0
   58.2620   34.1070   46.5190 C   0  0  0  0  0  0  0  0  0  0  0  0
   57.3485   34.7195   46.5371 H   0  0  0  0  0  0  0  0  0  0  0  0
   59.5160   34.7250   46.4870 C   0  0  0  0  0  0  0  0  0  0  0  0
   59.6060   36.0770   46.4780 F   0  0  0  0  0  0  0  0  0  0  0  0
   60.6770   33.9460   46.4620 C   0  0  0  0  0  0  0  0  0  0  0  0
   61.6636   34.4317   46.4352 H   0  0  0  0  0  0  0  0  0  0  0  0
   60.5860   32.5520   46.4710 C   0  0  0  0  0  0  0  0  0  0  0  0
   61.5022   31.9435   46.4514 H   0  0  0  0  0  0  0  0  0  0  0  0
   57.3550   28.7990   45.7510 C   0  0  0  0  0  0  0  0  0  0  0  0
   57.3930   27.9300   46.7750 C   0  0  0  0  0  0  0  0  0  0  0  0
   57.5600   28.3253   47.7879 H   0  0  0  0  0  0  0  0  0  0  0  0
   57.2220   26.4690   46.6120 C   0  0  0  0  0  0  0  0  0  0  0  0
   55.9880   25.9090   46.2380 C   0  0  0  0  0  0  0  0  0  0  0  0
   54.8820   26.7160   45.9980 O   0  0  0  0  0  0  0  0  0  0  0  0
   55.8630   24.5610   46.1250 N   0  0  0  0  0  0  0  0  0  0  0  0
   56.9090   23.7350   46.3870 C   0  0  0  0  0  0  0  0  0  0  0  0
   56.7710   22.4900   46.2730 O   0  0  0  0  0  0  0  0  0  0  0  0
   58.1020   24.2520   46.7790 N   0  0  0  0  0  0  0  0  0  0  0  0
   58.2790   25.5930   46.9050 C   0  0  0  0  0  0  0  0  0  0  0  0
   59.3980   26.0360   47.2760 O   0  0  0  0  0  0  0  0  0  0  0  0
   56.5600   28.6720   44.6650 N   0  0  0  0  0  0  0  0  0  0  0  0
   55.8820   27.9030   44.4610 H   0  0  0  0  0  0  0  0  0  0  0  0
  1  2  1  0
  2  3  1  0
  2  4  2  0
  4  5  1  0
  5  6  1  0
  5  7  2  0
  7  8  1  0
  8  9  1  0
  8 10  1  0
  8 11  1  0
 11 12  2  0
 12 13  1  0
 12 14  1  0
 14 15  1  0
 14 16  2  0
 16 17  1  0
 16 18  1  0
 18 19  1  0
 18 20  2  0
 20 21  1  0
  7 22  1  0
 22 23  2  0
 23 24  1  0
 23 25  1  0
 25 26  2  0
 26 27  1  0
 26 28  1  0
 28 29  1  0
 29 30  2  0
 29 31  1  0
 31 32  1  0
 32 33  2  0
 22 34  1  0
 34 35  1  0
 34  4  1  0
 20 11  1  0
 32 25  1  0
M  CHG  3  27  -1  28  -1  31  -1
M  END
>  <UniqueID>  (34) 
33

>  <SMILES>  (34) 
C=c1cc(Cc2ccc(F)cc2)/c(=C/c2c([O-])[n-]c(=O)[n-]c2=O)[nH]1

>  <Energy>  (34) 
71.26150342654557

>  <Genealogy>  (34) 
C=c1cc(Cc2ccc(F)cc2)c(=Cc2c([O-])[n-]c(=O)[n-]c2=O)[nH]1 (protonated)
C=c1cc(Cc2ccc(F)cc2)/c(=C/c2c([O-])[n-]c(=O)[n-]c2=O)[nH]1 (cis-trans isomerization)
C=c1cc(Cc2ccc(F)cc2)/c(=C/c2c([O-])[n-]c(=O)[n-]c2=O)[nH]1 (3D coordinates assigned)
C=c1cc(Cc2ccc(F)cc2)/c(=C/c2c([O-])[n-]c(=O)[n-]c2=O)[nH]1 (optimized conformer: 71.26150342654557 kcal/mol)

>  <smiles>  (34) 
C=c1cc(Cc2ccc(F)cc2)c(=Cc2c(O)[nH]c(=O)[nH]c2=O)[nH]1

>  <score_type>  (34) 
oracle

>  <origin>  (34) 
adg

>  <m_score__min__energy>  (34) 
-15.25

>  <m_primary>  (34) 
energy

$$$$
34:0
     RDKit          3D

 34 36  0  0  0  0  0  0  0  0999 V2000
   61.9500   33.4550   53.6210 C   0  0  0  0  0  0  0  0  0  0  0  0
   62.2940   33.3870   52.1690 C   0  0  0  0  0  0  0  0  0  0  0  0
   63.0250   34.2800   51.6620 O   0  0  0  0  0  0  0  0  0  0  0  0
   61.8590   32.2670   51.3830 N   0  0  0  0  0  0  0  0  0  0  0  0
   62.0200   32.1890   49.9560 C   0  0  0  0  0  0  0  0  0  0  0  0
   63.3040   32.2460   49.3870 C   0  0  0  0  0  0  0  0  0  0  0  0
   63.4690   32.1800   48.0050 C   0  0  0  0  0  0  0  0  0  0  0  0
   62.3570   32.0830   47.1700 C   0  0  0  0  0  0  0  0  0  0  0  0
   61.0620   32.0640   47.7080 C   0  0  0  0  0  0  0  0  0  0  0  0
   59.9220   31.9810   46.7740 C   0  0  0  0  0  0  0  0  0  0  0  0
   59.6590   33.0140   45.8620 C   0  0  0  0  0  0  0  0  0  0  0  0
   58.5810   32.8900   44.9840 C   0  0  0  0  0  0  0  0  0  0  0  0
   58.3360   33.8160   44.1650 O   0  0  0  0  0  0  0  0  0  0  0  0
   57.7900   31.7310   45.0260 C   0  0  0  0  0  0  0  0  0  0  0  0
   56.6900   31.5400   44.1700 C   0  0  0  0  0  0  0  0  0  0  0  0
   55.9370   30.3650   44.2490 C   0  0  0  0  0  0  0  0  0  0  0  0
   56.2740   29.3730   45.1750 C   0  0  0  0  0  0  0  0  0  0  0  0
   55.5220   28.2060   45.2470 O   0  0  0  0  0  0  0  0  0  0  0  0
   57.3660   29.5530   46.0300 C   0  0  0  0  0  0  0  0  0  0  0  0
   58.1260   30.7250   45.9610 C   0  0  0  0  0  0  0  0  0  0  0  0
   59.1610   30.8880   46.7790 O   0  0  0  0  0  0  0  0  0  0  0  0
   60.8900   32.1000   49.1130 C   0  0  0  0  0  0  0  0  0  0  0  0
   59.1410   31.8900   49.8980 Br  0  0  0  0  0  0  0  0  0  0  0  0
   62.8545   33.2762   54.2209 H   0  0  0  0  0  0  0  0  0  0  0  0
   61.5452   34.4505   53.8557 H   0  0  0  0  0  0  0  0  0  0  0  0
   61.1969   32.6883   53.8557 H   0  0  0  0  0  0  0  0  0  0  0  0
   61.4440   31.4510   51.8850 H   0  0  0  0  0  0  0  0  0  0  0  0
   64.1855   32.3435   50.0378 H   0  0  0  0  0  0  0  0  0  0  0  0
   64.4797   32.2045   47.5716 H   0  0  0  0  0  0  0  0  0  0  0  0
   62.4963   32.0209   46.0806 H   0  0  0  0  0  0  0  0  0  0  0  0
   60.2949   33.9113   45.8391 H   0  0  0  0  0  0  0  0  0  0  0  0
   56.4222   32.3160   43.4378 H   0  0  0  0  0  0  0  0  0  0  0  0
   55.0759   30.2202   43.5800 H   0  0  0  0  0  0  0  0  0  0  0  0
   57.6277   28.7712   46.7582 H   0  0  0  0  0  0  0  0  0  0  0  0
  1  2  1  0
  2  3  2  0
  2  4  1  0
  4  5  1  0
  5  6  2  0
  6  7  1  0
  7  8  2  0
  8  9  1  0
  9 10  1  0
 10 11  2  0
 11 12  1  0
 12 13  2  0
 12 14  1  0
 14 15  2  0
 15 16  1  0
 16 17  2  0
 17 18  1  0
 17 19  1  0
 19 20  2  0
 20 21  1  0
  9 22  2  0
 22 23  1  0
 22  5  1  0
 21 10  1  0
 20 14  1  0
  1 24  1  0
  1 25  1  0
  1 26  1  0
  4 27  1  0
  6 28  1  0
  7 29  1  0
  8 30  1  0
 11 31  1  0
 15 32  1  0
 16 33  1  0
 19 34  1  0
M  CHG  1  18  -1
M  END
>  <UniqueID>  (35) 
34

>  <SMILES>  (35) 
CC(=O)Nc1cccc(-c2cc(=O)c3ccc([O-])cc3o2)c1Br

>  <Energy>  (35) 
52.39161771292644

>  <Genealogy>  (35) 
CC(=O)Nc1cccc(-c2cc(=O)c3ccc([O-])cc3o2)c1Br (protonated)
CC(=O)Nc1cccc(-c2cc(=O)c3ccc([O-])cc3o2)c1Br (3D coordinates assigned)
CC(=O)Nc1cccc(-c2cc(=O)c3ccc([O-])cc3o2)c1Br (optimized conformer: 52.39161771292644 kcal/mol)

>  <smiles>  (35) 
CC(=O)Nc1cccc(-c2cc(=O)c3ccc(O)cc3o2)c1Br

>  <score_type>  (35) 
oracle

>  <origin>  (35) 
adg

>  <m_score__min__energy>  (35) 
-9.9100000000000001

>  <m_primary>  (35) 
energy

$$$$
35:0
     RDKit          3D

 67 70  0  0  0  0  0  0  0  0999 V2000
   58.5010   30.7560   49.6680 H   0  0  0  0  0  0  0  0  0  0  0  0
   58.1100   30.0810   50.3570 N   0  0  0  0  0  0  0  0  0  0  0  0
   57.5060   30.5270   51.5700 C   0  0  0  0  0  0  0  0  0  0  0  0
   56.5120   29.8920   52.0200 O   0  0  0  0  0  0  0  0  0  0  0  0
   58.0170   31.7250   52.2960 C   0  0  0  0  0  0  0  0  0  0  0  0
   57.9780   31.7290   53.7060 C   0  0  0  0  0  0  0  0  0  0  0  0
   57.5220   30.8817   54.2390 H   0  0  0  0  0  0  0  0  0  0  0  0
   58.5110   32.7950   54.4340 C   0  0  0  0  0  0  0  0  0  0  0  0
   58.4733   32.7808   55.5333 H   0  0  0  0  0  0  0  0  0  0  0  0
   59.0890   33.8740   53.7750 C   0  0  0  0  0  0  0  0  0  0  0  0
   59.5122   34.7091   54.3525 H   0  0  0  0  0  0  0  0  0  0  0  0
   59.1320   33.8970   52.3790 C   0  0  0  0  0  0  0  0  0  0  0  0
   59.5843   34.7562   51.8621 H   0  0  0  0  0  0  0  0  0  0  0  0
   58.6040   32.8350   51.6300 C   0  0  0  0  0  0  0  0  0  0  0  0
   58.7260   32.8820   50.2390 O   0  0  0  0  0  0  0  0  0  0  0  0
   59.9030   32.4730   49.5410 C   0  0  0  0  0  0  0  0  0  0  0  0
   59.6039   31.9920   48.5980 H   0  0  0  0  0  0  0  0  0  0  0  0
   60.4531   31.7795   50.1940 H   0  0  0  0  0  0  0  0  0  0  0  0
   60.8370   33.6470   49.2190 C   0  0  0  0  0  0  0  0  0  0  0  0
   61.8442   33.2566   49.0114 H   0  0  0  0  0  0  0  0  0  0  0  0
   60.8522   34.3250   50.0850 H   0  0  0  0  0  0  0  0  0  0  0  0
   60.3780   34.3820   48.0790 O   0  0  0  0  0  0  0  0  0  0  0  0
   59.6340   33.7820   47.0520 C   0  0  0  0  0  0  0  0  0  0  0  0
   58.5130   34.4510   46.5520 C   0  0  0  0  0  0  0  0  0  0  0  0
   58.3101   35.4858   46.8650 H   0  0  0  0  0  0  0  0  0  0  0  0
   57.6460   33.8130   45.6550 C   0  0  0  0  0  0  0  0  0  0  0  0
   56.4880   34.4580   45.2180 O   0  0  0  0  0  0  0  0  0  0  0  0
   55.8670   34.9270   45.8650 H   0  0  0  0  0  0  0  0  0  0  0  0
   57.9360   32.5150   45.2110 C   0  0  0  0  0  0  0  0  0  0  0  0
   56.9850   31.7620   44.3800 C   0  0  0  0  0  0  0  0  0  0  0  0
   55.9507   32.1203   44.2717 H   0  0  0  0  0  0  0  0  0  0  0  0
   57.3700   30.6440   43.7550 C   0  0  0  0  0  0  0  0  0  0  0  0
   57.5219   30.6690   42.6658 H   0  0  0  0  0  0  0  0  0  0  0  0
   57.5970   29.3820   44.4760 C   0  0  0  0  0  0  0  0  0  0  0  0
   58.8010   28.7890   44.6470 N   0  0  0  0  0  0  0  0  0  0  0  0
   58.5190   27.7110   45.4140 C   0  0  0  0  0  0  0  0  0  0  0  0
   59.3990   26.8990   45.8000 O   0  0  0  0  0  0  0  0  0  0  0  0
   57.2090   27.5990   45.7350 N   0  0  0  0  0  0  0  0  0  0  0  0
   56.5660   26.6160   46.6130 C   0  0  0  0  0  0  0  0  0  0  0  0
   57.3373   26.0983   47.2021 H   0  0  0  0  0  0  0  0  0  0  0  0
   55.8660   27.1405   47.2800 H   0  0  0  0  0  0  0  0  0  0  0  0
   55.7970   25.6010   45.8010 C   0  0  0  0  0  0  0  0  0  0  0  0
   54.5710   25.8150   45.6260 O   0  0  0  0  0  0  0  0  0  0  0  0
   56.4300   24.4840   45.1270 N   0  0  0  0  0  0  0  0  0  0  0  0
   57.8750   24.2200   45.2840 C   0  0  0  0  0  0  0  0  0  0  0  0
   58.4379   24.9807   44.7232 H   0  0  0  0  0  0  0  0  0  0  0  0
   58.1128   24.2596   46.3573 H   0  0  0  0  0  0  0  0  0  0  0  0
   58.2660   22.8300   44.7630 C   0  0  0  0  0  0  0  0  0  0  0  0
   59.3604   22.7809   44.6634 H   0  0  0  0  0  0  0  0  0  0  0  0
   57.9027   22.0791   45.4801 H   0  0  0  0  0  0  0  0  0  0  0  0
   57.6800   22.5620   43.5090 O   0  0  0  0  0  0  0  0  0  0  0  0
   56.2770   22.4910   43.6630 C   0  0  0  0  0  0  0  0  0  0  0  0
   55.8261   22.1294   42.7271 H   0  0  0  0  0  0  0  0  0  0  0  0
   56.0395   21.7992   44.4845 H   0  0  0  0  0  0  0  0  0  0  0  0
   55.7150   23.8720   43.9940 C   0  0  0  0  0  0  0  0  0  0  0  0
   55.8184   24.5215   43.1123 H   0  0  0  0  0  0  0  0  0  0  0  0
   54.6568   23.7583   44.2722 H   0  0  0  0  0  0  0  0  0  0  0  0
   56.6330   28.6590   45.1410 C   0  0  0  0  0  0  0  0  0  0  0  0
   55.2790   28.9660   45.2170 O   0  0  0  0  0  0  0  0  0  0  0  0
   59.1230   31.8920   45.6150 C   0  0  0  0  0  0  0  0  0  0  0  0
   59.3929   30.9101   45.1990 H   0  0  0  0  0  0  0  0  0  0  0  0
   59.9760   32.5140   46.5520 C   0  0  0  0  0  0  0  0  0  0  0  0
   61.1590   31.9040   47.0080 O   0  0  0  0  0  0  0  0  0  0  0  0
   61.3270   30.5020   47.1890 C   0  0  0  0  0  0  0  0  0  0  0  0
   61.3546   30.2718   48.2643 H   0  0  0  0  0  0  0  0  0  0  0  0
   60.4863   29.9686   46.7213 H   0  0  0  0  0  0  0  0  0  0  0  0
   62.2699   30.1823   46.7213 H   0  0  0  0  0  0  0  0  0  0  0  0
  1  2  1  0
  2  3  1  0
  3  4  2  0
  3  5  1  0
  5  6  2  0
  6  7  1  0
  6  8  1  0
  8  9  1  0
  8 10  2  0
 10 11  1  0
 10 12  1  0
 12 13  1  0
 12 14  2  0
 14 15  1  0
 15 16  1  0
 16 17  1  0
 16 18  1  0
 16 19  1  0
 19 20  1  0
 19 21  1  0
 19 22  1  0
 22 23  1  0
 23 24  2  0
 24 25  1  0
 24 26  1  0
 26 27  1  0
 27 28  1  0
 26 29  2  0
 29 30  1  0
 30 31  1  0
 30 32  2  0
 32 33  1  0
 32 34  1  0
 34 35  1  0
 35 36  1  0
 36 37  2  0
 36 38  1  0
 38 39  1  0
 39 40  1  0
 39 41  1  0
 39 42  1  0
 42 43  2  0
 42 44  1  0
 44 45  1  0
 45 46  1  0
 45 47  1  0
 45 48  1  0
 48 49  1  0
 48 50  1  0
 48 51  1  0
 51 52  1  0
 52 53  1  0
 52 54  1  0
 52 55  1  0
 55 56  1  0
 55 57  1  0
 38 58  1  0
 58 59  1  0
 29 60  1  0
 60 61  1  0
 60 62  2  0
 62 63  1  0
 63 64  1  0
 64 65  1  0
 64 66  1  0
 64 67  1  0
 14  5  1  0
 62 23  1  0
 58 34  2  0
 55 44  1  0
M  CHG  3   2  -1  35  -1  59  -1
M  END
>  <UniqueID>  (36) 
35

>  <SMILES>  (36) 
COc1cc(/C=C/c2[n-]c(=O)n(CC(=O)N3CCOCC3)c2[O-])c(O)cc1OCCOc1ccccc1C([NH-])=O

>  <Energy>  (36) 
125.15290091163193

>  <Genealogy>  (36) 
COc1cc(C=Cc2[n-]c(=O)n(CC(=O)N3CCOCC3)c2[O-])c(O)cc1OCCOc1ccccc1C([NH-])=O (protonated)
COc1cc(/C=C/c2[n-]c(=O)n(CC(=O)N3CCOCC3)c2[O-])c(O)cc1OCCOc1ccccc1C([NH-])=O (cis-trans isomerization)
COc1cc(/C=C/c2[n-]c(=O)n(CC(=O)N3CCOCC3)c2[O-])c(O)cc1OCCOc1ccccc1C([NH-])=O (3D coordinates assigned)
COc1cc(/C=C/c2[n-]c(=O)n(CC(=O)N3CCOCC3)c2[O-])c(O)cc1OCCOc1ccccc1C([NH-])=O (nonaromatic ring conformer: 125.15290091163193 kcal/mol)

>  <smiles>  (36) 
COc1cc(C=Cc2[nH]c(=O)n(CC(=O)N3CCOCC3)c2O)c(O)cc1OCCOc1ccccc1C(N)=O

>  <score_type>  (36) 
oracle

>  <origin>  (36) 
adg

>  <m_score__min__energy>  (36) 
-14.390000000000001

>  <m_primary>  (36) 
energy

$$$$
36:0
     RDKit          3D

 65 67  0  0  1  0  0  0  0  0999 V2000
   57.0040   22.1840   49.4940 C   0  0  0  0  0  0  0  0  0  0  0  0
   57.2290   22.5250   48.1390 O   0  0  0  0  0  0  0  0  0  0  0  0
   56.7070   21.6870   47.1730 C   0  0  0  0  0  0  0  0  0  0  0  0
   57.0260   20.3300   47.1030 C   0  0  0  0  0  0  0  0  0  0  0  0
   56.5040   19.4990   46.1410 C   0  0  0  0  0  0  0  0  0  0  0  0
   55.6440   20.0230   45.2210 C   0  0  0  0  0  0  0  0  0  0  0  0
   55.3260   21.3510   45.2800 C   0  0  0  0  0  0  0  0  0  0  0  0
   55.8390   22.2180   46.2460 C   0  0  0  0  0  0  0  0  0  0  0  0
   55.4340   23.6340   46.2240 C   0  0  0  0  0  0  0  0  0  0  0  0
   56.5810   24.5030   46.4390 N   0  0  0  0  0  0  0  0  0  0  0  0
   56.3670   25.8930   46.2860 C   0  0  0  0  0  0  0  0  0  0  0  0
   55.2070   26.2650   45.9770 O   0  0  0  0  0  0  0  0  0  0  0  0
   57.4040   26.9010   46.4620 C   0  0  0  0  0  0  0  0  0  0  0  0
   58.3930   26.6470   47.3890 C   0  0  0  0  0  0  0  0  0  0  0  0
   59.4160   27.5690   47.6080 C   0  0  0  0  0  0  0  0  0  0  0  0
   59.4720   28.7550   46.9100 C   0  0  0  0  0  0  0  0  0  0  0  0
   60.5690   29.7640   47.1320 C   0  0  0  0  0  0  0  0  0  0  0  0
   60.4550   30.8500   46.2170 N   0  0  0  0  0  0  0  0  0  0  0  0
   59.8400   31.9460   46.4240 C   0  0  0  0  0  0  0  0  0  0  0  0
   58.8410   32.3340   45.5970 N   0  0  0  0  0  0  0  0  0  0  0  0
   58.1640   33.4980   45.7950 C   0  0  0  0  0  0  0  0  0  0  0  0
   57.0650   33.9330   44.8950 C   0  0  0  0  0  0  0  0  0  0  0  0
   58.5080   34.3040   46.8670 C   0  0  0  0  0  0  0  0  0  0  0  0
   59.5340   33.8650   47.6810 C   0  0  0  0  0  0  0  0  0  0  0  0
   59.8830   34.5750   48.6810 N   0  0  0  0  0  0  0  0  0  0  0  0
   60.0070   34.1440   50.0380 C   0  0  0  0  0  0  0  0  0  0  0  0
   61.4550   33.7970   50.4070 C   0  0  0  0  0  0  0  0  0  0  0  0
   62.2200   33.8750   49.1900 N   0  0  0  0  0  0  0  0  0  0  0  0
   63.0190   32.4100   48.7800 S   0  0  0  0  0  0  0  0  0  0  0  0
   64.6810   32.3550   49.3450 C   0  0  0  0  0  0  0  0  0  0  0  0
   62.2420   31.2790   49.3910 O   0  0  0  0  0  0  0  0  0  0  0  0
   62.9870   32.2510   47.2670 O   0  0  0  0  0  0  0  0  0  0  0  0
   60.1880   32.7140   47.4670 N   0  0  0  0  0  0  0  0  0  0  0  0
   58.4660   28.9790   45.9880 C   0  0  0  0  0  0  0  0  0  0  0  0
   57.4430   28.0820   45.7540 C   0  0  0  0  0  0  0  0  0  0  0  0
   57.4926   22.9244   50.1444 H   0  0  0  0  0  0  0  0  0  0  0  0
   55.9226   22.1759   49.6954 H   0  0  0  0  0  0  0  0  0  0  0  0
   57.4219   21.1866   49.6954 H   0  0  0  0  0  0  0  0  0  0  0  0
   57.7209   19.9102   47.8453 H   0  0  0  0  0  0  0  0  0  0  0  0
   56.7742   18.4331   46.1134 H   0  0  0  0  0  0  0  0  0  0  0  0
   55.2104   19.3827   44.4387 H   0  0  0  0  0  0  0  0  0  0  0  0
   54.6317   21.7564   44.5293 H   0  0  0  0  0  0  0  0  0  0  0  0
   54.9844   23.8653   45.2471 H   0  0  0  0  0  0  0  0  0  0  0  0
   54.7060   23.8050   47.0307 H   0  0  0  0  0  0  0  0  0  0  0  0
   57.5290   24.1520   46.6940 H   0  0  0  0  0  0  0  0  0  0  0  0
   58.3747   25.7078   47.9613 H   0  0  0  0  0  0  0  0  0  0  0  0
   60.1936   27.3446   48.3530 H   0  0  0  0  0  0  0  0  0  0  0  0
   60.5001   30.1504   48.1596 H   0  0  0  0  0  0  0  0  0  0  0  0
   61.5384   29.2697   46.9710 H   0  0  0  0  0  0  0  0  0  0  0  0
   58.5860   31.7210   44.7900 H   0  0  0  0  0  0  0  0  0  0  0  0
   56.2096   34.2716   45.4980 H   0  0  0  0  0  0  0  0  0  0  0  0
   57.4164   34.7599   44.2603 H   0  0  0  0  0  0  0  0  0  0  0  0
   56.7553   33.0896   44.2603 H   0  0  0  0  0  0  0  0  0  0  0  0
   57.9868   35.2529   47.0620 H   0  0  0  0  0  0  0  0  0  0  0  0
   59.6567   34.9505   50.6990 H   0  0  0  0  0  0  0  0  0  0  0  0
   59.4008   33.2342   50.1596 H   0  0  0  0  0  0  0  0  0  0  0  0
   61.8413   34.5157   51.1447 H   0  0  0  0  0  0  0  0  0  0  0  0
   61.5209   32.7937   50.8532 H   0  0  0  0  0  0  0  0  0  0  0  0
   61.7040   34.2960   48.4150 H   0  0  0  0  0  0  0  0  0  0  0  0
   64.6945   32.3546   50.4449 H   0  0  0  0  0  0  0  0  0  0  0  0
   65.1650   31.4403   48.9720 H   0  0  0  0  0  0  0  0  0  0  0  0
   65.2244   33.2357   48.9720 H   0  0  0  0  0  0  0  0  0  0  0  0
   60.9470   32.4280   48.0970 H   0  0  0  0  0  0  0  0  0  0  0  0
   58.4816   29.9169   45.4135 H   0  0  0  0  0  0  0  0  0  0  0  0
   56.6661   28.3083   45.0089 H   0  0  0  0  0  0  0  0  0  0  0  0
  1  2  1  0
  2  3  1  0
  3  4  2  0
  4  5  1  0
  5  6  2  0
  6  7  1  0
  7  8  2  0
  8  9  1  0
  9 10  1  0
 10 11  1  0
 11 12  2  0
 11 13  1  0
 13 14  2  0
 14 15  1  0
 15 16  2  0
 16 17  1  0
 17 18  1  0
 18 19  2  0
 19 20  1  0
 20 21  1  0
 21 22  1  0
 21 23  2  0
 23 24  1  0
 24 25  2  0
 25 26  1  0
 26 27  1  0
 27 28  1  0
 28 29  1  0
 29 30  1  0
 29 31  2  0
 29 32  2  0
 24 33  1  0
 16 34  1  0
 34 35  2  0
  8  3  1  0
 35 13  1  0
 33 19  1  0
  1 36  1  0
  1 37  1  0
  1 38  1  0
  4 39  1  0
  5 40  1  0
  6 41  1  0
  7 42  1  0
  9 43  1  0
  9 44  1  0
 10 45  1  0
 14 46  1  0
 15 47  1  0
 17 48  1  0
 17 49  1  0
 20 50  1  0
 22 51  1  0
 22 52  1  0
 22 53  1  0
 23 54  1  0
 26 55  1  0
 26 56  1  0
 27 57  1  0
 27 58  1  0
 28 59  1  0
 30 60  1  0
 30 61  1  0
 30 62  1  0
 33 63  1  0
 34 64  1  0
 35 65  1  0
M  END
>  <smiles>  (37) 
COc1ccccc1CNC(=O)c1ccc(CN=c2[nH]c(C)cc(=NCCNS(C)(=O)=O)[nH]2)cc1

>  <score_type>  (37) 
oracle

>  <origin>  (37) 
adg

>  <m_score__min__energy>  (37) 
-8.5899999999999999

>  <m_primary>  (37) 
energy

$$$$
37:0
     RDKit          3D

 36 38  0  0  0  0  0  0  0  0999 V2000
   54.5040   29.5720   51.6020 O   0  0  0  0  0  0  0  0  0  0  0  0
   54.3700   30.6440   52.2510 C   0  0  0  0  0  0  0  0  0  0  0  0
   53.0010   31.1780   52.5220 C   0  0  0  0  0  0  0  0  0  0  0  0
   52.2260   31.2700   51.2450 C   0  0  0  0  0  0  0  0  0  0  0  0
   52.2450   30.3340   50.2800 N   0  0  0  0  0  0  0  0  0  0  0  0
   51.3640   30.8070   49.3710 C   0  0  0  0  0  0  0  0  0  0  0  0
   51.1060   30.2010   48.2990 O   0  0  0  0  0  0  0  0  0  0  0  0
   50.7780   31.9770   49.7040 N   0  0  0  0  0  0  0  0  0  0  0  0
   51.3310   32.2530   50.8970 C   0  0  0  0  0  0  0  0  0  0  0  0
   51.0190   33.3750   51.6520 O   0  0  0  0  0  0  0  0  0  0  0  0
   55.5080   31.3040   52.8230 N   0  0  0  0  0  0  0  0  0  0  0  0
   56.6980   31.7090   52.1320 C   0  0  0  0  0  0  0  0  0  0  0  0
   57.3110   32.9530   52.3660 C   0  0  0  0  0  0  0  0  0  0  0  0
   58.4820   33.3000   51.6850 C   0  0  0  0  0  0  0  0  0  0  0  0
   59.0680   32.4020   50.7800 C   0  0  0  0  0  0  0  0  0  0  0  0
   60.3070   32.7920   50.0180 C   0  0  0  0  0  0  0  0  0  0  0  0
   59.9470   33.2020   48.6170 C   0  0  0  0  0  0  0  0  0  0  0  0
   59.8220   32.2390   47.6040 C   0  0  0  0  0  0  0  0  0  0  0  0
   59.4520   32.6370   46.3180 C   0  0  0  0  0  0  0  0  0  0  0  0
   59.2060   33.9480   46.0530 N   0  0  0  0  0  0  0  0  0  0  0  0
   59.3100   34.9010   47.0170 C   0  0  0  0  0  0  0  0  0  0  0  0
   59.6770   34.5460   48.3170 C   0  0  0  0  0  0  0  0  0  0  0  0
   58.4620   31.1570   50.5560 C   0  0  0  0  0  0  0  0  0  0  0  0
   57.2920   30.8100   51.2380 C   0  0  0  0  0  0  0  0  0  0  0  0
   52.4785   30.5049   53.2177 H   0  0  0  0  0  0  0  0  0  0  0  0
   53.0857   32.1807   52.9663 H   0  0  0  0  0  0  0  0  0  0  0  0
   56.8678   33.6554   53.0872 H   0  0  0  0  0  0  0  0  0  0  0  0
   58.9461   34.2819   51.8597 H   0  0  0  0  0  0  0  0  0  0  0  0
   60.7975   33.6340   50.5283 H   0  0  0  0  0  0  0  0  0  0  0  0
   60.9889   31.9299   49.9758 H   0  0  0  0  0  0  0  0  0  0  0  0
   60.0142   31.1780   47.8216 H   0  0  0  0  0  0  0  0  0  0  0  0
   59.3592   31.8885   45.5173 H   0  0  0  0  0  0  0  0  0  0  0  0
   59.1047   35.9537   46.7726 H   0  0  0  0  0  0  0  0  0  0  0  0
   59.7539   35.3146   49.1002 H   0  0  0  0  0  0  0  0  0  0  0  0
   58.9091   30.4508   49.8409 H   0  0  0  0  0  0  0  0  0  0  0  0
   56.8348   29.8236   51.0710 H   0  0  0  0  0  0  0  0  0  0  0  0
  1  2  2  0
  2  3  1  0
  3  4  1  0
  4  5  1  0
  5  6  1  0
  6  7  2  0
  6  8  1  0
  8  9  1  0
  9 10  1  0
  2 11  1  0
 11 12  1  0
 12 13  2  0
 13 14  1  0
 14 15  2  0
 15 16  1  0
 16 17  1  0
 17 18  2  0
 18 19  1  0
 19 20  2  0
 20 21  1  0
 21 22  2  0
 15 23  1  0
 23 24  2  0
  9  4  2  0
 24 12  1  0
 22 17  1  0
  3 25  1  0
  3 26  1  0
 13 27  1  0
 14 28  1  0
 16 29  1  0
 16 30  1  0
 18 31  1  0
 19 32  1  0
 21 33  1  0
 22 34  1  0
 23 35  1  0
 24 36  1  0
M  CHG  4   5  -1   8  -1  10  -1  11  -1
M  END
>  <UniqueID>  (38) 
36

>  <SMILES>  (38) 
O=C(Cc1[n-]c(=O)[n-]c1[O-])[N-]c1ccc(Cc2ccncc2)cc1

>  <Energy>  (38) 
68.33436395478891

>  <Genealogy>  (38) 
O=C(Cc1[n-]c(=O)[n-]c1[O-])[N-]c1ccc(Cc2ccncc2)cc1 (protonated)
O=C(Cc1[n-]c(=O)[n-]c1[O-])[N-]c1ccc(Cc2ccncc2)cc1 (3D coordinates assigned)
O=C(Cc1[n-]c(=O)[n-]c1[O-])[N-]c1ccc(Cc2ccncc2)cc1 (optimized conformer: 68.33436395478891 kcal/mol)

>  <smiles>  (38) 
O=C(Cc1[nH]c(=O)[nH]c1O)Nc1ccc(Cc2ccncc2)cc1

>  <score_type>  (38) 
oracle

>  <origin>  (38) 
adg

>  <m_score__min__energy>  (38) 
-17.539999999999999

>  <m_primary>  (38) 
energy

$$$$
38:0
     RDKit          3D

 50 53  0  0  0  0  0  0  0  0999 V2000
   60.2420   29.4670   46.1610 C   0  0  0  0  0  0  0  0  0  0  0  0
   59.4170   30.4640   45.8040 C   0  0  0  0  0  0  0  0  0  0  0  0
   58.3440   30.3740   44.9120 C   0  0  0  0  0  0  0  0  0  0  0  0
   57.9230   29.2820   44.2450 C   0  0  0  0  0  0  0  0  0  0  0  0
   57.3710   28.0790   44.9100 C   0  0  0  0  0  0  0  0  0  0  0  0
   56.0110   28.0250   45.2480 C   0  0  0  0  0  0  0  0  0  0  0  0
   55.1610   29.0780   44.9320 O   0  0  0  0  0  0  0  0  0  0  0  0
   55.5120   26.9320   45.8810 N   0  0  0  0  0  0  0  0  0  0  0  0
   56.3120   25.8860   46.2100 C   0  0  0  0  0  0  0  0  0  0  0  0
   55.8250   24.8820   46.7920 O   0  0  0  0  0  0  0  0  0  0  0  0
   57.6370   25.9250   45.9190 N   0  0  0  0  0  0  0  0  0  0  0  0
   58.1860   26.9950   45.2890 C   0  0  0  0  0  0  0  0  0  0  0  0
   59.4260   27.0120   45.0670 O   0  0  0  0  0  0  0  0  0  0  0  0
   57.7540   31.6310   44.8810 C   0  0  0  0  0  0  0  0  0  0  0  0
   58.4900   32.4340   45.7290 C   0  0  0  0  0  0  0  0  0  0  0  0
   58.1890   33.8740   46.0120 C   0  0  0  0  0  0  0  0  0  0  0  0
   59.4950   31.7270   46.2950 N   0  0  0  0  0  0  0  0  0  0  0  0
   60.4610   32.2410   47.2290 C   0  0  0  0  0  0  0  0  0  0  0  0
   60.5610   31.6930   48.5150 C   0  0  0  0  0  0  0  0  0  0  0  0
   61.4910   32.2010   49.4260 C   0  0  0  0  0  0  0  0  0  0  0  0
   62.3210   33.2760   49.0680 C   0  0  0  0  0  0  0  0  0  0  0  0
   63.3130   33.7950   50.0310 C   0  0  0  0  0  0  0  0  0  0  0  0
   63.1600   34.9590   50.4950 O   0  0  0  0  0  0  0  0  0  0  0  0
   64.4490   33.0120   50.4400 N   0  0  0  0  0  0  0  0  0  0  0  0
   64.3490   31.6550   50.9580 C   0  0  0  0  0  0  0  0  0  0  0  0
   65.7820   31.1840   51.1770 C   0  0  0  0  0  0  0  0  0  0  0  0
   66.6600   32.1420   50.3630 C   0  0  2  0  0  0  0  0  0  0  0  0
   67.8760   32.4280   51.0080 O   0  0  0  0  0  0  0  0  0  0  0  0
   65.8160   33.3970   50.1300 C   0  0  0  0  0  0  0  0  0  0  0  0
   62.2320   33.8100   47.7730 C   0  0  0  0  0  0  0  0  0  0  0  0
   61.3020   33.3010   46.8630 C   0  0  0  0  0  0  0  0  0  0  0  0
   61.0566   29.6564   46.8755 H   0  0  0  0  0  0  0  0  0  0  0  0
   60.1034   28.4607   45.7390 H   0  0  0  0  0  0  0  0  0  0  0  0
   57.9929   29.2837   43.1472 H   0  0  0  0  0  0  0  0  0  0  0  0
   56.8720   31.9287   44.2949 H   0  0  0  0  0  0  0  0  0  0  0  0
   58.1554   34.0347   47.0997 H   0  0  0  0  0  0  0  0  0  0  0  0
   58.9744   34.5061   45.5721 H   0  0  0  0  0  0  0  0  0  0  0  0
   57.2161   34.1386   45.5721 H   0  0  0  0  0  0  0  0  0  0  0  0
   59.9051   30.8601   48.8083 H   0  0  0  0  0  0  0  0  0  0  0  0
   61.5734   31.7566   50.4288 H   0  0  0  0  0  0  0  0  0  0  0  0
   63.7947   31.6481   51.9081 H   0  0  0  0  0  0  0  0  0  0  0  0
   63.8095   30.9960   50.2618 H   0  0  0  0  0  0  0  0  0  0  0  0
   66.0443   31.2357   52.2440 H   0  0  0  0  0  0  0  0  0  0  0  0
   65.9195   30.1390   50.8622 H   0  0  0  0  0  0  0  0  0  0  0  0
   66.9561   31.6865   49.4065 H   0  0  0  0  0  0  0  0  0  0  0  0
   67.6900   33.0770   51.7370 H   0  0  0  0  0  0  0  0  0  0  0  0
   66.1457   34.2101   50.7934 H   0  0  0  0  0  0  0  0  0  0  0  0
   65.9109   33.7655   49.0979 H   0  0  0  0  0  0  0  0  0  0  0  0
   62.8975   34.6330   47.4732 H   0  0  0  0  0  0  0  0  0  0  0  0
   61.2294   33.7342   45.8545 H   0  0  0  0  0  0  0  0  0  0  0  0
  1  2  2  0
  2  3  1  0
  3  4  2  3
  4  5  1  0
  5  6  2  0
  6  7  1  0
  6  8  1  0
  8  9  1  0
  9 10  2  0
  9 11  1  0
 11 12  1  0
 12 13  2  0
  3 14  1  0
 14 15  2  0
 15 16  1  0
 15 17  1  0
 17 18  1  0
 18 19  2  0
 19 20  1  0
 20 21  2  0
 21 22  1  0
 22 23  2  0
 22 24  1  0
 24 25  1  0
 25 26  1  0
 26 27  1  0
 27 28  1  0
 27 29  1  0
 21 30  1  0
 30 31  2  0
 17  2  1  0
 31 18  1  0
 12  5  1  0
 29 24  1  0
  1 32  1  0
  1 33  1  0
  4 34  1  0
 14 35  1  0
 16 36  1  0
 16 37  1  0
 16 38  1  0
 19 39  1  0
 20 40  1  0
 25 41  1  0
 25 42  1  0
 26 43  1  0
 26 44  1  0
 27 45  1  6
 28 46  1  0
 29 47  1  0
 29 48  1  0
 30 49  1  0
 31 50  1  0
M  CHG  3   7  -1   8  -1  11  -1
M  END
>  <UniqueID>  (39) 
37

>  <SMILES>  (39) 
C=c1c(=Cc2c([O-])[n-]c(=O)[n-]c2=O)cc(C)n1-c1ccc(C(=O)N2CC[C@H](O)C2)cc1

>  <Energy>  (39) 
105.00945663947924

>  <Genealogy>  (39) 
C=c1c(=Cc2c([O-])[n-]c(=O)[n-]c2=O)cc(C)n1-c1ccc(C(=O)N2CCC(O)C2)cc1 (protonated)
C=c1c(=Cc2c([O-])[n-]c(=O)[n-]c2=O)cc(C)n1-c1ccc(C(=O)N2CC[C@H](O)C2)cc1 (chirality)
C=c1c(=Cc2c([O-])[n-]c(=O)[n-]c2=O)cc(C)n1-c1ccc(C(=O)N2CC[C@H](O)C2)cc1 (3D coordinates assigned)
C=c1c(=Cc2c([O-])[n-]c(=O)[n-]c2=O)cc(C)n1-c1ccc(C(=O)N2CC[C@H](O)C2)cc1 (nonaromatic ring conformer: 105.00945663947924 kcal/mol)

>  <smiles>  (39) 
C=c1c(=Cc2c(O)[nH]c(=O)[nH]c2=O)cc(C)n1-c1ccc(C(=O)N2CCC(O)C2)cc1

>  <score_type>  (39) 
oracle

>  <origin>  (39) 
adg

>  <m_score__min__energy>  (39) 
-15.609999999999999

>  <m_primary>  (39) 
energy

$$$$
39:0
     RDKit          3D

 64 67  0  0  0  0  0  0  0  0999 V2000
   63.3750   33.8380   45.9890 C   0  0  0  0  0  0  0  0  0  0  0  0
   63.0630   33.5060   47.4130 C   0  0  0  0  0  0  0  0  0  0  0  0
   63.9050   32.8680   48.2470 N   0  0  0  0  0  0  0  0  0  0  0  0
   63.3010   32.7110   49.4170 N   0  0  0  0  0  0  0  0  0  0  0  0
   63.9260   32.1250   50.5970 C   0  0  0  0  0  0  0  0  0  0  0  0
   62.0750   33.2690   49.3670 C   0  0  0  0  0  0  0  0  0  0  0  0
   61.8800   33.7680   48.0900 C   0  0  0  0  0  0  0  0  0  0  0  0
   60.6660   34.4970   47.5910 C   0  0  0  0  0  0  0  0  0  0  0  0
   59.4450   33.7010   47.8580 N   0  0  0  0  0  0  0  0  0  0  0  0
   58.2810   34.2070   47.1010 C   0  0  0  0  0  0  0  0  0  0  0  0
   58.3220   33.7960   45.6120 C   0  0  0  0  0  0  0  0  0  0  0  0
   58.8710   32.4350   45.3850 N   0  0  0  0  0  0  0  0  0  0  0  0
   58.1950   31.7900   44.2380 C   0  0  0  0  0  0  0  0  0  0  0  0
   57.9280   30.3330   44.5130 C   0  0  0  0  0  0  0  0  0  0  0  0
   58.9730   29.4000   44.4860 C   0  0  0  0  0  0  0  0  0  0  0  0
   58.7090   28.0460   44.7130 C   0  0  0  0  0  0  0  0  0  0  0  0
   57.3920   27.6300   44.9730 C   0  0  0  0  0  0  0  0  0  0  0  0
   57.0720   26.2420   45.1870 N   0  0  0  0  0  0  0  0  0  0  0  0
   57.3590   25.2060   44.2130 C   0  0  0  0  0  0  0  0  0  0  0  0
   57.0470   23.8830   44.9080 C   0  0  0  0  0  0  0  0  0  0  0  0
   56.1770   24.2440   46.1050 C   0  0  0  0  0  0  0  0  0  0  0  0
   56.4730   25.7080   46.4030 C   0  0  0  0  0  0  0  0  0  0  0  0
   56.3960   28.5620   45.0100 N   0  0  0  0  0  0  0  0  0  0  0  0
   56.6300   29.8830   44.7940 C   0  0  0  0  0  0  0  0  0  0  0  0
   58.7790   31.6020   46.5990 C   0  0  0  0  0  0  0  0  0  0  0  0
   59.6540   32.2300   47.7090 C   0  0  2  0  0  0  0  0  0  0  0  0
   59.4830   31.5120   49.0690 C   0  0  0  0  0  0  0  0  0  0  0  0
   58.5600   32.2230   50.0730 C   0  0  0  0  0  0  0  0  0  0  0  0
   59.2240   33.3040   50.6700 O   0  0  0  0  0  0  0  0  0  0  0  0
   64.1280   34.6392   45.9558 H   0  0  0  0  0  0  0  0  0  0  0  0
   63.7678   32.9445   45.4818 H   0  0  0  0  0  0  0  0  0  0  0  0
   62.4588   34.1746   45.4818 H   0  0  0  0  0  0  0  0  0  0  0  0
   64.8760   32.5450   48.0280 H   0  0  0  0  0  0  0  0  0  0  0  0
   63.4709   32.5517   51.5030 H   0  0  0  0  0  0  0  0  0  0  0  0
   63.7749   31.0354   50.5890 H   0  0  0  0  0  0  0  0  0  0  0  0
   65.0036   32.3458   50.5890 H   0  0  0  0  0  0  0  0  0  0  0  0
   61.3544   33.3193   50.1966 H   0  0  0  0  0  0  0  0  0  0  0  0
   60.5874   35.4663   48.1051 H   0  0  0  0  0  0  0  0  0  0  0  0
   60.7621   34.6537   46.5065 H   0  0  0  0  0  0  0  0  0  0  0  0
   57.3631   33.8037   47.5535 H   0  0  0  0  0  0  0  0  0  0  0  0
   58.3039   35.3058   47.1461 H   0  0  0  0  0  0  0  0  0  0  0  0
   57.2970   33.8281   45.2142 H   0  0  0  0  0  0  0  0  0  0  0  0
   58.9920   34.5031   45.1009 H   0  0  0  0  0  0  0  0  0  0  0  0
   57.2390   32.3011   44.0510 H   0  0  0  0  0  0  0  0  0  0  0  0
   58.8524   31.8642   43.3592 H   0  0  0  0  0  0  0  0  0  0  0  0
   60.0021   29.7332   44.2860 H   0  0  0  0  0  0  0  0  0  0  0  0
   59.5269   27.3109   44.6883 H   0  0  0  0  0  0  0  0  0  0  0  0
   56.7241   25.3303   43.3234 H   0  0  0  0  0  0  0  0  0  0  0  0
   58.4045   25.2481   43.8736 H   0  0  0  0  0  0  0  0  0  0  0  0
   56.5040   23.2106   44.2276 H   0  0  0  0  0  0  0  0  0  0  0  0
   57.9639   23.3584   45.2148 H   0  0  0  0  0  0  0  0  0  0  0  0
   55.1130   24.1100   45.8601 H   0  0  0  0  0  0  0  0  0  0  0  0
   56.3921   23.6017   46.9717 H   0  0  0  0  0  0  0  0  0  0  0  0
   55.5441   26.2466   46.6420 H   0  0  0  0  0  0  0  0  0  0  0  0
   57.1417   25.8199   47.2692 H   0  0  0  0  0  0  0  0  0  0  0  0
   55.7985   30.6017   44.8397 H   0  0  0  0  0  0  0  0  0  0  0  0
   57.7329   31.5558   46.9360 H   0  0  0  0  0  0  0  0  0  0  0  0
   59.1329   30.5841   46.3786 H   0  0  0  0  0  0  0  0  0  0  0  0
   60.6924   32.0836   47.3769 H   0  0  0  0  0  0  0  0  0  0  0  0
   59.0692   30.5113   48.8759 H   0  0  0  0  0  0  0  0  0  0  0  0
   60.4807   31.4929   49.5319 H   0  0  0  0  0  0  0  0  0  0  0  0
   57.6680   32.5925   49.5459 H   0  0  0  0  0  0  0  0  0  0  0  0
   58.2685   31.5080   50.8564 H   0  0  0  0  0  0  0  0  0  0  0  0
   59.3090   33.9940   49.9650 H   0  0  0  0  0  0  0  0  0  0  0  0
  1  2  1  0
  2  3  2  0
  3  4  1  0
  4  5  1  0
  4  6  1  0
  6  7  2  0
  7  8  1  0
  8  9  1  0
  9 10  1  0
 10 11  1  0
 11 12  1  0
 12 13  1  0
 13 14  1  0
 14 15  2  0
 15 16  1  0
 16 17  2  0
 17 18  1  0
 18 19  1  0
 19 20  1  0
 20 21  1  0
 21 22  1  0
 17 23  1  0
 23 24  2  0
 12 25  1  0
 25 26  1  0
 26 27  1  0
 27 28  1  0
 28 29  1  0
  7  2  1  0
 26  9  1  0
 24 14  1  0
 22 18  1  0
  1 30  1  0
  1 31  1  0
  1 32  1  0
  3 33  1  0
  5 34  1  0
  5 35  1  0
  5 36  1  0
  6 37  1  0
  8 38  1  0
  8 39  1  0
 10 40  1  0
 10 41  1  0
 11 42  1  0
 11 43  1  0
 13 44  1  0
 13 45  1  0
 15 46  1  0
 16 47  1  0
 19 48  1  0
 19 49  1  0
 20 50  1  0
 20 51  1  0
 21 52  1  0
 21 53  1  0
 22 54  1  0
 22 55  1  0
 24 56  1  0
 25 57  1  0
 25 58  1  0
 26 59  1  6
 27 60  1  0
 27 61  1  0
 28 62  1  0
 28 63  1  0
 29 64  1  0
M  CHG  1   3   1
M  END
>  <UniqueID>  (40) 
38

>  <SMILES>  (40) 
Cc1[nH+]n(C)cc1CN1CCN(Cc2ccc(N3CCCC3)nc2)C[C@@H]1CCO

>  <Energy>  (40) 
104.16677034375833

>  <Genealogy>  (40) 
Cc1[nH+]n(C)cc1CN1CCN(Cc2ccc(N3CCCC3)nc2)CC1CCO (protonated)
Cc1[nH+]n(C)cc1CN1CCN(Cc2ccc(N3CCCC3)nc2)C[C@@H]1CCO (chirality)
Cc1[nH+]n(C)cc1CN1CCN(Cc2ccc(N3CCCC3)nc2)C[C@@H]1CCO (3D coordinates assigned)
Cc1[nH+]n(C)cc1CN1CCN(Cc2ccc(N3CCCC3)nc2)C[C@@H]1CCO (nonaromatic ring conformer: 104.16677034375833 kcal/mol)

>  <smiles>  (40) 
Cc1nn(C)cc1CN1CCN(Cc2ccc(N3CCCC3)nc2)CC1CCO

>  <score_type>  (40) 
oracle

>  <origin>  (40) 
adg

>  <m_score__min__energy>  (40) 
-7.8300000000000001

>  <m_primary>  (40) 
energy

$$$$
40:0
     RDKit          3D

 58 61  0  0  0  0  0  0  0  0999 V2000
   59.1250   25.1270   45.7290 C   0  0  0  0  0  0  0  0  0  0  0  0
   58.8700   26.3000   46.5820 N   0  0  0  0  0  0  0  0  0  0  0  0
   57.7540   27.0700   46.4030 C   0  0  0  0  0  0  0  0  0  0  0  0
   56.9050   26.7890   45.5150 O   0  0  0  0  0  0  0  0  0  0  0  0
   57.5470   28.1540   47.1840 N   0  0  0  0  0  0  0  0  0  0  0  0
   58.4370   28.5030   48.1410 C   0  0  0  0  0  0  0  0  0  0  0  0
   58.2020   29.5190   48.8490 O   0  0  0  0  0  0  0  0  0  0  0  0
   59.5760   27.7650   48.3240 N   0  0  0  0  0  0  0  0  0  0  0  0
   60.5420   28.1330   49.3790 C   0  0  0  0  0  0  0  0  0  0  0  0
   61.1980   29.4520   49.0590 C   0  0  0  0  0  0  0  0  0  0  0  0
   61.8230   30.1980   50.0710 C   0  0  0  0  0  0  0  0  0  0  0  0
   62.4020   31.4370   49.7790 C   0  0  0  0  0  0  0  0  0  0  0  0
   62.3640   31.9440   48.4740 C   0  0  0  0  0  0  0  0  0  0  0  0
   63.0780   33.5160   48.1210 S   0  0  0  0  0  0  0  0  0  0  0  0
   64.5300   33.4870   48.5030 O   0  0  0  0  0  0  0  0  0  0  0  0
   62.9850   33.8060   46.6480 O   0  0  0  0  0  0  0  0  0  0  0  0
   62.2800   34.7680   49.0300 N   0  0  0  0  0  0  0  0  0  0  0  0
   61.0100   34.2960   49.5870 C   0  0  0  0  0  0  0  0  0  0  0  0
   60.0090   34.0260   48.4960 C   0  0  0  0  0  0  0  0  0  0  0  0
   59.1020   32.9640   48.6200 C   0  0  0  0  0  0  0  0  0  0  0  0
   58.1610   32.7150   47.6160 C   0  0  0  0  0  0  0  0  0  0  0  0
   58.1120   33.5260   46.4670 C   0  0  0  0  0  0  0  0  0  0  0  0
   57.1070   33.2740   45.4070 C   0  0  0  0  0  0  0  0  0  0  0  0
   56.6590   34.2350   44.7240 O   0  0  0  0  0  0  0  0  0  0  0  0
   56.6760   31.9340   45.1300 N   0  0  0  0  0  0  0  0  0  0  0  0
   57.5190   30.8190   44.8100 C   0  0  0  0  0  0  0  0  0  0  0  0
   58.8090   30.7740   45.3520 C   0  0  0  0  0  0  0  0  0  0  0  0
   59.6550   29.6970   45.0760 C   0  0  0  0  0  0  0  0  0  0  0  0
   59.2120   28.6450   44.2710 C   0  0  0  0  0  0  0  0  0  0  0  0
   57.9150   28.6630   43.7480 C   0  0  0  0  0  0  0  0  0  0  0  0
   57.4770   27.5960   42.9650 O   0  0  0  0  0  0  0  0  0  0  0  0
   57.0670   29.7460   44.0190 C   0  0  0  0  0  0  0  0  0  0  0  0
   59.0320   34.5830   46.3420 C   0  0  0  0  0  0  0  0  0  0  0  0
   59.9740   34.8280   47.3450 C   0  0  0  0  0  0  0  0  0  0  0  0
   61.7380   31.2050   47.4630 C   0  0  0  0  0  0  0  0  0  0  0  0
   61.1540   29.9680   47.7540 C   0  0  0  0  0  0  0  0  0  0  0  0
   59.7860   26.6610   47.5350 C   0  0  0  0  0  0  0  0  0  0  0  0
   60.8350   25.9710   47.6840 O   0  0  0  0  0  0  0  0  0  0  0  0
   59.3161   24.2479   46.3620 H   0  0  0  0  0  0  0  0  0  0  0  0
   58.2470   24.9376   45.0939 H   0  0  0  0  0  0  0  0  0  0  0  0
   60.0023   25.3192   45.0939 H   0  0  0  0  0  0  0  0  0  0  0  0
   60.0138   28.2154   50.3404 H   0  0  0  0  0  0  0  0  0  0  0  0
   61.3177   27.3553   49.4374 H   0  0  0  0  0  0  0  0  0  0  0  0
   61.8574   29.8061   51.0982 H   0  0  0  0  0  0  0  0  0  0  0  0
   62.8893   32.0157   50.5775 H   0  0  0  0  0  0  0  0  0  0  0  0
   61.1872   33.3679   50.1502 H   0  0  0  0  0  0  0  0  0  0  0  0
   60.6057   35.0769   50.2478 H   0  0  0  0  0  0  0  0  0  0  0  0
   59.1308   32.3224   49.5130 H   0  0  0  0  0  0  0  0  0  0  0  0
   57.4541   31.8793   47.7251 H   0  0  0  0  0  0  0  0  0  0  0  0
   59.1587   31.5918   45.9993 H   0  0  0  0  0  0  0  0  0  0  0  0
   60.6724   29.6774   45.4937 H   0  0  0  0  0  0  0  0  0  0  0  0
   59.8832   27.8024   44.0484 H   0  0  0  0  0  0  0  0  0  0  0  0
   56.9660   26.8200   43.3670 H   0  0  0  0  0  0  0  0  0  0  0  0
   56.0451   29.7573   43.6122 H   0  0  0  0  0  0  0  0  0  0  0  0
   59.0097   35.2222   45.4471 H   0  0  0  0  0  0  0  0  0  0  0  0
   60.6917   35.6538   47.2316 H   0  0  0  0  0  0  0  0  0  0  0  0
   61.7054   31.5986   46.4364 H   0  0  0  0  0  0  0  0  0  0  0  0
   60.6575   29.3962   46.9561 H   0  0  0  0  0  0  0  0  0  0  0  0
  1  2  1  0
  2  3  1  0
  3  4  2  0
  3  5  1  0
  5  6  1  0
  6  7  2  0
  6  8  1  0
  8  9  1  0
  9 10  1  0
 10 11  2  0
 11 12  1  0
 12 13  2  0
 13 14  1  0
 14 15  2  0
 14 16  2  0
 14 17  1  0
 17 18  1  0
 18 19  1  0
 19 20  2  0
 20 21  1  0
 21 22  2  0
 22 23  1  0
 23 24  2  0
 23 25  1  0
 25 26  1  0
 26 27  2  0
 27 28  1  0
 28 29  2  0
 29 30  1  0
 30 31  1  0
 30 32  2  0
 22 33  1  0
 33 34  2  0
 13 35  1  0
 35 36  2  0
  8 37  1  0
 37 38  2  0
 37  2  1  0
 36 10  1  0
 34 19  1  0
 32 26  1  0
  1 39  1  0
  1 40  1  0
  1 41  1  0
  9 42  1  0
  9 43  1  0
 11 44  1  0
 12 45  1  0
 18 46  1  0
 18 47  1  0
 20 48  1  0
 21 49  1  0
 27 50  1  0
 28 51  1  0
 29 52  1  0
 31 53  1  0
 32 54  1  0
 33 55  1  0
 34 56  1  0
 35 57  1  0
 36 58  1  0
M  CHG  3   5  -1  17  -1  25  -1
M  END
>  <UniqueID>  (41) 
39

>  <SMILES>  (41) 
Cn1c(=O)[n-]c(=O)n(Cc2ccc(S(=O)(=O)[N-]Cc3ccc(C(=O)[N-]c4cccc(O)c4)cc3)cc2)c1=O

>  <Energy>  (41) 
71.86819015122556

>  <Genealogy>  (41) 
Cn1c(=O)[n-]c(=O)n(Cc2ccc(S(=O)(=O)[N-]Cc3ccc(C(=O)[N-]c4cccc(O)c4)cc3)cc2)c1=O (protonated)
Cn1c(=O)[n-]c(=O)n(Cc2ccc(S(=O)(=O)[N-]Cc3ccc(C(=O)[N-]c4cccc(O)c4)cc3)cc2)c1=O (3D coordinates assigned)
Cn1c(=O)[n-]c(=O)n(Cc2ccc(S(=O)(=O)[N-]Cc3ccc(C(=O)[N-]c4cccc(O)c4)cc3)cc2)c1=O (optimized conformer: 71.86819015122556 kcal/mol)

>  <smiles>  (41) 
Cn1c(=O)[nH]c(=O)n(Cc2ccc(S(=O)(=O)NCc3ccc(C(=O)Nc4cccc(O)c4)cc3)cc2)c1=O

>  <score_type>  (41) 
oracle

>  <origin>  (41) 
adg

>  <m_score__min__energy>  (41) 
-13.880000000000001

>  <m_primary>  (41) 
energy

$$$$
41:0
     RDKit          3D

 56 58  0  0  0  0  0  0  0  0999 V2000
   57.6850   29.0750   51.6500 O   0  0  0  0  0  0  0  0  0  0  0  0
   58.0320   30.2690   51.8400 C   0  0  0  0  0  0  0  0  0  0  0  0
   59.3320   30.7280   51.3270 C   0  0  0  0  0  0  0  0  0  0  0  0
   59.6390   30.6960   50.0230 C   0  0  0  0  0  0  0  0  0  0  0  0
   59.5310   31.8860   49.1430 C   0  0  0  0  0  0  0  0  0  0  0  0
   60.0140   33.1300   49.5910 C   0  0  0  0  0  0  0  0  0  0  0  0
   59.9640   34.2500   48.7680 C   0  0  0  0  0  0  0  0  0  0  0  0
   59.4260   34.1540   47.4890 C   0  0  0  0  0  0  0  0  0  0  0  0
   58.9270   32.9380   47.0090 C   0  0  0  0  0  0  0  0  0  0  0  0
   58.3710   32.9600   45.7140 O   0  0  0  0  0  0  0  0  0  0  0  0
   57.0320   32.6460   45.3350 C   0  0  0  0  0  0  0  0  0  0  0  0
   56.9620   31.3430   44.6000 C   0  0  0  0  0  0  0  0  0  0  0  0
   56.9800   31.3260   43.3420 O   0  0  0  0  0  0  0  0  0  0  0  0
   56.9160   30.1200   45.3370 N   0  0  0  0  0  0  0  0  0  0  0  0
   56.3620   28.8810   44.8060 C   0  0  0  0  0  0  0  0  0  0  0  0
   57.0220   27.6990   45.4680 C   0  0  0  0  0  0  0  0  0  0  0  0
   58.4240   27.6060   45.5050 C   0  0  0  0  0  0  0  0  0  0  0  0
   59.0450   26.5050   46.0990 C   0  0  0  0  0  0  0  0  0  0  0  0
   58.2740   25.4830   46.6560 C   0  0  0  0  0  0  0  0  0  0  0  0
   56.8800   25.5490   46.5990 C   0  0  0  0  0  0  0  0  0  0  0  0
   56.2510   26.6490   46.0060 C   0  0  0  0  0  0  0  0  0  0  0  0
   54.8620   26.6970   45.9670 O   0  0  0  0  0  0  0  0  0  0  0  0
   58.9950   31.7830   47.8320 C   0  0  0  0  0  0  0  0  0  0  0  0
   58.5350   30.5640   47.3390 O   0  0  0  0  0  0  0  0  0  0  0  0
   57.1760   31.1600   52.5600 N   0  0  0  0  0  0  0  0  0  0  0  0
   55.8770   31.5930   52.0600 C   0  0  0  0  0  0  0  0  0  0  0  0
   54.8600   30.4580   52.1790 C   0  0  0  0  0  0  0  0  0  0  0  0
   53.4460   30.9800   52.2170 C   0  0  0  0  0  0  0  0  0  0  0  0
   52.6630   30.8250   53.3730 C   0  0  0  0  0  0  0  0  0  0  0  0
   51.3380   31.2750   53.3930 C   0  0  0  0  0  0  0  0  0  0  0  0
   50.7950   31.8960   52.2640 C   0  0  0  0  0  0  0  0  0  0  0  0
   51.5690   32.0590   51.1090 C   0  0  0  0  0  0  0  0  0  0  0  0
   51.0290   32.6840   49.9920 O   0  0  0  0  0  0  0  0  0  0  0  0
   52.8870   31.5950   51.0800 C   0  0  0  0  0  0  0  0  0  0  0  0
   60.0782   31.1109   52.0387 H   0  0  0  0  0  0  0  0  0  0  0  0
   59.9857   29.7477   49.5865 H   0  0  0  0  0  0  0  0  0  0  0  0
   60.4356   33.2172   50.6032 H   0  0  0  0  0  0  0  0  0  0  0  0
   60.3509   35.2142   49.1295 H   0  0  0  0  0  0  0  0  0  0  0  0
   59.3923   35.0460   46.8462 H   0  0  0  0  0  0  0  0  0  0  0  0
   56.4103   32.5799   46.2400 H   0  0  0  0  0  0  0  0  0  0  0  0
   56.6668   33.4398   44.6668 H   0  0  0  0  0  0  0  0  0  0  0  0
   55.2800   28.8517   45.0021 H   0  0  0  0  0  0  0  0  0  0  0  0
   56.5447   28.8378   43.7221 H   0  0  0  0  0  0  0  0  0  0  0  0
   59.0363   28.4059   45.0631 H   0  0  0  0  0  0  0  0  0  0  0  0
   60.1429   26.4430   46.1280 H   0  0  0  0  0  0  0  0  0  0  0  0
   58.7645   24.6255   47.1399 H   0  0  0  0  0  0  0  0  0  0  0  0
   56.2748   24.7335   47.0217 H   0  0  0  0  0  0  0  0  0  0  0  0
   58.0700   30.4470   46.4500 H   0  0  0  0  0  0  0  0  0  0  0  0
   55.5300   32.4549   52.6488 H   0  0  0  0  0  0  0  0  0  0  0  0
   55.9762   31.8763   51.0018 H   0  0  0  0  0  0  0  0  0  0  0  0
   54.9699   29.7883   51.3133 H   0  0  0  0  0  0  0  0  0  0  0  0
   55.0533   29.9207   53.1192 H   0  0  0  0  0  0  0  0  0  0  0  0
   53.0931   30.3480   54.2660 H   0  0  0  0  0  0  0  0  0  0  0  0
   50.7244   31.1403   54.2959 H   0  0  0  0  0  0  0  0  0  0  0  0
   49.7563   32.2576   52.2835 H   0  0  0  0  0  0  0  0  0  0  0  0
   53.4893   31.7104   50.1668 H   0  0  0  0  0  0  0  0  0  0  0  0
  1  2  2  0
  2  3  1  0
  3  4  2  3
  4  5  1  0
  5  6  2  0
  6  7  1  0
  7  8  2  0
  8  9  1  0
  9 10  1  0
 10 11  1  0
 11 12  1  0
 12 13  2  0
 12 14  1  0
 14 15  1  0
 15 16  1  0
 16 17  2  0
 17 18  1  0
 18 19  2  0
 19 20  1  0
 20 21  2  0
 21 22  1  0
  9 23  2  0
 23 24  1  0
  2 25  1  0
 25 26  1  0
 26 27  1  0
 27 28  1  0
 28 29  2  0
 29 30  1  0
 30 31  2  0
 31 32  1  0
 32 33  1  0
 32 34  2  0
 23  5  1  0
 34 28  1  0
 21 16  1  0
  3 35  1  0
  4 36  1  0
  6 37  1  0
  7 38  1  0
  8 39  1  0
 11 40  1  0
 11 41  1  0
 15 42  1  0
 15 43  1  0
 17 44  1  0
 18 45  1  0
 19 46  1  0
 20 47  1  0
 24 48  1  0
 26 49  1  0
 26 50  1  0
 27 51  1  0
 27 52  1  0
 29 53  1  0
 30 54  1  0
 31 55  1  0
 34 56  1  0
M  CHG  4  14  -1  22  -1  25  -1  33  -1
M  END
>  <UniqueID>  (42) 
40

>  <SMILES>  (42) 
O=C(C=Cc1cccc(OCC(=O)[N-]Cc2ccccc2[O-])c1O)[N-]CCc1cccc([O-])c1

>  <Energy>  (42) 
53.335444930424345

>  <Genealogy>  (42) 
O=C(C=Cc1cccc(OCC(=O)[N-]Cc2ccccc2[O-])c1O)[N-]CCc1cccc([O-])c1 (protonated)
O=C(C=Cc1cccc(OCC(=O)[N-]Cc2ccccc2[O-])c1O)[N-]CCc1cccc([O-])c1 (3D coordinates assigned)
O=C(C=Cc1cccc(OCC(=O)[N-]Cc2ccccc2[O-])c1O)[N-]CCc1cccc([O-])c1 (optimized conformer: 53.335444930424345 kcal/mol)

>  <smiles>  (42) 
O=C(C=Cc1cccc(OCC(=O)NCc2ccccc2O)c1O)NCCc1cccc(O)c1

>  <score_type>  (42) 
oracle

>  <origin>  (42) 
adg

>  <m_score__min__energy>  (42) 
-19.690000000000001

>  <m_primary>  (42) 
energy

$$$$
42:0
     RDKit          3D

 74 78  0  0  0  0  0  0  0  0999 V2000
   63.9040   34.9360   53.8830 C   0  0  0  0  0  0  0  0  0  0  0  0
   63.2410   33.8690   53.0520 C   0  0  0  0  0  0  0  0  0  0  0  0
   62.0230   33.7800   53.1010 O   0  0  0  0  0  0  0  0  0  0  0  0
   64.0070   32.8620   52.1980 C   0  0  1  0  0  0  0  0  0  0  0  0
   63.9540   31.4300   52.7780 C   0  0  0  0  0  0  0  0  0  0  0  0
   63.0500   30.6000   51.8510 C   0  0  0  0  0  0  0  0  0  0  0  0
   62.4560   31.6020   50.8630 C   0  0  2  0  0  0  0  0  0  0  0  0
   61.9530   31.0640   49.4960 C   0  0  1  0  0  0  0  0  0  0  0  0
   60.7160   30.1470   49.7170 C   0  0  0  0  0  0  0  0  0  0  0  0
   59.3790   30.8940   49.6340 C   0  0  0  0  0  0  0  0  0  0  0  0
   59.2460   31.8000   48.4190 C   0  0  0  0  0  0  0  0  0  0  0  0
   58.0730   32.4800   48.3380 C   0  0  0  0  0  0  0  0  0  0  0  0
   57.6980   33.4730   47.2930 C   0  0  0  0  0  0  0  0  0  0  0  0
   57.9000   32.8620   45.9510 C   0  0  0  0  0  0  0  0  0  0  0  0
   56.9880   32.2620   45.4000 O   0  0  0  0  0  0  0  0  0  0  0  0
   59.2200   33.0110   45.2800 C   0  0  0  0  0  0  0  0  0  0  0  0
   60.4060   32.9560   46.2650 C   0  0  0  0  0  0  0  0  0  0  0  0
   60.4750   31.9440   47.4850 C   0  0  2  0  0  0  0  0  0  0  0  0
   60.7540   30.5970   46.7730 C   0  0  0  0  0  0  0  0  0  0  0  0
   61.9200   30.4010   46.3280 O   0  0  0  0  0  0  0  0  0  0  0  0
   59.7560   29.5640   46.5460 N   0  0  0  0  0  0  0  0  0  0  0  0
   58.3480   29.8860   46.2490 C   0  0  0  0  0  0  0  0  0  0  0  0
   57.6570   28.7560   45.4810 C   0  0  0  0  0  0  0  0  0  0  0  0
   57.8580   27.4780   46.1790 N   0  0  0  0  0  0  0  0  0  0  0  0
   56.7710   26.5310   46.3000 C   0  0  0  0  0  0  0  0  0  0  0  0
   56.9930   25.1520   46.8510 C   0  0  0  0  0  0  0  0  0  0  0  0
   55.6070   26.8460   45.9270 O   0  0  0  0  0  0  0  0  0  0  0  0
   59.1840   27.1580   46.7320 C   0  0  0  0  0  0  0  0  0  0  0  0
   60.2380   28.1910   46.3200 C   0  0  0  0  0  0  0  0  0  0  0  0
   61.6970   32.2430   48.4540 C   0  0  1  0  0  0  0  0  0  0  0  0
   61.6020   33.6160   49.1960 C   0  0  0  0  0  0  0  0  0  0  0  0
   62.8440   33.9580   50.0620 C   0  0  0  0  0  0  0  0  0  0  0  0
   63.5050   32.7100   50.7280 C   0  0  1  0  0  0  0  0  0  0  0  0
   64.7320   32.2660   49.8680 C   0  0  0  0  0  0  0  0  0  0  0  0
   63.7634   34.7097   54.9503 H   0  0  0  0  0  0  0  0  0  0  0  0
   64.9793   34.9647   53.6528 H   0  0  0  0  0  0  0  0  0  0  0  0
   63.4535   35.9128   53.6528 H   0  0  0  0  0  0  0  0  0  0  0  0
   65.0196   33.2917   52.2065 H   0  0  0  0  0  0  0  0  0  0  0  0
   64.9647   30.9967   52.8064 H   0  0  0  0  0  0  0  0  0  0  0  0
   63.5600   31.4378   53.8050 H   0  0  0  0  0  0  0  0  0  0  0  0
   63.6392   29.8381   51.3196 H   0  0  0  0  0  0  0  0  0  0  0  0
   62.2691   30.0652   52.4115 H   0  0  0  0  0  0  0  0  0  0  0  0
   61.4995   31.9581   51.2733 H   0  0  0  0  0  0  0  0  0  0  0  0
   62.7391   30.4462   49.0372 H   0  0  0  0  0  0  0  0  0  0  0  0
   60.7238   29.3603   48.9482 H   0  0  0  0  0  0  0  0  0  0  0  0
   60.7949   29.7363   50.7344 H   0  0  0  0  0  0  0  0  0  0  0  0
   58.5695   30.1500   49.5999 H   0  0  0  0  0  0  0  0  0  0  0  0
   59.3237   31.5431   50.5203 H   0  0  0  0  0  0  0  0  0  0  0  0
   57.3270   32.2776   49.1207 H   0  0  0  0  0  0  0  0  0  0  0  0
   56.6419   33.7557   47.4146 H   0  0  0  0  0  0  0  0  0  0  0  0
   58.3252   34.3714   47.3911 H   0  0  0  0  0  0  0  0  0  0  0  0
   59.3347   32.1984   44.5475 H   0  0  0  0  0  0  0  0  0  0  0  0
   59.2358   34.0009   44.8006 H   0  0  0  0  0  0  0  0  0  0  0  0
   61.2976   32.7533   45.6535 H   0  0  0  0  0  0  0  0  0  0  0  0
   60.3016   33.9191   46.7861 H   0  0  0  0  0  0  0  0  0  0  0  0
   57.8132   30.0522   47.1958 H   0  0  0  0  0  0  0  0  0  0  0  0
   58.3285   30.7887   45.6207 H   0  0  0  0  0  0  0  0  0  0  0  0
   56.5798   28.9680   45.4120 H   0  0  0  0  0  0  0  0  0  0  0  0
   58.0891   28.6882   44.4717 H   0  0  0  0  0  0  0  0  0  0  0  0
   56.9867   25.1910   47.9503 H   0  0  0  0  0  0  0  0  0  0  0  0
   56.1907   24.4846   46.5032 H   0  0  0  0  0  0  0  0  0  0  0  0
   57.9642   24.7701   46.5032 H   0  0  0  0  0  0  0  0  0  0  0  0
   59.1162   27.1372   47.8297 H   0  0  0  0  0  0  0  0  0  0  0  0
   59.4920   26.1792   46.3357 H   0  0  0  0  0  0  0  0  0  0  0  0
   61.1501   28.0289   46.9131 H   0  0  0  0  0  0  0  0  0  0  0  0
   60.4456   28.0673   45.2469 H   0  0  0  0  0  0  0  0  0  0  0  0
   62.5656   32.3075   47.7822 H   0  0  0  0  0  0  0  0  0  0  0  0
   61.4782   34.4077   48.4424 H   0  0  0  0  0  0  0  0  0  0  0  0
   60.7465   33.5453   49.8839 H   0  0  0  0  0  0  0  0  0  0  0  0
   63.5918   34.4464   49.4199 H   0  0  0  0  0  0  0  0  0  0  0  0
   62.4992   34.6130   50.8757 H   0  0  0  0  0  0  0  0  0  0  0  0
   65.5565   31.9676   50.5322 H   0  0  0  0  0  0  0  0  0  0  0  0
   64.4460   31.4144   49.2333 H   0  0  0  0  0  0  0  0  0  0  0  0
   65.0572   33.1035   49.2333 H   0  0  0  0  0  0  0  0  0  0  0  0
  1  2  1  0
  2  3  2  0
  2  4  1  0
  4  5  1  0
  5  6  1  0
  6  7  1  0
  7  8  1  0
  8  9  1  0
  9 10  1  0
 10 11  1  0
 11 12  2  0
 12 13  1  0
 13 14  1  0
 14 15  2  0
 14 16  1  0
 16 17  1  0
 17 18  1  0
 18 19  1  6
 19 20  2  0
 19 21  1  0
 21 22  1  0
 22 23  1  0
 23 24  1  0
 24 25  1  0
 25 26  1  0
 25 27  2  0
 24 28  1  0
 28 29  1  0
 18 30  1  0
 30 31  1  0
 31 32  1  0
 32 33  1  0
 33 34  1  6
 33  4  1  0
 33  7  1  0
 30  8  1  0
 18 11  1  0
 29 21  1  0
  1 35  1  0
  1 36  1  0
  1 37  1  0
  4 38  1  6
  5 39  1  0
  5 40  1  0
  6 41  1  0
  6 42  1  0
  7 43  1  1
  8 44  1  6
  9 45  1  0
  9 46  1  0
 10 47  1  0
 10 48  1  0
 12 49  1  0
 13 50  1  0
 13 51  1  0
 16 52  1  0
 16 53  1  0
 17 54  1  0
 17 55  1  0
 22 56  1  0
 22 57  1  0
 23 58  1  0
 23 59  1  0
 26 60  1  0
 26 61  1  0
 26 62  1  0
 28 63  1  0
 28 64  1  0
 29 65  1  0
 29 66  1  0
 30 67  1  6
 31 68  1  0
 31 69  1  0
 32 70  1  0
 32 71  1  0
 34 72  1  0
 34 73  1  0
 34 74  1  0
M  END
>  <UniqueID>  (43) 
41

>  <SMILES>  (43) 
CC(=O)[C@H]1CC[C@@H]2C3CCC4=CCC(=O)CCC4(C(=O)N4CCN(C(C)=O)CC4)C3CCC12C

>  <Energy>  (43) 
127.9573312160108

>  <Genealogy>  (43) 
CC(=O)[C@H]1CC[C@@H]2C3CCC4=CCC(=O)CCC4(C(=O)N4CCN(C(C)=O)CC4)C3CCC12C (chirality)
CC(=O)[C@H]1CC[C@@H]2C3CCC4=CCC(=O)CCC4(C(=O)N4CCN(C(C)=O)CC4)C3CCC12C (3D coordinates assigned)
CC(=O)[C@H]1CC[C@@H]2C3CCC4=CCC(=O)CCC4(C(=O)N4CCN(C(C)=O)CC4)C3CCC12C (nonaromatic ring conformer: 127.9573312160108 kcal/mol)

>  <smiles>  (43) 
CC(=O)C1CCC2C3CCC4=CCC(=O)CCC4(C(=O)N4CCN(C(C)=O)CC4)C3CCC12C

>  <score_type>  (43) 
oracle

>  <origin>  (43) 
adg

>  <m_score__min__energy>  (43) 
-7.04

>  <m_primary>  (43) 
energy

$$$$
43:0
     RDKit          3D

 50 52  0  0  1  0  0  0  0  0999 V2000
   56.6710   29.1090   42.5010 C   0  0  0  0  0  0  0  0  0  0  0  0
   56.2820   30.4690   43.0590 C   0  0  0  0  0  0  0  0  0  0  0  0
   57.3510   31.4380   42.5390 C   0  0  0  0  0  0  0  0  0  0  0  0
   56.3000   30.4910   44.4900 N   0  0  0  0  0  0  0  0  0  0  0  0
   57.1060   29.8340   45.2420 C   0  0  0  0  0  0  0  0  0  0  0  0
   56.8480   28.5340   45.4700 N   0  0  0  0  0  0  0  0  0  0  0  0
   57.6800   27.8260   46.2550 C   0  0  0  0  0  0  0  0  0  0  0  0
   57.3640   26.4550   46.4680 N   0  0  0  0  0  0  0  0  0  0  0  0
   58.2510   25.4750   47.0590 C   0  0  0  0  0  0  0  0  0  0  0  0
   57.3720   24.2400   47.2150 C   0  0  0  0  0  0  0  0  0  0  0  0
   56.3880   24.3740   46.0690 C   0  0  0  0  0  0  0  0  0  0  0  0
   56.1150   25.8530   46.1250 C   0  0  0  0  0  0  0  0  0  0  0  0
   55.0170   26.4210   45.9110 O   0  0  0  0  0  0  0  0  0  0  0  0
   58.7770   28.3670   46.8300 N   0  0  0  0  0  0  0  0  0  0  0  0
   59.0430   29.6740   46.6040 C   0  0  0  0  0  0  0  0  0  0  0  0
   58.2130   30.4340   45.8050 C   0  0  0  0  0  0  0  0  0  0  0  0
   58.3390   31.8710   45.4430 C   0  0  0  0  0  0  0  0  0  0  0  0
   58.4040   32.6540   46.7170 C   0  0  0  0  0  0  0  0  0  0  0  0
   59.4440   32.3430   47.6230 N   0  0  0  0  0  0  0  0  0  0  0  0
   60.0870   33.8210   48.2520 S   0  0  0  0  0  0  0  0  0  0  0  0
   60.0420   33.8320   50.0290 C   0  0  0  0  0  0  0  0  0  0  0  0
   59.2180   34.9320   47.7130 O   0  0  0  0  0  0  0  0  0  0  0  0
   61.5150   34.0160   47.8440 O   0  0  0  0  0  0  0  0  0  0  0  0
   60.5300   31.5530   47.1530 C   0  0  0  0  0  0  0  0  0  0  0  0
   60.2950   30.0550   47.3340 C   0  0  0  0  0  0  0  0  0  0  0  0
   56.8695   28.4152   43.3312 H   0  0  0  0  0  0  0  0  0  0  0  0
   55.8490   28.7170   41.8841 H   0  0  0  0  0  0  0  0  0  0  0  0
   57.5760   29.2110   41.8841 H   0  0  0  0  0  0  0  0  0  0  0  0
   55.2599   30.7307   42.7479 H   0  0  0  0  0  0  0  0  0  0  0  0
   57.8671   31.9058   43.3903 H   0  0  0  0  0  0  0  0  0  0  0  0
   58.0795   30.8861   41.9269 H   0  0  0  0  0  0  0  0  0  0  0  0
   56.8731   32.2170   41.9269 H   0  0  0  0  0  0  0  0  0  0  0  0
   56.0250   28.0930   45.0500 H   0  0  0  0  0  0  0  0  0  0  0  0
   59.1042   25.2680   46.3963 H   0  0  0  0  0  0  0  0  0  0  0  0
   58.6850   25.8125   48.0117 H   0  0  0  0  0  0  0  0  0  0  0  0
   57.9650   23.3183   47.1210 H   0  0  0  0  0  0  0  0  0  0  0  0
   56.8848   24.1765   48.1992 H   0  0  0  0  0  0  0  0  0  0  0  0
   56.8373   24.0786   45.1094 H   0  0  0  0  0  0  0  0  0  0  0  0
   55.4954   23.7363   46.1499 H   0  0  0  0  0  0  0  0  0  0  0  0
   59.2560   32.0313   44.8569 H   0  0  0  0  0  0  0  0  0  0  0  0
   57.4810   32.1931   44.8347 H   0  0  0  0  0  0  0  0  0  0  0  0
   58.5093   33.7150   46.4464 H   0  0  0  0  0  0  0  0  0  0  0  0
   57.4791   32.3940   47.2527 H   0  0  0  0  0  0  0  0  0  0  0  0
   61.0398   33.5881   50.4226 H   0  0  0  0  0  0  0  0  0  0  0  0
   59.7425   34.8298   50.3820 H   0  0  0  0  0  0  0  0  0  0  0  0
   59.3159   33.0849   50.3820 H   0  0  0  0  0  0  0  0  0  0  0  0
   60.6766   31.7588   46.0824 H   0  0  0  0  0  0  0  0  0  0  0  0
   61.4163   31.8228   47.7459 H   0  0  0  0  0  0  0  0  0  0  0  0
   61.1479   29.4942   46.9240 H   0  0  0  0  0  0  0  0  0  0  0  0
   60.1926   29.8180   48.4033 H   0  0  0  0  0  0  0  0  0  0  0  0
  1  2  1  0
  2  3  1  0
  2  4  1  0
  4  5  2  0
  5  6  1  0
  6  7  1  0
  7  8  1  0
  8  9  1  0
  9 10  1  0
 10 11  1  0
 11 12  1  0
 12 13  2  0
  7 14  2  0
 14 15  1  0
 15 16  2  0
 16 17  1  0
 17 18  1  0
 18 19  1  0
 19 20  1  0
 20 21  1  0
 20 22  2  0
 20 23  2  0
 19 24  1  0
 24 25  1  0
 16  5  1  0
 12  8  1  0
 25 15  1  0
  1 26  1  0
  1 27  1  0
  1 28  1  0
  2 29  1  0
  3 30  1  0
  3 31  1  0
  3 32  1  0
  6 33  1  0
  9 34  1  0
  9 35  1  0
 10 36  1  0
 10 37  1  0
 11 38  1  0
 11 39  1  0
 17 40  1  0
 17 41  1  0
 18 42  1  0
 18 43  1  0
 21 44  1  0
 21 45  1  0
 21 46  1  0
 24 47  1  0
 24 48  1  0
 25 49  1  0
 25 50  1  0
M  END
>  <smiles>  (44) 
CC(C)N=c1[nH]c(N2CCCC2=O)nc2c1CCN(S(C)(=O)=O)CC2

>  <score_type>  (44) 
oracle

>  <origin>  (44) 
adg

>  <m_score__min__energy>  (44) 
-6.7400000000000002

>  <m_primary>  (44) 
energy

$$$$
44:0
     RDKit          3D

 63 65  0  0  0  0  0  0  0  0999 V2000
   57.0670   32.1340   52.2930 C   0  0  0  0  0  0  0  0  0  0  0  0
   58.2010   33.0580   52.7170 C   0  0  0  0  0  0  0  0  0  0  0  0
   58.6530   33.8380   51.6110 O   0  0  0  0  0  0  0  0  0  0  0  0
   59.6630   33.4260   50.7340 C   0  0  0  0  0  0  0  0  0  0  0  0
   60.8400   33.2570   51.1550 O   0  0  0  0  0  0  0  0  0  0  0  0
   59.3680   33.2480   49.2920 C   0  0  0  0  0  0  0  0  0  0  0  0
   59.5520   34.4090   48.3540 C   0  0  0  0  0  0  0  0  0  0  0  0
   58.9720   34.0820   47.0040 C   0  0  0  0  0  0  0  0  0  0  0  0
   57.6190   33.7210   46.8800 C   0  0  0  0  0  0  0  0  0  0  0  0
   57.0760   33.4550   45.6200 C   0  0  0  0  0  0  0  0  0  0  0  0
   57.8730   33.5570   44.4760 C   0  0  0  0  0  0  0  0  0  0  0  0
   59.2170   33.9250   44.5910 C   0  0  0  0  0  0  0  0  0  0  0  0
   59.7640   34.1900   45.8500 C   0  0  0  0  0  0  0  0  0  0  0  0
   58.9380   32.1220   48.7920 N   0  0  0  0  0  0  0  0  0  0  0  0
   59.0550   30.8110   49.3590 C   0  0  0  0  0  0  0  0  0  0  0  0
   58.1270   30.3360   50.0710 O   0  0  0  0  0  0  0  0  0  0  0  0
   60.3550   30.0700   49.2270 C   0  0  1  0  0  0  0  0  0  0  0  0
   60.7380   29.9260   47.7450 C   0  0  0  0  0  0  0  0  0  0  0  0
   59.5300   29.6040   46.9040 C   0  0  0  0  0  0  0  0  0  0  0  0
   59.0850   30.5060   45.9230 C   0  0  0  0  0  0  0  0  0  0  0  0
   57.9940   30.1820   45.1110 C   0  0  0  0  0  0  0  0  0  0  0  0
   57.3440   28.9560   45.2690 C   0  0  0  0  0  0  0  0  0  0  0  0
   57.7870   28.0480   46.2350 C   0  0  0  0  0  0  0  0  0  0  0  0
   58.8790   28.3680   47.0480 C   0  0  0  0  0  0  0  0  0  0  0  0
   61.4100   30.7760   49.9610 N   0  0  0  0  0  0  0  0  0  0  0  0
   62.4040   30.1060   50.7440 C   0  0  0  0  0  0  0  0  0  0  0  0
   62.3780   28.8510   50.8750 O   0  0  0  0  0  0  0  0  0  0  0  0
   63.4100   30.8610   51.3570 O   0  0  0  0  0  0  0  0  0  0  0  0
   64.4500   31.5140   50.6330 C   0  0  0  0  0  0  0  0  0  0  0  0
   63.8730   32.3150   49.4970 C   0  0  0  0  0  0  0  0  0  0  0  0
   63.7720   31.7420   48.2190 C   0  0  0  0  0  0  0  0  0  0  0  0
   63.2130   32.4700   47.1640 C   0  0  0  0  0  0  0  0  0  0  0  0
   62.7480   33.7710   47.3780 C   0  0  0  0  0  0  0  0  0  0  0  0
   62.8430   34.3450   48.6490 C   0  0  0  0  0  0  0  0  0  0  0  0
   63.4030   33.6220   49.7070 C   0  0  0  0  0  0  0  0  0  0  0  0
   56.5702   31.7292   53.1870 H   0  0  0  0  0  0  0  0  0  0  0  0
   56.3386   32.6990   51.6929 H   0  0  0  0  0  0  0  0  0  0  0  0
   57.4732   31.3065   51.6929 H   0  0  0  0  0  0  0  0  0  0  0  0
   57.8424   33.7298   53.5107 H   0  0  0  0  0  0  0  0  0  0  0  0
   59.0379   32.4466   53.0855 H   0  0  0  0  0  0  0  0  0  0  0  0
   59.0415   35.2926   48.7647 H   0  0  0  0  0  0  0  0  0  0  0  0
   60.6269   34.6147   48.2432 H   0  0  0  0  0  0  0  0  0  0  0  0
   56.9862   33.6477   47.7768 H   0  0  0  0  0  0  0  0  0  0  0  0
   56.0190   33.1647   45.5282 H   0  0  0  0  0  0  0  0  0  0  0  0
   57.4428   33.3478   43.4855 H   0  0  0  0  0  0  0  0  0  0  0  0
   59.8440   34.0060   43.6908 H   0  0  0  0  0  0  0  0  0  0  0  0
   60.8203   34.4846   45.9368 H   0  0  0  0  0  0  0  0  0  0  0  0
   60.2372   29.0639   49.6558 H   0  0  0  0  0  0  0  0  0  0  0  0
   61.1792   30.8705   47.3941 H   0  0  0  0  0  0  0  0  0  0  0  0
   61.4617   29.1033   47.6484 H   0  0  0  0  0  0  0  0  0  0  0  0
   59.5970   31.4709   45.7933 H   0  0  0  0  0  0  0  0  0  0  0  0
   57.6472   30.8933   44.3470 H   0  0  0  0  0  0  0  0  0  0  0  0
   56.4826   28.7047   44.6327 H   0  0  0  0  0  0  0  0  0  0  0  0
   57.2764   27.0812   46.3558 H   0  0  0  0  0  0  0  0  0  0  0  0
   59.2293   27.6489   47.8031 H   0  0  0  0  0  0  0  0  0  0  0  0
   61.5100   31.8090   49.8320 H   0  0  0  0  0  0  0  0  0  0  0  0
   64.9964   32.1867   51.3104 H   0  0  0  0  0  0  0  0  0  0  0  0
   65.1326   30.7544   50.2244 H   0  0  0  0  0  0  0  0  0  0  0  0
   64.1337   30.7175   48.0472 H   0  0  0  0  0  0  0  0  0  0  0  0
   63.1390   32.0182   46.1638 H   0  0  0  0  0  0  0  0  0  0  0  0
   62.3080   34.3422   46.5473 H   0  0  0  0  0  0  0  0  0  0  0  0
   62.4762   35.3683   48.8175 H   0  0  0  0  0  0  0  0  0  0  0  0
   63.4756   34.0777   50.7056 H   0  0  0  0  0  0  0  0  0  0  0  0
  1  2  1  0
  2  3  1  0
  3  4  1  0
  4  5  2  0
  4  6  1  0
  6  7  1  0
  7  8  1  0
  8  9  2  0
  9 10  1  0
 10 11  2  0
 11 12  1  0
 12 13  2  0
  6 14  2  3
 14 15  1  0
 15 16  2  0
 15 17  1  0
 17 18  1  0
 18 19  1  0
 19 20  2  0
 20 21  1  0
 21 22  2  0
 22 23  1  0
 23 24  2  0
 17 25  1  0
 25 26  1  0
 26 27  2  0
 26 28  1  0
 28 29  1  0
 29 30  1  0
 30 31  2  0
 31 32  1  0
 32 33  2  0
 33 34  1  0
 34 35  2  0
 13  8  1  0
 24 19  1  0
 35 30  1  0
  1 36  1  0
  1 37  1  0
  1 38  1  0
  2 39  1  0
  2 40  1  0
  7 41  1  0
  7 42  1  0
  9 43  1  0
 10 44  1  0
 11 45  1  0
 12 46  1  0
 13 47  1  0
 17 48  1  1
 18 49  1  0
 18 50  1  0
 20 51  1  0
 21 52  1  0
 22 53  1  0
 23 54  1  0
 24 55  1  0
 25 56  1  0
 29 57  1  0
 29 58  1  0
 31 59  1  0
 32 60  1  0
 33 61  1  0
 34 62  1  0
 35 63  1  0
M  END
>  <UniqueID>  (45) 
42

>  <SMILES>  (45) 
CCOC(=O)C(Cc1ccccc1)=NC(=O)[C@@H](Cc1ccccc1)NC(=O)OCc1ccccc1

>  <Energy>  (45) 
59.3255459341779

>  <Genealogy>  (45) 
CCOC(=O)C(Cc1ccccc1)=NC(=O)[C@@H](Cc1ccccc1)NC(=O)OCc1ccccc1 (chirality)
CCOC(=O)C(Cc1ccccc1)=NC(=O)[C@@H](Cc1ccccc1)NC(=O)OCc1ccccc1 (3D coordinates assigned)
CCOC(=O)C(Cc1ccccc1)=NC(=O)[C@@H](Cc1ccccc1)NC(=O)OCc1ccccc1 (optimized conformer: 59.3255459341779 kcal/mol)

>  <smiles>  (45) 
CCOC(=O)C(Cc1ccccc1)=NC(=O)C(Cc1ccccc1)NC(=O)OCc1ccccc1

>  <score_type>  (45) 
oracle

>  <origin>  (45) 
adg

>  <m_score__min__energy>  (45) 
-9.2899999999999991

>  <m_primary>  (45) 
energy

$$$$
45:0
     RDKit          3D

 37 39  0  0  0  0  0  0  0  0999 V2000
   62.6280   31.5960   47.8000 C   0  0  0  0  0  0  0  0  0  0  0  0
   61.2320   31.6690   47.2680 C   0  0  0  0  0  0  0  0  0  0  0  0
   60.5900   30.6260   46.7060 N   0  0  0  0  0  0  0  0  0  0  0  0
   59.3630   31.0590   46.3530 C   0  0  0  0  0  0  0  0  0  0  0  0
   58.3530   30.1820   45.7350 C   0  0  0  0  0  0  0  0  0  0  0  0
   57.1500   30.7120   45.3910 N   0  0  0  0  0  0  0  0  0  0  0  0
   56.1840   29.9540   44.8120 C   0  0  0  0  0  0  0  0  0  0  0  0
   55.0830   30.4740   44.4940 O   0  0  0  0  0  0  0  0  0  0  0  0
   56.4060   28.6370   44.5730 N   0  0  0  0  0  0  0  0  0  0  0  0
   57.5800   28.0450   44.9200 C   0  0  0  0  0  0  0  0  0  0  0  0
   57.7870   26.5890   44.6130 C   0  0  0  0  0  0  0  0  0  0  0  0
   57.2560   25.7440   45.7310 C   0  0  0  0  0  0  0  0  0  0  0  0
   57.9330   24.7200   46.2800 N   0  0  0  0  0  0  0  0  0  0  0  0
   57.0610   24.2170   47.1810 C   0  0  0  0  0  0  0  0  0  0  0  0
   57.3360   23.2320   47.9140 O   0  0  0  0  0  0  0  0  0  0  0  0
   55.8690   24.8500   47.2320 N   0  0  0  0  0  0  0  0  0  0  0  0
   56.0040   25.8110   46.3030 C   0  0  0  0  0  0  0  0  0  0  0  0
   54.9960   26.7200   45.9920 O   0  0  0  0  0  0  0  0  0  0  0  0
   58.5860   28.8120   45.5270 C   0  0  0  0  0  0  0  0  0  0  0  0
   59.7760   28.2190   45.9380 O   0  0  0  0  0  0  0  0  0  0  0  0
   59.2050   32.3910   46.7240 C   0  0  0  0  0  0  0  0  0  0  0  0
   57.9670   33.2310   46.6140 C   0  0  0  0  0  0  0  0  0  0  0  0
   60.4140   32.7880   47.2740 C   0  0  0  0  0  0  0  0  0  0  0  0
   60.7250   34.1200   47.8860 C   0  0  0  0  0  0  0  0  0  0  0  0
   62.6018   31.5974   48.8997 H   0  0  0  0  0  0  0  0  0  0  0  0
   63.1075   30.6716   47.4458 H   0  0  0  0  0  0  0  0  0  0  0  0
   63.2013   32.4654   47.4458 H   0  0  0  0  0  0  0  0  0  0  0  0
   60.9710   29.6630   46.5700 H   0  0  0  0  0  0  0  0  0  0  0  0
   57.2579   26.3350   43.6826 H   0  0  0  0  0  0  0  0  0  0  0  0
   58.8637   26.3960   44.4973 H   0  0  0  0  0  0  0  0  0  0  0  0
   55.1440   27.4670   45.3240 H   0  0  0  0  0  0  0  0  0  0  0  0
   57.6015   33.4790   47.6214 H   0  0  0  0  0  0  0  0  0  0  0  0
   58.2001   34.1582   46.0700 H   0  0  0  0  0  0  0  0  0  0  0  0
   57.1916   32.6718   46.0700 H   0  0  0  0  0  0  0  0  0  0  0  0
   60.7048   34.0335   48.9824 H   0  0  0  0  0  0  0  0  0  0  0  0
   61.7239   34.4480   47.5624 H   0  0  0  0  0  0  0  0  0  0  0  0
   59.9746   34.8564   47.5624 H   0  0  0  0  0  0  0  0  0  0  0  0
  1  2  1  0
  2  3  1  0
  3  4  1  0
  4  5  1  0
  5  6  2  0
  6  7  1  0
  7  8  2  0
  7  9  1  0
  9 10  1  0
 10 11  1  0
 11 12  1  0
 12 13  1  0
 13 14  1  0
 14 15  2  0
 14 16  1  0
 16 17  1  0
 17 18  1  0
 10 19  2  0
 19 20  1  0
  4 21  2  0
 21 22  1  0
 21 23  1  0
 23 24  1  0
 23  2  2  0
 19  5  1  0
 17 12  2  0
  1 25  1  0
  1 26  1  0
  1 27  1  0
  3 28  1  0
 11 29  1  0
 11 30  1  0
 18 31  1  0
 22 32  1  0
 22 33  1  0
 22 34  1  0
 24 35  1  0
 24 36  1  0
 24 37  1  0
M  CHG  4   9  -1  13  -1  16  -1  20  -1
M  END
>  <UniqueID>  (46) 
43

>  <SMILES>  (46) 
Cc1[nH]c(-c2nc(=O)[n-]c(Cc3[n-]c(=O)[n-]c3O)c2[O-])c(C)c1C

>  <Energy>  (46) 
96.06940055599536

>  <Genealogy>  (46) 
Cc1[nH]c(-c2nc(=O)[n-]c(Cc3[n-]c(=O)[n-]c3O)c2[O-])c(C)c1C (protonated)
Cc1[nH]c(-c2nc(=O)[n-]c(Cc3[n-]c(=O)[n-]c3O)c2[O-])c(C)c1C (3D coordinates assigned)
Cc1[nH]c(-c2nc(=O)[n-]c(Cc3[n-]c(=O)[n-]c3O)c2[O-])c(C)c1C (optimized conformer: 96.06940055599536 kcal/mol)

>  <smiles>  (46) 
Cc1[nH]c(-c2nc(=O)[nH]c(Cc3[nH]c(=O)[nH]c3O)c2O)c(C)c1C

>  <score_type>  (46) 
oracle

>  <origin>  (46) 
adg

>  <m_score__min__energy>  (46) 
-14.66

>  <m_primary>  (46) 
energy

$$$$
46:0
     RDKit          3D

 23 24  0  0  0  0  0  0  0  0999 V2000
   59.6210   26.7300   46.2310 O   0  0  0  0  0  0  0  0  0  0  0  0
   58.4520   27.0960   45.9430 C   0  0  0  0  0  0  0  0  0  0  0  0
   58.2410   28.2840   45.2420 C   0  0  0  0  0  0  0  0  0  0  0  0
   56.9280   28.6560   44.9420 C   0  0  0  0  0  0  0  0  0  0  0  0
   56.6040   30.1450   44.0720 S   0  0  0  0  0  0  0  0  0  0  0  0
   55.1390   30.4710   44.1510 O   0  0  0  0  0  0  0  0  0  0  0  0
   56.9760   29.9740   42.6260 O   0  0  0  0  0  0  0  0  0  0  0  0
   57.5330   31.4540   44.7940 C   0  0  0  0  0  0  0  0  0  0  0  0
   58.0380   31.3300   46.0960 C   0  0  0  0  0  0  0  0  0  0  0  0
   58.7590   32.3810   46.6720 C   0  0  0  0  0  0  0  0  0  0  0  0
   58.9750   33.5620   45.9530 C   0  0  0  0  0  0  0  0  0  0  0  0
   59.8790   34.8790   46.6760 Cl  0  0  0  0  0  0  0  0  0  0  0  0
   58.4670   33.6910   44.6560 C   0  0  0  0  0  0  0  0  0  0  0  0
   57.7450   32.6410   44.0780 C   0  0  0  0  0  0  0  0  0  0  0  0
   55.8960   27.8630   45.3350 N   0  0  0  0  0  0  0  0  0  0  0  0
   56.1210   26.7090   46.0170 C   0  0  0  0  0  0  0  0  0  0  0  0
   55.1520   25.9900   46.3710 O   0  0  0  0  0  0  0  0  0  0  0  0
   57.3920   26.3320   46.3160 N   0  0  0  0  0  0  0  0  0  0  0  0
   59.0887   28.9131   44.9327 H   0  0  0  0  0  0  0  0  0  0  0  0
   57.8669   30.4046   46.6655 H   0  0  0  0  0  0  0  0  0  0  0  0
   59.1571   32.2791   47.6924 H   0  0  0  0  0  0  0  0  0  0  0  0
   58.6353   34.6190   44.0898 H   0  0  0  0  0  0  0  0  0  0  0  0
   57.3428   32.7469   43.0597 H   0  0  0  0  0  0  0  0  0  0  0  0
  1  2  2  0
  2  3  1  0
  3  4  2  0
  4  5  1  0
  5  6  2  0
  5  7  2  0
  5  8  1  0
  8  9  2  0
  9 10  1  0
 10 11  2  0
 11 12  1  0
 11 13  1  0
 13 14  2  0
  4 15  1  0
 15 16  1  0
 16 17  2  0
 16 18  1  0
 18  2  1  0
 14  8  1  0
  3 19  1  0
  9 20  1  0
 10 21  1  0
 13 22  1  0
 14 23  1  0
M  CHG  2  15  -1  18  -1
M  END
>  <UniqueID>  (47) 
44

>  <SMILES>  (47) 
O=c1cc(S(=O)(=O)c2ccc(Cl)cc2)[n-]c(=O)[n-]1

>  <Energy>  (47) 
26.81188019887832

>  <Genealogy>  (47) 
O=c1cc(S(=O)(=O)c2ccc(Cl)cc2)[n-]c(=O)[n-]1 (protonated)
O=c1cc(S(=O)(=O)c2ccc(Cl)cc2)[n-]c(=O)[n-]1 (3D coordinates assigned)
O=c1cc(S(=O)(=O)c2ccc(Cl)cc2)[n-]c(=O)[n-]1 (optimized conformer: 26.81188019887832 kcal/mol)

>  <smiles>  (47) 
O=c1cc(S(=O)(=O)c2ccc(Cl)cc2)[nH]c(=O)[nH]1

>  <score_type>  (47) 
oracle

>  <origin>  (47) 
adg

>  <m_score__min__energy>  (47) 
-11.470000000000001

>  <m_primary>  (47) 
energy

$$$$
47:0
     RDKit          3D

 45 46  0  0  0  0  0  0  0  0999 V2000
   59.3130   30.9690   47.5580 C   0  0  0  0  0  0  0  0  0  0  0  0
   58.4620   30.1810   46.5970 C   0  0  0  0  0  0  0  0  0  0  0  0
   58.3590   28.7880   46.7540 C   0  0  0  0  0  0  0  0  0  0  0  0
   57.5810   28.0200   45.8730 C   0  0  0  0  0  0  0  0  0  0  0  0
   57.4660   26.5540   46.0650 C   0  0  0  0  0  0  0  0  0  0  0  0
   58.6320   25.7720   46.1010 C   0  0  0  0  0  0  0  0  0  0  0  0
   58.5540   24.3940   46.3120 C   0  0  0  0  0  0  0  0  0  0  0  0
   57.3130   23.7790   46.4670 C   0  0  0  0  0  0  0  0  0  0  0  0
   56.1360   24.5330   46.3980 C   0  0  0  0  0  0  0  0  0  0  0  0
   54.8840   23.8520   46.5080 N   0  0  0  0  0  0  0  0  0  0  0  0
   53.7240   23.8240   45.2210 S   0  0  0  0  0  0  0  0  0  0  0  0
   54.5800   23.7070   43.6670 C   0  0  0  0  0  0  0  0  0  0  0  0
   52.8130   22.6430   45.3900 O   0  0  0  0  0  0  0  0  0  0  0  0
   52.9070   25.0850   45.2360 O   0  0  0  0  0  0  0  0  0  0  0  0
   56.2070   25.9330   46.2220 C   0  0  0  0  0  0  0  0  0  0  0  0
   55.0510   26.7160   46.2100 O   0  0  0  0  0  0  0  0  0  0  0  0
   56.9000   28.6580   44.8260 C   0  0  0  0  0  0  0  0  0  0  0  0
   57.0060   30.0380   44.6530 C   0  0  0  0  0  0  0  0  0  0  0  0
   57.7790   30.8110   45.5300 C   0  0  0  0  0  0  0  0  0  0  0  0
   57.8870   32.2670   45.2970 C   0  0  0  0  0  0  0  0  0  0  0  0
   56.8370   32.9370   45.1100 O   0  0  0  0  0  0  0  0  0  0  0  0
   59.1510   32.9430   45.2840 N   0  0  0  0  0  0  0  0  0  0  0  0
   59.4910   34.1290   46.0710 C   0  0  0  0  0  0  0  0  0  0  0  0
   60.9310   34.0310   46.5830 C   0  0  0  0  0  0  0  0  0  0  0  0
   59.3180   35.3710   45.1970 C   0  0  0  0  0  0  0  0  0  0  0  0
   59.0347   30.7113   48.5905 H   0  0  0  0  0  0  0  0  0  0  0  0
   60.3731   30.7266   47.3927 H   0  0  0  0  0  0  0  0  0  0  0  0
   59.1527   32.0446   47.3927 H   0  0  0  0  0  0  0  0  0  0  0  0
   58.8947   28.2933   47.5776 H   0  0  0  0  0  0  0  0  0  0  0  0
   59.6136   26.2485   45.9620 H   0  0  0  0  0  0  0  0  0  0  0  0
   59.4739   23.7925   46.3560 H   0  0  0  0  0  0  0  0  0  0  0  0
   57.2583   22.6948   46.6446 H   0  0  0  0  0  0  0  0  0  0  0  0
   55.6546   23.5601   43.8505 H   0  0  0  0  0  0  0  0  0  0  0  0
   54.1859   22.8544   43.0946 H   0  0  0  0  0  0  0  0  0  0  0  0
   54.4291   24.6341   43.0946 H   0  0  0  0  0  0  0  0  0  0  0  0
   54.1320   26.3400   46.4020 H   0  0  0  0  0  0  0  0  0  0  0  0
   56.2787   28.0667   44.1373 H   0  0  0  0  0  0  0  0  0  0  0  0
   56.4776   30.5245   43.8199 H   0  0  0  0  0  0  0  0  0  0  0  0
   58.8228   34.1985   46.9420 H   0  0  0  0  0  0  0  0  0  0  0  0
   60.9298   34.0311   47.6830 H   0  0  0  0  0  0  0  0  0  0  0  0
   61.3877   33.0997   46.2169 H   0  0  0  0  0  0  0  0  0  0  0  0
   61.5097   34.8918   46.2169 H   0  0  0  0  0  0  0  0  0  0  0  0
   59.1947   36.2563   45.8382 H   0  0  0  0  0  0  0  0  0  0  0  0
   60.2070   35.4992   44.5619 H   0  0  0  0  0  0  0  0  0  0  0  0
   58.4278   35.2514   44.5619 H   0  0  0  0  0  0  0  0  0  0  0  0
  1  2  1  0
  2  3  2  0
  3  4  1  0
  4  5  1  0
  5  6  2  0
  6  7  1  0
  7  8  2  0
  8  9  1  0
  9 10  1  0
 10 11  1  0
 11 12  1  0
 11 13  2  0
 11 14  2  0
  9 15  2  0
 15 16  1  0
  4 17  2  0
 17 18  1  0
 18 19  2  0
 19 20  1  0
 20 21  2  0
 20 22  1  0
 22 23  1  0
 23 24  1  0
 23 25  1  0
 19  2  1  0
 15  5  1  0
  1 26  1  0
  1 27  1  0
  1 28  1  0
  3 29  1  0
  6 30  1  0
  7 31  1  0
  8 32  1  0
 12 33  1  0
 12 34  1  0
 12 35  1  0
 16 36  1  0
 17 37  1  0
 18 38  1  0
 23 39  1  0
 24 40  1  0
 24 41  1  0
 24 42  1  0
 25 43  1  0
 25 44  1  0
 25 45  1  0
M  CHG  2  10  -1  22  -1
M  END
>  <UniqueID>  (48) 
45

>  <SMILES>  (48) 
Cc1cc(-c2cccc([N-]S(C)(=O)=O)c2O)ccc1C(=O)[N-]C(C)C

>  <Energy>  (48) 
57.280259359330735

>  <Genealogy>  (48) 
Cc1cc(-c2cccc([N-]S(C)(=O)=O)c2O)ccc1C(=O)[N-]C(C)C (protonated)
Cc1cc(-c2cccc([N-]S(C)(=O)=O)c2O)ccc1C(=O)[N-]C(C)C (3D coordinates assigned)
Cc1cc(-c2cccc([N-]S(C)(=O)=O)c2O)ccc1C(=O)[N-]C(C)C (optimized conformer: 57.280259359330735 kcal/mol)

>  <smiles>  (48) 
Cc1cc(-c2cccc(NS(C)(=O)=O)c2O)ccc1C(=O)NC(C)C

>  <score_type>  (48) 
oracle

>  <origin>  (48) 
adg

>  <m_score__min__energy>  (48) 
-12.109999999999999

>  <m_primary>  (48) 
energy

$$$$
48:0
     RDKit          3D

 51 54  0  0  0  0  0  0  0  0999 V2000
   59.7952   30.6387   47.0519 H   0  0  0  0  0  0  0  0  0  0  0  0
   59.4440   29.5970   47.0120 C   0  0  0  0  0  0  0  0  0  0  0  0
   59.9260   28.8298   47.6357 H   0  0  0  0  0  0  0  0  0  0  0  0
   58.4270   29.2620   46.2020 C   0  0  0  0  0  0  0  0  0  0  0  0
   57.8640   27.9860   46.0360 C   0  0  0  0  0  0  0  0  0  0  0  0
   58.0020   26.8590   46.7610 C   0  0  0  0  0  0  0  0  0  0  0  0
   58.7974   26.8435   47.5206 H   0  0  0  0  0  0  0  0  0  0  0  0
   57.1790   25.6470   46.6230 C   0  0  0  0  0  0  0  0  0  0  0  0
   57.5830   24.4040   46.9450 N   0  0  0  0  0  0  0  0  0  0  0  0
   56.4650   23.6620   46.7870 C   0  0  0  0  0  0  0  0  0  0  0  0
   56.4440   22.4190   46.9820 O   0  0  0  0  0  0  0  0  0  0  0  0
   55.3700   24.3590   46.4140 N   0  0  0  0  0  0  0  0  0  0  0  0
   55.8380   25.6150   46.3290 C   0  0  0  0  0  0  0  0  0  0  0  0
   55.0520   26.7110   45.9950 O   0  0  0  0  0  0  0  0  0  0  0  0
   57.0490   28.0640   44.9190 C   0  0  0  0  0  0  0  0  0  0  0  0
   56.4870   27.2379   44.4588 H   0  0  0  0  0  0  0  0  0  0  0  0
   57.0770   29.3760   44.4940 C   0  0  0  0  0  0  0  0  0  0  0  0
   56.3100   29.9050   43.3190 C   0  0  0  0  0  0  0  0  0  0  0  0
   55.4535   30.4957   43.6761 H   0  0  0  0  0  0  0  0  0  0  0  0
   56.9669   30.5430   42.7095 H   0  0  0  0  0  0  0  0  0  0  0  0
   55.9470   29.0643   42.7095 H   0  0  0  0  0  0  0  0  0  0  0  0
   57.9110   30.1050   45.2700 N   0  0  0  0  0  0  0  0  0  0  0  0
   58.2110   31.5030   45.1030 C   0  0  0  0  0  0  0  0  0  0  0  0
   57.9680   32.1380   43.8770 C   0  0  0  0  0  0  0  0  0  0  0  0
   57.5519   31.5651   43.0352 H   0  0  0  0  0  0  0  0  0  0  0  0
   58.2530   33.4960   43.7220 C   0  0  0  0  0  0  0  0  0  0  0  0
   58.0533   33.9919   42.7606 H   0  0  0  0  0  0  0  0  0  0  0  0
   58.7910   34.2270   44.7840 C   0  0  0  0  0  0  0  0  0  0  0  0
   59.0064   35.2983   44.6578 H   0  0  0  0  0  0  0  0  0  0  0  0
   59.0580   33.6000   46.0120 C   0  0  0  0  0  0  0  0  0  0  0  0
   59.6230   34.3670   47.1440 C   0  0  0  0  0  0  0  0  0  0  0  0
   58.9600   35.3320   47.6150 O   0  0  0  0  0  0  0  0  0  0  0  0
   60.9020   34.0360   47.7230 N   0  0  0  0  0  0  0  0  0  0  0  0
   62.0440   33.8290   46.8140 C   0  0  0  0  0  0  0  0  0  0  0  0
   62.2825   34.7843   46.3235 H   0  0  0  0  0  0  0  0  0  0  0  0
   61.7545   33.0607   46.0819 H   0  0  0  0  0  0  0  0  0  0  0  0
   63.2690   33.3370   47.5340 C   0  0  0  0  0  0  0  0  0  0  0  0
   64.1420   32.6870   46.8970 O   0  0  0  0  0  0  0  0  0  0  0  0
   63.4580   33.6400   48.9240 N   0  0  0  0  0  0  0  0  0  0  0  0
   64.6190   33.1160   49.6460 C   0  0  0  0  0  0  0  0  0  0  0  0
   64.4436   33.1952   50.7290 H   0  0  0  0  0  0  0  0  0  0  0  0
   64.7733   32.0610   49.3757 H   0  0  0  0  0  0  0  0  0  0  0  0
   65.5123   33.6982   49.3757 H   0  0  0  0  0  0  0  0  0  0  0  0
   62.4520   34.4580   49.6020 C   0  0  0  0  0  0  0  0  0  0  0  0
   62.5868   35.5129   49.3208 H   0  0  0  0  0  0  0  0  0  0  0  0
   62.5658   34.3516   50.6909 H   0  0  0  0  0  0  0  0  0  0  0  0
   61.0570   33.9950   49.1880 C   0  0  0  0  0  0  0  0  0  0  0  0
   60.3072   34.6554   49.6480 H   0  0  0  0  0  0  0  0  0  0  0  0
   60.9160   32.9582   49.5272 H   0  0  0  0  0  0  0  0  0  0  0  0
   58.7490   32.2390   46.1690 C   0  0  0  0  0  0  0  0  0  0  0  0
   58.9303   31.7463   47.1356 H   0  0  0  0  0  0  0  0  0  0  0  0
  1  2  1  0
  2  3  1  0
  2  4  2  0
  4  5  1  0
  5  6  2  0
  6  7  1  0
  6  8  1  0
  8  9  1  0
  9 10  1  0
 10 11  2  0
 10 12  1  0
 12 13  1  0
 13 14  1  0
  5 15  1  0
 15 16  1  0
 15 17  2  0
 17 18  1  0
 18 19  1  0
 18 20  1  0
 18 21  1  0
 17 22  1  0
 22 23  1  0
 23 24  2  0
 24 25  1  0
 24 26  1  0
 26 27  1  0
 26 28  2  0
 28 29  1  0
 28 30  1  0
 30 31  1  0
 31 32  2  0
 31 33  1  0
 33 34  1  0
 34 35  1  0
 34 36  1  0
 34 37  1  0
 37 38  2  0
 37 39  1  0
 39 40  1  0
 40 41  1  0
 40 42  1  0
 40 43  1  0
 39 44  1  0
 44 45  1  0
 44 46  1  0
 44 47  1  0
 47 48  1  0
 47 49  1  0
 30 50  2  0
 50 51  1  0
 22  4  1  0
 50 23  1  0
 13  8  2  0
 47 33  1  0
M  CHG  3   9  -1  12  -1  14  -1
M  END
>  <UniqueID>  (49) 
46

>  <SMILES>  (49) 
C=c1/c(=C\c2[n-]c(=O)[n-]c2[O-])cc(C)n1-c1cccc(C(=O)N2CCN(C)C(=O)C2)c1

>  <Energy>  (49) 
131.9504900202611

>  <Genealogy>  (49) 
C=c1c(=Cc2[n-]c(=O)[n-]c2[O-])cc(C)n1-c1cccc(C(=O)N2CCN(C)C(=O)C2)c1 (protonated)
C=c1/c(=C\c2[n-]c(=O)[n-]c2[O-])cc(C)n1-c1cccc(C(=O)N2CCN(C)C(=O)C2)c1 (cis-trans isomerization)
C=c1/c(=C\c2[n-]c(=O)[n-]c2[O-])cc(C)n1-c1cccc(C(=O)N2CCN(C)C(=O)C2)c1 (3D coordinates assigned)
C=c1/c(=C\c2[n-]c(=O)[n-]c2[O-])cc(C)n1-c1cccc(C(=O)N2CCN(C)C(=O)C2)c1 (nonaromatic ring conformer: 131.9504900202611 kcal/mol)

>  <smiles>  (49) 
C=c1c(=Cc2[nH]c(=O)[nH]c2O)cc(C)n1-c1cccc(C(=O)N2CCN(C)C(=O)C2)c1

>  <score_type>  (49) 
oracle

>  <origin>  (49) 
adg

>  <m_score__min__energy>  (49) 
-17.219999999999999

>  <m_primary>  (49) 
energy

$$$$
49:0
     RDKit          3D

 45 47  0  0  0  0  0  0  0  0999 V2000
   60.0970   21.8240   45.1450 N   0  0  0  0  0  0  0  0  0  0  0  0
   58.7170   22.1090   44.9100 C   0  0  0  0  0  0  0  0  0  0  0  0
   58.0830   21.6440   43.7540 C   0  0  0  0  0  0  0  0  0  0  0  0
   56.7340   21.9510   43.5670 C   0  0  0  0  0  0  0  0  0  0  0  0
   56.1300   21.5500   42.5370 O   0  0  0  0  0  0  0  0  0  0  0  0
   56.0710   22.6840   44.4980 N   0  0  0  0  0  0  0  0  0  0  0  0
   56.7010   23.1250   45.6180 C   0  0  0  0  0  0  0  0  0  0  0  0
   55.8010   24.0860   46.8310 S   0  0  0  0  0  0  0  0  0  0  0  0
   57.1030   25.3520   47.0150 C   0  0  0  0  0  0  0  0  0  0  0  0
   56.7060   26.6200   46.3280 C   0  0  0  0  0  0  0  0  0  0  0  0
   55.5070   26.7870   45.9750 O   0  0  0  0  0  0  0  0  0  0  0  0
   57.7100   27.5890   46.0040 N   0  0  0  0  0  0  0  0  0  0  0  0
   57.5280   28.7760   45.2200 C   0  0  0  0  0  0  0  0  0  0  0  0
   57.1170   28.6440   43.8880 C   0  0  0  0  0  0  0  0  0  0  0  0
   56.9460   29.7740   43.0850 C   0  0  0  0  0  0  0  0  0  0  0  0
   57.2000   31.0460   43.6020 C   0  0  0  0  0  0  0  0  0  0  0  0
   57.6390   31.1930   44.9250 C   0  0  0  0  0  0  0  0  0  0  0  0
   57.9940   32.8000   45.5660 S   0  0  0  0  0  0  0  0  0  0  0  0
   56.7050   33.4860   45.9220 O   0  0  0  0  0  0  0  0  0  0  0  0
   58.6770   33.6150   44.5020 O   0  0  0  0  0  0  0  0  0  0  0  0
   59.0210   32.7250   46.9780 N   0  0  0  0  0  0  0  0  0  0  0  0
   60.2850   32.0390   46.6610 C   0  0  0  0  0  0  0  0  0  0  0  0
   61.2890   32.1830   47.8230 C   0  0  0  0  0  0  0  0  0  0  0  0
   60.6530   32.6740   48.9880 O   0  0  0  0  0  0  0  0  0  0  0  0
   60.1740   33.9870   48.7560 C   0  0  0  0  0  0  0  0  0  0  0  0
   59.2900   34.0740   47.4930 C   0  0  0  0  0  0  0  0  0  0  0  0
   57.8060   30.0580   45.7300 C   0  0  0  0  0  0  0  0  0  0  0  0
   58.0150   22.8390   45.8160 N   0  0  0  0  0  0  0  0  0  0  0  0
   60.8360   22.5330   44.9340 H   0  0  0  0  0  0  0  0  0  0  0  0
   60.3830   20.8990   45.5360 H   0  0  0  0  0  0  0  0  0  0  0  0
   58.6339   21.0504   43.0096 H   0  0  0  0  0  0  0  0  0  0  0  0
   57.2614   25.5547   48.0845 H   0  0  0  0  0  0  0  0  0  0  0  0
   58.0300   24.9762   46.5573 H   0  0  0  0  0  0  0  0  0  0  0  0
   56.9275   27.6438   43.4712 H   0  0  0  0  0  0  0  0  0  0  0  0
   56.6106   29.6617   42.0434 H   0  0  0  0  0  0  0  0  0  0  0  0
   57.0553   31.9344   42.9698 H   0  0  0  0  0  0  0  0  0  0  0  0
   60.0832   30.9716   46.4882 H   0  0  0  0  0  0  0  0  0  0  0  0
   60.7192   32.4958   45.7595 H   0  0  0  0  0  0  0  0  0  0  0  0
   61.7290   31.1988   48.0416 H   0  0  0  0  0  0  0  0  0  0  0  0
   62.0697   32.8977   47.5236 H   0  0  0  0  0  0  0  0  0  0  0  0
   59.5807   34.3058   49.6256 H   0  0  0  0  0  0  0  0  0  0  0  0
   61.0453   34.6407   48.6024 H   0  0  0  0  0  0  0  0  0  0  0  0
   58.3385   34.5642   47.7467 H   0  0  0  0  0  0  0  0  0  0  0  0
   59.8149   34.6580   46.7227 H   0  0  0  0  0  0  0  0  0  0  0  0
   58.1565   30.1698   46.7667 H   0  0  0  0  0  0  0  0  0  0  0  0
  1  2  1  0
  2  3  2  0
  3  4  1  0
  4  5  2  0
  4  6  1  0
  6  7  1  0
  7  8  1  0
  8  9  1  0
  9 10  1  0
 10 11  2  0
 10 12  1  0
 12 13  1  0
 13 14  2  0
 14 15  1  0
 15 16  2  0
 16 17  1  0
 17 18  1  0
 18 19  2  0
 18 20  2  0
 18 21  1  0
 21 22  1  0
 22 23  1  0
 23 24  1  0
 24 25  1  0
 25 26  1  0
 17 27  2  0
  7 28  2  0
 28  2  1  0
 27 13  1  0
 26 21  1  0
  1 29  1  0
  1 30  1  0
  3 31  1  0
  9 32  1  0
  9 33  1  0
 14 34  1  0
 15 35  1  0
 16 36  1  0
 22 37  1  0
 22 38  1  0
 23 39  1  0
 23 40  1  0
 25 41  1  0
 25 42  1  0
 26 43  1  0
 26 44  1  0
 27 45  1  0
M  CHG  2   6  -1  12  -1
M  END
>  <UniqueID>  (50) 
47

>  <SMILES>  (50) 
Nc1cc(=O)[n-]c(SCC(=O)[N-]c2cccc(S(=O)(=O)N3CCOCC3)c2)n1

>  <Energy>  (50) 
51.517477410276136

>  <Genealogy>  (50) 
Nc1cc(=O)[n-]c(SCC(=O)[N-]c2cccc(S(=O)(=O)N3CCOCC3)c2)n1 (protonated)
Nc1cc(=O)[n-]c(SCC(=O)[N-]c2cccc(S(=O)(=O)N3CCOCC3)c2)n1 (3D coordinates assigned)
Nc1cc(=O)[n-]c(SCC(=O)[N-]c2cccc(S(=O)(=O)N3CCOCC3)c2)n1 (nonaromatic ring conformer: 51.517477410276136 kcal/mol)

>  <smiles>  (50) 
Nc1cc(=O)[nH]c(SCC(=O)Nc2cccc(S(=O)(=O)N3CCOCC3)c2)n1

>  <score_type>  (50) 
oracle

>  <origin>  (50) 
adg

>  <m_score__min__energy>  (50) 
-12.65

>  <m_primary>  (50) 
energy

$$$$
50:0
     RDKit          3D

 44 45  0  0  0  0  0  0  0  0999 V2000
   57.8730   29.3570   51.0420 O   0  0  0  0  0  0  0  0  0  0  0  0
   57.7890   30.3240   51.8450 C   0  0  0  0  0  0  0  0  0  0  0  0
   58.7040   31.5090   51.6560 C   0  0  0  0  0  0  0  0  0  0  0  0
   58.2520   32.3830   50.4820 C   0  0  0  0  0  0  0  0  0  0  0  0
   59.3780   32.5340   49.4470 C   0  0  0  0  0  0  0  0  0  0  0  0
   59.4800   33.9670   48.8990 C   0  0  0  0  0  0  0  0  0  0  0  0
   58.9690   34.0700   47.4840 C   0  0  0  0  0  0  0  0  0  0  0  0
   59.6840   34.7960   46.5160 C   0  0  0  0  0  0  0  0  0  0  0  0
   59.2170   34.8710   45.1990 C   0  0  0  0  0  0  0  0  0  0  0  0
   58.0350   34.2180   44.8380 C   0  0  0  0  0  0  0  0  0  0  0  0
   57.3220   33.4860   45.7930 C   0  0  0  0  0  0  0  0  0  0  0  0
   57.7890   33.4060   47.1100 C   0  0  0  0  0  0  0  0  0  0  0  0
   56.7790   30.2810   52.8680 N   0  0  0  0  0  0  0  0  0  0  0  0
   55.4790   30.9410   52.8130 C   0  0  0  0  0  0  0  0  0  0  0  0
   54.3540   29.9120   52.6080 C   0  0  2  0  0  0  0  0  0  0  0  0
   54.8610   28.7640   51.9760 O   0  0  0  0  0  0  0  0  0  0  0  0
   53.2520   30.5110   51.7630 C   0  0  0  0  0  0  0  0  0  0  0  0
   52.8780   29.9130   50.5440 C   0  0  0  0  0  0  0  0  0  0  0  0
   51.8900   30.4980   49.7440 C   0  0  0  0  0  0  0  0  0  0  0  0
   51.2840   31.6940   50.1400 C   0  0  0  0  0  0  0  0  0  0  0  0
   50.3130   32.2760   49.3320 O   0  0  0  0  0  0  0  0  0  0  0  0
   51.6460   32.2960   51.3500 C   0  0  0  0  0  0  0  0  0  0  0  0
   51.0240   33.4710   51.7610 O   0  0  0  0  0  0  0  0  0  0  0  0
   52.6320   31.7130   52.1550 C   0  0  0  0  0  0  0  0  0  0  0  0
   58.7004   32.1140   52.5747 H   0  0  0  0  0  0  0  0  0  0  0  0
   59.7152   31.1343   51.4392 H   0  0  0  0  0  0  0  0  0  0  0  0
   57.3799   31.9166   50.0003 H   0  0  0  0  0  0  0  0  0  0  0  0
   57.9906   33.3802   50.8657 H   0  0  0  0  0  0  0  0  0  0  0  0
   60.3336   32.2686   49.9229 H   0  0  0  0  0  0  0  0  0  0  0  0
   59.1501   31.8668   48.6027 H   0  0  0  0  0  0  0  0  0  0  0  0
   58.8864   34.6352   49.5402 H   0  0  0  0  0  0  0  0  0  0  0  0
   60.5417   34.2549   48.8979 H   0  0  0  0  0  0  0  0  0  0  0  0
   60.6164   35.3084   46.7954 H   0  0  0  0  0  0  0  0  0  0  0  0
   59.7802   35.4440   44.4477 H   0  0  0  0  0  0  0  0  0  0  0  0
   57.6659   34.2798   43.8036 H   0  0  0  0  0  0  0  0  0  0  0  0
   56.3921   32.9720   45.5084 H   0  0  0  0  0  0  0  0  0  0  0  0
   57.2299   32.8209   47.8550 H   0  0  0  0  0  0  0  0  0  0  0  0
   55.3076   31.4800   53.7565 H   0  0  0  0  0  0  0  0  0  0  0  0
   55.4746   31.6427   51.9659 H   0  0  0  0  0  0  0  0  0  0  0  0
   53.9459   29.6336   53.5908 H   0  0  0  0  0  0  0  0  0  0  0  0
   55.7790   28.9860   51.6670 H   0  0  0  0  0  0  0  0  0  0  0  0
   53.3648   28.9816   50.2192 H   0  0  0  0  0  0  0  0  0  0  0  0
   51.5897   30.0160   48.8020 H   0  0  0  0  0  0  0  0  0  0  0  0
   52.9240   32.1966   53.0989 H   0  0  0  0  0  0  0  0  0  0  0  0
  1  2  2  0
  2  3  1  0
  3  4  1  0
  4  5  1  0
  5  6  1  0
  6  7  1  0
  7  8  2  0
  8  9  1  0
  9 10  2  0
 10 11  1  0
 11 12  2  0
  2 13  1  0
 13 14  1  0
 14 15  1  0
 15 16  1  0
 15 17  1  0
 17 18  2  0
 18 19  1  0
 19 20  2  0
 20 21  1  0
 20 22  1  0
 22 23  1  0
 22 24  2  0
 12  7  1  0
 24 17  1  0
  3 25  1  0
  3 26  1  0
  4 27  1  0
  4 28  1  0
  5 29  1  0
  5 30  1  0
  6 31  1  0
  6 32  1  0
  8 33  1  0
  9 34  1  0
 10 35  1  0
 11 36  1  0
 12 37  1  0
 14 38  1  0
 14 39  1  0
 15 40  1  1
 16 41  1  0
 18 42  1  0
 19 43  1  0
 24 44  1  0
M  CHG  3  13  -1  21  -1  23  -1
M  END
>  <UniqueID>  (51) 
48

>  <SMILES>  (51) 
O=C(CCCCc1ccccc1)[N-]C[C@H](O)c1ccc([O-])c([O-])c1

>  <Energy>  (51) 
35.71512927551184

>  <Genealogy>  (51) 
O=C(CCCCc1ccccc1)[N-]CC(O)c1ccc([O-])c([O-])c1 (protonated)
O=C(CCCCc1ccccc1)[N-]C[C@H](O)c1ccc([O-])c([O-])c1 (chirality)
O=C(CCCCc1ccccc1)[N-]C[C@H](O)c1ccc([O-])c([O-])c1 (3D coordinates assigned)
O=C(CCCCc1ccccc1)[N-]C[C@H](O)c1ccc([O-])c([O-])c1 (optimized conformer: 35.71512927551184 kcal/mol)

>  <smiles>  (51) 
O=C(CCCCc1ccccc1)NCC(O)c1ccc(O)c(O)c1

>  <score_type>  (51) 
oracle

>  <origin>  (51) 
adg

>  <m_score__min__energy>  (51) 
-17.449999999999999

>  <m_primary>  (51) 
energy

$$$$
51:0
     RDKit          3D

 52 55  0  0  0  0  0  0  0  0999 V2000
   57.3630   28.8230   45.3550 C   0  0  0  0  0  0  0  0  0  0  0  0
   56.9330   27.4460   45.7700 C   0  0  0  0  0  0  0  0  0  0  0  0
   55.6210   27.1200   45.6260 N   0  0  0  0  0  0  0  0  0  0  0  0
   55.1510   25.8930   45.9560 C   0  0  0  0  0  0  0  0  0  0  0  0
   53.9320   25.6260   45.8100 O   0  0  0  0  0  0  0  0  0  0  0  0
   55.9970   24.9530   46.4410 N   0  0  0  0  0  0  0  0  0  0  0  0
   57.3200   25.2120   46.6050 C   0  0  0  0  0  0  0  0  0  0  0  0
   58.0670   24.3030   47.0540 O   0  0  0  0  0  0  0  0  0  0  0  0
   57.8420   26.4790   46.2690 C   0  0  0  0  0  0  0  0  0  0  0  0
   59.3320   26.7500   46.3770 C   0  0  0  0  0  0  0  0  0  0  0  0
   59.5890   27.9670   47.2270 C   0  0  0  0  0  0  0  0  0  0  0  0
   60.2620   29.0750   46.6900 C   0  0  0  0  0  0  0  0  0  0  0  0
   60.3820   30.2540   47.4270 C   0  0  0  0  0  0  0  0  0  0  0  0
   59.8230   30.3490   48.7130 C   0  0  0  0  0  0  0  0  0  0  0  0
   59.8720   31.6350   49.4400 C   0  0  0  0  0  0  0  0  0  0  0  0
   60.6050   31.7350   50.4600 O   0  0  0  0  0  0  0  0  0  0  0  0
   59.0980   32.7740   49.0420 N   0  0  0  0  0  0  0  0  0  0  0  0
   59.0170   33.3620   47.7350 C   0  0  0  0  0  0  0  0  0  0  0  0
   57.7380   33.5540   47.1930 C   0  0  0  0  0  0  0  0  0  0  0  0
   57.5770   34.0950   45.9180 C   0  0  0  0  0  0  0  0  0  0  0  0
   58.6940   34.4720   45.1750 C   0  0  0  0  0  0  0  0  0  0  0  0
   59.9730   34.3240   45.7100 C   0  0  0  0  0  0  0  0  0  0  0  0
   60.1590   33.7780   46.9940 C   0  0  0  0  0  0  0  0  0  0  0  0
   61.4920   33.7230   47.5420 N   0  0  0  0  0  0  0  0  0  0  0  0
   61.7050   34.2200   48.9160 C   0  0  0  0  0  0  0  0  0  0  0  0
   63.1780   34.1900   49.3570 C   0  0  0  0  0  0  0  0  0  0  0  0
   64.0620   34.1670   48.2570 O   0  0  0  0  0  0  0  0  0  0  0  0
   63.8640   32.9700   47.5420 C   0  0  0  0  0  0  0  0  0  0  0  0
   62.5390   33.0230   46.7810 C   0  0  0  0  0  0  0  0  0  0  0  0
   59.2280   29.2120   49.2830 C   0  0  0  0  0  0  0  0  0  0  0  0
   59.1100   28.0310   48.5450 C   0  0  0  0  0  0  0  0  0  0  0  0
   57.5535   29.4330   46.2503 H   0  0  0  0  0  0  0  0  0  0  0  0
   58.2826   28.7548   44.7553 H   0  0  0  0  0  0  0  0  0  0  0  0
   56.5680   29.2902   44.7553 H   0  0  0  0  0  0  0  0  0  0  0  0
   59.8257   25.8794   46.8334 H   0  0  0  0  0  0  0  0  0  0  0  0
   59.7338   26.9300   45.3690 H   0  0  0  0  0  0  0  0  0  0  0  0
   60.6977   29.0139   45.6818 H   0  0  0  0  0  0  0  0  0  0  0  0
   60.9174   31.1142   46.9988 H   0  0  0  0  0  0  0  0  0  0  0  0
   56.8512   33.2745   47.7807 H   0  0  0  0  0  0  0  0  0  0  0  0
   56.5683   34.2242   45.4987 H   0  0  0  0  0  0  0  0  0  0  0  0
   58.5664   34.8872   44.1644 H   0  0  0  0  0  0  0  0  0  0  0  0
   60.8476   34.6378   45.1213 H   0  0  0  0  0  0  0  0  0  0  0  0
   61.3462   35.2584   48.9703 H   0  0  0  0  0  0  0  0  0  0  0  0
   61.1510   33.5517   49.5916 H   0  0  0  0  0  0  0  0  0  0  0  0
   63.3858   35.0861   49.9602 H   0  0  0  0  0  0  0  0  0  0  0  0
   63.3383   33.2705   49.9391 H   0  0  0  0  0  0  0  0  0  0  0  0
   64.6886   32.8332   46.8269 H   0  0  0  0  0  0  0  0  0  0  0  0
   63.8379   32.1288   48.2503 H   0  0  0  0  0  0  0  0  0  0  0  0
   62.6977   33.5499   45.8285 H   0  0  0  0  0  0  0  0  0  0  0  0
   62.2026   31.9892   46.6135 H   0  0  0  0  0  0  0  0  0  0  0  0
   58.8526   29.2510   50.3162 H   0  0  0  0  0  0  0  0  0  0  0  0
   58.6392   27.1468   48.9994 H   0  0  0  0  0  0  0  0  0  0  0  0
  1  2  1  0
  2  3  1  0
  3  4  1  0
  4  5  2  0
  4  6  1  0
  6  7  1  0
  7  8  2  0
  7  9  1  0
  9 10  1  0
 10 11  1  0
 11 12  2  0
 12 13  1  0
 13 14  2  0
 14 15  1  0
 15 16  2  0
 15 17  1  0
 17 18  1  0
 18 19  2  0
 19 20  1  0
 20 21  2  0
 21 22  1  0
 22 23  2  0
 23 24  1  0
 24 25  1  0
 25 26  1  0
 26 27  1  0
 27 28  1  0
 28 29  1  0
 14 30  1  0
 30 31  2  0
  9  2  2  0
 31 11  1  0
 23 18  1  0
 29 24  1  0
  1 32  1  0
  1 33  1  0
  1 34  1  0
 10 35  1  0
 10 36  1  0
 12 37  1  0
 13 38  1  0
 19 39  1  0
 20 40  1  0
 21 41  1  0
 22 42  1  0
 25 43  1  0
 25 44  1  0
 26 45  1  0
 26 46  1  0
 28 47  1  0
 28 48  1  0
 29 49  1  0
 29 50  1  0
 30 51  1  0
 31 52  1  0
M  CHG  3   3  -1   6  -1  17  -1
M  END
>  <UniqueID>  (52) 
49

>  <SMILES>  (52) 
Cc1[n-]c(=O)[n-]c(=O)c1Cc1ccc(C(=O)[N-]c2ccccc2N2CCOCC2)cc1

>  <Energy>  (52) 
72.23836941363587

>  <Genealogy>  (52) 
Cc1[n-]c(=O)[n-]c(=O)c1Cc1ccc(C(=O)[N-]c2ccccc2N2CCOCC2)cc1 (protonated)
Cc1[n-]c(=O)[n-]c(=O)c1Cc1ccc(C(=O)[N-]c2ccccc2N2CCOCC2)cc1 (3D coordinates assigned)
Cc1[n-]c(=O)[n-]c(=O)c1Cc1ccc(C(=O)[N-]c2ccccc2N2CCOCC2)cc1 (nonaromatic ring conformer: 72.23836941363587 kcal/mol)

>  <smiles>  (52) 
Cc1[nH]c(=O)[nH]c(=O)c1Cc1ccc(C(=O)Nc2ccccc2N2CCOCC2)cc1

>  <score_type>  (52) 
oracle

>  <origin>  (52) 
adg

>  <m_score__min__energy>  (52) 
-14.32

>  <m_primary>  (52) 
energy

$$$$
52:0
     RDKit          3D

 43 45  0  0  0  0  0  0  0  0999 V2000
   54.8620   24.7890   45.6160 C   0  0  0  0  0  0  0  0  0  0  0  0
   55.0770   26.1440   45.9890 O   0  0  0  0  0  0  0  0  0  0  0  0
   56.3480   26.7230   46.0240 C   0  0  0  0  0  0  0  0  0  0  0  0
   57.4850   26.0840   46.4920 C   0  0  0  0  0  0  0  0  0  0  0  0
   58.6300   26.8860   46.4210 C   0  0  0  0  0  0  0  0  0  0  0  0
   58.3960   28.1510   45.8820 C   0  0  0  0  0  0  0  0  0  0  0  0
   59.4200   29.2050   45.7280 C   0  0  0  0  0  0  0  0  0  0  0  0
   59.9660   29.3430   44.5990 O   0  0  0  0  0  0  0  0  0  0  0  0
   59.7970   30.0870   46.8100 N   0  0  0  0  0  0  0  0  0  0  0  0
   58.8460   30.4440   47.8690 C   0  0  0  0  0  0  0  0  0  0  0  0
   59.1150   31.8560   48.4280 C   0  0  0  0  0  0  0  0  0  0  0  0
   59.5740   32.8260   47.4040 N   0  0  0  0  0  0  0  0  0  0  0  0
   58.2370   33.5020   46.4900 S   0  0  0  0  0  0  0  0  0  0  0  0
   58.5340   34.9410   46.1710 O   0  0  0  0  0  0  0  0  0  0  0  0
   56.9970   33.4710   47.3410 O   0  0  0  0  0  0  0  0  0  0  0  0
   57.9130   32.6490   44.9760 C   0  0  0  0  0  0  0  0  0  0  0  0
   57.0890   31.5110   44.9660 C   0  0  0  0  0  0  0  0  0  0  0  0
   56.8360   30.8350   43.7690 C   0  0  0  0  0  0  0  0  0  0  0  0
   57.3810   31.3030   42.5720 C   0  0  0  0  0  0  0  0  0  0  0  0
   58.1770   32.4510   42.5690 C   0  0  0  0  0  0  0  0  0  0  0  0
   58.4380   33.1260   43.7660 C   0  0  0  0  0  0  0  0  0  0  0  0
   60.6720   32.3430   46.5180 C   0  0  0  0  0  0  0  0  0  0  0  0
   61.0300   30.8700   46.7320 C   0  0  0  0  0  0  0  0  0  0  0  0
   56.7520   28.2790   45.5240 S   0  0  0  0  0  0  0  0  0  0  0  0
   54.7639   24.1708   46.5206 H   0  0  0  0  0  0  0  0  0  0  0  0
   53.9408   24.7147   45.0194 H   0  0  0  0  0  0  0  0  0  0  0  0
   55.7149   24.4332   45.0194 H   0  0  0  0  0  0  0  0  0  0  0  0
   57.4875   25.0543   46.8788 H   0  0  0  0  0  0  0  0  0  0  0  0
   59.6215   26.5501   46.7587 H   0  0  0  0  0  0  0  0  0  0  0  0
   57.8264   30.4122   47.4575 H   0  0  0  0  0  0  0  0  0  0  0  0
   58.9631   29.7227   48.6912 H   0  0  0  0  0  0  0  0  0  0  0  0
   58.1839   32.2361   48.8736 H   0  0  0  0  0  0  0  0  0  0  0  0
   59.9253   31.7603   49.1658 H   0  0  0  0  0  0  0  0  0  0  0  0
   59.9570   33.6410   47.9400 H   0  0  0  0  0  0  0  0  0  0  0  0
   56.6412   31.1506   45.9039 H   0  0  0  0  0  0  0  0  0  0  0  0
   56.2065   29.9329   43.7702 H   0  0  0  0  0  0  0  0  0  0  0  0
   57.1837   30.7679   41.6314 H   0  0  0  0  0  0  0  0  0  0  0  0
   58.5990   32.8245   41.6243 H   0  0  0  0  0  0  0  0  0  0  0  0
   59.0577   34.0348   43.7583 H   0  0  0  0  0  0  0  0  0  0  0  0
   60.3587   32.4762   45.4720 H   0  0  0  0  0  0  0  0  0  0  0  0
   61.5679   32.9316   46.7649 H   0  0  0  0  0  0  0  0  0  0  0  0
   61.6411   30.5128   45.8900 H   0  0  0  0  0  0  0  0  0  0  0  0
   61.6011   30.7581   47.6654 H   0  0  0  0  0  0  0  0  0  0  0  0
  1  2  1  0
  2  3  1  0
  3  4  2  0
  4  5  1  0
  5  6  2  0
  6  7  1  0
  7  8  2  0
  7  9  1  0
  9 10  1  0
 10 11  1  0
 11 12  1  0
 12 13  1  0
 13 14  2  0
 13 15  2  0
 13 16  1  0
 16 17  2  0
 17 18  1  0
 18 19  2  0
 19 20  1  0
 20 21  2  0
 12 22  1  0
 22 23  1  0
  6 24  1  0
 24  3  1  0
 23  9  1  0
 21 16  1  0
  1 25  1  0
  1 26  1  0
  1 27  1  0
  4 28  1  0
  5 29  1  0
 10 30  1  0
 10 31  1  0
 11 32  1  0
 11 33  1  0
 12 34  1  0
 17 35  1  0
 18 36  1  0
 19 37  1  0
 20 38  1  0
 21 39  1  0
 22 40  1  0
 22 41  1  0
 23 42  1  0
 23 43  1  0
M  CHG  1  12   1
M  END
>  <UniqueID>  (53) 
50

>  <SMILES>  (53) 
COc1ccc(C(=O)N2CC[NH+](S(=O)(=O)c3ccccc3)CC2)s1

>  <Energy>  (53) 
77.8004675070831

>  <Genealogy>  (53) 
COc1ccc(C(=O)N2CC[NH+](S(=O)(=O)c3ccccc3)CC2)s1 (protonated)
COc1ccc(C(=O)N2CC[NH+](S(=O)(=O)c3ccccc3)CC2)s1 (3D coordinates assigned)
COc1ccc(C(=O)N2CC[NH+](S(=O)(=O)c3ccccc3)CC2)s1 (nonaromatic ring conformer: 77.8004675070831 kcal/mol)

>  <smiles>  (53) 
COc1ccc(C(=O)N2CCN(S(=O)(=O)c3ccccc3)CC2)s1

>  <score_type>  (53) 
oracle

>  <origin>  (53) 
adg

>  <m_score__min__energy>  (53) 
-6.5300000000000002

>  <m_primary>  (53) 
energy

$$$$
53:0
     RDKit          3D

 38 40  0  0  0  0  0  0  0  0999 V2000
   63.6500   33.2280   48.1250 C   0  0  0  0  0  0  0  0  0  0  0  0
   62.4090   32.5780   47.5920 C   0  0  0  0  0  0  0  0  0  0  0  0
   61.1990   33.2870   47.5550 C   0  0  0  0  0  0  0  0  0  0  0  0
   60.0340   32.6690   47.0920 C   0  0  0  0  0  0  0  0  0  0  0  0
   60.0600   31.3310   46.6720 C   0  0  0  0  0  0  0  0  0  0  0  0
   58.8570   30.6930   46.1950 N   0  0  0  0  0  0  0  0  0  0  0  0
   58.0140   31.3680   45.3530 C   0  0  0  0  0  0  0  0  0  0  0  0
   58.2810   32.5420   44.9770 O   0  0  0  0  0  0  0  0  0  0  0  0
   56.8820   30.7760   44.9010 N   0  0  0  0  0  0  0  0  0  0  0  0
   56.5460   29.5120   45.2570 C   0  0  0  0  0  0  0  0  0  0  0  0
   55.3570   28.9690   44.7750 O   0  0  0  0  0  0  0  0  0  0  0  0
   57.3860   28.7770   46.1140 C   0  0  0  0  0  0  0  0  0  0  0  0
   57.0460   27.3850   46.5170 C   0  0  0  0  0  0  0  0  0  0  0  0
   57.6970   26.8210   47.4390 O   0  0  0  0  0  0  0  0  0  0  0  0
   55.9550   26.6960   45.8900 N   0  0  0  0  0  0  0  0  0  0  0  0
   55.6870   25.2870   45.9430 C   0  0  0  0  0  0  0  0  0  0  0  0
   56.6430   24.3620   46.4020 C   0  0  0  0  0  0  0  0  0  0  0  0
   56.3480   22.9940   46.4130 C   0  0  0  0  0  0  0  0  0  0  0  0
   55.1100   22.5390   45.9560 C   0  0  0  0  0  0  0  0  0  0  0  0
   54.1650   23.4510   45.4750 C   0  0  0  0  0  0  0  0  0  0  0  0
   52.9360   22.9980   45.0090 O   0  0  0  0  0  0  0  0  0  0  0  0
   54.4570   24.8190   45.4610 C   0  0  0  0  0  0  0  0  0  0  0  0
   58.5590   29.4100   46.5790 C   0  0  0  0  0  0  0  0  0  0  0  0
   59.3420   28.7890   47.3520 O   0  0  0  0  0  0  0  0  0  0  0  0
   61.2670   30.6160   46.7250 C   0  0  0  0  0  0  0  0  0  0  0  0
   62.4320   31.2330   47.1890 C   0  0  0  0  0  0  0  0  0  0  0  0
   63.6269   33.2159   49.2247 H   0  0  0  0  0  0  0  0  0  0  0  0
   64.5336   32.6769   47.7707 H   0  0  0  0  0  0  0  0  0  0  0  0
   63.7002   34.2682   47.7707 H   0  0  0  0  0  0  0  0  0  0  0  0
   61.1670   34.3337   47.8918 H   0  0  0  0  0  0  0  0  0  0  0  0
   59.0915   33.2351   47.0568 H   0  0  0  0  0  0  0  0  0  0  0  0
   55.1380   27.9900   44.9100 H   0  0  0  0  0  0  0  0  0  0  0  0
   57.6240   24.7149   46.7528 H   0  0  0  0  0  0  0  0  0  0  0  0
   57.0939   22.2751   46.7829 H   0  0  0  0  0  0  0  0  0  0  0  0
   54.8778   21.4639   45.9742 H   0  0  0  0  0  0  0  0  0  0  0  0
   53.7165   25.5319   45.0692 H   0  0  0  0  0  0  0  0  0  0  0  0
   61.2959   29.5655   46.3999 H   0  0  0  0  0  0  0  0  0  0  0  0
   63.3712   30.6625   47.2387 H   0  0  0  0  0  0  0  0  0  0  0  0
  1  2  1  0
  2  3  2  0
  3  4  1  0
  4  5  2  0
  5  6  1  0
  6  7  1  0
  7  8  2  0
  7  9  1  0
  9 10  1  0
 10 11  1  0
 10 12  2  0
 12 13  1  0
 13 14  2  0
 13 15  1  0
 15 16  1  0
 16 17  2  0
 17 18  1  0
 18 19  2  0
 19 20  1  0
 20 21  1  0
 20 22  2  0
 12 23  1  0
 23 24  2  0
  5 25  1  0
 25 26  2  0
 26  2  1  0
 23  6  1  0
 22 16  1  0
  1 27  1  0
  1 28  1  0
  1 29  1  0
  3 30  1  0
  4 31  1  0
 11 32  1  0
 17 33  1  0
 18 34  1  0
 19 35  1  0
 22 36  1  0
 25 37  1  0
 26 38  1  0
M  CHG  3   9  -1  15  -1  21  -1
M  END
>  <UniqueID>  (54) 
51

>  <SMILES>  (54) 
Cc1ccc(-n2c(=O)[n-]c(O)c(C(=O)[N-]c3cccc([O-])c3)c2=O)cc1

>  <Energy>  (54) 
58.86488832754263

>  <Genealogy>  (54) 
Cc1ccc(-n2c(=O)[n-]c(O)c(C(=O)[N-]c3cccc([O-])c3)c2=O)cc1 (protonated)
Cc1ccc(-n2c(=O)[n-]c(O)c(C(=O)[N-]c3cccc([O-])c3)c2=O)cc1 (3D coordinates assigned)
Cc1ccc(-n2c(=O)[n-]c(O)c(C(=O)[N-]c3cccc([O-])c3)c2=O)cc1 (optimized conformer: 58.86488832754263 kcal/mol)

>  <smiles>  (54) 
Cc1ccc(-n2c(=O)[nH]c(O)c(C(=O)Nc3cccc(O)c3)c2=O)cc1

>  <score_type>  (54) 
oracle

>  <origin>  (54) 
adg

>  <m_score__min__energy>  (54) 
-13.67

>  <m_primary>  (54) 
energy

$$$$
54:0
     RDKit          3D

 38 40  0  0  0  0  0  0  0  0999 V2000
   56.9240   32.7140   49.9830 H   0  0  0  0  0  0  0  0  0  0  0  0
   57.7460   32.1420   50.2780 N   0  0  0  0  0  0  0  0  0  0  0  0
   58.6450   31.5950   49.3160 C   0  0  0  0  0  0  0  0  0  0  0  0
   58.6000   30.3580   49.0760 O   0  0  0  0  0  0  0  0  0  0  0  0
   59.6460   32.4490   48.6260 C   0  0  0  0  0  0  0  0  0  0  0  0
   60.4190   33.3450   49.3910 C   0  0  0  0  0  0  0  0  0  0  0  0
   60.2866   33.3816   50.4824 H   0  0  0  0  0  0  0  0  0  0  0  0
   61.3510   34.1870   48.7810 C   0  0  0  0  0  0  0  0  0  0  0  0
   61.9430   34.8843   49.3920 H   0  0  0  0  0  0  0  0  0  0  0  0
   61.5330   34.1460   47.4000 C   0  0  0  0  0  0  0  0  0  0  0  0
   62.2647   34.8136   46.9216 H   0  0  0  0  0  0  0  0  0  0  0  0
   60.7870   33.2580   46.6240 C   0  0  0  0  0  0  0  0  0  0  0  0
   60.9367   33.2263   45.5347 H   0  0  0  0  0  0  0  0  0  0  0  0
   59.8470   32.4050   47.2230 C   0  0  0  0  0  0  0  0  0  0  0  0
   59.1510   31.4600   46.3910 N   0  0  0  0  0  0  0  0  0  0  0  0
   58.0310   31.7220   45.6840 C   0  0  0  0  0  0  0  0  0  0  0  0
   57.3830   33.0690   45.5800 C   0  0  0  0  0  0  0  0  0  0  0  0
   57.1932   33.4635   46.5891 H   0  0  0  0  0  0  0  0  0  0  0  0
   58.0494   33.7556   45.0373 H   0  0  0  0  0  0  0  0  0  0  0  0
   56.4307   32.9768   45.0373 H   0  0  0  0  0  0  0  0  0  0  0  0
   57.5860   30.5800   45.0520 C   0  0  0  0  0  0  0  0  0  0  0  0
   56.6961   30.4899   44.4118 H   0  0  0  0  0  0  0  0  0  0  0  0
   58.4750   29.5670   45.3780 C   0  0  0  0  0  0  0  0  0  0  0  0
   58.3690   28.3180   44.8810 C   0  0  0  0  0  0  0  0  0  0  0  0
   58.9586   28.0823   43.9828 H   0  0  0  0  0  0  0  0  0  0  0  0
   57.5300   27.2410   45.4390 C   0  0  0  0  0  0  0  0  0  0  0  0
   56.1470   27.4120   45.6170 C   0  0  0  0  0  0  0  0  0  0  0  0
   55.5230   28.5950   45.2360 O   0  0  0  0  0  0  0  0  0  0  0  0
   55.4080   26.4180   46.1730 N   0  0  0  0  0  0  0  0  0  0  0  0
   55.9850   25.2570   46.5770 C   0  0  0  0  0  0  0  0  0  0  0  0
   55.2780   24.3480   47.0850 O   0  0  0  0  0  0  0  0  0  0  0  0
   57.3230   25.0800   46.4410 N   0  0  0  0  0  0  0  0  0  0  0  0
   58.1070   26.0430   45.8910 C   0  0  0  0  0  0  0  0  0  0  0  0
   59.3470   25.8480   45.7860 O   0  0  0  0  0  0  0  0  0  0  0  0
   59.4200   30.1380   46.2480 C   0  0  0  0  0  0  0  0  0  0  0  0
   60.4020   29.5150   46.9190 C   0  0  0  0  0  0  0  0  0  0  0  0
   61.0746   30.0919   47.5708 H   0  0  0  0  0  0  0  0  0  0  0  0
   60.5340   28.4277   46.8169 H   0  0  0  0  0  0  0  0  0  0  0  0
  1  2  1  0
  2  3  1  0
  3  4  2  0
  3  5  1  0
  5  6  2  0
  6  7  1  0
  6  8  1  0
  8  9  1  0
  8 10  2  0
 10 11  1  0
 10 12  1  0
 12 13  1  0
 12 14  2  0
 14 15  1  0
 15 16  1  0
 16 17  1  0
 17 18  1  0
 17 19  1  0
 17 20  1  0
 16 21  2  0
 21 22  1  0
 21 23  1  0
 23 24  2  0
 24 25  1  0
 24 26  1  0
 26 27  2  0
 27 28  1  0
 27 29  1  0
 29 30  1  0
 30 31  2  0
 30 32  1  0
 32 33  1  0
 33 34  2  0
 23 35  1  0
 35 36  2  0
 36 37  1  0
 36 38  1  0
 14  5  1  0
 35 15  1  0
 33 26  1  0
M  CHG  4   2  -1  28  -1  29  -1  32  -1
M  END
>  <UniqueID>  (55) 
52

>  <SMILES>  (55) 
C=c1/c(=C\c2c([O-])[n-]c(=O)[n-]c2=O)cc(C)n1-c1ccccc1C([NH-])=O

>  <Energy>  (55) 
92.54360004941782

>  <Genealogy>  (55) 
C=c1c(=Cc2c([O-])[n-]c(=O)[n-]c2=O)cc(C)n1-c1ccccc1C([NH-])=O (protonated)
C=c1/c(=C\c2c([O-])[n-]c(=O)[n-]c2=O)cc(C)n1-c1ccccc1C([NH-])=O (cis-trans isomerization)
C=c1/c(=C\c2c([O-])[n-]c(=O)[n-]c2=O)cc(C)n1-c1ccccc1C([NH-])=O (3D coordinates assigned)
C=c1/c(=C\c2c([O-])[n-]c(=O)[n-]c2=O)cc(C)n1-c1ccccc1C([NH-])=O (optimized conformer: 92.54360004941782 kcal/mol)

>  <smiles>  (55) 
C=c1c(=Cc2c(O)[nH]c(=O)[nH]c2=O)cc(C)n1-c1ccccc1C(N)=O

>  <score_type>  (55) 
oracle

>  <origin>  (55) 
adg

>  <m_score__min__energy>  (55) 
-18.75

>  <m_primary>  (55) 
energy

$$$$
55:0
     RDKit          3D

 36 38  0  0  0  0  0  0  0  0999 V2000
   53.4540   25.9700   45.9430 H   0  0  0  0  0  0  0  0  0  0  0  0
   54.2630   25.3700   45.6650 N   0  0  0  0  0  0  0  0  0  0  0  0
   55.4820   25.7230   45.9100 C   0  0  0  0  0  0  0  0  0  0  0  0
   56.4420   24.7780   46.0960 N   0  0  0  0  0  0  0  0  0  0  0  0
   57.7220   25.1440   46.3570 C   0  0  0  0  0  0  0  0  0  0  0  0
   58.6040   24.2630   46.5350 O   0  0  0  0  0  0  0  0  0  0  0  0
   58.0520   26.4940   46.4330 C   0  0  0  0  0  0  0  0  0  0  0  0
   59.0811   26.8148   46.6522 H   0  0  0  0  0  0  0  0  0  0  0  0
   57.0300   27.4340   46.2210 C   0  0  0  0  0  0  0  0  0  0  0  0
   57.2660   28.8130   46.2930 O   0  0  0  0  0  0  0  0  0  0  0  0
   57.3070   29.6830   45.1940 C   0  0  0  0  0  0  0  0  0  0  0  0
   56.2260   29.7630   44.2910 C   0  0  0  0  0  0  0  0  0  0  0  0
   55.0870   28.9830   44.4920 O   0  0  0  0  0  0  0  0  0  0  0  0
   55.1400   28.0700   44.9310 H   0  0  0  0  0  0  0  0  0  0  0  0
   56.2870   30.6430   43.2030 C   0  0  0  0  0  0  0  0  0  0  0  0
   55.4537   30.6866   42.4862 H   0  0  0  0  0  0  0  0  0  0  0  0
   57.4000   31.4640   43.0250 C   0  0  0  0  0  0  0  0  0  0  0  0
   57.4417   32.1536   42.1690 H   0  0  0  0  0  0  0  0  0  0  0  0
   58.4610   31.4130   43.9300 C   0  0  0  0  0  0  0  0  0  0  0  0
   59.3295   32.0737   43.7916 H   0  0  0  0  0  0  0  0  0  0  0  0
   58.4270   30.5230   45.0170 C   0  0  0  0  0  0  0  0  0  0  0  0
   59.5730   30.5000   45.9970 C   0  0  0  0  0  0  0  0  0  0  0  0
   59.3473   29.7845   46.8014 H   0  0  0  0  0  0  0  0  0  0  0  0
   60.4885   30.1981   45.4672 H   0  0  0  0  0  0  0  0  0  0  0  0
   59.7830   31.8650   46.5930 C   0  0  0  0  0  0  0  0  0  0  0  0
   58.6800   32.6930   46.8680 C   0  0  0  0  0  0  0  0  0  0  0  0
   57.6636   32.3503   46.6242 H   0  0  0  0  0  0  0  0  0  0  0  0
   58.8700   33.9500   47.4500 C   0  0  0  0  0  0  0  0  0  0  0  0
   58.0038   34.5949   47.6593 H   0  0  0  0  0  0  0  0  0  0  0  0
   60.1580   34.3880   47.7660 C   0  0  0  0  0  0  0  0  0  0  0  0
   60.3056   35.3774   48.2234 H   0  0  0  0  0  0  0  0  0  0  0  0
   61.2600   33.5690   47.5010 C   0  0  0  0  0  0  0  0  0  0  0  0
   62.2740   33.9149   47.7503 H   0  0  0  0  0  0  0  0  0  0  0  0
   61.0750   32.3120   46.9200 C   0  0  0  0  0  0  0  0  0  0  0  0
   61.9443   31.6691   46.7175 H   0  0  0  0  0  0  0  0  0  0  0  0
   55.7920   27.0130   45.9790 O   0  0  0  0  0  0  0  0  0  0  0  0
  1  2  1  0
  2  3  2  0
  3  4  1  0
  4  5  1  0
  5  6  2  0
  5  7  1  0
  7  8  1  0
  7  9  2  0
  9 10  1  0
 10 11  1  0
 11 12  2  0
 12 13  1  0
 13 14  1  0
 12 15  1  0
 15 16  1  0
 15 17  2  0
 17 18  1  0
 17 19  1  0
 19 20  1  0
 19 21  2  0
 21 22  1  0
 22 23  1  0
 22 24  1  0
 22 25  1  0
 25 26  2  0
 26 27  1  0
 26 28  1  0
 28 29  1  0
 28 30  2  0
 30 31  1  0
 30 32  1  0
 32 33  1  0
 32 34  2  0
 34 35  1  0
  9 36  1  0
 36  3  1  0
 21 11  1  0
 34 25  1  0
M  CHG  1   4  -1
M  END
>  <UniqueID>  (56) 
53

>  <SMILES>  (56) 
[H]/N=c1\[n-]c(=O)cc(Oc2c(O)cccc2Cc2ccccc2)o1

>  <Energy>  (56) 
46.48979455535465

>  <Genealogy>  (56) 
N=c1[n-]c(=O)cc(Oc2c(O)cccc2Cc2ccccc2)o1 (protonated)
[H]/N=c1\[n-]c(=O)cc(Oc2c(O)cccc2Cc2ccccc2)o1 (cis-trans isomerization)
[H]/N=c1\[n-]c(=O)cc(Oc2c(O)cccc2Cc2ccccc2)o1 (3D coordinates assigned)
[H]/N=c1\[n-]c(=O)cc(Oc2c(O)cccc2Cc2ccccc2)o1 (optimized conformer: 46.48979455535465 kcal/mol)

>  <smiles>  (56) 
N=c1[nH]c(=O)cc(Oc2c(O)cccc2Cc2ccccc2)o1

>  <score_type>  (56) 
oracle

>  <origin>  (56) 
adg

>  <m_score__min__energy>  (56) 
-10.789999999999999

>  <m_primary>  (56) 
energy

$$$$
56:0
     RDKit          3D

 47 50  0  0  0  0  0  0  0  0999 V2000
   63.9110   34.0740   49.9730 O   0  0  0  0  0  0  0  0  0  0  0  0
   64.4350   33.1180   49.3430 C   0  0  0  0  0  0  0  0  0  0  0  0
   64.1320   32.9400   47.9430 N   0  0  0  0  0  0  0  0  0  0  0  0
   63.2400   33.8450   47.2210 C   0  0  0  0  0  0  0  0  0  0  0  0
   62.0230   34.2030   48.0820 C   0  0  0  0  0  0  0  0  0  0  0  0
   61.0130   33.0970   48.0460 C   0  0  0  0  0  0  0  0  0  0  0  0
   60.9900   31.9680   48.8600 C   0  0  0  0  0  0  0  0  0  0  0  0
   59.9780   31.1460   48.4990 N   0  0  0  0  0  0  0  0  0  0  0  0
   59.3720   31.7390   47.4570 C   0  0  0  0  0  0  0  0  0  0  0  0
   58.2810   31.2610   46.7340 C   0  0  0  0  0  0  0  0  0  0  0  0
   57.8030   32.0410   45.6540 C   0  0  0  0  0  0  0  0  0  0  0  0
   56.7010   31.6140   44.8410 N   0  0  0  0  0  0  0  0  0  0  0  0
   56.4480   29.9860   44.2960 S   0  0  0  0  0  0  0  0  0  0  0  0
   56.4520   29.9590   42.7940 O   0  0  0  0  0  0  0  0  0  0  0  0
   55.1130   29.5060   44.7940 O   0  0  0  0  0  0  0  0  0  0  0  0
   57.7460   28.9550   44.8880 C   0  0  0  0  0  0  0  0  0  0  0  0
   59.0680   29.1990   44.4940 C   0  0  0  0  0  0  0  0  0  0  0  0
   60.1080   28.4010   44.9810 C   0  0  0  0  0  0  0  0  0  0  0  0
   59.8310   27.3490   45.8620 C   0  0  0  0  0  0  0  0  0  0  0  0
   61.1340   26.3480   46.4730 Cl  0  0  0  0  0  0  0  0  0  0  0  0
   58.5120   27.0980   46.2520 C   0  0  0  0  0  0  0  0  0  0  0  0
   57.4710   27.8970   45.7680 C   0  0  0  0  0  0  0  0  0  0  0  0
   58.4280   33.2740   45.3500 C   0  0  0  0  0  0  0  0  0  0  0  0
   59.5320   33.7260   46.0960 C   0  0  0  0  0  0  0  0  0  0  0  0
   59.9760   32.9290   47.1480 C   0  0  0  0  0  0  0  0  0  0  0  0
   65.3600   32.2000   50.1110 C   0  0  0  0  0  0  0  0  0  0  0  0
   65.8900   32.7080   51.4460 C   0  0  0  0  0  0  0  0  0  0  0  0
   66.8130   32.6390   50.2290 C   0  0  0  0  0  0  0  0  0  0  0  0
   64.4890   32.1090   47.4220 H   0  0  0  0  0  0  0  0  0  0  0  0
   63.7866   34.7652   46.9671 H   0  0  0  0  0  0  0  0  0  0  0  0
   62.8920   33.3445   46.3053 H   0  0  0  0  0  0  0  0  0  0  0  0
   62.3484   34.3628   49.1206 H   0  0  0  0  0  0  0  0  0  0  0  0
   61.5623   35.1194   47.6845 H   0  0  0  0  0  0  0  0  0  0  0  0
   61.6953   31.7719   49.6810 H   0  0  0  0  0  0  0  0  0  0  0  0
   59.7280   30.2320   48.9360 H   0  0  0  0  0  0  0  0  0  0  0  0
   57.8047   30.3045   46.9952 H   0  0  0  0  0  0  0  0  0  0  0  0
   59.2890   30.0220   43.7984 H   0  0  0  0  0  0  0  0  0  0  0  0
   61.1446   28.6001   44.6715 H   0  0  0  0  0  0  0  0  0  0  0  0
   58.2923   26.2696   46.9416 H   0  0  0  0  0  0  0  0  0  0  0  0
   56.4349   27.6957   46.0777 H   0  0  0  0  0  0  0  0  0  0  0  0
   58.0458   33.8865   44.5201 H   0  0  0  0  0  0  0  0  0  0  0  0
   60.0282   34.6779   45.8560 H   0  0  0  0  0  0  0  0  0  0  0  0
   64.8460   31.2858   49.7791 H   0  0  0  0  0  0  0  0  0  0  0  0
   65.5617   33.6838   51.8332 H   0  0  0  0  0  0  0  0  0  0  0  0
   65.9232   32.3128   52.4720 H   0  0  0  0  0  0  0  0  0  0  0  0
   67.1494   33.5653   49.7403 H   0  0  0  0  0  0  0  0  0  0  0  0
   67.7866   32.1734   50.0159 H   0  0  0  0  0  0  0  0  0  0  0  0
  1  2  2  0
  2  3  1  0
  3  4  1  0
  4  5  1  0
  5  6  1  0
  6  7  2  0
  7  8  1  0
  8  9  1  0
  9 10  2  0
 10 11  1  0
 11 12  1  0
 12 13  1  0
 13 14  2  0
 13 15  2  0
 13 16  1  0
 16 17  2  0
 17 18  1  0
 18 19  2  0
 19 20  1  0
 19 21  1  0
 21 22  2  0
 11 23  2  0
 23 24  1  0
 24 25  2  0
  2 26  1  0
 26 27  1  0
 27 28  1  0
 25  6  1  0
 28 26  1  0
 25  9  1  0
 22 16  1  0
  3 29  1  0
  4 30  1  0
  4 31  1  0
  5 32  1  0
  5 33  1  0
  7 34  1  0
  8 35  1  0
 10 36  1  0
 17 37  1  0
 18 38  1  0
 21 39  1  0
 22 40  1  0
 23 41  1  0
 24 42  1  0
 26 43  1  0
 27 44  1  0
 27 45  1  0
 28 46  1  0
 28 47  1  0
M  CHG  1  12  -1
M  END
>  <UniqueID>  (57) 
54

>  <SMILES>  (57) 
O=C(NCCc1c[nH]c2cc([N-]S(=O)(=O)c3ccc(Cl)cc3)ccc12)C1CC1

>  <Energy>  (57) 
346.4074602325352

>  <Genealogy>  (57) 
O=C(NCCc1c[nH]c2cc([N-]S(=O)(=O)c3ccc(Cl)cc3)ccc12)C1CC1 (protonated)
O=C(NCCc1c[nH]c2cc([N-]S(=O)(=O)c3ccc(Cl)cc3)ccc12)C1CC1 (3D coordinates assigned)
O=C(NCCc1c[nH]c2cc([N-]S(=O)(=O)c3ccc(Cl)cc3)ccc12)C1CC1 (nonaromatic ring conformer: 346.4074602325352 kcal/mol)

>  <smiles>  (57) 
O=C(NCCc1c[nH]c2cc(NS(=O)(=O)c3ccc(Cl)cc3)ccc12)C1CC1

>  <score_type>  (57) 
oracle

>  <origin>  (57) 
adg

>  <m_score__min__energy>  (57) 
-10.43

>  <m_primary>  (57) 
energy

$$$$
57:0
     RDKit          3D

 46 48  0  0  0  0  0  0  0  0999 V2000
   61.0160   32.9810   49.5500 C   0  0  0  0  0  0  0  0  0  0  0  0
   60.2440   32.8630   48.2690 C   0  0  0  0  0  0  0  0  0  0  0  0
   59.8740   31.6030   47.7730 C   0  0  0  0  0  0  0  0  0  0  0  0
   59.1080   31.5000   46.6080 C   0  0  0  0  0  0  0  0  0  0  0  0
   58.6830   32.6520   45.9370 C   0  0  0  0  0  0  0  0  0  0  0  0
   57.6900   32.4990   44.4890 S   0  0  0  0  0  0  0  0  0  0  0  0
   57.1770   33.8610   44.1160 O   0  0  0  0  0  0  0  0  0  0  0  0
   58.4910   31.9550   43.3380 O   0  0  0  0  0  0  0  0  0  0  0  0
   56.3440   31.4530   44.8040 N   0  0  0  0  0  0  0  0  0  0  0  0
   56.4070   30.0270   44.7180 C   0  0  0  0  0  0  0  0  0  0  0  0
   55.3470   29.3620   44.8640 O   0  0  0  0  0  0  0  0  0  0  0  0
   57.6440   29.3570   44.4310 N   0  0  0  0  0  0  0  0  0  0  0  0
   57.9200   27.9950   44.8030 C   0  0  0  0  0  0  0  0  0  0  0  0
   58.1840   27.6860   46.1460 C   0  0  0  0  0  0  0  0  0  0  0  0
   58.4420   26.3670   46.5350 C   0  0  0  0  0  0  0  0  0  0  0  0
   58.4320   25.3290   45.5890 C   0  0  0  0  0  0  0  0  0  0  0  0
   58.7210   23.9320   45.9940 C   0  0  0  0  0  0  0  0  0  0  0  0
   59.7920   23.3800   45.6220 O   0  0  0  0  0  0  0  0  0  0  0  0
   57.7660   23.2000   46.7760 N   0  0  0  0  0  0  0  0  0  0  0  0
   56.3420   23.1720   46.5890 C   0  0  0  0  0  0  0  0  0  0  0  0
   55.4520   22.8920   47.6450 C   0  0  0  0  0  0  0  0  0  0  0  0
   54.0720   22.8820   47.4170 C   0  0  0  0  0  0  0  0  0  0  0  0
   53.5680   23.1670   46.1440 C   0  0  0  0  0  0  0  0  0  0  0  0
   52.2300   23.1420   45.9220 F   0  0  0  0  0  0  0  0  0  0  0  0
   54.4460   23.4780   45.1010 C   0  0  0  0  0  0  0  0  0  0  0  0
   55.8280   23.4890   45.3260 C   0  0  0  0  0  0  0  0  0  0  0  0
   58.1380   25.6370   44.2470 C   0  0  0  0  0  0  0  0  0  0  0  0
   57.8780   26.9550   43.8590 C   0  0  0  0  0  0  0  0  0  0  0  0
   59.0460   33.9140   46.4330 C   0  0  0  0  0  0  0  0  0  0  0  0
   59.8180   34.0180   47.5950 C   0  0  0  0  0  0  0  0  0  0  0  0
   60.3293   32.8760   50.4029 H   0  0  0  0  0  0  0  0  0  0  0  0
   61.7780   32.1889   49.5931 H   0  0  0  0  0  0  0  0  0  0  0  0
   61.5066   33.9646   49.5931 H   0  0  0  0  0  0  0  0  0  0  0  0
   60.1883   30.6921   48.3036 H   0  0  0  0  0  0  0  0  0  0  0  0
   58.8380   30.5080   46.2168 H   0  0  0  0  0  0  0  0  0  0  0  0
   58.3520   29.8600   43.8510 H   0  0  0  0  0  0  0  0  0  0  0  0
   58.1882   28.4875   46.8994 H   0  0  0  0  0  0  0  0  0  0  0  0
   58.6544   26.1412   47.5904 H   0  0  0  0  0  0  0  0  0  0  0  0
   55.8434   22.6808   48.6511 H   0  0  0  0  0  0  0  0  0  0  0  0
   53.3815   22.6494   48.2410 H   0  0  0  0  0  0  0  0  0  0  0  0
   54.0504   23.7144   44.1022 H   0  0  0  0  0  0  0  0  0  0  0  0
   56.5136   23.7482   44.5058 H   0  0  0  0  0  0  0  0  0  0  0  0
   58.1126   24.8331   43.4966 H   0  0  0  0  0  0  0  0  0  0  0  0
   57.6392   27.1790   42.8088 H   0  0  0  0  0  0  0  0  0  0  0  0
   58.7224   34.8239   45.9064 H   0  0  0  0  0  0  0  0  0  0  0  0
   60.0926   35.0102   47.9825 H   0  0  0  0  0  0  0  0  0  0  0  0
  1  2  1  0
  2  3  2  0
  3  4  1  0
  4  5  2  0
  5  6  1  0
  6  7  2  0
  6  8  2  0
  6  9  1  0
  9 10  1  0
 10 11  2  0
 10 12  1  0
 12 13  1  0
 13 14  2  0
 14 15  1  0
 15 16  2  0
 16 17  1  0
 17 18  2  0
 17 19  1  0
 19 20  1  0
 20 21  2  0
 21 22  1  0
 22 23  2  0
 23 24  1  0
 23 25  1  0
 25 26  2  0
 16 27  1  0
 27 28  2  0
  5 29  1  0
 29 30  2  0
 30  2  1  0
 28 13  1  0
 26 20  1  0
  1 31  1  0
  1 32  1  0
  1 33  1  0
  3 34  1  0
  4 35  1  0
 12 36  1  0
 14 37  1  0
 15 38  1  0
 21 39  1  0
 22 40  1  0
 25 41  1  0
 26 42  1  0
 27 43  1  0
 28 44  1  0
 29 45  1  0
 30 46  1  0
M  CHG  2   9  -1  19  -1
M  END
>  <UniqueID>  (58) 
55

>  <SMILES>  (58) 
Cc1ccc(S(=O)(=O)[N-]C(=O)Nc2ccc(C(=O)[N-]c3ccc(F)cc3)cc2)cc1

>  <Energy>  (58) 
57.328654721342446

>  <Genealogy>  (58) 
Cc1ccc(S(=O)(=O)[N-]C(=O)Nc2ccc(C(=O)[N-]c3ccc(F)cc3)cc2)cc1 (protonated)
Cc1ccc(S(=O)(=O)[N-]C(=O)Nc2ccc(C(=O)[N-]c3ccc(F)cc3)cc2)cc1 (3D coordinates assigned)
Cc1ccc(S(=O)(=O)[N-]C(=O)Nc2ccc(C(=O)[N-]c3ccc(F)cc3)cc2)cc1 (optimized conformer: 57.328654721342446 kcal/mol)

>  <smiles>  (58) 
Cc1ccc(S(=O)(=O)NC(=O)Nc2ccc(C(=O)Nc3ccc(F)cc3)cc2)cc1

>  <score_type>  (58) 
oracle

>  <origin>  (58) 
adg

>  <m_score__min__energy>  (58) 
-11.779999999999999

>  <m_primary>  (58) 
energy

$$$$
58:0
     RDKit          3D

 36 38  0  0  0  0  0  0  0  0999 V2000
   54.2070   26.3150   45.2510 H   0  0  0  0  0  0  0  0  0  0  0  0
   53.8310   25.4090   45.6080 N   0  0  0  0  0  0  0  0  0  0  0  0
   54.3240   24.1640   45.1190 C   0  0  0  0  0  0  0  0  0  0  0  0
   53.5040   23.2900   44.7270 O   0  0  0  0  0  0  0  0  0  0  0  0
   55.7810   23.9190   45.0770 C   0  0  0  0  0  0  0  0  0  0  0  0
   56.6190   24.8990   45.5150 N   0  0  0  0  0  0  0  0  0  0  0  0
   57.9750   24.7650   45.5050 C   0  0  0  0  0  0  0  0  0  0  0  0
   58.7460   25.7280   45.9210 N   0  0  0  0  0  0  0  0  0  0  0  0
   58.4340   26.6290   47.0310 C   0  0  0  0  0  0  0  0  0  0  0  0
   57.5354   26.2641   47.5500 H   0  0  0  0  0  0  0  0  0  0  0  0
   59.2916   26.6504   47.7195 H   0  0  0  0  0  0  0  0  0  0  0  0
   58.1810   28.0310   46.5290 C   0  0  0  0  0  0  0  0  0  0  0  0
   59.1430   29.0260   46.7680 C   0  0  0  0  0  0  0  0  0  0  0  0
   60.0569   28.7734   47.3256 H   0  0  0  0  0  0  0  0  0  0  0  0
   58.9550   30.3400   46.3050 C   0  0  0  0  0  0  0  0  0  0  0  0
   59.9850   31.3820   46.5530 C   0  0  0  0  0  0  0  0  0  0  0  0
   59.7840   32.7390   46.2980 C   0  0  0  0  0  0  0  0  0  0  0  0
   58.8660   33.1889   45.8919 H   0  0  0  0  0  0  0  0  0  0  0  0
   61.1830   33.5680   46.7170 S   0  0  0  0  0  0  0  0  0  0  0  0
   62.0620   32.2300   47.2220 C   0  0  0  0  0  0  0  0  0  0  0  0
   63.0923   32.2429   47.6070 H   0  0  0  0  0  0  0  0  0  0  0  0
   61.2650   31.1060   47.0700 C   0  0  0  0  0  0  0  0  0  0  0  0
   61.6018   30.0915   47.3295 H   0  0  0  0  0  0  0  0  0  0  0  0
   57.7810   30.6490   45.5990 C   0  0  0  0  0  0  0  0  0  0  0  0
   57.6212   31.6728   45.2297 H   0  0  0  0  0  0  0  0  0  0  0  0
   56.8140   29.6690   45.3610 C   0  0  0  0  0  0  0  0  0  0  0  0
   55.6630   30.0070   44.6570 O   0  0  0  0  0  0  0  0  0  0  0  0
   57.0030   28.3580   45.8260 C   0  0  0  0  0  0  0  0  0  0  0  0
   56.0330   27.3810   45.5950 O   0  0  0  0  0  0  0  0  0  0  0  0
   56.2550   26.4860   45.1770 H   0  0  0  0  0  0  0  0  0  0  0  0
   58.5470   23.5800   45.0340 C   0  0  0  0  0  0  0  0  0  0  0  0
   59.6402   23.4583   45.0210 H   0  0  0  0  0  0  0  0  0  0  0  0
   57.7200   22.5540   44.5810 C   0  0  0  0  0  0  0  0  0  0  0  0
   58.1612   21.6172   44.2098 H   0  0  0  0  0  0  0  0  0  0  0  0
   56.3320   22.7120   44.5970 C   0  0  0  0  0  0  0  0  0  0  0  0
   55.5260   21.6770   44.1370 O   0  0  0  0  0  0  0  0  0  0  0  0
  1  2  1  0
  2  3  1  0
  3  4  2  0
  3  5  1  0
  5  6  1  0
  6  7  1  0
  7  8  2  0
  8  9  1  0
  9 10  1  0
  9 11  1  0
  9 12  1  0
 12 13  2  0
 13 14  1  0
 13 15  1  0
 15 16  1  0
 16 17  2  0
 17 18  1  0
 17 19  1  0
 19 20  1  0
 20 21  1  0
 20 22  2  0
 22 23  1  0
 15 24  2  0
 24 25  1  0
 24 26  1  0
 26 27  1  0
 26 28  2  0
 28 29  1  0
 29 30  1  0
  7 31  1  0
 31 32  1  0
 31 33  2  0
 33 34  1  0
 33 35  1  0
 35 36  1  0
 35  5  2  0
 28 12  1  0
 22 16  1  0
M  CHG  4   2  -1   6  -1  27  -1  36  -1
M  END
>  <UniqueID>  (59) 
56

>  <SMILES>  (59) 
[NH-]C(=O)c1[n-]/c(=N\Cc2cc(-c3ccsc3)cc([O-])c2O)ccc1[O-]

>  <Energy>  (59) 
68.87865930602574

>  <Genealogy>  (59) 
[NH-]C(=O)c1[n-]c(=NCc2cc(-c3ccsc3)cc([O-])c2O)ccc1[O-] (protonated)
[NH-]C(=O)c1[n-]/c(=N\Cc2cc(-c3ccsc3)cc([O-])c2O)ccc1[O-] (cis-trans isomerization)
[NH-]C(=O)c1[n-]/c(=N\Cc2cc(-c3ccsc3)cc([O-])c2O)ccc1[O-] (3D coordinates assigned)
[NH-]C(=O)c1[n-]/c(=N\Cc2cc(-c3ccsc3)cc([O-])c2O)ccc1[O-] (optimized conformer: 68.87865930602574 kcal/mol)

>  <smiles>  (59) 
NC(=O)c1[nH]c(=NCc2cc(-c3ccsc3)cc(O)c2O)ccc1O

>  <score_type>  (59) 
oracle

>  <origin>  (59) 
adg

>  <m_score__min__energy>  (59) 
-15.48

>  <m_primary>  (59) 
energy

$$$$
59:0
     RDKit          3D

 49 52  0  0  0  0  0  0  0  0999 V2000
   57.8681   29.3815   44.7656 H   0  0  0  0  0  0  0  0  0  0  0  0
   57.7590   28.2880   44.7180 C   0  0  0  0  0  0  0  0  0  0  0  0
   57.2884   27.8199   43.8408 H   0  0  0  0  0  0  0  0  0  0  0  0
   58.2000   27.5250   45.7300 C   0  0  0  0  0  0  0  0  0  0  0  0
   58.1360   26.1250   45.8220 C   0  0  0  0  0  0  0  0  0  0  0  0
   57.4520   25.2210   45.0950 C   0  0  0  0  0  0  0  0  0  0  0  0
   57.9856   24.7356   44.2645 H   0  0  0  0  0  0  0  0  0  0  0  0
   56.0510   24.8270   45.3170 C   0  0  0  0  0  0  0  0  0  0  0  0
   55.5400   23.6140   45.0340 N   0  0  0  0  0  0  0  0  0  0  0  0
   54.2200   23.7710   45.2660 C   0  0  0  0  0  0  0  0  0  0  0  0
   53.3920   22.8330   45.1250 O   0  0  0  0  0  0  0  0  0  0  0  0
   53.8540   25.0120   45.6510 N   0  0  0  0  0  0  0  0  0  0  0  0
   55.0240   25.6700   45.6640 C   0  0  0  0  0  0  0  0  0  0  0  0
   55.1490   27.0170   45.9800 O   0  0  0  0  0  0  0  0  0  0  0  0
   58.9460   25.7700   46.8890 C   0  0  0  0  0  0  0  0  0  0  0  0
   59.1780   24.7483   47.2240 H   0  0  0  0  0  0  0  0  0  0  0  0
   59.4060   26.9440   47.4510 C   0  0  0  0  0  0  0  0  0  0  0  0
   60.3010   27.0180   48.6500 C   0  0  0  0  0  0  0  0  0  0  0  0
   59.6928   26.9677   49.5652 H   0  0  0  0  0  0  0  0  0  0  0  0
   61.0077   26.1752   48.6326 H   0  0  0  0  0  0  0  0  0  0  0  0
   60.8597   27.9654   48.6326 H   0  0  0  0  0  0  0  0  0  0  0  0
   58.9540   28.0090   46.7510 N   0  0  0  0  0  0  0  0  0  0  0  0
   59.2620   29.3880   47.0260 C   0  0  0  0  0  0  0  0  0  0  0  0
   58.7370   30.0190   48.1630 C   0  0  0  0  0  0  0  0  0  0  0  0
   58.0930   29.4556   48.8543 H   0  0  0  0  0  0  0  0  0  0  0  0
   59.0290   31.3610   48.4210 C   0  0  0  0  0  0  0  0  0  0  0  0
   58.6097   31.8516   49.3118 H   0  0  0  0  0  0  0  0  0  0  0  0
   59.8540   32.0840   47.5490 C   0  0  0  0  0  0  0  0  0  0  0  0
   60.1960   33.7810   47.8780 S   0  0  0  0  0  0  0  0  0  0  0  0
   60.0590   34.0150   49.3570 O   0  0  0  0  0  0  0  0  0  0  0  0
   61.6050   34.1100   47.4690 O   0  0  0  0  0  0  0  0  0  0  0  0
   59.0630   34.7940   47.0110 N   0  0  0  0  0  0  0  0  0  0  0  0
   58.8380   35.6240   47.6080 H   0  0  0  0  0  0  0  0  0  0  0  0
   57.8360   34.0580   46.6830 C   0  0  0  0  0  0  0  0  0  0  0  0
   57.6807   33.2461   47.4087 H   0  0  0  0  0  0  0  0  0  0  0  0
   56.9635   34.7268   46.7210 H   0  0  0  0  0  0  0  0  0  0  0  0
   58.0040   33.4790   45.2850 C   0  0  0  0  0  0  0  0  0  0  0  0
   58.2357   32.4051   45.3397 H   0  0  0  0  0  0  0  0  0  0  0  0
   57.0845   33.5802   44.6898 H   0  0  0  0  0  0  0  0  0  0  0  0
   59.1620   34.2400   44.6630 C   0  0  0  0  0  0  0  0  0  0  0  0
   59.9782   33.5503   44.4018 H   0  0  0  0  0  0  0  0  0  0  0  0
   58.8617   34.7500   43.7358 H   0  0  0  0  0  0  0  0  0  0  0  0
   59.6220   35.2290   45.7250 C   0  0  0  0  0  0  0  0  0  0  0  0
   60.7207   35.2382   45.7778 H   0  0  0  0  0  0  0  0  0  0  0  0
   59.2796   36.2452   45.4797 H   0  0  0  0  0  0  0  0  0  0  0  0
   60.3780   31.4540   46.4100 C   0  0  0  0  0  0  0  0  0  0  0  0
   61.0221   32.0176   45.7190 H   0  0  0  0  0  0  0  0  0  0  0  0
   60.0840   30.1130   46.1510 C   0  0  0  0  0  0  0  0  0  0  0  0
   60.4988   29.6239   45.2573 H   0  0  0  0  0  0  0  0  0  0  0  0
  1  2  1  0
  2  3  1  0
  2  4  2  0
  4  5  1  0
  5  6  2  0
  6  7  1  0
  6  8  1  0
  8  9  1  0
  9 10  1  0
 10 11  2  0
 10 12  1  0
 12 13  1  0
 13 14  1  0
  5 15  1  0
 15 16  1  0
 15 17  2  0
 17 18  1  0
 18 19  1  0
 18 20  1  0
 18 21  1  0
 17 22  1  0
 22 23  1  0
 23 24  2  0
 24 25  1  0
 24 26  1  0
 26 27  1  0
 26 28  2  0
 28 29  1  0
 29 30  2  0
 29 31  2  0
 29 32  1  0
 32 33  1  0
 32 34  1  0
 34 35  1  0
 34 36  1  0
 34 37  1  0
 37 38  1  0
 37 39  1  0
 37 40  1  0
 40 41  1  0
 40 42  1  0
 40 43  1  0
 43 44  1  0
 43 45  1  0
 28 46  1  0
 46 47  1  0
 46 48  2  0
 48 49  1  0
 22  4  1  0
 48 23  1  0
 13  8  2  0
 43 32  1  0
M  CHG  4   9  -1  12  -1  14  -1  32   1
M  END
>  <UniqueID>  (60) 
57

>  <SMILES>  (60) 
C=c1/c(=C\c2[n-]c(=O)[n-]c2[O-])cc(C)n1-c1ccc(S(=O)(=O)[NH+]2CCCC2)cc1

>  <Energy>  (60) 
127.66747784759761

>  <Genealogy>  (60) 
C=c1c(=Cc2[n-]c(=O)[n-]c2[O-])cc(C)n1-c1ccc(S(=O)(=O)[NH+]2CCCC2)cc1 (protonated)
C=c1/c(=C\c2[n-]c(=O)[n-]c2[O-])cc(C)n1-c1ccc(S(=O)(=O)[NH+]2CCCC2)cc1 (cis-trans isomerization)
C=c1/c(=C\c2[n-]c(=O)[n-]c2[O-])cc(C)n1-c1ccc(S(=O)(=O)[NH+]2CCCC2)cc1 (3D coordinates assigned)
C=c1/c(=C\c2[n-]c(=O)[n-]c2[O-])cc(C)n1-c1ccc(S(=O)(=O)[NH+]2CCCC2)cc1 (nonaromatic ring conformer: 127.66747784759761 kcal/mol)

>  <smiles>  (60) 
C=c1c(=Cc2[nH]c(=O)[nH]c2O)cc(C)n1-c1ccc(S(=O)(=O)N2CCCC2)cc1

>  <score_type>  (60) 
oracle

>  <origin>  (60) 
adg

>  <m_score__min__energy>  (60) 
-14.66

>  <m_primary>  (60) 
energy

$$$$
60:0
     RDKit          3D

 41 42  0  0  0  0  0  0  0  0999 V2000
   55.2280   26.6180   45.9870 O   0  0  0  0  0  0  0  0  0  0  0  0
   56.4410   26.9650   45.9970 C   0  0  0  0  0  0  0  0  0  0  0  0
   57.4660   26.0440   46.5770 C   0  0  0  0  0  0  0  0  0  0  0  0
   58.8680   27.0220   47.2060 S   0  0  0  0  0  0  0  0  0  0  0  0
   59.8280   26.9250   45.6560 C   0  0  0  0  0  0  0  0  0  0  0  0
   60.5120   28.2560   45.3460 C   0  0  0  0  0  0  0  0  0  0  0  0
   59.5570   29.3140   45.2670 O   0  0  0  0  0  0  0  0  0  0  0  0
   59.2110   30.1390   46.3450 C   0  0  0  0  0  0  0  0  0  0  0  0
   58.1050   29.9860   46.9330 O   0  0  0  0  0  0  0  0  0  0  0  0
   60.1540   31.1840   46.8040 C   0  0  0  0  0  0  0  0  0  0  0  0
   59.7300   32.5180   46.9180 C   0  0  0  0  0  0  0  0  0  0  0  0
   60.6180   33.5090   47.3490 C   0  0  0  0  0  0  0  0  0  0  0  0
   61.9460   33.1860   47.6770 C   0  0  0  0  0  0  0  0  0  0  0  0
   62.8640   34.2040   48.1180 N   0  0  0  0  0  0  0  0  0  0  0  0
   63.7800   34.6030   47.3680 O   0  0  0  0  0  0  0  0  0  0  0  0
   62.7460   34.7580   49.3720 O   0  0  0  0  0  0  0  0  0  0  0  0
   62.3670   31.8500   47.5640 C   0  0  0  0  0  0  0  0  0  0  0  0
   61.4810   30.8600   47.1310 C   0  0  0  0  0  0  0  0  0  0  0  0
   56.8440   28.2130   45.4150 N   0  0  0  0  0  0  0  0  0  0  0  0
   55.8860   29.1570   44.8450 C   0  0  0  0  0  0  0  0  0  0  0  0
   56.6050   30.3430   44.2850 C   0  0  0  0  0  0  0  0  0  0  0  0
   57.0370   30.4860   42.9810 C   0  0  0  0  0  0  0  0  0  0  0  0
   57.6280   31.7300   42.9240 C   0  0  0  0  0  0  0  0  0  0  0  0
   57.5180   32.2660   44.1910 C   0  0  0  0  0  0  0  0  0  0  0  0
   56.9030   31.4150   44.9800 O   0  0  0  0  0  0  0  0  0  0  0  0
   57.0191   25.4699   47.4020 H   0  0  0  0  0  0  0  0  0  0  0  0
   57.8199   25.3507   45.7998 H   0  0  0  0  0  0  0  0  0  0  0  0
   60.5945   26.1425   45.7569 H   0  0  0  0  0  0  0  0  0  0  0  0
   59.1379   26.6877   44.8329 H   0  0  0  0  0  0  0  0  0  0  0  0
   61.2357   28.4830   46.1427 H   0  0  0  0  0  0  0  0  0  0  0  0
   61.0227   28.1707   44.3755 H   0  0  0  0  0  0  0  0  0  0  0  0
   58.6930   32.7852   46.6667 H   0  0  0  0  0  0  0  0  0  0  0  0
   60.2739   34.5505   47.4320 H   0  0  0  0  0  0  0  0  0  0  0  0
   63.4028   31.5813   47.8186 H   0  0  0  0  0  0  0  0  0  0  0  0
   61.8255   29.8188   47.0456 H   0  0  0  0  0  0  0  0  0  0  0  0
   57.8600   28.4530   45.3820 H   0  0  0  0  0  0  0  0  0  0  0  0
   55.3207   28.6615   44.0419 H   0  0  0  0  0  0  0  0  0  0  0  0
   55.1977   29.4928   45.6346 H   0  0  0  0  0  0  0  0  0  0  0  0
   56.9317   29.7604   42.1610 H   0  0  0  0  0  0  0  0  0  0  0  0
   58.0936   32.2007   42.0455 H   0  0  0  0  0  0  0  0  0  0  0  0
   57.8892   33.2561   44.4942 H   0  0  0  0  0  0  0  0  0  0  0  0
  1  2  2  0
  2  3  1  0
  3  4  1  0
  4  5  1  0
  5  6  1  0
  6  7  1  0
  7  8  1  0
  8  9  2  0
  8 10  1  0
 10 11  2  0
 11 12  1  0
 12 13  2  0
 13 14  1  0
 14 15  2  0
 14 16  1  0
 13 17  1  0
 17 18  2  0
  2 19  1  0
 19 20  1  0
 20 21  1  0
 21 22  2  0
 22 23  1  0
 23 24  2  0
 24 25  1  0
 18 10  1  0
 25 21  1  0
  3 26  1  0
  3 27  1  0
  5 28  1  0
  5 29  1  0
  6 30  1  0
  6 31  1  0
 11 32  1  0
 12 33  1  0
 17 34  1  0
 18 35  1  0
 19 36  1  0
 20 37  1  0
 20 38  1  0
 22 39  1  0
 23 40  1  0
 24 41  1  0
M  CHG  2  14   1  16  -1
M  END
>  <UniqueID>  (61) 
58

>  <SMILES>  (61) 
O=C(CSCCOC(=O)c1ccc([N+](=O)[O-])cc1)NCc1ccco1

>  <Energy>  (61) 
58.07502586840252

>  <Genealogy>  (61) 
O=C(CSCCOC(=O)c1ccc([N+](=O)[O-])cc1)NCc1ccco1 (3D coordinates assigned)
O=C(CSCCOC(=O)c1ccc([N+](=O)[O-])cc1)NCc1ccco1 (optimized conformer: 58.07502586840252 kcal/mol)

>  <smiles>  (61) 
O=C(CSCCOC(=O)c1ccc([N+](=O)[O-])cc1)NCc1ccco1

>  <score_type>  (61) 
oracle

>  <origin>  (61) 
adg

>  <m_score__min__energy>  (61) 
-7.2300000000000004

>  <m_primary>  (61) 
energy

$$$$
61:0
     RDKit          3D

 41 43  0  0  1  0  0  0  0  0999 V2000
   59.0510   31.9600   48.8920 C   0  0  0  0  0  0  0  0  0  0  0  0
   59.7200   32.1280   47.6810 O   0  0  0  0  0  0  0  0  0  0  0  0
   61.0800   32.2990   47.4930 C   0  0  0  0  0  0  0  0  0  0  0  0
   61.9320   31.2410   47.3300 C   0  0  0  0  0  0  0  0  0  0  0  0
   63.2670   31.5050   47.1490 C   0  0  0  0  0  0  0  0  0  0  0  0
   63.7720   32.7890   47.1270 C   0  0  0  0  0  0  0  0  0  0  0  0
   62.8670   33.8130   47.2970 C   0  0  0  0  0  0  0  0  0  0  0  0
   61.5220   33.6400   47.4830 C   0  0  0  0  0  0  0  0  0  0  0  0
   60.5820   34.5940   47.6540 O   0  0  0  0  0  0  0  0  0  0  0  0
   59.8220   35.1790   46.6620 C   0  0  0  0  0  0  0  0  0  0  0  0
   58.5990   34.4160   46.4050 C   0  0  0  0  0  0  0  0  0  0  0  0
   57.4350   34.2270   46.6020 N   0  0  0  0  0  0  0  0  0  0  0  0
   56.6470   33.3470   46.0800 N   0  0  0  0  0  0  0  0  0  0  0  0
   57.1760   32.5190   45.1940 C   0  0  0  0  0  0  0  0  0  0  0  0
   56.6840   31.5420   44.5110 N   0  0  0  0  0  0  0  0  0  0  0  0
   57.2530   30.2600   44.6220 C   0  0  0  0  0  0  0  0  0  0  0  0
   56.9340   29.0450   43.5980 S   0  0  0  0  0  0  0  0  0  0  0  0
   58.1510   30.0320   45.7060 N   0  0  0  0  0  0  0  0  0  0  0  0
   58.8190   28.7980   45.9260 C   0  0  0  0  0  0  0  0  0  0  0  0
   60.1590   28.5800   45.7480 C   0  0  0  0  0  0  0  0  0  0  0  0
   60.6850   27.3000   45.9920 C   0  0  0  0  0  0  0  0  0  0  0  0
   59.8820   26.2570   46.4090 C   0  0  0  0  0  0  0  0  0  0  0  0
   58.5280   26.4900   46.5880 C   0  0  0  0  0  0  0  0  0  0  0  0
   57.4210   25.2170   47.1140 Cl  0  0  0  0  0  0  0  0  0  0  0  0
   57.9760   27.7550   46.3520 C   0  0  0  0  0  0  0  0  0  0  0  0
   58.9000   33.0400   45.1140 S   0  0  0  0  0  0  0  0  0  0  0  0
   59.7490   32.1353   49.7239 H   0  0  0  0  0  0  0  0  0  0  0  0
   58.2192   32.6772   48.9540 H   0  0  0  0  0  0  0  0  0  0  0  0
   58.6567   30.9350   48.9540 H   0  0  0  0  0  0  0  0  0  0  0  0
   61.5575   30.2068   47.3436 H   0  0  0  0  0  0  0  0  0  0  0  0
   63.9602   30.6612   47.0165 H   0  0  0  0  0  0  0  0  0  0  0  0
   64.8445   32.9849   46.9809 H   0  0  0  0  0  0  0  0  0  0  0  0
   63.2524   34.8432   47.2823 H   0  0  0  0  0  0  0  0  0  0  0  0
   59.5491   36.1978   46.9743 H   0  0  0  0  0  0  0  0  0  0  0  0
   60.4173   35.2001   45.7372 H   0  0  0  0  0  0  0  0  0  0  0  0
   55.6120   33.2850   46.3530 H   0  0  0  0  0  0  0  0  0  0  0  0
   58.3690   30.7840   46.4090 H   0  0  0  0  0  0  0  0  0  0  0  0
   60.8164   29.3977   45.4177 H   0  0  0  0  0  0  0  0  0  0  0  0
   61.7613   27.1249   45.8475 H   0  0  0  0  0  0  0  0  0  0  0  0
   60.3089   25.2605   46.5955 H   0  0  0  0  0  0  0  0  0  0  0  0
   56.8999   27.9307   46.4974 H   0  0  0  0  0  0  0  0  0  0  0  0
  1  2  1  0
  2  3  1  0
  3  4  2  0
  4  5  1  0
  5  6  2  0
  6  7  1  0
  7  8  2  0
  8  9  1  0
  9 10  1  0
 10 11  1  0
 11 12  2  0
 12 13  1  0
 13 14  1  0
 14 15  2  0
 15 16  1  0
 16 17  2  0
 16 18  1  0
 18 19  1  0
 19 20  2  0
 20 21  1  0
 21 22  2  0
 22 23  1  0
 23 24  1  0
 23 25  2  0
 14 26  1  0
  8  3  1  0
 26 11  1  0
 25 19  1  0
  1 27  1  0
  1 28  1  0
  1 29  1  0
  4 30  1  0
  5 31  1  0
  6 32  1  0
  7 33  1  0
 10 34  1  0
 10 35  1  0
 13 36  1  0
 18 37  1  0
 20 38  1  0
 21 39  1  0
 22 40  1  0
 25 41  1  0
M  END
>  <smiles>  (62) 
COc1ccccc1OCc1n[nH]c(=NC(=S)Nc2cccc(Cl)c2)s1

>  <score_type>  (62) 
oracle

>  <origin>  (62) 
adg

>  <m_score__min__energy>  (62) 
-8.6699999999999999

>  <m_primary>  (62) 
energy

$$$$
62:0
     RDKit          3D

 38 40  0  0  0  0  0  0  0  0999 V2000
   62.5980   31.3120   47.1170 C   0  0  0  0  0  0  0  0  0  0  0  0
   62.1640   32.5590   47.7390 N   0  0  0  0  0  0  0  0  0  0  0  0
   62.9370   33.4080   48.4430 C   0  0  0  0  0  0  0  0  0  0  0  0
   64.3060   33.2360   48.6300 O   0  0  0  0  0  0  0  0  0  0  0  0
   62.1900   34.4520   48.9510 C   0  0  0  0  0  0  0  0  0  0  0  0
   60.8890   34.2180   48.5490 C   0  0  0  0  0  0  0  0  0  0  0  0
   60.9050   33.0400   47.8240 C   0  0  0  0  0  0  0  0  0  0  0  0
   59.4520   32.2750   47.0980 S   0  0  0  0  0  0  0  0  0  0  0  0
   59.6320   30.7610   48.0510 C   0  0  0  0  0  0  0  0  0  0  0  0
   59.7590   30.8450   49.4440 C   0  0  0  0  0  0  0  0  0  0  0  0
   59.9130   29.6870   50.2090 C   0  0  0  0  0  0  0  0  0  0  0  0
   59.9590   28.4390   49.5860 C   0  0  0  0  0  0  0  0  0  0  0  0
   59.8440   28.3450   48.1960 C   0  0  0  0  0  0  0  0  0  0  0  0
   59.6600   29.5030   47.4190 C   0  0  0  0  0  0  0  0  0  0  0  0
   59.5470   29.4280   45.9900 N   0  0  0  0  0  0  0  0  0  0  0  0
   58.4230   28.9360   45.2470 C   0  0  0  0  0  0  0  0  0  0  0  0
   57.9850   29.6330   44.2930 O   0  0  0  0  0  0  0  0  0  0  0  0
   57.7240   27.6760   45.6100 C   0  0  0  0  0  0  0  0  0  0  0  0
   58.4660   26.5400   45.9820 C   0  0  0  0  0  0  0  0  0  0  0  0
   57.8190   25.3560   46.3400 C   0  0  0  0  0  0  0  0  0  0  0  0
   56.4250   25.2910   46.3380 C   0  0  0  0  0  0  0  0  0  0  0  0
   55.6730   26.4120   45.9780 C   0  0  0  0  0  0  0  0  0  0  0  0
   54.2850   26.3390   45.9800 O   0  0  0  0  0  0  0  0  0  0  0  0
   56.3150   27.6050   45.6160 C   0  0  0  0  0  0  0  0  0  0  0  0
   55.5450   28.7040   45.2470 O   0  0  0  0  0  0  0  0  0  0  0  0
   62.8523   30.5813   47.8989 H   0  0  0  0  0  0  0  0  0  0  0  0
   61.7862   30.9122   46.4916 H   0  0  0  0  0  0  0  0  0  0  0  0
   63.4826   31.5026   46.4916 H   0  0  0  0  0  0  0  0  0  0  0  0
   64.8830   32.8290   47.9030 H   0  0  0  0  0  0  0  0  0  0  0  0
   62.5557   35.2971   49.5527 H   0  0  0  0  0  0  0  0  0  0  0  0
   60.0117   34.8459   48.7636 H   0  0  0  0  0  0  0  0  0  0  0  0
   59.7373   31.8280   49.9373 H   0  0  0  0  0  0  0  0  0  0  0  0
   59.9981   29.7585   51.3034 H   0  0  0  0  0  0  0  0  0  0  0  0
   60.0859   27.5281   50.1895 H   0  0  0  0  0  0  0  0  0  0  0  0
   59.8977   27.3608   47.7076 H   0  0  0  0  0  0  0  0  0  0  0  0
   59.5650   26.5852   45.9908 H   0  0  0  0  0  0  0  0  0  0  0  0
   58.4092   24.4724   46.6243 H   0  0  0  0  0  0  0  0  0  0  0  0
   55.9180   24.3565   46.6201 H   0  0  0  0  0  0  0  0  0  0  0  0
  1  2  1  0
  2  3  1  0
  3  4  1  0
  3  5  2  0
  5  6  1  0
  6  7  2  0
  7  8  1  0
  8  9  1  0
  9 10  2  0
 10 11  1  0
 11 12  2  0
 12 13  1  0
 13 14  2  0
 14 15  1  0
 15 16  1  0
 16 17  2  0
 16 18  1  0
 18 19  2  0
 19 20  1  0
 20 21  2  0
 21 22  1  0
 22 23  1  0
 22 24  2  0
 24 25  1  0
  7  2  1  0
 14  9  1  0
 24 18  1  0
  1 26  1  0
  1 27  1  0
  1 28  1  0
  4 29  1  0
  5 30  1  0
  6 31  1  0
 10 32  1  0
 11 33  1  0
 12 34  1  0
 13 35  1  0
 19 36  1  0
 20 37  1  0
 21 38  1  0
M  CHG  3  15  -1  23  -1  25  -1
M  END
>  <UniqueID>  (63) 
59

>  <SMILES>  (63) 
Cn1c(O)ccc1Sc1ccccc1[N-]C(=O)c1cccc([O-])c1[O-]

>  <Energy>  (63) 
69.21640634613391

>  <Genealogy>  (63) 
Cn1c(O)ccc1Sc1ccccc1[N-]C(=O)c1cccc([O-])c1[O-] (protonated)
Cn1c(O)ccc1Sc1ccccc1[N-]C(=O)c1cccc([O-])c1[O-] (3D coordinates assigned)
Cn1c(O)ccc1Sc1ccccc1[N-]C(=O)c1cccc([O-])c1[O-] (optimized conformer: 69.21640634613391 kcal/mol)

>  <smiles>  (63) 
Cn1c(O)ccc1Sc1ccccc1NC(=O)c1cccc(O)c1O

>  <score_type>  (63) 
oracle

>  <origin>  (63) 
adg

>  <m_score__min__energy>  (63) 
-16.379999999999999

>  <m_primary>  (63) 
energy

$$$$
63:0
     RDKit          3D

 56 59  0  0  0  0  0  0  0  0999 V2000
   60.0990   27.8870   49.0000 C   0  0  0  0  0  0  0  0  0  0  0  0
   60.4980   28.9190   50.0130 C   0  0  0  0  0  0  0  0  0  0  0  0
   61.4890   28.6310   50.9630 C   0  0  0  0  0  0  0  0  0  0  0  0
   61.8810   29.6020   51.9000 C   0  0  0  0  0  0  0  0  0  0  0  0
   62.9560   29.2930   52.9010 C   0  0  0  0  0  0  0  0  0  0  0  0
   61.3100   30.8820   51.8500 C   0  0  0  0  0  0  0  0  0  0  0  0
   60.3390   31.1900   50.8840 C   0  0  0  0  0  0  0  0  0  0  0  0
   59.7000   32.5510   50.8640 C   0  0  0  0  0  0  0  0  0  0  0  0
   59.7210   33.1060   49.4720 C   0  0  0  0  0  0  0  0  0  0  0  0
   60.6720   33.8570   49.1260 O   0  0  0  0  0  0  0  0  0  0  0  0
   58.6200   32.8620   48.5840 N   0  0  0  0  0  0  0  0  0  0  0  0
   58.6050   33.2280   47.1930 C   0  0  0  0  0  0  0  0  0  0  0  0
   58.9190   34.5470   46.8310 C   0  0  0  0  0  0  0  0  0  0  0  0
   58.9020   34.9350   45.4900 C   0  0  0  0  0  0  0  0  0  0  0  0
   58.5550   34.0160   44.4980 C   0  0  0  0  0  0  0  0  0  0  0  0
   58.2010   32.7000   44.8420 C   0  0  0  0  0  0  0  0  0  0  0  0
   57.8100   31.7180   43.7650 C   0  0  0  0  0  0  0  0  0  0  0  0
   57.3580   30.4080   44.3640 C   0  0  0  0  0  0  0  0  0  0  0  0
   56.0230   30.1520   44.3860 N   0  0  0  0  0  0  0  0  0  0  0  0
   55.5250   29.0290   44.8970 N   0  0  0  0  0  0  0  0  0  0  0  0
   56.3240   28.0690   45.4210 C   0  0  0  0  0  0  0  0  0  0  0  0
   55.8040   27.0250   45.9030 O   0  0  0  0  0  0  0  0  0  0  0  0
   57.7180   28.2470   45.4240 C   0  0  0  0  0  0  0  0  0  0  0  0
   58.2510   29.4590   44.9200 C   0  0  0  0  0  0  0  0  0  0  0  0
   59.7530   29.6840   44.8690 C   0  0  0  0  0  0  0  0  0  0  0  0
   60.5440   28.7400   45.7790 C   0  0  0  0  0  0  0  0  0  0  0  0
   60.0610   27.3040   45.6070 C   0  0  0  0  0  0  0  0  0  0  0  0
   58.6030   27.1890   46.0520 C   0  0  0  0  0  0  0  0  0  0  0  0
   58.2280   32.3120   46.1920 C   0  0  0  0  0  0  0  0  0  0  0  0
   59.9310   30.2010   49.9730 C   0  0  0  0  0  0  0  0  0  0  0  0
   59.7489   26.9816   49.5173 H   0  0  0  0  0  0  0  0  0  0  0  0
   59.2900   28.2852   48.3699 H   0  0  0  0  0  0  0  0  0  0  0  0
   60.9655   27.6375   48.3699 H   0  0  0  0  0  0  0  0  0  0  0  0
   61.9625   27.6382   50.9746 H   0  0  0  0  0  0  0  0  0  0  0  0
   62.5539   29.4086   53.9183 H   0  0  0  0  0  0  0  0  0  0  0  0
   63.3028   28.2588   52.7591 H   0  0  0  0  0  0  0  0  0  0  0  0
   63.7991   29.9852   52.7591 H   0  0  0  0  0  0  0  0  0  0  0  0
   61.6250   31.6495   52.5723 H   0  0  0  0  0  0  0  0  0  0  0  0
   58.6584   32.4696   51.2082 H   0  0  0  0  0  0  0  0  0  0  0  0
   60.2610   33.2234   51.5296 H   0  0  0  0  0  0  0  0  0  0  0  0
   57.7370   32.4890   49.0020 H   0  0  0  0  0  0  0  0  0  0  0  0
   59.1802   35.2798   47.6087 H   0  0  0  0  0  0  0  0  0  0  0  0
   59.1627   35.9675   45.2143 H   0  0  0  0  0  0  0  0  0  0  0  0
   58.5587   34.3234   43.4418 H   0  0  0  0  0  0  0  0  0  0  0  0
   56.9882   32.1443   43.1710 H   0  0  0  0  0  0  0  0  0  0  0  0
   58.6874   31.5280   43.1294 H   0  0  0  0  0  0  0  0  0  0  0  0
   60.0923   29.5346   43.8334 H   0  0  0  0  0  0  0  0  0  0  0  0
   59.9388   30.7078   45.2257 H   0  0  0  0  0  0  0  0  0  0  0  0
   61.6114   28.7966   45.5192 H   0  0  0  0  0  0  0  0  0  0  0  0
   60.3920   29.0438   46.8252 H   0  0  0  0  0  0  0  0  0  0  0  0
   60.1432   27.0158   44.5486 H   0  0  0  0  0  0  0  0  0  0  0  0
   60.6816   26.6368   46.2232 H   0  0  0  0  0  0  0  0  0  0  0  0
   58.2241   26.1969   45.7653 H   0  0  0  0  0  0  0  0  0  0  0  0
   58.5744   27.3341   47.1420 H   0  0  0  0  0  0  0  0  0  0  0  0
   57.9523   31.2839   46.4695 H   0  0  0  0  0  0  0  0  0  0  0  0
   59.1610   30.4341   49.2228 H   0  0  0  0  0  0  0  0  0  0  0  0
  1  2  1  0
  2  3  2  0
  3  4  1  0
  4  5  1  0
  4  6  2  0
  6  7  1  0
  7  8  1  0
  8  9  1  0
  9 10  2  0
  9 11  1  0
 11 12  1  0
 12 13  2  0
 13 14  1  0
 14 15  2  0
 15 16  1  0
 16 17  1  0
 17 18  1  0
 18 19  2  0
 19 20  1  0
 20 21  1  0
 21 22  2  0
 21 23  1  0
 23 24  2  0
 24 25  1  0
 25 26  1  0
 26 27  1  0
 27 28  1  0
 16 29  2  0
  7 30  2  0
 30  2  1  0
 29 12  1  0
 24 18  1  0
 28 23  1  0
  1 31  1  0
  1 32  1  0
  1 33  1  0
  3 34  1  0
  5 35  1  0
  5 36  1  0
  5 37  1  0
  6 38  1  0
  8 39  1  0
  8 40  1  0
 11 41  1  0
 13 42  1  0
 14 43  1  0
 15 44  1  0
 17 45  1  0
 17 46  1  0
 25 47  1  0
 25 48  1  0
 26 49  1  0
 26 50  1  0
 27 51  1  0
 27 52  1  0
 28 53  1  0
 28 54  1  0
 29 55  1  0
 30 56  1  0
M  CHG  1  20  -1
M  END
>  <UniqueID>  (64) 
60

>  <SMILES>  (64) 
Cc1cc(C)cc(CC(=O)Nc2cccc(Cc3n[n-]c(=O)c4c3CCCC4)c2)c1

>  <Energy>  (64) 
60.86301082812343

>  <Genealogy>  (64) 
Cc1cc(C)cc(CC(=O)Nc2cccc(Cc3n[n-]c(=O)c4c3CCCC4)c2)c1 (protonated)
Cc1cc(C)cc(CC(=O)Nc2cccc(Cc3n[n-]c(=O)c4c3CCCC4)c2)c1 (3D coordinates assigned)
Cc1cc(C)cc(CC(=O)Nc2cccc(Cc3n[n-]c(=O)c4c3CCCC4)c2)c1 (nonaromatic ring conformer: 60.86301082812343 kcal/mol)

>  <smiles>  (64) 
Cc1cc(C)cc(CC(=O)Nc2cccc(Cc3n[nH]c(=O)c4c3CCCC4)c2)c1

>  <score_type>  (64) 
oracle

>  <origin>  (64) 
adg

>  <m_score__min__energy>  (64) 
-13.49

>  <m_primary>  (64) 
energy

$$$$
64:0
     RDKit          3D

 27 28  0  0  0  0  0  0  0  0999 V2000
   57.6270   30.5460   44.8890 C   0  0  0  0  0  0  0  0  0  0  0  0
   57.9020   29.0980   45.1760 C   0  0  0  0  0  0  0  0  0  0  0  0
   59.2250   28.6360   45.2650 C   0  0  0  0  0  0  0  0  0  0  0  0
   59.4840   27.2900   45.5240 C   0  0  0  0  0  0  0  0  0  0  0  0
   58.4290   26.3910   45.6880 C   0  0  0  0  0  0  0  0  0  0  0  0
   57.0970   26.8260   45.5870 C   0  0  0  0  0  0  0  0  0  0  0  0
   55.9850   25.8650   45.7840 C   0  0  0  0  0  0  0  0  0  0  0  0
   54.8250   26.3100   45.9990 O   0  0  0  0  0  0  0  0  0  0  0  0
   56.1970   24.3950   45.7530 C   0  0  0  0  0  0  0  0  0  0  0  0
   55.9450   23.6730   44.5720 C   0  0  0  0  0  0  0  0  0  0  0  0
   56.1540   22.2910   44.5280 C   0  0  0  0  0  0  0  0  0  0  0  0
   55.8930   21.5860   43.3600 O   0  0  0  0  0  0  0  0  0  0  0  0
   56.6240   21.6180   45.6590 C   0  0  0  0  0  0  0  0  0  0  0  0
   56.8930   22.3270   46.8330 C   0  0  0  0  0  0  0  0  0  0  0  0
   57.3700   21.6580   47.9540 O   0  0  0  0  0  0  0  0  0  0  0  0
   56.6840   23.7090   46.8810 C   0  0  0  0  0  0  0  0  0  0  0  0
   56.8380   28.1900   45.3340 C   0  0  0  0  0  0  0  0  0  0  0  0
   55.5250   28.6430   45.2210 O   0  0  0  0  0  0  0  0  0  0  0  0
   57.5229   31.0943   45.8369 H   0  0  0  0  0  0  0  0  0  0  0  0
   58.4607   30.9698   44.3099 H   0  0  0  0  0  0  0  0  0  0  0  0
   56.6960   30.6346   44.3099 H   0  0  0  0  0  0  0  0  0  0  0  0
   60.0607   29.3384   45.1299 H   0  0  0  0  0  0  0  0  0  0  0  0
   60.5228   26.9361   45.5992 H   0  0  0  0  0  0  0  0  0  0  0  0
   58.6424   25.3326   45.8982 H   0  0  0  0  0  0  0  0  0  0  0  0
   55.5811   24.1992   43.6772 H   0  0  0  0  0  0  0  0  0  0  0  0
   56.7823   20.5300   45.6252 H   0  0  0  0  0  0  0  0  0  0  0  0
   56.9016   24.2630   47.8060 H   0  0  0  0  0  0  0  0  0  0  0  0
  1  2  1  0
  2  3  2  0
  3  4  1  0
  4  5  2  0
  5  6  1  0
  6  7  1  0
  7  8  2  0
  7  9  1  0
  9 10  2  0
 10 11  1  0
 11 12  1  0
 11 13  2  0
 13 14  1  0
 14 15  1  0
 14 16  2  0
  6 17  2  0
 17 18  1  0
 17  2  1  0
 16  9  1  0
  1 19  1  0
  1 20  1  0
  1 21  1  0
  3 22  1  0
  4 23  1  0
  5 24  1  0
 10 25  1  0
 13 26  1  0
 16 27  1  0
M  CHG  3  12  -1  15  -1  18  -1
M  END
>  <UniqueID>  (65) 
61

>  <SMILES>  (65) 
Cc1cccc(C(=O)c2cc([O-])cc([O-])c2)c1[O-]

>  <Energy>  (65) 
35.35614971239778

>  <Genealogy>  (65) 
Cc1cccc(C(=O)c2cc([O-])cc([O-])c2)c1[O-] (protonated)
Cc1cccc(C(=O)c2cc([O-])cc([O-])c2)c1[O-] (3D coordinates assigned)
Cc1cccc(C(=O)c2cc([O-])cc([O-])c2)c1[O-] (optimized conformer: 35.35614971239778 kcal/mol)

>  <smiles>  (65) 
Cc1cccc(C(=O)c2cc(O)cc(O)c2)c1O

>  <score_type>  (65) 
oracle

>  <origin>  (65) 
adg

>  <m_score__min__energy>  (65) 
-14.369999999999999

>  <m_primary>  (65) 
energy

$$$$
65:0
     RDKit          3D

 54 56  0  0  0  0  0  0  0  0999 V2000
   56.3840   22.7270   48.3040 C   0  0  0  0  0  0  0  0  0  0  0  0
   57.3700   22.9390   47.3000 O   0  0  0  0  0  0  0  0  0  0  0  0
   57.1260   22.8740   45.9190 C   0  0  0  0  0  0  0  0  0  0  0  0
   57.3710   21.6990   45.1770 C   0  0  0  0  0  0  0  0  0  0  0  0
   57.1010   21.6600   43.8060 C   0  0  0  0  0  0  0  0  0  0  0  0
   56.5850   22.7830   43.1610 C   0  0  0  0  0  0  0  0  0  0  0  0
   56.3430   23.9530   43.8810 C   0  0  0  0  0  0  0  0  0  0  0  0
   56.6230   24.0150   45.2570 C   0  0  0  0  0  0  0  0  0  0  0  0
   56.3160   25.2810   46.0150 C   0  0  0  0  0  0  0  0  0  0  0  0
   56.7370   26.4530   45.2490 N   0  0  0  0  0  0  0  0  0  0  0  0
   58.0880   26.5990   44.7930 C   0  0  0  0  0  0  0  0  0  0  0  0
   58.9900   25.8300   45.2270 O   0  0  0  0  0  0  0  0  0  0  0  0
   58.4450   27.6690   43.8020 C   0  0  0  0  0  0  0  0  0  0  0  0
   57.3270   28.5910   43.5950 N   0  0  0  0  0  0  0  0  0  0  0  0
   56.7560   29.4500   44.5900 C   0  0  0  0  0  0  0  0  0  0  0  0
   55.5360   29.3200   44.8770 O   0  0  0  0  0  0  0  0  0  0  0  0
   57.5380   30.5120   45.2470 C   0  0  0  0  0  0  0  0  0  0  0  0
   57.5370   31.8100   44.7150 C   0  0  0  0  0  0  0  0  0  0  0  0
   58.3060   32.8150   45.3070 C   0  0  0  0  0  0  0  0  0  0  0  0
   59.0640   32.5400   46.4540 C   0  0  0  0  0  0  0  0  0  0  0  0
   60.0350   33.8130   47.1860 S   0  0  0  0  0  0  0  0  0  0  0  0
   60.7460   34.5940   46.1160 O   0  0  0  0  0  0  0  0  0  0  0  0
   59.1180   34.7330   47.9410 O   0  0  0  0  0  0  0  0  0  0  0  0
   61.2030   33.1110   48.2860 N   0  0  0  0  0  0  0  0  0  0  0  0
   62.0390   32.1270   47.5910 C   0  0  0  0  0  0  0  0  0  0  0  0
   63.3010   32.8290   47.1120 C   0  0  0  0  0  0  0  0  0  0  0  0
   63.3520   34.1410   47.8690 C   0  0  0  0  0  0  0  0  0  0  0  0
   62.1290   34.1370   48.7750 C   0  0  0  0  0  0  0  0  0  0  0  0
   59.0480   31.2500   47.0020 C   0  0  0  0  0  0  0  0  0  0  0  0
   58.2870   30.2420   46.4040 C   0  0  0  0  0  0  0  0  0  0  0  0
   56.8453   22.8262   49.2977 H   0  0  0  0  0  0  0  0  0  0  0  0
   55.5835   23.4736   48.1952 H   0  0  0  0  0  0  0  0  0  0  0  0
   55.9611   21.7174   48.1952 H   0  0  0  0  0  0  0  0  0  0  0  0
   57.7766   20.8089   45.6802 H   0  0  0  0  0  0  0  0  0  0  0  0
   57.2962   20.7406   43.2345 H   0  0  0  0  0  0  0  0  0  0  0  0
   56.3684   22.7465   42.0831 H   0  0  0  0  0  0  0  0  0  0  0  0
   55.9298   24.8339   43.3679 H   0  0  0  0  0  0  0  0  0  0  0  0
   55.2330   25.3389   46.1988 H   0  0  0  0  0  0  0  0  0  0  0  0
   56.8630   25.2651   46.9692 H   0  0  0  0  0  0  0  0  0  0  0  0
   56.0310   27.1730   44.9680 H   0  0  0  0  0  0  0  0  0  0  0  0
   59.3107   28.2333   44.1790 H   0  0  0  0  0  0  0  0  0  0  0  0
   58.6842   27.1893   42.8414 H   0  0  0  0  0  0  0  0  0  0  0  0
   56.9280   32.0376   43.8277 H   0  0  0  0  0  0  0  0  0  0  0  0
   58.3168   33.8252   44.8719 H   0  0  0  0  0  0  0  0  0  0  0  0
   62.3051   31.3117   48.2798 H   0  0  0  0  0  0  0  0  0  0  0  0
   61.4934   31.7011   46.7361 H   0  0  0  0  0  0  0  0  0  0  0  0
   64.1885   32.2202   47.3393 H   0  0  0  0  0  0  0  0  0  0  0  0
   63.2893   32.9881   46.0236 H   0  0  0  0  0  0  0  0  0  0  0  0
   64.2730   34.2039   48.4671 H   0  0  0  0  0  0  0  0  0  0  0  0
   63.3519   35.0048   47.1879 H   0  0  0  0  0  0  0  0  0  0  0  0
   62.4305   33.9056   49.8073 H   0  0  0  0  0  0  0  0  0  0  0  0
   61.6439   35.1242   48.7646 H   0  0  0  0  0  0  0  0  0  0  0  0
   59.6361   31.0305   47.9053 H   0  0  0  0  0  0  0  0  0  0  0  0
   58.2745   29.2327   46.8413 H   0  0  0  0  0  0  0  0  0  0  0  0
  1  2  1  0
  2  3  1  0
  3  4  2  0
  4  5  1  0
  5  6  2  0
  6  7  1  0
  7  8  2  0
  8  9  1  0
  9 10  1  0
 10 11  1  0
 11 12  2  0
 11 13  1  0
 13 14  1  0
 14 15  1  0
 15 16  2  0
 15 17  1  0
 17 18  2  0
 18 19  1  0
 19 20  2  0
 20 21  1  0
 21 22  2  0
 21 23  2  0
 21 24  1  0
 24 25  1  0
 25 26  1  0
 26 27  1  0
 27 28  1  0
 20 29  1  0
 29 30  2  0
  8  3  1  0
 30 17  1  0
 28 24  1  0
  1 31  1  0
  1 32  1  0
  1 33  1  0
  4 34  1  0
  5 35  1  0
  6 36  1  0
  7 37  1  0
  9 38  1  0
  9 39  1  0
 10 40  1  0
 13 41  1  0
 13 42  1  0
 18 43  1  0
 19 44  1  0
 25 45  1  0
 25 46  1  0
 26 47  1  0
 26 48  1  0
 27 49  1  0
 27 50  1  0
 28 51  1  0
 28 52  1  0
 29 53  1  0
 30 54  1  0
M  CHG  1  14  -1
M  END
>  <UniqueID>  (66) 
62

>  <SMILES>  (66) 
COc1ccccc1CNC(=O)C[N-]C(=O)c1ccc(S(=O)(=O)N2CCCC2)cc1

>  <Energy>  (66) 
55.17327069224003

>  <Genealogy>  (66) 
COc1ccccc1CNC(=O)C[N-]C(=O)c1ccc(S(=O)(=O)N2CCCC2)cc1 (protonated)
COc1ccccc1CNC(=O)C[N-]C(=O)c1ccc(S(=O)(=O)N2CCCC2)cc1 (3D coordinates assigned)
COc1ccccc1CNC(=O)C[N-]C(=O)c1ccc(S(=O)(=O)N2CCCC2)cc1 (nonaromatic ring conformer: 55.17327069224003 kcal/mol)

>  <smiles>  (66) 
COc1ccccc1CNC(=O)CNC(=O)c1ccc(S(=O)(=O)N2CCCC2)cc1

>  <score_type>  (66) 
oracle

>  <origin>  (66) 
adg

>  <m_score__min__energy>  (66) 
-10.77

>  <m_primary>  (66) 
energy

$$$$
66:0
     RDKit          3D

 64 67  0  0  0  0  0  0  0  0999 V2000
   58.4700   34.5690   52.5660 C   0  0  0  0  0  0  0  0  0  0  0  0
   58.7210   33.0570   52.3580 C   0  0  0  0  0  0  0  0  0  0  0  0
   59.8410   32.6300   53.3320 C   0  0  0  0  0  0  0  0  0  0  0  0
   57.4180   32.3100   52.7170 C   0  0  0  0  0  0  0  0  0  0  0  0
   59.1330   32.7050   50.9140 C   0  0  0  0  0  0  0  0  0  0  0  0
   59.0500   31.3910   50.3930 C   0  0  0  0  0  0  0  0  0  0  0  0
   59.4300   31.1140   49.0770 C   0  0  0  0  0  0  0  0  0  0  0  0
   59.9130   32.1330   48.2470 C   0  0  0  0  0  0  0  0  0  0  0  0
   60.2630   31.8420   46.8150 C   0  0  0  0  0  0  0  0  0  0  0  0
   59.3180   30.8760   46.2650 N   0  0  0  0  0  0  0  0  0  0  0  0
   58.2540   31.1610   45.4900 C   0  0  0  0  0  0  0  0  0  0  0  0
   57.5560   29.9880   45.2570 C   0  0  0  0  0  0  0  0  0  0  0  0
   56.3820   29.8510   44.3760 C   0  0  0  0  0  0  0  0  0  0  0  0
   55.1550   29.3240   44.8720 N   0  0  0  0  0  0  0  0  0  0  0  0
   56.4740   30.1630   43.1590 O   0  0  0  0  0  0  0  0  0  0  0  0
   58.2570   29.0070   45.9580 C   0  0  0  0  0  0  0  0  0  0  0  0
   57.8990   27.5870   46.1460 C   0  0  0  0  0  0  0  0  0  0  0  0
   58.5160   26.8170   47.1450 C   0  0  0  0  0  0  0  0  0  0  0  0
   58.2000   25.4620   47.2880 C   0  0  0  0  0  0  0  0  0  0  0  0
   57.2740   24.8600   46.4260 C   0  0  0  0  0  0  0  0  0  0  0  0
   56.8840   23.1490   46.5800 S   0  0  0  0  0  0  0  0  0  0  0  0
   57.0950   22.7050   48.0020 O   0  0  0  0  0  0  0  0  0  0  0  0
   55.4340   22.9590   46.2280 O   0  0  0  0  0  0  0  0  0  0  0  0
   57.8980   22.2300   45.4860 N   0  0  0  0  0  0  0  0  0  0  0  0
   57.4170   20.8400   45.3250 C   0  0  0  0  0  0  0  0  0  0  0  0
   56.5940   20.6400   44.0380 C   0  0  0  0  0  0  0  0  0  0  0  0
   55.8910   21.8190   43.7190 O   0  0  0  0  0  0  0  0  0  0  0  0
   56.7950   22.8330   43.3140 C   0  0  0  0  0  0  0  0  0  0  0  0
   58.0660   22.9170   44.1930 C   0  0  0  0  0  0  0  0  0  0  0  0
   56.6780   25.6190   45.4110 C   0  0  0  0  0  0  0  0  0  0  0  0
   56.9910   26.9740   45.2680 C   0  0  0  0  0  0  0  0  0  0  0  0
   59.3200   29.5840   46.5520 N   0  0  0  0  0  0  0  0  0  0  0  0
   59.9890   33.4400   48.7420 C   0  0  0  0  0  0  0  0  0  0  0  0
   59.6120   33.7210   50.0570 C   0  0  0  0  0  0  0  0  0  0  0  0
   58.4333   34.7898   53.6430 H   0  0  0  0  0  0  0  0  0  0  0  0
   59.2851   35.1433   52.1015 H   0  0  0  0  0  0  0  0  0  0  0  0
   57.5131   34.8491   52.1015 H   0  0  0  0  0  0  0  0  0  0  0  0
   59.4958   32.7616   54.3681 H   0  0  0  0  0  0  0  0  0  0  0  0
   60.0925   31.5729   53.1608 H   0  0  0  0  0  0  0  0  0  0  0  0
   60.7324   33.2514   53.1608 H   0  0  0  0  0  0  0  0  0  0  0  0
   57.3178   32.2525   53.8109 H   0  0  0  0  0  0  0  0  0  0  0  0
   56.5573   32.8519   52.2979 H   0  0  0  0  0  0  0  0  0  0  0  0
   57.4507   31.2935   52.2979 H   0  0  0  0  0  0  0  0  0  0  0  0
   58.6810   30.5763   51.0335 H   0  0  0  0  0  0  0  0  0  0  0  0
   59.3490   30.0874   48.6902 H   0  0  0  0  0  0  0  0  0  0  0  0
   60.2163   32.7728   46.2306 H   0  0  0  0  0  0  0  0  0  0  0  0
   61.2800   31.4258   46.7656 H   0  0  0  0  0  0  0  0  0  0  0  0
   57.9851   32.1566   45.1071 H   0  0  0  0  0  0  0  0  0  0  0  0
   55.1470   28.5980   45.6230 H   0  0  0  0  0  0  0  0  0  0  0  0
   59.2514   27.2816   47.8183 H   0  0  0  0  0  0  0  0  0  0  0  0
   58.6798   24.8674   48.0794 H   0  0  0  0  0  0  0  0  0  0  0  0
   58.2873   20.1680   45.2940 H   0  0  0  0  0  0  0  0  0  0  0  0
   56.7594   20.6155   46.1777 H   0  0  0  0  0  0  0  0  0  0  0  0
   57.2718   20.3862   43.2096 H   0  0  0  0  0  0  0  0  0  0  0  0
   55.8725   19.8252   44.1976 H   0  0  0  0  0  0  0  0  0  0  0  0
   57.1020   22.6314   42.2771 H   0  0  0  0  0  0  0  0  0  0  0  0
   56.2687   23.7936   43.4152 H   0  0  0  0  0  0  0  0  0  0  0  0
   58.9024   22.4514   43.6510 H   0  0  0  0  0  0  0  0  0  0  0  0
   58.2629   23.9794   44.3994 H   0  0  0  0  0  0  0  0  0  0  0  0
   55.9607   25.1470   44.7235 H   0  0  0  0  0  0  0  0  0  0  0  0
   56.5240   27.5622   44.4643 H   0  0  0  0  0  0  0  0  0  0  0  0
   60.0120   29.1150   47.1790 H   0  0  0  0  0  0  0  0  0  0  0  0
   60.3479   34.2509   48.0912 H   0  0  0  0  0  0  0  0  0  0  0  0
   59.6894   34.7521   50.4324 H   0  0  0  0  0  0  0  0  0  0  0  0
  1  2  1  0
  2  3  1  0
  2  4  1  0
  2  5  1  0
  5  6  2  0
  6  7  1  0
  7  8  2  0
  8  9  1  0
  9 10  1  0
 10 11  1  0
 11 12  2  0
 12 13  1  0
 13 14  1  0
 13 15  2  0
 12 16  1  0
 16 17  1  0
 17 18  2  0
 18 19  1  0
 19 20  2  0
 20 21  1  0
 21 22  2  0
 21 23  2  0
 21 24  1  0
 24 25  1  0
 25 26  1  0
 26 27  1  0
 27 28  1  0
 28 29  1  0
 20 30  1  0
 30 31  2  0
 16 32  2  0
  8 33  1  0
 33 34  2  0
 34  5  1  0
 32 10  1  0
 31 17  1  0
 29 24  1  0
  1 35  1  0
  1 36  1  0
  1 37  1  0
  3 38  1  0
  3 39  1  0
  3 40  1  0
  4 41  1  0
  4 42  1  0
  4 43  1  0
  6 44  1  0
  7 45  1  0
  9 46  1  0
  9 47  1  0
 11 48  1  0
 14 49  1  0
 18 50  1  0
 19 51  1  0
 25 52  1  0
 25 53  1  0
 26 54  1  0
 26 55  1  0
 28 56  1  0
 28 57  1  0
 29 58  1  0
 29 59  1  0
 30 60  1  0
 31 61  1  0
 32 62  1  0
 33 63  1  0
 34 64  1  0
M  CHG  2  14  -1  32   1
M  END
>  <UniqueID>  (67) 
63

>  <SMILES>  (67) 
CC(C)(C)c1ccc(Cn2cc(C([NH-])=O)c(-c3ccc(S(=O)(=O)N4CCOCC4)cc3)[nH+]2)cc1

>  <Energy>  (67) 
112.66565883485507

>  <Genealogy>  (67) 
CC(C)(C)c1ccc(Cn2cc(C([NH-])=O)c(-c3ccc(S(=O)(=O)N4CCOCC4)cc3)[nH+]2)cc1 (protonated)
CC(C)(C)c1ccc(Cn2cc(C([NH-])=O)c(-c3ccc(S(=O)(=O)N4CCOCC4)cc3)[nH+]2)cc1 (3D coordinates assigned)
CC(C)(C)c1ccc(Cn2cc(C([NH-])=O)c(-c3ccc(S(=O)(=O)N4CCOCC4)cc3)[nH+]2)cc1 (nonaromatic ring conformer: 112.66565883485507 kcal/mol)

>  <smiles>  (67) 
CC(C)(C)c1ccc(Cn2cc(C(N)=O)c(-c3ccc(S(=O)(=O)N4CCOCC4)cc3)n2)cc1

>  <score_type>  (67) 
oracle

>  <origin>  (67) 
adg

>  <m_score__min__energy>  (67) 
-11.42

>  <m_primary>  (67) 
energy

$$$$
67:0
     RDKit          3D

 55 58  0  0  0  0  0  0  0  0999 V2000
   59.5490   26.9064   48.1150 H   0  0  0  0  0  0  0  0  0  0  0  0
   59.0510   26.3490   47.3080 C   0  0  0  0  0  0  0  0  0  0  0  0
   58.9342   25.2579   47.3840 H   0  0  0  0  0  0  0  0  0  0  0  0
   58.5860   27.0000   46.2310 C   0  0  0  0  0  0  0  0  0  0  0  0
   57.9300   26.4470   45.1180 C   0  0  0  0  0  0  0  0  0  0  0  0
   57.4420   25.2110   44.9020 C   0  0  0  0  0  0  0  0  0  0  0  0
   58.1524   24.4434   44.5612 H   0  0  0  0  0  0  0  0  0  0  0  0
   56.0410   24.7970   45.0820 C   0  0  0  0  0  0  0  0  0  0  0  0
   55.5830   23.5440   44.9040 N   0  0  0  0  0  0  0  0  0  0  0  0
   54.2990   23.6210   45.3170 C   0  0  0  0  0  0  0  0  0  0  0  0
   53.5180   22.6350   45.2890 O   0  0  0  0  0  0  0  0  0  0  0  0
   53.9210   24.8350   45.7710 N   0  0  0  0  0  0  0  0  0  0  0  0
   55.0400   25.5630   45.6290 C   0  0  0  0  0  0  0  0  0  0  0  0
   55.1460   26.8990   45.9970 O   0  0  0  0  0  0  0  0  0  0  0  0
   57.8290   27.4650   44.1830 C   0  0  0  0  0  0  0  0  0  0  0  0
   57.4102   27.3841   43.1690 H   0  0  0  0  0  0  0  0  0  0  0  0
   58.3540   28.5990   44.7670 C   0  0  0  0  0  0  0  0  0  0  0  0
   58.4500   29.9390   44.1040 C   0  0  0  0  0  0  0  0  0  0  0  0
   58.5063   30.7248   44.8717 H   0  0  0  0  0  0  0  0  0  0  0  0
   59.3529   29.9739   43.4767 H   0  0  0  0  0  0  0  0  0  0  0  0
   57.5612   30.1023   43.4767 H   0  0  0  0  0  0  0  0  0  0  0  0
   58.8050   28.3220   46.0090 N   0  0  0  0  0  0  0  0  0  0  0  0
   59.4850   29.2510   46.8680 C   0  0  0  0  0  0  0  0  0  0  0  0
   58.9100   29.6310   48.0870 C   0  0  0  0  0  0  0  0  0  0  0  0
   57.9443   29.2035   48.3947 H   0  0  0  0  0  0  0  0  0  0  0  0
   59.5590   30.5510   48.9130 C   0  0  0  0  0  0  0  0  0  0  0  0
   59.1058   30.8365   49.8738 H   0  0  0  0  0  0  0  0  0  0  0  0
   60.7870   31.1150   48.5260 C   0  0  0  0  0  0  0  0  0  0  0  0
   61.4660   32.1420   49.4150 C   0  0  0  0  0  0  0  0  0  0  0  0
   60.9361   32.1595   50.3788 H   0  0  0  0  0  0  0  0  0  0  0  0
   62.5170   31.8268   49.4932 H   0  0  0  0  0  0  0  0  0  0  0  0
   61.4940   33.5400   48.8780 N   0  0  2  0  0  0  0  0  0  0  0  0
   61.7540   33.4480   47.8660 H   0  0  0  0  0  0  0  0  0  0  0  0
   62.5360   34.4180   49.4480 C   0  0  0  0  0  0  0  0  0  0  0  0
   62.4886   34.3781   50.5463 H   0  0  0  0  0  0  0  0  0  0  0  0
   63.5264   34.0781   49.1111 H   0  0  0  0  0  0  0  0  0  0  0  0
   62.3690   35.4517   49.1111 H   0  0  0  0  0  0  0  0  0  0  0  0
   60.1590   34.1930   48.8530 C   0  0  0  0  0  0  0  0  0  0  0  0
   59.5211   33.6987   49.6005 H   0  0  0  0  0  0  0  0  0  0  0  0
   60.3288   35.2584   49.0679 H   0  0  0  0  0  0  0  0  0  0  0  0
   59.4530   34.1320   47.5150 C   0  0  0  0  0  0  0  0  0  0  0  0
   58.3060   33.3370   47.3450 C   0  0  0  0  0  0  0  0  0  0  0  0
   57.9265   32.7371   48.1853 H   0  0  0  0  0  0  0  0  0  0  0  0
   57.6450   33.3050   46.1130 C   0  0  0  0  0  0  0  0  0  0  0  0
   56.7595   32.6658   45.9817 H   0  0  0  0  0  0  0  0  0  0  0  0
   58.1070   34.0830   45.0490 C   0  0  0  0  0  0  0  0  0  0  0  0
   57.5906   34.0498   44.0783 H   0  0  0  0  0  0  0  0  0  0  0  0
   59.2260   34.9040   45.2180 C   0  0  0  0  0  0  0  0  0  0  0  0
   59.5826   35.5259   44.3837 H   0  0  0  0  0  0  0  0  0  0  0  0
   59.8920   34.9350   46.4470 C   0  0  0  0  0  0  0  0  0  0  0  0
   60.7647   35.5915   46.5794 H   0  0  0  0  0  0  0  0  0  0  0  0
   61.3640   30.7210   47.3080 C   0  0  0  0  0  0  0  0  0  0  0  0
   62.3333   31.1410   47.0014 H   0  0  0  0  0  0  0  0  0  0  0  0
   60.7150   29.7990   46.4830 C   0  0  0  0  0  0  0  0  0  0  0  0
   61.1719   29.5023   45.5274 H   0  0  0  0  0  0  0  0  0  0  0  0
  1  2  1  0
  2  3  1  0
  2  4  2  0
  4  5  1  0
  5  6  2  0
  6  7  1  0
  6  8  1  0
  8  9  1  0
  9 10  1  0
 10 11  2  0
 10 12  1  0
 12 13  1  0
 13 14  1  0
  5 15  1  0
 15 16  1  0
 15 17  2  0
 17 18  1  0
 18 19  1  0
 18 20  1  0
 18 21  1  0
 17 22  1  0
 22 23  1  0
 23 24  2  0
 24 25  1  0
 24 26  1  0
 26 27  1  0
 26 28  2  0
 28 29  1  0
 29 30  1  0
 29 31  1  0
 29 32  1  0
 32 33  1  6
 32 34  1  0
 34 35  1  0
 34 36  1  0
 34 37  1  0
 32 38  1  0
 38 39  1  0
 38 40  1  0
 38 41  1  0
 41 42  2  0
 42 43  1  0
 42 44  1  0
 44 45  1  0
 44 46  2  0
 46 47  1  0
 46 48  1  0
 48 49  1  0
 48 50  2  0
 50 51  1  0
 28 52  1  0
 52 53  1  0
 52 54  2  0
 54 55  1  0
 22  4  1  0
 54 23  1  0
 13  8  2  0
 50 41  1  0
M  CHG  4   9  -1  12  -1  14  -1  32   1
M  END
>  <UniqueID>  (68) 
64

>  <SMILES>  (68) 
C=c1/c(=C\c2[n-]c(=O)[n-]c2[O-])cc(C)n1-c1ccc(C[N@H+](C)Cc2ccccc2)cc1

>  <Energy>  (68) 
144.67890829297698

>  <Genealogy>  (68) 
C=c1c(=Cc2[n-]c(=O)[n-]c2[O-])cc(C)n1-c1ccc(C[NH+](C)Cc2ccccc2)cc1 (protonated)
C=c1c(=Cc2[n-]c(=O)[n-]c2[O-])cc(C)n1-c1ccc(C[N@H+](C)Cc2ccccc2)cc1 (chirality)
C=c1/c(=C\c2[n-]c(=O)[n-]c2[O-])cc(C)n1-c1ccc(C[N@H+](C)Cc2ccccc2)cc1 (cis-trans isomerization)
C=c1/c(=C\c2[n-]c(=O)[n-]c2[O-])cc(C)n1-c1ccc(C[N@H+](C)Cc2ccccc2)cc1 (3D coordinates assigned)
C=c1/c(=C\c2[n-]c(=O)[n-]c2[O-])cc(C)n1-c1ccc(C[N@H+](C)Cc2ccccc2)cc1 (optimized conformer: 144.67890829297698 kcal/mol)

>  <smiles>  (68) 
C=c1c(=Cc2[nH]c(=O)[nH]c2O)cc(C)n1-c1ccc(CN(C)Cc2ccccc2)cc1

>  <score_type>  (68) 
oracle

>  <origin>  (68) 
adg

>  <m_score__min__energy>  (68) 
-14.9

>  <m_primary>  (68) 
energy

$$$$
68:0
     RDKit          3D

 45 48  0  0  0  0  0  0  0  0999 V2000
   58.8029   30.7435   48.4850 H   0  0  0  0  0  0  0  0  0  0  0  0
   58.7760   30.0710   47.6150 C   0  0  0  0  0  0  0  0  0  0  0  0
   59.1094   29.0276   47.7159 H   0  0  0  0  0  0  0  0  0  0  0  0
   58.3360   30.5240   46.4290 C   0  0  0  0  0  0  0  0  0  0  0  0
   58.2390   29.8000   45.2290 C   0  0  0  0  0  0  0  0  0  0  0  0
   58.3930   28.4860   44.9690 C   0  0  0  0  0  0  0  0  0  0  0  0
   59.1880   28.2038   44.2630 H   0  0  0  0  0  0  0  0  0  0  0  0
   57.5880   27.3930   45.5490 C   0  0  0  0  0  0  0  0  0  0  0  0
   56.1870   27.4720   45.6080 C   0  0  0  0  0  0  0  0  0  0  0  0
   55.5190   28.6030   45.1530 O   0  0  0  0  0  0  0  0  0  0  0  0
   55.4710   26.4320   46.1090 N   0  0  0  0  0  0  0  0  0  0  0  0
   56.0860   25.3010   46.5410 C   0  0  0  0  0  0  0  0  0  0  0  0
   55.4020   24.3520   47.0050 O   0  0  0  0  0  0  0  0  0  0  0  0
   57.4380   25.1910   46.4680 N   0  0  0  0  0  0  0  0  0  0  0  0
   58.1980   26.2030   45.9760 C   0  0  0  0  0  0  0  0  0  0  0  0
   59.4490   26.0630   45.9160 O   0  0  0  0  0  0  0  0  0  0  0  0
   57.9150   30.7190   44.2460 C   0  0  0  0  0  0  0  0  0  0  0  0
   57.7886   30.5132   43.1729 H   0  0  0  0  0  0  0  0  0  0  0  0
   57.7810   31.9420   44.8690 C   0  0  0  0  0  0  0  0  0  0  0  0
   57.4160   33.2150   44.1670 C   0  0  0  0  0  0  0  0  0  0  0  0
   57.1928   33.9933   44.9116 H   0  0  0  0  0  0  0  0  0  0  0  0
   58.2570   33.5405   43.5371 H   0  0  0  0  0  0  0  0  0  0  0  0
   56.5303   33.0454   43.5371 H   0  0  0  0  0  0  0  0  0  0  0  0
   58.0140   31.8260   46.1960 N   0  0  0  0  0  0  0  0  0  0  0  0
   58.0210   32.9370   47.1600 C   0  0  0  0  0  0  0  0  0  0  0  0
   57.0768   33.4951   47.0764 H   0  0  0  0  0  0  0  0  0  0  0  0
   58.1299   32.5275   48.1751 H   0  0  0  0  0  0  0  0  0  0  0  0
   59.1920   33.8820   46.8780 C   0  0  0  0  0  0  0  0  0  0  0  0
   59.6903   33.5732   45.9472 H   0  0  0  0  0  0  0  0  0  0  0  0
   58.8058   34.9072   46.7794 H   0  0  0  0  0  0  0  0  0  0  0  0
   60.1810   33.8430   48.0030 C   0  0  0  0  0  0  0  0  0  0  0  0
   59.9380   34.1710   49.3330 C   0  0  0  0  0  0  0  0  0  0  0  0
   58.9560   34.4523   49.7410 H   0  0  0  0  0  0  0  0  0  0  0  0
   61.0800   34.0950   50.0530 N   0  0  0  0  0  0  0  0  0  0  0  0
   61.1900   34.2940   51.0740 H   0  0  0  0  0  0  0  0  0  0  0  0
   62.0430   33.7370   49.1870 C   0  0  0  0  0  0  0  0  0  0  0  0
   63.3990   33.5540   49.4580 C   0  0  0  0  0  0  0  0  0  0  0  0
   63.7968   33.6839   50.4753 H   0  0  0  0  0  0  0  0  0  0  0  0
   64.2420   33.1980   48.3890 C   0  0  0  0  0  0  0  0  0  0  0  0
   65.3160   33.0418   48.5682 H   0  0  0  0  0  0  0  0  0  0  0  0
   63.7170   33.0400   47.0870 C   0  0  0  0  0  0  0  0  0  0  0  0
   64.3857   32.7633   46.2586 H   0  0  0  0  0  0  0  0  0  0  0  0
   62.3450   33.2340   46.8420 C   0  0  0  0  0  0  0  0  0  0  0  0
   61.9261   33.1175   45.8316 H   0  0  0  0  0  0  0  0  0  0  0  0
   61.5340   33.5790   47.9230 C   0  0  0  0  0  0  0  0  0  0  0  0
  1  2  1  0
  2  3  1  0
  2  4  2  0
  4  5  1  0
  5  6  2  0
  6  7  1  0
  6  8  1  0
  8  9  2  0
  9 10  1  0
  9 11  1  0
 11 12  1  0
 12 13  2  0
 12 14  1  0
 14 15  1  0
 15 16  2  0
  5 17  1  0
 17 18  1  0
 17 19  2  0
 19 20  1  0
 20 21  1  0
 20 22  1  0
 20 23  1  0
 19 24  1  0
 24 25  1  0
 25 26  1  0
 25 27  1  0
 25 28  1  0
 28 29  1  0
 28 30  1  0
 28 31  1  0
 31 32  2  0
 32 33  1  0
 32 34  1  0
 34 35  1  0
 34 36  1  0
 36 37  2  0
 37 38  1  0
 37 39  1  0
 39 40  1  0
 39 41  2  0
 41 42  1  0
 41 43  1  0
 43 44  1  0
 43 45  2  0
 24  4  1  0
 45 31  1  0
 15  8  1  0
 45 36  1  0
M  CHG  3  10  -1  11  -1  14  -1
M  END
>  <UniqueID>  (69) 
65

>  <SMILES>  (69) 
C=c1/c(=C\c2c([O-])[n-]c(=O)[n-]c2=O)cc(C)n1CCc1c[nH]c2ccccc12

>  <Energy>  (69) 
120.9796672070883

>  <Genealogy>  (69) 
C=c1c(=Cc2c([O-])[n-]c(=O)[n-]c2=O)cc(C)n1CCc1c[nH]c2ccccc12 (protonated)
C=c1/c(=C\c2c([O-])[n-]c(=O)[n-]c2=O)cc(C)n1CCc1c[nH]c2ccccc12 (cis-trans isomerization)
C=c1/c(=C\c2c([O-])[n-]c(=O)[n-]c2=O)cc(C)n1CCc1c[nH]c2ccccc12 (3D coordinates assigned)
C=c1/c(=C\c2c([O-])[n-]c(=O)[n-]c2=O)cc(C)n1CCc1c[nH]c2ccccc12 (optimized conformer: 120.9796672070883 kcal/mol)

>  <smiles>  (69) 
C=c1c(=Cc2c(O)[nH]c(=O)[nH]c2=O)cc(C)n1CCc1c[nH]c2ccccc12

>  <score_type>  (69) 
oracle

>  <origin>  (69) 
adg

>  <m_score__min__energy>  (69) 
-16.91

>  <m_primary>  (69) 
energy

$$$$
69:0
     RDKit          3D

 37 39  0  0  0  0  0  0  0  0999 V2000
   55.4760   26.4770   45.9910 N   0  0  0  0  0  0  0  0  0  0  0  0
   57.1940   26.5370   45.8270 S   0  0  0  0  0  0  0  0  0  0  0  0
   57.5920   25.8800   44.5340 O   0  0  0  0  0  0  0  0  0  0  0  0
   57.8360   25.7930   46.9640 O   0  0  0  0  0  0  0  0  0  0  0  0
   57.7280   28.2140   45.8400 C   0  0  0  0  0  0  0  0  0  0  0  0
   57.7870   28.9520   44.6490 C   0  0  0  0  0  0  0  0  0  0  0  0
   58.2060   30.2850   44.6690 C   0  0  0  0  0  0  0  0  0  0  0  0
   58.5660   30.8950   45.8800 C   0  0  0  0  0  0  0  0  0  0  0  0
   58.9970   32.2710   45.9010 N   0  0  0  0  0  0  0  0  0  0  0  0
   60.0820   32.6730   46.6520 C   0  0  0  0  0  0  0  0  0  0  0  0
   60.9530   31.7120   47.3800 C   0  0  0  0  0  0  0  0  0  0  0  0
   61.6820   30.9080   46.7390 O   0  0  0  0  0  0  0  0  0  0  0  0
   60.9110   31.6750   48.8170 N   0  0  0  0  0  0  0  0  0  0  0  0
   59.8860   31.5240   49.6110 C   0  0  0  0  0  0  0  0  0  0  0  0
   59.0850   32.6000   50.0510 C   0  0  0  0  0  0  0  0  0  0  0  0
   58.0010   32.3480   50.8940 C   0  0  0  0  0  0  0  0  0  0  0  0
   57.7090   31.0410   51.2880 C   0  0  0  0  0  0  0  0  0  0  0  0
   56.2260   30.6850   52.4360 Br  0  0  0  0  0  0  0  0  0  0  0  0
   58.5080   29.9970   50.8200 C   0  0  0  0  0  0  0  0  0  0  0  0
   59.5600   30.2610   50.0010 N   0  0  0  0  0  0  0  0  0  0  0  0
   60.4090   34.0350   46.7150 C   0  0  0  0  0  0  0  0  0  0  0  0
   59.6460   34.9490   45.9970 C   0  0  0  0  0  0  0  0  0  0  0  0
   59.9280   36.1750   46.0270 O   0  0  0  0  0  0  0  0  0  0  0  0
   58.5980   34.5170   45.2580 N   0  0  0  0  0  0  0  0  0  0  0  0
   58.2650   33.2020   45.2050 C   0  0  0  0  0  0  0  0  0  0  0  0
   57.2660   32.8540   44.5170 O   0  0  0  0  0  0  0  0  0  0  0  0
   58.4950   30.1590   47.0720 C   0  0  0  0  0  0  0  0  0  0  0  0
   58.0780   28.8250   47.0520 C   0  0  0  0  0  0  0  0  0  0  0  0
   55.1400   27.4650   46.0500 H   0  0  0  0  0  0  0  0  0  0  0  0
   57.5028   28.4805   43.6967 H   0  0  0  0  0  0  0  0  0  0  0  0
   58.2537   30.8583   43.7314 H   0  0  0  0  0  0  0  0  0  0  0  0
   59.3129   33.6279   49.7325 H   0  0  0  0  0  0  0  0  0  0  0  0
   57.3759   33.1809   51.2484 H   0  0  0  0  0  0  0  0  0  0  0  0
   58.2864   28.9604   51.1139 H   0  0  0  0  0  0  0  0  0  0  0  0
   61.2586   34.3761   47.3248 H   0  0  0  0  0  0  0  0  0  0  0  0
   58.7685   30.6334   48.0260 H   0  0  0  0  0  0  0  0  0  0  0  0
   58.0244   28.2531   47.9901 H   0  0  0  0  0  0  0  0  0  0  0  0
  1  2  1  0
  2  3  2  0
  2  4  2  0
  2  5  1  0
  5  6  2  0
  6  7  1  0
  7  8  2  0
  8  9  1  0
  9 10  1  0
 10 11  1  0
 11 12  2  0
 11 13  1  0
 13 14  2  3
 14 15  1  0
 15 16  2  0
 16 17  1  0
 17 18  1  0
 17 19  2  0
 19 20  1  0
 10 21  2  0
 21 22  1  0
 22 23  2  0
 22 24  1  0
 24 25  1  0
 25 26  2  0
  8 27  1  0
 27 28  2  0
 28  5  1  0
 25  9  1  0
 20 14  1  0
  1 29  1  0
  6 30  1  0
  7 31  1  0
 15 32  1  0
 16 33  1  0
 19 34  1  0
 21 35  1  0
 27 36  1  0
 28 37  1  0
M  CHG  3   1  -1  20  -1  24  -1
M  END
>  <UniqueID>  (70) 
66

>  <SMILES>  (70) 
[NH-]S(=O)(=O)c1ccc(-n2c(C(=O)N=c3ccc(Br)c[n-]3)cc(=O)[n-]c2=O)cc1

>  <Energy>  (70) 
62.98449225389814

>  <Genealogy>  (70) 
[NH-]S(=O)(=O)c1ccc(-n2c(C(=O)N=c3ccc(Br)c[n-]3)cc(=O)[n-]c2=O)cc1 (protonated)
[NH-]S(=O)(=O)c1ccc(-n2c(C(=O)N=c3ccc(Br)c[n-]3)cc(=O)[n-]c2=O)cc1 (3D coordinates assigned)
[NH-]S(=O)(=O)c1ccc(-n2c(C(=O)N=c3ccc(Br)c[n-]3)cc(=O)[n-]c2=O)cc1 (optimized conformer: 62.98449225389814 kcal/mol)

>  <smiles>  (70) 
NS(=O)(=O)c1ccc(-n2c(C(=O)N=c3ccc(Br)c[nH]3)cc(=O)[nH]c2=O)cc1

>  <score_type>  (70) 
oracle

>  <origin>  (70) 
adg

>  <m_score__min__energy>  (70) 
-13.039999999999999

>  <m_primary>  (70) 
energy

$$$$
70:0
     RDKit          3D

 44 46  0  0  0  0  0  0  0  0999 V2000
   49.2624   33.7409   52.9148 H   0  0  0  0  0  0  0  0  0  0  0  0
   50.0890   33.0260   52.7900 C   0  0  0  0  0  0  0  0  0  0  0  0
   50.6510   32.7170   51.6390 O   0  0  0  0  0  0  0  0  0  0  0  0
   51.5960   31.8380   51.8680 C   0  0  0  0  0  0  0  0  0  0  0  0
   52.4080   31.2910   50.8820 O   0  0  0  0  0  0  0  0  0  0  0  0
   51.6600   31.5490   53.2090 C   0  0  0  0  0  0  0  0  0  0  0  0
   52.5950   30.6470   53.8140 N   0  0  0  0  0  0  0  0  0  0  0  0
   52.9050   29.3170   53.3810 C   0  0  0  0  0  0  0  0  0  0  0  0
   52.3240   28.8060   52.3860 O   0  0  0  0  0  0  0  0  0  0  0  0
   53.9280   28.5210   54.1270 C   0  0  0  0  0  0  0  0  0  0  0  0
   53.5163   27.5273   54.3572 H   0  0  0  0  0  0  0  0  0  0  0  0
   54.1823   29.0506   55.0570 H   0  0  0  0  0  0  0  0  0  0  0  0
   55.1680   28.3620   53.3060 C   0  0  0  0  0  0  0  0  0  0  0  0
   55.9520   27.4020   53.5450 O   0  0  0  0  0  0  0  0  0  0  0  0
   55.4450   29.3030   52.2560 N   0  0  0  0  0  0  0  0  0  0  0  0
   56.3380   30.2470   52.2920 C   0  0  0  0  0  0  0  0  0  0  0  0
   57.0930   30.6220   51.2370 N   0  0  0  0  0  0  0  0  0  0  0  0
   57.9310   31.6500   51.5470 C   0  0  0  0  0  0  0  0  0  0  0  0
   58.8350   32.2210   50.5230 C   0  0  0  0  0  0  0  0  0  0  0  0
   60.1060   32.7120   50.8610 C   0  0  0  0  0  0  0  0  0  0  0  0
   60.4550   32.6542   51.9026 H   0  0  0  0  0  0  0  0  0  0  0  0
   60.9310   33.2740   49.8820 C   0  0  0  0  0  0  0  0  0  0  0  0
   61.9295   33.6445   50.1572 H   0  0  0  0  0  0  0  0  0  0  0  0
   60.4970   33.3690   48.5550 C   0  0  0  0  0  0  0  0  0  0  0  0
   61.3740   33.9580   47.5860 N   0  0  0  0  0  0  0  0  0  0  0  0
   63.0390   33.5360   47.3580 S   0  0  0  0  0  0  0  0  0  0  0  0
   63.8820   34.1850   48.4200 O   0  0  0  0  0  0  0  0  0  0  0  0
   63.4970   33.9810   45.9980 O   0  0  0  0  0  0  0  0  0  0  0  0
   63.2090   31.7700   47.4790 C   0  0  0  0  0  0  0  0  0  0  0  0
   63.2373   31.4761   48.5386 H   0  0  0  0  0  0  0  0  0  0  0  0
   62.3534   31.2847   46.9866 H   0  0  0  0  0  0  0  0  0  0  0  0
   64.1414   31.4568   46.9866 H   0  0  0  0  0  0  0  0  0  0  0  0
   59.2170   32.8950   48.2170 C   0  0  0  0  0  0  0  0  0  0  0  0
   58.8632   32.9676   47.1780 H   0  0  0  0  0  0  0  0  0  0  0  0
   58.3920   32.3320   49.1950 C   0  0  0  0  0  0  0  0  0  0  0  0
   57.3885   31.9733   48.9224 H   0  0  0  0  0  0  0  0  0  0  0  0
   57.8500   32.0720   52.8850 C   0  0  0  0  0  0  0  0  0  0  0  0
   58.6460   33.1460   53.5580 C   0  0  0  0  0  0  0  0  0  0  0  0
   58.5633   33.0345   54.6492 H   0  0  0  0  0  0  0  0  0  0  0  0
   59.7014   33.0617   53.2597 H   0  0  0  0  0  0  0  0  0  0  0  0
   58.2583   34.1312   53.2597 H   0  0  0  0  0  0  0  0  0  0  0  0
   56.6700   31.1540   53.6620 S   0  0  0  0  0  0  0  0  0  0  0  0
   50.6890   32.3210   53.8200 C   0  0  0  0  0  0  0  0  0  0  0  0
   50.4458   32.3655   54.8919 H   0  0  0  0  0  0  0  0  0  0  0  0
  1  2  1  0
  2  3  1  0
  3  4  1  0
  4  5  1  0
  4  6  2  0
  6  7  1  0
  7  8  1  0
  8  9  2  0
  8 10  1  0
 10 11  1  0
 10 12  1  0
 10 13  1  0
 13 14  2  0
 13 15  1  0
 15 16  2  0
 16 17  1  0
 17 18  1  0
 18 19  1  0
 19 20  2  0
 20 21  1  0
 20 22  1  0
 22 23  1  0
 22 24  2  0
 24 25  1  0
 25 26  1  0
 26 27  2  0
 26 28  2  0
 26 29  1  0
 29 30  1  0
 29 31  1  0
 29 32  1  0
 24 33  1  0
 33 34  1  0
 33 35  2  0
 35 36  1  0
 18 37  2  0
 37 38  1  0
 38 39  1  0
 38 40  1  0
 38 41  1  0
 37 42  1  0
  6 43  1  0
 43 44  1  0
 43  2  2  0
 42 16  1  0
 35 19  1  0
M  CHG  4   5  -1   7  -1  17  -1  25  -1
M  END
>  <UniqueID>  (71) 
67

>  <SMILES>  (71) 
Cc1s/c(=N/C(=O)CC(=O)[N-]c2ccoc2[O-])[n-]c1-c1ccc([N-]S(C)(=O)=O)cc1

>  <Energy>  (71) 
108.42974022997718

>  <Genealogy>  (71) 
Cc1sc(=NC(=O)CC(=O)[N-]c2ccoc2[O-])[n-]c1-c1ccc([N-]S(C)(=O)=O)cc1 (protonated)
Cc1s/c(=N/C(=O)CC(=O)[N-]c2ccoc2[O-])[n-]c1-c1ccc([N-]S(C)(=O)=O)cc1 (cis-trans isomerization)
Cc1s/c(=N/C(=O)CC(=O)[N-]c2ccoc2[O-])[n-]c1-c1ccc([N-]S(C)(=O)=O)cc1 (3D coordinates assigned)
Cc1s/c(=N/C(=O)CC(=O)[N-]c2ccoc2[O-])[n-]c1-c1ccc([N-]S(C)(=O)=O)cc1 (optimized conformer: 108.42974022997718 kcal/mol)

>  <smiles>  (71) 
Cc1sc(=NC(=O)CC(=O)Nc2ccoc2O)[nH]c1-c1ccc(NS(C)(=O)=O)cc1

>  <score_type>  (71) 
oracle

>  <origin>  (71) 
adg

>  <m_score__min__energy>  (71) 
-15.43

>  <m_primary>  (71) 
energy

$$$$
71:0
     RDKit          3D

 58 62  0  0  0  0  0  0  0  0999 V2000
   59.6830   28.5900   52.1730 C   0  0  0  0  0  0  0  0  0  0  0  0
   59.8010   29.2180   50.8560 N   0  0  0  0  0  0  0  0  0  0  0  0
   60.1410   28.5590   49.7180 C   0  0  0  0  0  0  0  0  0  0  0  0
   60.3320   27.3130   49.6680 O   0  0  0  0  0  0  0  0  0  0  0  0
   60.2750   29.3700   48.6440 N   0  0  0  0  0  0  0  0  0  0  0  0
   60.6940   28.9780   47.2930 C   0  0  0  0  0  0  0  0  0  0  0  0
   59.5260   29.0080   46.3410 C   0  0  0  0  0  0  0  0  0  0  0  0
   59.4740   29.9580   45.3050 C   0  0  0  0  0  0  0  0  0  0  0  0
   58.3840   29.9890   44.4300 C   0  0  0  0  0  0  0  0  0  0  0  0
   57.3350   29.0810   44.5850 C   0  0  0  0  0  0  0  0  0  0  0  0
   57.3700   28.1430   45.6200 C   0  0  0  0  0  0  0  0  0  0  0  0
   58.4580   28.1080   46.4990 C   0  0  0  0  0  0  0  0  0  0  0  0
   60.0220   30.6030   49.1340 C   0  0  0  0  0  0  0  0  0  0  0  0
   60.0440   31.8290   48.4850 C   0  0  0  0  0  0  0  0  0  0  0  0
   60.3020   31.8950   47.2530 O   0  0  0  0  0  0  0  0  0  0  0  0
   59.7770   32.9620   49.2120 N   0  0  0  0  0  0  0  0  0  0  0  0
   59.7440   34.2730   48.5290 C   0  0  0  0  0  0  0  0  0  0  0  0
   58.9880   34.1670   47.2290 C   0  0  0  0  0  0  0  0  0  0  0  0
   57.7390   33.5240   47.1840 C   0  0  0  0  0  0  0  0  0  0  0  0
   57.0200   33.4630   45.9860 C   0  0  0  0  0  0  0  0  0  0  0  0
   57.5410   34.0450   44.8260 C   0  0  0  0  0  0  0  0  0  0  0  0
   58.7800   34.6870   44.8630 C   0  0  0  0  0  0  0  0  0  0  0  0
   59.5020   34.7500   46.0590 C   0  0  0  0  0  0  0  0  0  0  0  0
   59.4800   32.8720   50.5600 C   0  0  0  0  0  0  0  0  0  0  0  0
   59.2270   33.9290   51.2060 O   0  0  0  0  0  0  0  0  0  0  0  0
   59.4340   31.6480   51.2090 N   0  0  0  0  0  0  0  0  0  0  0  0
   59.0330   31.6010   52.6310 C   0  0  0  0  0  0  0  0  0  0  0  0
   57.6300   31.0640   52.8470 C   0  0  0  0  0  0  0  0  0  0  0  0
   56.6580   31.3430   51.8670 C   0  0  0  0  0  0  0  0  0  0  0  0
   55.3570   30.8460   51.9890 C   0  0  0  0  0  0  0  0  0  0  0  0
   55.0140   30.0450   53.0780 C   0  0  0  0  0  0  0  0  0  0  0  0
   55.9740   29.7300   54.0410 C   0  0  0  0  0  0  0  0  0  0  0  0
   57.2780   30.2230   53.9290 C   0  0  0  0  0  0  0  0  0  0  0  0
   58.1790   29.8650   54.8760 F   0  0  0  0  0  0  0  0  0  0  0  0
   59.7270   30.5250   50.4690 C   0  0  0  0  0  0  0  0  0  0  0  0
   59.8257   29.3497   52.9556 H   0  0  0  0  0  0  0  0  0  0  0  0
   58.6846   28.1400   52.2765 H   0  0  0  0  0  0  0  0  0  0  0  0
   60.4500   27.8083   52.2765 H   0  0  0  0  0  0  0  0  0  0  0  0
   61.4666   29.6760   46.9382 H   0  0  0  0  0  0  0  0  0  0  0  0
   61.0922   27.9533   47.3306 H   0  0  0  0  0  0  0  0  0  0  0  0
   60.2948   30.6800   45.1827 H   0  0  0  0  0  0  0  0  0  0  0  0
   58.3529   30.7303   43.6179 H   0  0  0  0  0  0  0  0  0  0  0  0
   56.4808   29.1040   43.8923 H   0  0  0  0  0  0  0  0  0  0  0  0
   56.5408   27.4309   45.7440 H   0  0  0  0  0  0  0  0  0  0  0  0
   58.4776   27.3730   47.3172 H   0  0  0  0  0  0  0  0  0  0  0  0
   59.2470   35.0083   49.1789 H   0  0  0  0  0  0  0  0  0  0  0  0
   60.7752   34.5926   48.3181 H   0  0  0  0  0  0  0  0  0  0  0  0
   57.3253   33.0668   48.0949 H   0  0  0  0  0  0  0  0  0  0  0  0
   56.0438   32.9568   45.9561 H   0  0  0  0  0  0  0  0  0  0  0  0
   56.9744   33.9969   43.8844 H   0  0  0  0  0  0  0  0  0  0  0  0
   59.1891   35.1441   43.9499 H   0  0  0  0  0  0  0  0  0  0  0  0
   60.4771   35.2585   46.0836 H   0  0  0  0  0  0  0  0  0  0  0  0
   59.7403   30.9543   53.1710 H   0  0  0  0  0  0  0  0  0  0  0  0
   59.0446   32.6355   53.0048 H   0  0  0  0  0  0  0  0  0  0  0  0
   56.9254   31.9589   50.9957 H   0  0  0  0  0  0  0  0  0  0  0  0
   54.6030   31.0870   51.2252 H   0  0  0  0  0  0  0  0  0  0  0  0
   53.9877   29.6618   53.1779 H   0  0  0  0  0  0  0  0  0  0  0  0
   55.7032   29.0898   54.8936 H   0  0  0  0  0  0  0  0  0  0  0  0
  1  2  1  0
  2  3  1  0
  3  4  2  0
  3  5  1  0
  5  6  1  0
  6  7  1  0
  7  8  2  0
  8  9  1  0
  9 10  2  0
 10 11  1  0
 11 12  2  0
  5 13  1  0
 13 14  1  0
 14 15  2  0
 14 16  1  0
 16 17  1  0
 17 18  1  0
 18 19  2  0
 19 20  1  0
 20 21  2  0
 21 22  1  0
 22 23  2  0
 16 24  1  0
 24 25  2  0
 24 26  1  0
 26 27  1  0
 27 28  1  0
 28 29  2  0
 29 30  1  0
 30 31  2  0
 31 32  1  0
 32 33  2  0
 33 34  1  0
 26 35  1  0
 35  2  1  0
 12  7  1  0
 35 13  2  0
 23 18  1  0
 33 28  1  0
  1 36  1  0
  1 37  1  0
  1 38  1  0
  6 39  1  0
  6 40  1  0
  8 41  1  0
  9 42  1  0
 10 43  1  0
 11 44  1  0
 12 45  1  0
 17 46  1  0
 17 47  1  0
 19 48  1  0
 20 49  1  0
 21 50  1  0
 22 51  1  0
 23 52  1  0
 27 53  1  0
 27 54  1  0
 29 55  1  0
 30 56  1  0
 31 57  1  0
 32 58  1  0
M  END
>  <UniqueID>  (72) 
68

>  <SMILES>  (72) 
Cn1c(=O)n(Cc2ccccc2)c2c(=O)n(Cc3ccccc3)c(=O)n(Cc3ccccc3F)c21

>  <Energy>  (72) 
121.70394928600682

>  <Genealogy>  (72) 
Cn1c(=O)n(Cc2ccccc2)c2c(=O)n(Cc3ccccc3)c(=O)n(Cc3ccccc3F)c21 (3D coordinates assigned)
Cn1c(=O)n(Cc2ccccc2)c2c(=O)n(Cc3ccccc3)c(=O)n(Cc3ccccc3F)c21 (optimized conformer: 121.70394928600682 kcal/mol)

>  <smiles>  (72) 
Cn1c(=O)n(Cc2ccccc2)c2c(=O)n(Cc3ccccc3)c(=O)n(Cc3ccccc3F)c21

>  <score_type>  (72) 
oracle

>  <origin>  (72) 
adg

>  <m_score__min__energy>  (72) 
-8.1699999999999999

>  <m_primary>  (72) 
energy

$$$$
72:0
     RDKit          3D

 50 54  0  0  1  0  0  0  0  0999 V2000
   57.2210   29.6910   51.6790 O   0  0  0  0  0  0  0  0  0  0  0  0
   56.7980   30.8670   51.6220 C   0  0  0  0  0  0  0  0  0  0  0  0
   57.4180   31.8560   50.8480 N   0  0  0  0  0  0  0  0  0  0  0  0
   58.5620   31.7050   50.0430 C   0  0  0  0  0  0  0  0  0  0  0  0
   59.4820   32.6880   49.7680 C   0  0  0  0  0  0  0  0  0  0  0  0
   60.6000   32.4640   48.9560 C   0  0  0  0  0  0  0  0  0  0  0  0
   60.8280   31.2280   48.3890 C   0  0  0  0  0  0  0  0  0  0  0  0
   59.9050   30.2410   48.6650 C   0  0  0  0  0  0  0  0  0  0  0  0
   60.0980   28.9500   48.1040 N   0  0  0  0  0  0  0  0  0  0  0  0
   59.2500   28.5340   47.2120 C   0  0  0  0  0  0  0  0  0  0  0  0
   59.2790   27.2350   46.8150 N   0  0  0  0  0  0  0  0  0  0  0  0
   58.4160   26.7630   45.8900 C   0  0  0  0  0  0  0  0  0  0  0  0
   57.4880   27.6280   45.3420 C   0  0  0  0  0  0  0  0  0  0  0  0
   57.4640   28.9500   45.7510 C   0  0  0  0  0  0  0  0  0  0  0  0
   56.5900   29.7140   45.2190 N   0  0  0  0  0  0  0  0  0  0  0  0
   57.0360   30.6930   44.2850 C   0  0  0  0  0  0  0  0  0  0  0  0
   56.9340   30.5750   42.9360 C   0  0  0  0  0  0  0  0  0  0  0  0
   57.3940   31.5790   42.0830 C   0  0  0  0  0  0  0  0  0  0  0  0
   57.9660   32.7110   42.6710 C   0  0  0  0  0  0  0  0  0  0  0  0
   58.0760   32.8450   44.0380 C   0  0  0  0  0  0  0  0  0  0  0  0
   58.6410   33.9630   44.6210 C   0  0  0  0  0  0  0  0  0  0  0  0
   58.7530   34.0990   45.9960 C   0  0  0  0  0  0  0  0  0  0  0  0
   58.2700   33.0530   46.7810 C   0  0  0  0  0  0  0  0  0  0  0  0
   57.7230   31.9710   46.1950 N   0  0  0  0  0  0  0  0  0  0  0  0
   57.6130   31.8380   44.8450 C   0  0  0  0  0  0  0  0  0  0  0  0
   58.3500   29.3780   46.6830 N   0  0  0  0  0  0  0  0  0  0  0  0
   58.8100   30.4650   49.4620 C   0  0  0  0  0  0  0  0  0  0  0  0
   55.5880   31.1890   52.4220 C   0  0  0  0  0  0  0  0  0  0  0  0
   54.8770   29.9210   52.9140 C   0  0  0  0  0  0  0  0  0  0  0  0
   54.2290   30.8760   51.9820 C   0  0  0  0  0  0  0  0  0  0  0  0
   56.9790   32.8110   50.8740 H   0  0  0  0  0  0  0  0  0  0  0  0
   59.3344   33.6879   50.2020 H   0  0  0  0  0  0  0  0  0  0  0  0
   61.3067   33.2857   48.7676 H   0  0  0  0  0  0  0  0  0  0  0  0
   61.7021   31.0386   47.7487 H   0  0  0  0  0  0  0  0  0  0  0  0
   59.9600   26.5430   47.1970 H   0  0  0  0  0  0  0  0  0  0  0  0
   58.4510   25.7087   45.5782 H   0  0  0  0  0  0  0  0  0  0  0  0
   56.7738   27.2686   44.5865 H   0  0  0  0  0  0  0  0  0  0  0  0
   56.4796   29.6697   42.5070 H   0  0  0  0  0  0  0  0  0  0  0  0
   57.3098   31.4834   40.9904 H   0  0  0  0  0  0  0  0  0  0  0  0
   58.3391   33.5182   42.0236 H   0  0  0  0  0  0  0  0  0  0  0  0
   59.0137   34.7706   43.9737 H   0  0  0  0  0  0  0  0  0  0  0  0
   59.2039   34.9944   46.4486 H   0  0  0  0  0  0  0  0  0  0  0  0
   58.3356   33.1115   47.8775 H   0  0  0  0  0  0  0  0  0  0  0  0
   58.3240   30.3650   46.9800 H   0  0  0  0  0  0  0  0  0  0  0  0
   58.1072   29.6393   49.6470 H   0  0  0  0  0  0  0  0  0  0  0  0
   56.0185   32.1247   52.8082 H   0  0  0  0  0  0  0  0  0  0  0  0
   55.1988   28.9306   52.5598 H   0  0  0  0  0  0  0  0  0  0  0  0
   54.6314   29.4825   53.8925 H   0  0  0  0  0  0  0  0  0  0  0  0
   54.0522   30.5790   50.9377 H   0  0  0  0  0  0  0  0  0  0  0  0
   53.2778   31.4282   51.9979 H   0  0  0  0  0  0  0  0  0  0  0  0
  1  2  2  0
  2  3  1  0
  3  4  1  0
  4  5  2  0
  5  6  1  0
  6  7  2  0
  7  8  1  0
  8  9  1  0
  9 10  2  0
 10 11  1  0
 11 12  1  0
 12 13  2  0
 13 14  1  0
 14 15  2  0
 15 16  1  0
 16 17  2  0
 17 18  1  0
 18 19  2  0
 19 20  1  0
 20 21  2  0
 21 22  1  0
 22 23  2  0
 23 24  1  0
 24 25  2  0
 14 26  1  0
  8 27  2  0
  2 28  1  0
 28 29  1  0
 29 30  1  0
 27  4  1  0
 30 28  1  0
 26 10  1  0
 25 16  1  0
 25 20  1  0
  3 31  1  0
  5 32  1  0
  6 33  1  0
  7 34  1  0
 11 35  1  0
 12 36  1  0
 13 37  1  0
 17 38  1  0
 18 39  1  0
 19 40  1  0
 21 41  1  0
 22 42  1  0
 23 43  1  0
 26 44  1  0
 27 45  1  0
 28 46  1  0
 29 47  1  0
 29 48  1  0
 30 49  1  0
 30 50  1  0
M  END
>  <smiles>  (73) 
O=C(Nc1cccc(N=c2[nH]ccc(=Nc3cccc4cccnc34)[nH]2)c1)C1CC1

>  <score_type>  (73) 
oracle

>  <origin>  (73) 
adg

>  <m_score__min__energy>  (73) 
-9.2100000000000009

>  <m_primary>  (73) 
energy

$$$$
73:0
     RDKit          3D

 39 41  0  0  0  0  0  0  0  0999 V2000
   56.5280   24.8060   44.4570 N   0  0  0  0  0  0  0  0  0  0  0  0
   56.5280   25.8950   45.8010 S   0  0  0  0  0  0  0  0  0  0  0  0
   55.1450   26.4500   45.9990 O   0  0  0  0  0  0  0  0  0  0  0  0
   56.9340   25.1580   47.0470 O   0  0  0  0  0  0  0  0  0  0  0  0
   57.6520   27.2130   45.4870 C   0  0  0  0  0  0  0  0  0  0  0  0
   59.0350   26.9850   45.4990 C   0  0  0  0  0  0  0  0  0  0  0  0
   59.9210   28.0330   45.2340 C   0  0  0  0  0  0  0  0  0  0  0  0
   59.4310   29.3110   44.9490 C   0  0  0  0  0  0  0  0  0  0  0  0
   58.0490   29.5470   44.9350 C   0  0  0  0  0  0  0  0  0  0  0  0
   57.4220   31.1430   44.5450 S   0  0  0  0  0  0  0  0  0  0  0  0
   55.9360   31.1910   44.7650 O   0  0  0  0  0  0  0  0  0  0  0  0
   57.6970   31.4560   43.1010 O   0  0  0  0  0  0  0  0  0  0  0  0
   58.1960   32.3190   45.5520 N   0  0  0  0  0  0  0  0  0  0  0  0
   58.8170   32.0290   46.8320 C   0  0  0  0  0  0  0  0  0  0  0  0
   59.1080   33.4180   47.4700 C   0  0  1  0  0  0  0  0  0  0  0  0
   60.5880   33.6520   47.6700 C   0  0  0  0  0  0  0  0  0  0  0  0
   61.4870   33.5270   46.5950 C   0  0  0  0  0  0  0  0  0  0  0  0
   62.8570   33.7210   46.7940 C   0  0  0  0  0  0  0  0  0  0  0  0
   63.3420   34.0360   48.0650 C   0  0  0  0  0  0  0  0  0  0  0  0
   62.4590   34.1540   49.1410 C   0  0  0  0  0  0  0  0  0  0  0  0
   61.0870   33.9600   48.9470 C   0  0  0  0  0  0  0  0  0  0  0  0
   58.5560   34.4170   46.5550 N   0  0  0  0  0  0  0  0  0  0  0  0
   58.0230   33.7140   45.4550 C   0  0  0  0  0  0  0  0  0  0  0  0
   57.4430   34.2800   44.4920 O   0  0  0  0  0  0  0  0  0  0  0  0
   57.1630   28.4920   45.1950 C   0  0  0  0  0  0  0  0  0  0  0  0
   56.4040   25.3840   43.5950 H   0  0  0  0  0  0  0  0  0  0  0  0
   57.4820   24.3850   44.4040 H   0  0  0  0  0  0  0  0  0  0  0  0
   59.4237   25.9794   45.7174 H   0  0  0  0  0  0  0  0  0  0  0  0
   61.0059   27.8519   45.2497 H   0  0  0  0  0  0  0  0  0  0  0  0
   60.1307   30.1325   44.7355 H   0  0  0  0  0  0  0  0  0  0  0  0
   58.1340   31.4477   47.4689 H   0  0  0  0  0  0  0  0  0  0  0  0
   59.7324   31.4298   46.7178 H   0  0  0  0  0  0  0  0  0  0  0  0
   58.6497   33.4788   48.4682 H   0  0  0  0  0  0  0  0  0  0  0  0
   61.1099   33.2753   45.5928 H   0  0  0  0  0  0  0  0  0  0  0  0
   63.5539   33.6254   45.9483 H   0  0  0  0  0  0  0  0  0  0  0  0
   64.4200   34.1913   48.2190 H   0  0  0  0  0  0  0  0  0  0  0  0
   62.8428   34.3998   50.1421 H   0  0  0  0  0  0  0  0  0  0  0  0
   60.3958   34.0490   49.7981 H   0  0  0  0  0  0  0  0  0  0  0  0
   56.0778   28.6701   45.1694 H   0  0  0  0  0  0  0  0  0  0  0  0
  1  2  1  0
  2  3  2  0
  2  4  2  0
  2  5  1  0
  5  6  2  0
  6  7  1  0
  7  8  2  0
  8  9  1  0
  9 10  1  0
 10 11  2  0
 10 12  2  0
 10 13  1  0
 13 14  1  0
 14 15  1  0
 15 16  1  0
 16 17  2  0
 17 18  1  0
 18 19  2  0
 19 20  1  0
 20 21  2  0
 15 22  1  0
 22 23  1  0
 23 24  2  0
  9 25  2  0
 25  5  1  0
 23 13  1  0
 21 16  1  0
  1 26  1  0
  1 27  1  0
  6 28  1  0
  7 29  1  0
  8 30  1  0
 14 31  1  0
 14 32  1  0
 15 33  1  1
 17 34  1  0
 18 35  1  0
 19 36  1  0
 20 37  1  0
 21 38  1  0
 25 39  1  0
M  CHG  1  22  -1
M  END
>  <UniqueID>  (74) 
69

>  <SMILES>  (74) 
NS(=O)(=O)c1cccc(S(=O)(=O)N2C[C@@H](c3ccccc3)[N-]C2=O)c1

>  <Energy>  (74) 
55.43149408319982

>  <Genealogy>  (74) 
NS(=O)(=O)c1cccc(S(=O)(=O)N2CC(c3ccccc3)[N-]C2=O)c1 (protonated)
NS(=O)(=O)c1cccc(S(=O)(=O)N2C[C@@H](c3ccccc3)[N-]C2=O)c1 (chirality)
NS(=O)(=O)c1cccc(S(=O)(=O)N2C[C@@H](c3ccccc3)[N-]C2=O)c1 (3D coordinates assigned)
NS(=O)(=O)c1cccc(S(=O)(=O)N2C[C@@H](c3ccccc3)[N-]C2=O)c1 (nonaromatic ring conformer: 55.43149408319982 kcal/mol)

>  <smiles>  (74) 
NS(=O)(=O)c1cccc(S(=O)(=O)N2CC(c3ccccc3)NC2=O)c1

>  <score_type>  (74) 
oracle

>  <origin>  (74) 
adg

>  <m_score__min__energy>  (74) 
-11.01

>  <m_primary>  (74) 
energy

$$$$
74:0
     RDKit          3D

 25 26  0  0  0  0  0  0  0  0999 V2000
   58.2535   26.4271   43.7189 H   0  0  0  0  0  0  0  0  0  0  0  0
   58.2080   27.4920   43.4470 C   0  0  0  0  0  0  0  0  0  0  0  0
   58.1184   27.7867   42.3910 H   0  0  0  0  0  0  0  0  0  0  0  0
   58.2620   28.4370   44.4090 C   0  0  0  0  0  0  0  0  0  0  0  0
   58.4270   28.1420   45.8020 C   0  0  0  0  0  0  0  0  0  0  0  0
   58.4300   26.8560   46.2630 C   0  0  0  0  0  0  0  0  0  0  0  0
   59.4096   26.4152   46.5000 H   0  0  0  0  0  0  0  0  0  0  0  0
   57.2440   26.0000   46.4740 C   0  0  0  0  0  0  0  0  0  0  0  0
   57.2830   24.7160   46.8760 N   0  0  0  0  0  0  0  0  0  0  0  0
   55.9930   24.3190   46.7950 C   0  0  0  0  0  0  0  0  0  0  0  0
   55.5070   22.8120   47.1940 S   0  0  0  0  0  0  0  0  0  0  0  0
   55.1440   25.2650   46.3370 N   0  0  0  0  0  0  0  0  0  0  0  0
   55.9530   26.3150   46.1280 C   0  0  0  0  0  0  0  0  0  0  0  0
   55.5210   27.5360   45.6240 O   0  0  0  0  0  0  0  0  0  0  0  0
   58.5160   29.2560   46.6870 C   0  0  0  0  0  0  0  0  0  0  0  0
   58.5090   29.0780   47.9370 O   0  0  0  0  0  0  0  0  0  0  0  0
   58.5400   30.5380   46.2050 N   0  0  0  0  0  0  0  0  0  0  0  0
   58.6580   31.6730   47.1380 C   0  0  0  0  0  0  0  0  0  0  0  0
   58.6195   31.3024   48.1730 H   0  0  0  0  0  0  0  0  0  0  0  0
   59.6146   32.1889   46.9687 H   0  0  0  0  0  0  0  0  0  0  0  0
   57.8280   32.3747   46.9687 H   0  0  0  0  0  0  0  0  0  0  0  0
   58.3450   30.7720   44.8740 C   0  0  0  0  0  0  0  0  0  0  0  0
   58.2910   31.9530   44.4310 O   0  0  0  0  0  0  0  0  0  0  0  0
   58.2010   29.7400   44.0090 N   0  0  0  0  0  0  0  0  0  0  0  0
   58.0650   29.9740   42.9970 H   0  0  0  0  0  0  0  0  0  0  0  0
  1  2  1  0
  2  3  1  0
  2  4  2  0
  4  5  1  0
  5  6  2  0
  6  7  1  0
  6  8  1  0
  8  9  1  0
  9 10  1  0
 10 11  2  0
 10 12  1  0
 12 13  1  0
 13 14  1  0
  5 15  1  0
 15 16  2  0
 15 17  1  0
 17 18  1  0
 18 19  1  0
 18 20  1  0
 18 21  1  0
 17 22  1  0
 22 23  2  0
 22 24  1  0
 24 25  1  0
 24  4  1  0
 13  8  2  0
M  CHG  3   9  -1  12  -1  14  -1
M  END
>  <UniqueID>  (75) 
70

>  <SMILES>  (75) 
C=c1[nH]c(=O)n(C)c(=O)/c1=C\c1[n-]c(=S)[n-]c1[O-]

>  <Energy>  (75) 
79.4465068763396

>  <Genealogy>  (75) 
C=c1[nH]c(=O)n(C)c(=O)c1=Cc1[n-]c(=S)[n-]c1[O-] (protonated)
C=c1[nH]c(=O)n(C)c(=O)/c1=C\c1[n-]c(=S)[n-]c1[O-] (cis-trans isomerization)
C=c1[nH]c(=O)n(C)c(=O)/c1=C\c1[n-]c(=S)[n-]c1[O-] (3D coordinates assigned)
C=c1[nH]c(=O)n(C)c(=O)/c1=C\c1[n-]c(=S)[n-]c1[O-] (optimized conformer: 79.4465068763396 kcal/mol)

>  <smiles>  (75) 
C=c1[nH]c(=O)n(C)c(=O)c1=Cc1[nH]c(=S)[nH]c1O

>  <score_type>  (75) 
oracle

>  <origin>  (75) 
adg

>  <m_score__min__energy>  (75) 
-14.84

>  <m_primary>  (75) 
energy

$$$$
75:0
     RDKit          3D

 38 40  0  0  0  0  0  0  0  0999 V2000
   60.7240   22.1250   44.5920 H   0  0  0  0  0  0  0  0  0  0  0  0
   59.9630   22.2440   45.2510 O   0  0  0  0  0  0  0  0  0  0  0  0
   58.6760   22.5830   44.8300 C   0  0  0  0  0  0  0  0  0  0  0  0
   57.9510   21.6980   44.0170 C   0  0  0  0  0  0  0  0  0  0  0  0
   58.4153   20.7598   43.6792 H   0  0  0  0  0  0  0  0  0  0  0  0
   56.6430   22.0030   43.6350 C   0  0  0  0  0  0  0  0  0  0  0  0
   55.9310   21.1210   42.8310 O   0  0  0  0  0  0  0  0  0  0  0  0
   56.0480   23.1910   44.0670 C   0  0  0  0  0  0  0  0  0  0  0  0
   55.0141   23.4260   43.7739 H   0  0  0  0  0  0  0  0  0  0  0  0
   56.7650   24.0810   44.8710 C   0  0  0  0  0  0  0  0  0  0  0  0
   56.2878   25.0092   45.2185 H   0  0  0  0  0  0  0  0  0  0  0  0
   58.0890   23.7990   45.2380 C   0  0  0  0  0  0  0  0  0  0  0  0
   58.8080   24.7650   46.1000 C   0  0  0  0  0  0  0  0  0  0  0  0
   59.4242   24.3710   46.9216 H   0  0  0  0  0  0  0  0  0  0  0  0
   58.7480   26.1010   45.9320 C   0  0  0  0  0  0  0  0  0  0  0  0
   57.5420   26.7130   45.8240 N   0  0  0  0  0  0  0  0  0  0  0  0
   57.4210   28.0520   45.6670 C   0  0  0  0  0  0  0  0  0  0  0  0
   56.2650   28.5510   45.5680 O   0  0  0  0  0  0  0  0  0  0  0  0
   58.5330   28.8490   45.6130 N   0  0  0  0  0  0  0  0  0  0  0  0
   58.3470   30.2680   45.4380 C   0  0  0  0  0  0  0  0  0  0  0  0
   57.9810   30.7690   44.1820 C   0  0  0  0  0  0  0  0  0  0  0  0
   57.8393   30.0783   43.3377 H   0  0  0  0  0  0  0  0  0  0  0  0
   57.7950   32.1410   43.9960 C   0  0  0  0  0  0  0  0  0  0  0  0
   57.5058   32.5236   43.0061 H   0  0  0  0  0  0  0  0  0  0  0  0
   57.9750   33.0370   45.0660 C   0  0  0  0  0  0  0  0  0  0  0  0
   57.7780   34.4900   44.8750 C   0  0  0  0  0  0  0  0  0  0  0  0
   56.6220   34.9630   44.7110 O   0  0  0  0  0  0  0  0  0  0  0  0
   58.8670   35.3540   44.8720 O   0  0  0  0  0  0  0  0  0  0  0  0
   58.3440   32.5290   46.3240 C   0  0  0  0  0  0  0  0  0  0  0  0
   58.4872   33.2189   47.1687 H   0  0  0  0  0  0  0  0  0  0  0  0
   58.5310   31.1560   46.5130 C   0  0  0  0  0  0  0  0  0  0  0  0
   59.0330   30.5140   48.2450 Br  0  0  0  0  0  0  0  0  0  0  0  0
   59.7920   28.2910   45.7290 C   0  0  0  0  0  0  0  0  0  0  0  0
   60.9040   29.0550   45.6880 C   0  0  0  0  0  0  0  0  0  0  0  0
   60.8186   30.1442   45.5601 H   0  0  0  0  0  0  0  0  0  0  0  0
   61.8957   28.5884   45.7825 H   0  0  0  0  0  0  0  0  0  0  0  0
   59.9140   26.8900   45.8940 C   0  0  0  0  0  0  0  0  0  0  0  0
   61.0520   26.3510   46.0010 O   0  0  0  0  0  0  0  0  0  0  0  0
  1  2  1  0
  2  3  1  0
  3  4  2  0
  4  5  1  0
  4  6  1  0
  6  7  1  0
  6  8  2  0
  8  9  1  0
  8 10  1  0
 10 11  1  0
 10 12  2  0
 12 13  1  0
 13 14  1  0
 13 15  2  0
 15 16  1  0
 16 17  1  0
 17 18  2  0
 17 19  1  0
 19 20  1  0
 20 21  2  0
 21 22  1  0
 21 23  1  0
 23 24  1  0
 23 25  2  0
 25 26  1  0
 26 27  2  0
 26 28  1  0
 25 29  1  0
 29 30  1  0
 29 31  2  0
 31 32  1  0
 19 33  1  0
 33 34  2  0
 34 35  1  0
 34 36  1  0
 33 37  1  0
 37 38  2  0
 12  3  1  0
 37 15  1  0
 31 20  1  0
M  CHG  3   7  -1  16  -1  28  -1
M  END
>  <UniqueID>  (76) 
71

>  <SMILES>  (76) 
C=c1c(=O)/c(=C/c2ccc([O-])cc2O)[n-]c(=O)n1-c1ccc(C(=O)[O-])cc1Br

>  <Energy>  (76) 
66.52077589734495

>  <Genealogy>  (76) 
C=c1c(=O)c(=Cc2ccc([O-])cc2O)[n-]c(=O)n1-c1ccc(C(=O)[O-])cc1Br (protonated)
C=c1c(=O)/c(=C/c2ccc([O-])cc2O)[n-]c(=O)n1-c1ccc(C(=O)[O-])cc1Br (cis-trans isomerization)
C=c1c(=O)/c(=C/c2ccc([O-])cc2O)[n-]c(=O)n1-c1ccc(C(=O)[O-])cc1Br (3D coordinates assigned)
C=c1c(=O)/c(=C/c2ccc([O-])cc2O)[n-]c(=O)n1-c1ccc(C(=O)[O-])cc1Br (optimized conformer: 66.52077589734495 kcal/mol)

>  <smiles>  (76) 
C=c1c(=O)c(=Cc2ccc(O)cc2O)[nH]c(=O)n1-c1ccc(C(=O)O)cc1Br

>  <score_type>  (76) 
oracle

>  <origin>  (76) 
adg

>  <m_score__min__energy>  (76) 
-12.640000000000001

>  <m_primary>  (76) 
energy

$$$$
76:0
     RDKit          3D

 33 34  0  0  0  0  0  0  0  0999 V2000
   59.3130   33.4910   54.9200 C   0  0  0  0  0  0  0  0  0  0  0  0
   58.9760   32.3860   53.9710 C   0  0  0  0  0  0  0  0  0  0  0  0
   59.9150   31.3900   53.6820 C   0  0  0  0  0  0  0  0  0  0  0  0
   59.5820   30.3770   52.7820 C   0  0  0  0  0  0  0  0  0  0  0  0
   58.3210   30.3630   52.1810 C   0  0  0  0  0  0  0  0  0  0  0  0
   58.0020   29.3530   51.2800 O   0  0  0  0  0  0  0  0  0  0  0  0
   57.3950   31.3730   52.5010 C   0  0  0  0  0  0  0  0  0  0  0  0
   56.0280   31.4200   51.8740 C   0  0  0  0  0  0  0  0  0  0  0  0
   55.0710   30.6220   52.6570 N   0  0  0  0  0  0  0  0  0  0  0  0
   55.2670   30.4700   54.1040 C   0  0  0  0  0  0  0  0  0  0  0  0
   53.9460   29.9540   52.0350 C   0  0  0  0  0  0  0  0  0  0  0  0
   53.7520   28.7280   52.2660 O   0  0  0  0  0  0  0  0  0  0  0  0
   53.0340   30.6760   51.0700 C   0  0  0  0  0  0  0  0  0  0  0  0
   51.9060   31.3770   51.7680 C   0  0  0  0  0  0  0  0  0  0  0  0
   51.6300   31.2450   53.0780 N   0  0  0  0  0  0  0  0  0  0  0  0
   50.5920   32.0910   53.2620 C   0  0  0  0  0  0  0  0  0  0  0  0
   50.0370   32.2480   54.3800 O   0  0  0  0  0  0  0  0  0  0  0  0
   50.2010   32.7590   52.1550 N   0  0  0  0  0  0  0  0  0  0  0  0
   51.0470   32.2980   51.2200 C   0  0  0  0  0  0  0  0  0  0  0  0
   51.0390   32.7160   49.8950 O   0  0  0  0  0  0  0  0  0  0  0  0
   57.7540   32.3560   53.3730 N   0  0  0  0  0  0  0  0  0  0  0  0
   59.2036   33.1323   55.9541 H   0  0  0  0  0  0  0  0  0  0  0  0
   60.3507   33.8148   54.7521 H   0  0  0  0  0  0  0  0  0  0  0  0
   58.6326   34.3388   54.7521 H   0  0  0  0  0  0  0  0  0  0  0  0
   60.9059   31.4053   54.1595 H   0  0  0  0  0  0  0  0  0  0  0  0
   60.3126   29.5893   52.5457 H   0  0  0  0  0  0  0  0  0  0  0  0
   55.6831   32.4639   51.8369 H   0  0  0  0  0  0  0  0  0  0  0  0
   56.0895   31.0031   50.8579 H   0  0  0  0  0  0  0  0  0  0  0  0
   54.5082   31.0585   54.6406 H   0  0  0  0  0  0  0  0  0  0  0  0
   55.1694   29.4091   54.3778 H   0  0  0  0  0  0  0  0  0  0  0  0
   56.2702   30.8286   54.3778 H   0  0  0  0  0  0  0  0  0  0  0  0
   53.6241   31.4206   50.5156 H   0  0  0  0  0  0  0  0  0  0  0  0
   52.5971   29.9256   50.3947 H   0  0  0  0  0  0  0  0  0  0  0  0
  1  2  1  0
  2  3  2  0
  3  4  1  0
  4  5  2  0
  5  6  1  0
  5  7  1  0
  7  8  1  0
  8  9  1  0
  9 10  1  0
  9 11  1  0
 11 12  2  0
 11 13  1  0
 13 14  1  0
 14 15  1  0
 15 16  1  0
 16 17  2  0
 16 18  1  0
 18 19  1  0
 19 20  1  0
  7 21  2  0
 21  2  1  0
 19 14  2  0
  1 22  1  0
  1 23  1  0
  1 24  1  0
  3 25  1  0
  4 26  1  0
  8 27  1  0
  8 28  1  0
 10 29  1  0
 10 30  1  0
 10 31  1  0
 13 32  1  0
 13 33  1  0
M  CHG  4   6  -1  15  -1  18  -1  20  -1
M  END
>  <UniqueID>  (77) 
72

>  <SMILES>  (77) 
Cc1ccc([O-])c(CN(C)C(=O)Cc2[n-]c(=O)[n-]c2[O-])n1

>  <Energy>  (77) 
59.90157925702022

>  <Genealogy>  (77) 
Cc1ccc([O-])c(CN(C)C(=O)Cc2[n-]c(=O)[n-]c2[O-])n1 (protonated)
Cc1ccc([O-])c(CN(C)C(=O)Cc2[n-]c(=O)[n-]c2[O-])n1 (3D coordinates assigned)
Cc1ccc([O-])c(CN(C)C(=O)Cc2[n-]c(=O)[n-]c2[O-])n1 (optimized conformer: 59.90157925702022 kcal/mol)

>  <smiles>  (77) 
Cc1ccc(O)c(CN(C)C(=O)Cc2[nH]c(=O)[nH]c2O)n1

>  <score_type>  (77) 
oracle

>  <origin>  (77) 
adg

>  <m_score__min__energy>  (77) 
-16.550000000000001

>  <m_primary>  (77) 
energy

$$$$
77:0
     RDKit          3D

 49 52  0  0  0  0  0  0  0  0999 V2000
   58.4880   26.9060   47.0920 O   0  0  0  0  0  0  0  0  0  0  0  0
   58.8850   28.0670   47.3830 C   0  0  0  0  0  0  0  0  0  0  0  0
   59.6420   28.2850   48.6600 C   0  0  0  0  0  0  0  0  0  0  0  0
   59.4310   29.7040   49.1980 C   0  0  0  0  0  0  0  0  0  0  0  0
   60.6460   30.5050   49.0540 N   0  0  0  0  0  0  0  0  0  0  0  0
   61.6650   30.9440   50.3010 S   0  0  0  0  0  0  0  0  0  0  0  0
   62.6940   31.9260   49.4260 C   0  0  0  0  0  0  0  0  0  0  0  0
   63.8030   32.6570   49.8390 C   0  0  0  0  0  0  0  0  0  0  0  0
   64.4750   33.4260   48.8760 C   0  0  0  0  0  0  0  0  0  0  0  0
   64.0270   33.4470   47.5390 C   0  0  0  0  0  0  0  0  0  0  0  0
   62.9010   32.6980   47.1510 C   0  0  0  0  0  0  0  0  0  0  0  0
   62.2380   31.9330   48.1140 C   0  0  0  0  0  0  0  0  0  0  0  0
   61.0890   31.1360   47.9310 C   0  0  0  0  0  0  0  0  0  0  0  0
   60.5050   31.0240   46.8190 O   0  0  0  0  0  0  0  0  0  0  0  0
   58.7070   29.1540   46.4610 N   0  0  0  0  0  0  0  0  0  0  0  0
   58.1190   28.9900   45.1620 C   0  0  0  0  0  0  0  0  0  0  0  0
   58.4170   27.8350   44.4230 C   0  0  0  0  0  0  0  0  0  0  0  0
   57.8620   27.6420   43.1570 C   0  0  0  0  0  0  0  0  0  0  0  0
   57.0160   28.6070   42.6120 C   0  0  0  0  0  0  0  0  0  0  0  0
   56.7350   29.7760   43.3230 C   0  0  0  0  0  0  0  0  0  0  0  0
   57.2970   29.9890   44.5980 C   0  0  0  0  0  0  0  0  0  0  0  0
   57.0840   31.1770   45.3180 O   0  0  0  0  0  0  0  0  0  0  0  0
   57.3620   32.4950   44.8460 C   0  0  0  0  0  0  0  0  0  0  0  0
   58.2360   33.2380   45.8220 C   0  0  0  0  0  0  0  0  0  0  0  0
   59.1930   34.1540   45.3540 C   0  0  0  0  0  0  0  0  0  0  0  0
   60.0120   34.8400   46.2560 C   0  0  0  0  0  0  0  0  0  0  0  0
   59.8880   34.6100   47.6290 C   0  0  0  0  0  0  0  0  0  0  0  0
   58.9470   33.6920   48.1020 C   0  0  0  0  0  0  0  0  0  0  0  0
   58.1250   33.0040   47.2030 C   0  0  0  0  0  0  0  0  0  0  0  0
   59.2928   27.5615   49.4114 H   0  0  0  0  0  0  0  0  0  0  0  0
   60.7140   28.1475   48.4555 H   0  0  0  0  0  0  0  0  0  0  0  0
   58.6153   30.1837   48.6372 H   0  0  0  0  0  0  0  0  0  0  0  0
   59.1782   29.6397   50.2666 H   0  0  0  0  0  0  0  0  0  0  0  0
   64.1420   32.6333   50.8852 H   0  0  0  0  0  0  0  0  0  0  0  0
   65.3568   34.0161   49.1661 H   0  0  0  0  0  0  0  0  0  0  0  0
   64.5621   34.0537   46.7936 H   0  0  0  0  0  0  0  0  0  0  0  0
   62.5492   32.7144   46.1089 H   0  0  0  0  0  0  0  0  0  0  0  0
   59.2130   30.0470   46.6540 H   0  0  0  0  0  0  0  0  0  0  0  0
   59.0928   27.0763   44.8444 H   0  0  0  0  0  0  0  0  0  0  0  0
   58.0921   26.7284   42.5891 H   0  0  0  0  0  0  0  0  0  0  0  0
   56.5688   28.4474   41.6198 H   0  0  0  0  0  0  0  0  0  0  0  0
   56.0707   30.5355   42.8850 H   0  0  0  0  0  0  0  0  0  0  0  0
   57.8779   32.4298   43.8767 H   0  0  0  0  0  0  0  0  0  0  0  0
   56.4121   33.0390   44.7376 H   0  0  0  0  0  0  0  0  0  0  0  0
   59.2984   34.3322   44.2737 H   0  0  0  0  0  0  0  0  0  0  0  0
   60.7547   35.5615   45.8846 H   0  0  0  0  0  0  0  0  0  0  0  0
   60.5316   35.1520   48.3375 H   0  0  0  0  0  0  0  0  0  0  0  0
   58.8523   33.5099   49.1827 H   0  0  0  0  0  0  0  0  0  0  0  0
   57.3894   32.2775   47.5785 H   0  0  0  0  0  0  0  0  0  0  0  0
  1  2  2  0
  2  3  1  0
  3  4  1  0
  4  5  1  0
  5  6  1  0
  6  7  1  0
  7  8  2  0
  8  9  1  0
  9 10  2  0
 10 11  1  0
 11 12  2  0
 12 13  1  0
 13 14  2  0
  2 15  1  0
 15 16  1  0
 16 17  2  0
 17 18  1  0
 18 19  2  0
 19 20  1  0
 20 21  2  0
 21 22  1  0
 22 23  1  0
 23 24  1  0
 24 25  2  0
 25 26  1  0
 26 27  2  0
 27 28  1  0
 28 29  2  0
 13  5  1  0
 21 16  1  0
 29 24  1  0
 12  7  1  0
  3 30  1  0
  3 31  1  0
  4 32  1  0
  4 33  1  0
  8 34  1  0
  9 35  1  0
 10 36  1  0
 11 37  1  0
 15 38  1  0
 17 39  1  0
 18 40  1  0
 19 41  1  0
 20 42  1  0
 23 43  1  0
 23 44  1  0
 25 45  1  0
 26 46  1  0
 27 47  1  0
 28 48  1  0
 29 49  1  0
M  END
>  <UniqueID>  (78) 
73

>  <SMILES>  (78) 
O=C(CCn1sc2ccccc2c1=O)Nc1ccccc1OCc1ccccc1

>  <Energy>  (78) 
91.31119270403015

>  <Genealogy>  (78) 
O=C(CCn1sc2ccccc2c1=O)Nc1ccccc1OCc1ccccc1 (3D coordinates assigned)
O=C(CCn1sc2ccccc2c1=O)Nc1ccccc1OCc1ccccc1 (optimized conformer: 91.31119270403015 kcal/mol)

>  <smiles>  (78) 
O=C(CCn1sc2ccccc2c1=O)Nc1ccccc1OCc1ccccc1

>  <score_type>  (78) 
oracle

>  <origin>  (78) 
adg

>  <m_score__min__energy>  (78) 
-8.3499999999999996

>  <m_primary>  (78) 
energy

$$$$
78:0
     RDKit          3D

 60 64  0  0  0  0  0  0  0  0999 V2000
   58.7734   30.6822   47.7842 H   0  0  0  0  0  0  0  0  0  0  0  0
   58.6190   29.6140   47.5720 C   0  0  0  0  0  0  0  0  0  0  0  0
   58.8356   28.8627   48.3457 H   0  0  0  0  0  0  0  0  0  0  0  0
   58.1660   29.2270   46.3680 C   0  0  0  0  0  0  0  0  0  0  0  0
   57.9210   27.9110   45.9510 C   0  0  0  0  0  0  0  0  0  0  0  0
   58.1010   26.7860   46.6770 C   0  0  0  0  0  0  0  0  0  0  0  0
   58.9763   26.7524   47.3423 H   0  0  0  0  0  0  0  0  0  0  0  0
   57.2230   25.5950   46.6550 C   0  0  0  0  0  0  0  0  0  0  0  0
   57.5830   24.3390   46.9760 N   0  0  0  0  0  0  0  0  0  0  0  0
   56.4390   23.6360   46.8410 C   0  0  0  0  0  0  0  0  0  0  0  0
   56.3750   22.3980   47.0560 O   0  0  0  0  0  0  0  0  0  0  0  0
   55.3680   24.3650   46.4630 N   0  0  0  0  0  0  0  0  0  0  0  0
   55.8810   25.6020   46.3540 C   0  0  0  0  0  0  0  0  0  0  0  0
   55.1350   26.7140   45.9870 O   0  0  0  0  0  0  0  0  0  0  0  0
   57.4250   28.0050   44.6550 C   0  0  0  0  0  0  0  0  0  0  0  0
   57.1113   27.1702   44.0110 H   0  0  0  0  0  0  0  0  0  0  0  0
   57.4020   29.3470   44.3320 C   0  0  0  0  0  0  0  0  0  0  0  0
   56.9170   29.9020   43.0280 C   0  0  0  0  0  0  0  0  0  0  0  0
   56.2042   30.7177   43.2191 H   0  0  0  0  0  0  0  0  0  0  0  0
   57.7716   30.2889   42.4536 H   0  0  0  0  0  0  0  0  0  0  0  0
   56.4190   29.1069   42.4536 H   0  0  0  0  0  0  0  0  0  0  0  0
   57.8450   30.0890   45.3710 N   0  0  0  0  0  0  0  0  0  0  0  0
   57.9530   31.5240   45.3900 C   0  0  0  0  0  0  0  0  0  0  0  0
   56.9160   32.3150   44.8820 C   0  0  0  0  0  0  0  0  0  0  0  0
   56.0208   31.8386   44.4557 H   0  0  0  0  0  0  0  0  0  0  0  0
   57.0150   33.7060   44.9150 C   0  0  0  0  0  0  0  0  0  0  0  0
   56.1997   34.3232   44.5097 H   0  0  0  0  0  0  0  0  0  0  0  0
   58.1460   34.3180   45.4610 C   0  0  0  0  0  0  0  0  0  0  0  0
   58.2182   35.4155   45.4781 H   0  0  0  0  0  0  0  0  0  0  0  0
   59.1950   33.5400   45.9900 C   0  0  0  0  0  0  0  0  0  0  0  0
   60.4290   34.1490   46.5690 C   0  0  0  0  0  0  0  0  0  0  0  0
   60.6910   35.3490   46.2720 O   0  0  0  0  0  0  0  0  0  0  0  0
   61.3430   33.4390   47.4480 N   0  0  0  0  0  0  0  0  0  0  0  0
   60.9500   32.4720   47.5530 H   0  0  0  0  0  0  0  0  0  0  0  0
   62.6920   33.2840   46.8350 C   0  0  0  0  0  0  0  0  0  0  0  0
   62.7651   32.2719   46.4103 H   0  0  0  0  0  0  0  0  0  0  0  0
   62.7879   34.0706   46.0720 H   0  0  0  0  0  0  0  0  0  0  0  0
   63.8550   33.4790   47.8260 C   0  0  0  0  0  0  0  0  0  0  0  0
   64.7547   32.9903   47.4239 H   0  0  0  0  0  0  0  0  0  0  0  0
   64.0248   34.5580   47.9557 H   0  0  0  0  0  0  0  0  0  0  0  0
   63.5390   32.8970   49.1370 N   0  0  0  0  0  0  0  0  0  0  0  0
   64.5760   32.2890   49.9360 C   0  0  0  0  0  0  0  0  0  0  0  0
   65.8990   32.7630   49.8670 C   0  0  0  0  0  0  0  0  0  0  0  0
   66.1444   33.6041   49.2020 H   0  0  0  0  0  0  0  0  0  0  0  0
   66.9040   32.1710   50.6390 C   0  0  0  0  0  0  0  0  0  0  0  0
   67.9352   32.5494   50.5803 H   0  0  0  0  0  0  0  0  0  0  0  0
   66.6020   31.1010   51.4840 C   0  0  0  0  0  0  0  0  0  0  0  0
   67.3942   30.6381   52.0908 H   0  0  0  0  0  0  0  0  0  0  0  0
   65.2930   30.6190   51.5580 C   0  0  0  0  0  0  0  0  0  0  0  0
   65.0556   29.7745   52.2217 H   0  0  0  0  0  0  0  0  0  0  0  0
   64.2840   31.2080   50.7900 C   0  0  0  0  0  0  0  0  0  0  0  0
   63.2550   30.8244   50.8533 H   0  0  0  0  0  0  0  0  0  0  0  0
   62.2170   33.1380   49.7360 C   0  0  0  0  0  0  0  0  0  0  0  0
   61.7157   32.1730   49.9020 H   0  0  0  0  0  0  0  0  0  0  0  0
   62.3551   33.6688   50.6895 H   0  0  0  0  0  0  0  0  0  0  0  0
   61.3490   34.0020   48.8170 C   0  0  0  0  0  0  0  0  0  0  0  0
   60.3200   34.0263   49.2052 H   0  0  0  0  0  0  0  0  0  0  0  0
   61.7608   35.0215   48.7858 H   0  0  0  0  0  0  0  0  0  0  0  0
   59.0880   32.1380   45.9380 C   0  0  0  0  0  0  0  0  0  0  0  0
   59.9051   31.5159   46.3322 H   0  0  0  0  0  0  0  0  0  0  0  0
  1  2  1  0
  2  3  1  0
  2  4  2  0
  4  5  1  0
  5  6  2  0
  6  7  1  0
  6  8  1  0
  8  9  1  0
  9 10  1  0
 10 11  2  0
 10 12  1  0
 12 13  1  0
 13 14  1  0
  5 15  1  0
 15 16  1  0
 15 17  2  0
 17 18  1  0
 18 19  1  0
 18 20  1  0
 18 21  1  0
 17 22  1  0
 22 23  1  0
 23 24  2  0
 24 25  1  0
 24 26  1  0
 26 27  1  0
 26 28  2  0
 28 29  1  0
 28 30  1  0
 30 31  1  0
 31 32  2  0
 31 33  1  0
 33 34  1  0
 33 35  1  0
 35 36  1  0
 35 37  1  0
 35 38  1  0
 38 39  1  0
 38 40  1  0
 38 41  1  0
 41 42  1  0
 42 43  2  0
 43 44  1  0
 43 45  1  0
 45 46  1  0
 45 47  2  0
 47 48  1  0
 47 49  1  0
 49 50  1  0
 49 51  2  0
 51 52  1  0
 41 53  1  0
 53 54  1  0
 53 55  1  0
 53 56  1  0
 56 57  1  0
 56 58  1  0
 30 59  2  0
 59 60  1  0
 22  4  1  0
 59 23  1  0
 13  8  2  0
 56 33  1  0
 51 42  1  0
M  CHG  4   9  -1  12  -1  14  -1  33   1
M  END
>  <UniqueID>  (79) 
74

>  <SMILES>  (79) 
C=c1/c(=C/c2[n-]c(=O)[n-]c2[O-])cc(C)n1-c1cccc(C(=O)[NH+]2CCN(c3ccccc3)CC2)c1

>  <Energy>  (79) 
151.1806308493476

>  <Genealogy>  (79) 
C=c1c(=Cc2[n-]c(=O)[n-]c2[O-])cc(C)n1-c1cccc(C(=O)[NH+]2CCN(c3ccccc3)CC2)c1 (protonated)
C=c1/c(=C/c2[n-]c(=O)[n-]c2[O-])cc(C)n1-c1cccc(C(=O)[NH+]2CCN(c3ccccc3)CC2)c1 (cis-trans isomerization)
C=c1/c(=C/c2[n-]c(=O)[n-]c2[O-])cc(C)n1-c1cccc(C(=O)[NH+]2CCN(c3ccccc3)CC2)c1 (3D coordinates assigned)
C=c1/c(=C/c2[n-]c(=O)[n-]c2[O-])cc(C)n1-c1cccc(C(=O)[NH+]2CCN(c3ccccc3)CC2)c1 (nonaromatic ring conformer: 151.1806308493476 kcal/mol)

>  <smiles>  (79) 
C=c1c(=Cc2[nH]c(=O)[nH]c2O)cc(C)n1-c1cccc(C(=O)N2CCN(c3ccccc3)CC2)c1

>  <score_type>  (79) 
oracle

>  <origin>  (79) 
adg

>  <m_score__min__energy>  (79) 
-17.199999999999999

>  <m_primary>  (79) 
energy

$$$$
79:0
     RDKit          3D

 47 49  0  0  0  0  0  0  0  0999 V2000
   55.0050   29.5010   45.8950 H   0  0  0  0  0  0  0  0  0  0  0  0
   55.1460   29.3380   44.8730 N   0  0  0  0  0  0  0  0  0  0  0  0
   56.5890   30.1780   44.4260 S   0  0  0  0  0  0  0  0  0  0  0  0
   56.4760   31.6100   44.8670 O   0  0  0  0  0  0  0  0  0  0  0  0
   56.7520   30.1390   42.9320 O   0  0  0  0  0  0  0  0  0  0  0  0
   57.9860   29.4050   45.1880 C   0  0  0  0  0  0  0  0  0  0  0  0
   58.4850   28.2030   44.6710 C   0  0  0  0  0  0  0  0  0  0  0  0
   58.0067   27.7420   43.7942 H   0  0  0  0  0  0  0  0  0  0  0  0
   59.5860   27.5900   45.2650 C   0  0  0  0  0  0  0  0  0  0  0  0
   59.9766   26.6423   44.8659 H   0  0  0  0  0  0  0  0  0  0  0  0
   60.1870   28.1890   46.3690 C   0  0  0  0  0  0  0  0  0  0  0  0
   61.0614   27.7153   46.8391 H   0  0  0  0  0  0  0  0  0  0  0  0
   59.7000   29.3560   46.8700 N   0  0  0  0  0  0  0  0  0  0  0  0
   60.2200   29.7820   47.6680 H   0  0  0  0  0  0  0  0  0  0  0  0
   58.6020   29.9710   46.3240 C   0  0  0  0  0  0  0  0  0  0  0  0
   58.1360   31.0920   46.8050 N   0  0  0  0  0  0  0  0  0  0  0  0
   58.7460   32.3900   46.7440 C   0  0  0  0  0  0  0  0  0  0  0  0
   57.9720   33.5600   46.8000 C   0  0  0  0  0  0  0  0  0  0  0  0
   56.8829   33.4915   46.9387 H   0  0  0  0  0  0  0  0  0  0  0  0
   58.5820   34.8110   46.6800 C   0  0  0  0  0  0  0  0  0  0  0  0
   57.9754   35.7264   46.7447 H   0  0  0  0  0  0  0  0  0  0  0  0
   59.9610   34.9010   46.4780 C   0  0  0  0  0  0  0  0  0  0  0  0
   60.4365   35.8891   46.3913 H   0  0  0  0  0  0  0  0  0  0  0  0
   60.7430   33.7430   46.3850 C   0  0  0  0  0  0  0  0  0  0  0  0
   62.1200   33.8870   46.1690 O   0  0  0  0  0  0  0  0  0  0  0  0
   63.1270   33.5720   47.1280 C   0  0  0  0  0  0  0  0  0  0  0  0
   64.0930   33.9710   46.7851 H   0  0  0  0  0  0  0  0  0  0  0  0
   62.8565   34.0229   48.0942 H   0  0  0  0  0  0  0  0  0  0  0  0
   63.2380   32.0550   47.2980 C   0  0  0  0  0  0  0  0  0  0  0  0
   62.5041   31.5716   46.6364 H   0  0  0  0  0  0  0  0  0  0  0  0
   64.2677   31.7651   47.0416 H   0  0  0  0  0  0  0  0  0  0  0  0
   62.9730   31.6030   48.7390 C   0  0  0  0  0  0  0  0  0  0  0  0
   63.7932   30.9495   49.0709 H   0  0  0  0  0  0  0  0  0  0  0  0
   62.9121   32.4900   49.3866 H   0  0  0  0  0  0  0  0  0  0  0  0
   61.7110   30.8700   48.8170 N   0  0  0  0  0  0  0  0  0  0  0  0
   60.6220   31.2670   49.4130 C   0  0  0  0  0  0  0  0  0  0  0  0
   59.6370   30.3580   49.6430 N   0  0  0  0  0  0  0  0  0  0  0  0
   58.4720   30.6900   50.2610 C   0  0  0  0  0  0  0  0  0  0  0  0
   57.7003   29.9239   50.4273 H   0  0  0  0  0  0  0  0  0  0  0  0
   58.2550   32.0010   50.6840 C   0  0  0  0  0  0  0  0  0  0  0  0
   57.3152   32.2751   51.1856 H   0  0  0  0  0  0  0  0  0  0  0  0
   59.2430   32.9610   50.4640 C   0  0  0  0  0  0  0  0  0  0  0  0
   59.0842   33.9992   50.7912 H   0  0  0  0  0  0  0  0  0  0  0  0
   60.4340   32.6030   49.8280 C   0  0  0  0  0  0  0  0  0  0  0  0
   61.2176   33.3547   49.6523 H   0  0  0  0  0  0  0  0  0  0  0  0
   60.1230   32.4840   46.5070 C   0  0  0  0  0  0  0  0  0  0  0  0
   60.7250   31.5679   46.4154 H   0  0  0  0  0  0  0  0  0  0  0  0
  1  2  1  0
  2  3  1  0
  3  4  2  0
  3  5  2  0
  3  6  1  0
  6  7  2  0
  7  8  1  0
  7  9  1  0
  9 10  1  0
  9 11  2  0
 11 12  1  0
 11 13  1  0
 13 14  1  0
 13 15  1  0
 15 16  2  3
 16 17  1  0
 17 18  2  0
 18 19  1  0
 18 20  1  0
 20 21  1  0
 20 22  2  0
 22 23  1  0
 22 24  1  0
 24 25  1  0
 25 26  1  0
 26 27  1  0
 26 28  1  0
 26 29  1  0
 29 30  1  0
 29 31  1  0
 29 32  1  0
 32 33  1  0
 32 34  1  0
 32 35  1  0
 35 36  2  0
 36 37  1  0
 37 38  1  0
 38 39  1  0
 38 40  2  0
 40 41  1  0
 40 42  1  0
 42 43  1  0
 42 44  2  0
 44 45  1  0
 24 46  2  0
 46 47  1  0
 15  6  1  0
 46 17  1  0
 44 36  1  0
M  CHG  2   2  -1  37  -1
M  END
>  <UniqueID>  (80) 
75

>  <SMILES>  (80) 
[NH-]S(=O)(=O)c1ccc[nH]c1=Nc1cccc(OCCC/N=c2\cccc[n-]2)c1

>  <Energy>  (80) 
56.86510442663125

>  <Genealogy>  (80) 
[NH-]S(=O)(=O)c1ccc[nH]c1=Nc1cccc(OCCCN=c2cccc[n-]2)c1 (protonated)
[NH-]S(=O)(=O)c1ccc[nH]c1=Nc1cccc(OCCC/N=c2\cccc[n-]2)c1 (cis-trans isomerization)
[NH-]S(=O)(=O)c1ccc[nH]c1=Nc1cccc(OCCC/N=c2\cccc[n-]2)c1 (3D coordinates assigned)
[NH-]S(=O)(=O)c1ccc[nH]c1=Nc1cccc(OCCC/N=c2\cccc[n-]2)c1 (optimized conformer: 56.86510442663125 kcal/mol)

>  <smiles>  (80) 
NS(=O)(=O)c1ccc[nH]c1=Nc1cccc(OCCCN=c2cccc[nH]2)c1

>  <score_type>  (80) 
oracle

>  <origin>  (80) 
adg

>  <m_score__min__energy>  (80) 
-11.02

>  <m_primary>  (80) 
energy

$$$$
80:0
     RDKit          3D

 45 47  0  0  0  0  0  0  0  0999 V2000
   63.9560   34.2160   51.5570 C   0  0  0  0  0  0  0  0  0  0  0  0
   62.5370   34.1810   51.4470 O   0  0  0  0  0  0  0  0  0  0  0  0
   61.8410   33.9910   50.2440 C   0  0  0  0  0  0  0  0  0  0  0  0
   62.4900   33.9510   48.9930 C   0  0  0  0  0  0  0  0  0  0  0  0
   61.7510   33.7600   47.8230 C   0  0  0  0  0  0  0  0  0  0  0  0
   60.3580   33.6050   47.8810 C   0  0  0  0  0  0  0  0  0  0  0  0
   59.5950   33.4020   46.6720 N   0  0  0  0  0  0  0  0  0  0  0  0
   59.4840   34.4140   45.7530 C   0  0  0  0  0  0  0  0  0  0  0  0
   60.0320   35.5310   45.9550 O   0  0  0  0  0  0  0  0  0  0  0  0
   58.7690   34.2280   44.6150 N   0  0  0  0  0  0  0  0  0  0  0  0
   58.1390   33.0570   44.3540 C   0  0  0  0  0  0  0  0  0  0  0  0
   57.4070   32.9190   43.1780 O   0  0  0  0  0  0  0  0  0  0  0  0
   58.2160   32.0030   45.2750 C   0  0  0  0  0  0  0  0  0  0  0  0
   57.5330   30.7140   45.0010 C   0  0  0  0  0  0  0  0  0  0  0  0
   56.3630   30.7370   44.5320 O   0  0  0  0  0  0  0  0  0  0  0  0
   58.1810   29.4060   45.2720 C   0  0  0  0  0  0  0  0  0  0  0  0
   59.5220   29.1740   44.9150 C   0  0  0  0  0  0  0  0  0  0  0  0
   60.1210   27.9420   45.1810 C   0  0  0  0  0  0  0  0  0  0  0  0
   59.3970   26.9290   45.8130 C   0  0  0  0  0  0  0  0  0  0  0  0
   58.0610   27.1460   46.1920 C   0  0  0  0  0  0  0  0  0  0  0  0
   57.2780   26.1400   46.8500 N   0  0  0  0  0  0  0  0  0  0  0  0
   55.9050   25.3200   46.1760 S   0  0  0  0  0  0  0  0  0  0  0  0
   56.3480   24.5520   44.6340 C   0  0  0  0  0  0  0  0  0  0  0  0
   54.7750   26.2900   45.9760 O   0  0  0  0  0  0  0  0  0  0  0  0
   55.4630   24.2540   47.1370 O   0  0  0  0  0  0  0  0  0  0  0  0
   57.4640   28.3840   45.9200 C   0  0  0  0  0  0  0  0  0  0  0  0
   58.9820   32.1980   46.4400 C   0  0  0  0  0  0  0  0  0  0  0  0
   59.1250   31.2460   47.2600 O   0  0  0  0  0  0  0  0  0  0  0  0
   59.7130   33.6440   49.1260 C   0  0  0  0  0  0  0  0  0  0  0  0
   60.4510   33.8360   50.2970 C   0  0  0  0  0  0  0  0  0  0  0  0
   64.2414   34.2230   52.6193 H   0  0  0  0  0  0  0  0  0  0  0  0
   64.3837   33.3281   51.0683 H   0  0  0  0  0  0  0  0  0  0  0  0
   64.3394   35.1239   51.0683 H   0  0  0  0  0  0  0  0  0  0  0  0
   63.5821   34.0706   48.9381 H   0  0  0  0  0  0  0  0  0  0  0  0
   62.2644   33.7310   46.8506 H   0  0  0  0  0  0  0  0  0  0  0  0
   56.7240   32.1780   43.0730 H   0  0  0  0  0  0  0  0  0  0  0  0
   60.1019   29.9688   44.4231 H   0  0  0  0  0  0  0  0  0  0  0  0
   61.1679   27.7682   44.8916 H   0  0  0  0  0  0  0  0  0  0  0  0
   59.8736   25.9584   46.0148 H   0  0  0  0  0  0  0  0  0  0  0  0
   56.8885   23.6149   44.8331 H   0  0  0  0  0  0  0  0  0  0  0  0
   55.4367   24.3343   44.0577 H   0  0  0  0  0  0  0  0  0  0  0  0
   56.9927   25.2318   44.0577 H   0  0  0  0  0  0  0  0  0  0  0  0
   56.4196   28.5592   46.2175 H   0  0  0  0  0  0  0  0  0  0  0  0
   58.6211   33.5229   49.1808 H   0  0  0  0  0  0  0  0  0  0  0  0
   59.9354   33.8655   51.2682 H   0  0  0  0  0  0  0  0  0  0  0  0
  1  2  1  0
  2  3  1  0
  3  4  2  0
  4  5  1  0
  5  6  2  0
  6  7  1  0
  7  8  1  0
  8  9  2  0
  8 10  1  0
 10 11  1  0
 11 12  1  0
 11 13  2  0
 13 14  1  0
 14 15  2  0
 14 16  1  0
 16 17  2  0
 17 18  1  0
 18 19  2  0
 19 20  1  0
 20 21  1  0
 21 22  1  0
 22 23  1  0
 22 24  2  0
 22 25  2  0
 20 26  2  0
 13 27  1  0
 27 28  2  0
  6 29  1  0
 29 30  2  0
 30  3  1  0
 27  7  1  0
 26 16  1  0
  1 31  1  0
  1 32  1  0
  1 33  1  0
  4 34  1  0
  5 35  1  0
 12 36  1  0
 17 37  1  0
 18 38  1  0
 19 39  1  0
 23 40  1  0
 23 41  1  0
 23 42  1  0
 26 43  1  0
 29 44  1  0
 30 45  1  0
M  CHG  2  10  -1  21  -1
M  END
>  <UniqueID>  (81) 
76

>  <SMILES>  (81) 
COc1ccc(-n2c(=O)[n-]c(O)c(C(=O)c3cccc([N-]S(C)(=O)=O)c3)c2=O)cc1

>  <Energy>  (81) 
64.74965754991153

>  <Genealogy>  (81) 
COc1ccc(-n2c(=O)[n-]c(O)c(C(=O)c3cccc([N-]S(C)(=O)=O)c3)c2=O)cc1 (protonated)
COc1ccc(-n2c(=O)[n-]c(O)c(C(=O)c3cccc([N-]S(C)(=O)=O)c3)c2=O)cc1 (3D coordinates assigned)
COc1ccc(-n2c(=O)[n-]c(O)c(C(=O)c3cccc([N-]S(C)(=O)=O)c3)c2=O)cc1 (optimized conformer: 64.74965754991153 kcal/mol)

>  <smiles>  (81) 
COc1ccc(-n2c(=O)[nH]c(O)c(C(=O)c3cccc(NS(C)(=O)=O)c3)c2=O)cc1

>  <score_type>  (81) 
oracle

>  <origin>  (81) 
adg

>  <m_score__min__energy>  (81) 
-11.23

>  <m_primary>  (81) 
energy

$$$$
81:0
     RDKit          3D

 69 73  0  0  0  0  0  0  0  0999 V2000
   57.5027   26.5197   47.0429 H   0  0  0  0  0  0  0  0  0  0  0  0
   58.2780   27.2300   46.7200 C   0  0  0  0  0  0  0  0  0  0  0  0
   58.3150   27.6180   45.4810 N   0  0  0  0  0  0  0  0  0  0  0  0
   57.8930   28.9100   45.0110 C   0  0  0  0  0  0  0  0  0  0  0  0
   58.8730   29.8130   44.5740 C   0  0  0  0  0  0  0  0  0  0  0  0
   59.9352   29.5322   44.6273 H   0  0  0  0  0  0  0  0  0  0  0  0
   58.5130   31.0650   44.0720 C   0  0  0  0  0  0  0  0  0  0  0  0
   59.2910   31.7709   43.7457 H   0  0  0  0  0  0  0  0  0  0  0  0
   57.1680   31.4210   43.9840 C   0  0  0  0  0  0  0  0  0  0  0  0
   56.8860   32.4091   43.5914 H   0  0  0  0  0  0  0  0  0  0  0  0
   56.1770   30.5240   44.3940 C   0  0  0  0  0  0  0  0  0  0  0  0
   55.1166   30.8069   44.3195 H   0  0  0  0  0  0  0  0  0  0  0  0
   56.5300   29.2670   44.8990 C   0  0  0  0  0  0  0  0  0  0  0  0
   55.5230   28.3730   45.2470 O   0  0  0  0  0  0  0  0  0  0  0  0
   59.2620   27.7290   47.7010 C   0  0  0  0  0  0  0  0  0  0  0  0
   59.7960   26.8440   48.6450 C   0  0  0  0  0  0  0  0  0  0  0  0
   59.4837   25.7893   48.6531 H   0  0  0  0  0  0  0  0  0  0  0  0
   60.7260   27.3070   49.5750 C   0  0  0  0  0  0  0  0  0  0  0  0
   61.1521   26.6172   50.3184 H   0  0  0  0  0  0  0  0  0  0  0  0
   61.1140   28.6430   49.5610 C   0  0  0  0  0  0  0  0  0  0  0  0
   61.8346   29.0168   50.3033 H   0  0  0  0  0  0  0  0  0  0  0  0
   60.5810   29.5130   48.5940 C   0  0  0  0  0  0  0  0  0  0  0  0
   60.9810   30.9790   48.5620 C   0  0  2  0  0  0  0  0  0  0  0  0
   62.0524   31.0672   48.3289 H   0  0  0  0  0  0  0  0  0  0  0  0
   60.7780   31.6020   49.9290 C   0  0  0  0  0  0  0  0  0  0  0  0
   61.8090   31.3470   50.9660 C   0  0  0  0  0  0  0  0  0  0  0  0
   61.4430   30.8730   52.0770 O   0  0  0  0  0  0  0  0  0  0  0  0
   63.2000   31.6540   50.7450 N   0  0  0  0  0  0  0  0  0  0  0  0
   64.2030   30.7680   51.3610 C   0  0  0  0  0  0  0  0  0  0  0  0
   64.0212   30.7352   52.4454 H   0  0  0  0  0  0  0  0  0  0  0  0
   64.0954   29.7783   50.8932 H   0  0  0  0  0  0  0  0  0  0  0  0
   65.6450   31.2290   51.1230 C   0  0  0  0  0  0  0  0  0  0  0  0
   65.9395   31.9132   51.9324 H   0  0  0  0  0  0  0  0  0  0  0  0
   66.2926   30.3400   51.1058 H   0  0  0  0  0  0  0  0  0  0  0  0
   65.7780   31.8960   49.8890 O   0  0  0  0  0  0  0  0  0  0  0  0
   65.0650   33.1090   49.9570 C   0  0  0  0  0  0  0  0  0  0  0  0
   65.3313   33.6357   50.8853 H   0  0  0  0  0  0  0  0  0  0  0  0
   65.3258   33.7286   49.0863 H   0  0  0  0  0  0  0  0  0  0  0  0
   63.5600   32.8370   49.9440 C   0  0  0  0  0  0  0  0  0  0  0  0
   63.0382   33.7143   50.3540 H   0  0  0  0  0  0  0  0  0  0  0  0
   63.2615   32.6430   48.9032 H   0  0  0  0  0  0  0  0  0  0  0  0
   59.6820   32.3570   50.1810 C   0  0  0  0  0  0  0  0  0  0  0  0
   59.4650   33.0370   51.5040 C   0  0  0  0  0  0  0  0  0  0  0  0
   59.6896   32.3333   52.3191 H   0  0  0  0  0  0  0  0  0  0  0  0
   60.1290   33.9107   51.5805 H   0  0  0  0  0  0  0  0  0  0  0  0
   58.4177   33.3646   51.5805 H   0  0  0  0  0  0  0  0  0  0  0  0
   58.7510   32.6550   49.1290 N   0  0  0  0  0  0  0  0  0  0  0  0
   58.9310   32.3300   47.8850 C   0  0  0  0  0  0  0  0  0  0  0  0
   58.0830   32.9750   46.8250 C   0  0  0  0  0  0  0  0  0  0  0  0
   57.1738   33.3871   47.2871 H   0  0  0  0  0  0  0  0  0  0  0  0
   57.8107   32.2203   46.0725 H   0  0  0  0  0  0  0  0  0  0  0  0
   58.8770   34.1260   46.1310 C   0  0  0  0  0  0  0  0  0  0  0  0
   59.0290   35.3210   47.0960 C   0  0  0  0  0  0  0  0  0  0  0  0
   58.9833   34.9617   48.1346 H   0  0  0  0  0  0  0  0  0  0  0  0
   59.9970   35.8132   46.9205 H   0  0  0  0  0  0  0  0  0  0  0  0
   58.2150   36.0398   46.9205 H   0  0  0  0  0  0  0  0  0  0  0  0
   58.0900   34.5980   44.8940 C   0  0  0  0  0  0  0  0  0  0  0  0
   57.1884   35.1388   45.2174 H   0  0  0  0  0  0  0  0  0  0  0  0
   58.7217   35.2664   44.2906 H   0  0  0  0  0  0  0  0  0  0  0  0
   57.7978   33.7259   44.2906 H   0  0  0  0  0  0  0  0  0  0  0  0
   60.2880   33.6350   45.6750 C   0  0  0  0  0  0  0  0  0  0  0  0
   60.9006   34.5095   45.4104 H   0  0  0  0  0  0  0  0  0  0  0  0
   60.1541   32.9685   44.8102 H   0  0  0  0  0  0  0  0  0  0  0  0
   60.9930   32.8550   46.7640 C   0  0  0  0  0  0  0  0  0  0  0  0
   62.1560   33.1040   47.0540 O   0  0  0  0  0  0  0  0  0  0  0  0
   60.2270   31.7290   47.4220 C   0  0  1  0  0  0  0  0  0  0  0  0
   60.0728   30.9238   46.6886 H   0  0  0  0  0  0  0  0  0  0  0  0
   59.6630   29.0370   47.6980 N   0  0  0  0  0  0  0  0  0  0  0  0
   59.2570   29.6910   46.9920 H   0  0  0  0  0  0  0  0  0  0  0  0
  1  2  1  0
  2  3  2  0
  3  4  1  0
  4  5  2  0
  5  6  1  0
  5  7  1  0
  7  8  1  0
  7  9  2  0
  9 10  1  0
  9 11  1  0
 11 12  1  0
 11 13  2  0
 13 14  1  0
  2 15  1  0
 15 16  2  0
 16 17  1  0
 16 18  1  0
 18 19  1  0
 18 20  2  0
 20 21  1  0
 20 22  1  0
 22 23  1  0
 23 24  1  6
 23 25  1  0
 25 26  1  0
 26 27  2  0
 26 28  1  0
 28 29  1  0
 29 30  1  0
 29 31  1  0
 29 32  1  0
 32 33  1  0
 32 34  1  0
 32 35  1  0
 35 36  1  0
 36 37  1  0
 36 38  1  0
 36 39  1  0
 39 40  1  0
 39 41  1  0
 25 42  2  0
 42 43  1  0
 43 44  1  0
 43 45  1  0
 43 46  1  0
 42 47  1  0
 47 48  2  0
 48 49  1  0
 49 50  1  0
 49 51  1  0
 49 52  1  0
 52 53  1  0
 53 54  1  0
 53 55  1  0
 53 56  1  0
 52 57  1  0
 57 58  1  0
 57 59  1  0
 57 60  1  0
 52 61  1  0
 61 62  1  0
 61 63  1  0
 61 64  1  0
 64 65  2  0
 64 66  1  0
 66 67  1  6
 22 68  2  0
 68 69  1  0
 13  4  1  0
 68 15  1  0
 66 23  1  0
 39 28  1  0
 66 48  1  0
M  CHG  2  14  -1  68   1
M  END
>  <UniqueID>  (82) 
77

>  <SMILES>  (82) 
CC1=C(C(=O)N2CCOCC2)[C@@H](c2cccc(/C=N/c3ccccc3[O-])[nH+]2)[C@@H]2C(=O)CC(C)(C)CC2=N1

>  <Energy>  (82) 
93.55118218944905

>  <Genealogy>  (82) 
CC1=C(C(=O)N2CCOCC2)C(c2cccc(C=Nc3ccccc3[O-])[nH+]2)C2C(=O)CC(C)(C)CC2=N1 (protonated)
CC1=C(C(=O)N2CCOCC2)[C@@H](c2cccc(C=Nc3ccccc3[O-])[nH+]2)[C@@H]2C(=O)CC(C)(C)CC2=N1 (chirality)
CC1=C(C(=O)N2CCOCC2)[C@@H](c2cccc(/C=N/c3ccccc3[O-])[nH+]2)[C@@H]2C(=O)CC(C)(C)CC2=N1 (cis-trans isomerization)
CC1=C(C(=O)N2CCOCC2)[C@@H](c2cccc(/C=N/c3ccccc3[O-])[nH+]2)[C@@H]2C(=O)CC(C)(C)CC2=N1 (3D coordinates assigned)
CC1=C(C(=O)N2CCOCC2)[C@@H](c2cccc(/C=N/c3ccccc3[O-])[nH+]2)[C@@H]2C(=O)CC(C)(C)CC2=N1 (nonaromatic ring conformer: 93.55118218944905 kcal/mol)

>  <smiles>  (82) 
CC1=C(C(=O)N2CCOCC2)C(c2cccc(C=Nc3ccccc3O)n2)C2C(=O)CC(C)(C)CC2=N1

>  <score_type>  (82) 
oracle

>  <origin>  (82) 
adg

>  <m_score__min__energy>  (82) 
-12.1

>  <m_primary>  (82) 
energy

$$$$
82:0
     RDKit          3D

 54 56  0  0  0  0  0  0  0  0999 V2000
   65.7380   32.5820   50.0980 C   0  0  0  0  0  0  0  0  0  0  0  0
   64.4110   32.3270   49.3880 C   0  0  0  0  0  0  0  0  0  0  0  0
   63.9590   33.5340   48.6980 N   0  0  0  0  0  0  0  0  0  0  0  0
   63.1760   33.5290   47.4970 C   0  0  0  0  0  0  0  0  0  0  0  0
   63.7490   33.3410   46.3890 O   0  0  0  0  0  0  0  0  0  0  0  0
   61.7260   33.7770   47.5260 C   0  0  0  0  0  0  0  0  0  0  0  0
   61.0090   33.6070   48.7160 C   0  0  0  0  0  0  0  0  0  0  0  0
   59.6320   33.8330   48.7450 C   0  0  0  0  0  0  0  0  0  0  0  0
   58.9610   34.2250   47.5860 C   0  0  0  0  0  0  0  0  0  0  0  0
   59.6670   34.3860   46.3820 C   0  0  0  0  0  0  0  0  0  0  0  0
   58.9380   34.6820   45.1020 C   0  0  0  0  0  0  0  0  0  0  0  0
   58.6890   33.4300   44.3630 N   0  0  0  0  0  0  0  0  0  0  0  0
   57.3520   32.8680   44.6230 C   0  0  0  0  0  0  0  0  0  0  0  0
   57.3850   31.3630   44.7350 C   0  0  0  0  0  0  0  0  0  0  0  0
   58.2110   30.7280   45.6800 C   0  0  0  0  0  0  0  0  0  0  0  0
   58.2460   29.3320   45.7670 C   0  0  0  0  0  0  0  0  0  0  0  0
   57.4910   28.5470   44.8780 C   0  0  0  0  0  0  0  0  0  0  0  0
   57.5400   27.1130   44.8830 N   0  0  0  0  0  0  0  0  0  0  0  0
   56.5520   26.0600   45.8480 S   0  0  0  0  0  0  0  0  0  0  0  0
   55.1850   26.6620   46.0260 O   0  0  0  0  0  0  0  0  0  0  0  0
   57.1890   25.9010   47.2000 O   0  0  0  0  0  0  0  0  0  0  0  0
   56.4620   24.4810   45.0770 C   0  0  0  0  0  0  0  0  0  0  0  0
   56.6650   24.3770   43.6950 C   0  0  0  0  0  0  0  0  0  0  0  0
   56.6060   23.1330   43.0630 C   0  0  0  0  0  0  0  0  0  0  0  0
   56.3420   21.9750   43.8110 C   0  0  0  0  0  0  0  0  0  0  0  0
   56.2600   20.7340   43.1860 O   0  0  0  0  0  0  0  0  0  0  0  0
   56.1490   22.0730   45.1940 C   0  0  0  0  0  0  0  0  0  0  0  0
   56.2120   23.3220   45.8280 C   0  0  0  0  0  0  0  0  0  0  0  0
   56.6750   29.1800   43.9330 C   0  0  0  0  0  0  0  0  0  0  0  0
   56.6190   30.5750   43.8610 C   0  0  0  0  0  0  0  0  0  0  0  0
   61.0560   34.1760   46.3630 C   0  0  0  0  0  0  0  0  0  0  0  0
   65.5830   32.5522   51.1866 H   0  0  0  0  0  0  0  0  0  0  0  0
   66.4631   31.8068   49.8095 H   0  0  0  0  0  0  0  0  0  0  0  0
   66.1241   33.5708   49.8095 H   0  0  0  0  0  0  0  0  0  0  0  0
   64.5428   31.5184   48.6540 H   0  0  0  0  0  0  0  0  0  0  0  0
   63.6567   32.0413   50.1359 H   0  0  0  0  0  0  0  0  0  0  0  0
   61.5325   33.2942   49.6315 H   0  0  0  0  0  0  0  0  0  0  0  0
   59.0742   33.7018   49.6840 H   0  0  0  0  0  0  0  0  0  0  0  0
   57.8768   34.4084   47.6151 H   0  0  0  0  0  0  0  0  0  0  0  0
   57.9776   35.1659   45.3331 H   0  0  0  0  0  0  0  0  0  0  0  0
   59.5529   35.3512   44.4823 H   0  0  0  0  0  0  0  0  0  0  0  0
   58.7280   33.6590   43.3410 H   0  0  0  0  0  0  0  0  0  0  0  0
   56.9677   33.2862   45.5650 H   0  0  0  0  0  0  0  0  0  0  0  0
   56.7011   33.1322   43.7765 H   0  0  0  0  0  0  0  0  0  0  0  0
   58.8337   31.3331   46.3553 H   0  0  0  0  0  0  0  0  0  0  0  0
   58.8669   28.8466   46.5343 H   0  0  0  0  0  0  0  0  0  0  0  0
   56.8722   25.2810   43.1036 H   0  0  0  0  0  0  0  0  0  0  0  0
   56.7667   23.0606   41.9772 H   0  0  0  0  0  0  0  0  0  0  0  0
   56.9480   20.0100   43.3540 H   0  0  0  0  0  0  0  0  0  0  0  0
   55.9473   21.1675   45.7851 H   0  0  0  0  0  0  0  0  0  0  0  0
   56.0652   23.3936   46.9158 H   0  0  0  0  0  0  0  0  0  0  0  0
   56.0722   28.5741   43.2406 H   0  0  0  0  0  0  0  0  0  0  0  0
   55.9709   31.0583   43.1151 H   0  0  0  0  0  0  0  0  0  0  0  0
   61.6197   34.3257   45.4304 H   0  0  0  0  0  0  0  0  0  0  0  0
  1  2  1  0
  2  3  1  0
  3  4  1  0
  4  5  2  0
  4  6  1  0
  6  7  2  0
  7  8  1  0
  8  9  2  0
  9 10  1  0
 10 11  1  0
 11 12  1  0
 12 13  1  0
 13 14  1  0
 14 15  2  0
 15 16  1  0
 16 17  2  0
 17 18  1  0
 18 19  1  0
 19 20  2  0
 19 21  2  0
 19 22  1  0
 22 23  2  0
 23 24  1  0
 24 25  2  0
 25 26  1  0
 25 27  1  0
 27 28  2  0
 17 29  1  0
 29 30  2  0
 10 31  2  0
 31  6  1  0
 30 14  1  0
 28 22  1  0
  1 32  1  0
  1 33  1  0
  1 34  1  0
  2 35  1  0
  2 36  1  0
  7 37  1  0
  8 38  1  0
  9 39  1  0
 11 40  1  0
 11 41  1  0
 12 42  1  0
 13 43  1  0
 13 44  1  0
 15 45  1  0
 16 46  1  0
 23 47  1  0
 24 48  1  0
 26 49  1  0
 27 50  1  0
 28 51  1  0
 29 52  1  0
 30 53  1  0
 31 54  1  0
M  CHG  2   3  -1  18  -1
M  END
>  <UniqueID>  (83) 
78

>  <SMILES>  (83) 
CC[N-]C(=O)c1cccc(CNCc2ccc([N-]S(=O)(=O)c3ccc(O)cc3)cc2)c1

>  <Energy>  (83) 
53.62792106997784

>  <Genealogy>  (83) 
CC[N-]C(=O)c1cccc(CNCc2ccc([N-]S(=O)(=O)c3ccc(O)cc3)cc2)c1 (protonated)
CC[N-]C(=O)c1cccc(CNCc2ccc([N-]S(=O)(=O)c3ccc(O)cc3)cc2)c1 (3D coordinates assigned)
CC[N-]C(=O)c1cccc(CNCc2ccc([N-]S(=O)(=O)c3ccc(O)cc3)cc2)c1 (optimized conformer: 53.62792106997784 kcal/mol)

>  <smiles>  (83) 
CCNC(=O)c1cccc(CNCc2ccc(NS(=O)(=O)c3ccc(O)cc3)cc2)c1

>  <score_type>  (83) 
oracle

>  <origin>  (83) 
adg

>  <m_score__min__energy>  (83) 
-13.23

>  <m_primary>  (83) 
energy

$$$$
83:0
     RDKit          3D

 62 65  0  0  0  0  0  0  0  0999 V2000
   56.1100   29.0430   45.6880 H   0  0  0  0  0  0  0  0  0  0  0  0
   55.8190   29.6530   44.9600 O   0  0  0  0  0  0  0  0  0  0  0  0
   56.8320   29.6860   43.9810 C   0  0  0  0  0  0  0  0  0  0  0  0
   57.9040   28.6390   44.2930 C   0  0  0  0  0  0  0  0  0  0  0  0
   58.3240   27.9620   43.3640 O   0  0  0  0  0  0  0  0  0  0  0  0
   58.5000   28.4380   45.7010 C   0  0  0  0  0  0  0  0  0  0  0  0
   57.7650   27.3810   46.4190 N   0  0  0  0  0  0  0  0  0  0  0  0
   57.5560   26.1290   46.0990 C   0  0  0  0  0  0  0  0  0  0  0  0
   57.7620   25.1390   47.0750 C   0  0  0  0  0  0  0  0  0  0  0  0
   58.1500   25.4490   48.2340 O   0  0  0  0  0  0  0  0  0  0  0  0
   57.5430   23.8340   46.7720 N   0  0  0  0  0  0  0  0  0  0  0  0
   57.1230   23.4570   45.5380 C   0  0  0  0  0  0  0  0  0  0  0  0
   56.8990   22.1060   45.2490 C   0  0  0  0  0  0  0  0  0  0  0  0
   57.0677   21.3435   46.0237 H   0  0  0  0  0  0  0  0  0  0  0  0
   56.4580   21.7210   43.9680 C   0  0  0  0  0  0  0  0  0  0  0  0
   56.2180   20.3810   43.6270 O   0  0  0  0  0  0  0  0  0  0  0  0
   55.8980   19.3580   44.5630 C   0  0  0  0  0  0  0  0  0  0  0  0
   56.0192   19.7454   45.5853 H   0  0  0  0  0  0  0  0  0  0  0  0
   54.8565   19.0370   44.4136 H   0  0  0  0  0  0  0  0  0  0  0  0
   56.5709   18.5008   44.4136 H   0  0  0  0  0  0  0  0  0  0  0  0
   56.2470   22.7030   42.9910 C   0  0  0  0  0  0  0  0  0  0  0  0
   55.9024   22.4086   41.9887 H   0  0  0  0  0  0  0  0  0  0  0  0
   56.4700   24.0530   43.2770 C   0  0  0  0  0  0  0  0  0  0  0  0
   56.2995   24.8143   42.5015 H   0  0  0  0  0  0  0  0  0  0  0  0
   56.9110   24.4380   44.5520 C   0  0  0  0  0  0  0  0  0  0  0  0
   57.1320   25.7510   44.8510 N   0  0  0  0  0  0  0  0  0  0  0  0
   56.9580   26.4560   44.1050 H   0  0  0  0  0  0  0  0  0  0  0  0
   60.0250   28.0630   45.6610 C   0  0  0  0  0  0  0  0  0  0  0  0
   60.1227   26.9691   45.5983 H   0  0  0  0  0  0  0  0  0  0  0  0
   60.4768   28.5472   44.7827 H   0  0  0  0  0  0  0  0  0  0  0  0
   60.7580   28.5580   46.9140 C   0  0  0  0  0  0  0  0  0  0  0  0
   60.2548   28.1536   47.8047 H   0  0  0  0  0  0  0  0  0  0  0  0
   61.8011   28.2129   46.8603 H   0  0  0  0  0  0  0  0  0  0  0  0
   60.7640   30.0410   46.9960 N   0  0  0  0  0  0  0  0  0  0  0  0
   61.0020   30.5020   48.3810 C   0  0  0  0  0  0  0  0  0  0  0  0
   60.0821   30.9625   48.7705 H   0  0  0  0  0  0  0  0  0  0  0  0
   61.2877   29.6358   48.9958 H   0  0  0  0  0  0  0  0  0  0  0  0
   62.1190   31.5150   48.4260 C   0  0  0  0  0  0  0  0  0  0  0  0
   62.9160   31.6310   49.5770 C   0  0  0  0  0  0  0  0  0  0  0  0
   62.7371   30.9683   50.4365 H   0  0  0  0  0  0  0  0  0  0  0  0
   63.9360   32.5860   49.6340 C   0  0  0  0  0  0  0  0  0  0  0  0
   64.5597   32.6703   50.5362 H   0  0  0  0  0  0  0  0  0  0  0  0
   64.1640   33.4330   48.5470 C   0  0  0  0  0  0  0  0  0  0  0  0
   64.9671   34.1832   48.5931 H   0  0  0  0  0  0  0  0  0  0  0  0
   63.3710   33.3270   47.4000 C   0  0  0  0  0  0  0  0  0  0  0  0
   63.5505   33.9949   46.5446 H   0  0  0  0  0  0  0  0  0  0  0  0
   62.3510   32.3740   47.3390 C   0  0  0  0  0  0  0  0  0  0  0  0
   61.7273   32.2961   46.4363 H   0  0  0  0  0  0  0  0  0  0  0  0
   59.5480   30.6710   46.4170 C   0  0  0  0  0  0  0  0  0  0  0  0
   59.3403   31.6042   46.9611 H   0  0  0  0  0  0  0  0  0  0  0  0
   59.7435   30.8612   45.3513 H   0  0  0  0  0  0  0  0  0  0  0  0
   58.3160   29.7600   46.5120 C   0  0  0  0  0  0  0  0  0  0  0  0
   58.1423   29.5070   47.5683 H   0  0  0  0  0  0  0  0  0  0  0  0
   57.4593   30.3027   46.0860 H   0  0  0  0  0  0  0  0  0  0  0  0
   57.4830   31.0840   43.9690 C   0  0  0  0  0  0  0  0  0  0  0  0
   57.6412   31.4237   45.0032 H   0  0  0  0  0  0  0  0  0  0  0  0
   58.4503   31.0336   43.4476 H   0  0  0  0  0  0  0  0  0  0  0  0
   56.8219   31.7919   43.4476 H   0  0  0  0  0  0  0  0  0  0  0  0
   56.2130   29.3910   42.6000 C   0  0  0  0  0  0  0  0  0  0  0  0
   55.2273   28.9212   42.7328 H   0  0  0  0  0  0  0  0  0  0  0  0
   56.0987   30.3314   42.0410 H   0  0  0  0  0  0  0  0  0  0  0  0
   56.8715   28.7099   42.0410 H   0  0  0  0  0  0  0  0  0  0  0  0
  1  2  1  0
  2  3  1  0
  3  4  1  0
  4  5  2  0
  4  6  1  0
  6  7  1  0
  7  8  2  0
  8  9  1  0
  9 10  2  0
  9 11  1  0
 11 12  1  0
 12 13  2  0
 13 14  1  0
 13 15  1  0
 15 16  1  0
 16 17  1  0
 17 18  1  0
 17 19  1  0
 17 20  1  0
 15 21  2  0
 21 22  1  0
 21 23  1  0
 23 24  1  0
 23 25  2  0
 25 26  1  0
 26 27  1  0
  6 28  1  0
 28 29  1  0
 28 30  1  0
 28 31  1  0
 31 32  1  0
 31 33  1  0
 31 34  1  0
 34 35  1  0
 35 36  1  0
 35 37  1  0
 35 38  1  0
 38 39  2  0
 39 40  1  0
 39 41  1  0
 41 42  1  0
 41 43  2  0
 43 44  1  0
 43 45  1  0
 45 46  1  0
 45 47  2  0
 47 48  1  0
 34 49  1  0
 49 50  1  0
 49 51  1  0
 49 52  1  0
 52 53  1  0
 52 54  1  0
  3 55  1  0
 55 56  1  0
 55 57  1  0
 55 58  1  0
  3 59  1  0
 59 60  1  0
 59 61  1  0
 59 62  1  0
 52  6  1  0
 26  8  1  0
 47 38  1  0
 25 12  1  0
M  CHG  1  11  -1
M  END
>  <UniqueID>  (84) 
79

>  <SMILES>  (84) 
COc1ccc2[nH]/c(=N\C3(C(=O)C(C)(C)O)CCN(Cc4ccccc4)CC3)c(=O)[n-]c2c1

>  <Energy>  (84) 
83.357537995392

>  <Genealogy>  (84) 
COc1ccc2[nH]c(=NC3(C(=O)C(C)(C)O)CCN(Cc4ccccc4)CC3)c(=O)[n-]c2c1 (protonated)
COc1ccc2[nH]/c(=N\C3(C(=O)C(C)(C)O)CCN(Cc4ccccc4)CC3)c(=O)[n-]c2c1 (cis-trans isomerization)
COc1ccc2[nH]/c(=N\C3(C(=O)C(C)(C)O)CCN(Cc4ccccc4)CC3)c(=O)[n-]c2c1 (3D coordinates assigned)
COc1ccc2[nH]/c(=N\C3(C(=O)C(C)(C)O)CCN(Cc4ccccc4)CC3)c(=O)[n-]c2c1 (nonaromatic ring conformer: 83.357537995392 kcal/mol)

>  <smiles>  (84) 
COc1ccc2[nH]c(=NC3(C(=O)C(C)(C)O)CCN(Cc4ccccc4)CC3)c(=O)[nH]c2c1

>  <score_type>  (84) 
oracle

>  <origin>  (84) 
adg

>  <m_score__min__energy>  (84) 
-11.630000000000001

>  <m_primary>  (84) 
energy

$$$$
84:0
     RDKit          3D

 29 30  0  0  0  0  0  0  0  0999 V2000
   50.8082   32.1388   53.2046 H   0  0  0  0  0  0  0  0  0  0  0  0
   50.8550   31.4500   54.0610 C   0  0  0  0  0  0  0  0  0  0  0  0
   50.1907   31.6005   54.9248 H   0  0  0  0  0  0  0  0  0  0  0  0
   51.7200   30.4290   54.0520 C   0  0  0  0  0  0  0  0  0  0  0  0
   52.7470   30.1690   53.1280 C   0  0  0  0  0  0  0  0  0  0  0  0
   53.0110   30.7470   51.9370 C   0  0  0  0  0  0  0  0  0  0  0  0
   54.0384   31.1008   51.7660 H   0  0  0  0  0  0  0  0  0  0  0  0
   52.0410   30.9440   50.8480 C   0  0  0  0  0  0  0  0  0  0  0  0
   51.9690   30.1850   49.7380 N   0  0  0  0  0  0  0  0  0  0  0  0
   51.0480   30.8220   48.9840 C   0  0  0  0  0  0  0  0  0  0  0  0
   50.6860   30.4000   47.8550 O   0  0  0  0  0  0  0  0  0  0  0  0
   50.5520   31.9530   49.5300 N   0  0  0  0  0  0  0  0  0  0  0  0
   51.2030   32.0220   50.7020 C   0  0  0  0  0  0  0  0  0  0  0  0
   51.0390   33.0530   51.6190 O   0  0  0  0  0  0  0  0  0  0  0  0
   53.5010   29.1360   53.6900 C   0  0  0  0  0  0  0  0  0  0  0  0
   54.7550   28.5090   53.1370 C   0  0  0  0  0  0  0  0  0  0  0  0
   55.0604   27.6772   53.7888 H   0  0  0  0  0  0  0  0  0  0  0  0
   54.5481   28.1419   52.1209 H   0  0  0  0  0  0  0  0  0  0  0  0
   55.8840   29.5310   53.0680 C   0  0  0  0  0  0  0  0  0  0  0  0
   56.1904   29.8083   54.0874 H   0  0  0  0  0  0  0  0  0  0  0  0
   56.7409   29.0952   52.5334 H   0  0  0  0  0  0  0  0  0  0  0  0
   55.5354   30.4269   52.5334 H   0  0  0  0  0  0  0  0  0  0  0  0
   52.8850   28.7960   54.8840 C   0  0  0  0  0  0  0  0  0  0  0  0
   53.3370   27.7370   55.8400 C   0  0  0  0  0  0  0  0  0  0  0  0
   53.1877   28.0869   56.8721 H   0  0  0  0  0  0  0  0  0  0  0  0
   52.7517   26.8203   55.6753 H   0  0  0  0  0  0  0  0  0  0  0  0
   54.4038   27.5255   55.6753 H   0  0  0  0  0  0  0  0  0  0  0  0
   51.8020   29.5670   55.0860 N   0  0  0  0  0  0  0  0  0  0  0  0
   51.1830   29.5440   55.9290 H   0  0  0  0  0  0  0  0  0  0  0  0
  1  2  1  0
  2  3  1  0
  2  4  2  0
  4  5  1  0
  5  6  2  0
  6  7  1  0
  6  8  1  0
  8  9  1  0
  9 10  1  0
 10 11  2  0
 10 12  1  0
 12 13  1  0
 13 14  1  0
  5 15  1  0
 15 16  1  0
 16 17  1  0
 16 18  1  0
 16 19  1  0
 19 20  1  0
 19 21  1  0
 19 22  1  0
 15 23  2  0
 23 24  1  0
 24 25  1  0
 24 26  1  0
 24 27  1  0
 23 28  1  0
 28 29  1  0
 28  4  1  0
 13  8  2  0
M  CHG  3   9  -1  12  -1  14  -1
M  END
>  <UniqueID>  (85) 
80

>  <SMILES>  (85) 
C=c1[nH]c(C)c(CC)/c1=C/c1[n-]c(=O)[n-]c1[O-]

>  <Energy>  (85) 
92.55468190238395

>  <Genealogy>  (85) 
C=c1[nH]c(C)c(CC)c1=Cc1[n-]c(=O)[n-]c1[O-] (protonated)
C=c1[nH]c(C)c(CC)/c1=C/c1[n-]c(=O)[n-]c1[O-] (cis-trans isomerization)
C=c1[nH]c(C)c(CC)/c1=C/c1[n-]c(=O)[n-]c1[O-] (3D coordinates assigned)
C=c1[nH]c(C)c(CC)/c1=C/c1[n-]c(=O)[n-]c1[O-] (optimized conformer: 92.55468190238395 kcal/mol)

>  <smiles>  (85) 
C=c1[nH]c(C)c(CC)c1=Cc1[nH]c(=O)[nH]c1O

>  <score_type>  (85) 
oracle

>  <origin>  (85) 
adg

>  <m_score__min__energy>  (85) 
-14.800000000000001

>  <m_primary>  (85) 
energy

$$$$
85:0
     RDKit          3D

 37 39  0  0  0  0  0  0  0  0999 V2000
   55.1380   27.5060   45.3630 H   0  0  0  0  0  0  0  0  0  0  0  0
   55.0720   26.7140   45.9920 O   0  0  0  0  0  0  0  0  0  0  0  0
   55.9370   25.6250   45.8940 C   0  0  0  0  0  0  0  0  0  0  0  0
   55.4510   24.3370   46.1680 C   0  0  0  0  0  0  0  0  0  0  0  0
   54.3985   24.2002   46.4572 H   0  0  0  0  0  0  0  0  0  0  0  0
   56.2940   23.2290   46.0760 C   0  0  0  0  0  0  0  0  0  0  0  0
   55.9052   22.2230   46.2925 H   0  0  0  0  0  0  0  0  0  0  0  0
   57.6280   23.3960   45.7100 C   0  0  0  0  0  0  0  0  0  0  0  0
   58.2910   22.5212   45.6384 H   0  0  0  0  0  0  0  0  0  0  0  0
   58.1250   24.6710   45.4340 C   0  0  0  0  0  0  0  0  0  0  0  0
   59.1794   24.7923   45.1451 H   0  0  0  0  0  0  0  0  0  0  0  0
   57.2920   25.8050   45.5210 C   0  0  0  0  0  0  0  0  0  0  0  0
   57.8510   27.1520   45.2210 C   0  0  0  0  0  0  0  0  0  0  0  0
   59.0100   27.2640   44.7390 O   0  0  0  0  0  0  0  0  0  0  0  0
   57.0590   28.3250   45.4860 N   0  0  0  0  0  0  0  0  0  0  0  0
   57.2160   29.5110   44.9740 C   0  0  0  0  0  0  0  0  0  0  0  0
   56.8620   29.7820   43.6890 N   0  0  0  0  0  0  0  0  0  0  0  0
   57.0360   31.0290   43.1770 C   0  0  0  0  0  0  0  0  0  0  0  0
   56.6760   31.3180   41.8590 O   0  0  0  0  0  0  0  0  0  0  0  0
   57.3120   32.3350   41.0940 C   0  0  0  0  0  0  0  0  0  0  0  0
   57.7716   33.0699   41.7712 H   0  0  0  0  0  0  0  0  0  0  0  0
   58.0896   31.8845   40.4596 H   0  0  0  0  0  0  0  0  0  0  0  0
   56.5666   32.8369   40.4596 H   0  0  0  0  0  0  0  0  0  0  0  0
   57.5660   32.0060   43.9540 N   0  0  0  0  0  0  0  0  0  0  0  0
   57.9240   31.7490   45.2400 C   0  0  0  0  0  0  0  0  0  0  0  0
   58.5040   32.8200   46.0870 C   0  0  0  0  0  0  0  0  0  0  0  0
   58.6810   32.6250   47.4710 C   0  0  0  0  0  0  0  0  0  0  0  0
   58.3877   31.6692   47.9297 H   0  0  0  0  0  0  0  0  0  0  0  0
   59.2270   33.6380   48.2660 C   0  0  0  0  0  0  0  0  0  0  0  0
   59.3612   33.4758   49.3457 H   0  0  0  0  0  0  0  0  0  0  0  0
   59.6020   34.8540   47.6930 C   0  0  0  0  0  0  0  0  0  0  0  0
   60.0316   35.6485   48.3208 H   0  0  0  0  0  0  0  0  0  0  0  0
   59.4320   35.0620   46.3240 C   0  0  0  0  0  0  0  0  0  0  0  0
   59.7277   36.0211   45.8738 H   0  0  0  0  0  0  0  0  0  0  0  0
   58.8860   34.0530   45.5220 C   0  0  0  0  0  0  0  0  0  0  0  0
   58.7543   34.2238   44.4434 H   0  0  0  0  0  0  0  0  0  0  0  0
   57.7450   30.4970   45.7410 N   0  0  0  0  0  0  0  0  0  0  0  0
  1  2  1  0
  2  3  1  0
  3  4  2  0
  4  5  1  0
  4  6  1  0
  6  7  1  0
  6  8  2  0
  8  9  1  0
  8 10  1  0
 10 11  1  0
 10 12  2  0
 12 13  1  0
 13 14  2  0
 13 15  1  0
 15 16  2  0
 16 17  1  0
 17 18  2  0
 18 19  1  0
 19 20  1  0
 20 21  1  0
 20 22  1  0
 20 23  1  0
 18 24  1  0
 24 25  2  0
 25 26  1  0
 26 27  2  0
 27 28  1  0
 27 29  1  0
 29 30  1  0
 29 31  2  0
 31 32  1  0
 31 33  1  0
 33 34  1  0
 33 35  2  0
 35 36  1  0
 25 37  1  0
 12  3  1  0
 37 16  1  0
 35 26  1  0
M  CHG  1  37  -1
M  END
>  <UniqueID>  (86) 
81

>  <SMILES>  (86) 
COc1nc(-c2ccccc2)[n-]/c(=N/C(=O)c2ccccc2O)n1

>  <Energy>  (86) 
44.56203431291856

>  <Genealogy>  (86) 
COc1nc(-c2ccccc2)[n-]c(=NC(=O)c2ccccc2O)n1 (protonated)
COc1nc(-c2ccccc2)[n-]/c(=N/C(=O)c2ccccc2O)n1 (cis-trans isomerization)
COc1nc(-c2ccccc2)[n-]/c(=N/C(=O)c2ccccc2O)n1 (3D coordinates assigned)
COc1nc(-c2ccccc2)[n-]/c(=N/C(=O)c2ccccc2O)n1 (optimized conformer: 44.56203431291856 kcal/mol)

>  <smiles>  (86) 
COc1nc(-c2ccccc2)[nH]c(=NC(=O)c2ccccc2O)n1

>  <score_type>  (86) 
oracle

>  <origin>  (86) 
adg

>  <m_score__min__energy>  (86) 
-10.25

>  <m_primary>  (86) 
energy

$$$$
