0:0
     RDKit          3D

 40 43  0  0  0  0  0  0  0  0999 V2000
   63.2160   32.4090   51.1520 C   0  0  0  0  0  0  0  0  0  0  0  0
   63.0430   32.8610   49.7280 C   0  0  0  0  0  0  0  0  0  0  0  0
   64.1790   33.0470   48.9220 C   0  0  0  0  0  0  0  0  0  0  0  0
   64.0530   33.4710   47.5980 C   0  0  0  0  0  0  0  0  0  0  0  0
   62.7920   33.7120   47.0530 C   0  0  0  0  0  0  0  0  0  0  0  0
   61.6450   33.5070   47.8290 C   0  0  0  0  0  0  0  0  0  0  0  0
   61.7590   33.1070   49.1840 C   0  0  0  0  0  0  0  0  0  0  0  0
   60.5540   32.9350   49.9780 N   0  0  0  0  0  0  0  0  0  0  0  0
   59.2020   33.0560   49.4060 C   0  0  0  0  0  0  0  0  0  0  0  0
   59.2750   32.8670   47.8930 C   0  0  1  0  0  0  0  0  0  0  0  0
   58.0610   33.0720   47.2160 O   0  0  0  0  0  0  0  0  0  0  0  0
   58.4280   33.5320   45.9210 C   0  0  2  0  0  0  0  0  0  0  0  0
   57.9370   32.5920   44.8490 C   0  0  0  0  0  0  0  0  0  0  0  0
   58.1410   32.8630   43.4870 C   0  0  0  0  0  0  0  0  0  0  0  0
   57.6410   31.9800   42.5300 C   0  0  0  0  0  0  0  0  0  0  0  0
   56.9370   30.8440   42.9300 C   0  0  0  0  0  0  0  0  0  0  0  0
   56.7370   30.6040   44.2990 C   0  0  0  0  0  0  0  0  0  0  0  0
   55.9930   29.4220   44.7680 C   0  0  0  0  0  0  0  0  0  0  0  0
   54.7780   29.2660   44.4750 O   0  0  0  0  0  0  0  0  0  0  0  0
   56.6350   28.4640   45.5440 O   0  0  0  0  0  0  0  0  0  0  0  0
   57.2370   31.4820   45.2110 N   0  0  0  0  0  0  0  0  0  0  0  0
   59.9540   33.7240   45.8640 C   0  0  0  0  0  0  0  0  0  0  0  0
   60.2690   33.8490   47.3250 C   0  0  2  0  0  0  0  0  0  0  0  0
   62.9072   33.2159   51.8329 H   0  0  0  0  0  0  0  0  0  0  0  0
   62.5949   31.5192   51.3323 H   0  0  0  0  0  0  0  0  0  0  0  0
   64.2725   32.1613   51.3323 H   0  0  0  0  0  0  0  0  0  0  0  0
   65.1788   32.8563   49.3391 H   0  0  0  0  0  0  0  0  0  0  0  0
   64.9525   33.6157   46.9816 H   0  0  0  0  0  0  0  0  0  0  0  0
   62.6988   34.0628   46.0146 H   0  0  0  0  0  0  0  0  0  0  0  0
   60.6180   32.8070   51.0110 H   0  0  0  0  0  0  0  0  0  0  0  0
   58.5486   32.2856   49.8414 H   0  0  0  0  0  0  0  0  0  0  0  0
   58.7936   34.0517   49.6335 H   0  0  0  0  0  0  0  0  0  0  0  0
   59.5635   31.8164   47.7415 H   0  0  0  0  0  0  0  0  0  0  0  0
   57.9466   34.5023   45.7292 H   0  0  0  0  0  0  0  0  0  0  0  0
   58.6905   33.7641   43.1770 H   0  0  0  0  0  0  0  0  0  0  0  0
   57.8017   32.1793   41.4602 H   0  0  0  0  0  0  0  0  0  0  0  0
   56.5423   30.1428   42.1800 H   0  0  0  0  0  0  0  0  0  0  0  0
   60.4560   32.8552   45.4133 H   0  0  0  0  0  0  0  0  0  0  0  0
   60.2863   34.5736   45.2493 H   0  0  0  0  0  0  0  0  0  0  0  0
   60.2190   34.9090   47.6145 H   0  0  0  0  0  0  0  0  0  0  0  0
  1  2  1  0
  2  3  2  0
  3  4  1  0
  4  5  2  0
  5  6  1  0
  6  7  2  0
  7  8  1  0
  8  9  1  0
  9 10  1  0
 10 11  1  0
 11 12  1  0
 12 13  1  0
 13 14  2  0
 14 15  1  0
 15 16  2  0
 16 17  1  0
 17 18  1  0
 18 19  2  0
 18 20  1  0
 17 21  2  0
 12 22  1  0
 22 23  1  0
  7  2  1  0
 23 10  1  0
 23  6  1  0
 21 13  1  0
  1 24  1  0
  1 25  1  0
  1 26  1  0
  3 27  1  0
  4 28  1  0
  5 29  1  0
  8 30  1  0
  9 31  1  0
  9 32  1  0
 10 33  1  1
 12 34  1  6
 14 35  1  0
 15 36  1  0
 16 37  1  0
 22 38  1  0
 22 39  1  0
 23 40  1  1
M  CHG  1  20  -1
M  END
>  <UniqueID>  (1) 
1

>  <SMILES>  (1) 
Cc1cccc2c1NC[C@H]1O[C@H](c3cccc(C(=O)[O-])n3)CC21

>  <Energy>  (1) 
54.72587220103146

>  <Genealogy>  (1) 
Cc1cccc2c1NCC1OC(c3cccc(C(=O)[O-])n3)CC21 (protonated)
Cc1cccc2c1NC[C@H]1O[C@H](c3cccc(C(=O)[O-])n3)CC21 (chirality)
Cc1cccc2c1NC[C@H]1O[C@H](c3cccc(C(=O)[O-])n3)CC21 (3D coordinates assigned)
Cc1cccc2c1NC[C@H]1O[C@H](c3cccc(C(=O)[O-])n3)CC21 (nonaromatic ring conformer: 54.72587220103146 kcal/mol)

>  <smiles>  (1) 
Cc1cccc2c1NCC1OC(c3cccc(C(=O)O)n3)CC21

>  <score_type>  (1) 
oracle

>  <origin>  (1) 
adg

>  <m_score__min__energy>  (1) 
-11.52

>  <m_primary>  (1) 
energy

$$$$
1:0
     RDKit          3D

 49 52  0  0  0  0  0  0  0  0999 V2000
   63.7650   32.3380   49.0870 C   0  0  0  0  0  0  0  0  0  0  0  0
   62.7320   31.8780   49.9490 O   0  0  0  0  0  0  0  0  0  0  0  0
   61.3750   32.0300   49.6500 C   0  0  0  0  0  0  0  0  0  0  0  0
   60.4180   31.5630   50.4930 N   0  0  0  0  0  0  0  0  0  0  0  0
   59.1010   31.7150   50.1950 C   0  0  0  0  0  0  0  0  0  0  0  0
   58.0580   31.2060   51.1180 C   0  0  0  0  0  0  0  0  0  0  0  0
   57.0330   32.0540   51.5770 C   0  0  0  0  0  0  0  0  0  0  0  0
   56.0470   31.5710   52.4430 C   0  0  0  0  0  0  0  0  0  0  0  0
   56.0570   30.2280   52.8520 C   0  0  0  0  0  0  0  0  0  0  0  0
   55.0590   29.6990   53.7360 N   0  0  0  0  0  0  0  0  0  0  0  0
   53.9220   28.9130   53.3520 C   0  0  0  0  0  0  0  0  0  0  0  0
   53.6250   27.8970   54.0330 O   0  0  0  0  0  0  0  0  0  0  0  0
   53.0940   29.2670   52.2340 N   0  0  0  0  0  0  0  0  0  0  0  0
   52.4150   30.3690   52.0680 C   0  0  0  0  0  0  0  0  0  0  0  0
   51.6340   30.9460   53.0910 C   0  0  0  0  0  0  0  0  0  0  0  0
   50.9310   32.1260   52.8360 C   0  0  0  0  0  0  0  0  0  0  0  0
   51.0120   32.7220   51.6180 N   0  0  0  0  0  0  0  0  0  0  0  0
   51.7720   32.2000   50.6200 C   0  0  0  0  0  0  0  0  0  0  0  0
   52.4920   31.0210   50.8310 C   0  0  0  0  0  0  0  0  0  0  0  0
   57.0910   29.3900   52.4210 C   0  0  0  0  0  0  0  0  0  0  0  0
   58.0780   29.8690   51.5560 C   0  0  0  0  0  0  0  0  0  0  0  0
   58.7520   32.3400   49.0400 N   0  0  0  0  0  0  0  0  0  0  0  0
   59.7000   32.8120   48.1870 C   0  0  0  0  0  0  0  0  0  0  0  0
   59.3160   33.4760   46.9640 N   0  0  0  0  0  0  0  0  0  0  0  0
   60.2900   34.3200   46.2570 C   0  0  0  0  0  0  0  0  0  0  0  0
   59.5720   35.3320   45.3580 C   0  0  0  0  0  0  0  0  0  0  0  0
   58.6240   34.6850   44.5330 O   0  0  0  0  0  0  0  0  0  0  0  0
   57.5910   34.1480   45.3350 C   0  0  0  0  0  0  0  0  0  0  0  0
   58.1240   33.0280   46.2310 C   0  0  0  0  0  0  0  0  0  0  0  0
   61.0130   32.6520   48.5020 N   0  0  0  0  0  0  0  0  0  0  0  0
   64.6057   32.7124   49.6895 H   0  0  0  0  0  0  0  0  0  0  0  0
   64.1096   31.5083   48.4523 H   0  0  0  0  0  0  0  0  0  0  0  0
   63.3788   33.1492   48.4523 H   0  0  0  0  0  0  0  0  0  0  0  0
   57.0072   33.1046   51.2521 H   0  0  0  0  0  0  0  0  0  0  0  0
   55.2590   32.2473   52.8059 H   0  0  0  0  0  0  0  0  0  0  0  0
   51.5789   30.4707   54.0815 H   0  0  0  0  0  0  0  0  0  0  0  0
   50.3092   32.5744   53.6249 H   0  0  0  0  0  0  0  0  0  0  0  0
   51.8206   32.7061   49.6446 H   0  0  0  0  0  0  0  0  0  0  0  0
   53.1179   30.6060   50.0272 H   0  0  0  0  0  0  0  0  0  0  0  0
   57.1272   28.3461   52.7658 H   0  0  0  0  0  0  0  0  0  0  0  0
   58.8776   29.1952   51.2144 H   0  0  0  0  0  0  0  0  0  0  0  0
   60.9021   34.8609   46.9937 H   0  0  0  0  0  0  0  0  0  0  0  0
   60.9278   33.6785   45.6311 H   0  0  0  0  0  0  0  0  0  0  0  0
   59.0568   36.0722   45.9878 H   0  0  0  0  0  0  0  0  0  0  0  0
   60.3174   35.8270   44.7182 H   0  0  0  0  0  0  0  0  0  0  0  0
   57.1726   34.9461   45.9659 H   0  0  0  0  0  0  0  0  0  0  0  0
   56.8138   33.7326   44.6767 H   0  0  0  0  0  0  0  0  0  0  0  0
   57.3442   32.7388   46.9509 H   0  0  0  0  0  0  0  0  0  0  0  0
   58.3970   32.1688   45.6007 H   0  0  0  0  0  0  0  0  0  0  0  0
  1  2  1  0
  2  3  1  0
  3  4  2  0
  4  5  1  0
  5  6  1  0
  6  7  2  0
  7  8  1  0
  8  9  2  0
  9 10  1  0
 10 11  1  0
 11 12  2  0
 11 13  1  0
 13 14  2  3
 14 15  1  0
 15 16  2  0
 16 17  1  0
 17 18  1  0
 18 19  2  0
  9 20  1  0
 20 21  2  0
  5 22  2  0
 22 23  1  0
 23 24  1  0
 24 25  1  0
 25 26  1  0
 26 27  1  0
 27 28  1  0
 28 29  1  0
 23 30  2  0
 30  3  1  0
 21  6  1  0
 29 24  1  0
 19 14  1  0
  1 31  1  0
  1 32  1  0
  1 33  1  0
  7 34  1  0
  8 35  1  0
 15 36  1  0
 16 37  1  0
 18 38  1  0
 19 39  1  0
 20 40  1  0
 21 41  1  0
 25 42  1  0
 25 43  1  0
 26 44  1  0
 26 45  1  0
 28 46  1  0
 28 47  1  0
 29 48  1  0
 29 49  1  0
M  CHG  2  10  -1  17  -1
M  END
>  <UniqueID>  (2) 
2

>  <SMILES>  (2) 
COc1nc(-c2ccc([N-]C(=O)N=c3cc[n-]cc3)cc2)nc(N2CCOCC2)n1

>  <Energy>  (2) 
66.04276428349651

>  <Genealogy>  (2) 
COc1nc(-c2ccc([N-]C(=O)N=c3cc[n-]cc3)cc2)nc(N2CCOCC2)n1 (protonated)
COc1nc(-c2ccc([N-]C(=O)N=c3cc[n-]cc3)cc2)nc(N2CCOCC2)n1 (3D coordinates assigned)
COc1nc(-c2ccc([N-]C(=O)N=c3cc[n-]cc3)cc2)nc(N2CCOCC2)n1 (nonaromatic ring conformer: 66.04276428349651 kcal/mol)

>  <smiles>  (2) 
COc1nc(-c2ccc(NC(=O)N=c3cc[nH]cc3)cc2)nc(N2CCOCC2)n1

>  <score_type>  (2) 
oracle

>  <origin>  (2) 
adg

>  <m_score__min__energy>  (2) 
-11.08

>  <m_primary>  (2) 
energy

$$$$
2:0
     RDKit          3D

 41 43  0  0  0  0  0  0  0  0999 V2000
   57.3900   32.0130   41.7960 C   0  0  0  0  0  0  0  0  0  0  0  0
   58.2530   32.7160   42.6840 O   0  0  0  0  0  0  0  0  0  0  0  0
   58.1520   32.6900   44.0850 C   0  0  0  0  0  0  0  0  0  0  0  0
   58.0550   33.8740   44.8440 C   0  0  0  0  0  0  0  0  0  0  0  0
   58.0060   33.8170   46.2390 C   0  0  0  0  0  0  0  0  0  0  0  0
   58.0600   32.5860   46.8920 C   0  0  0  0  0  0  0  0  0  0  0  0
   58.1500   31.4050   46.1520 C   0  0  0  0  0  0  0  0  0  0  0  0
   58.1700   31.4440   44.7500 C   0  0  0  0  0  0  0  0  0  0  0  0
   58.2650   30.2090   44.0210 N   0  0  0  0  0  0  0  0  0  0  0  0
   58.1220   28.9080   44.6170 C   0  0  0  0  0  0  0  0  0  0  0  0
   59.2180   28.0490   44.7690 C   0  0  0  0  0  0  0  0  0  0  0  0
   59.0370   26.7960   45.3550 C   0  0  0  0  0  0  0  0  0  0  0  0
   57.7990   26.3850   45.7680 N   0  0  0  0  0  0  0  0  0  0  0  0
   57.6670   25.0770   46.4280 C   0  0  0  0  0  0  0  0  0  0  0  0
   57.4910   23.9910   45.4000 C   0  0  0  0  0  0  0  0  0  0  0  0
   58.4100   22.9320   45.3170 C   0  0  0  0  0  0  0  0  0  0  0  0
   58.2640   21.9480   44.3340 C   0  0  0  0  0  0  0  0  0  0  0  0
   57.2060   22.0170   43.4240 C   0  0  0  0  0  0  0  0  0  0  0  0
   56.2920   23.0720   43.4950 C   0  0  0  0  0  0  0  0  0  0  0  0
   56.4350   24.0580   44.4760 C   0  0  0  0  0  0  0  0  0  0  0  0
   56.7110   27.2090   45.6080 C   0  0  0  0  0  0  0  0  0  0  0  0
   55.5650   26.8420   45.9880 O   0  0  0  0  0  0  0  0  0  0  0  0
   56.8580   28.4710   45.0230 C   0  0  0  0  0  0  0  0  0  0  0  0
   56.6663   31.4235   42.3780 H   0  0  0  0  0  0  0  0  0  0  0  0
   56.8512   32.7326   41.1620 H   0  0  0  0  0  0  0  0  0  0  0  0
   57.9857   31.3399   41.1620 H   0  0  0  0  0  0  0  0  0  0  0  0
   58.0177   34.8484   44.3349 H   0  0  0  0  0  0  0  0  0  0  0  0
   57.9246   34.7452   46.8236 H   0  0  0  0  0  0  0  0  0  0  0  0
   58.0317   32.5451   47.9909 H   0  0  0  0  0  0  0  0  0  0  0  0
   58.2056   30.4374   46.6723 H   0  0  0  0  0  0  0  0  0  0  0  0
   58.5120   30.2610   43.0060 H   0  0  0  0  0  0  0  0  0  0  0  0
   60.2163   28.3608   44.4281 H   0  0  0  0  0  0  0  0  0  0  0  0
   59.9017   26.1290   45.4869 H   0  0  0  0  0  0  0  0  0  0  0  0
   58.5728   24.8750   47.0185 H   0  0  0  0  0  0  0  0  0  0  0  0
   56.7857   25.0944   47.0860 H   0  0  0  0  0  0  0  0  0  0  0  0
   59.2476   22.8764   46.0278 H   0  0  0  0  0  0  0  0  0  0  0  0
   58.9836   21.1180   44.2771 H   0  0  0  0  0  0  0  0  0  0  0  0
   57.0925   21.2415   42.6522 H   0  0  0  0  0  0  0  0  0  0  0  0
   55.4593   23.1267   42.7784 H   0  0  0  0  0  0  0  0  0  0  0  0
   55.7172   24.8901   44.5245 H   0  0  0  0  0  0  0  0  0  0  0  0
   55.9800   29.1186   44.8827 H   0  0  0  0  0  0  0  0  0  0  0  0
  1  2  1  0
  2  3  1  0
  3  4  2  0
  4  5  1  0
  5  6  2  0
  6  7  1  0
  7  8  2  0
  8  9  1  0
  9 10  1  0
 10 11  1  0
 11 12  2  0
 12 13  1  0
 13 14  1  0
 14 15  1  0
 15 16  2  0
 16 17  1  0
 17 18  2  0
 18 19  1  0
 19 20  2  0
 13 21  1  0
 21 22  2  0
 21 23  1  0
  8  3  1  0
 23 10  2  0
 20 15  1  0
  1 24  1  0
  1 25  1  0
  1 26  1  0
  4 27  1  0
  5 28  1  0
  6 29  1  0
  7 30  1  0
  9 31  1  0
 11 32  1  0
 12 33  1  0
 14 34  1  0
 14 35  1  0
 16 36  1  0
 17 37  1  0
 18 38  1  0
 19 39  1  0
 20 40  1  0
 23 41  1  0
M  END
>  <UniqueID>  (3) 
3

>  <SMILES>  (3) 
COc1ccccc1Nc1ccn(Cc2ccccc2)c(=O)c1

>  <Energy>  (3) 
50.51044876758835

>  <Genealogy>  (3) 
COc1ccccc1Nc1ccn(Cc2ccccc2)c(=O)c1 (3D coordinates assigned)
COc1ccccc1Nc1ccn(Cc2ccccc2)c(=O)c1 (optimized conformer: 50.51044876758835 kcal/mol)

>  <smiles>  (3) 
COc1ccccc1Nc1ccn(Cc2ccccc2)c(=O)c1

>  <score_type>  (3) 
oracle

>  <origin>  (3) 
adg

>  <m_score__min__energy>  (3) 
-8.0999999999999996

>  <m_primary>  (3) 
energy

$$$$
3:0
     RDKit          3D

 47 50  0  0  0  0  0  0  0  0999 V2000
   57.3220   28.5400   44.1580 O   0  0  0  0  0  0  0  0  0  0  0  0
   56.7060   29.5430   44.5750 N   0  0  0  0  0  0  0  0  0  0  0  0
   55.3650   29.4240   44.8620 O   0  0  0  0  0  0  0  0  0  0  0  0
   57.3840   30.7990   44.7530 C   0  0  0  0  0  0  0  0  0  0  0  0
   57.4120   31.7530   43.7190 C   0  0  0  0  0  0  0  0  0  0  0  0
   58.0730   32.9720   43.8950 C   0  0  0  0  0  0  0  0  0  0  0  0
   58.7190   33.2600   45.1070 C   0  0  0  0  0  0  0  0  0  0  0  0
   59.4540   34.5580   45.2890 C   0  0  0  0  0  0  0  0  0  0  0  0
   59.5740   35.0030   47.0590 S   0  0  0  0  0  0  0  0  0  0  0  0
   61.0850   34.0780   47.3630 C   0  0  0  0  0  0  0  0  0  0  0  0
   61.8830   33.6140   46.3870 N   0  0  0  0  0  0  0  0  0  0  0  0
   62.9140   33.0100   46.9510 N   0  0  0  0  0  0  0  0  0  0  0  0
   62.7190   33.0940   48.2840 C   0  0  0  0  0  0  0  0  0  0  0  0
   63.6690   32.5350   49.2620 C   0  0  0  0  0  0  0  0  0  0  0  0
   63.3130   31.4480   50.0730 C   0  0  0  0  0  0  0  0  0  0  0  0
   64.2460   30.9270   50.9720 C   0  0  0  0  0  0  0  0  0  0  0  0
   65.4950   31.4600   51.0460 N   0  0  0  0  0  0  0  0  0  0  0  0
   65.8720   32.5010   50.2560 C   0  0  0  0  0  0  0  0  0  0  0  0
   64.9690   33.0510   49.3430 C   0  0  0  0  0  0  0  0  0  0  0  0
   61.5730   33.7570   48.5800 N   0  0  0  0  0  0  0  0  0  0  0  0
   61.0370   34.1500   49.8890 C   0  0  0  0  0  0  0  0  0  0  0  0
   59.9110   33.2410   50.3030 C   0  0  0  0  0  0  0  0  0  0  0  0
   59.1740   33.5060   51.4690 C   0  0  0  0  0  0  0  0  0  0  0  0
   58.1370   32.6510   51.8580 C   0  0  0  0  0  0  0  0  0  0  0  0
   57.8240   31.5320   51.0810 C   0  0  0  0  0  0  0  0  0  0  0  0
   56.8210   30.7020   51.4590 F   0  0  0  0  0  0  0  0  0  0  0  0
   58.5440   31.2690   49.9120 C   0  0  0  0  0  0  0  0  0  0  0  0
   59.5800   32.1210   49.5200 C   0  0  0  0  0  0  0  0  0  0  0  0
   58.6930   32.3120   46.1400 C   0  0  0  0  0  0  0  0  0  0  0  0
   58.0320   31.0930   45.9660 C   0  0  0  0  0  0  0  0  0  0  0  0
   56.9096   31.5377   42.7644 H   0  0  0  0  0  0  0  0  0  0  0  0
   58.0869   33.7095   43.0790 H   0  0  0  0  0  0  0  0  0  0  0  0
   60.4678   34.4582   44.8740 H   0  0  0  0  0  0  0  0  0  0  0  0
   58.8988   35.3506   44.7660 H   0  0  0  0  0  0  0  0  0  0  0  0
   61.7420   33.7160   45.3580 H   0  0  0  0  0  0  0  0  0  0  0  0
   62.3069   31.0091   50.0017 H   0  0  0  0  0  0  0  0  0  0  0  0
   63.9700   30.0835   51.6218 H   0  0  0  0  0  0  0  0  0  0  0  0
   66.8898   32.9106   50.3361 H   0  0  0  0  0  0  0  0  0  0  0  0
   65.2764   33.8831   48.6925 H   0  0  0  0  0  0  0  0  0  0  0  0
   61.8399   34.0933   50.6387 H   0  0  0  0  0  0  0  0  0  0  0  0
   60.6509   35.1775   49.8167 H   0  0  0  0  0  0  0  0  0  0  0  0
   59.4131   34.3896   52.0790 H   0  0  0  0  0  0  0  0  0  0  0  0
   57.5677   32.8595   52.7758 H   0  0  0  0  0  0  0  0  0  0  0  0
   58.2946   30.3899   49.2996 H   0  0  0  0  0  0  0  0  0  0  0  0
   60.1388   31.9146   48.5952 H   0  0  0  0  0  0  0  0  0  0  0  0
   59.1963   32.5293   47.0937 H   0  0  0  0  0  0  0  0  0  0  0  0
   58.0185   30.3578   46.7841 H   0  0  0  0  0  0  0  0  0  0  0  0
  1  2  2  0
  2  3  1  0
  2  4  1  0
  4  5  2  0
  5  6  1  0
  6  7  2  0
  7  8  1  0
  8  9  1  0
  9 10  1  0
 10 11  2  0
 11 12  1  0
 12 13  2  0
 13 14  1  0
 14 15  2  0
 15 16  1  0
 16 17  2  0
 17 18  1  0
 18 19  2  0
 13 20  1  0
 20 21  1  0
 21 22  1  0
 22 23  2  0
 23 24  1  0
 24 25  2  0
 25 26  1  0
 25 27  1  0
 27 28  2  0
  7 29  1  0
 29 30  2  0
 30  4  1  0
 20 10  1  0
 28 22  1  0
 19 14  1  0
  5 31  1  0
  6 32  1  0
  8 33  1  0
  8 34  1  0
 11 35  1  0
 15 36  1  0
 16 37  1  0
 18 38  1  0
 19 39  1  0
 21 40  1  0
 21 41  1  0
 23 42  1  0
 24 43  1  0
 27 44  1  0
 28 45  1  0
 29 46  1  0
 30 47  1  0
M  CHG  3   2   1   3  -1  11   1
M  END
>  <UniqueID>  (4) 
4

>  <SMILES>  (4) 
O=[N+]([O-])c1ccc(CSc2[nH+]nc(-c3ccncc3)n2Cc2ccc(F)cc2)cc1

>  <Energy>  (4) 
87.3290581660093

>  <Genealogy>  (4) 
O=[N+]([O-])c1ccc(CSc2[nH+]nc(-c3ccncc3)n2Cc2ccc(F)cc2)cc1 (protonated)
O=[N+]([O-])c1ccc(CSc2[nH+]nc(-c3ccncc3)n2Cc2ccc(F)cc2)cc1 (3D coordinates assigned)
O=[N+]([O-])c1ccc(CSc2[nH+]nc(-c3ccncc3)n2Cc2ccc(F)cc2)cc1 (optimized conformer: 87.3290581660093 kcal/mol)

>  <smiles>  (4) 
O=[N+]([O-])c1ccc(CSc2nnc(-c3ccncc3)n2Cc2ccc(F)cc2)cc1

>  <score_type>  (4) 
oracle

>  <origin>  (4) 
adg

>  <m_score__min__energy>  (4) 
-7.79

>  <m_primary>  (4) 
energy

$$$$
4:0
     RDKit          3D

 45 48  0  0  0  0  0  0  0  0999 V2000
   59.7090   33.8340   49.5790 C   0  0  0  0  0  0  0  0  0  0  0  0
   60.9250   33.9260   48.8700 O   0  0  0  0  0  0  0  0  0  0  0  0
   61.5850   32.6730   48.8470 C   0  0  0  0  0  0  0  0  0  0  0  0
   60.6740   31.6170   48.2300 C   0  0  0  0  0  0  0  0  0  0  0  0
   60.6040   31.8110   46.8180 O   0  0  0  0  0  0  0  0  0  0  0  0
   59.7080   32.6780   46.1730 C   0  0  0  0  0  0  0  0  0  0  0  0
   60.1200   34.0060   45.9940 C   0  0  0  0  0  0  0  0  0  0  0  0
   59.2630   34.9480   45.4220 C   0  0  0  0  0  0  0  0  0  0  0  0
   57.9860   34.5710   45.0110 C   0  0  0  0  0  0  0  0  0  0  0  0
   57.5700   33.2450   45.1490 C   0  0  0  0  0  0  0  0  0  0  0  0
   58.4250   32.2830   45.7120 C   0  0  0  0  0  0  0  0  0  0  0  0
   57.9880   30.8740   45.7050 C   0  0  0  0  0  0  0  0  0  0  0  0
   58.4380   29.9980   46.7050 C   0  0  0  0  0  0  0  0  0  0  0  0
   58.0400   28.6590   46.6990 C   0  0  0  0  0  0  0  0  0  0  0  0
   57.1940   28.1710   45.6890 C   0  0  0  0  0  0  0  0  0  0  0  0
   56.7700   26.7530   45.6850 C   0  0  0  0  0  0  0  0  0  0  0  0
   55.5010   26.3600   45.9830 N   0  0  0  0  0  0  0  0  0  0  0  0
   55.5690   25.0270   45.8590 C   0  0  0  0  0  0  0  0  0  0  0  0
   54.5470   24.0990   46.0500 C   0  0  0  0  0  0  0  0  0  0  0  0
   54.8590   22.7390   45.8610 C   0  0  0  0  0  0  0  0  0  0  0  0
   56.1660   22.3480   45.4900 C   0  0  0  0  0  0  0  0  0  0  0  0
   57.1730   23.3160   45.3070 C   0  0  0  0  0  0  0  0  0  0  0  0
   56.8270   24.6520   45.5020 C   0  0  0  0  0  0  0  0  0  0  0  0
   57.6150   25.7290   45.3840 N   0  0  0  0  0  0  0  0  0  0  0  0
   56.7570   29.0480   44.6810 C   0  0  0  0  0  0  0  0  0  0  0  0
   57.1540   30.3890   44.6850 C   0  0  0  0  0  0  0  0  0  0  0  0
   56.7120   31.2170   43.7060 F   0  0  0  0  0  0  0  0  0  0  0  0
   59.9127   33.8494   50.6599 H   0  0  0  0  0  0  0  0  0  0  0  0
   59.0653   34.6860   49.3150 H   0  0  0  0  0  0  0  0  0  0  0  0
   59.2008   32.8948   49.3150 H   0  0  0  0  0  0  0  0  0  0  0  0
   62.5043   32.7561   48.2487 H   0  0  0  0  0  0  0  0  0  0  0  0
   61.8363   32.3774   49.8763 H   0  0  0  0  0  0  0  0  0  0  0  0
   61.0776   30.6160   48.4424 H   0  0  0  0  0  0  0  0  0  0  0  0
   59.6661   31.7068   48.6615 H   0  0  0  0  0  0  0  0  0  0  0  0
   61.1298   34.3092   46.3077 H   0  0  0  0  0  0  0  0  0  0  0  0
   59.5961   35.9887   45.2956 H   0  0  0  0  0  0  0  0  0  0  0  0
   57.3051   35.3184   44.5776 H   0  0  0  0  0  0  0  0  0  0  0  0
   56.5643   32.9513   44.8140 H   0  0  0  0  0  0  0  0  0  0  0  0
   59.1067   30.3673   47.4965 H   0  0  0  0  0  0  0  0  0  0  0  0
   58.3916   27.9815   47.4911 H   0  0  0  0  0  0  0  0  0  0  0  0
   53.5341   24.4172   46.3377 H   0  0  0  0  0  0  0  0  0  0  0  0
   54.0802   21.9753   46.0030 H   0  0  0  0  0  0  0  0  0  0  0  0
   56.3978   21.2827   45.3435 H   0  0  0  0  0  0  0  0  0  0  0  0
   58.1952   23.0279   45.0206 H   0  0  0  0  0  0  0  0  0  0  0  0
   56.0976   28.6766   43.8828 H   0  0  0  0  0  0  0  0  0  0  0  0
  1  2  1  0
  2  3  1  0
  3  4  1  0
  4  5  1  0
  5  6  1  0
  6  7  2  0
  7  8  1  0
  8  9  2  0
  9 10  1  0
 10 11  2  0
 11 12  1  0
 12 13  2  0
 13 14  1  0
 14 15  2  0
 15 16  1  0
 16 17  2  0
 17 18  1  0
 18 19  2  0
 19 20  1  0
 20 21  2  0
 21 22  1  0
 22 23  2  0
 23 24  1  0
 15 25  1  0
 25 26  2  0
 26 27  1  0
 11  6  1  0
 26 12  1  0
 24 16  1  0
 23 18  1  0
  1 28  1  0
  1 29  1  0
  1 30  1  0
  3 31  1  0
  3 32  1  0
  4 33  1  0
  4 34  1  0
  7 35  1  0
  8 36  1  0
  9 37  1  0
 10 38  1  0
 13 39  1  0
 14 40  1  0
 19 41  1  0
 20 42  1  0
 21 43  1  0
 22 44  1  0
 25 45  1  0
M  CHG  1  24  -1
M  END
>  <UniqueID>  (5) 
5

>  <SMILES>  (5) 
COCCOc1ccccc1-c1ccc(-c2nc3ccccc3[n-]2)cc1F

>  <Energy>  (5) 
96.95857574591987

>  <Genealogy>  (5) 
COCCOc1ccccc1-c1ccc(-c2nc3ccccc3[n-]2)cc1F (protonated)
COCCOc1ccccc1-c1ccc(-c2nc3ccccc3[n-]2)cc1F (3D coordinates assigned)
COCCOc1ccccc1-c1ccc(-c2nc3ccccc3[n-]2)cc1F (optimized conformer: 96.95857574591987 kcal/mol)

>  <smiles>  (5) 
COCCOc1ccccc1-c1ccc(-c2nc3ccccc3[nH]2)cc1F

>  <score_type>  (5) 
oracle

>  <origin>  (5) 
adg

>  <m_score__min__energy>  (5) 
-8.9199999999999999

>  <m_primary>  (5) 
energy

$$$$
5:0
     RDKit          3D

 55 57  0  0  0  0  0  0  0  0999 V2000
   59.0520   30.1140   49.1930 C   0  0  0  0  0  0  0  0  0  0  0  0
   60.2240   29.2650   48.9120 N   0  0  0  0  0  0  0  0  0  0  0  0
   61.3160   29.5540   49.8710 C   0  0  0  0  0  0  0  0  0  0  0  0
   61.5900   31.0630   49.8930 C   0  0  0  0  0  0  0  0  0  0  0  0
   63.0820   31.3770   50.1260 C   0  0  0  0  0  0  0  0  0  0  0  0
   63.5270   32.7130   49.6410 N   0  0  0  0  0  0  0  0  0  0  0  0
   63.8440   32.7700   48.1930 C   0  0  0  0  0  0  0  0  0  0  0  0
   62.6070   32.8980   47.2860 C   0  0  0  0  0  0  0  0  0  0  0  0
   61.5120   33.6050   47.9520 N   0  0  0  0  0  0  0  0  0  0  0  0
   60.2330   33.6840   47.2920 C   0  0  0  0  0  0  0  0  0  0  0  0
   59.0630   33.2500   47.9400 C   0  0  0  0  0  0  0  0  0  0  0  0
   57.8220   33.3510   47.3040 C   0  0  0  0  0  0  0  0  0  0  0  0
   57.7360   33.8820   46.0120 C   0  0  0  0  0  0  0  0  0  0  0  0
   58.8920   34.3140   45.3580 C   0  0  0  0  0  0  0  0  0  0  0  0
   60.1350   34.2190   45.9940 C   0  0  0  0  0  0  0  0  0  0  0  0
   61.8340   34.5280   49.0430 C   0  0  0  0  0  0  0  0  0  0  0  0
   62.6890   33.8450   50.1290 C   0  0  0  0  0  0  0  0  0  0  0  0
   60.6650   29.4140   47.5030 C   0  0  0  0  0  0  0  0  0  0  0  0
   59.4680   29.4710   46.5890 C   0  0  0  0  0  0  0  0  0  0  0  0
   58.5710   28.3890   46.5290 C   0  0  0  0  0  0  0  0  0  0  0  0
   57.4520   28.4440   45.6940 C   0  0  0  0  0  0  0  0  0  0  0  0
   57.2120   29.5890   44.9180 C   0  0  0  0  0  0  0  0  0  0  0  0
   56.0460   29.6540   44.0750 C   0  0  0  0  0  0  0  0  0  0  0  0
   55.1080   29.7060   43.3970 N   0  0  0  0  0  0  0  0  0  0  0  0
   58.1000   30.6680   44.9700 C   0  0  0  0  0  0  0  0  0  0  0  0
   59.2240   30.6120   45.8010 C   0  0  0  0  0  0  0  0  0  0  0  0
   58.9206   30.2092   50.2810 H   0  0  0  0  0  0  0  0  0  0  0  0
   59.2074   31.1105   48.7539 H   0  0  0  0  0  0  0  0  0  0  0  0
   58.1536   29.6558   48.7539 H   0  0  0  0  0  0  0  0  0  0  0  0
   61.0192   29.2204   50.8763 H   0  0  0  0  0  0  0  0  0  0  0  0
   62.2267   29.0201   49.5619 H   0  0  0  0  0  0  0  0  0  0  0  0
   61.2831   31.4936   48.9284 H   0  0  0  0  0  0  0  0  0  0  0  0
   61.0174   31.4998   50.7245 H   0  0  0  0  0  0  0  0  0  0  0  0
   63.2771   31.3241   51.2073 H   0  0  0  0  0  0  0  0  0  0  0  0
   63.6471   30.6345   49.5435 H   0  0  0  0  0  0  0  0  0  0  0  0
   64.4590   32.8410   50.1090 H   0  0  0  0  0  0  0  0  0  0  0  0
   64.4947   33.6389   48.0153 H   0  0  0  0  0  0  0  0  0  0  0  0
   64.3301   31.8173   47.9358 H   0  0  0  0  0  0  0  0  0  0  0  0
   62.8877   33.4520   46.3781 H   0  0  0  0  0  0  0  0  0  0  0  0
   62.2583   31.8841   47.0404 H   0  0  0  0  0  0  0  0  0  0  0  0
   59.1245   32.8282   48.9541 H   0  0  0  0  0  0  0  0  0  0  0  0
   56.9115   33.0125   47.8201 H   0  0  0  0  0  0  0  0  0  0  0  0
   56.7591   33.9590   45.5122 H   0  0  0  0  0  0  0  0  0  0  0  0
   58.8254   34.7295   44.3417 H   0  0  0  0  0  0  0  0  0  0  0  0
   61.0416   34.5649   45.4758 H   0  0  0  0  0  0  0  0  0  0  0  0
   62.3922   35.3832   48.6343 H   0  0  0  0  0  0  0  0  0  0  0  0
   60.8916   34.8588   49.5039 H   0  0  0  0  0  0  0  0  0  0  0  0
   63.3567   34.6021   50.5660 H   0  0  0  0  0  0  0  0  0  0  0  0
   61.9836   33.4182   50.8572 H   0  0  0  0  0  0  0  0  0  0  0  0
   61.2461   30.3423   47.3999 H   0  0  0  0  0  0  0  0  0  0  0  0
   61.2877   28.5501   47.2273 H   0  0  0  0  0  0  0  0  0  0  0  0
   58.7516   27.4944   47.1430 H   0  0  0  0  0  0  0  0  0  0  0  0
   56.7596   27.5907   45.6447 H   0  0  0  0  0  0  0  0  0  0  0  0
   57.9144   31.5621   44.3566 H   0  0  0  0  0  0  0  0  0  0  0  0
   59.9201   31.4629   45.8389 H   0  0  0  0  0  0  0  0  0  0  0  0
  1  2  1  0
  2  3  1  0
  3  4  1  0
  4  5  1  0
  5  6  1  0
  6  7  1  0
  7  8  1  0
  8  9  1  0
  9 10  1  0
 10 11  2  0
 11 12  1  0
 12 13  2  0
 13 14  1  0
 14 15  2  0
  9 16  1  0
 16 17  1  0
  2 18  1  0
 18 19  1  0
 19 20  2  0
 20 21  1  0
 21 22  2  0
 22 23  1  0
 23 24  3  0
 22 25  1  0
 25 26  2  0
 17  6  1  0
 26 19  1  0
 15 10  1  0
  1 27  1  0
  1 28  1  0
  1 29  1  0
  3 30  1  0
  3 31  1  0
  4 32  1  0
  4 33  1  0
  5 34  1  0
  5 35  1  0
  6 36  1  0
  7 37  1  0
  7 38  1  0
  8 39  1  0
  8 40  1  0
 11 41  1  0
 12 42  1  0
 13 43  1  0
 14 44  1  0
 15 45  1  0
 16 46  1  0
 16 47  1  0
 17 48  1  0
 17 49  1  0
 18 50  1  0
 18 51  1  0
 20 52  1  0
 21 53  1  0
 25 54  1  0
 26 55  1  0
M  CHG  1   6   1
M  END
>  <UniqueID>  (6) 
6

>  <SMILES>  (6) 
CN(CCC[NH+]1CCN(c2ccccc2)CC1)Cc1ccc(C#N)cc1

>  <Energy>  (6) 
69.1541219072564

>  <Genealogy>  (6) 
CN(CCC[NH+]1CCN(c2ccccc2)CC1)Cc1ccc(C#N)cc1 (protonated)
CN(CCC[NH+]1CCN(c2ccccc2)CC1)Cc1ccc(C#N)cc1 (3D coordinates assigned)
CN(CCC[NH+]1CCN(c2ccccc2)CC1)Cc1ccc(C#N)cc1 (nonaromatic ring conformer: 69.1541219072564 kcal/mol)

>  <smiles>  (6) 
CN(CCCN1CCN(c2ccccc2)CC1)Cc1ccc(C#N)cc1

>  <score_type>  (6) 
oracle

>  <origin>  (6) 
adg

>  <m_score__min__energy>  (6) 
-5.9900000000000002

>  <m_primary>  (6) 
energy

$$$$
6:0
     RDKit          3D

 40 41  0  0  0  0  0  0  0  0999 V2000
   54.8413   24.7529   46.3697 H   0  0  0  0  0  0  0  0  0  0  0  0
   55.7100   25.3670   46.0900 C   0  0  0  0  0  0  0  0  0  0  0  0
   55.5760   26.7150   45.9690 N   0  0  0  0  0  0  0  0  0  0  0  0
   56.6110   27.5250   45.6250 C   0  0  0  0  0  0  0  0  0  0  0  0
   56.3950   28.8060   45.5370 N   0  0  0  0  0  0  0  0  0  0  0  0
   57.4050   29.8630   45.6230 C   0  0  0  0  0  0  0  0  0  0  0  0
   57.4395   30.2469   46.6533 H   0  0  0  0  0  0  0  0  0  0  0  0
   58.3817   29.4437   45.3398 H   0  0  0  0  0  0  0  0  0  0  0  0
   57.0630   31.0230   44.6600 C   0  0  1  0  0  0  0  0  0  0  0  0
   55.9790   31.2054   44.7023 H   0  0  0  0  0  0  0  0  0  0  0  0
   57.8240   32.2480   45.1080 C   0  0  0  0  0  0  0  0  0  0  0  0
   57.2450   33.8260   45.0320 S   0  0  0  0  0  0  0  0  0  0  0  0
   58.5820   34.5500   45.7500 C   0  0  0  0  0  0  0  0  0  0  0  0
   58.7095   35.6266   45.9360 H   0  0  0  0  0  0  0  0  0  0  0  0
   59.4980   33.5550   46.0680 C   0  0  0  0  0  0  0  0  0  0  0  0
   60.4651   33.7596   46.5505 H   0  0  0  0  0  0  0  0  0  0  0  0
   59.0750   32.2680   45.7170 C   0  0  0  0  0  0  0  0  0  0  0  0
   59.6716   31.3629   45.9038 H   0  0  0  0  0  0  0  0  0  0  0  0
   57.3610   30.7000   43.2340 N   0  0  0  0  0  0  0  0  0  0  0  0
   57.4600   31.9340   42.4280 C   0  0  0  0  0  0  0  0  0  0  0  0
   57.5298   32.8043   43.0971 H   0  0  0  0  0  0  0  0  0  0  0  0
   58.3572   31.8865   41.7934 H   0  0  0  0  0  0  0  0  0  0  0  0
   56.5667   32.0301   41.7934 H   0  0  0  0  0  0  0  0  0  0  0  0
   56.3190   29.8400   42.6380 C   0  0  0  0  0  0  0  0  0  0  0  0
   55.7374   29.3600   43.4389 H   0  0  0  0  0  0  0  0  0  0  0  0
   55.6500   30.4524   42.0156 H   0  0  0  0  0  0  0  0  0  0  0  0
   56.7934   29.0670   42.0156 H   0  0  0  0  0  0  0  0  0  0  0  0
   57.8730   26.9520   45.3740 C   0  0  0  0  0  0  0  0  0  0  0  0
   58.7242   27.5884   45.0903 H   0  0  0  0  0  0  0  0  0  0  0  0
   58.0350   25.5710   45.4880 C   0  0  0  0  0  0  0  0  0  0  0  0
   59.0166   25.1177   45.2858 H   0  0  0  0  0  0  0  0  0  0  0  0
   56.9540   24.7560   45.8590 C   0  0  0  0  0  0  0  0  0  0  0  0
   57.1300   23.2880   45.9740 C   0  0  0  0  0  0  0  0  0  0  0  0
   57.3870   22.7830   47.1010 O   0  0  0  0  0  0  0  0  0  0  0  0
   56.9960   22.4300   44.8300 N   0  0  0  0  0  0  0  0  0  0  0  0
   56.6260   22.8050   43.9290 H   0  0  0  0  0  0  0  0  0  0  0  0
   57.3040   21.0060   44.9050 C   0  0  0  0  0  0  0  0  0  0  0  0
   57.3701   20.7002   45.9596 H   0  0  0  0  0  0  0  0  0  0  0  0
   56.5092   20.4322   44.4060 H   0  0  0  0  0  0  0  0  0  0  0  0
   58.2649   20.8119   44.4060 H   0  0  0  0  0  0  0  0  0  0  0  0
  1  2  1  0
  2  3  1  0
  3  4  1  0
  4  5  2  0
  5  6  1  0
  6  7  1  0
  6  8  1  0
  6  9  1  0
  9 10  1  6
  9 11  1  0
 11 12  1  0
 12 13  1  0
 13 14  1  0
 13 15  2  0
 15 16  1  0
 15 17  1  0
 17 18  1  0
  9 19  1  0
 19 20  1  0
 20 21  1  0
 20 22  1  0
 20 23  1  0
 19 24  1  0
 24 25  1  0
 24 26  1  0
 24 27  1  0
  4 28  1  0
 28 29  1  0
 28 30  2  0
 30 31  1  0
 30 32  1  0
 32 33  1  0
 33 34  2  0
 33 35  1  0
 35 36  1  0
 35 37  1  0
 37 38  1  0
 37 39  1  0
 37 40  1  0
 32  2  2  0
 17 11  2  0
M  CHG  1   3  -1
M  END
>  <UniqueID>  (7) 
7

>  <SMILES>  (7) 
CNC(=O)c1cc/c(=N\C[C@@H](c2cccs2)N(C)C)[n-]c1

>  <Energy>  (7) 
69.21952229147284

>  <Genealogy>  (7) 
CNC(=O)c1ccc(=NCC(c2cccs2)N(C)C)[n-]c1 (protonated)
CNC(=O)c1ccc(=NC[C@@H](c2cccs2)N(C)C)[n-]c1 (chirality)
CNC(=O)c1cc/c(=N\C[C@@H](c2cccs2)N(C)C)[n-]c1 (cis-trans isomerization)
CNC(=O)c1cc/c(=N\C[C@@H](c2cccs2)N(C)C)[n-]c1 (3D coordinates assigned)
CNC(=O)c1cc/c(=N\C[C@@H](c2cccs2)N(C)C)[n-]c1 (optimized conformer: 69.21952229147284 kcal/mol)

>  <smiles>  (7) 
CNC(=O)c1ccc(=NCC(c2cccs2)N(C)C)[nH]c1

>  <score_type>  (7) 
oracle

>  <origin>  (7) 
adg

>  <m_score__min__energy>  (7) 
-8.4800000000000004

>  <m_primary>  (7) 
energy

$$$$
7:0
     RDKit          3D

 41 44  0  0  1  0  0  0  0  0999 V2000
   54.6710   25.1100   45.6230 C   0  0  0  0  0  0  0  0  0  0  0  0
   55.1920   26.3470   45.9950 O   0  0  0  0  0  0  0  0  0  0  0  0
   56.5320   26.6430   46.1980 C   0  0  0  0  0  0  0  0  0  0  0  0
   57.3030   25.7490   46.9170 C   0  0  0  0  0  0  0  0  0  0  0  0
   58.6350   26.0490   47.1160 C   0  0  0  0  0  0  0  0  0  0  0  0
   59.2210   27.2120   46.6210 C   0  0  0  0  0  0  0  0  0  0  0  0
   58.3960   28.0570   45.9130 C   0  0  0  0  0  0  0  0  0  0  0  0
   57.0590   27.8080   45.6840 C   0  0  0  0  0  0  0  0  0  0  0  0
   56.2420   28.7850   44.8940 C   0  0  0  0  0  0  0  0  0  0  0  0
   56.6690   30.1180   45.2450 N   0  0  0  0  0  0  0  0  0  0  0  0
   57.1270   30.9540   44.3900 C   0  0  0  0  0  0  0  0  0  0  0  0
   56.9100   30.8280   43.0690 N   0  0  0  0  0  0  0  0  0  0  0  0
   57.4210   31.7510   42.2300 C   0  0  0  0  0  0  0  0  0  0  0  0
   58.1540   32.8090   42.6920 N   0  0  0  0  0  0  0  0  0  0  0  0
   58.3920   32.9680   44.0120 C   0  0  0  0  0  0  0  0  0  0  0  0
   59.1310   34.0370   44.5080 C   0  0  0  0  0  0  0  0  0  0  0  0
   59.3490   34.1610   45.8770 C   0  0  0  0  0  0  0  0  0  0  0  0
   58.8030   33.1880   46.6800 C   0  0  0  0  0  0  0  0  0  0  0  0
   59.0150   33.2960   48.1090 C   0  0  0  0  0  0  0  0  0  0  0  0
   58.5340   32.4930   49.1640 C   0  0  0  0  0  0  0  0  0  0  0  0
   58.9610   32.9270   50.3330 N   0  0  0  0  0  0  0  0  0  0  0  0
   59.6050   33.7770   50.6340 C   0  0  0  0  0  0  0  0  0  0  0  0
   60.0220   34.5750   48.9390 S   0  0  0  0  0  0  0  0  0  0  0  0
   58.0800   32.1420   46.2080 C   0  0  0  0  0  0  0  0  0  0  0  0
   57.8600   32.0130   44.8520 C   0  0  0  0  0  0  0  0  0  0  0  0
   54.4263   24.5291   46.5245 H   0  0  0  0  0  0  0  0  0  0  0  0
   53.7599   25.2606   45.0254 H   0  0  0  0  0  0  0  0  0  0  0  0
   55.4153   24.5634   45.0254 H   0  0  0  0  0  0  0  0  0  0  0  0
   56.8664   24.8232   47.3197 H   0  0  0  0  0  0  0  0  0  0  0  0
   59.2572   25.3438   47.6866 H   0  0  0  0  0  0  0  0  0  0  0  0
   60.2838   27.4424   46.7866 H   0  0  0  0  0  0  0  0  0  0  0  0
   58.8280   28.9835   45.5069 H   0  0  0  0  0  0  0  0  0  0  0  0
   56.3968   28.6156   43.8182 H   0  0  0  0  0  0  0  0  0  0  0  0
   55.1732   28.6567   45.1201 H   0  0  0  0  0  0  0  0  0  0  0  0
   57.2443   31.6509   41.1489 H   0  0  0  0  0  0  0  0  0  0  0  0
   58.5260   33.4930   42.0020 H   0  0  0  0  0  0  0  0  0  0  0  0
   59.5441   34.7862   43.8166 H   0  0  0  0  0  0  0  0  0  0  0  0
   59.9295   34.9963   46.2957 H   0  0  0  0  0  0  0  0  0  0  0  0
   57.8847   31.6155   49.0284 H   0  0  0  0  0  0  0  0  0  0  0  0
   59.9225   34.0835   51.6416 H   0  0  0  0  0  0  0  0  0  0  0  0
   57.6694   31.3972   46.9056 H   0  0  0  0  0  0  0  0  0  0  0  0
  1  2  1  0
  2  3  1  0
  3  4  2  0
  4  5  1  0
  5  6  2  0
  6  7  1  0
  7  8  2  0
  8  9  1  0
  9 10  1  0
 10 11  2  0
 11 12  1  0
 12 13  2  0
 13 14  1  0
 14 15  1  0
 15 16  2  0
 16 17  1  0
 17 18  2  0
 18 19  1  0
 19 20  2  0
 20 21  1  0
 21 22  2  0
 22 23  1  0
 18 24  1  0
 24 25  2  0
  8  3  1  0
 25 11  1  0
 25 15  1  0
 23 19  1  0
  1 26  1  0
  1 27  1  0
  1 28  1  0
  4 29  1  0
  5 30  1  0
  6 31  1  0
  7 32  1  0
  9 33  1  0
  9 34  1  0
 13 35  1  0
 14 36  1  0
 16 37  1  0
 17 38  1  0
 20 39  1  0
 22 40  1  0
 24 41  1  0
M  END
>  <smiles>  (8) 
COc1ccccc1CN=c1nc[nH]c2ccc(-c3cncs3)cc12

>  <score_type>  (8) 
oracle

>  <origin>  (8) 
adg

>  <m_score__min__energy>  (8) 
-8.3800000000000008

>  <m_primary>  (8) 
energy

$$$$
8:0
     RDKit          3D

 36 39  0  0  0  0  0  0  0  0999 V2000
   54.8060   26.9720   53.5180 C   0  0  0  0  0  0  0  0  0  0  0  0
   54.8500   28.4280   53.1900 C   0  0  0  0  0  0  0  0  0  0  0  0
   55.9730   29.1860   53.2370 N   0  0  0  0  0  0  0  0  0  0  0  0
   55.6570   30.4110   52.8310 N   0  0  0  0  0  0  0  0  0  0  0  0
   56.6270   31.4950   52.6930 C   0  0  0  0  0  0  0  0  0  0  0  0
   57.5790   31.1910   51.5790 C   0  0  0  0  0  0  0  0  0  0  0  0
   57.5630   30.0610   50.8930 O   0  0  0  0  0  0  0  0  0  0  0  0
   58.5440   30.1130   50.0260 C   0  0  0  0  0  0  0  0  0  0  0  0
   58.9080   29.1430   49.0940 C   0  0  0  0  0  0  0  0  0  0  0  0
   60.0070   29.4140   48.2590 C   0  0  0  0  0  0  0  0  0  0  0  0
   60.7120   30.6350   48.3760 C   0  0  0  0  0  0  0  0  0  0  0  0
   61.7710   30.8810   47.5650 F   0  0  0  0  0  0  0  0  0  0  0  0
   60.3210   31.5950   49.3270 C   0  0  0  0  0  0  0  0  0  0  0  0
   59.2270   31.2960   50.1370 C   0  0  0  0  0  0  0  0  0  0  0  0
   58.6160   32.0110   51.1420 C   0  0  0  0  0  0  0  0  0  0  0  0
   59.1040   33.7390   51.7980 Br  0  0  0  0  0  0  0  0  0  0  0  0
   54.3490   30.4370   52.5030 C   0  0  0  0  0  0  0  0  0  0  0  0
   53.5890   31.4930   51.9950 C   0  0  0  0  0  0  0  0  0  0  0  0
   52.2270   31.2510   51.7030 C   0  0  0  0  0  0  0  0  0  0  0  0
   51.3820   32.3380   51.1610 C   0  0  0  0  0  0  0  0  0  0  0  0
   51.3840   32.5960   49.9280 O   0  0  0  0  0  0  0  0  0  0  0  0
   50.5740   33.0890   52.0060 O   0  0  0  0  0  0  0  0  0  0  0  0
   51.6790   29.9570   51.9290 C   0  0  0  0  0  0  0  0  0  0  0  0
   52.4770   28.9160   52.4390 C   0  0  0  0  0  0  0  0  0  0  0  0
   53.8100   29.2010   52.7150 C   0  0  0  0  0  0  0  0  0  0  0  0
   54.8021   26.8422   54.6103 H   0  0  0  0  0  0  0  0  0  0  0  0
   53.8940   26.5277   53.0927 H   0  0  0  0  0  0  0  0  0  0  0  0
   55.6895   26.4735   53.0927 H   0  0  0  0  0  0  0  0  0  0  0  0
   56.0962   32.4330   52.4729 H   0  0  0  0  0  0  0  0  0  0  0  0
   57.1907   31.5970   53.6321 H   0  0  0  0  0  0  0  0  0  0  0  0
   58.3539   28.1962   49.0139 H   0  0  0  0  0  0  0  0  0  0  0  0
   60.3204   28.6717   47.5101 H   0  0  0  0  0  0  0  0  0  0  0  0
   60.8600   32.5486   49.4278 H   0  0  0  0  0  0  0  0  0  0  0  0
   54.0369   32.4836   51.8271 H   0  0  0  0  0  0  0  0  0  0  0  0
   50.6193   29.7684   51.7024 H   0  0  0  0  0  0  0  0  0  0  0  0
   52.0612   27.9126   52.6131 H   0  0  0  0  0  0  0  0  0  0  0  0
  1  2  1  0
  2  3  2  0
  3  4  1  0
  4  5  1  0
  5  6  1  0
  6  7  1  0
  7  8  1  0
  8  9  2  0
  9 10  1  0
 10 11  2  0
 11 12  1  0
 11 13  1  0
 13 14  2  0
 14 15  1  0
 15 16  1  0
  4 17  1  0
 17 18  2  0
 18 19  1  0
 19 20  1  0
 20 21  2  0
 20 22  1  0
 19 23  2  0
 23 24  1  0
 24 25  2  0
 25  2  1  0
 15  6  2  0
 25 17  1  0
 14  8  1  0
  1 26  1  0
  1 27  1  0
  1 28  1  0
  5 29  1  0
  5 30  1  0
  9 31  1  0
 10 32  1  0
 13 33  1  0
 18 34  1  0
 23 35  1  0
 24 36  1  0
M  CHG  1  22  -1
M  END
>  <UniqueID>  (9) 
8

>  <SMILES>  (9) 
Cc1nn(Cc2oc3ccc(F)cc3c2Br)c2cc(C(=O)[O-])ccc12

>  <Energy>  (9) 
110.61726928576395

>  <Genealogy>  (9) 
Cc1nn(Cc2oc3ccc(F)cc3c2Br)c2cc(C(=O)[O-])ccc12 (protonated)
Cc1nn(Cc2oc3ccc(F)cc3c2Br)c2cc(C(=O)[O-])ccc12 (3D coordinates assigned)
Cc1nn(Cc2oc3ccc(F)cc3c2Br)c2cc(C(=O)[O-])ccc12 (optimized conformer: 110.61726928576395 kcal/mol)

>  <smiles>  (9) 
Cc1nn(Cc2oc3ccc(F)cc3c2Br)c2cc(C(=O)O)ccc12

>  <score_type>  (9) 
oracle

>  <origin>  (9) 
adg

>  <m_score__min__energy>  (9) 
-11.369999999999999

>  <m_primary>  (9) 
energy

$$$$
9:0
     RDKit          3D

 37 39  0  0  0  0  0  0  0  0999 V2000
   56.4350   26.2660   46.0180 C   0  0  0  0  0  0  0  0  0  0  0  0
   57.9140   26.4070   46.0010 C   0  0  0  0  0  0  0  0  0  0  0  0
   58.6160   25.2580   46.3930 C   0  0  0  0  0  0  0  0  0  0  0  0
   59.9900   25.2300   46.3710 C   0  0  0  0  0  0  0  0  0  0  0  0
   60.6140   26.3380   45.9640 N   0  0  0  0  0  0  0  0  0  0  0  0
   59.9650   27.4680   45.5800 C   0  0  0  0  0  0  0  0  0  0  0  0
   60.8480   28.6070   45.2200 C   0  0  0  0  0  0  0  0  0  0  0  0
   58.5710   27.5550   45.5800 C   0  0  0  0  0  0  0  0  0  0  0  0
   57.8660   28.7940   45.2650 C   0  0  0  0  0  0  0  0  0  0  0  0
   58.3610   30.0470   45.6560 C   0  0  0  0  0  0  0  0  0  0  0  0
   57.7570   31.2290   45.2830 C   0  0  0  0  0  0  0  0  0  0  0  0
   58.2400   32.5440   45.6700 C   0  0  0  0  0  0  0  0  0  0  0  0
   58.5130   33.5580   44.7790 C   0  0  0  0  0  0  0  0  0  0  0  0
   58.9710   34.7910   45.2090 C   0  0  0  0  0  0  0  0  0  0  0  0
   59.1770   35.0560   46.5460 C   0  0  0  0  0  0  0  0  0  0  0  0
   58.9060   34.0430   47.4450 C   0  0  0  0  0  0  0  0  0  0  0  0
   58.4540   32.8340   47.0100 C   0  0  0  0  0  0  0  0  0  0  0  0
   56.6570   31.1480   44.5150 N   0  0  0  0  0  0  0  0  0  0  0  0
   56.1490   29.9740   44.1170 C   0  0  0  0  0  0  0  0  0  0  0  0
   55.0750   29.9360   43.3670 N   0  0  0  0  0  0  0  0  0  0  0  0
   56.7590   28.8430   44.4980 N   0  0  0  0  0  0  0  0  0  0  0  0
   56.0818   26.2323   47.0592 H   0  0  0  0  0  0  0  0  0  0  0  0
   55.9789   27.1247   45.5037 H   0  0  0  0  0  0  0  0  0  0  0  0
   56.1493   25.3366   45.5037 H   0  0  0  0  0  0  0  0  0  0  0  0
   58.0599   24.3678   46.7223 H   0  0  0  0  0  0  0  0  0  0  0  0
   60.5509   24.3341   46.6753 H   0  0  0  0  0  0  0  0  0  0  0  0
   61.2199   29.0868   46.1373 H   0  0  0  0  0  0  0  0  0  0  0  0
   61.6988   28.2385   44.6281 H   0  0  0  0  0  0  0  0  0  0  0  0
   60.2791   29.3391   44.6281 H   0  0  0  0  0  0  0  0  0  0  0  0
   59.2639   30.0880   46.2830 H   0  0  0  0  0  0  0  0  0  0  0  0
   58.3639   33.3842   43.7031 H   0  0  0  0  0  0  0  0  0  0  0  0
   59.1753   35.5772   44.4673 H   0  0  0  0  0  0  0  0  0  0  0  0
   59.5432   36.0366   46.8840 H   0  0  0  0  0  0  0  0  0  0  0  0
   59.0565   34.2141   48.5212 H   0  0  0  0  0  0  0  0  0  0  0  0
   58.2491   32.0514   47.7553 H   0  0  0  0  0  0  0  0  0  0  0  0
   55.0970   29.5450   42.4180 H   0  0  0  0  0  0  0  0  0  0  0  0
   56.2760   27.9540   44.1730 H   0  0  0  0  0  0  0  0  0  0  0  0
  1  2  1  0
  2  3  2  0
  3  4  1  0
  4  5  2  0
  5  6  1  0
  6  7  1  0
  6  8  2  0
  8  9  1  0
  9 10  2  0
 10 11  1  0
 11 12  1  0
 12 13  2  0
 13 14  1  0
 14 15  2  0
 15 16  1  0
 16 17  2  0
 11 18  2  0
 18 19  1  0
 19 20  2  3
 19 21  1  0
  8  2  1  0
 21  9  1  0
 17 12  1  0
  1 22  1  0
  1 23  1  0
  1 24  1  0
  3 25  1  0
  4 26  1  0
  7 27  1  0
  7 28  1  0
  7 29  1  0
 10 30  1  0
 13 31  1  0
 14 32  1  0
 15 33  1  0
 16 34  1  0
 17 35  1  0
 20 36  1  0
 21 37  1  0
M  END
>  <smiles>  (10) 
Cc1ccnc(C)c1-c1cc(-c2ccccc2)nc(=N)[nH]1

>  <score_type>  (10) 
oracle

>  <origin>  (10) 
adg

>  <m_score__min__energy>  (10) 
-8.1300000000000008

>  <m_primary>  (10) 
energy

$$$$
10:0
     RDKit          3D

 41 42  0  0  0  0  0  0  0  0999 V2000
   63.3830   33.8440   46.3270 C   0  0  0  0  0  0  0  0  0  0  0  0
   63.4020   32.5470   47.1290 C   0  0  0  0  0  0  0  0  0  0  0  0
   63.5400   32.8270   48.6310 C   0  0  0  0  0  0  0  0  0  0  0  0
   62.9530   34.1900   49.0310 C   0  0  0  0  0  0  0  0  0  0  0  0
   61.5100   34.0830   49.4570 C   0  0  0  0  0  0  0  0  0  0  0  0
   60.3890   34.2840   48.6640 C   0  0  0  0  0  0  0  0  0  0  0  0
   60.3520   34.5520   47.1860 C   0  0  0  0  0  0  0  0  0  0  0  0
   59.3550   33.6500   46.5090 C   0  0  0  0  0  0  0  0  0  0  0  0
   59.4110   32.2590   46.6870 C   0  0  0  0  0  0  0  0  0  0  0  0
   58.4720   31.4290   46.0680 C   0  0  0  0  0  0  0  0  0  0  0  0
   57.4640   31.9710   45.2620 C   0  0  0  0  0  0  0  0  0  0  0  0
   56.5450   31.0960   44.6650 O   0  0  0  0  0  0  0  0  0  0  0  0
   56.7460   30.4520   43.4120 C   0  0  0  0  0  0  0  0  0  0  0  0
   57.4070   33.3660   45.0800 C   0  0  0  0  0  0  0  0  0  0  0  0
   58.3460   34.1960   45.6990 C   0  0  0  0  0  0  0  0  0  0  0  0
   59.2750   34.0830   49.3960 N   0  0  0  0  0  0  0  0  0  0  0  0
   59.7370   33.7850   50.6270 C   0  0  0  0  0  0  0  0  0  0  0  0
   58.7380   33.4100   51.8700 S   0  0  0  0  0  0  0  0  0  0  0  0
   61.0880   33.7900   50.7060 N   0  0  0  0  0  0  0  0  0  0  0  0
   61.9010   33.3820   51.8530 C   0  0  0  0  0  0  0  0  0  0  0  0
   63.3704   34.7012   47.0163 H   0  0  0  0  0  0  0  0  0  0  0  0
   64.2805   33.8963   45.6931 H   0  0  0  0  0  0  0  0  0  0  0  0
   62.4844   33.8700   45.6931 H   0  0  0  0  0  0  0  0  0  0  0  0
   62.4642   32.0006   46.9503 H   0  0  0  0  0  0  0  0  0  0  0  0
   64.2664   31.9489   46.8047 H   0  0  0  0  0  0  0  0  0  0  0  0
   63.0119   32.0384   49.1870 H   0  0  0  0  0  0  0  0  0  0  0  0
   64.6133   32.8413   48.8715 H   0  0  0  0  0  0  0  0  0  0  0  0
   63.5404   34.5977   49.8669 H   0  0  0  0  0  0  0  0  0  0  0  0
   62.9988   34.8498   48.1520 H   0  0  0  0  0  0  0  0  0  0  0  0
   60.0652   35.6002   47.0157 H   0  0  0  0  0  0  0  0  0  0  0  0
   61.3495   34.3573   46.7651 H   0  0  0  0  0  0  0  0  0  0  0  0
   60.1982   31.8195   47.3172 H   0  0  0  0  0  0  0  0  0  0  0  0
   58.5256   30.3403   46.2155 H   0  0  0  0  0  0  0  0  0  0  0  0
   57.0698   29.4144   43.5808 H   0  0  0  0  0  0  0  0  0  0  0  0
   55.8044   30.4543   42.8433 H   0  0  0  0  0  0  0  0  0  0  0  0
   57.5191   30.9895   42.8433 H   0  0  0  0  0  0  0  0  0  0  0  0
   56.6204   33.8044   44.4482 H   0  0  0  0  0  0  0  0  0  0  0  0
   58.2943   35.2847   45.5506 H   0  0  0  0  0  0  0  0  0  0  0  0
   61.3784   33.6443   52.7847 H   0  0  0  0  0  0  0  0  0  0  0  0
   62.0649   32.2948   51.8181 H   0  0  0  0  0  0  0  0  0  0  0  0
   62.8706   33.9003   51.8181 H   0  0  0  0  0  0  0  0  0  0  0  0
  1  2  1  0
  2  3  1  0
  3  4  1  0
  4  5  1  0
  5  6  2  0
  6  7  1  0
  7  8  1  0
  8  9  2  0
  9 10  1  0
 10 11  2  0
 11 12  1  0
 12 13  1  0
 11 14  1  0
 14 15  2  0
  6 16  1  0
 16 17  1  0
 17 18  2  0
 17 19  1  0
 19 20  1  0
 19  5  1  0
 15  8  1  0
  1 21  1  0
  1 22  1  0
  1 23  1  0
  2 24  1  0
  2 25  1  0
  3 26  1  0
  3 27  1  0
  4 28  1  0
  4 29  1  0
  7 30  1  0
  7 31  1  0
  9 32  1  0
 10 33  1  0
 13 34  1  0
 13 35  1  0
 13 36  1  0
 14 37  1  0
 15 38  1  0
 20 39  1  0
 20 40  1  0
 20 41  1  0
M  CHG  1  16  -1
M  END
>  <UniqueID>  (11) 
9

>  <SMILES>  (11) 
CCCCc1c(Cc2ccc(OC)cc2)[n-]c(=S)n1C

>  <Energy>  (11) 
61.2687009415983

>  <Genealogy>  (11) 
CCCCc1c(Cc2ccc(OC)cc2)[n-]c(=S)n1C (protonated)
CCCCc1c(Cc2ccc(OC)cc2)[n-]c(=S)n1C (3D coordinates assigned)
CCCCc1c(Cc2ccc(OC)cc2)[n-]c(=S)n1C (optimized conformer: 61.2687009415983 kcal/mol)

>  <smiles>  (11) 
CCCCc1c(Cc2ccc(OC)cc2)[nH]c(=S)n1C

>  <score_type>  (11) 
oracle

>  <origin>  (11) 
adg

>  <m_score__min__energy>  (11) 
-7.5300000000000002

>  <m_primary>  (11) 
energy

$$$$
11:0
     RDKit          3D

 56 60  0  0  0  0  0  0  0  0999 V2000
   59.7230   35.4880   46.1780 C   0  0  0  0  0  0  0  0  0  0  0  0
   58.7600   34.9130   47.0540 O   0  0  0  0  0  0  0  0  0  0  0  0
   57.9070   33.8770   46.6650 C   0  0  0  0  0  0  0  0  0  0  0  0
   57.3900   33.1210   47.5330 O   0  0  0  0  0  0  0  0  0  0  0  0
   57.6350   33.6930   45.2240 C   0  0  0  0  0  0  0  0  0  0  0  0
   57.9200   32.5940   44.5110 C   0  0  0  0  0  0  0  0  0  0  0  0
   57.3980   31.2500   44.8120 C   0  0  0  0  0  0  0  0  0  0  0  0
   56.3120   30.7510   44.0900 C   0  0  0  0  0  0  0  0  0  0  0  0
   55.8440   29.5010   44.3320 N   0  0  0  0  0  0  0  0  0  0  0  0
   56.3990   28.6870   45.2660 C   0  0  0  0  0  0  0  0  0  0  0  0
   55.9090   27.5370   45.4340 O   0  0  0  0  0  0  0  0  0  0  0  0
   57.5040   29.1340   46.0300 C   0  0  0  0  0  0  0  0  0  0  0  0
   58.1320   28.3440   47.0220 C   0  0  0  0  0  0  0  0  0  0  0  0
   57.7270   27.1710   47.2550 O   0  0  0  0  0  0  0  0  0  0  0  0
   59.2120   28.8700   47.7590 C   0  0  0  0  0  0  0  0  0  0  0  0
   59.8480   28.1230   48.7680 C   0  0  0  0  0  0  0  0  0  0  0  0
   60.8960   28.6780   49.5020 C   0  0  0  0  0  0  0  0  0  0  0  0
   61.3280   29.9780   49.2380 C   0  0  0  0  0  0  0  0  0  0  0  0
   60.7290   30.7360   48.2240 C   0  0  0  0  0  0  0  0  0  0  0  0
   61.2350   32.1010   47.9570 C   0  0  0  0  0  0  0  0  0  0  0  0
   61.7390   32.5490   46.7560 C   0  0  0  0  0  0  0  0  0  0  0  0
   62.1410   33.8250   46.8930 N   0  0  0  0  0  0  0  0  0  0  0  0
   61.9010   34.2170   48.1350 N   0  0  0  0  0  0  0  0  0  0  0  0
   61.3420   33.1950   48.8120 C   0  0  0  0  0  0  0  0  0  0  0  0
   60.8850   33.3200   50.2180 C   0  0  0  0  0  0  0  0  0  0  0  0
   61.8320   33.4080   51.2480 C   0  0  0  0  0  0  0  0  0  0  0  0
   61.4240   33.5340   52.5770 C   0  0  0  0  0  0  0  0  0  0  0  0
   60.0570   33.5610   52.9040 C   0  0  0  0  0  0  0  0  0  0  0  0
   59.6100   33.6750   54.2300 O   0  0  0  0  0  0  0  0  0  0  0  0
   59.3260   34.9100   54.8800 C   0  0  0  0  0  0  0  0  0  0  0  0
   59.0980   33.4740   51.8820 C   0  0  0  0  0  0  0  0  0  0  0  0
   57.7400   33.4710   52.2360 O   0  0  0  0  0  0  0  0  0  0  0  0
   56.9410   32.2960   52.3640 C   0  0  0  0  0  0  0  0  0  0  0  0
   59.5160   33.3930   50.5430 C   0  0  0  0  0  0  0  0  0  0  0  0
   59.6590   30.1840   47.4840 C   0  0  0  0  0  0  0  0  0  0  0  0
   59.0400   30.9150   46.5190 N   0  0  0  0  0  0  0  0  0  0  0  0
   57.9970   30.4390   45.7910 C   0  0  0  0  0  0  0  0  0  0  0  0
   60.5192   35.9634   46.7697 H   0  0  0  0  0  0  0  0  0  0  0  0
   60.1575   34.7014   45.5436 H   0  0  0  0  0  0  0  0  0  0  0  0
   59.2366   36.2437   45.5436 H   0  0  0  0  0  0  0  0  0  0  0  0
   57.1581   34.5289   44.6912 H   0  0  0  0  0  0  0  0  0  0  0  0
   58.5879   32.7033   43.6438 H   0  0  0  0  0  0  0  0  0  0  0  0
   55.8334   31.3749   43.3208 H   0  0  0  0  0  0  0  0  0  0  0  0
   59.5166   27.0955   48.9789 H   0  0  0  0  0  0  0  0  0  0  0  0
   61.3839   28.0884   50.2922 H   0  0  0  0  0  0  0  0  0  0  0  0
   62.1464   30.4115   49.8315 H   0  0  0  0  0  0  0  0  0  0  0  0
   61.8026   31.9568   45.8312 H   0  0  0  0  0  0  0  0  0  0  0  0
   62.9048   33.3775   51.0070 H   0  0  0  0  0  0  0  0  0  0  0  0
   62.1777   33.6127   53.3743 H   0  0  0  0  0  0  0  0  0  0  0  0
   59.3590   34.7667   55.9701 H   0  0  0  0  0  0  0  0  0  0  0  0
   60.0751   35.6599   54.5860 H   0  0  0  0  0  0  0  0  0  0  0  0
   58.3245   35.2573   54.5860 H   0  0  0  0  0  0  0  0  0  0  0  0
   56.7880   32.0710   53.4298 H   0  0  0  0  0  0  0  0  0  0  0  0
   55.9668   32.4606   51.8804 H   0  0  0  0  0  0  0  0  0  0  0  0
   57.4522   31.4505   51.8804 H   0  0  0  0  0  0  0  0  0  0  0  0
   58.7655   33.3865   49.7389 H   0  0  0  0  0  0  0  0  0  0  0  0
  1  2  1  0
  2  3  1  0
  3  4  2  0
  3  5  1  0
  5  6  2  3
  6  7  1  0
  7  8  2  0
  8  9  1  0
  9 10  1  0
 10 11  2  0
 10 12  1  0
 12 13  1  0
 13 14  2  0
 13 15  1  0
 15 16  2  0
 16 17  1  0
 17 18  2  0
 18 19  1  0
 19 20  1  0
 20 21  2  0
 21 22  1  0
 22 23  1  0
 23 24  2  0
 24 25  1  0
 25 26  2  0
 26 27  1  0
 27 28  2  0
 28 29  1  0
 29 30  1  0
 28 31  1  0
 31 32  1  0
 32 33  1  0
 31 34  2  0
 19 35  2  0
 35 36  1  0
 36 37  1  0
 37  7  1  0
 37 12  2  0
 35 15  1  0
 24 20  1  0
 34 25  1  0
  1 38  1  0
  1 39  1  0
  1 40  1  0
  5 41  1  0
  6 42  1  0
  8 43  1  0
 16 44  1  0
 17 45  1  0
 18 46  1  0
 21 47  1  0
 26 48  1  0
 27 49  1  0
 30 50  1  0
 30 51  1  0
 30 52  1  0
 33 53  1  0
 33 54  1  0
 33 55  1  0
 34 56  1  0
M  CHG  3   9  -1  22  -1  36  -1
M  END
>  <UniqueID>  (12) 
10

>  <SMILES>  (12) 
COC(=O)C=Cc1c[n-]c(=O)c2c(=O)c3cccc(-c4c[n-]nc4-c4ccc(OC)c(OC)c4)c3[n-]c12

>  <Energy>  (12) 
114.85949681756641

>  <Genealogy>  (12) 
COC(=O)C=Cc1c[n-]c(=O)c2c(=O)c3cccc(-c4c[n-]nc4-c4ccc(OC)c(OC)c4)c3[n-]c12 (protonated)
COC(=O)C=Cc1c[n-]c(=O)c2c(=O)c3cccc(-c4c[n-]nc4-c4ccc(OC)c(OC)c4)c3[n-]c12 (3D coordinates assigned)
COC(=O)C=Cc1c[n-]c(=O)c2c(=O)c3cccc(-c4c[n-]nc4-c4ccc(OC)c(OC)c4)c3[n-]c12 (optimized conformer: 114.85949681756641 kcal/mol)

>  <smiles>  (12) 
COC(=O)C=Cc1c[nH]c(=O)c2c(=O)c3cccc(-c4c[nH]nc4-c4ccc(OC)c(OC)c4)c3[nH]c12

>  <score_type>  (12) 
oracle

>  <origin>  (12) 
adg

>  <m_score__min__energy>  (12) 
-11.5

>  <m_primary>  (12) 
energy

$$$$
12:0
     RDKit          3D

 45 46  0  0  0  0  0  0  0  0999 V2000
   60.0050   21.9290   44.6590 C   0  0  0  0  0  0  0  0  0  0  0  0
   59.6030   22.9290   45.5880 O   0  0  0  0  0  0  0  0  0  0  0  0
   58.3050   23.4530   45.6750 C   0  0  0  0  0  0  0  0  0  0  0  0
   57.1670   22.6350   45.7820 C   0  0  0  0  0  0  0  0  0  0  0  0
   55.8930   23.2040   45.8530 C   0  0  0  0  0  0  0  0  0  0  0  0
   55.7320   24.6030   45.8240 C   0  0  0  0  0  0  0  0  0  0  0  0
   54.4590   25.1990   45.8400 O   0  0  0  0  0  0  0  0  0  0  0  0
   53.2750   24.5940   45.3340 C   0  0  0  0  0  0  0  0  0  0  0  0
   56.8740   25.4260   45.7520 C   0  0  0  0  0  0  0  0  0  0  0  0
   56.7620   26.8580   45.7230 N   0  0  0  0  0  0  0  0  0  0  0  0
   57.5090   27.6820   44.8140 C   0  0  0  0  0  0  0  0  0  0  0  0
   58.0470   27.1600   43.7980 O   0  0  0  0  0  0  0  0  0  0  0  0
   57.6250   29.1450   45.0310 C   0  0  0  0  0  0  0  0  0  0  0  0
   58.4960   29.6470   46.0140 C   0  0  0  0  0  0  0  0  0  0  0  0
   58.6080   31.0230   46.2270 C   0  0  0  0  0  0  0  0  0  0  0  0
   57.8590   31.9230   45.4560 C   0  0  0  0  0  0  0  0  0  0  0  0
   57.9620   33.3810   45.7010 C   0  0  0  0  0  0  0  0  0  0  0  0
   57.1370   34.3140   44.8700 C   0  0  0  0  0  0  0  0  0  0  0  0
   58.7500   33.8920   46.6070 N   0  0  0  0  0  0  0  0  0  0  0  0
   60.0060   34.5590   46.4080 C   0  0  0  0  0  0  0  0  0  0  0  0
   61.3170   33.9030   46.7270 C   0  0  0  0  0  0  0  0  0  0  0  0
   60.0050   35.7560   46.0200 O   0  0  0  0  0  0  0  0  0  0  0  0
   56.9650   31.4260   44.4960 C   0  0  0  0  0  0  0  0  0  0  0  0
   56.8520   30.0500   44.2820 C   0  0  0  0  0  0  0  0  0  0  0  0
   58.1460   24.8430   45.6530 C   0  0  0  0  0  0  0  0  0  0  0  0
   60.3611   21.0431   45.2052 H   0  0  0  0  0  0  0  0  0  0  0  0
   59.1490   21.6504   44.0268 H   0  0  0  0  0  0  0  0  0  0  0  0
   60.8156   22.3204   44.0268 H   0  0  0  0  0  0  0  0  0  0  0  0
   57.2801   21.5412   45.8100 H   0  0  0  0  0  0  0  0  0  0  0  0
   55.0088   22.5544   45.9322 H   0  0  0  0  0  0  0  0  0  0  0  0
   52.6414   24.2702   46.1729 H   0  0  0  0  0  0  0  0  0  0  0  0
   52.7254   25.3218   44.7189 H   0  0  0  0  0  0  0  0  0  0  0  0
   53.5427   23.7222   44.7189 H   0  0  0  0  0  0  0  0  0  0  0  0
   55.9730   27.2950   46.2500 H   0  0  0  0  0  0  0  0  0  0  0  0
   59.0940   28.9506   46.6202 H   0  0  0  0  0  0  0  0  0  0  0  0
   59.2878   31.4026   47.0041 H   0  0  0  0  0  0  0  0  0  0  0  0
   56.5537   34.9737   45.5292 H   0  0  0  0  0  0  0  0  0  0  0  0
   57.7984   34.9218   44.2351 H   0  0  0  0  0  0  0  0  0  0  0  0
   56.4528   33.7319   44.2351 H   0  0  0  0  0  0  0  0  0  0  0  0
   61.4402   33.8414   47.8183 H   0  0  0  0  0  0  0  0  0  0  0  0
   61.3341   32.8901   46.2983 H   0  0  0  0  0  0  0  0  0  0  0  0
   62.1379   34.4965   46.2983 H   0  0  0  0  0  0  0  0  0  0  0  0
   56.3497   32.1234   43.9086 H   0  0  0  0  0  0  0  0  0  0  0  0
   56.1529   29.6716   43.5217 H   0  0  0  0  0  0  0  0  0  0  0  0
   59.0317   25.4882   45.5566 H   0  0  0  0  0  0  0  0  0  0  0  0
  1  2  1  0
  2  3  1  0
  3  4  2  0
  4  5  1  0
  5  6  2  0
  6  7  1  0
  7  8  1  0
  6  9  1  0
  9 10  1  0
 10 11  1  0
 11 12  2  0
 11 13  1  0
 13 14  2  0
 14 15  1  0
 15 16  2  0
 16 17  1  0
 17 18  1  0
 17 19  2  3
 19 20  1  0
 20 21  1  0
 20 22  2  0
 16 23  1  0
 23 24  2  0
  9 25  2  0
 25  3  1  0
 24 13  1  0
  1 26  1  0
  1 27  1  0
  1 28  1  0
  4 29  1  0
  5 30  1  0
  8 31  1  0
  8 32  1  0
  8 33  1  0
 10 34  1  0
 14 35  1  0
 15 36  1  0
 18 37  1  0
 18 38  1  0
 18 39  1  0
 21 40  1  0
 21 41  1  0
 21 42  1  0
 23 43  1  0
 24 44  1  0
 25 45  1  0
M  END
>  <UniqueID>  (13) 
11

>  <SMILES>  (13) 
COc1ccc(OC)c(NC(=O)c2ccc(C(C)=NC(C)=O)cc2)c1

>  <Energy>  (13) 
59.29054658195415

>  <Genealogy>  (13) 
COc1ccc(OC)c(NC(=O)c2ccc(C(C)=NC(C)=O)cc2)c1 (3D coordinates assigned)
COc1ccc(OC)c(NC(=O)c2ccc(C(C)=NC(C)=O)cc2)c1 (optimized conformer: 59.29054658195415 kcal/mol)

>  <smiles>  (13) 
COc1ccc(OC)c(NC(=O)c2ccc(C(C)=NC(C)=O)cc2)c1

>  <score_type>  (13) 
oracle

>  <origin>  (13) 
adg

>  <m_score__min__energy>  (13) 
-7.54

>  <m_primary>  (13) 
energy

$$$$
13:0
     RDKit          3D

 37 38  0  0  0  0  0  0  0  0999 V2000
   61.3755   29.5645   47.5900 H   0  0  0  0  0  0  0  0  0  0  0  0
   60.7360   30.0140   46.8160 C   0  0  0  0  0  0  0  0  0  0  0  0
   60.2450   29.2570   45.8810 N   0  0  0  0  0  0  0  0  0  0  0  0
   59.0280   28.4950   45.9390 C   0  0  0  0  0  0  0  0  0  0  0  0
   57.9240   28.9570   45.2110 C   0  0  0  0  0  0  0  0  0  0  0  0
   58.0120   29.8756   44.6124 H   0  0  0  0  0  0  0  0  0  0  0  0
   56.7120   28.2620   45.2380 C   0  0  0  0  0  0  0  0  0  0  0  0
   55.8567   28.6348   44.6554 H   0  0  0  0  0  0  0  0  0  0  0  0
   56.5770   27.0970   45.9990 C   0  0  0  0  0  0  0  0  0  0  0  0
   55.3400   26.4340   45.9910 O   0  0  0  0  0  0  0  0  0  0  0  0
   55.1590   25.0750   45.6060 C   0  0  0  0  0  0  0  0  0  0  0  0
   55.0754   24.4471   46.5053 H   0  0  0  0  0  0  0  0  0  0  0  0
   54.2406   24.9826   45.0076 H   0  0  0  0  0  0  0  0  0  0  0  0
   56.0212   24.7455   45.0076 H   0  0  0  0  0  0  0  0  0  0  0  0
   57.6780   26.6340   46.7450 C   0  0  0  0  0  0  0  0  0  0  0  0
   57.5831   25.7211   47.3513 H   0  0  0  0  0  0  0  0  0  0  0  0
   58.8920   27.3290   46.7190 C   0  0  0  0  0  0  0  0  0  0  0  0
   59.7446   26.9636   47.3103 H   0  0  0  0  0  0  0  0  0  0  0  0
   60.4550   31.4700   46.8650 C   0  0  0  0  0  0  0  0  0  0  0  0
   59.1400   31.8950   46.6110 C   0  0  0  0  0  0  0  0  0  0  0  0
   58.3654   31.1469   46.3865 H   0  0  0  0  0  0  0  0  0  0  0  0
   58.7970   33.2490   46.6380 C   0  0  0  0  0  0  0  0  0  0  0  0
   57.4650   33.6040   46.3760 O   0  0  0  0  0  0  0  0  0  0  0  0
   57.0130   34.1830   45.1560 C   0  0  0  0  0  0  0  0  0  0  0  0
   56.3499   35.0324   45.3768 H   0  0  0  0  0  0  0  0  0  0  0  0
   57.8779   34.5346   44.5744 H   0  0  0  0  0  0  0  0  0  0  0  0
   56.4620   33.4292   44.5744 H   0  0  0  0  0  0  0  0  0  0  0  0
   59.7880   34.2010   46.9250 C   0  0  0  0  0  0  0  0  0  0  0  0
   59.5295   35.2699   46.9496 H   0  0  0  0  0  0  0  0  0  0  0  0
   61.0980   33.7980   47.1790 C   0  0  0  0  0  0  0  0  0  0  0  0
   61.8650   34.5541   47.4026 H   0  0  0  0  0  0  0  0  0  0  0  0
   61.4520   32.4350   47.1530 C   0  0  0  0  0  0  0  0  0  0  0  0
   62.7700   32.0210   47.4060 O   0  0  0  0  0  0  0  0  0  0  0  0
   63.7490   32.7940   48.0930 C   0  0  0  0  0  0  0  0  0  0  0  0
   63.6084   32.6830   49.1783 H   0  0  0  0  0  0  0  0  0  0  0  0
   64.7540   32.4432   47.8157 H   0  0  0  0  0  0  0  0  0  0  0  0
   63.6408   33.8530   47.8157 H   0  0  0  0  0  0  0  0  0  0  0  0
  1  2  1  0
  2  3  2  0
  3  4  1  0
  4  5  2  0
  5  6  1  0
  5  7  1  0
  7  8  1  0
  7  9  2  0
  9 10  1  0
 10 11  1  0
 11 12  1  0
 11 13  1  0
 11 14  1  0
  9 15  1  0
 15 16  1  0
 15 17  2  0
 17 18  1  0
  2 19  1  0
 19 20  2  0
 20 21  1  0
 20 22  1  0
 22 23  1  0
 23 24  1  0
 24 25  1  0
 24 26  1  0
 24 27  1  0
 22 28  2  0
 28 29  1  0
 28 30  1  0
 30 31  1  0
 30 32  2  0
 32 33  1  0
 33 34  1  0
 34 35  1  0
 34 36  1  0
 34 37  1  0
 17  4  1  0
 32 19  1  0
M  END
>  <UniqueID>  (14) 
12

>  <SMILES>  (14) 
COc1ccc(/N=C/c2cc(OC)ccc2OC)cc1

>  <Energy>  (14) 
39.98036032899178

>  <Genealogy>  (14) 
COc1ccc(/N=C/c2cc(OC)ccc2OC)cc1 (cis-trans isomerization)
COc1ccc(/N=C/c2cc(OC)ccc2OC)cc1 (3D coordinates assigned)
COc1ccc(/N=C/c2cc(OC)ccc2OC)cc1 (optimized conformer: 39.98036032899178 kcal/mol)

>  <smiles>  (14) 
COc1ccc(N=Cc2cc(OC)ccc2OC)cc1

>  <score_type>  (14) 
oracle

>  <origin>  (14) 
adg

>  <m_score__min__energy>  (14) 
-5.9400000000000004

>  <m_primary>  (14) 
energy

$$$$
14:0
     RDKit          3D

 27 28  0  0  0  0  0  0  0  0999 V2000
   59.0980   33.2590   49.0220 N   0  0  0  0  0  0  0  0  0  0  0  0
   58.8000   33.4470   47.6360 C   0  0  0  0  0  0  0  0  0  0  0  0
   59.1740   34.6330   46.9890 C   0  0  0  0  0  0  0  0  0  0  0  0
   58.8670   34.8250   45.6410 C   0  0  0  0  0  0  0  0  0  0  0  0
   58.1910   33.8310   44.9270 C   0  0  0  0  0  0  0  0  0  0  0  0
   57.8310   32.6290   45.5520 C   0  0  0  0  0  0  0  0  0  0  0  0
   57.1150   31.6320   44.8030 N   0  0  0  0  0  0  0  0  0  0  0  0
   57.4270   31.2660   43.4500 C   0  0  0  0  0  0  0  0  0  0  0  0
   58.1850   31.9880   42.7470 O   0  0  0  0  0  0  0  0  0  0  0  0
   56.8540   30.0140   42.8620 C   0  0  0  0  0  0  0  0  0  0  0  0
   57.0120   28.8810   43.8260 C   0  0  0  0  0  0  0  0  0  0  0  0
   58.2880   27.7810   43.8280 S   0  0  0  0  0  0  0  0  0  0  0  0
   57.7300   27.0110   45.2140 C   0  0  0  0  0  0  0  0  0  0  0  0
   58.2960   26.0250   45.7530 O   0  0  0  0  0  0  0  0  0  0  0  0
   56.6010   27.5680   45.7000 N   0  0  0  0  0  0  0  0  0  0  0  0
   56.2060   28.6150   44.9310 C   0  0  0  0  0  0  0  0  0  0  0  0
   55.0750   29.3600   45.2400 O   0  0  0  0  0  0  0  0  0  0  0  0
   58.1230   32.4500   46.9180 C   0  0  0  0  0  0  0  0  0  0  0  0
   58.7150   32.4400   49.5450 H   0  0  0  0  0  0  0  0  0  0  0  0
   59.7040   33.9370   49.5350 H   0  0  0  0  0  0  0  0  0  0  0  0
   59.7113   35.4150   47.5456 H   0  0  0  0  0  0  0  0  0  0  0  0
   59.1574   35.7600   45.1395 H   0  0  0  0  0  0  0  0  0  0  0  0
   57.9401   33.9932   43.8683 H   0  0  0  0  0  0  0  0  0  0  0  0
   56.2760   31.1940   45.2450 H   0  0  0  0  0  0  0  0  0  0  0  0
   55.7854   30.1663   42.6499 H   0  0  0  0  0  0  0  0  0  0  0  0
   57.3871   29.7742   41.9302 H   0  0  0  0  0  0  0  0  0  0  0  0
   57.8183   31.5226   47.4251 H   0  0  0  0  0  0  0  0  0  0  0  0
  1  2  1  0
  2  3  2  0
  3  4  1  0
  4  5  2  0
  5  6  1  0
  6  7  1  0
  7  8  1  0
  8  9  2  0
  8 10  1  0
 10 11  1  0
 11 12  1  0
 12 13  1  0
 13 14  2  0
 13 15  1  0
 15 16  1  0
 16 17  1  0
  6 18  2  0
 18  2  1  0
 16 11  2  0
  1 19  1  0
  1 20  1  0
  3 21  1  0
  4 22  1  0
  5 23  1  0
  7 24  1  0
 10 25  1  0
 10 26  1  0
 18 27  1  0
M  CHG  2  15  -1  17  -1
M  END
>  <UniqueID>  (15) 
13

>  <SMILES>  (15) 
Nc1cccc(NC(=O)Cc2sc(=O)[n-]c2[O-])c1

>  <Energy>  (15) 
58.17653723765453

>  <Genealogy>  (15) 
Nc1cccc(NC(=O)Cc2sc(=O)[n-]c2[O-])c1 (protonated)
Nc1cccc(NC(=O)Cc2sc(=O)[n-]c2[O-])c1 (3D coordinates assigned)
Nc1cccc(NC(=O)Cc2sc(=O)[n-]c2[O-])c1 (optimized conformer: 58.17653723765453 kcal/mol)

>  <smiles>  (15) 
Nc1cccc(NC(=O)Cc2sc(=O)[nH]c2O)c1

>  <score_type>  (15) 
oracle

>  <origin>  (15) 
adg

>  <m_score__min__energy>  (15) 
-13.279999999999999

>  <m_primary>  (15) 
energy

$$$$
15:0
     RDKit          3D

 53 56  0  0  0  0  0  0  0  0999 V2000
   57.9530   27.0670   46.8360 O   0  0  0  0  0  0  0  0  0  0  0  0
   56.8770   26.7600   46.2580 C   0  0  0  0  0  0  0  0  0  0  0  0
   56.1420   27.7400   45.5070 N   0  0  0  0  0  0  0  0  0  0  0  0
   56.6500   29.0200   45.0850 C   0  0  0  0  0  0  0  0  0  0  0  0
   56.0420   29.6680   43.9990 C   0  0  0  0  0  0  0  0  0  0  0  0
   56.5540   30.8730   43.5080 C   0  0  0  0  0  0  0  0  0  0  0  0
   57.6780   31.4630   44.1050 C   0  0  0  0  0  0  0  0  0  0  0  0
   58.2690   32.7450   43.5470 C   0  0  0  0  0  0  0  0  0  0  0  0
   58.2820   33.8720   44.5060 N   0  0  0  0  0  0  0  0  0  0  0  0
   57.2270   33.8100   45.5470 C   0  0  0  0  0  0  0  0  0  0  0  0
   57.8100   33.4930   46.9290 C   0  0  0  0  0  0  0  0  0  0  0  0
   58.7950   34.5200   47.3410 N   0  0  0  0  0  0  0  0  0  0  0  0
   59.6290   34.1060   48.4930 C   0  0  0  0  0  0  0  0  0  0  0  0
   60.8800   33.3420   48.1030 C   0  0  0  0  0  0  0  0  0  0  0  0
   62.1480   33.9430   48.2190 C   0  0  0  0  0  0  0  0  0  0  0  0
   63.3000   33.2390   47.8610 C   0  0  0  0  0  0  0  0  0  0  0  0
   63.1990   31.9350   47.3700 C   0  0  0  0  0  0  0  0  0  0  0  0
   61.9460   31.3370   47.2290 C   0  0  0  0  0  0  0  0  0  0  0  0
   60.7900   32.0380   47.5840 C   0  0  0  0  0  0  0  0  0  0  0  0
   59.5480   35.1400   46.2240 C   0  0  0  0  0  0  0  0  0  0  0  0
   59.6340   34.2080   45.0100 C   0  0  0  0  0  0  0  0  0  0  0  0
   58.2960   30.8120   45.1850 C   0  0  0  0  0  0  0  0  0  0  0  0
   57.7940   29.5980   45.6660 C   0  0  0  0  0  0  0  0  0  0  0  0
   56.3530   25.3920   46.3940 C   0  0  0  0  0  0  0  0  0  0  0  0
   57.0790   24.2790   46.7670 C   0  0  0  0  0  0  0  0  0  0  0  0
   56.1840   23.2310   46.7580 C   0  0  0  0  0  0  0  0  0  0  0  0
   54.9700   23.7680   46.3800 C   0  0  0  0  0  0  0  0  0  0  0  0
   55.1020   25.0580   46.1710 O   0  0  0  0  0  0  0  0  0  0  0  0
   55.1440   27.5210   45.2820 H   0  0  0  0  0  0  0  0  0  0  0  0
   55.1527   29.2231   43.5287 H   0  0  0  0  0  0  0  0  0  0  0  0
   56.0723   31.3614   42.6481 H   0  0  0  0  0  0  0  0  0  0  0  0
   59.3052   32.5420   43.2385 H   0  0  0  0  0  0  0  0  0  0  0  0
   57.6277   33.0506   42.7072 H   0  0  0  0  0  0  0  0  0  0  0  0
   56.7130   34.7815   45.5915 H   0  0  0  0  0  0  0  0  0  0  0  0
   56.5274   33.0050   45.2778 H   0  0  0  0  0  0  0  0  0  0  0  0
   56.9932   33.4629   47.6651 H   0  0  0  0  0  0  0  0  0  0  0  0
   58.3206   32.5200   46.8779 H   0  0  0  0  0  0  0  0  0  0  0  0
   59.9321   35.0089   49.0434 H   0  0  0  0  0  0  0  0  0  0  0  0
   59.0163   33.4255   49.1026 H   0  0  0  0  0  0  0  0  0  0  0  0
   62.2319   34.9737   48.5940 H   0  0  0  0  0  0  0  0  0  0  0  0
   64.2877   33.7117   47.9658 H   0  0  0  0  0  0  0  0  0  0  0  0
   64.1075   31.3794   47.0944 H   0  0  0  0  0  0  0  0  0  0  0  0
   61.8679   30.3119   46.8377 H   0  0  0  0  0  0  0  0  0  0  0  0
   59.8041   31.5670   47.4567 H   0  0  0  0  0  0  0  0  0  0  0  0
   59.0406   36.0690   45.9247 H   0  0  0  0  0  0  0  0  0  0  0  0
   60.5713   35.3435   46.5724 H   0  0  0  0  0  0  0  0  0  0  0  0
   60.2023   34.7077   44.2116 H   0  0  0  0  0  0  0  0  0  0  0  0
   60.1370   33.2785   45.3149 H   0  0  0  0  0  0  0  0  0  0  0  0
   59.1826   31.2606   45.6569 H   0  0  0  0  0  0  0  0  0  0  0  0
   58.2966   29.0921   46.5035 H   0  0  0  0  0  0  0  0  0  0  0  0
   58.1489   24.2371   47.0189 H   0  0  0  0  0  0  0  0  0  0  0  0
   56.3946   22.1794   47.0026 H   0  0  0  0  0  0  0  0  0  0  0  0
   54.0336   23.2013   46.2704 H   0  0  0  0  0  0  0  0  0  0  0  0
  1  2  2  0
  2  3  1  0
  3  4  1  0
  4  5  2  0
  5  6  1  0
  6  7  2  0
  7  8  1  0
  8  9  1  0
  9 10  1  0
 10 11  1  0
 11 12  1  0
 12 13  1  0
 13 14  1  0
 14 15  2  0
 15 16  1  0
 16 17  2  0
 17 18  1  0
 18 19  2  0
 12 20  1  0
 20 21  1  0
  7 22  1  0
 22 23  2  0
  2 24  1  0
 24 25  2  0
 25 26  1  0
 26 27  2  0
 27 28  1  0
 23  4  1  0
 28 24  1  0
 21  9  1  0
 19 14  1  0
  3 29  1  0
  5 30  1  0
  6 31  1  0
  8 32  1  0
  8 33  1  0
 10 34  1  0
 10 35  1  0
 11 36  1  0
 11 37  1  0
 13 38  1  0
 13 39  1  0
 15 40  1  0
 16 41  1  0
 17 42  1  0
 18 43  1  0
 19 44  1  0
 20 45  1  0
 20 46  1  0
 21 47  1  0
 21 48  1  0
 22 49  1  0
 23 50  1  0
 25 51  1  0
 26 52  1  0
 27 53  1  0
M  END
>  <UniqueID>  (16) 
14

>  <SMILES>  (16) 
O=C(Nc1ccc(CN2CCN(Cc3ccccc3)CC2)cc1)c1ccco1

>  <Energy>  (16) 
99.25498435448664

>  <Genealogy>  (16) 
O=C(Nc1ccc(CN2CCN(Cc3ccccc3)CC2)cc1)c1ccco1 (3D coordinates assigned)
O=C(Nc1ccc(CN2CCN(Cc3ccccc3)CC2)cc1)c1ccco1 (nonaromatic ring conformer: 99.25498435448664 kcal/mol)

>  <smiles>  (16) 
O=C(Nc1ccc(CN2CCN(Cc3ccccc3)CC2)cc1)c1ccco1

>  <score_type>  (16) 
oracle

>  <origin>  (16) 
adg

>  <m_score__min__energy>  (16) 
-10.17

>  <m_primary>  (16) 
energy

$$$$
16:0
     RDKit          3D

 70 74  0  0  0  0  0  0  0  0999 V2000
   55.9230   29.3520   43.9860 C   0  0  0  0  0  0  0  0  0  0  0  0
   55.7280   28.7040   45.2410 O   0  0  0  0  0  0  0  0  0  0  0  0
   56.3230   27.4880   45.6100 C   0  0  0  0  0  0  0  0  0  0  0  0
   55.5620   26.3280   45.8670 C   0  0  0  0  0  0  0  0  0  0  0  0
   56.1910   25.1320   46.2570 C   0  0  0  0  0  0  0  0  0  0  0  0
   55.4510   23.9330   46.5240 N   0  0  0  0  0  0  0  0  0  0  0  0
   54.8240   22.8580   45.3200 S   0  0  0  0  0  0  0  0  0  0  0  0
   55.5030   23.3080   43.7400 C   0  0  0  0  0  0  0  0  0  0  0  0
   55.2250   21.4440   45.6390 O   0  0  0  0  0  0  0  0  0  0  0  0
   53.3250   22.9700   45.2690 O   0  0  0  0  0  0  0  0  0  0  0  0
   57.5830   25.1020   46.3970 C   0  0  0  0  0  0  0  0  0  0  0  0
   58.3420   26.2460   46.1510 C   0  0  0  0  0  0  0  0  0  0  0  0
   57.7240   27.4270   45.7280 C   0  0  0  0  0  0  0  0  0  0  0  0
   58.5350   28.5840   45.4880 N   0  0  0  0  0  0  0  0  0  0  0  0
   58.7330   29.6630   46.2110 C   0  0  0  0  0  0  0  0  0  0  0  0
   58.4250   30.9980   45.7810 C   0  0  0  0  0  0  0  0  0  0  0  0
   58.1220   31.3670   44.4460 C   0  0  0  0  0  0  0  0  0  0  0  0
   57.7700   32.6830   44.1240 C   0  0  0  0  0  0  0  0  0  0  0  0
   57.7580   33.6690   45.1070 C   0  0  0  0  0  0  0  0  0  0  0  0
   58.1540   33.3570   46.4040 C   0  0  0  0  0  0  0  0  0  0  0  0
   58.5160   32.0470   46.7370 C   0  0  0  0  0  0  0  0  0  0  0  0
   59.0080   31.8090   47.9740 N   0  0  0  0  0  0  0  0  0  0  0  0
   59.4220   30.5840   48.3810 C   0  0  0  0  0  0  0  0  0  0  0  0
   59.9770   30.4170   49.6740 C   0  0  0  0  0  0  0  0  0  0  0  0
   60.2440   31.5810   50.5610 C   0  0  0  0  0  0  0  0  0  0  0  0
   59.3440   32.4490   50.7390 O   0  0  0  0  0  0  0  0  0  0  0  0
   61.5170   31.7470   51.1980 N   0  0  0  0  0  0  0  0  0  0  0  0
   61.8670   33.0040   51.8610 C   0  0  0  0  0  0  0  0  0  0  0  0
   62.3240   34.0700   50.8540 C   0  0  0  0  0  0  0  0  0  0  0  0
   62.1970   33.6120   49.4510 N   0  0  0  0  0  0  0  0  0  0  0  0
   61.0790   34.2990   48.7530 C   0  0  0  0  0  0  0  0  0  0  0  0
   61.1620   34.1890   47.2150 C   0  0  0  0  0  0  0  0  0  0  0  0
   62.0260   33.0050   46.7920 C   0  0  0  0  0  0  0  0  0  0  0  0
   63.4480   33.1480   47.3530 C   0  0  0  0  0  0  0  0  0  0  0  0
   63.4730   33.8270   48.7380 C   0  0  0  0  0  0  0  0  0  0  0  0
   60.3440   29.1280   50.0990 C   0  0  0  0  0  0  0  0  0  0  0  0
   60.1630   28.0270   49.2650 C   0  0  0  0  0  0  0  0  0  0  0  0
   59.6370   28.1920   47.9830 C   0  0  0  0  0  0  0  0  0  0  0  0
   59.2700   29.4740   47.5120 C   0  0  0  0  0  0  0  0  0  0  0  0
   56.2362   30.3928   44.1555 H   0  0  0  0  0  0  0  0  0  0  0  0
   56.7017   28.8228   43.4172 H   0  0  0  0  0  0  0  0  0  0  0  0
   54.9816   29.3404   43.4172 H   0  0  0  0  0  0  0  0  0  0  0  0
   54.4675   26.3593   45.7615 H   0  0  0  0  0  0  0  0  0  0  0  0
   56.4114   23.9101   43.8893 H   0  0  0  0  0  0  0  0  0  0  0  0
   55.7550   22.3976   43.1765 H   0  0  0  0  0  0  0  0  0  0  0  0
   54.7627   23.8949   43.1765 H   0  0  0  0  0  0  0  0  0  0  0  0
   58.0817   24.1705   46.7029 H   0  0  0  0  0  0  0  0  0  0  0  0
   59.4328   26.2191   46.2905 H   0  0  0  0  0  0  0  0  0  0  0  0
   58.1642   30.6077   43.6513 H   0  0  0  0  0  0  0  0  0  0  0  0
   57.5014   32.9396   43.0886 H   0  0  0  0  0  0  0  0  0  0  0  0
   57.4365   34.6913   44.8591 H   0  0  0  0  0  0  0  0  0  0  0  0
   58.1826   34.1444   47.1716 H   0  0  0  0  0  0  0  0  0  0  0  0
   62.1920   30.9490   51.2120 H   0  0  0  0  0  0  0  0  0  0  0  0
   60.9856   33.3792   52.4017 H   0  0  0  0  0  0  0  0  0  0  0  0
   62.6994   32.8065   52.5524 H   0  0  0  0  0  0  0  0  0  0  0  0
   61.7074   34.9709   50.9888 H   0  0  0  0  0  0  0  0  0  0  0  0
   63.3873   34.2775   51.0443 H   0  0  0  0  0  0  0  0  0  0  0  0
   60.1313   33.8499   49.0848 H   0  0  0  0  0  0  0  0  0  0  0  0
   61.1421   35.3672   49.0079 H   0  0  0  0  0  0  0  0  0  0  0  0
   60.1481   34.0561   46.8096 H   0  0  0  0  0  0  0  0  0  0  0  0
   61.6185   35.1103   46.8242 H   0  0  0  0  0  0  0  0  0  0  0  0
   61.5782   32.0757   47.1738 H   0  0  0  0  0  0  0  0  0  0  0  0
   62.0785   32.9779   45.6936 H   0  0  0  0  0  0  0  0  0  0  0  0
   63.8936   32.1464   47.4434 H   0  0  0  0  0  0  0  0  0  0  0  0
   64.0177   33.7839   46.6595 H   0  0  0  0  0  0  0  0  0  0  0  0
   64.2947   33.4020   49.3332 H   0  0  0  0  0  0  0  0  0  0  0  0
   63.6208   34.9080   48.5980 H   0  0  0  0  0  0  0  0  0  0  0  0
   60.7783   28.9876   51.0998 H   0  0  0  0  0  0  0  0  0  0  0  0
   60.4362   27.0220   49.6189 H   0  0  0  0  0  0  0  0  0  0  0  0
   59.5064   27.3153   47.3316 H   0  0  0  0  0  0  0  0  0  0  0  0
  1  2  1  0
  2  3  1  0
  3  4  2  0
  4  5  1  0
  5  6  1  0
  6  7  1  0
  7  8  1  0
  7  9  2  0
  7 10  2  0
  5 11  2  0
 11 12  1  0
 12 13  2  0
 13 14  1  0
 14 15  2  3
 15 16  1  0
 16 17  2  0
 17 18  1  0
 18 19  2  0
 19 20  1  0
 20 21  2  0
 21 22  1  0
 22 23  1  0
 23 24  2  0
 24 25  1  0
 25 26  2  0
 25 27  1  0
 27 28  1  0
 28 29  1  0
 29 30  1  0
 30 31  1  0
 31 32  1  0
 32 33  1  0
 33 34  1  0
 34 35  1  0
 24 36  1  0
 36 37  2  0
 37 38  1  0
 38 39  2  0
 13  3  1  0
 39 15  1  0
 21 16  1  0
 39 23  1  0
 35 30  1  0
  1 40  1  0
  1 41  1  0
  1 42  1  0
  4 43  1  0
  8 44  1  0
  8 45  1  0
  8 46  1  0
 11 47  1  0
 12 48  1  0
 17 49  1  0
 18 50  1  0
 19 51  1  0
 20 52  1  0
 27 53  1  0
 28 54  1  0
 28 55  1  0
 29 56  1  0
 29 57  1  0
 31 58  1  0
 31 59  1  0
 32 60  1  0
 32 61  1  0
 33 62  1  0
 33 63  1  0
 34 64  1  0
 34 65  1  0
 35 66  1  0
 35 67  1  0
 36 68  1  0
 37 69  1  0
 38 70  1  0
M  CHG  2   6  -1  22  -1
M  END
>  <UniqueID>  (17) 
15

>  <SMILES>  (17) 
COc1cc([N-]S(C)(=O)=O)ccc1N=c1c2ccccc2[n-]c2c(C(=O)NCCN3CCCCC3)cccc12

>  <Energy>  (17) 
108.20500502890776

>  <Genealogy>  (17) 
COc1cc([N-]S(C)(=O)=O)ccc1N=c1c2ccccc2[n-]c2c(C(=O)NCCN3CCCCC3)cccc12 (protonated)
COc1cc([N-]S(C)(=O)=O)ccc1N=c1c2ccccc2[n-]c2c(C(=O)NCCN3CCCCC3)cccc12 (3D coordinates assigned)
COc1cc([N-]S(C)(=O)=O)ccc1N=c1c2ccccc2[n-]c2c(C(=O)NCCN3CCCCC3)cccc12 (nonaromatic ring conformer: 108.20500502890776 kcal/mol)

>  <smiles>  (17) 
COc1cc(NS(C)(=O)=O)ccc1N=c1c2ccccc2[nH]c2c(C(=O)NCCN3CCCCC3)cccc12

>  <score_type>  (17) 
oracle

>  <origin>  (17) 
adg

>  <m_score__min__energy>  (17) 
-12.380000000000001

>  <m_primary>  (17) 
energy

$$$$
17:0
     RDKit          3D

 55 59  0  0  1  0  0  0  0  0999 V2000
   58.8140   32.6780   50.0140 C   0  0  0  0  0  0  0  0  0  0  0  0
   59.3370   33.7850   49.2700 O   0  0  0  0  0  0  0  0  0  0  0  0
   60.6410   33.7010   48.7970 C   0  0  0  0  0  0  0  0  0  0  0  0
   61.7450   33.7520   49.6310 C   0  0  0  0  0  0  0  0  0  0  0  0
   63.0350   33.6660   49.1440 C   0  0  0  0  0  0  0  0  0  0  0  0
   64.1370   33.7290   50.0990 C   0  0  0  0  0  0  0  0  0  0  0  0
   65.3360   33.0750   49.9140 C   0  0  0  0  0  0  0  0  0  0  0  0
   66.3120   33.2090   50.8920 C   0  0  0  0  0  0  0  0  0  0  0  0
   66.1120   33.9640   52.0180 C   0  0  0  0  0  0  0  0  0  0  0  0
   67.0550   34.0950   52.9680 F   0  0  0  0  0  0  0  0  0  0  0  0
   64.9080   34.6210   52.2070 C   0  0  0  0  0  0  0  0  0  0  0  0
   63.9110   34.5010   51.2360 C   0  0  0  0  0  0  0  0  0  0  0  0
   63.2470   33.5260   47.7910 C   0  0  0  0  0  0  0  0  0  0  0  0
   64.5020   33.4400   47.2940 F   0  0  0  0  0  0  0  0  0  0  0  0
   62.1550   33.4740   46.9490 C   0  0  0  0  0  0  0  0  0  0  0  0
   60.8490   33.5600   47.4410 C   0  0  0  0  0  0  0  0  0  0  0  0
   59.7920   33.4970   46.4910 N   0  0  0  0  0  0  0  0  0  0  0  0
   59.4240   34.6830   45.9370 C   0  0  0  0  0  0  0  0  0  0  0  0
   59.9930   35.7640   46.2540 O   0  0  0  0  0  0  0  0  0  0  0  0
   58.4140   34.7720   45.0020 C   0  0  0  0  0  0  0  0  0  0  0  0
   57.7670   33.6130   44.6280 C   0  0  0  0  0  0  0  0  0  0  0  0
   58.1670   32.4300   45.2130 C   0  0  0  0  0  0  0  0  0  0  0  0
   57.5150   31.2770   44.8320 C   0  0  0  0  0  0  0  0  0  0  0  0
   57.8840   30.0560   45.3950 C   0  0  0  0  0  0  0  0  0  0  0  0
   57.0070   28.6450   44.8590 S   0  0  0  0  0  0  0  0  0  0  0  0
   55.5170   28.9460   44.7950 O   0  0  0  0  0  0  0  0  0  0  0  0
   57.4390   28.2960   43.4430 O   0  0  0  0  0  0  0  0  0  0  0  0
   57.2460   27.2900   45.8770 N   0  0  0  0  0  0  0  0  0  0  0  0
   56.6820   26.1670   45.5320 C   0  0  0  0  0  0  0  0  0  0  0  0
   57.2990   25.2280   44.7470 C   0  0  0  0  0  0  0  0  0  0  0  0
   56.6080   24.0640   44.4380 C   0  0  0  0  0  0  0  0  0  0  0  0
   55.3630   23.8400   44.8860 N   0  0  0  0  0  0  0  0  0  0  0  0
   54.7710   24.7690   45.6540 C   0  0  0  0  0  0  0  0  0  0  0  0
   55.4310   25.8930   45.9550 N   0  0  0  0  0  0  0  0  0  0  0  0
   58.8940   30.0260   46.3190 C   0  0  0  0  0  0  0  0  0  0  0  0
   59.5760   31.1640   46.7280 C   0  0  0  0  0  0  0  0  0  0  0  0
   59.1790   32.3510   46.1470 C   0  0  0  0  0  0  0  0  0  0  0  0
   58.9102   32.8816   51.0907 H   0  0  0  0  0  0  0  0  0  0  0  0
   57.7530   32.5349   49.7613 H   0  0  0  0  0  0  0  0  0  0  0  0
   59.3772   31.7675   49.7613 H   0  0  0  0  0  0  0  0  0  0  0  0
   61.5903   33.8644   50.7143 H   0  0  0  0  0  0  0  0  0  0  0  0
   65.5145   32.4641   49.0168 H   0  0  0  0  0  0  0  0  0  0  0  0
   67.2747   32.6937   50.7592 H   0  0  0  0  0  0  0  0  0  0  0  0
   64.7391   35.2284   53.1084 H   0  0  0  0  0  0  0  0  0  0  0  0
   62.9481   35.0158   51.3693 H   0  0  0  0  0  0  0  0  0  0  0  0
   62.3155   33.3624   45.8665 H   0  0  0  0  0  0  0  0  0  0  0  0
   58.1320   35.7418   44.5661 H   0  0  0  0  0  0  0  0  0  0  0  0
   56.9560   33.6316   43.8851 H   0  0  0  0  0  0  0  0  0  0  0  0
   56.7069   31.3199   44.0869 H   0  0  0  0  0  0  0  0  0  0  0  0
   58.3192   25.3929   44.3701 H   0  0  0  0  0  0  0  0  0  0  0  0
   57.0946   23.3044   43.8085 H   0  0  0  0  0  0  0  0  0  0  0  0
   54.8080   22.9810   44.6790 H   0  0  0  0  0  0  0  0  0  0  0  0
   53.7510   24.6070   46.0327 H   0  0  0  0  0  0  0  0  0  0  0  0
   59.1776   29.0574   46.7566 H   0  0  0  0  0  0  0  0  0  0  0  0
   60.3854   31.1219   47.4717 H   0  0  0  0  0  0  0  0  0  0  0  0
  1  2  1  0
  2  3  1  0
  3  4  2  0
  4  5  1  0
  5  6  1  0
  6  7  2  0
  7  8  1  0
  8  9  2  0
  9 10  1  0
  9 11  1  0
 11 12  2  0
  5 13  2  0
 13 14  1  0
 13 15  1  0
 15 16  2  0
 16 17  1  0
 17 18  1  0
 18 19  2  0
 18 20  1  0
 20 21  2  0
 21 22  1  0
 22 23  2  0
 23 24  1  0
 24 25  1  0
 25 26  2  0
 25 27  2  0
 25 28  1  0
 28 29  2  0
 29 30  1  0
 30 31  2  0
 31 32  1  0
 32 33  1  0
 33 34  2  0
 24 35  2  0
 35 36  1  0
 36 37  2  0
 16  3  1  0
 37 17  1  0
 12  6  1  0
 37 22  1  0
 34 29  1  0
  1 38  1  0
  1 39  1  0
  1 40  1  0
  4 41  1  0
  7 42  1  0
  8 43  1  0
 11 44  1  0
 12 45  1  0
 15 46  1  0
 20 47  1  0
 21 48  1  0
 23 49  1  0
 30 50  1  0
 31 51  1  0
 32 52  1  0
 33 53  1  0
 35 54  1  0
 36 55  1  0
M  END
>  <smiles>  (18) 
COc1cc(-c2ccc(F)cc2)c(F)cc1-n1c(=O)ccc2cc(S(=O)(=O)N=c3cc[nH]cn3)ccc21

>  <score_type>  (18) 
oracle

>  <origin>  (18) 
adg

>  <m_score__min__energy>  (18) 
-10.49

>  <m_primary>  (18) 
energy

$$$$
18:0
     RDKit          3D

 67 73  0  0  0  0  0  0  0  0999 V2000
   57.1230   34.4300   44.8770 C   0  0  0  0  0  0  0  0  0  0  0  0
   58.2250   33.8970   45.7540 C   0  0  0  0  0  0  0  0  0  0  0  0
   58.8600   34.7890   46.6630 C   0  0  0  0  0  0  0  0  0  0  0  0
   59.8680   34.2900   47.4770 C   0  0  0  0  0  0  0  0  0  0  0  0
   60.1980   32.9690   47.4210 C   0  0  0  0  0  0  0  0  0  0  0  0
   59.6740   32.0530   46.5340 C   0  0  0  0  0  0  0  0  0  0  0  0
   58.6530   32.5240   45.6650 C   0  0  0  0  0  0  0  0  0  0  0  0
   58.0270   31.5910   44.7070 C   0  0  0  0  0  0  0  0  0  0  0  0
   58.2460   31.7070   43.4710 O   0  0  0  0  0  0  0  0  0  0  0  0
   57.1780   30.5910   45.1880 O   0  0  0  0  0  0  0  0  0  0  0  0
   57.1640   29.2680   44.6670 C   0  0  0  0  0  0  0  0  0  0  0  0
   58.1600   28.4400   45.4270 C   0  0  0  0  0  0  0  0  0  0  0  0
   57.8570   27.9610   46.7130 C   0  0  0  0  0  0  0  0  0  0  0  0
   58.8080   27.2330   47.4340 C   0  0  0  0  0  0  0  0  0  0  0  0
   60.0690   26.9880   46.8830 C   0  0  0  0  0  0  0  0  0  0  0  0
   60.3840   27.4760   45.6120 C   0  0  0  0  0  0  0  0  0  0  0  0
   59.4360   28.2050   44.8850 C   0  0  0  0  0  0  0  0  0  0  0  0
   60.3760   30.6880   46.4460 C   0  0  0  0  0  0  0  0  0  0  0  0
   61.3300   30.3640   47.6800 C   0  0  2  0  0  0  0  0  0  0  0  0
   60.4980   29.8670   48.8360 N   0  0  1  0  0  0  0  0  0  0  0  0
   61.1680   28.9620   49.8060 C   0  0  0  0  0  0  0  0  0  0  0  0
   60.9280   29.3670   51.2720 C   0  0  0  0  0  0  0  0  0  0  0  0
   62.1300   30.0090   51.9490 C   0  0  0  0  0  0  0  0  0  0  0  0
   61.7160   28.5970   52.3210 C   0  0  0  0  0  0  0  0  0  0  0  0
   59.7180   30.9290   49.5300 C   0  0  0  0  0  0  0  0  0  0  0  0
   60.4880   32.2480   49.7300 C   0  0  0  0  0  0  0  0  0  0  0  0
   61.2190   32.6920   48.4220 C   0  0  2  0  0  0  0  0  0  0  0  0
   61.8530   34.0760   48.4880 C   0  0  1  0  0  0  0  0  0  0  0  0
   60.7430   34.9710   48.3370 O   0  0  0  0  0  0  0  0  0  0  0  0
   62.7900   34.0760   49.6390 C   0  0  0  0  0  0  0  0  0  0  0  0
   62.7520   34.9260   50.5150 O   0  0  0  0  0  0  0  0  0  0  0  0
   63.8630   32.9870   49.5900 C   0  0  0  0  0  0  0  0  0  0  0  0
   63.3450   31.5800   49.0920 C   0  0  0  0  0  0  0  0  0  0  0  0
   62.2210   31.6390   47.9850 C   0  0  1  0  0  0  0  0  0  0  0  0
   62.8400   32.0410   46.7800 O   0  0  0  0  0  0  0  0  0  0  0  0
   56.3109   34.8228   45.5065 H   0  0  0  0  0  0  0  0  0  0  0  0
   57.5176   35.2368   44.2419 H   0  0  0  0  0  0  0  0  0  0  0  0
   56.7355   33.6198   44.2419 H   0  0  0  0  0  0  0  0  0  0  0  0
   58.5602   35.8459   46.7192 H   0  0  0  0  0  0  0  0  0  0  0  0
   56.1591   28.8357   44.7819 H   0  0  0  0  0  0  0  0  0  0  0  0
   57.4269   29.2833   43.5990 H   0  0  0  0  0  0  0  0  0  0  0  0
   56.8688   28.1595   47.1535 H   0  0  0  0  0  0  0  0  0  0  0  0
   58.5635   26.8523   48.4367 H   0  0  0  0  0  0  0  0  0  0  0  0
   60.8139   26.4107   47.4502 H   0  0  0  0  0  0  0  0  0  0  0  0
   61.3787   27.2868   45.1822 H   0  0  0  0  0  0  0  0  0  0  0  0
   59.6895   28.5947   43.8881 H   0  0  0  0  0  0  0  0  0  0  0  0
   59.6043   29.9060   46.3918 H   0  0  0  0  0  0  0  0  0  0  0  0
   61.0153   30.7183   45.5514 H   0  0  0  0  0  0  0  0  0  0  0  0
   62.0360   29.5499   47.4590 H   0  0  0  0  0  0  0  0  0  0  0  0
   59.7690   29.2400   48.4170 H   0  0  0  0  0  0  0  0  0  0  0  0
   60.7838   27.9421   49.6568 H   0  0  0  0  0  0  0  0  0  0  0  0
   62.2504   29.0245   49.6205 H   0  0  0  0  0  0  0  0  0  0  0  0
   59.8655   29.6191   51.1396 H   0  0  0  0  0  0  0  0  0  0  0  0
   63.0560   30.1786   51.3799 H   0  0  0  0  0  0  0  0  0  0  0  0
   62.3019   30.9412   52.5070 H   0  0  0  0  0  0  0  0  0  0  0  0
   62.3421   27.7436   52.0215 H   0  0  0  0  0  0  0  0  0  0  0  0
   61.4639   28.0829   53.2602 H   0  0  0  0  0  0  0  0  0  0  0  0
   58.8182   31.1416   48.9340 H   0  0  0  0  0  0  0  0  0  0  0  0
   59.4830   30.5445   50.5334 H   0  0  0  0  0  0  0  0  0  0  0  0
   59.7781   33.0342   50.0266 H   0  0  0  0  0  0  0  0  0  0  0  0
   61.2465   32.0884   50.5105 H   0  0  0  0  0  0  0  0  0  0  0  0
   62.5464   34.4285   47.7102 H   0  0  0  0  0  0  0  0  0  0  0  0
   64.6602   33.3204   48.9094 H   0  0  0  0  0  0  0  0  0  0  0  0
   64.2120   32.8444   50.6234 H   0  0  0  0  0  0  0  0  0  0  0  0
   64.2018   31.0268   48.6798 H   0  0  0  0  0  0  0  0  0  0  0  0
   62.8911   31.0912   49.9667 H   0  0  0  0  0  0  0  0  0  0  0  0
   63.8200   31.9140   46.8880 H   0  0  0  0  0  0  0  0  0  0  0  0
  1  2  1  0
  2  3  2  0
  3  4  1  0
  4  5  2  0
  5  6  1  0
  6  7  2  0
  7  8  1  0
  8  9  2  0
  8 10  1  0
 10 11  1  0
 11 12  1  0
 12 13  2  0
 13 14  1  0
 14 15  2  0
 15 16  1  0
 16 17  2  0
  6 18  1  0
 18 19  1  0
 19 20  1  0
 20 21  1  0
 21 22  1  0
 22 23  1  0
 23 24  1  0
 20 25  1  0
 25 26  1  0
 27 26  1  1
 27 28  1  0
 28 29  1  0
 28 30  1  0
 30 31  2  0
 30 32  1  0
 32 33  1  0
 33 34  1  0
 34 35  1  6
  7  2  1  0
 17 12  1  0
 34 19  1  0
 29  4  1  0
 27  5  1  0
 24 22  1  0
 34 27  1  0
  1 36  1  0
  1 37  1  0
  1 38  1  0
  3 39  1  0
 11 40  1  0
 11 41  1  0
 13 42  1  0
 14 43  1  0
 15 44  1  0
 16 45  1  0
 17 46  1  0
 18 47  1  0
 18 48  1  0
 19 49  1  6
 20 50  1  6
 21 51  1  0
 21 52  1  0
 22 53  1  0
 23 54  1  0
 23 55  1  0
 24 56  1  0
 24 57  1  0
 25 58  1  0
 25 59  1  0
 26 60  1  0
 26 61  1  0
 28 62  1  6
 32 63  1  0
 32 64  1  0
 33 65  1  0
 33 66  1  0
 35 67  1  0
M  CHG  1  20   1
M  END
>  <UniqueID>  (19) 
16

>  <SMILES>  (19) 
Cc1cc2c3c(c1C(=O)OCc1ccccc1)C[C@@H]1[N@@H+](CC4CC4)CCC34C(O2)C(=O)CCC14O

>  <Energy>  (19) 
424.10503365738913

>  <Genealogy>  (19) 
Cc1cc2c3c(c1C(=O)OCc1ccccc1)CC1[NH+](CC4CC4)CCC34C(O2)C(=O)CCC14O (protonated)
Cc1cc2c3c(c1C(=O)OCc1ccccc1)C[C@@H]1[N@@H+](CC4CC4)CCC34C(O2)C(=O)CCC14O (chirality)
Cc1cc2c3c(c1C(=O)OCc1ccccc1)C[C@@H]1[N@@H+](CC4CC4)CCC34C(O2)C(=O)CCC14O (3D coordinates assigned)
Cc1cc2c3c(c1C(=O)OCc1ccccc1)C[C@@H]1[N@@H+](CC4CC4)CCC34C(O2)C(=O)CCC14O (nonaromatic ring conformer: 424.10503365738913 kcal/mol)

>  <smiles>  (19) 
Cc1cc2c3c(c1C(=O)OCc1ccccc1)CC1N(CC4CC4)CCC34C(O2)C(=O)CCC14O

>  <score_type>  (19) 
oracle

>  <origin>  (19) 
adg

>  <m_score__min__energy>  (19) 
-7.5099999999999998

>  <m_primary>  (19) 
energy

$$$$
19:0
     RDKit          3D

 55 58  0  0  0  0  0  0  0  0999 V2000
   67.1720   32.5050   50.8300 C   0  0  0  0  0  0  0  0  0  0  0  0
   65.8270   32.0280   51.1330 N   0  0  0  0  0  0  0  0  0  0  0  0
   64.7130   32.1610   50.2300 C   0  0  0  0  0  0  0  0  0  0  0  0
   63.5500   31.3800   50.3680 C   0  0  0  0  0  0  0  0  0  0  0  0
   62.4850   31.5330   49.4770 C   0  0  0  0  0  0  0  0  0  0  0  0
   62.5560   32.4680   48.4300 C   0  0  0  0  0  0  0  0  0  0  0  0
   61.4210   32.6340   47.4870 C   0  0  0  0  0  0  0  0  0  0  0  0
   60.4210   31.6490   47.3920 C   0  0  0  0  0  0  0  0  0  0  0  0
   59.3530   31.8060   46.5050 C   0  0  0  0  0  0  0  0  0  0  0  0
   59.2650   32.9500   45.7010 C   0  0  0  0  0  0  0  0  0  0  0  0
   57.9080   33.1710   44.6010 S   0  0  0  0  0  0  0  0  0  0  0  0
   57.2830   34.5110   44.8670 O   0  0  0  0  0  0  0  0  0  0  0  0
   58.3680   33.1230   43.1710 O   0  0  0  0  0  0  0  0  0  0  0  0
   56.7230   31.9290   44.8580 N   0  0  0  0  0  0  0  0  0  0  0  0
   56.9670   30.6570   44.7700 C   0  0  0  0  0  0  0  0  0  0  0  0
   56.0960   29.7190   45.1960 N   0  0  0  0  0  0  0  0  0  0  0  0
   56.5620   28.4550   45.0160 C   0  0  0  0  0  0  0  0  0  0  0  0
   57.8210   28.3840   44.4240 C   0  0  0  0  0  0  0  0  0  0  0  0
   58.6090   27.1300   44.1980 C   0  0  0  0  0  0  0  0  0  0  0  0
   58.1670   26.0390   45.1370 C   0  0  0  0  0  0  0  0  0  0  0  0
   58.2740   26.2110   46.5260 C   0  0  0  0  0  0  0  0  0  0  0  0
   57.8910   25.1850   47.3940 C   0  0  0  0  0  0  0  0  0  0  0  0
   57.4050   23.9720   46.8930 C   0  0  0  0  0  0  0  0  0  0  0  0
   57.0320   22.9740   47.8060 O   0  0  0  0  0  0  0  0  0  0  0  0
   55.6870   22.6360   48.1210 C   0  0  0  0  0  0  0  0  0  0  0  0
   57.3090   23.7940   45.4990 C   0  0  0  0  0  0  0  0  0  0  0  0
   57.6910   24.8210   44.6290 C   0  0  0  0  0  0  0  0  0  0  0  0
   58.3700   29.9570   44.1470 S   0  0  0  0  0  0  0  0  0  0  0  0
   60.2580   33.9320   45.7870 C   0  0  0  0  0  0  0  0  0  0  0  0
   61.3280   33.7770   46.6720 C   0  0  0  0  0  0  0  0  0  0  0  0
   63.7190   33.2480   48.2940 C   0  0  0  0  0  0  0  0  0  0  0  0
   64.7840   33.0930   49.1840 C   0  0  0  0  0  0  0  0  0  0  0  0
   67.7130   32.6969   51.7683 H   0  0  0  0  0  0  0  0  0  0  0  0
   67.7087   31.7424   50.2466 H   0  0  0  0  0  0  0  0  0  0  0  0
   67.1083   33.4354   50.2466 H   0  0  0  0  0  0  0  0  0  0  0  0
   65.6740   31.5650   52.0580 H   0  0  0  0  0  0  0  0  0  0  0  0
   63.4793   30.6444   51.1828 H   0  0  0  0  0  0  0  0  0  0  0  0
   61.5822   30.9158   49.5960 H   0  0  0  0  0  0  0  0  0  0  0  0
   60.4804   30.7484   48.0208 H   0  0  0  0  0  0  0  0  0  0  0  0
   58.5781   31.0282   46.4376 H   0  0  0  0  0  0  0  0  0  0  0  0
   55.1690   29.9350   45.6290 H   0  0  0  0  0  0  0  0  0  0  0  0
   55.9923   27.5622   45.3131 H   0  0  0  0  0  0  0  0  0  0  0  0
   58.4611   26.7941   43.1611 H   0  0  0  0  0  0  0  0  0  0  0  0
   59.6714   27.3449   44.3854 H   0  0  0  0  0  0  0  0  0  0  0  0
   58.6608   27.1570   46.9328 H   0  0  0  0  0  0  0  0  0  0  0  0
   57.9723   25.3321   48.4811 H   0  0  0  0  0  0  0  0  0  0  0  0
   55.5630   22.6048   49.2135 H   0  0  0  0  0  0  0  0  0  0  0  0
   55.0099   23.3919   47.6965 H   0  0  0  0  0  0  0  0  0  0  0  0
   55.4477   21.6498   47.6965 H   0  0  0  0  0  0  0  0  0  0  0  0
   56.9322   22.8437   45.0928 H   0  0  0  0  0  0  0  0  0  0  0  0
   57.6178   24.6727   43.5415 H   0  0  0  0  0  0  0  0  0  0  0  0
   60.1960   34.8302   45.1550 H   0  0  0  0  0  0  0  0  0  0  0  0
   62.1037   34.5546   46.7320 H   0  0  0  0  0  0  0  0  0  0  0  0
   63.7899   33.9853   47.4807 H   0  0  0  0  0  0  0  0  0  0  0  0
   65.6879   33.7081   49.0635 H   0  0  0  0  0  0  0  0  0  0  0  0
  1  2  1  0
  2  3  1  0
  3  4  2  0
  4  5  1  0
  5  6  2  0
  6  7  1  0
  7  8  2  0
  8  9  1  0
  9 10  2  0
 10 11  1  0
 11 12  2  0
 11 13  2  0
 11 14  1  0
 14 15  2  3
 15 16  1  0
 16 17  1  0
 17 18  2  0
 18 19  1  0
 19 20  1  0
 20 21  2  0
 21 22  1  0
 22 23  2  0
 23 24  1  0
 24 25  1  0
 23 26  1  0
 26 27  2  0
 18 28  1  0
 10 29  1  0
 29 30  2  0
  6 31  1  0
 31 32  2  0
 32  3  1  0
 30  7  1  0
 28 15  1  0
 27 20  1  0
  1 33  1  0
  1 34  1  0
  1 35  1  0
  2 36  1  0
  4 37  1  0
  5 38  1  0
  8 39  1  0
  9 40  1  0
 16 41  1  0
 17 42  1  0
 19 43  1  0
 19 44  1  0
 21 45  1  0
 22 46  1  0
 25 47  1  0
 25 48  1  0
 25 49  1  0
 26 50  1  0
 27 51  1  0
 29 52  1  0
 30 53  1  0
 31 54  1  0
 32 55  1  0
M  END
>  <UniqueID>  (20) 
17

>  <SMILES>  (20) 
CNc1ccc(-c2ccc(S(=O)(=O)N=c3[nH]cc(Cc4ccc(OC)cc4)s3)cc2)cc1

>  <Energy>  (20) 
94.03984770334577

>  <Genealogy>  (20) 
CNc1ccc(-c2ccc(S(=O)(=O)N=c3[nH]cc(Cc4ccc(OC)cc4)s3)cc2)cc1 (3D coordinates assigned)
CNc1ccc(-c2ccc(S(=O)(=O)N=c3[nH]cc(Cc4ccc(OC)cc4)s3)cc2)cc1 (optimized conformer: 94.03984770334577 kcal/mol)

>  <smiles>  (20) 
CNc1ccc(-c2ccc(S(=O)(=O)N=c3[nH]cc(Cc4ccc(OC)cc4)s3)cc2)cc1

>  <score_type>  (20) 
oracle

>  <origin>  (20) 
adg

>  <m_score__min__energy>  (20) 
-9.1300000000000008

>  <m_primary>  (20) 
energy

$$$$
20:0
     RDKit          3D

 27 29  0  0  0  0  0  0  0  0999 V2000
   55.6542   25.6299   46.3273 H   0  0  0  0  0  0  0  0  0  0  0  0
   56.3600   26.4350   46.0750 C   0  0  0  0  0  0  0  0  0  0  0  0
   55.8940   27.6300   45.6240 N   0  0  0  0  0  0  0  0  0  0  0  0
   56.7240   28.6610   45.3030 C   0  0  0  0  0  0  0  0  0  0  0  0
   56.1940   29.7720   44.8710 N   0  0  0  0  0  0  0  0  0  0  0  0
   56.8590   30.8240   44.1540 C   0  0  0  0  0  0  0  0  0  0  0  0
   56.8100   30.8190   42.8950 O   0  0  0  0  0  0  0  0  0  0  0  0
   57.5270   31.9480   44.8560 C   0  0  0  0  0  0  0  0  0  0  0  0
   57.7500   33.1870   44.1960 C   0  0  0  0  0  0  0  0  0  0  0  0
   57.4225   33.3154   43.1538 H   0  0  0  0  0  0  0  0  0  0  0  0
   58.3850   34.2500   44.8620 C   0  0  0  0  0  0  0  0  0  0  0  0
   58.5559   35.2134   44.3593 H   0  0  0  0  0  0  0  0  0  0  0  0
   58.7900   34.0450   46.1760 C   0  0  0  0  0  0  0  0  0  0  0  0
   58.5900   32.8640   46.8130 C   0  0  0  0  0  0  0  0  0  0  0  0
   57.9660   31.7860   46.1910 C   0  0  0  0  0  0  0  0  0  0  0  0
   57.8184   30.8346   46.7230 H   0  0  0  0  0  0  0  0  0  0  0  0
   59.0900   32.9440   48.0990 O   0  0  0  0  0  0  0  0  0  0  0  0
   59.6380   34.2570   48.2800 C   0  0  0  0  0  0  0  0  0  0  0  0
   59.1177   34.7840   49.0934 H   0  0  0  0  0  0  0  0  0  0  0  0
   60.7027   34.2252   48.5546 H   0  0  0  0  0  0  0  0  0  0  0  0
   59.4250   34.9260   47.0290 O   0  0  0  0  0  0  0  0  0  0  0  0
   58.1180   28.4780   45.4200 C   0  0  0  0  0  0  0  0  0  0  0  0
   58.8089   29.2893   45.1473 H   0  0  0  0  0  0  0  0  0  0  0  0
   58.6130   27.2580   45.8850 C   0  0  0  0  0  0  0  0  0  0  0  0
   59.6978   27.1083   45.9887 H   0  0  0  0  0  0  0  0  0  0  0  0
   57.7320   26.2290   46.2180 C   0  0  0  0  0  0  0  0  0  0  0  0
   58.1147   25.2667   46.5889 H   0  0  0  0  0  0  0  0  0  0  0  0
  1  2  1  0
  2  3  1  0
  3  4  1  0
  4  5  2  0
  5  6  1  0
  6  7  2  0
  6  8  1  0
  8  9  2  0
  9 10  1  0
  9 11  1  0
 11 12  1  0
 11 13  2  0
 13 14  1  0
 14 15  2  0
 15 16  1  0
 14 17  1  0
 17 18  1  0
 18 19  1  0
 18 20  1  0
 18 21  1  0
  4 22  1  0
 22 23  1  0
 22 24  2  0
 24 25  1  0
 24 26  1  0
 26 27  1  0
 26  2  2  0
 15  8  1  0
 21 13  1  0
M  CHG  1   3  -1
M  END
>  <UniqueID>  (21) 
18

>  <SMILES>  (21) 
O=C(/N=c1\cccc[n-]1)c1ccc2c(c1)OCO2

>  <Energy>  (21) 
68.4295090908123

>  <Genealogy>  (21) 
O=C(N=c1cccc[n-]1)c1ccc2c(c1)OCO2 (protonated)
O=C(/N=c1\cccc[n-]1)c1ccc2c(c1)OCO2 (cis-trans isomerization)
O=C(/N=c1\cccc[n-]1)c1ccc2c(c1)OCO2 (3D coordinates assigned)
O=C(/N=c1\cccc[n-]1)c1ccc2c(c1)OCO2 (nonaromatic ring conformer: 68.4295090908123 kcal/mol)

>  <smiles>  (21) 
O=C(N=c1cccc[nH]1)c1ccc2c(c1)OCO2

>  <score_type>  (21) 
oracle

>  <origin>  (21) 
adg

>  <m_score__min__energy>  (21) 
-9

>  <m_primary>  (21) 
energy

$$$$
21:0
     RDKit          3D

 45 48  0  0  0  0  0  0  0  0999 V2000
   60.3210   25.9700   46.4060 C   0  0  0  0  0  0  0  0  0  0  0  0
   59.5500   27.2200   46.0960 C   0  0  0  0  0  0  0  0  0  0  0  0
   59.1220   27.4820   44.7880 C   0  0  0  0  0  0  0  0  0  0  0  0
   58.4350   28.6630   44.4940 C   0  0  0  0  0  0  0  0  0  0  0  0
   58.1670   29.6030   45.5030 C   0  0  0  0  0  0  0  0  0  0  0  0
   57.4450   30.8570   45.1730 C   0  0  0  0  0  0  0  0  0  0  0  0
   56.2780   30.7800   44.7020 O   0  0  0  0  0  0  0  0  0  0  0  0
   58.0440   32.1910   45.4040 C   0  0  0  0  0  0  0  0  0  0  0  0
   57.4210   33.3540   44.9370 C   0  0  0  0  0  0  0  0  0  0  0  0
   58.0070   34.5910   45.1920 C   0  0  0  0  0  0  0  0  0  0  0  0
   59.2010   34.6470   45.9090 C   0  0  0  0  0  0  0  0  0  0  0  0
   59.7340   35.7660   46.1460 O   0  0  0  0  0  0  0  0  0  0  0  0
   59.7800   33.4870   46.3470 N   0  0  0  0  0  0  0  0  0  0  0  0
   61.0050   33.5060   47.0950 C   0  0  0  0  0  0  0  0  0  0  0  0
   62.2150   33.6260   46.3970 C   0  0  0  0  0  0  0  0  0  0  0  0
   63.4320   33.6020   47.0790 C   0  0  0  0  0  0  0  0  0  0  0  0
   63.4510   33.4590   48.4660 C   0  0  0  0  0  0  0  0  0  0  0  0
   62.2540   33.3520   49.1780 C   0  0  0  0  0  0  0  0  0  0  0  0
   61.0150   33.3860   48.5100 C   0  0  0  0  0  0  0  0  0  0  0  0
   59.7620   33.3210   49.3070 C   0  0  0  0  0  0  0  0  0  0  0  0
   59.4930   34.2310   50.1390 O   0  0  0  0  0  0  0  0  0  0  0  0
   58.8730   32.2030   49.1420 N   0  0  0  0  0  0  0  0  0  0  0  0
   58.2930   31.5390   50.0970 C   0  0  0  0  0  0  0  0  0  0  0  0
   57.7430   32.1110   51.2200 C   0  0  0  0  0  0  0  0  0  0  0  0
   57.2630   31.0260   51.9230 C   0  0  0  0  0  0  0  0  0  0  0  0
   57.5270   29.9320   51.2430 O   0  0  0  0  0  0  0  0  0  0  0  0
   58.1500   30.2000   50.1320 N   0  0  0  0  0  0  0  0  0  0  0  0
   59.2020   32.3060   46.1090 N   0  0  0  0  0  0  0  0  0  0  0  0
   58.6320   29.3540   46.8070 C   0  0  0  0  0  0  0  0  0  0  0  0
   59.3180   28.1710   47.1000 C   0  0  0  0  0  0  0  0  0  0  0  0
   60.3969   25.8470   47.4965 H   0  0  0  0  0  0  0  0  0  0  0  0
   59.8011   25.1020   45.9744 H   0  0  0  0  0  0  0  0  0  0  0  0
   61.3300   26.0450   45.9744 H   0  0  0  0  0  0  0  0  0  0  0  0
   59.3276   26.7548   43.9887 H   0  0  0  0  0  0  0  0  0  0  0  0
   58.1014   28.8581   43.4641 H   0  0  0  0  0  0  0  0  0  0  0  0
   56.4780   33.2914   44.3742 H   0  0  0  0  0  0  0  0  0  0  0  0
   57.5322   35.5153   44.8311 H   0  0  0  0  0  0  0  0  0  0  0  0
   62.2048   33.7400   45.3030 H   0  0  0  0  0  0  0  0  0  0  0  0
   64.3763   33.6959   46.5227 H   0  0  0  0  0  0  0  0  0  0  0  0
   64.4116   33.4304   49.0011 H   0  0  0  0  0  0  0  0  0  0  0  0
   62.2796   33.2400   50.2720 H   0  0  0  0  0  0  0  0  0  0  0  0
   57.6970   33.1759   51.4918 H   0  0  0  0  0  0  0  0  0  0  0  0
   56.7449   31.0687   52.8924 H   0  0  0  0  0  0  0  0  0  0  0  0
   58.4550   30.0943   47.6011 H   0  0  0  0  0  0  0  0  0  0  0  0
   59.6773   27.9857   48.1230 H   0  0  0  0  0  0  0  0  0  0  0  0
  1  2  1  0
  2  3  2  0
  3  4  1  0
  4  5  2  0
  5  6  1  0
  6  7  2  0
  6  8  1  0
  8  9  1  0
  9 10  2  0
 10 11  1  0
 11 12  2  0
 11 13  1  0
 13 14  1  0
 14 15  2  0
 15 16  1  0
 16 17  2  0
 17 18  1  0
 18 19  2  0
 19 20  1  0
 20 21  2  0
 20 22  1  0
 22 23  2  3
 23 24  1  0
 24 25  2  0
 25 26  1  0
 26 27  1  0
 13 28  1  0
  5 29  1  0
 29 30  2  0
 30  2  1  0
 28  8  2  0
 19 14  1  0
 27 23  1  0
  1 31  1  0
  1 32  1  0
  1 33  1  0
  3 34  1  0
  4 35  1  0
  9 36  1  0
 10 37  1  0
 15 38  1  0
 16 39  1  0
 17 40  1  0
 18 41  1  0
 24 42  1  0
 25 43  1  0
 29 44  1  0
 30 45  1  0
M  CHG  1  27  -1
M  END
>  <UniqueID>  (22) 
19

>  <SMILES>  (22) 
Cc1ccc(C(=O)c2ccc(=O)n(-c3ccccc3C(=O)N=c3cco[n-]3)n2)cc1

>  <Energy>  (22) 
98.12759465799262

>  <Genealogy>  (22) 
Cc1ccc(C(=O)c2ccc(=O)n(-c3ccccc3C(=O)N=c3cco[n-]3)n2)cc1 (protonated)
Cc1ccc(C(=O)c2ccc(=O)n(-c3ccccc3C(=O)N=c3cco[n-]3)n2)cc1 (3D coordinates assigned)
Cc1ccc(C(=O)c2ccc(=O)n(-c3ccccc3C(=O)N=c3cco[n-]3)n2)cc1 (optimized conformer: 98.12759465799262 kcal/mol)

>  <smiles>  (22) 
Cc1ccc(C(=O)c2ccc(=O)n(-c3ccccc3C(=O)N=c3cco[nH]3)n2)cc1

>  <score_type>  (22) 
oracle

>  <origin>  (22) 
adg

>  <m_score__min__energy>  (22) 
-11.220000000000001

>  <m_primary>  (22) 
energy

$$$$
22:0
     RDKit          3D

 38 40  0  0  0  0  0  0  0  0999 V2000
   58.0250   24.1600   46.4540 C   0  0  0  0  0  0  0  0  0  0  0  0
   57.0740   25.2710   46.1650 C   0  0  0  0  0  0  0  0  0  0  0  0
   57.4070   26.5230   45.6940 C   0  0  0  0  0  0  0  0  0  0  0  0
   56.1800   27.1600   45.6320 C   0  0  0  0  0  0  0  0  0  0  0  0
   55.9570   28.3810   45.2470 N   0  0  0  0  0  0  0  0  0  0  0  0
   56.8640   29.2010   44.0150 S   0  0  0  0  0  0  0  0  0  0  0  0
   57.8260   28.2310   43.3870 O   0  0  0  0  0  0  0  0  0  0  0  0
   55.9200   29.7060   42.9620 O   0  0  0  0  0  0  0  0  0  0  0  0
   57.7300   30.5680   44.7100 C   0  0  0  0  0  0  0  0  0  0  0  0
   57.4010   31.8740   44.3220 C   0  0  0  0  0  0  0  0  0  0  0  0
   58.0770   32.9640   44.8770 C   0  0  0  0  0  0  0  0  0  0  0  0
   59.0990   32.7630   45.8120 C   0  0  0  0  0  0  0  0  0  0  0  0
   59.7430   33.8830   46.3590 O   0  0  0  0  0  0  0  0  0  0  0  0
   60.7840   33.8450   47.2980 C   0  0  0  0  0  0  0  0  0  0  0  0
   60.5140   34.2290   48.6170 C   0  0  0  0  0  0  0  0  0  0  0  0
   61.5280   34.2170   49.5780 C   0  0  0  0  0  0  0  0  0  0  0  0
   62.8250   33.8330   49.2240 C   0  0  0  0  0  0  0  0  0  0  0  0
   63.1150   33.4660   47.9040 C   0  0  0  0  0  0  0  0  0  0  0  0
   64.4440   33.0880   47.5380 N   0  0  0  0  0  0  0  0  0  0  0  0
   62.0950   33.4780   46.9410 C   0  0  0  0  0  0  0  0  0  0  0  0
   59.4180   31.4530   46.2120 C   0  0  0  0  0  0  0  0  0  0  0  0
   58.7410   30.3620   45.6570 C   0  0  0  0  0  0  0  0  0  0  0  0
   55.2010   26.3340   46.0420 N   0  0  0  0  0  0  0  0  0  0  0  0
   55.7760   25.2110   46.3570 O   0  0  0  0  0  0  0  0  0  0  0  0
   58.1282   24.0395   47.5425 H   0  0  0  0  0  0  0  0  0  0  0  0
   57.6420   23.2263   46.0164 H   0  0  0  0  0  0  0  0  0  0  0  0
   59.0066   24.3944   46.0164 H   0  0  0  0  0  0  0  0  0  0  0  0
   58.4001   26.9173   45.4327 H   0  0  0  0  0  0  0  0  0  0  0  0
   56.6081   32.0416   43.5782 H   0  0  0  0  0  0  0  0  0  0  0  0
   57.8041   33.9865   44.5771 H   0  0  0  0  0  0  0  0  0  0  0  0
   59.4977   34.5419   48.8983 H   0  0  0  0  0  0  0  0  0  0  0  0
   61.3057   34.5101   50.6147 H   0  0  0  0  0  0  0  0  0  0  0  0
   63.6197   33.8191   49.9844 H   0  0  0  0  0  0  0  0  0  0  0  0
   65.2370   33.2000   48.2100 H   0  0  0  0  0  0  0  0  0  0  0  0
   64.6460   32.6880   46.5940 H   0  0  0  0  0  0  0  0  0  0  0  0
   62.3210   33.1991   45.9012 H   0  0  0  0  0  0  0  0  0  0  0  0
   60.2029   31.2857   46.9642 H   0  0  0  0  0  0  0  0  0  0  0  0
   59.0035   29.3392   45.9653 H   0  0  0  0  0  0  0  0  0  0  0  0
  1  2  1  0
  2  3  2  0
  3  4  1  0
  4  5  2  3
  5  6  1  0
  6  7  2  0
  6  8  2  0
  6  9  1  0
  9 10  2  0
 10 11  1  0
 11 12  2  0
 12 13  1  0
 13 14  1  0
 14 15  2  0
 15 16  1  0
 16 17  2  0
 17 18  1  0
 18 19  1  0
 18 20  2  0
 12 21  1  0
 21 22  2  0
  4 23  1  0
 23 24  1  0
 24  2  1  0
 22  9  1  0
 20 14  1  0
  1 25  1  0
  1 26  1  0
  1 27  1  0
  3 28  1  0
 10 29  1  0
 11 30  1  0
 15 31  1  0
 16 32  1  0
 17 33  1  0
 19 34  1  0
 19 35  1  0
 20 36  1  0
 21 37  1  0
 22 38  1  0
M  CHG  1  23  -1
M  END
>  <UniqueID>  (23) 
20

>  <SMILES>  (23) 
Cc1cc(=NS(=O)(=O)c2ccc(Oc3cccc(N)c3)cc2)[n-]o1

>  <Energy>  (23) 
78.86305254136055

>  <Genealogy>  (23) 
Cc1cc(=NS(=O)(=O)c2ccc(Oc3cccc(N)c3)cc2)[n-]o1 (protonated)
Cc1cc(=NS(=O)(=O)c2ccc(Oc3cccc(N)c3)cc2)[n-]o1 (3D coordinates assigned)
Cc1cc(=NS(=O)(=O)c2ccc(Oc3cccc(N)c3)cc2)[n-]o1 (optimized conformer: 78.86305254136055 kcal/mol)

>  <smiles>  (23) 
Cc1cc(=NS(=O)(=O)c2ccc(Oc3cccc(N)c3)cc2)[nH]o1

>  <score_type>  (23) 
oracle

>  <origin>  (23) 
adg

>  <m_score__min__energy>  (23) 
-10.92

>  <m_primary>  (23) 
energy

$$$$
23:0
     RDKit          3D

 50 52  0  0  0  0  0  0  0  0999 V2000
   63.3920   33.9580   50.5580 C   0  0  0  0  0  0  0  0  0  0  0  0
   63.5210   33.0140   49.0570 S   0  0  0  0  0  0  0  0  0  0  0  0
   64.7350   33.4550   48.2870 O   0  0  0  0  0  0  0  0  0  0  0  0
   63.6670   31.5550   49.3920 O   0  0  0  0  0  0  0  0  0  0  0  0
   62.0750   33.2620   48.0850 C   0  0  0  0  0  0  0  0  0  0  0  0
   62.1820   33.7350   46.7730 C   0  0  0  0  0  0  0  0  0  0  0  0
   61.0360   33.9190   45.9970 C   0  0  0  0  0  0  0  0  0  0  0  0
   59.7590   33.6350   46.5160 C   0  0  0  0  0  0  0  0  0  0  0  0
   58.5750   33.8720   45.6560 C   0  0  0  0  0  0  0  0  0  0  0  0
   58.4830   34.9550   45.0150 O   0  0  0  0  0  0  0  0  0  0  0  0
   57.5450   32.8810   45.5430 N   0  0  0  0  0  0  0  0  0  0  0  0
   57.6980   31.5330   45.0750 C   0  0  0  0  0  0  0  0  0  0  0  0
   58.8180   30.7500   45.4040 C   0  0  0  0  0  0  0  0  0  0  0  0
   58.9370   29.4470   44.9090 C   0  0  0  0  0  0  0  0  0  0  0  0
   57.9460   28.9130   44.0700 C   0  0  0  0  0  0  0  0  0  0  0  0
   58.0650   27.5000   43.5410 C   0  0  0  0  0  0  0  0  0  0  0  0
   57.5910   26.4920   44.5220 N   0  0  0  0  0  0  0  0  0  0  0  0
   57.4160   25.1820   43.8350 C   0  0  0  0  0  0  0  0  0  0  0  0
   57.3240   23.9540   44.7710 C   0  0  0  0  0  0  0  0  0  0  0  0
   56.8280   24.3950   46.4210 S   0  0  0  0  0  0  0  0  0  0  0  0
   57.0590   23.2420   47.3560 O   0  0  0  0  0  0  0  0  0  0  0  0
   55.3730   24.7700   46.4330 O   0  0  0  0  0  0  0  0  0  0  0  0
   57.8230   25.7910   46.9050 C   0  0  0  0  0  0  0  0  0  0  0  0
   58.5200   26.3940   45.6780 C   0  0  0  0  0  0  0  0  0  0  0  0
   56.8430   29.7060   43.7200 C   0  0  0  0  0  0  0  0  0  0  0  0
   56.7250   31.0090   44.2150 C   0  0  0  0  0  0  0  0  0  0  0  0
   59.6580   33.1350   47.8390 C   0  0  0  0  0  0  0  0  0  0  0  0
   58.1280   32.6420   48.5580 Cl  0  0  0  0  0  0  0  0  0  0  0  0
   60.8150   32.9540   48.6070 C   0  0  0  0  0  0  0  0  0  0  0  0
   63.4839   33.2852   51.4234 H   0  0  0  0  0  0  0  0  0  0  0  0
   64.1960   34.7081   50.5897 H   0  0  0  0  0  0  0  0  0  0  0  0
   62.4162   34.4649   50.5897 H   0  0  0  0  0  0  0  0  0  0  0  0
   63.1721   33.9627   46.3513 H   0  0  0  0  0  0  0  0  0  0  0  0
   61.1325   34.2909   44.9663 H   0  0  0  0  0  0  0  0  0  0  0  0
   59.6039   31.1634   46.0532 H   0  0  0  0  0  0  0  0  0  0  0  0
   59.8120   28.8373   45.1787 H   0  0  0  0  0  0  0  0  0  0  0  0
   57.4627   27.4130   42.6247 H   0  0  0  0  0  0  0  0  0  0  0  0
   59.1286   27.3027   43.3414 H   0  0  0  0  0  0  0  0  0  0  0  0
   56.6480   26.7970   44.8650 H   0  0  0  0  0  0  0  0  0  0  0  0
   56.4897   25.2291   43.2435 H   0  0  0  0  0  0  0  0  0  0  0  0
   58.3198   25.0340   43.2256 H   0  0  0  0  0  0  0  0  0  0  0  0
   56.5879   23.2489   44.3574 H   0  0  0  0  0  0  0  0  0  0  0  0
   58.3252   23.5023   44.8311 H   0  0  0  0  0  0  0  0  0  0  0  0
   57.1793   26.5530   47.3686 H   0  0  0  0  0  0  0  0  0  0  0  0
   58.5857   25.4569   47.6238 H   0  0  0  0  0  0  0  0  0  0  0  0
   58.8838   27.4007   45.9315 H   0  0  0  0  0  0  0  0  0  0  0  0
   59.3561   25.7370   45.3963 H   0  0  0  0  0  0  0  0  0  0  0  0
   56.0673   29.3013   43.0532 H   0  0  0  0  0  0  0  0  0  0  0  0
   55.8616   31.6265   43.9266 H   0  0  0  0  0  0  0  0  0  0  0  0
   60.7316   32.5651   49.6326 H   0  0  0  0  0  0  0  0  0  0  0  0
  1  2  1  0
  2  3  2  0
  2  4  2  0
  2  5  1  0
  5  6  2  0
  6  7  1  0
  7  8  2  0
  8  9  1  0
  9 10  2  0
  9 11  1  0
 11 12  1  0
 12 13  2  0
 13 14  1  0
 14 15  2  0
 15 16  1  0
 16 17  1  0
 17 18  1  0
 18 19  1  0
 19 20  1  0
 20 21  2  0
 20 22  2  0
 20 23  1  0
 23 24  1  0
 15 25  1  0
 25 26  2  0
  8 27  1  0
 27 28  1  0
 27 29  2  0
 29  5  1  0
 26 12  1  0
 24 17  1  0
  1 30  1  0
  1 31  1  0
  1 32  1  0
  6 33  1  0
  7 34  1  0
 13 35  1  0
 14 36  1  0
 16 37  1  0
 16 38  1  0
 17 39  1  0
 18 40  1  0
 18 41  1  0
 19 42  1  0
 19 43  1  0
 23 44  1  0
 23 45  1  0
 24 46  1  0
 24 47  1  0
 25 48  1  0
 26 49  1  0
 29 50  1  0
M  CHG  2  11  -1  17   1
M  END
>  <UniqueID>  (24) 
21

>  <SMILES>  (24) 
CS(=O)(=O)c1ccc(C(=O)[N-]c2ccc(C[NH+]3CCS(=O)(=O)CC3)cc2)c(Cl)c1

>  <Energy>  (24) 
60.93657733114304

>  <Genealogy>  (24) 
CS(=O)(=O)c1ccc(C(=O)[N-]c2ccc(C[NH+]3CCS(=O)(=O)CC3)cc2)c(Cl)c1 (protonated)
CS(=O)(=O)c1ccc(C(=O)[N-]c2ccc(C[NH+]3CCS(=O)(=O)CC3)cc2)c(Cl)c1 (3D coordinates assigned)
CS(=O)(=O)c1ccc(C(=O)[N-]c2ccc(C[NH+]3CCS(=O)(=O)CC3)cc2)c(Cl)c1 (nonaromatic ring conformer: 60.93657733114304 kcal/mol)

>  <smiles>  (24) 
CS(=O)(=O)c1ccc(C(=O)Nc2ccc(CN3CCS(=O)(=O)CC3)cc2)c(Cl)c1

>  <score_type>  (24) 
oracle

>  <origin>  (24) 
adg

>  <m_score__min__energy>  (24) 
-9.3200000000000003

>  <m_primary>  (24) 
energy

$$$$
24:0
     RDKit          3D

 43 45  0  0  0  0  0  0  0  0999 V2000
   57.0310   26.8840   46.3390 C   0  0  0  0  0  0  0  0  0  0  0  0
   57.1830   27.7410   45.0870 C   0  0  0  0  0  0  0  0  0  0  0  0
   56.0710   28.6200   44.9340 O   0  0  0  0  0  0  0  0  0  0  0  0
   56.1590   29.8690   44.3110 C   0  0  0  0  0  0  0  0  0  0  0  0
   55.2760   30.7530   44.5050 O   0  0  0  0  0  0  0  0  0  0  0  0
   57.3130   30.1550   43.4080 C   0  0  0  0  0  0  0  0  0  0  0  0
   58.0610   31.7620   43.8460 S   0  0  0  0  0  0  0  0  0  0  0  0
   58.4880   31.2800   45.5280 C   0  0  0  0  0  0  0  0  0  0  0  0
   59.1290   30.0860   45.6950 N   0  0  0  0  0  0  0  0  0  0  0  0
   59.4630   29.6630   46.9340 C   0  0  0  0  0  0  0  0  0  0  0  0
   60.1000   28.4570   47.2300 C   0  0  0  0  0  0  0  0  0  0  0  0
   60.3030   28.2910   48.6000 C   0  0  0  0  0  0  0  0  0  0  0  0
   59.6910   29.6390   49.4210 S   0  0  0  0  0  0  0  0  0  0  0  0
   59.1710   30.4280   48.0330 C   0  0  0  0  0  0  0  0  0  0  0  0
   58.5360   31.6520   47.8870 C   0  0  0  0  0  0  0  0  0  0  0  0
   58.2840   32.3490   48.9080 O   0  0  0  0  0  0  0  0  0  0  0  0
   58.1940   32.0810   46.6220 N   0  0  0  0  0  0  0  0  0  0  0  0
   57.5270   33.3890   46.4490 C   0  0  0  0  0  0  0  0  0  0  0  0
   58.5320   34.5100   46.1450 C   0  0  0  0  0  0  0  0  0  0  0  0
   59.8520   34.2860   46.8350 C   0  0  0  0  0  0  0  0  0  0  0  0
   59.9890   34.5340   48.2120 C   0  0  0  0  0  0  0  0  0  0  0  0
   61.2040   34.2850   48.8550 C   0  0  0  0  0  0  0  0  0  0  0  0
   62.2910   33.7840   48.1330 C   0  0  0  0  0  0  0  0  0  0  0  0
   62.1620   33.5270   46.7650 C   0  0  0  0  0  0  0  0  0  0  0  0
   60.9460   33.7730   46.1180 C   0  0  0  0  0  0  0  0  0  0  0  0
   57.1432   27.5164   47.2320 H   0  0  0  0  0  0  0  0  0  0  0  0
   56.0357   26.4155   46.3441 H   0  0  0  0  0  0  0  0  0  0  0  0
   57.8044   26.1018   46.3441 H   0  0  0  0  0  0  0  0  0  0  0  0
   58.1043   28.3365   45.1679 H   0  0  0  0  0  0  0  0  0  0  0  0
   57.2298   27.0778   44.2107 H   0  0  0  0  0  0  0  0  0  0  0  0
   58.0662   29.3606   43.5158 H   0  0  0  0  0  0  0  0  0  0  0  0
   56.9582   30.1921   42.3674 H   0  0  0  0  0  0  0  0  0  0  0  0
   60.4065   27.7224   46.4708 H   0  0  0  0  0  0  0  0  0  0  0  0
   60.7845   27.4219   49.0721 H   0  0  0  0  0  0  0  0  0  0  0  0
   56.8128   33.3163   45.6155 H   0  0  0  0  0  0  0  0  0  0  0  0
   57.0148   33.6371   47.3904 H   0  0  0  0  0  0  0  0  0  0  0  0
   58.7013   34.5504   45.0589 H   0  0  0  0  0  0  0  0  0  0  0  0
   58.1099   35.4552   46.5171 H   0  0  0  0  0  0  0  0  0  0  0  0
   59.1360   34.9257   48.7855 H   0  0  0  0  0  0  0  0  0  0  0  0
   61.3055   34.4837   49.9321 H   0  0  0  0  0  0  0  0  0  0  0  0
   63.2476   33.5920   48.6411 H   0  0  0  0  0  0  0  0  0  0  0  0
   63.0168   33.1312   46.1969 H   0  0  0  0  0  0  0  0  0  0  0  0
   60.8460   33.5637   45.0427 H   0  0  0  0  0  0  0  0  0  0  0  0
  1  2  1  0
  2  3  1  0
  3  4  1  0
  4  5  2  0
  4  6  1  0
  6  7  1  0
  7  8  1  0
  8  9  2  0
  9 10  1  0
 10 11  1  0
 11 12  2  0
 12 13  1  0
 13 14  1  0
 14 15  1  0
 15 16  2  0
 15 17  1  0
 17 18  1  0
 18 19  1  0
 19 20  1  0
 20 21  2  0
 21 22  1  0
 22 23  2  0
 23 24  1  0
 24 25  2  0
 17  8  1  0
 25 20  1  0
 14 10  2  0
  1 26  1  0
  1 27  1  0
  1 28  1  0
  2 29  1  0
  2 30  1  0
  6 31  1  0
  6 32  1  0
 11 33  1  0
 12 34  1  0
 18 35  1  0
 18 36  1  0
 19 37  1  0
 19 38  1  0
 21 39  1  0
 22 40  1  0
 23 41  1  0
 24 42  1  0
 25 43  1  0
M  END
>  <UniqueID>  (25) 
22

>  <SMILES>  (25) 
CCOC(=O)CSc1nc2ccsc2c(=O)n1CCc1ccccc1

>  <Energy>  (25) 
69.91226189112224

>  <Genealogy>  (25) 
CCOC(=O)CSc1nc2ccsc2c(=O)n1CCc1ccccc1 (3D coordinates assigned)
CCOC(=O)CSc1nc2ccsc2c(=O)n1CCc1ccccc1 (optimized conformer: 69.91226189112224 kcal/mol)

>  <smiles>  (25) 
CCOC(=O)CSc1nc2ccsc2c(=O)n1CCc1ccccc1

>  <score_type>  (25) 
oracle

>  <origin>  (25) 
adg

>  <m_score__min__energy>  (25) 
-7.5300000000000002

>  <m_primary>  (25) 
energy

$$$$
25:0
     RDKit          3D

 46 48  0  0  0  0  0  0  0  0999 V2000
   57.8180   32.0680   41.7860 C   0  0  0  0  0  0  0  0  0  0  0  0
   57.2910   31.5110   43.0250 N   0  0  0  0  0  0  0  0  0  0  0  0
   56.4820   30.4460   43.1640 C   0  0  0  0  0  0  0  0  0  0  0  0
   56.1280   30.2730   44.4520 N   0  0  0  0  0  0  0  0  0  0  0  0
   56.7030   31.2420   45.1530 N   0  0  0  0  0  0  0  0  0  0  0  0
   57.3970   31.9920   44.2760 C   0  0  0  0  0  0  0  0  0  0  0  0
   58.3350   33.4500   44.7370 S   0  0  0  0  0  0  0  0  0  0  0  0
   57.9470   33.3170   46.5140 C   0  0  0  0  0  0  0  0  0  0  0  0
   58.9030   32.3790   47.1770 C   0  0  0  0  0  0  0  0  0  0  0  0
   58.7080   32.0190   48.3700 O   0  0  0  0  0  0  0  0  0  0  0  0
   60.0250   31.8810   46.4410 N   0  0  0  0  0  0  0  0  0  0  0  0
   60.6110   30.5590   46.6470 C   0  0  0  0  0  0  0  0  0  0  0  0
   59.5710   29.4820   46.4980 C   0  0  0  0  0  0  0  0  0  0  0  0
   59.0940   28.7920   47.6230 C   0  0  0  0  0  0  0  0  0  0  0  0
   58.1500   27.7730   47.4810 C   0  0  0  0  0  0  0  0  0  0  0  0
   57.6560   27.4290   46.2090 C   0  0  0  0  0  0  0  0  0  0  0  0
   56.6340   26.3660   46.0630 C   0  0  0  0  0  0  0  0  0  0  0  0
   55.4120   26.6750   46.0030 O   0  0  0  0  0  0  0  0  0  0  0  0
   57.0320   24.9870   46.0740 N   0  0  0  0  0  0  0  0  0  0  0  0
   56.8810   24.0160   45.0260 C   0  0  0  0  0  0  0  0  0  0  0  0
   55.7340   23.9790   44.2090 C   0  0  0  0  0  0  0  0  0  0  0  0
   55.6140   23.0200   43.2020 C   0  0  0  0  0  0  0  0  0  0  0  0
   56.6410   22.1020   42.9820 C   0  0  0  0  0  0  0  0  0  0  0  0
   57.7970   22.1470   43.7630 C   0  0  0  0  0  0  0  0  0  0  0  0
   57.9300   23.1020   44.7810 C   0  0  0  0  0  0  0  0  0  0  0  0
   59.1270   23.1270   45.5700 N   0  0  0  0  0  0  0  0  0  0  0  0
   58.1390   28.1210   45.0820 C   0  0  0  0  0  0  0  0  0  0  0  0
   59.0870   29.1390   45.2290 C   0  0  0  0  0  0  0  0  0  0  0  0
   58.5567   32.8488   42.0200 H   0  0  0  0  0  0  0  0  0  0  0  0
   58.3000   31.2706   41.2013 H   0  0  0  0  0  0  0  0  0  0  0  0
   56.9952   32.5051   41.2013 H   0  0  0  0  0  0  0  0  0  0  0  0
   56.1529   29.8014   42.3356 H   0  0  0  0  0  0  0  0  0  0  0  0
   58.0287   34.3100   46.9800 H   0  0  0  0  0  0  0  0  0  0  0  0
   56.9232   32.9325   46.6323 H   0  0  0  0  0  0  0  0  0  0  0  0
   61.4058   30.3975   45.9039 H   0  0  0  0  0  0  0  0  0  0  0  0
   61.0226   30.5117   47.6660 H   0  0  0  0  0  0  0  0  0  0  0  0
   59.4664   29.0558   48.6239 H   0  0  0  0  0  0  0  0  0  0  0  0
   57.7897   27.2350   48.3702 H   0  0  0  0  0  0  0  0  0  0  0  0
   54.9277   24.7107   44.3657 H   0  0  0  0  0  0  0  0  0  0  0  0
   54.7072   22.9880   42.5802 H   0  0  0  0  0  0  0  0  0  0  0  0
   56.5398   21.3424   42.1928 H   0  0  0  0  0  0  0  0  0  0  0  0
   58.6092   21.4284   43.5786 H   0  0  0  0  0  0  0  0  0  0  0  0
   59.8820   22.4230   45.4090 H   0  0  0  0  0  0  0  0  0  0  0  0
   59.2610   23.8170   46.3430 H   0  0  0  0  0  0  0  0  0  0  0  0
   57.7686   27.8595   44.0798 H   0  0  0  0  0  0  0  0  0  0  0  0
   59.4552   29.6743   44.3414 H   0  0  0  0  0  0  0  0  0  0  0  0
  1  2  1  0
  2  3  1  0
  3  4  2  0
  4  5  1  0
  5  6  2  0
  6  7  1  0
  7  8  1  0
  8  9  1  0
  9 10  2  0
  9 11  1  0
 11 12  1  0
 12 13  1  0
 13 14  2  0
 14 15  1  0
 15 16  2  0
 16 17  1  0
 17 18  2  0
 17 19  1  0
 19 20  1  0
 20 21  2  0
 21 22  1  0
 22 23  2  0
 23 24  1  0
 24 25  2  0
 25 26  1  0
 16 27  1  0
 27 28  2  0
  6  2  1  0
 28 13  1  0
 25 20  1  0
  1 29  1  0
  1 30  1  0
  1 31  1  0
  3 32  1  0
  8 33  1  0
  8 34  1  0
 12 35  1  0
 12 36  1  0
 14 37  1  0
 15 38  1  0
 21 39  1  0
 22 40  1  0
 23 41  1  0
 24 42  1  0
 26 43  1  0
 26 44  1  0
 27 45  1  0
 28 46  1  0
M  CHG  2  11  -1  19  -1
M  END
>  <UniqueID>  (26) 
23

>  <SMILES>  (26) 
Cn1cnnc1SCC(=O)[N-]Cc1ccc(C(=O)[N-]c2ccccc2N)cc1

>  <Energy>  (26) 
79.71660763669946

>  <Genealogy>  (26) 
Cn1cnnc1SCC(=O)[N-]Cc1ccc(C(=O)[N-]c2ccccc2N)cc1 (protonated)
Cn1cnnc1SCC(=O)[N-]Cc1ccc(C(=O)[N-]c2ccccc2N)cc1 (3D coordinates assigned)
Cn1cnnc1SCC(=O)[N-]Cc1ccc(C(=O)[N-]c2ccccc2N)cc1 (optimized conformer: 79.71660763669946 kcal/mol)

>  <smiles>  (26) 
Cn1cnnc1SCC(=O)NCc1ccc(C(=O)Nc2ccccc2N)cc1

>  <score_type>  (26) 
oracle

>  <origin>  (26) 
adg

>  <m_score__min__energy>  (26) 
-11.26

>  <m_primary>  (26) 
energy

$$$$
26:0
     RDKit          3D

 50 53  0  0  0  0  0  0  0  0999 V2000
   60.7020   30.6490   48.2330 O   0  0  0  0  0  0  0  0  0  0  0  0
   59.5330   30.7270   47.7690 C   0  0  0  0  0  0  0  0  0  0  0  0
   58.8330   31.9720   47.8850 N   0  0  0  0  0  0  0  0  0  0  0  0
   58.7160   32.9740   46.8620 C   0  0  0  0  0  0  0  0  0  0  0  0
   57.5570   33.0670   46.0700 C   0  0  0  0  0  0  0  0  0  0  0  0
   57.4480   34.0560   45.0910 C   0  0  0  0  0  0  0  0  0  0  0  0
   58.4960   34.9550   44.8850 C   0  0  0  0  0  0  0  0  0  0  0  0
   59.6600   34.8600   45.6510 C   0  0  0  0  0  0  0  0  0  0  0  0
   59.7840   33.8650   46.6320 C   0  0  0  0  0  0  0  0  0  0  0  0
   60.9880   33.7900   47.4130 N   0  0  0  0  0  0  0  0  0  0  0  0
   60.9900   34.2210   48.8150 C   0  0  0  0  0  0  0  0  0  0  0  0
   61.8500   33.2820   49.6900 C   0  0  0  0  0  0  0  0  0  0  0  0
   62.9190   32.5790   48.9480 N   0  0  0  0  0  0  0  0  0  0  0  0
   63.3840   33.3270   47.7710 C   0  0  0  0  0  0  0  0  0  0  0  0
   62.2500   33.4480   46.7490 C   0  0  0  0  0  0  0  0  0  0  0  0
   58.9050   29.5260   47.1730 C   0  0  0  0  0  0  0  0  0  0  0  0
   58.1540   29.6360   45.9920 C   0  0  0  0  0  0  0  0  0  0  0  0
   57.5560   28.5070   45.4240 C   0  0  0  0  0  0  0  0  0  0  0  0
   57.7070   27.2420   46.0190 C   0  0  0  0  0  0  0  0  0  0  0  0
   57.0690   26.0430   45.4160 C   0  0  0  0  0  0  0  0  0  0  0  0
   55.9010   25.4960   45.9790 C   0  0  0  0  0  0  0  0  0  0  0  0
   55.3040   24.3670   45.4100 C   0  0  0  0  0  0  0  0  0  0  0  0
   55.8640   23.7730   44.2770 C   0  0  0  0  0  0  0  0  0  0  0  0
   57.0220   24.3070   43.7100 C   0  0  0  0  0  0  0  0  0  0  0  0
   57.6250   25.4360   44.2740 C   0  0  0  0  0  0  0  0  0  0  0  0
   58.4740   27.1310   47.1920 C   0  0  0  0  0  0  0  0  0  0  0  0
   59.0710   28.2600   47.7600 C   0  0  0  0  0  0  0  0  0  0  0  0
   56.7317   32.3561   46.2232 H   0  0  0  0  0  0  0  0  0  0  0  0
   56.5353   34.1271   44.4811 H   0  0  0  0  0  0  0  0  0  0  0  0
   58.4049   35.7389   44.1187 H   0  0  0  0  0  0  0  0  0  0  0  0
   60.4840   35.5693   45.4841 H   0  0  0  0  0  0  0  0  0  0  0  0
   61.3980   35.2407   48.8757 H   0  0  0  0  0  0  0  0  0  0  0  0
   59.9557   34.1926   49.1883 H   0  0  0  0  0  0  0  0  0  0  0  0
   62.3176   33.8819   50.4847 H   0  0  0  0  0  0  0  0  0  0  0  0
   61.1750   32.5082   50.0845 H   0  0  0  0  0  0  0  0  0  0  0  0
   63.7330   32.4230   49.5880 H   0  0  0  0  0  0  0  0  0  0  0  0
   62.5710   31.6400   48.6410 H   0  0  0  0  0  0  0  0  0  0  0  0
   63.7044   34.3326   48.0811 H   0  0  0  0  0  0  0  0  0  0  0  0
   64.2291   32.7923   47.3127 H   0  0  0  0  0  0  0  0  0  0  0  0
   62.5008   34.2353   46.0228 H   0  0  0  0  0  0  0  0  0  0  0  0
   62.1300   32.4814   46.2378 H   0  0  0  0  0  0  0  0  0  0  0  0
   58.0352   30.6176   45.5100 H   0  0  0  0  0  0  0  0  0  0  0  0
   56.9623   28.6093   44.5037 H   0  0  0  0  0  0  0  0  0  0  0  0
   55.4553   25.9592   46.8716 H   0  0  0  0  0  0  0  0  0  0  0  0
   54.3910   23.9456   45.8559 H   0  0  0  0  0  0  0  0  0  0  0  0
   55.3925   22.8845   43.8316 H   0  0  0  0  0  0  0  0  0  0  0  0
   57.4617   23.8387   42.8171 H   0  0  0  0  0  0  0  0  0  0  0  0
   58.5382   25.8516   43.8230 H   0  0  0  0  0  0  0  0  0  0  0  0
   58.6054   26.1474   47.6667 H   0  0  0  0  0  0  0  0  0  0  0  0
   59.6753   28.1568   48.6733 H   0  0  0  0  0  0  0  0  0  0  0  0
  1  2  2  0
  2  3  1  0
  3  4  1  0
  4  5  2  0
  5  6  1  0
  6  7  2  0
  7  8  1  0
  8  9  2  0
  9 10  1  0
 10 11  1  0
 11 12  1  0
 12 13  1  0
 13 14  1  0
 14 15  1  0
  2 16  1  0
 16 17  2  0
 17 18  1  0
 18 19  2  0
 19 20  1  0
 20 21  2  0
 21 22  1  0
 22 23  2  0
 23 24  1  0
 24 25  2  0
 19 26  1  0
 26 27  2  0
  9  4  1  0
 15 10  1  0
 27 16  1  0
 25 20  1  0
  5 28  1  0
  6 29  1  0
  7 30  1  0
  8 31  1  0
 11 32  1  0
 11 33  1  0
 12 34  1  0
 12 35  1  0
 13 36  1  0
 13 37  1  0
 14 38  1  0
 14 39  1  0
 15 40  1  0
 15 41  1  0
 17 42  1  0
 18 43  1  0
 21 44  1  0
 22 45  1  0
 23 46  1  0
 24 47  1  0
 25 48  1  0
 26 49  1  0
 27 50  1  0
M  CHG  2   3  -1  13   1
M  END
>  <UniqueID>  (27) 
24

>  <SMILES>  (27) 
O=C([N-]c1ccccc1N1CC[NH2+]CC1)c1ccc(-c2ccccc2)cc1

>  <Energy>  (27) 
74.65336849886955

>  <Genealogy>  (27) 
O=C([N-]c1ccccc1N1CC[NH2+]CC1)c1ccc(-c2ccccc2)cc1 (protonated)
O=C([N-]c1ccccc1N1CC[NH2+]CC1)c1ccc(-c2ccccc2)cc1 (3D coordinates assigned)
O=C([N-]c1ccccc1N1CC[NH2+]CC1)c1ccc(-c2ccccc2)cc1 (nonaromatic ring conformer: 74.65336849886955 kcal/mol)

>  <smiles>  (27) 
O=C(Nc1ccccc1N1CCNCC1)c1ccc(-c2ccccc2)cc1

>  <score_type>  (27) 
oracle

>  <origin>  (27) 
adg

>  <m_score__min__energy>  (27) 
-8.0299999999999994

>  <m_primary>  (27) 
energy

$$$$
27:0
     RDKit          3D

 30 31  0  0  0  0  0  0  0  0999 V2000
   61.6265   30.9487   46.3554 H   0  0  0  0  0  0  0  0  0  0  0  0
   60.6590   30.4740   46.5760 C   0  0  0  0  0  0  0  0  0  0  0  0
   59.5800   30.6040   45.7570 N   0  0  0  0  0  0  0  0  0  0  0  0
   58.5080   29.9350   46.2300 C   0  0  0  0  0  0  0  0  0  0  0  0
   57.3700   29.9290   45.5990 N   0  0  0  0  0  0  0  0  0  0  0  0
   56.8970   30.8770   44.6250 C   0  0  0  0  0  0  0  0  0  0  0  0
   55.7240   30.8010   44.1610 O   0  0  0  0  0  0  0  0  0  0  0  0
   57.7800   31.9290   44.1800 N   0  0  1  0  0  0  0  0  0  0  0  0
   58.7480   31.7090   44.5170 H   0  0  0  0  0  0  0  0  0  0  0  0
   57.8050   31.9640   42.7070 C   0  0  0  0  0  0  0  0  0  0  0  0
   58.4138   32.8162   42.3708 H   0  0  0  0  0  0  0  0  0  0  0  0
   58.2408   31.0289   42.3254 H   0  0  0  0  0  0  0  0  0  0  0  0
   56.7791   32.0730   42.3254 H   0  0  0  0  0  0  0  0  0  0  0  0
   57.3490   33.2220   44.7570 C   0  0  0  0  0  0  0  0  0  0  0  0
   57.3898   33.9925   43.9730 H   0  0  0  0  0  0  0  0  0  0  0  0
   56.3252   33.0998   45.1402 H   0  0  0  0  0  0  0  0  0  0  0  0
   58.2330   33.6490   45.9090 C   0  0  0  0  0  0  0  0  0  0  0  0
   58.0730   33.0470   47.1690 C   0  0  0  0  0  0  0  0  0  0  0  0
   57.2968   32.2813   47.3148 H   0  0  0  0  0  0  0  0  0  0  0  0
   58.8950   33.4160   48.2380 C   0  0  0  0  0  0  0  0  0  0  0  0
   58.7608   32.9438   49.2224 H   0  0  0  0  0  0  0  0  0  0  0  0
   59.8860   34.3830   48.0580 C   0  0  0  0  0  0  0  0  0  0  0  0
   60.5321   34.6717   48.9001 H   0  0  0  0  0  0  0  0  0  0  0  0
   60.0570   34.9840   46.8080 C   0  0  0  0  0  0  0  0  0  0  0  0
   60.8384   35.7454   46.6679 H   0  0  0  0  0  0  0  0  0  0  0  0
   59.2370   34.6200   45.7340 C   0  0  0  0  0  0  0  0  0  0  0  0
   59.4300   35.2110   44.5270 F   0  0  0  0  0  0  0  0  0  0  0  0
   58.8590   29.1560   47.6860 S   0  0  0  0  0  0  0  0  0  0  0  0
   60.4520   29.6990   47.7110 C   0  0  0  0  0  0  0  0  0  0  0  0
   61.1981   29.4791   48.4889 H   0  0  0  0  0  0  0  0  0  0  0  0
  1  2  1  0
  2  3  1  0
  3  4  1  0
  4  5  2  0
  5  6  1  0
  6  7  2  0
  6  8  1  0
  8  9  1  1
  8 10  1  0
 10 11  1  0
 10 12  1  0
 10 13  1  0
  8 14  1  0
 14 15  1  0
 14 16  1  0
 14 17  1  0
 17 18  2  0
 18 19  1  0
 18 20  1  0
 20 21  1  0
 20 22  2  0
 22 23  1  0
 22 24  1  0
 24 25  1  0
 24 26  2  0
 26 27  1  0
  4 28  1  0
 28 29  1  0
 29 30  1  0
 29  2  2  0
 26 17  1  0
M  CHG  2   3  -1   8   1
M  END
>  <UniqueID>  (28) 
25

>  <SMILES>  (28) 
C[N@@H+](Cc1ccccc1F)C(=O)/N=c1/[n-]ccs1

>  <Energy>  (28) 
66.03582053755855

>  <Genealogy>  (28) 
C[NH+](Cc1ccccc1F)C(=O)N=c1[n-]ccs1 (protonated)
C[N@@H+](Cc1ccccc1F)C(=O)N=c1[n-]ccs1 (chirality)
C[N@@H+](Cc1ccccc1F)C(=O)/N=c1/[n-]ccs1 (cis-trans isomerization)
C[N@@H+](Cc1ccccc1F)C(=O)/N=c1/[n-]ccs1 (3D coordinates assigned)
C[N@@H+](Cc1ccccc1F)C(=O)/N=c1/[n-]ccs1 (optimized conformer: 66.03582053755855 kcal/mol)

>  <smiles>  (28) 
CN(Cc1ccccc1F)C(=O)N=c1[nH]ccs1

>  <score_type>  (28) 
oracle

>  <origin>  (28) 
adg

>  <m_score__min__energy>  (28) 
-6.5999999999999996

>  <m_primary>  (28) 
energy

$$$$
28:0
     RDKit          3D

 41 43  0  0  0  0  0  0  0  0999 V2000
   55.2450   28.1950   44.5780 H   0  0  0  0  0  0  0  0  0  0  0  0
   55.1800   29.2360   44.5030 N   0  0  0  0  0  0  0  0  0  0  0  0
   56.1550   30.0010   44.8690 C   0  0  0  0  0  0  0  0  0  0  0  0
   56.2310   31.2810   44.3830 N   0  0  0  0  0  0  0  0  0  0  0  0
   57.2450   32.1200   44.7420 C   0  0  0  0  0  0  0  0  0  0  0  0
   57.2940   33.2920   44.2840 O   0  0  0  0  0  0  0  0  0  0  0  0
   58.2070   31.6410   45.6230 C   0  0  0  0  0  0  0  0  0  0  0  0
   59.3570   32.1820   46.1660 C   0  0  0  0  0  0  0  0  0  0  0  0
   60.0720   33.7920   45.8410 S   0  0  0  0  0  0  0  0  0  0  0  0
   61.3110   33.5850   47.1200 C   0  0  0  0  0  0  0  0  0  0  0  0
   60.9830   33.8070   48.4620 C   0  0  0  0  0  0  0  0  0  0  0  0
   59.9565   34.0913   48.7368 H   0  0  0  0  0  0  0  0  0  0  0  0
   61.9580   33.6680   49.4540 C   0  0  0  0  0  0  0  0  0  0  0  0
   61.6941   33.8468   50.5068 H   0  0  0  0  0  0  0  0  0  0  0  0
   63.2680   33.3030   49.1190 C   0  0  0  0  0  0  0  0  0  0  0  0
   64.2110   33.1820   50.1500 O   0  0  0  0  0  0  0  0  0  0  0  0
   65.5360   32.6920   49.9730 C   0  0  0  0  0  0  0  0  0  0  0  0
   65.9982   32.5211   50.9565 H   0  0  0  0  0  0  0  0  0  0  0  0
   65.5053   31.7458   49.4129 H   0  0  0  0  0  0  0  0  0  0  0  0
   66.1283   33.4306   49.4129 H   0  0  0  0  0  0  0  0  0  0  0  0
   63.5920   33.0730   47.7680 C   0  0  0  0  0  0  0  0  0  0  0  0
   64.6165   32.7831   47.4916 H   0  0  0  0  0  0  0  0  0  0  0  0
   62.6150   33.2120   46.7760 C   0  0  0  0  0  0  0  0  0  0  0  0
   62.8728   33.0275   45.7227 H   0  0  0  0  0  0  0  0  0  0  0  0
   59.9100   31.1850   46.9660 C   0  0  0  0  0  0  0  0  0  0  0  0
   60.8363   31.2861   47.5505 H   0  0  0  0  0  0  0  0  0  0  0  0
   59.1390   30.0730   46.9180 N   0  0  0  0  0  0  0  0  0  0  0  0
   59.4200   28.7870   47.5550 C   0  0  0  0  0  0  0  0  0  0  0  0
   60.3581   28.3787   47.1509 H   0  0  0  0  0  0  0  0  0  0  0  0
   59.5124   28.9371   48.6408 H   0  0  0  0  0  0  0  0  0  0  0  0
   58.3670   27.8760   47.3030 O   0  0  0  0  0  0  0  0  0  0  0  0
   58.7040   26.9830   46.2570 C   0  0  0  0  0  0  0  0  0  0  0  0
   59.2688   27.5266   45.4853 H   0  0  0  0  0  0  0  0  0  0  0  0
   59.3143   26.1664   46.6702 H   0  0  0  0  0  0  0  0  0  0  0  0
   57.4440   26.3890   45.6320 C   0  0  0  0  0  0  0  0  0  0  0  0
   57.4989   26.4858   44.5376 H   0  0  0  0  0  0  0  0  0  0  0  0
   57.3686   25.3267   45.9073 H   0  0  0  0  0  0  0  0  0  0  0  0
   56.3130   27.0700   46.1030 O   0  0  0  0  0  0  0  0  0  0  0  0
   56.5260   28.0370   46.0320 H   0  0  0  0  0  0  0  0  0  0  0  0
   58.1120   30.3670   46.1000 C   0  0  0  0  0  0  0  0  0  0  0  0
   57.1060   29.5360   45.7360 N   0  0  0  0  0  0  0  0  0  0  0  0
  1  2  1  0
  2  3  2  0
  3  4  1  0
  4  5  1  0
  5  6  2  0
  5  7  1  0
  7  8  1  0
  8  9  1  0
  9 10  1  0
 10 11  2  0
 11 12  1  0
 11 13  1  0
 13 14  1  0
 13 15  2  0
 15 16  1  0
 16 17  1  0
 17 18  1  0
 17 19  1  0
 17 20  1  0
 15 21  1  0
 21 22  1  0
 21 23  2  0
 23 24  1  0
  8 25  2  0
 25 26  1  0
 25 27  1  0
 27 28  1  0
 28 29  1  0
 28 30  1  0
 28 31  1  0
 31 32  1  0
 32 33  1  0
 32 34  1  0
 32 35  1  0
 35 36  1  0
 35 37  1  0
 35 38  1  0
 38 39  1  0
 27 40  1  0
 40 41  1  0
 41  3  1  0
 40  7  2  0
 23 10  1  0
M  CHG  2   4  -1  41  -1
M  END
>  <UniqueID>  (29) 
26

>  <SMILES>  (29) 
[H]/N=c1/[n-]c(=O)c2c(Sc3ccc(OC)cc3)cn(COCCO)c2[n-]1

>  <Energy>  (29) 
74.45135586211052

>  <Genealogy>  (29) 
COc1ccc(Sc2cn(COCCO)c3[n-]c(=N)[n-]c(=O)c23)cc1 (protonated)
[H]/N=c1/[n-]c(=O)c2c(Sc3ccc(OC)cc3)cn(COCCO)c2[n-]1 (cis-trans isomerization)
[H]/N=c1/[n-]c(=O)c2c(Sc3ccc(OC)cc3)cn(COCCO)c2[n-]1 (3D coordinates assigned)
[H]/N=c1/[n-]c(=O)c2c(Sc3ccc(OC)cc3)cn(COCCO)c2[n-]1 (optimized conformer: 74.45135586211052 kcal/mol)

>  <smiles>  (29) 
COc1ccc(Sc2cn(COCCO)c3[nH]c(=N)[nH]c(=O)c23)cc1

>  <score_type>  (29) 
oracle

>  <origin>  (29) 
adg

>  <m_score__min__energy>  (29) 
-10.41

>  <m_primary>  (29) 
energy

$$$$
29:0
     RDKit          3D

 26 27  0  0  0  0  0  0  0  0999 V2000
   55.1540   26.6950   46.0180 N   0  0  0  0  0  0  0  0  0  0  0  0
   56.5170   26.4650   46.3720 C   0  0  0  0  0  0  0  0  0  0  0  0
   56.8050   25.4640   47.0820 O   0  0  0  0  0  0  0  0  0  0  0  0
   57.5820   27.3870   45.9130 C   0  0  0  0  0  0  0  0  0  0  0  0
   58.8060   26.8830   45.4400 C   0  0  0  0  0  0  0  0  0  0  0  0
   59.8130   27.7510   45.0140 C   0  0  0  0  0  0  0  0  0  0  0  0
   59.6110   29.1320   45.0470 C   0  0  0  0  0  0  0  0  0  0  0  0
   58.3910   29.6570   45.5030 C   0  0  0  0  0  0  0  0  0  0  0  0
   58.1860   31.1220   45.5520 C   0  0  0  0  0  0  0  0  0  0  0  0
   58.6320   31.8380   46.6780 C   0  0  0  0  0  0  0  0  0  0  0  0
   58.4430   33.2210   46.7630 C   0  0  0  0  0  0  0  0  0  0  0  0
   58.8860   33.9060   47.8910 O   0  0  0  0  0  0  0  0  0  0  0  0
   57.8080   33.9020   45.7180 C   0  0  0  0  0  0  0  0  0  0  0  0
   57.3720   33.2040   44.5900 C   0  0  0  0  0  0  0  0  0  0  0  0
   57.5580   31.8200   44.4960 C   0  0  0  0  0  0  0  0  0  0  0  0
   57.0490   31.0100   43.0180 Cl  0  0  0  0  0  0  0  0  0  0  0  0
   57.3860   28.7810   45.9460 C   0  0  0  0  0  0  0  0  0  0  0  0
   54.4790   27.0920   46.7100 H   0  0  0  0  0  0  0  0  0  0  0  0
   58.9717   25.7961   45.4052 H   0  0  0  0  0  0  0  0  0  0  0  0
   60.7689   27.3454   44.6511 H   0  0  0  0  0  0  0  0  0  0  0  0
   60.4101   29.8110   44.7147 H   0  0  0  0  0  0  0  0  0  0  0  0
   59.1340   31.3051   47.4990 H   0  0  0  0  0  0  0  0  0  0  0  0
   59.7400   33.6430   48.3690 H   0  0  0  0  0  0  0  0  0  0  0  0
   57.6522   34.9888   45.7855 H   0  0  0  0  0  0  0  0  0  0  0  0
   56.8788   33.7457   43.7694 H   0  0  0  0  0  0  0  0  0  0  0  0
   56.4361   29.1883   46.3226 H   0  0  0  0  0  0  0  0  0  0  0  0
  1  2  1  0
  2  3  2  0
  2  4  1  0
  4  5  2  0
  5  6  1  0
  6  7  2  0
  7  8  1  0
  8  9  1  0
  9 10  2  0
 10 11  1  0
 11 12  1  0
 11 13  2  0
 13 14  1  0
 14 15  2  0
 15 16  1  0
  8 17  2  0
 17  4  1  0
 15  9  1  0
  1 18  1  0
  5 19  1  0
  6 20  1  0
  7 21  1  0
 10 22  1  0
 12 23  1  0
 13 24  1  0
 14 25  1  0
 17 26  1  0
M  CHG  1   1  -1
M  END
>  <UniqueID>  (30) 
27

>  <SMILES>  (30) 
[NH-]C(=O)c1cccc(-c2cc(O)ccc2Cl)c1

>  <Energy>  (30) 
34.22192714566528

>  <Genealogy>  (30) 
[NH-]C(=O)c1cccc(-c2cc(O)ccc2Cl)c1 (protonated)
[NH-]C(=O)c1cccc(-c2cc(O)ccc2Cl)c1 (3D coordinates assigned)
[NH-]C(=O)c1cccc(-c2cc(O)ccc2Cl)c1 (optimized conformer: 34.22192714566528 kcal/mol)

>  <smiles>  (30) 
NC(=O)c1cccc(-c2cc(O)ccc2Cl)c1

>  <score_type>  (30) 
oracle

>  <origin>  (30) 
adg

>  <m_score__min__energy>  (30) 
-9.8399999999999999

>  <m_primary>  (30) 
energy

$$$$
30:0
     RDKit          3D

 33 34  0  0  0  0  0  0  0  0999 V2000
   59.8606   27.0027   44.9533 H   0  0  0  0  0  0  0  0  0  0  0  0
   58.7980   27.2060   45.1520 C   0  0  0  0  0  0  0  0  0  0  0  0
   58.2900   28.4420   44.9220 N   0  0  0  0  0  0  0  0  0  0  0  0
   56.9820   28.7280   45.1600 C   0  0  0  0  0  0  0  0  0  0  0  0
   56.4960   29.9120   44.9170 N   0  0  0  0  0  0  0  0  0  0  0  0
   57.2430   31.1100   44.6430 C   0  0  0  0  0  0  0  0  0  0  0  0
   57.4080   31.5050   43.3120 C   0  0  0  0  0  0  0  0  0  0  0  0
   56.9883   30.8898   42.5024 H   0  0  0  0  0  0  0  0  0  0  0  0
   58.1020   32.6750   43.0060 C   0  0  0  0  0  0  0  0  0  0  0  0
   58.2403   32.9705   41.9555 H   0  0  0  0  0  0  0  0  0  0  0  0
   58.6220   33.4730   44.0260 C   0  0  0  0  0  0  0  0  0  0  0  0
   59.1783   34.3872   43.7715 H   0  0  0  0  0  0  0  0  0  0  0  0
   58.4420   33.1200   45.3800 C   0  0  0  0  0  0  0  0  0  0  0  0
   58.9640   33.9610   46.4430 N   0  0  0  0  0  0  0  0  0  0  0  0
   59.5970   35.2480   46.1340 C   0  0  0  0  0  0  0  0  0  0  0  0
   59.8516   35.7656   47.0706 H   0  0  0  0  0  0  0  0  0  0  0  0
   60.5129   35.0753   45.5499 H   0  0  0  0  0  0  0  0  0  0  0  0
   58.9011   35.8680   45.5499 H   0  0  0  0  0  0  0  0  0  0  0  0
   58.8710   33.5370   47.8460 C   0  0  0  0  0  0  0  0  0  0  0  0
   59.0600   34.3989   48.5028 H   0  0  0  0  0  0  0  0  0  0  0  0
   57.8644   33.1397   48.0430 H   0  0  0  0  0  0  0  0  0  0  0  0
   59.6189   32.7548   48.0430 H   0  0  0  0  0  0  0  0  0  0  0  0
   57.7350   31.9330   45.6730 C   0  0  0  0  0  0  0  0  0  0  0  0
   57.5664   31.6476   46.7219 H   0  0  0  0  0  0  0  0  0  0  0  0
   56.1530   27.7470   45.6160 N   0  0  0  0  0  0  0  0  0  0  0  0
   55.1420   27.9600   45.7830 H   0  0  0  0  0  0  0  0  0  0  0  0
   56.6180   26.4900   45.8610 C   0  0  0  0  0  0  0  0  0  0  0  0
   55.8270   25.6040   46.2820 O   0  0  0  0  0  0  0  0  0  0  0  0
   57.9710   26.1890   45.6420 C   0  0  0  0  0  0  0  0  0  0  0  0
   58.5130   24.8070   45.8820 C   0  0  0  0  0  0  0  0  0  0  0  0
   58.5847   24.6241   46.9643 H   0  0  0  0  0  0  0  0  0  0  0  0
   57.8392   24.0651   45.4286 H   0  0  0  0  0  0  0  0  0  0  0  0
   59.5115   24.7209   45.4286 H   0  0  0  0  0  0  0  0  0  0  0  0
  1  2  1  0
  2  3  1  0
  3  4  1  0
  4  5  2  0
  5  6  1  0
  6  7  2  0
  7  8  1  0
  7  9  1  0
  9 10  1  0
  9 11  2  0
 11 12  1  0
 11 13  1  0
 13 14  1  0
 14 15  1  0
 15 16  1  0
 15 17  1  0
 15 18  1  0
 14 19  1  0
 19 20  1  0
 19 21  1  0
 19 22  1  0
 13 23  2  0
 23 24  1  0
  4 25  1  0
 25 26  1  0
 25 27  1  0
 27 28  2  0
 27 29  1  0
 29 30  1  0
 30 31  1  0
 30 32  1  0
 30 33  1  0
 29  2  2  0
 23  6  1  0
M  CHG  1   3  -1
M  END
>  <UniqueID>  (31) 
28

>  <SMILES>  (31) 
Cc1c[n-]/c(=N\c2cccc(N(C)C)c2)[nH]c1=O

>  <Energy>  (31) 
42.000084843874994

>  <Genealogy>  (31) 
Cc1c[n-]c(=Nc2cccc(N(C)C)c2)[nH]c1=O (protonated)
Cc1c[n-]/c(=N\c2cccc(N(C)C)c2)[nH]c1=O (cis-trans isomerization)
Cc1c[n-]/c(=N\c2cccc(N(C)C)c2)[nH]c1=O (3D coordinates assigned)
Cc1c[n-]/c(=N\c2cccc(N(C)C)c2)[nH]c1=O (optimized conformer: 42.000084843874994 kcal/mol)

>  <smiles>  (31) 
Cc1c[nH]c(=Nc2cccc(N(C)C)c2)[nH]c1=O

>  <score_type>  (31) 
oracle

>  <origin>  (31) 
adg

>  <m_score__min__energy>  (31) 
-8.9100000000000001

>  <m_primary>  (31) 
energy

$$$$
31:0
     RDKit          3D

 27 28  0  0  0  0  0  0  0  0999 V2000
   56.6400   27.7960   45.6230 N   0  0  0  0  0  0  0  0  0  0  0  0
   57.3730   28.6710   45.4330 C   0  0  0  0  0  0  0  0  0  0  0  0
   58.2850   29.7610   45.1970 C   0  0  0  0  0  0  0  0  0  0  0  0
   59.5750   29.6020   45.5460 C   0  0  0  0  0  0  0  0  0  0  0  0
   60.2940   30.3700   46.5840 C   0  0  0  0  0  0  0  0  0  0  0  0
   60.2410   30.0960   47.9370 C   0  0  0  0  0  0  0  0  0  0  0  0
   61.0430   31.0370   48.5460 C   0  0  0  0  0  0  0  0  0  0  0  0
   61.5400   31.8200   47.5260 C   0  0  0  0  0  0  0  0  0  0  0  0
   62.7130   33.3070   47.7320 Br  0  0  0  0  0  0  0  0  0  0  0  0
   61.0820   31.3980   46.3720 O   0  0  0  0  0  0  0  0  0  0  0  0
   57.6170   31.2460   44.5040 S   0  0  0  0  0  0  0  0  0  0  0  0
   56.1180   31.2240   44.6160 O   0  0  0  0  0  0  0  0  0  0  0  0
   57.9870   31.3130   43.0480 O   0  0  0  0  0  0  0  0  0  0  0  0
   58.2110   32.6640   45.3660 C   0  0  0  0  0  0  0  0  0  0  0  0
   58.8280   33.7120   44.6650 C   0  0  0  0  0  0  0  0  0  0  0  0
   59.3190   34.8250   45.3560 C   0  0  0  0  0  0  0  0  0  0  0  0
   59.1900   34.8990   46.7460 C   0  0  0  0  0  0  0  0  0  0  0  0
   58.5680   33.8630   47.4470 C   0  0  0  0  0  0  0  0  0  0  0  0
   58.0770   32.7470   46.7590 C   0  0  0  0  0  0  0  0  0  0  0  0
   60.1464   28.8300   45.0098 H   0  0  0  0  0  0  0  0  0  0  0  0
   59.6744   29.2911   48.4280 H   0  0  0  0  0  0  0  0  0  0  0  0
   61.2446   31.1415   49.6223 H   0  0  0  0  0  0  0  0  0  0  0  0
   58.9256   33.6581   43.5707 H   0  0  0  0  0  0  0  0  0  0  0  0
   59.8070   35.6425   44.8051 H   0  0  0  0  0  0  0  0  0  0  0  0
   59.5786   35.7737   47.2882 H   0  0  0  0  0  0  0  0  0  0  0  0
   58.4640   33.9242   48.5404 H   0  0  0  0  0  0  0  0  0  0  0  0
   57.5851   31.9336   47.3125 H   0  0  0  0  0  0  0  0  0  0  0  0
  1  2  3  0
  2  3  1  0
  3  4  2  3
  4  5  1  0
  5  6  2  0
  6  7  1  0
  7  8  2  0
  8  9  1  0
  8 10  1  0
  3 11  1  0
 11 12  2  0
 11 13  2  0
 11 14  1  0
 14 15  2  0
 15 16  1  0
 16 17  2  0
 17 18  1  0
 18 19  2  0
 10  5  1  0
 19 14  1  0
  4 20  1  0
  6 21  1  0
  7 22  1  0
 15 23  1  0
 16 24  1  0
 17 25  1  0
 18 26  1  0
 19 27  1  0
M  END
>  <UniqueID>  (32) 
29

>  <SMILES>  (32) 
N#CC(=Cc1ccc(Br)o1)S(=O)(=O)c1ccccc1

>  <Energy>  (32) 
55.23722482017534

>  <Genealogy>  (32) 
N#CC(=Cc1ccc(Br)o1)S(=O)(=O)c1ccccc1 (3D coordinates assigned)
N#CC(=Cc1ccc(Br)o1)S(=O)(=O)c1ccccc1 (optimized conformer: 55.23722482017534 kcal/mol)

>  <smiles>  (32) 
N#CC(=Cc1ccc(Br)o1)S(=O)(=O)c1ccccc1

>  <score_type>  (32) 
oracle

>  <origin>  (32) 
adg

>  <m_score__min__energy>  (32) 
-7.7599999999999998

>  <m_primary>  (32) 
energy

$$$$
32:0
     RDKit          3D

 44 47  0  0  0  0  0  0  0  0999 V2000
   58.0060   34.1570   44.4890 O   0  0  0  0  0  0  0  0  0  0  0  0
   58.6220   33.8340   45.5410 C   0  0  0  0  0  0  0  0  0  0  0  0
   59.2490   34.9040   46.3810 C   0  0  0  0  0  0  0  0  0  0  0  0
   60.3940   34.3320   47.1720 C   0  0  0  0  0  0  0  0  0  0  0  0
   61.5320   33.8450   46.5140 C   0  0  0  0  0  0  0  0  0  0  0  0
   62.5800   33.2750   47.2430 C   0  0  0  0  0  0  0  0  0  0  0  0
   62.5050   33.1760   48.6440 C   0  0  0  0  0  0  0  0  0  0  0  0
   63.6140   32.5670   49.4200 C   0  0  0  0  0  0  0  0  0  0  0  0
   64.9110   33.1120   49.3620 C   0  0  0  0  0  0  0  0  0  0  0  0
   65.9520   32.5390   50.0980 C   0  0  0  0  0  0  0  0  0  0  0  0
   65.7130   31.4170   50.8970 C   0  0  0  0  0  0  0  0  0  0  0  0
   64.4300   30.8670   50.9610 C   0  0  0  0  0  0  0  0  0  0  0  0
   63.3850   31.4360   50.2260 C   0  0  0  0  0  0  0  0  0  0  0  0
   61.3560   33.6560   49.2980 C   0  0  0  0  0  0  0  0  0  0  0  0
   60.3080   34.2240   48.5680 C   0  0  0  0  0  0  0  0  0  0  0  0
   58.8020   32.4520   45.8900 N   0  0  0  0  0  0  0  0  0  0  0  0
   58.2000   31.3630   45.1660 C   0  0  0  0  0  0  0  0  0  0  0  0
   57.0470   31.5680   44.3870 C   0  0  0  0  0  0  0  0  0  0  0  0
   56.4530   30.5050   43.7020 C   0  0  0  0  0  0  0  0  0  0  0  0
   56.9930   29.2210   43.7910 C   0  0  0  0  0  0  0  0  0  0  0  0
   58.1310   28.9920   44.5750 C   0  0  0  0  0  0  0  0  0  0  0  0
   58.6890   27.7100   44.6830 C   0  0  0  0  0  0  0  0  0  0  0  0
   59.8260   27.5120   45.4690 C   0  0  0  0  0  0  0  0  0  0  0  0
   60.3950   28.5960   46.1400 C   0  0  0  0  0  0  0  0  0  0  0  0
   59.8450   29.8340   46.0280 N   0  0  0  0  0  0  0  0  0  0  0  0
   58.7350   30.0640   45.2720 C   0  0  0  0  0  0  0  0  0  0  0  0
   59.6221   35.7074   45.7288 H   0  0  0  0  0  0  0  0  0  0  0  0
   58.4961   35.3063   47.0747 H   0  0  0  0  0  0  0  0  0  0  0  0
   61.6008   33.9117   45.4182 H   0  0  0  0  0  0  0  0  0  0  0  0
   63.4705   32.9009   46.7166 H   0  0  0  0  0  0  0  0  0  0  0  0
   65.1061   33.9937   48.7339 H   0  0  0  0  0  0  0  0  0  0  0  0
   66.9620   32.9720   50.0484 H   0  0  0  0  0  0  0  0  0  0  0  0
   66.5341   30.9676   51.4747 H   0  0  0  0  0  0  0  0  0  0  0  0
   64.2416   29.9849   51.5906 H   0  0  0  0  0  0  0  0  0  0  0  0
   62.3778   30.9969   50.2781 H   0  0  0  0  0  0  0  0  0  0  0  0
   61.2815   33.5838   50.3931 H   0  0  0  0  0  0  0  0  0  0  0  0
   59.4113   34.5881   49.0908 H   0  0  0  0  0  0  0  0  0  0  0  0
   59.4830   32.2260   46.6490 H   0  0  0  0  0  0  0  0  0  0  0  0
   56.6089   32.5745   44.3164 H   0  0  0  0  0  0  0  0  0  0  0  0
   55.5560   30.6807   43.0900 H   0  0  0  0  0  0  0  0  0  0  0  0
   56.5247   28.3886   43.2453 H   0  0  0  0  0  0  0  0  0  0  0  0
   58.2324   26.8629   44.1501 H   0  0  0  0  0  0  0  0  0  0  0  0
   60.2700   26.5096   45.5588 H   0  0  0  0  0  0  0  0  0  0  0  0
   61.2908   28.4479   46.7610 H   0  0  0  0  0  0  0  0  0  0  0  0
  1  2  2  0
  2  3  1  0
  3  4  1  0
  4  5  2  0
  5  6  1  0
  6  7  2  0
  7  8  1  0
  8  9  2  0
  9 10  1  0
 10 11  2  0
 11 12  1  0
 12 13  2  0
  7 14  1  0
 14 15  2  0
  2 16  1  0
 16 17  1  0
 17 18  2  0
 18 19  1  0
 19 20  2  0
 20 21  1  0
 21 22  2  0
 22 23  1  0
 23 24  2  0
 24 25  1  0
 25 26  2  0
 15  4  1  0
 26 17  1  0
 13  8  1  0
 26 21  1  0
  3 27  1  0
  3 28  1  0
  5 29  1  0
  6 30  1  0
  9 31  1  0
 10 32  1  0
 11 33  1  0
 12 34  1  0
 13 35  1  0
 14 36  1  0
 15 37  1  0
 16 38  1  0
 18 39  1  0
 19 40  1  0
 20 41  1  0
 22 42  1  0
 23 43  1  0
 24 44  1  0
M  END
>  <UniqueID>  (33) 
30

>  <SMILES>  (33) 
O=C(Cc1ccc(-c2ccccc2)cc1)Nc1cccc2cccnc12

>  <Energy>  (33) 
59.16789684910954

>  <Genealogy>  (33) 
O=C(Cc1ccc(-c2ccccc2)cc1)Nc1cccc2cccnc12 (3D coordinates assigned)
O=C(Cc1ccc(-c2ccccc2)cc1)Nc1cccc2cccnc12 (optimized conformer: 59.16789684910954 kcal/mol)

>  <smiles>  (33) 
O=C(Cc1ccc(-c2ccccc2)cc1)Nc1cccc2cccnc12

>  <score_type>  (33) 
oracle

>  <origin>  (33) 
adg

>  <m_score__min__energy>  (33) 
-8.8300000000000001

>  <m_primary>  (33) 
energy

$$$$
33:0
     RDKit          3D

 65 68  0  0  0  0  0  0  0  0999 V2000
   59.6980   35.5930   46.0400 O   0  0  0  0  0  0  0  0  0  0  0  0
   60.0150   34.4090   46.3460 C   0  0  0  0  0  0  0  0  0  0  0  0
   59.1940   33.3070   45.8070 C   0  0  0  0  0  0  0  0  0  0  0  0
   58.6420   33.4150   44.5230 C   0  0  0  0  0  0  0  0  0  0  0  0
   57.8190   32.4040   44.0220 C   0  0  0  0  0  0  0  0  0  0  0  0
   57.5540   31.2600   44.7880 C   0  0  0  0  0  0  0  0  0  0  0  0
   56.4810   30.0040   44.1650 S   0  0  0  0  0  0  0  0  0  0  0  0
   56.7480   29.8030   42.6990 O   0  0  0  0  0  0  0  0  0  0  0  0
   55.0440   30.4180   44.3210 O   0  0  0  0  0  0  0  0  0  0  0  0
   56.7890   28.4930   44.9670 N   0  0  0  0  0  0  0  0  0  0  0  0
   58.0110   28.0630   45.5890 C   0  0  0  0  0  0  0  0  0  0  0  0
   59.2750   28.2480   44.9980 C   0  0  0  0  0  0  0  0  0  0  0  0
   60.4310   27.8060   45.6520 C   0  0  0  0  0  0  0  0  0  0  0  0
   60.3370   27.1890   46.9020 C   0  0  0  0  0  0  0  0  0  0  0  0
   59.0870   27.0110   47.4980 C   0  0  0  0  0  0  0  0  0  0  0  0
   57.9300   27.4440   46.8440 C   0  0  0  0  0  0  0  0  0  0  0  0
   58.1400   31.1330   46.0570 C   0  0  0  0  0  0  0  0  0  0  0  0
   58.9610   32.1470   46.5620 C   0  0  0  0  0  0  0  0  0  0  0  0
   61.1330   34.1670   47.2350 N   0  0  0  0  0  0  0  0  0  0  0  0
   62.4490   33.7600   46.7130 C   0  0  0  0  0  0  0  0  0  0  0  0
   63.5650   34.0820   47.7180 C   0  0  0  0  0  0  0  0  0  0  0  0
   64.1120   32.8060   48.3610 C   0  0  0  0  0  0  0  0  0  0  0  0
   64.8830   33.1480   49.5810 N   0  0  0  0  0  0  0  0  0  0  0  0
   65.5960   31.9770   50.1480 C   0  0  0  0  0  0  0  0  0  0  0  0
   64.7580   31.2320   51.2080 C   0  0  0  0  0  0  0  0  0  0  0  0
   63.3780   31.4460   50.9890 O   0  0  0  0  0  0  0  0  0  0  0  0
   63.0520   32.8020   51.2500 C   0  0  0  0  0  0  0  0  0  0  0  0
   64.0430   33.8000   50.6050 C   0  0  0  0  0  0  0  0  0  0  0  0
   60.9370   34.2140   48.6920 C   0  0  0  0  0  0  0  0  0  0  0  0
   60.4100   32.8940   49.1930 C   0  0  0  0  0  0  0  0  0  0  0  0
   59.2550   32.8420   49.9870 C   0  0  0  0  0  0  0  0  0  0  0  0
   58.7980   31.6170   50.4740 C   0  0  0  0  0  0  0  0  0  0  0  0
   59.5020   30.4520   50.1640 C   0  0  0  0  0  0  0  0  0  0  0  0
   60.6260   30.5150   49.4020 N   0  0  0  0  0  0  0  0  0  0  0  0
   61.0910   31.6990   48.9160 C   0  0  0  0  0  0  0  0  0  0  0  0
   58.8581   34.3004   43.9070 H   0  0  0  0  0  0  0  0  0  0  0  0
   57.3760   32.5059   43.0203 H   0  0  0  0  0  0  0  0  0  0  0  0
   59.3547   28.7419   44.0183 H   0  0  0  0  0  0  0  0  0  0  0  0
   61.4153   27.9447   45.1809 H   0  0  0  0  0  0  0  0  0  0  0  0
   61.2464   26.8440   47.4158 H   0  0  0  0  0  0  0  0  0  0  0  0
   59.0126   26.5291   48.4840 H   0  0  0  0  0  0  0  0  0  0  0  0
   56.9482   27.2978   47.3180 H   0  0  0  0  0  0  0  0  0  0  0  0
   57.9527   30.2309   46.6580 H   0  0  0  0  0  0  0  0  0  0  0  0
   59.4250   32.0349   47.5530 H   0  0  0  0  0  0  0  0  0  0  0  0
   62.4401   32.6770   46.5205 H   0  0  0  0  0  0  0  0  0  0  0  0
   62.6439   34.3157   45.7839 H   0  0  0  0  0  0  0  0  0  0  0  0
   64.3823   34.5990   47.1939 H   0  0  0  0  0  0  0  0  0  0  0  0
   63.1482   34.7214   48.5101 H   0  0  0  0  0  0  0  0  0  0  0  0
   63.2748   32.1457   48.6314 H   0  0  0  0  0  0  0  0  0  0  0  0
   64.7726   32.2938   47.6460 H   0  0  0  0  0  0  0  0  0  0  0  0
   65.8333   31.2791   49.3315 H   0  0  0  0  0  0  0  0  0  0  0  0
   66.5070   32.3468   50.6413 H   0  0  0  0  0  0  0  0  0  0  0  0
   64.9714   30.1547   51.1463 H   0  0  0  0  0  0  0  0  0  0  0  0
   65.0234   31.6150   52.2044 H   0  0  0  0  0  0  0  0  0  0  0  0
   62.0456   33.0025   50.8537 H   0  0  0  0  0  0  0  0  0  0  0  0
   63.1026   32.9475   52.3392 H   0  0  0  0  0  0  0  0  0  0  0  0
   63.4732   34.6143   50.1335 H   0  0  0  0  0  0  0  0  0  0  0  0
   64.7030   34.1879   51.3949 H   0  0  0  0  0  0  0  0  0  0  0  0
   61.8987   34.4295   49.1805 H   0  0  0  0  0  0  0  0  0  0  0  0
   60.2080   35.0029   48.9292 H   0  0  0  0  0  0  0  0  0  0  0  0
   58.7095   33.7669   50.2257 H   0  0  0  0  0  0  0  0  0  0  0  0
   57.8920   31.5696   51.0960 H   0  0  0  0  0  0  0  0  0  0  0  0
   59.1462   29.4804   50.5374 H   0  0  0  0  0  0  0  0  0  0  0  0
   61.1440   29.6350   49.1820 H   0  0  0  0  0  0  0  0  0  0  0  0
   62.0045   31.7186   48.3036 H   0  0  0  0  0  0  0  0  0  0  0  0
  1  2  2  0
  2  3  1  0
  3  4  2  0
  4  5  1  0
  5  6  2  0
  6  7  1  0
  7  8  2  0
  7  9  2  0
  7 10  1  0
 10 11  1  0
 11 12  2  0
 12 13  1  0
 13 14  2  0
 14 15  1  0
 15 16  2  0
  6 17  1  0
 17 18  2  0
  2 19  1  0
 19 20  1  0
 20 21  1  0
 21 22  1  0
 22 23  1  0
 23 24  1  0
 24 25  1  0
 25 26  1  0
 26 27  1  0
 27 28  1  0
 19 29  1  0
 29 30  1  0
 30 31  2  0
 31 32  1  0
 32 33  2  0
 33 34  1  0
 34 35  2  0
 18  3  1  0
 28 23  1  0
 35 30  1  0
 16 11  1  0
  4 36  1  0
  5 37  1  0
 12 38  1  0
 13 39  1  0
 14 40  1  0
 15 41  1  0
 16 42  1  0
 17 43  1  0
 18 44  1  0
 20 45  1  0
 20 46  1  0
 21 47  1  0
 21 48  1  0
 22 49  1  0
 22 50  1  0
 24 51  1  0
 24 52  1  0
 25 53  1  0
 25 54  1  0
 27 55  1  0
 27 56  1  0
 28 57  1  0
 28 58  1  0
 29 59  1  0
 29 60  1  0
 31 61  1  0
 32 62  1  0
 33 63  1  0
 34 64  1  0
 35 65  1  0
M  CHG  2  10  -1  34   1
M  END
>  <UniqueID>  (34) 
31

>  <SMILES>  (34) 
O=C(c1ccc(S(=O)(=O)[N-]c2ccccc2)cc1)N(CCCN1CCOCC1)Cc1ccc[nH+]c1

>  <Energy>  (34) 
84.74469665745767

>  <Genealogy>  (34) 
O=C(c1ccc(S(=O)(=O)[N-]c2ccccc2)cc1)N(CCCN1CCOCC1)Cc1ccc[nH+]c1 (protonated)
O=C(c1ccc(S(=O)(=O)[N-]c2ccccc2)cc1)N(CCCN1CCOCC1)Cc1ccc[nH+]c1 (3D coordinates assigned)
O=C(c1ccc(S(=O)(=O)[N-]c2ccccc2)cc1)N(CCCN1CCOCC1)Cc1ccc[nH+]c1 (nonaromatic ring conformer: 84.74469665745767 kcal/mol)

>  <smiles>  (34) 
O=C(c1ccc(S(=O)(=O)Nc2ccccc2)cc1)N(CCCN1CCOCC1)Cc1cccnc1

>  <score_type>  (34) 
oracle

>  <origin>  (34) 
adg

>  <m_score__min__energy>  (34) 
-9.5600000000000005

>  <m_primary>  (34) 
energy

$$$$
34:0
     RDKit          3D

 31 32  0  0  0  0  0  0  0  0999 V2000
   57.9060   31.5400   42.9120 O   0  0  0  0  0  0  0  0  0  0  0  0
   57.7150   31.7030   44.1470 C   0  0  0  0  0  0  0  0  0  0  0  0
   56.9650   30.7440   44.8950 N   0  0  0  0  0  0  0  0  0  0  0  0
   56.2500   29.3480   44.1650 S   0  0  0  0  0  0  0  0  0  0  0  0
   54.9980   29.7560   43.4390 O   0  0  0  0  0  0  0  0  0  0  0  0
   55.8940   28.3670   45.2480 O   0  0  0  0  0  0  0  0  0  0  0  0
   57.3870   28.6310   43.0580 N   0  0  0  0  0  0  0  0  0  0  0  0
   58.2560   27.6460   43.7190 C   0  0  0  0  0  0  0  0  0  0  0  0
   58.9110   28.2070   44.9580 C   0  0  0  0  0  0  0  0  0  0  0  0
   58.5980   27.6810   46.2230 C   0  0  0  0  0  0  0  0  0  0  0  0
   59.1910   28.2090   47.3730 C   0  0  0  0  0  0  0  0  0  0  0  0
   60.1010   29.2650   47.2700 C   0  0  0  0  0  0  0  0  0  0  0  0
   60.4180   29.7950   46.0150 C   0  0  0  0  0  0  0  0  0  0  0  0
   59.8270   29.2690   44.8630 C   0  0  0  0  0  0  0  0  0  0  0  0
   58.2640   32.8820   44.8270 C   0  0  0  0  0  0  0  0  0  0  0  0
   58.1730   33.1580   46.1760 C   0  0  0  0  0  0  0  0  0  0  0  0
   58.8280   34.3580   46.3530 C   0  0  0  0  0  0  0  0  0  0  0  0
   59.2770   34.7370   45.1050 C   0  0  0  0  0  0  0  0  0  0  0  0
   58.9260   33.8370   44.2150 O   0  0  0  0  0  0  0  0  0  0  0  0
   56.8660   28.1900   42.2670 H   0  0  0  0  0  0  0  0  0  0  0  0
   57.9840   29.3990   42.6730 H   0  0  0  0  0  0  0  0  0  0  0  0
   57.6504   26.7726   44.0026 H   0  0  0  0  0  0  0  0  0  0  0  0
   59.0514   27.3678   43.0119 H   0  0  0  0  0  0  0  0  0  0  0  0
   57.8828   26.8496   46.3084 H   0  0  0  0  0  0  0  0  0  0  0  0
   58.9414   27.7931   48.3603 H   0  0  0  0  0  0  0  0  0  0  0  0
   60.5678   29.6792   48.1758 H   0  0  0  0  0  0  0  0  0  0  0  0
   61.1333   30.6268   45.9347 H   0  0  0  0  0  0  0  0  0  0  0  0
   60.0797   29.6878   43.8777 H   0  0  0  0  0  0  0  0  0  0  0  0
   57.6810   32.5483   46.9482 H   0  0  0  0  0  0  0  0  0  0  0  0
   58.9649   34.9032   47.2985 H   0  0  0  0  0  0  0  0  0  0  0  0
   59.8435   35.6545   44.8879 H   0  0  0  0  0  0  0  0  0  0  0  0
  1  2  2  0
  2  3  1  0
  3  4  1  0
  4  5  2  0
  4  6  2  0
  4  7  1  0
  7  8  1  0
  8  9  1  0
  9 10  2  0
 10 11  1  0
 11 12  2  0
 12 13  1  0
 13 14  2  0
  2 15  1  0
 15 16  2  0
 16 17  1  0
 17 18  2  0
 18 19  1  0
 14  9  1  0
 19 15  1  0
  7 20  1  0
  7 21  1  0
  8 22  1  0
  8 23  1  0
 10 24  1  0
 11 25  1  0
 12 26  1  0
 13 27  1  0
 14 28  1  0
 16 29  1  0
 17 30  1  0
 18 31  1  0
M  CHG  2   3  -1   7   1
M  END
>  <UniqueID>  (35) 
32

>  <SMILES>  (35) 
O=C([N-]S(=O)(=O)[NH2+]Cc1ccccc1)c1ccco1

>  <Energy>  (35) 
54.52546362707045

>  <Genealogy>  (35) 
O=C([N-]S(=O)(=O)[NH2+]Cc1ccccc1)c1ccco1 (protonated)
O=C([N-]S(=O)(=O)[NH2+]Cc1ccccc1)c1ccco1 (3D coordinates assigned)
O=C([N-]S(=O)(=O)[NH2+]Cc1ccccc1)c1ccco1 (optimized conformer: 54.52546362707045 kcal/mol)

>  <smiles>  (35) 
O=C(NS(=O)(=O)NCc1ccccc1)c1ccco1

>  <score_type>  (35) 
oracle

>  <origin>  (35) 
adg

>  <m_score__min__energy>  (35) 
-7.6100000000000003

>  <m_primary>  (35) 
energy

$$$$
35:0
     RDKit          3D

 58 62  0  0  0  0  0  0  0  0999 V2000
   64.1080   33.4590   47.4410 C   0  0  0  0  0  0  0  0  0  0  0  0
   62.8840   33.8450   46.8860 C   0  0  0  0  0  0  0  0  0  0  0  0
   61.6870   33.4610   47.4950 C   0  0  0  0  0  0  0  0  0  0  0  0
   61.7050   32.6920   48.6730 C   0  0  0  0  0  0  0  0  0  0  0  0
   60.4400   32.2880   49.3230 C   0  0  0  0  0  0  0  0  0  0  0  0
   59.8370   33.1720   50.2350 C   0  0  0  0  0  0  0  0  0  0  0  0
   58.6830   32.8000   50.9270 C   0  0  0  0  0  0  0  0  0  0  0  0
   58.1180   31.5440   50.7180 C   0  0  0  0  0  0  0  0  0  0  0  0
   58.6950   30.6590   49.8060 C   0  0  0  0  0  0  0  0  0  0  0  0
   59.8510   31.0190   49.0890 C   0  0  0  0  0  0  0  0  0  0  0  0
   60.3640   30.1250   48.0760 N   0  0  0  0  0  0  0  0  0  0  0  0
   60.3730   28.6760   48.2840 C   0  0  0  0  0  0  0  0  0  0  0  0
   59.4020   27.9780   47.3040 C   0  0  0  0  0  0  0  0  0  0  0  0
   59.1370   28.7510   46.0540 N   0  0  0  0  0  0  0  0  0  0  0  0
   57.8800   29.5360   46.1650 C   0  0  0  0  0  0  0  0  0  0  0  0
   57.3950   30.0540   44.8290 C   0  0  0  0  0  0  0  0  0  0  0  0
   56.8660   29.2570   43.8310 C   0  0  0  0  0  0  0  0  0  0  0  0
   56.6440   30.0800   42.7450 C   0  0  0  0  0  0  0  0  0  0  0  0
   57.0440   31.3460   43.1200 C   0  0  0  0  0  0  0  0  0  0  0  0
   57.4910   31.3330   44.3910 N   0  0  0  0  0  0  0  0  0  0  0  0
   57.9790   32.4830   45.1020 C   0  0  0  0  0  0  0  0  0  0  0  0
   58.6800   33.4870   44.4170 C   0  0  0  0  0  0  0  0  0  0  0  0
   59.1820   34.5940   45.1090 C   0  0  0  0  0  0  0  0  0  0  0  0
   58.9680   34.7150   46.4850 C   0  0  0  0  0  0  0  0  0  0  0  0
   58.2420   33.7360   47.1680 C   0  0  0  0  0  0  0  0  0  0  0  0
   57.7430   32.6260   46.4800 C   0  0  0  0  0  0  0  0  0  0  0  0
   60.3070   29.5750   45.6630 C   0  0  0  0  0  0  0  0  0  0  0  0
   60.6650   30.6250   46.7300 C   0  0  0  0  0  0  0  0  0  0  0  0
   62.9390   32.2970   49.2160 C   0  0  0  0  0  0  0  0  0  0  0  0
   64.1350   32.6840   48.6040 C   0  0  0  0  0  0  0  0  0  0  0  0
   65.0498   33.7653   46.9623 H   0  0  0  0  0  0  0  0  0  0  0  0
   62.8637   34.4518   45.9687 H   0  0  0  0  0  0  0  0  0  0  0  0
   60.7261   33.7612   47.0516 H   0  0  0  0  0  0  0  0  0  0  0  0
   60.2783   34.1652   50.4047 H   0  0  0  0  0  0  0  0  0  0  0  0
   58.2193   33.4995   51.6381 H   0  0  0  0  0  0  0  0  0  0  0  0
   57.2152   31.2491   51.2729 H   0  0  0  0  0  0  0  0  0  0  0  0
   58.2414   29.6698   49.6460 H   0  0  0  0  0  0  0  0  0  0  0  0
   61.3909   28.2935   48.1178 H   0  0  0  0  0  0  0  0  0  0  0  0
   60.0496   28.4642   49.3138 H   0  0  0  0  0  0  0  0  0  0  0  0
   59.8335   27.0057   47.0240 H   0  0  0  0  0  0  0  0  0  0  0  0
   58.4391   27.8807   47.8269 H   0  0  0  0  0  0  0  0  0  0  0  0
   58.9920   28.0480   45.2910 H   0  0  0  0  0  0  0  0  0  0  0  0
   57.0999   28.8919   46.5969 H   0  0  0  0  0  0  0  0  0  0  0  0
   58.0878   30.4073   46.8035 H   0  0  0  0  0  0  0  0  0  0  0  0
   56.6618   28.1778   43.8905 H   0  0  0  0  0  0  0  0  0  0  0  0
   56.2289   29.7839   41.7703 H   0  0  0  0  0  0  0  0  0  0  0  0
   57.0038   32.2363   42.4753 H   0  0  0  0  0  0  0  0  0  0  0  0
   58.8354   33.4032   43.3313 H   0  0  0  0  0  0  0  0  0  0  0  0
   59.7455   35.3699   44.5700 H   0  0  0  0  0  0  0  0  0  0  0  0
   59.3712   35.5811   47.0302 H   0  0  0  0  0  0  0  0  0  0  0  0
   58.0628   33.8387   48.2484 H   0  0  0  0  0  0  0  0  0  0  0  0
   57.1637   31.8619   47.0191 H   0  0  0  0  0  0  0  0  0  0  0  0
   61.1724   28.9125   45.5144 H   0  0  0  0  0  0  0  0  0  0  0  0
   60.0473   30.1105   44.7379 H   0  0  0  0  0  0  0  0  0  0  0  0
   61.7385   30.8556   46.6629 H   0  0  0  0  0  0  0  0  0  0  0  0
   60.0664   31.5298   46.5484 H   0  0  0  0  0  0  0  0  0  0  0  0
   62.9643   31.6805   50.1267 H   0  0  0  0  0  0  0  0  0  0  0  0
   65.0983   32.3783   49.0382 H   0  0  0  0  0  0  0  0  0  0  0  0
  1  2  2  0
  2  3  1  0
  3  4  2  0
  4  5  1  0
  5  6  2  0
  6  7  1  0
  7  8  2  0
  8  9  1  0
  9 10  2  0
 10 11  1  0
 11 12  1  0
 12 13  1  0
 13 14  1  0
 14 15  1  0
 15 16  1  0
 16 17  2  0
 17 18  1  0
 18 19  2  0
 19 20  1  0
 20 21  1  0
 21 22  2  0
 22 23  1  0
 23 24  2  0
 24 25  1  0
 25 26  2  0
 14 27  1  0
 27 28  1  0
  4 29  1  0
 29 30  2  0
 30  1  1  0
 10  5  1  0
 28 11  1  0
 20 16  1  0
 26 21  1  0
  1 31  1  0
  2 32  1  0
  3 33  1  0
  6 34  1  0
  7 35  1  0
  8 36  1  0
  9 37  1  0
 12 38  1  0
 12 39  1  0
 13 40  1  0
 13 41  1  0
 14 42  1  0
 15 43  1  0
 15 44  1  0
 17 45  1  0
 18 46  1  0
 19 47  1  0
 22 48  1  0
 23 49  1  0
 24 50  1  0
 25 51  1  0
 26 52  1  0
 27 53  1  0
 27 54  1  0
 28 55  1  0
 28 56  1  0
 29 57  1  0
 30 58  1  0
M  CHG  1  14   1
M  END
>  <UniqueID>  (36) 
33

>  <SMILES>  (36) 
c1ccc(-c2ccccc2N2CC[NH+](Cc3cccn3-c3ccccc3)CC2)cc1

>  <Energy>  (36) 
109.69994666559825

>  <Genealogy>  (36) 
c1ccc(-c2ccccc2N2CC[NH+](Cc3cccn3-c3ccccc3)CC2)cc1 (protonated)
c1ccc(-c2ccccc2N2CC[NH+](Cc3cccn3-c3ccccc3)CC2)cc1 (3D coordinates assigned)
c1ccc(-c2ccccc2N2CC[NH+](Cc3cccn3-c3ccccc3)CC2)cc1 (nonaromatic ring conformer: 109.69994666559825 kcal/mol)

>  <smiles>  (36) 
c1ccc(-c2ccccc2N2CCN(Cc3cccn3-c3ccccc3)CC2)cc1

>  <score_type>  (36) 
oracle

>  <origin>  (36) 
adg

>  <m_score__min__energy>  (36) 
-7.5300000000000002

>  <m_primary>  (36) 
energy

$$$$
36:0
     RDKit          3D

 54 57  0  0  0  0  0  0  0  0999 V2000
   57.5880   33.1640   46.9870 O   0  0  0  0  0  0  0  0  0  0  0  0
   58.3060   33.1480   45.9500 C   0  0  0  0  0  0  0  0  0  0  0  0
   59.3510   34.1140   45.7890 N   0  0  0  0  0  0  0  0  0  0  0  0
   60.2350   34.5290   46.8750 C   0  0  0  0  0  0  0  0  0  0  0  0
   61.3230   33.5110   47.0760 C   0  0  0  0  0  0  0  0  0  0  0  0
   61.0070   32.2260   47.5460 C   0  0  0  0  0  0  0  0  0  0  0  0
   62.0200   31.2860   47.7640 C   0  0  0  0  0  0  0  0  0  0  0  0
   63.3540   31.6240   47.5210 C   0  0  0  0  0  0  0  0  0  0  0  0
   63.6780   32.9050   47.0620 C   0  0  0  0  0  0  0  0  0  0  0  0
   62.6680   33.8460   46.8400 C   0  0  0  0  0  0  0  0  0  0  0  0
   58.0540   32.1850   44.9090 N   0  0  0  0  0  0  0  0  0  0  0  0
   57.7630   32.7140   43.5650 C   0  0  0  0  0  0  0  0  0  0  0  0
   57.6500   31.6070   42.5130 C   0  0  0  0  0  0  0  0  0  0  0  0
   56.7050   30.5080   42.9940 C   0  0  0  0  0  0  0  0  0  0  0  0
   57.2010   29.9410   44.2940 C   0  0  0  0  0  0  0  0  0  0  0  0
   56.9860   28.5870   44.5970 C   0  0  0  0  0  0  0  0  0  0  0  0
   57.4670   28.0450   45.7920 C   0  0  0  0  0  0  0  0  0  0  0  0
   57.2210   26.3340   46.1370 S   0  0  0  0  0  0  0  0  0  0  0  0
   57.7050   26.0510   47.5320 O   0  0  0  0  0  0  0  0  0  0  0  0
   58.0180   25.4900   45.1820 O   0  0  0  0  0  0  0  0  0  0  0  0
   55.5350   25.9140   46.0280 N   0  0  0  0  0  0  0  0  0  0  0  0
   55.3120   24.5010   46.3420 C   0  0  0  0  0  0  0  0  0  0  0  0
   55.9100   23.6080   45.2860 C   0  0  0  0  0  0  0  0  0  0  0  0
   55.4880   23.7170   43.9500 C   0  0  0  0  0  0  0  0  0  0  0  0
   56.0390   22.8880   42.9670 C   0  0  0  0  0  0  0  0  0  0  0  0
   57.0150   21.9470   43.3100 C   0  0  0  0  0  0  0  0  0  0  0  0
   57.4420   21.8350   44.6360 C   0  0  0  0  0  0  0  0  0  0  0  0
   56.8950   22.6630   45.6220 C   0  0  0  0  0  0  0  0  0  0  0  0
   58.1760   28.8560   46.6850 C   0  0  0  0  0  0  0  0  0  0  0  0
   58.3800   30.2080   46.3980 C   0  0  0  0  0  0  0  0  0  0  0  0
   57.8610   30.7780   45.2170 C   0  0  0  0  0  0  0  0  0  0  0  0
   60.6874   35.4998   46.6245 H   0  0  0  0  0  0  0  0  0  0  0  0
   59.6489   34.6160   47.8018 H   0  0  0  0  0  0  0  0  0  0  0  0
   59.9587   31.9574   47.7436 H   0  0  0  0  0  0  0  0  0  0  0  0
   61.7660   30.2793   48.1273 H   0  0  0  0  0  0  0  0  0  0  0  0
   64.1490   30.8829   47.6906 H   0  0  0  0  0  0  0  0  0  0  0  0
   64.7286   33.1723   46.8755 H   0  0  0  0  0  0  0  0  0  0  0  0
   62.9267   34.8525   46.4793 H   0  0  0  0  0  0  0  0  0  0  0  0
   56.8119   33.2655   43.6009 H   0  0  0  0  0  0  0  0  0  0  0  0
   58.5981   33.3684   43.2744 H   0  0  0  0  0  0  0  0  0  0  0  0
   57.2613   32.0350   41.5772 H   0  0  0  0  0  0  0  0  0  0  0  0
   58.6463   31.1719   42.3453 H   0  0  0  0  0  0  0  0  0  0  0  0
   55.6994   30.9294   43.1397 H   0  0  0  0  0  0  0  0  0  0  0  0
   56.6666   29.7075   42.2405 H   0  0  0  0  0  0  0  0  0  0  0  0
   56.4358   27.9491   43.8897 H   0  0  0  0  0  0  0  0  0  0  0  0
   55.7771   24.2711   47.3120 H   0  0  0  0  0  0  0  0  0  0  0  0
   54.2278   24.3190   46.3794 H   0  0  0  0  0  0  0  0  0  0  0  0
   54.7215   24.4569   43.6761 H   0  0  0  0  0  0  0  0  0  0  0  0
   55.7041   22.9764   41.9230 H   0  0  0  0  0  0  0  0  0  0  0  0
   57.4466   21.2951   42.5362 H   0  0  0  0  0  0  0  0  0  0  0  0
   58.2096   21.0944   44.9049 H   0  0  0  0  0  0  0  0  0  0  0  0
   57.2368   22.5743   46.6638 H   0  0  0  0  0  0  0  0  0  0  0  0
   58.5743   28.4275   47.6165 H   0  0  0  0  0  0  0  0  0  0  0  0
   58.9508   30.8338   47.0998 H   0  0  0  0  0  0  0  0  0  0  0  0
  1  2  2  0
  2  3  1  0
  3  4  1  0
  4  5  1  0
  5  6  2  0
  6  7  1  0
  7  8  2  0
  8  9  1  0
  9 10  2  0
  2 11  1  0
 11 12  1  0
 12 13  1  0
 13 14  1  0
 14 15  1  0
 15 16  2  0
 16 17  1  0
 17 18  1  0
 18 19  2  0
 18 20  2  0
 18 21  1  0
 21 22  1  0
 22 23  1  0
 23 24  2  0
 24 25  1  0
 25 26  2  0
 26 27  1  0
 27 28  2  0
 17 29  2  0
 29 30  1  0
 30 31  2  0
 10  5  1  0
 31 11  1  0
 31 15  1  0
 28 23  1  0
  4 32  1  0
  4 33  1  0
  6 34  1  0
  7 35  1  0
  8 36  1  0
  9 37  1  0
 10 38  1  0
 12 39  1  0
 12 40  1  0
 13 41  1  0
 13 42  1  0
 14 43  1  0
 14 44  1  0
 16 45  1  0
 22 46  1  0
 22 47  1  0
 24 48  1  0
 25 49  1  0
 26 50  1  0
 27 51  1  0
 28 52  1  0
 29 53  1  0
 30 54  1  0
M  CHG  2   3  -1  21  -1
M  END
>  <UniqueID>  (37) 
34

>  <SMILES>  (37) 
O=C([N-]Cc1ccccc1)N1CCCc2cc(S(=O)(=O)[N-]Cc3ccccc3)ccc21

>  <Energy>  (37) 
59.23606505283766

>  <Genealogy>  (37) 
O=C([N-]Cc1ccccc1)N1CCCc2cc(S(=O)(=O)[N-]Cc3ccccc3)ccc21 (protonated)
O=C([N-]Cc1ccccc1)N1CCCc2cc(S(=O)(=O)[N-]Cc3ccccc3)ccc21 (3D coordinates assigned)
O=C([N-]Cc1ccccc1)N1CCCc2cc(S(=O)(=O)[N-]Cc3ccccc3)ccc21 (nonaromatic ring conformer: 59.23606505283766 kcal/mol)

>  <smiles>  (37) 
O=C(NCc1ccccc1)N1CCCc2cc(S(=O)(=O)NCc3ccccc3)ccc21

>  <score_type>  (37) 
oracle

>  <origin>  (37) 
adg

>  <m_score__min__energy>  (37) 
-12.74

>  <m_primary>  (37) 
energy

$$$$
37:0
     RDKit          3D

 45 48  0  0  0  0  0  0  0  0999 V2000
   53.3130   25.6430   45.8340 H   0  0  0  0  0  0  0  0  0  0  0  0
   52.9390   24.8670   45.2440 N   0  0  0  0  0  0  0  0  0  0  0  0
   53.0330   23.5110   45.6720 C   0  0  0  0  0  0  0  0  0  0  0  0
   52.2970   22.6390   45.1370 O   0  0  0  0  0  0  0  0  0  0  0  0
   53.9860   23.1400   46.7330 C   0  0  0  0  0  0  0  0  0  0  0  0
   55.1740   23.8000   46.8260 N   0  0  0  0  0  0  0  0  0  0  0  0
   56.0970   23.5070   47.7830 C   0  0  0  0  0  0  0  0  0  0  0  0
   57.3930   24.2620   47.8090 C   0  0  0  0  0  0  0  0  0  0  0  0
   58.2295   23.5503   47.7470 H   0  0  0  0  0  0  0  0  0  0  0  0
   57.4560   24.8348   48.7460 H   0  0  0  0  0  0  0  0  0  0  0  0
   57.4610   25.1860   46.6800 N   0  0  0  0  0  0  0  0  0  0  0  0
   56.5770   25.6540   46.3790 H   0  0  0  0  0  0  0  0  0  0  0  0
   58.6580   25.3650   45.9050 C   0  0  0  0  0  0  0  0  0  0  0  0
   59.6390   24.5940   46.0780 O   0  0  0  0  0  0  0  0  0  0  0  0
   58.7420   26.3660   44.8820 N   0  0  0  0  0  0  0  0  0  0  0  0
   58.5770   27.6480   45.0370 C   0  0  0  0  0  0  0  0  0  0  0  0
   59.6070   28.4510   45.4670 N   0  0  0  0  0  0  0  0  0  0  0  0
   59.4700   29.8010   45.6200 C   0  0  0  0  0  0  0  0  0  0  0  0
   60.3109   30.4212   45.9638 H   0  0  0  0  0  0  0  0  0  0  0  0
   58.2320   30.3680   45.3270 C   0  0  0  0  0  0  0  0  0  0  0  0
   57.7400   31.6590   45.3200 C   0  0  0  0  0  0  0  0  0  0  0  0
   58.4270   32.9030   45.7250 C   0  0  0  0  0  0  0  0  0  0  0  0
   58.6350   33.9210   44.7840 C   0  0  0  0  0  0  0  0  0  0  0  0
   58.2982   33.7904   43.7450 H   0  0  0  0  0  0  0  0  0  0  0  0
   59.2720   35.1020   45.1720 C   0  0  0  0  0  0  0  0  0  0  0  0
   59.4460   35.8998   44.4349 H   0  0  0  0  0  0  0  0  0  0  0  0
   59.6770   35.2670   46.4580 N   0  0  0  0  0  0  0  0  0  0  0  0
   59.4820   34.3040   47.4000 C   0  0  0  0  0  0  0  0  0  0  0  0
   59.9110   34.5480   48.8110 C   0  0  0  0  0  0  0  0  0  0  0  0
   59.1653   34.1239   49.4995 H   0  0  0  0  0  0  0  0  0  0  0  0
   60.8857   34.0691   48.9859 H   0  0  0  0  0  0  0  0  0  0  0  0
   59.9977   35.6305   48.9859 H   0  0  0  0  0  0  0  0  0  0  0  0
   58.8400   33.1080   47.0520 C   0  0  0  0  0  0  0  0  0  0  0  0
   58.6605   32.3345   47.8132 H   0  0  0  0  0  0  0  0  0  0  0  0
   56.4700   31.6220   44.8510 N   0  0  0  0  0  0  0  0  0  0  0  0
   56.1390   30.3640   44.5750 N   0  0  0  0  0  0  0  0  0  0  0  0
   57.2060   29.6000   44.8640 C   0  0  0  0  0  0  0  0  0  0  0  0
   57.3350   28.2240   44.7040 C   0  0  0  0  0  0  0  0  0  0  0  0
   56.5010   27.6105   44.3325 H   0  0  0  0  0  0  0  0  0  0  0  0
   55.8360   22.4870   48.7080 C   0  0  0  0  0  0  0  0  0  0  0  0
   56.5763   22.2354   49.4817 H   0  0  0  0  0  0  0  0  0  0  0  0
   54.6270   21.7940   48.6370 C   0  0  0  0  0  0  0  0  0  0  0  0
   54.4090   20.9935   49.3593 H   0  0  0  0  0  0  0  0  0  0  0  0
   53.6940   22.1160   47.6500 C   0  0  0  0  0  0  0  0  0  0  0  0
   52.7391   21.5732   47.5905 H   0  0  0  0  0  0  0  0  0  0  0  0
  1  2  1  0
  2  3  1  0
  3  4  2  0
  3  5  1  0
  5  6  2  0
  6  7  1  0
  7  8  1  0
  8  9  1  0
  8 10  1  0
  8 11  1  0
 11 12  1  0
 11 13  1  0
 13 14  2  0
 13 15  1  0
 15 16  2  0
 16 17  1  0
 17 18  1  0
 18 19  1  0
 18 20  2  0
 20 21  1  0
 21 22  1  0
 22 23  2  0
 23 24  1  0
 23 25  1  0
 25 26  1  0
 25 27  2  0
 27 28  1  0
 28 29  1  0
 29 30  1  0
 29 31  1  0
 29 32  1  0
 28 33  2  0
 33 34  1  0
 21 35  2  0
 35 36  1  0
 36 37  1  0
 37 38  2  0
 38 39  1  0
  7 40  2  0
 40 41  1  0
 40 42  1  0
 42 43  1  0
 42 44  2  0
 44 45  1  0
 44  5  1  0
 38 16  1  0
 37 20  1  0
 33 22  1  0
M  CHG  3   2  -1  17  -1  36  -1
M  END
>  <UniqueID>  (38) 
35

>  <SMILES>  (38) 
Cc1cc(-c2n[n-]c3c/c(=N/C(=O)NCc4cccc(C([NH-])=O)n4)[n-]cc23)ccn1

>  <Energy>  (38) 
94.81561915708947

>  <Genealogy>  (38) 
Cc1cc(-c2n[n-]c3cc(=NC(=O)NCc4cccc(C([NH-])=O)n4)[n-]cc23)ccn1 (protonated)
Cc1cc(-c2n[n-]c3c/c(=N/C(=O)NCc4cccc(C([NH-])=O)n4)[n-]cc23)ccn1 (cis-trans isomerization)
Cc1cc(-c2n[n-]c3c/c(=N/C(=O)NCc4cccc(C([NH-])=O)n4)[n-]cc23)ccn1 (3D coordinates assigned)
Cc1cc(-c2n[n-]c3c/c(=N/C(=O)NCc4cccc(C([NH-])=O)n4)[n-]cc23)ccn1 (optimized conformer: 94.81561915708947 kcal/mol)

>  <smiles>  (38) 
Cc1cc(-c2n[nH]c3cc(=NC(=O)NCc4cccc(C(N)=O)n4)[nH]cc23)ccn1

>  <score_type>  (38) 
oracle

>  <origin>  (38) 
adg

>  <m_score__min__energy>  (38) 
-14.720000000000001

>  <m_primary>  (38) 
energy

$$$$
38:0
     RDKit          3D

 29 30  0  0  0  0  0  0  0  0999 V2000
   55.5250   30.0160   43.8910 C   0  0  0  0  0  0  0  0  0  0  0  0
   55.5210   28.9950   44.8840 O   0  0  0  0  0  0  0  0  0  0  0  0
   56.6450   28.2420   45.2610 C   0  0  0  0  0  0  0  0  0  0  0  0
   57.9540   28.7430   45.1130 C   0  0  0  0  0  0  0  0  0  0  0  0
   59.0500   28.0010   45.5600 C   0  0  0  0  0  0  0  0  0  0  0  0
   58.8550   26.7580   46.1630 C   0  0  0  0  0  0  0  0  0  0  0  0
   57.5660   26.2460   46.3060 C   0  0  0  0  0  0  0  0  0  0  0  0
   56.4590   26.9630   45.8320 C   0  0  0  0  0  0  0  0  0  0  0  0
   55.1540   26.3890   45.9980 N   0  0  0  0  0  0  0  0  0  0  0  0
   54.8260   25.0220   45.7360 C   0  0  0  0  0  0  0  0  0  0  0  0
   53.6540   24.7320   45.3780 O   0  0  0  0  0  0  0  0  0  0  0  0
   55.7730   24.0170   45.9690 O   0  0  0  0  0  0  0  0  0  0  0  0
   56.3110   23.1690   44.9910 C   0  0  0  0  0  0  0  0  0  0  0  0
   57.5280   22.4850   45.1690 C   0  0  0  0  0  0  0  0  0  0  0  0
   58.0040   21.6380   44.1660 C   0  0  0  0  0  0  0  0  0  0  0  0
   57.2570   21.4740   42.9980 C   0  0  0  0  0  0  0  0  0  0  0  0
   56.0750   22.1280   42.8480 N   0  0  0  0  0  0  0  0  0  0  0  0
   55.5900   22.9570   43.8100 C   0  0  0  0  0  0  0  0  0  0  0  0
   55.5289   31.0019   44.3788 H   0  0  0  0  0  0  0  0  0  0  0  0
   56.4228   29.9138   43.2636 H   0  0  0  0  0  0  0  0  0  0  0  0
   54.6265   29.9208   43.2636 H   0  0  0  0  0  0  0  0  0  0  0  0
   58.1136   29.7244   44.6426 H   0  0  0  0  0  0  0  0  0  0  0  0
   60.0686   28.3974   45.4363 H   0  0  0  0  0  0  0  0  0  0  0  0
   59.7188   26.1816   46.5258 H   0  0  0  0  0  0  0  0  0  0  0  0
   57.4168   25.2718   46.7946 H   0  0  0  0  0  0  0  0  0  0  0  0
   58.1035   22.6174   46.0970 H   0  0  0  0  0  0  0  0  0  0  0  0
   58.9578   21.1054   44.2949 H   0  0  0  0  0  0  0  0  0  0  0  0
   57.6255   20.8148   42.1982 H   0  0  0  0  0  0  0  0  0  0  0  0
   54.6255   23.4641   43.6596 H   0  0  0  0  0  0  0  0  0  0  0  0
  1  2  1  0
  2  3  1  0
  3  4  2  0
  4  5  1  0
  5  6  2  0
  6  7  1  0
  7  8  2  0
  8  9  1  0
  9 10  1  0
 10 11  2  0
 10 12  1  0
 12 13  1  0
 13 14  2  0
 14 15  1  0
 15 16  2  0
 16 17  1  0
 17 18  2  0
  8  3  1  0
 18 13  1  0
  1 19  1  0
  1 20  1  0
  1 21  1  0
  4 22  1  0
  5 23  1  0
  6 24  1  0
  7 25  1  0
 14 26  1  0
 15 27  1  0
 16 28  1  0
 18 29  1  0
M  CHG  1   9  -1
M  END
>  <UniqueID>  (39) 
36

>  <SMILES>  (39) 
COc1ccccc1[N-]C(=O)Oc1cccnc1

>  <Energy>  (39) 
38.293081728327266

>  <Genealogy>  (39) 
COc1ccccc1[N-]C(=O)Oc1cccnc1 (protonated)
COc1ccccc1[N-]C(=O)Oc1cccnc1 (3D coordinates assigned)
COc1ccccc1[N-]C(=O)Oc1cccnc1 (optimized conformer: 38.293081728327266 kcal/mol)

>  <smiles>  (39) 
COc1ccccc1NC(=O)Oc1cccnc1

>  <score_type>  (39) 
oracle

>  <origin>  (39) 
adg

>  <m_score__min__energy>  (39) 
-8.8800000000000008

>  <m_primary>  (39) 
energy

$$$$
39:0
     RDKit          3D

 35 36  0  0  0  0  0  0  0  0999 V2000
   58.8850   30.6660   47.7570 C   0  0  0  0  0  0  0  0  0  0  0  0
   59.0110   32.1610   47.6570 C   0  0  0  0  0  0  0  0  0  0  0  0
   59.6550   32.8700   48.6870 C   0  0  0  0  0  0  0  0  0  0  0  0
   59.7870   34.2580   48.6160 C   0  0  0  0  0  0  0  0  0  0  0  0
   59.2890   34.9530   47.5130 C   0  0  0  0  0  0  0  0  0  0  0  0
   58.6580   34.2620   46.4780 C   0  0  0  0  0  0  0  0  0  0  0  0
   58.5030   32.8650   46.5400 C   0  0  0  0  0  0  0  0  0  0  0  0
   57.8860   32.1560   45.4490 N   0  0  0  0  0  0  0  0  0  0  0  0
   58.1060   32.4820   44.0680 C   0  0  0  0  0  0  0  0  0  0  0  0
   58.6980   33.5480   43.7460 O   0  0  0  0  0  0  0  0  0  0  0  0
   57.6400   31.5490   42.9950 C   0  0  0  0  0  0  0  0  0  0  0  0
   56.7600   30.1770   43.7170 S   0  0  0  0  0  0  0  0  0  0  0  0
   56.1170   29.3550   42.6350 O   0  0  0  0  0  0  0  0  0  0  0  0
   55.6870   30.6890   44.6370 O   0  0  0  0  0  0  0  0  0  0  0  0
   57.8930   29.1790   44.6210 C   0  0  0  0  0  0  0  0  0  0  0  0
   57.4200   28.1460   45.4430 C   0  0  0  0  0  0  0  0  0  0  0  0
   58.3210   27.3430   46.1500 C   0  0  0  0  0  0  0  0  0  0  0  0
   59.6960   27.5660   46.0370 C   0  0  0  0  0  0  0  0  0  0  0  0
   60.1730   28.5880   45.2110 C   0  0  0  0  0  0  0  0  0  0  0  0
   59.2740   29.3930   44.5020 C   0  0  0  0  0  0  0  0  0  0  0  0
   58.8601   30.3702   48.8162 H   0  0  0  0  0  0  0  0  0  0  0  0
   57.9564   30.3425   47.2640 H   0  0  0  0  0  0  0  0  0  0  0  0
   59.7463   30.1916   47.2640 H   0  0  0  0  0  0  0  0  0  0  0  0
   60.0576   32.3269   49.5548 H   0  0  0  0  0  0  0  0  0  0  0  0
   60.2843   34.8047   49.4307 H   0  0  0  0  0  0  0  0  0  0  0  0
   59.3940   36.0467   47.4595 H   0  0  0  0  0  0  0  0  0  0  0  0
   58.2784   34.8144   45.6058 H   0  0  0  0  0  0  0  0  0  0  0  0
   57.2150   31.3860   45.6680 H   0  0  0  0  0  0  0  0  0  0  0  0
   56.9718   32.0890   42.3081 H   0  0  0  0  0  0  0  0  0  0  0  0
   58.5130   31.1678   42.4449 H   0  0  0  0  0  0  0  0  0  0  0  0
   56.3383   27.9669   45.5320 H   0  0  0  0  0  0  0  0  0  0  0  0
   57.9468   26.5349   46.7958 H   0  0  0  0  0  0  0  0  0  0  0  0
   60.4030   26.9373   46.5981 H   0  0  0  0  0  0  0  0  0  0  0  0
   61.2556   28.7596   45.1182 H   0  0  0  0  0  0  0  0  0  0  0  0
   59.6512   30.1949   43.8503 H   0  0  0  0  0  0  0  0  0  0  0  0
  1  2  1  0
  2  3  2  0
  3  4  1  0
  4  5  2  0
  5  6  1  0
  6  7  2  0
  7  8  1  0
  8  9  1  0
  9 10  2  0
  9 11  1  0
 11 12  1  0
 12 13  2  0
 12 14  2  0
 12 15  1  0
 15 16  2  0
 16 17  1  0
 17 18  2  0
 18 19  1  0
 19 20  2  0
  7  2  1  0
 20 15  1  0
  1 21  1  0
  1 22  1  0
  1 23  1  0
  3 24  1  0
  4 25  1  0
  5 26  1  0
  6 27  1  0
  8 28  1  0
 11 29  1  0
 11 30  1  0
 16 31  1  0
 17 32  1  0
 18 33  1  0
 19 34  1  0
 20 35  1  0
M  END
>  <UniqueID>  (40) 
37

>  <SMILES>  (40) 
Cc1ccccc1NC(=O)CS(=O)(=O)c1ccccc1

>  <Energy>  (40) 
35.29651114906706

>  <Genealogy>  (40) 
Cc1ccccc1NC(=O)CS(=O)(=O)c1ccccc1 (3D coordinates assigned)
Cc1ccccc1NC(=O)CS(=O)(=O)c1ccccc1 (optimized conformer: 35.29651114906706 kcal/mol)

>  <smiles>  (40) 
Cc1ccccc1NC(=O)CS(=O)(=O)c1ccccc1

>  <score_type>  (40) 
oracle

>  <origin>  (40) 
adg

>  <m_score__min__energy>  (40) 
-7.6600000000000001

>  <m_primary>  (40) 
energy

$$$$
40:0
     RDKit          3D

 51 54  0  0  0  0  0  0  0  0999 V2000
   56.2330   19.4960   45.2770 C   0  0  0  0  0  0  0  0  0  0  0  0
   55.8800   20.4510   44.2800 O   0  0  0  0  0  0  0  0  0  0  0  0
   56.2440   21.8050   44.3160 C   0  0  0  0  0  0  0  0  0  0  0  0
   57.4400   22.2800   43.7470 C   0  0  0  0  0  0  0  0  0  0  0  0
   57.7560   23.6390   43.8090 C   0  0  0  0  0  0  0  0  0  0  0  0
   56.8830   24.5370   44.4280 C   0  0  0  0  0  0  0  0  0  0  0  0
   55.6770   24.0830   44.9850 C   0  0  0  0  0  0  0  0  0  0  0  0
   54.7430   25.0440   45.6170 C   0  0  0  0  0  0  0  0  0  0  0  0
   53.5400   24.7130   45.7850 O   0  0  0  0  0  0  0  0  0  0  0  0
   55.1530   26.3640   46.0070 N   0  0  0  0  0  0  0  0  0  0  0  0
   56.4840   26.7750   46.3500 C   0  0  0  0  0  0  0  0  0  0  0  0
   57.2980   25.8980   47.0770 C   0  0  0  0  0  0  0  0  0  0  0  0
   58.6050   26.2590   47.4110 C   0  0  0  0  0  0  0  0  0  0  0  0
   59.1100   27.5030   47.0220 C   0  0  0  0  0  0  0  0  0  0  0  0
   58.3100   28.3970   46.2960 C   0  0  0  0  0  0  0  0  0  0  0  0
   58.8540   29.6610   45.8880 N   0  0  0  0  0  0  0  0  0  0  0  0
   58.9230   30.8130   46.7440 C   0  0  0  0  0  0  0  0  0  0  0  0
   58.9340   30.6680   47.9970 O   0  0  0  0  0  0  0  0  0  0  0  0
   59.0600   32.1690   46.1680 C   0  0  0  0  0  0  0  0  0  0  0  0
   58.1630   32.5720   45.1630 C   0  0  0  0  0  0  0  0  0  0  0  0
   58.2030   33.8720   44.6560 C   0  0  0  0  0  0  0  0  0  0  0  0
   59.1390   34.7850   45.1420 C   0  0  0  0  0  0  0  0  0  0  0  0
   60.0520   34.3950   46.1240 C   0  0  0  0  0  0  0  0  0  0  0  0
   60.0380   33.0860   46.6340 C   0  0  0  0  0  0  0  0  0  0  0  0
   61.0560   32.6910   47.5700 N   0  0  0  0  0  0  0  0  0  0  0  0
   62.1720   31.9940   47.2820 C   0  0  0  0  0  0  0  0  0  0  0  0
   62.8900   31.7680   48.4390 C   0  0  0  0  0  0  0  0  0  0  0  0
   62.1690   32.3390   49.4690 C   0  0  0  0  0  0  0  0  0  0  0  0
   61.0400   32.8920   48.9020 C   0  0  0  0  0  0  0  0  0  0  0  0
   57.0080   28.0120   45.9320 C   0  0  0  0  0  0  0  0  0  0  0  0
   55.3750   22.7100   44.9400 C   0  0  0  0  0  0  0  0  0  0  0  0
   56.0723   19.9309   46.2745 H   0  0  0  0  0  0  0  0  0  0  0  0
   55.6072   18.5986   45.1630 H   0  0  0  0  0  0  0  0  0  0  0  0
   57.2921   19.2214   45.1630 H   0  0  0  0  0  0  0  0  0  0  0  0
   58.1281   21.5790   43.2519 H   0  0  0  0  0  0  0  0  0  0  0  0
   58.6958   24.0037   43.3688 H   0  0  0  0  0  0  0  0  0  0  0  0
   57.1418   25.6049   44.4792 H   0  0  0  0  0  0  0  0  0  0  0  0
   56.9055   24.9183   47.3871 H   0  0  0  0  0  0  0  0  0  0  0  0
   59.2382   25.5633   47.9811 H   0  0  0  0  0  0  0  0  0  0  0  0
   60.1405   27.7822   47.2868 H   0  0  0  0  0  0  0  0  0  0  0  0
   59.2750   29.7360   44.9340 H   0  0  0  0  0  0  0  0  0  0  0  0
   57.4236   31.8570   44.7731 H   0  0  0  0  0  0  0  0  0  0  0  0
   57.4949   34.1771   43.8715 H   0  0  0  0  0  0  0  0  0  0  0  0
   59.1579   35.8131   44.7513 H   0  0  0  0  0  0  0  0  0  0  0  0
   60.7888   35.1192   46.5016 H   0  0  0  0  0  0  0  0  0  0  0  0
   62.4665   31.6562   46.2774 H   0  0  0  0  0  0  0  0  0  0  0  0
   63.8494   31.2367   48.5240 H   0  0  0  0  0  0  0  0  0  0  0  0
   62.4420   32.3505   50.5345 H   0  0  0  0  0  0  0  0  0  0  0  0
   60.2467   33.4175   49.4537 H   0  0  0  0  0  0  0  0  0  0  0  0
   56.3934   28.6838   45.3149 H   0  0  0  0  0  0  0  0  0  0  0  0
   54.4459   22.3424   45.4000 H   0  0  0  0  0  0  0  0  0  0  0  0
  1  2  1  0
  2  3  1  0
  3  4  2  0
  4  5  1  0
  5  6  2  0
  6  7  1  0
  7  8  1  0
  8  9  2  0
  8 10  1  0
 10 11  1  0
 11 12  2  0
 12 13  1  0
 13 14  2  0
 14 15  1  0
 15 16  1  0
 16 17  1  0
 17 18  2  0
 17 19  1  0
 19 20  2  0
 20 21  1  0
 21 22  2  0
 22 23  1  0
 23 24  2  0
 24 25  1  0
 25 26  1  0
 26 27  2  0
 27 28  1  0
 28 29  2  0
 15 30  2  0
  7 31  2  0
 31  3  1  0
 30 11  1  0
 24 19  1  0
 29 25  1  0
  1 32  1  0
  1 33  1  0
  1 34  1  0
  4 35  1  0
  5 36  1  0
  6 37  1  0
 12 38  1  0
 13 39  1  0
 14 40  1  0
 16 41  1  0
 20 42  1  0
 21 43  1  0
 22 44  1  0
 23 45  1  0
 26 46  1  0
 27 47  1  0
 28 48  1  0
 29 49  1  0
 30 50  1  0
 31 51  1  0
M  CHG  1  10  -1
M  END
>  <UniqueID>  (41) 
38

>  <SMILES>  (41) 
COc1cccc(C(=O)[N-]c2cccc(NC(=O)c3ccccc3-n3cccc3)c2)c1

>  <Energy>  (41) 
97.5487829110373

>  <Genealogy>  (41) 
COc1cccc(C(=O)[N-]c2cccc(NC(=O)c3ccccc3-n3cccc3)c2)c1 (protonated)
COc1cccc(C(=O)[N-]c2cccc(NC(=O)c3ccccc3-n3cccc3)c2)c1 (3D coordinates assigned)
COc1cccc(C(=O)[N-]c2cccc(NC(=O)c3ccccc3-n3cccc3)c2)c1 (optimized conformer: 97.5487829110373 kcal/mol)

>  <smiles>  (41) 
COc1cccc(C(=O)Nc2cccc(NC(=O)c3ccccc3-n3cccc3)c2)c1

>  <score_type>  (41) 
oracle

>  <origin>  (41) 
adg

>  <m_score__min__energy>  (41) 
-11.26

>  <m_primary>  (41) 
energy

$$$$
41:0
     RDKit          3D

 27 28  0  0  0  0  0  0  0  0999 V2000
   56.7620   26.2960   45.8960 C   0  0  0  0  0  0  0  0  0  0  0  0
   56.0180   27.4780   45.6200 O   0  0  0  0  0  0  0  0  0  0  0  0
   56.5560   28.6330   45.0320 C   0  0  0  0  0  0  0  0  0  0  0  0
   57.9250   28.9570   45.1160 C   0  0  0  0  0  0  0  0  0  0  0  0
   58.4110   30.1220   44.5140 C   0  0  0  0  0  0  0  0  0  0  0  0
   57.5400   30.9730   43.8270 C   0  0  0  0  0  0  0  0  0  0  0  0
   58.1630   32.4700   43.0610 S   0  0  0  0  0  0  0  0  0  0  0  0
   58.4320   33.2780   44.6390 C   0  0  0  0  0  0  0  0  0  0  0  0
   57.6460   32.9330   45.7460 C   0  0  0  0  0  0  0  0  0  0  0  0
   57.8590   33.5600   46.9780 C   0  0  0  0  0  0  0  0  0  0  0  0
   58.8550   34.5340   47.1050 C   0  0  0  0  0  0  0  0  0  0  0  0
   59.6380   34.8830   45.9990 C   0  0  0  0  0  0  0  0  0  0  0  0
   59.4260   34.2570   44.7670 C   0  0  0  0  0  0  0  0  0  0  0  0
   56.1810   30.6550   43.7370 C   0  0  0  0  0  0  0  0  0  0  0  0
   55.6920   29.4900   44.3380 C   0  0  0  0  0  0  0  0  0  0  0  0
   56.8465   26.1617   46.9845 H   0  0  0  0  0  0  0  0  0  0  0  0
   56.2471   25.4281   45.4584 H   0  0  0  0  0  0  0  0  0  0  0  0
   57.7673   26.3849   45.4584 H   0  0  0  0  0  0  0  0  0  0  0  0
   58.6136   28.2913   45.6569 H   0  0  0  0  0  0  0  0  0  0  0  0
   59.4807   30.3693   44.5811 H   0  0  0  0  0  0  0  0  0  0  0  0
   56.8611   32.1688   45.6463 H   0  0  0  0  0  0  0  0  0  0  0  0
   57.2430   33.2871   47.8475 H   0  0  0  0  0  0  0  0  0  0  0  0
   59.0227   35.0257   48.0746 H   0  0  0  0  0  0  0  0  0  0  0  0
   60.4203   35.6498   46.0989 H   0  0  0  0  0  0  0  0  0  0  0  0
   60.0402   34.5334   43.8973 H   0  0  0  0  0  0  0  0  0  0  0  0
   55.4957   31.3217   43.1930 H   0  0  0  0  0  0  0  0  0  0  0  0
   54.6220   29.2454   44.2651 H   0  0  0  0  0  0  0  0  0  0  0  0
  1  2  1  0
  2  3  1  0
  3  4  2  0
  4  5  1  0
  5  6  2  0
  6  7  1  0
  7  8  1  0
  8  9  2  0
  9 10  1  0
 10 11  2  0
 11 12  1  0
 12 13  2  0
  6 14  1  0
 14 15  2  0
 15  3  1  0
 13  8  1  0
  1 16  1  0
  1 17  1  0
  1 18  1  0
  4 19  1  0
  5 20  1  0
  9 21  1  0
 10 22  1  0
 11 23  1  0
 12 24  1  0
 13 25  1  0
 14 26  1  0
 15 27  1  0
M  END
>  <UniqueID>  (42) 
39

>  <SMILES>  (42) 
COc1ccc(Sc2ccccc2)cc1

>  <Energy>  (42) 
22.26472554295415

>  <Genealogy>  (42) 
COc1ccc(Sc2ccccc2)cc1 (3D coordinates assigned)
COc1ccc(Sc2ccccc2)cc1 (optimized conformer: 22.26472554295415 kcal/mol)

>  <smiles>  (42) 
COc1ccc(Sc2ccccc2)cc1

>  <score_type>  (42) 
oracle

>  <origin>  (42) 
adg

>  <m_score__min__energy>  (42) 
-6.5099999999999998

>  <m_primary>  (42) 
energy

$$$$
42:0
     RDKit          3D

 35 35  0  0  0  0  0  0  0  0999 V2000
   61.1520   34.0680   48.6510 C   0  0  0  0  0  0  0  0  0  0  0  0
   59.6860   34.4840   48.6020 C   0  0  0  0  0  0  0  0  0  0  0  0
   59.2740   34.7270   47.2560 O   0  0  0  0  0  0  0  0  0  0  0  0
   58.7840   33.7590   46.3650 C   0  0  0  0  0  0  0  0  0  0  0  0
   59.2730   32.4510   46.4780 C   0  0  0  0  0  0  0  0  0  0  0  0
   58.8230   31.4450   45.6190 C   0  0  0  0  0  0  0  0  0  0  0  0
   57.8830   31.7370   44.6190 C   0  0  0  0  0  0  0  0  0  0  0  0
   57.3680   30.6490   43.7170 C   0  0  0  0  0  0  0  0  0  0  0  0
   55.8760   30.4100   43.9600 C   0  0  0  0  0  0  0  0  0  0  0  0
   55.6830   29.2720   44.8520 N   0  0  0  0  0  0  0  0  0  0  0  0
   56.7270   28.5520   45.5220 C   0  0  0  0  0  0  0  0  0  0  0  0
   57.3990   29.1450   46.4070 O   0  0  0  0  0  0  0  0  0  0  0  0
   56.9990   27.0970   45.2550 C   0  0  0  0  0  0  0  0  0  0  0  0
   56.1220   26.2550   46.0650 N   0  0  0  0  0  0  0  0  0  0  0  0
   54.7810   26.4420   46.0110 O   0  0  0  0  0  0  0  0  0  0  0  0
   56.6530   25.1810   46.8460 C   0  0  0  0  0  0  0  0  0  0  0  0
   57.7680   25.3020   47.4200 O   0  0  0  0  0  0  0  0  0  0  0  0
   57.3830   33.0430   44.5070 C   0  0  0  0  0  0  0  0  0  0  0  0
   57.8330   34.0490   45.3670 C   0  0  0  0  0  0  0  0  0  0  0  0
   61.4725   33.9771   49.6993 H   0  0  0  0  0  0  0  0  0  0  0  0
   61.2754   33.0994   48.1445 H   0  0  0  0  0  0  0  0  0  0  0  0
   61.7658   34.8274   48.1445 H   0  0  0  0  0  0  0  0  0  0  0  0
   59.0683   33.6802   49.0290 H   0  0  0  0  0  0  0  0  0  0  0  0
   59.5620   35.4103   49.1821 H   0  0  0  0  0  0  0  0  0  0  0  0
   60.0188   32.2135   47.2509 H   0  0  0  0  0  0  0  0  0  0  0  0
   59.2072   30.4200   45.7271 H   0  0  0  0  0  0  0  0  0  0  0  0
   57.5207   30.9457   42.6688 H   0  0  0  0  0  0  0  0  0  0  0  0
   57.9160   29.7200   43.9328 H   0  0  0  0  0  0  0  0  0  0  0  0
   55.4346   31.3079   44.4170 H   0  0  0  0  0  0  0  0  0  0  0  0
   55.3870   30.1969   42.9980 H   0  0  0  0  0  0  0  0  0  0  0  0
   56.8218   26.8852   44.1902 H   0  0  0  0  0  0  0  0  0  0  0  0
   58.0445   26.8769   45.5169 H   0  0  0  0  0  0  0  0  0  0  0  0
   56.0849   24.2444   46.9461 H   0  0  0  0  0  0  0  0  0  0  0  0
   56.6323   33.2768   43.7378 H   0  0  0  0  0  0  0  0  0  0  0  0
   57.4426   35.0722   45.2639 H   0  0  0  0  0  0  0  0  0  0  0  0
  1  2  1  0
  2  3  1  0
  3  4  1  0
  4  5  2  0
  5  6  1  0
  6  7  2  0
  7  8  1  0
  8  9  1  0
  9 10  1  0
 10 11  1  0
 11 12  2  0
 11 13  1  0
 13 14  1  0
 14 15  1  0
 14 16  1  0
 16 17  2  0
  7 18  1  0
 18 19  2  0
 19  4  1  0
  1 20  1  0
  1 21  1  0
  1 22  1  0
  2 23  1  0
  2 24  1  0
  5 25  1  0
  6 26  1  0
  8 27  1  0
  8 28  1  0
  9 29  1  0
  9 30  1  0
 13 31  1  0
 13 32  1  0
 16 33  1  0
 18 34  1  0
 19 35  1  0
M  CHG  2  10  -1  15  -1
M  END
>  <UniqueID>  (43) 
40

>  <SMILES>  (43) 
CCOc1ccc(CC[N-]C(=O)CN([O-])C=O)cc1

>  <Energy>  (43) 
23.375969279706364

>  <Genealogy>  (43) 
CCOc1ccc(CC[N-]C(=O)CN([O-])C=O)cc1 (protonated)
CCOc1ccc(CC[N-]C(=O)CN([O-])C=O)cc1 (3D coordinates assigned)
CCOc1ccc(CC[N-]C(=O)CN([O-])C=O)cc1 (optimized conformer: 23.375969279706364 kcal/mol)

>  <smiles>  (43) 
CCOc1ccc(CCNC(=O)CN(O)C=O)cc1

>  <score_type>  (43) 
oracle

>  <origin>  (43) 
adg

>  <m_score__min__energy>  (43) 
-11.470000000000001

>  <m_primary>  (43) 
energy

$$$$
43:0
     RDKit          3D

 60 64  0  0  0  0  0  0  0  0999 V2000
   58.0800   33.7800   45.4430 C   0  0  0  0  0  0  0  0  0  0  0  0
   58.6670   32.8680   46.5210 C   0  0  0  0  0  0  0  0  0  0  0  0
   58.3150   31.4530   46.2640 N   0  0  0  0  0  0  0  0  0  0  0  0
   57.4160   31.2140   45.2600 C   0  0  0  0  0  0  0  0  0  0  0  0
   57.0380   29.9110   44.8980 C   0  0  0  0  0  0  0  0  0  0  0  0
   56.0930   29.7070   43.7640 C   0  0  0  0  0  0  0  0  0  0  0  0
   56.4730   29.8980   42.5770 O   0  0  0  0  0  0  0  0  0  0  0  0
   54.7840   29.2950   43.9830 O   0  0  0  0  0  0  0  0  0  0  0  0
   57.5750   28.8310   45.6220 C   0  0  0  0  0  0  0  0  0  0  0  0
   57.2610   27.6450   45.3180 O   0  0  0  0  0  0  0  0  0  0  0  0
   58.4600   29.0720   46.6880 C   0  0  0  0  0  0  0  0  0  0  0  0
   58.9730   28.0040   47.4460 C   0  0  0  0  0  0  0  0  0  0  0  0
   59.8400   28.2340   48.5140 C   0  0  0  0  0  0  0  0  0  0  0  0
   60.2560   27.1690   49.2450 F   0  0  0  0  0  0  0  0  0  0  0  0
   60.2320   29.5440   48.8440 C   0  0  0  0  0  0  0  0  0  0  0  0
   61.1630   29.7940   49.9290 N   0  0  0  0  0  0  0  0  0  0  0  0
   61.3050   28.8080   51.0160 C   0  0  0  0  0  0  0  0  0  0  0  0
   62.7170   28.8390   51.6190 C   0  0  0  0  0  0  0  0  0  0  0  0
   63.2130   30.2130   51.8100 N   0  0  0  0  0  0  0  0  0  0  0  0
   64.5430   30.4240   52.3330 C   0  0  0  0  0  0  0  0  0  0  0  0
   64.8040   30.8940   53.5790 N   0  0  0  0  0  0  0  0  0  0  0  0
   66.1020   30.9940   53.8560 N   0  0  0  0  0  0  0  0  0  0  0  0
   66.8920   30.5850   52.8390 C   0  0  0  0  0  0  0  0  0  0  0  0
   68.6810   30.5980   52.9070 S   0  0  0  0  0  0  0  0  0  0  0  0
   68.8660   32.1590   51.9770 C   0  0  0  0  0  0  0  0  0  0  0  0
   67.5240   32.7660   51.6720 C   0  0  0  0  0  0  0  0  0  0  0  0
   66.9390   32.5860   50.4060 C   0  0  0  0  0  0  0  0  0  0  0  0
   65.6710   33.1110   50.1340 C   0  0  0  0  0  0  0  0  0  0  0  0
   64.9820   33.8300   51.1180 C   0  0  0  0  0  0  0  0  0  0  0  0
   63.3810   34.4700   50.7770 Cl  0  0  0  0  0  0  0  0  0  0  0  0
   65.5620   34.0220   52.3790 C   0  0  0  0  0  0  0  0  0  0  0  0
   66.8240   33.4880   52.6560 C   0  0  0  0  0  0  0  0  0  0  0  0
   65.9820   30.0830   51.5150 S   0  0  0  0  0  0  0  0  0  0  0  0
   62.3360   31.3420   51.4780 C   0  0  0  0  0  0  0  0  0  0  0  0
   61.7460   31.1370   50.0810 C   0  0  0  0  0  0  0  0  0  0  0  0
   59.7190   30.6160   48.0890 C   0  0  0  0  0  0  0  0  0  0  0  0
   58.8280   30.4060   47.0070 C   0  0  0  0  0  0  0  0  0  0  0  0
   57.5436   34.6134   45.9201 H   0  0  0  0  0  0  0  0  0  0  0  0
   58.8923   34.1774   44.8167 H   0  0  0  0  0  0  0  0  0  0  0  0
   57.3819   33.2052   44.8167 H   0  0  0  0  0  0  0  0  0  0  0  0
   59.7621   32.9721   46.5238 H   0  0  0  0  0  0  0  0  0  0  0  0
   58.2509   33.1625   47.4957 H   0  0  0  0  0  0  0  0  0  0  0  0
   56.9772   32.0668   44.7214 H   0  0  0  0  0  0  0  0  0  0  0  0
   58.6863   26.9726   47.1929 H   0  0  0  0  0  0  0  0  0  0  0  0
   60.5737   29.0372   51.8050 H   0  0  0  0  0  0  0  0  0  0  0  0
   61.1281   27.8054   50.5995 H   0  0  0  0  0  0  0  0  0  0  0  0
   62.6962   28.3315   52.5947 H   0  0  0  0  0  0  0  0  0  0  0  0
   63.3943   28.3312   50.9166 H   0  0  0  0  0  0  0  0  0  0  0  0
   64.0770   31.1780   54.2700 H   0  0  0  0  0  0  0  0  0  0  0  0
   69.4537   32.8685   52.5780 H   0  0  0  0  0  0  0  0  0  0  0  0
   69.3774   31.9431   51.0273 H   0  0  0  0  0  0  0  0  0  0  0  0
   67.4805   32.0302   49.6264 H   0  0  0  0  0  0  0  0  0  0  0  0
   65.2145   32.9585   49.1449 H   0  0  0  0  0  0  0  0  0  0  0  0
   65.0246   34.5927   53.1507 H   0  0  0  0  0  0  0  0  0  0  0  0
   67.2726   33.6333   53.6498 H   0  0  0  0  0  0  0  0  0  0  0  0
   61.5214   31.4023   52.2147 H   0  0  0  0  0  0  0  0  0  0  0  0
   62.9176   32.2755   51.4967 H   0  0  0  0  0  0  0  0  0  0  0  0
   60.9603   31.8881   49.9119 H   0  0  0  0  0  0  0  0  0  0  0  0
   62.5577   31.2441   49.3464 H   0  0  0  0  0  0  0  0  0  0  0  0
   60.0175   31.6432   48.3456 H   0  0  0  0  0  0  0  0  0  0  0  0
  1  2  1  0
  2  3  1  0
  3  4  1  0
  4  5  2  0
  5  6  1  0
  6  7  2  0
  6  8  1  0
  5  9  1  0
  9 10  2  0
  9 11  1  0
 11 12  2  0
 12 13  1  0
 13 14  1  0
 13 15  2  0
 15 16  1  0
 16 17  1  0
 17 18  1  0
 18 19  1  0
 19 20  1  0
 20 21  2  0
 21 22  1  0
 22 23  2  0
 23 24  1  0
 24 25  1  0
 25 26  1  0
 26 27  2  0
 27 28  1  0
 28 29  2  0
 29 30  1  0
 29 31  1  0
 31 32  2  0
 23 33  1  0
 19 34  1  0
 34 35  1  0
 15 36  1  0
 36 37  2  0
 37  3  1  0
 37 11  1  0
 35 16  1  0
 33 20  1  0
 32 26  1  0
  1 38  1  0
  1 39  1  0
  1 40  1  0
  2 41  1  0
  2 42  1  0
  4 43  1  0
 12 44  1  0
 17 45  1  0
 17 46  1  0
 18 47  1  0
 18 48  1  0
 21 49  1  0
 25 50  1  0
 25 51  1  0
 27 52  1  0
 28 53  1  0
 31 54  1  0
 32 55  1  0
 34 56  1  0
 34 57  1  0
 35 58  1  0
 35 59  1  0
 36 60  1  0
M  CHG  2   8  -1  21   1
M  END
>  <UniqueID>  (44) 
41

>  <SMILES>  (44) 
CCn1cc(C(=O)[O-])c(=O)c2cc(F)c(N3CCN(c4[nH+]nc(SCc5ccc(Cl)cc5)s4)CC3)cc21

>  <Energy>  (44) 
111.21344611983692

>  <Genealogy>  (44) 
CCn1cc(C(=O)[O-])c(=O)c2cc(F)c(N3CCN(c4[nH+]nc(SCc5ccc(Cl)cc5)s4)CC3)cc21 (protonated)
CCn1cc(C(=O)[O-])c(=O)c2cc(F)c(N3CCN(c4[nH+]nc(SCc5ccc(Cl)cc5)s4)CC3)cc21 (3D coordinates assigned)
CCn1cc(C(=O)[O-])c(=O)c2cc(F)c(N3CCN(c4[nH+]nc(SCc5ccc(Cl)cc5)s4)CC3)cc21 (nonaromatic ring conformer: 111.21344611983692 kcal/mol)

>  <smiles>  (44) 
CCn1cc(C(=O)O)c(=O)c2cc(F)c(N3CCN(c4nnc(SCc5ccc(Cl)cc5)s4)CC3)cc21

>  <score_type>  (44) 
oracle

>  <origin>  (44) 
adg

>  <m_score__min__energy>  (44) 
-9.5

>  <m_primary>  (44) 
energy

$$$$
44:0
     RDKit          3D

 47 50  0  0  0  0  0  0  0  0999 V2000
   65.9710   34.1390   51.8560 C   0  0  0  0  0  0  0  0  0  0  0  0
   66.1020   33.0420   50.4600 S   0  0  0  0  0  0  0  0  0  0  0  0
   67.4850   33.0930   49.8710 O   0  0  0  0  0  0  0  0  0  0  0  0
   65.8280   31.6390   50.9240 O   0  0  0  0  0  0  0  0  0  0  0  0
   64.9290   33.4640   49.2530 N   0  0  0  0  0  0  0  0  0  0  0  0
   63.5140   33.5750   49.4620 C   0  0  0  0  0  0  0  0  0  0  0  0
   63.0390   33.7560   50.7630 C   0  0  0  0  0  0  0  0  0  0  0  0
   61.7050   33.8660   50.9990 N   0  0  0  0  0  0  0  0  0  0  0  0
   60.7920   33.8100   49.9940 C   0  0  0  0  0  0  0  0  0  0  0  0
   61.2110   33.6330   48.6650 C   0  0  0  0  0  0  0  0  0  0  0  0
   60.2220   33.5650   47.5570 C   0  0  0  0  0  0  0  0  0  0  0  0
   60.0190   34.6710   46.6910 C   0  0  0  0  0  0  0  0  0  0  0  0
   59.0750   34.6090   45.6520 C   0  0  0  0  0  0  0  0  0  0  0  0
   58.3590   33.4270   45.5060 C   0  0  0  0  0  0  0  0  0  0  0  0
   57.4150   33.1650   44.5820 N   0  0  0  0  0  0  0  0  0  0  0  0
   57.0830   31.8890   44.9070 C   0  0  0  0  0  0  0  0  0  0  0  0
   56.1780   31.2200   44.2520 N   0  0  0  0  0  0  0  0  0  0  0  0
   56.0690   29.7910   44.1780 C   0  0  0  0  0  0  0  0  0  0  0  0
   55.1600   29.2160   44.8330 O   0  0  0  0  0  0  0  0  0  0  0  0
   56.9530   29.0220   43.3520 N   0  0  0  0  0  0  0  0  0  0  0  0
   57.7690   27.9210   43.8500 C   0  0  0  0  0  0  0  0  0  0  0  0
   58.5880   28.3730   45.0270 C   0  0  0  0  0  0  0  0  0  0  0  0
   59.8070   29.0360   44.8190 C   0  0  0  0  0  0  0  0  0  0  0  0
   60.5900   29.4290   45.9100 C   0  0  0  0  0  0  0  0  0  0  0  0
   60.1610   29.1640   47.2130 C   0  0  0  0  0  0  0  0  0  0  0  0
   58.9510   28.5000   47.4270 C   0  0  0  0  0  0  0  0  0  0  0  0
   58.1660   28.1020   46.3390 C   0  0  0  0  0  0  0  0  0  0  0  0
   57.7750   31.3980   45.9660 N   0  0  0  0  0  0  0  0  0  0  0  0
   58.5660   32.3890   46.3220 N   0  0  0  0  0  0  0  0  0  0  0  0
   59.4590   32.3950   47.3410 C   0  0  0  0  0  0  0  0  0  0  0  0
   62.5880   33.5170   48.4090 C   0  0  0  0  0  0  0  0  0  0  0  0
   66.0404   33.5574   52.7871 H   0  0  0  0  0  0  0  0  0  0  0  0
   66.7876   34.8752   51.8217 H   0  0  0  0  0  0  0  0  0  0  0  0
   65.0040   34.6622   51.8217 H   0  0  0  0  0  0  0  0  0  0  0  0
   63.7488   33.8098   51.6016 H   0  0  0  0  0  0  0  0  0  0  0  0
   59.7200   33.9037   50.2223 H   0  0  0  0  0  0  0  0  0  0  0  0
   60.6083   35.5886   46.8350 H   0  0  0  0  0  0  0  0  0  0  0  0
   58.9091   35.4637   44.9797 H   0  0  0  0  0  0  0  0  0  0  0  0
   57.1133   27.0939   44.1597 H   0  0  0  0  0  0  0  0  0  0  0  0
   58.4451   27.5848   43.0501 H   0  0  0  0  0  0  0  0  0  0  0  0
   60.1482   29.2475   43.7949 H   0  0  0  0  0  0  0  0  0  0  0  0
   61.5453   29.9477   45.7415 H   0  0  0  0  0  0  0  0  0  0  0  0
   60.7756   29.4780   48.0695 H   0  0  0  0  0  0  0  0  0  0  0  0
   58.6144   28.2895   48.4529 H   0  0  0  0  0  0  0  0  0  0  0  0
   57.2158   27.5754   46.5118 H   0  0  0  0  0  0  0  0  0  0  0  0
   59.5869   31.5117   47.9839 H   0  0  0  0  0  0  0  0  0  0  0  0
   62.9423   33.3799   47.3767 H   0  0  0  0  0  0  0  0  0  0  0  0
  1  2  1  0
  2  3  2  0
  2  4  2  0
  2  5  1  0
  5  6  1  0
  6  7  2  0
  7  8  1  0
  8  9  2  0
  9 10  1  0
 10 11  1  0
 11 12  1  0
 12 13  2  0
 13 14  1  0
 14 15  2  0
 15 16  1  0
 16 17  2  3
 17 18  1  0
 18 19  2  0
 18 20  1  0
 20 21  1  0
 21 22  1  0
 22 23  2  0
 23 24  1  0
 24 25  2  0
 25 26  1  0
 26 27  2  0
 16 28  1  0
 28 29  1  0
 29 30  1  0
 10 31  2  0
 31  6  1  0
 30 11  2  0
 29 14  1  0
 27 22  1  0
  1 32  1  0
  1 33  1  0
  1 34  1  0
  7 35  1  0
  9 36  1  0
 12 37  1  0
 13 38  1  0
 21 39  1  0
 21 40  1  0
 23 41  1  0
 24 42  1  0
 25 43  1  0
 26 44  1  0
 27 45  1  0
 30 46  1  0
 31 47  1  0
M  CHG  3   5  -1  20  -1  28  -1
M  END
>  <UniqueID>  (45) 
42

>  <SMILES>  (45) 
CS(=O)(=O)[N-]c1cncc(-c2ccc3nc(=NC(=O)[N-]Cc4ccccc4)[n-]n3c2)c1

>  <Energy>  (45) 
94.42070182005342

>  <Genealogy>  (45) 
CS(=O)(=O)[N-]c1cncc(-c2ccc3nc(=NC(=O)[N-]Cc4ccccc4)[n-]n3c2)c1 (protonated)
CS(=O)(=O)[N-]c1cncc(-c2ccc3nc(=NC(=O)[N-]Cc4ccccc4)[n-]n3c2)c1 (3D coordinates assigned)
CS(=O)(=O)[N-]c1cncc(-c2ccc3nc(=NC(=O)[N-]Cc4ccccc4)[n-]n3c2)c1 (optimized conformer: 94.42070182005342 kcal/mol)

>  <smiles>  (45) 
CS(=O)(=O)Nc1cncc(-c2ccc3nc(=NC(=O)NCc4ccccc4)[nH]n3c2)c1

>  <score_type>  (45) 
oracle

>  <origin>  (45) 
adg

>  <m_score__min__energy>  (45) 
-12.279999999999999

>  <m_primary>  (45) 
energy

$$$$
45:0
     RDKit          3D

 38 40  0  0  0  0  0  0  0  0999 V2000
   61.9610   30.8350   48.1420 C   0  0  0  0  0  0  0  0  0  0  0  0
   60.7830   30.2220   47.4430 C   0  0  0  0  0  0  0  0  0  0  0  0
   59.5330   30.1710   48.0760 C   0  0  0  0  0  0  0  0  0  0  0  0
   58.4270   29.6350   47.4120 C   0  0  0  0  0  0  0  0  0  0  0  0
   58.5500   29.1510   46.0970 C   0  0  0  0  0  0  0  0  0  0  0  0
   57.4050   28.6110   45.4000 N   0  0  0  0  0  0  0  0  0  0  0  0
   56.4830   29.4920   44.7250 C   0  0  0  0  0  0  0  0  0  0  0  0
   55.2430   29.3260   44.8840 O   0  0  0  0  0  0  0  0  0  0  0  0
   56.9610   30.5850   43.8440 C   0  0  0  0  0  0  0  0  0  0  0  0
   57.6810   31.6660   44.3870 C   0  0  0  0  0  0  0  0  0  0  0  0
   58.1340   32.6980   43.5600 C   0  0  0  0  0  0  0  0  0  0  0  0
   57.8660   32.6690   42.1900 C   0  0  0  0  0  0  0  0  0  0  0  0
   57.1390   31.6080   41.6440 C   0  0  0  0  0  0  0  0  0  0  0  0
   56.6830   30.5730   42.4650 C   0  0  0  0  0  0  0  0  0  0  0  0
   57.1240   27.1970   45.4500 C   0  0  0  0  0  0  0  0  0  0  0  0
   57.8120   26.3000   44.6160 C   0  0  0  0  0  0  0  0  0  0  0  0
   57.5340   24.9330   44.6740 C   0  0  0  0  0  0  0  0  0  0  0  0
   56.5650   24.4710   45.5660 C   0  0  0  0  0  0  0  0  0  0  0  0
   55.9030   25.3460   46.3670 N   0  0  0  0  0  0  0  0  0  0  0  0
   56.1570   26.6820   46.3310 C   0  0  0  0  0  0  0  0  0  0  0  0
   59.8010   29.2200   45.4600 C   0  0  0  0  0  0  0  0  0  0  0  0
   60.9070   29.7560   46.1260 C   0  0  0  0  0  0  0  0  0  0  0  0
   61.8203   30.7618   49.2305 H   0  0  0  0  0  0  0  0  0  0  0  0
   62.8777   30.2995   47.8539 H   0  0  0  0  0  0  0  0  0  0  0  0
   62.0485   31.8930   47.8539 H   0  0  0  0  0  0  0  0  0  0  0  0
   59.4226   30.5551   49.1008 H   0  0  0  0  0  0  0  0  0  0  0  0
   57.4529   29.5911   47.9211 H   0  0  0  0  0  0  0  0  0  0  0  0
   57.8881   31.6987   45.4668 H   0  0  0  0  0  0  0  0  0  0  0  0
   58.7033   33.5354   43.9898 H   0  0  0  0  0  0  0  0  0  0  0  0
   58.2269   33.4806   41.5411 H   0  0  0  0  0  0  0  0  0  0  0  0
   56.9250   31.5873   40.5652 H   0  0  0  0  0  0  0  0  0  0  0  0
   56.1038   29.7448   42.0307 H   0  0  0  0  0  0  0  0  0  0  0  0
   58.5720   26.6758   43.9152 H   0  0  0  0  0  0  0  0  0  0  0  0
   58.0727   24.2279   44.0239 H   0  0  0  0  0  0  0  0  0  0  0  0
   56.3369   23.3963   45.6205 H   0  0  0  0  0  0  0  0  0  0  0  0
   55.6031   27.3626   46.9944 H   0  0  0  0  0  0  0  0  0  0  0  0
   59.9105   28.8496   44.4301 H   0  0  0  0  0  0  0  0  0  0  0  0
   61.8793   29.8126   45.6147 H   0  0  0  0  0  0  0  0  0  0  0  0
  1  2  1  0
  2  3  2  0
  3  4  1  0
  4  5  2  0
  5  6  1  0
  6  7  1  0
  7  8  2  0
  7  9  1  0
  9 10  2  0
 10 11  1  0
 11 12  2  0
 12 13  1  0
 13 14  2  0
  6 15  1  0
 15 16  2  0
 16 17  1  0
 17 18  2  0
 18 19  1  0
 19 20  2  0
  5 21  1  0
 21 22  2  0
 22  2  1  0
 14  9  1  0
 20 15  1  0
  1 23  1  0
  1 24  1  0
  1 25  1  0
  3 26  1  0
  4 27  1  0
 10 28  1  0
 11 29  1  0
 12 30  1  0
 13 31  1  0
 14 32  1  0
 16 33  1  0
 17 34  1  0
 18 35  1  0
 20 36  1  0
 21 37  1  0
 22 38  1  0
M  END
>  <UniqueID>  (46) 
43

>  <SMILES>  (46) 
Cc1ccc(N(C(=O)c2ccccc2)c2cccnc2)cc1

>  <Energy>  (46) 
53.96098664363912

>  <Genealogy>  (46) 
Cc1ccc(N(C(=O)c2ccccc2)c2cccnc2)cc1 (3D coordinates assigned)
Cc1ccc(N(C(=O)c2ccccc2)c2cccnc2)cc1 (optimized conformer: 53.96098664363912 kcal/mol)

>  <smiles>  (46) 
Cc1ccc(N(C(=O)c2ccccc2)c2cccnc2)cc1

>  <score_type>  (46) 
oracle

>  <origin>  (46) 
adg

>  <m_score__min__energy>  (46) 
-7.1900000000000004

>  <m_primary>  (46) 
energy

$$$$
46:0
     RDKit          3D

 52 54  0  0  0  0  0  0  0  0999 V2000
   58.9330   22.1770   45.2070 C   0  0  0  0  0  0  0  0  0  0  0  0
   57.7600   22.6910   45.9260 N   0  0  0  0  0  0  0  0  0  0  0  0
   56.9730   21.7620   46.7490 C   0  0  0  0  0  0  0  0  0  0  0  0
   57.3780   24.0930   45.8190 C   0  0  0  0  0  0  0  0  0  0  0  0
   58.3070   25.0720   45.3980 C   0  0  0  0  0  0  0  0  0  0  0  0
   57.9360   26.4160   45.2910 C   0  0  0  0  0  0  0  0  0  0  0  0
   56.6270   26.8150   45.5750 C   0  0  0  0  0  0  0  0  0  0  0  0
   56.2880   28.2050   45.4680 N   0  0  0  0  0  0  0  0  0  0  0  0
   56.6160   29.0540   44.3630 C   0  0  0  0  0  0  0  0  0  0  0  0
   57.6030   28.7920   43.6240 O   0  0  0  0  0  0  0  0  0  0  0  0
   55.8240   30.2950   44.1180 C   0  0  0  0  0  0  0  0  0  0  0  0
   56.4100   31.3720   44.8380 O   0  0  0  0  0  0  0  0  0  0  0  0
   57.4600   32.1430   44.3340 C   0  0  0  0  0  0  0  0  0  0  0  0
   57.6520   32.2020   43.0890 O   0  0  0  0  0  0  0  0  0  0  0  0
   58.3220   32.9280   45.2490 C   0  0  0  0  0  0  0  0  0  0  0  0
   58.8220   34.1620   44.7880 C   0  0  0  0  0  0  0  0  0  0  0  0
   59.6220   34.9600   45.6050 C   0  0  0  0  0  0  0  0  0  0  0  0
   59.9420   34.5420   46.8930 C   0  0  0  0  0  0  0  0  0  0  0  0
   59.4710   33.3180   47.3680 C   0  0  0  0  0  0  0  0  0  0  0  0
   58.6650   32.4910   46.5620 C   0  0  0  0  0  0  0  0  0  0  0  0
   58.2470   31.1440   47.1220 C   0  0  0  0  0  0  0  0  0  0  0  0
   59.1480   30.0210   46.6670 C   0  0  0  0  0  0  0  0  0  0  0  0
   59.4040   28.9200   47.5060 C   0  0  0  0  0  0  0  0  0  0  0  0
   60.2040   27.8640   47.0590 C   0  0  0  0  0  0  0  0  0  0  0  0
   60.7410   27.8870   45.7700 C   0  0  0  0  0  0  0  0  0  0  0  0
   60.4730   28.9650   44.9210 C   0  0  0  0  0  0  0  0  0  0  0  0
   59.6710   30.0220   45.3620 C   0  0  0  0  0  0  0  0  0  0  0  0
   55.7010   25.8610   46.0180 C   0  0  0  0  0  0  0  0  0  0  0  0
   56.0690   24.5180   46.1380 C   0  0  0  0  0  0  0  0  0  0  0  0
   59.6909   21.8449   45.9318 H   0  0  0  0  0  0  0  0  0  0  0  0
   58.6329   21.3279   44.5753 H   0  0  0  0  0  0  0  0  0  0  0  0
   59.3538   22.9732   44.5753 H   0  0  0  0  0  0  0  0  0  0  0  0
   57.1521   21.9734   47.8135 H   0  0  0  0  0  0  0  0  0  0  0  0
   55.9036   21.8892   46.5247 H   0  0  0  0  0  0  0  0  0  0  0  0
   57.2742   20.7281   46.5247 H   0  0  0  0  0  0  0  0  0  0  0  0
   59.3362   24.7723   45.1511 H   0  0  0  0  0  0  0  0  0  0  0  0
   58.6799   27.1647   44.9810 H   0  0  0  0  0  0  0  0  0  0  0  0
   55.8261   30.5267   43.0427 H   0  0  0  0  0  0  0  0  0  0  0  0
   54.7876   30.1451   44.4548 H   0  0  0  0  0  0  0  0  0  0  0  0
   58.5780   34.5003   43.7701 H   0  0  0  0  0  0  0  0  0  0  0  0
   60.0010   35.9223   45.2304 H   0  0  0  0  0  0  0  0  0  0  0  0
   60.5672   35.1776   47.5374 H   0  0  0  0  0  0  0  0  0  0  0  0
   59.7327   32.9943   48.3862 H   0  0  0  0  0  0  0  0  0  0  0  0
   58.2750   31.1951   48.2205 H   0  0  0  0  0  0  0  0  0  0  0  0
   57.2338   30.9291   46.7515 H   0  0  0  0  0  0  0  0  0  0  0  0
   58.9728   28.8903   48.5175 H   0  0  0  0  0  0  0  0  0  0  0  0
   60.4110   27.0128   47.7244 H   0  0  0  0  0  0  0  0  0  0  0  0
   61.3745   27.0574   45.4229 H   0  0  0  0  0  0  0  0  0  0  0  0
   60.8937   28.9816   43.9047 H   0  0  0  0  0  0  0  0  0  0  0  0
   59.4480   30.8591   44.6841 H   0  0  0  0  0  0  0  0  0  0  0  0
   54.6770   26.1714   46.2732 H   0  0  0  0  0  0  0  0  0  0  0  0
   55.3293   23.7818   46.4856 H   0  0  0  0  0  0  0  0  0  0  0  0
  1  2  1  0
  2  3  1  0
  2  4  1  0
  4  5  2  0
  5  6  1  0
  6  7  2  0
  7  8  1  0
  8  9  1  0
  9 10  2  0
  9 11  1  0
 11 12  1  0
 12 13  1  0
 13 14  2  0
 13 15  1  0
 15 16  2  0
 16 17  1  0
 17 18  2  0
 18 19  1  0
 19 20  2  0
 20 21  1  0
 21 22  1  0
 22 23  2  0
 23 24  1  0
 24 25  2  0
 25 26  1  0
 26 27  2  0
  7 28  1  0
 28 29  2  0
 29  4  1  0
 20 15  1  0
 27 22  1  0
  1 30  1  0
  1 31  1  0
  1 32  1  0
  3 33  1  0
  3 34  1  0
  3 35  1  0
  5 36  1  0
  6 37  1  0
 11 38  1  0
 11 39  1  0
 16 40  1  0
 17 41  1  0
 18 42  1  0
 19 43  1  0
 21 44  1  0
 21 45  1  0
 23 46  1  0
 24 47  1  0
 25 48  1  0
 26 49  1  0
 27 50  1  0
 28 51  1  0
 29 52  1  0
M  CHG  1   8  -1
M  END
>  <UniqueID>  (47) 
44

>  <SMILES>  (47) 
CN(C)c1ccc([N-]C(=O)COC(=O)c2ccccc2Cc2ccccc2)cc1

>  <Energy>  (47) 
59.313418898988445

>  <Genealogy>  (47) 
CN(C)c1ccc([N-]C(=O)COC(=O)c2ccccc2Cc2ccccc2)cc1 (protonated)
CN(C)c1ccc([N-]C(=O)COC(=O)c2ccccc2Cc2ccccc2)cc1 (3D coordinates assigned)
CN(C)c1ccc([N-]C(=O)COC(=O)c2ccccc2Cc2ccccc2)cc1 (optimized conformer: 59.313418898988445 kcal/mol)

>  <smiles>  (47) 
CN(C)c1ccc(NC(=O)COC(=O)c2ccccc2Cc2ccccc2)cc1

>  <score_type>  (47) 
oracle

>  <origin>  (47) 
adg

>  <m_score__min__energy>  (47) 
-10.119999999999999

>  <m_primary>  (47) 
energy

$$$$
47:0
     RDKit          3D

 60 63  0  0  0  0  0  0  0  0999 V2000
   57.8070   25.1740   44.9810 C   0  0  0  0  0  0  0  0  0  0  0  0
   57.7800   26.4700   44.3870 O   0  0  0  0  0  0  0  0  0  0  0  0
   58.3220   27.6240   44.9740 C   0  0  0  0  0  0  0  0  0  0  0  0
   59.4330   28.2950   44.4310 C   0  0  0  0  0  0  0  0  0  0  0  0
   59.9370   29.4410   45.0540 C   0  0  0  0  0  0  0  0  0  0  0  0
   59.3500   29.9380   46.2320 C   0  0  0  0  0  0  0  0  0  0  0  0
   59.9170   31.1950   46.8810 C   0  0  2  0  0  0  0  0  0  0  0  0
   59.8090   31.2260   48.3910 C   0  0  0  0  0  0  0  0  0  0  0  0
   60.7580   30.8030   49.1040 O   0  0  0  0  0  0  0  0  0  0  0  0
   58.6960   31.8990   49.0020 N   0  0  0  0  0  0  0  0  0  0  0  0
   58.4570   31.9540   50.4190 C   0  0  0  0  0  0  0  0  0  0  0  0
   58.9200   33.0200   51.2090 C   0  0  0  0  0  0  0  0  0  0  0  0
   58.7120   33.0240   52.5910 C   0  0  0  0  0  0  0  0  0  0  0  0
   58.0470   31.9570   53.2090 C   0  0  0  0  0  0  0  0  0  0  0  0
   57.8110   31.9820   54.6890 C   0  0  0  0  0  0  0  0  0  0  0  0
   57.5840   30.8890   52.4250 C   0  0  0  0  0  0  0  0  0  0  0  0
   57.7980   30.8840   51.0430 C   0  0  0  0  0  0  0  0  0  0  0  0
   59.3830   32.4210   46.2460 N   0  0  0  0  0  0  0  0  0  0  0  0
   60.0420   33.7390   46.3660 C   0  0  0  0  0  0  0  0  0  0  0  0
   61.2600   33.7230   47.2580 C   0  0  0  0  0  0  0  0  0  0  0  0
   62.5130   33.3520   46.7440 C   0  0  0  0  0  0  0  0  0  0  0  0
   63.6540   33.3980   47.5520 C   0  0  0  0  0  0  0  0  0  0  0  0
   63.5580   33.8300   48.8760 C   0  0  0  0  0  0  0  0  0  0  0  0
   62.3220   34.2270   49.3900 C   0  0  0  0  0  0  0  0  0  0  0  0
   61.1790   34.1840   48.5850 C   0  0  0  0  0  0  0  0  0  0  0  0
   57.9730   32.4370   45.9620 C   0  0  0  0  0  0  0  0  0  0  0  0
   57.1880   33.0510   46.7350 O   0  0  0  0  0  0  0  0  0  0  0  0
   57.4330   31.7400   44.7880 C   0  0  0  0  0  0  0  0  0  0  0  0
   57.7900   31.9730   43.4750 C   0  0  0  0  0  0  0  0  0  0  0  0
   57.0320   31.1030   42.7220 C   0  0  0  0  0  0  0  0  0  0  0  0
   56.2580   30.3970   43.6200 C   0  0  0  0  0  0  0  0  0  0  0  0
   56.5190   30.8010   44.8430 O   0  0  0  0  0  0  0  0  0  0  0  0
   58.2360   29.2650   46.7640 C   0  0  0  0  0  0  0  0  0  0  0  0
   57.7310   28.1190   46.1420 C   0  0  0  0  0  0  0  0  0  0  0  0
   57.8049   25.2727   46.0766 H   0  0  0  0  0  0  0  0  0  0  0  0
   56.9205   24.6061   44.6623 H   0  0  0  0  0  0  0  0  0  0  0  0
   58.7164   24.6435   44.6623 H   0  0  0  0  0  0  0  0  0  0  0  0
   59.9068   27.9168   43.5132 H   0  0  0  0  0  0  0  0  0  0  0  0
   60.8030   29.9602   44.6177 H   0  0  0  0  0  0  0  0  0  0  0  0
   60.9997   31.1628   46.6892 H   0  0  0  0  0  0  0  0  0  0  0  0
   58.0780   32.4710   48.3790 H   0  0  0  0  0  0  0  0  0  0  0  0
   59.4509   33.8589   50.7353 H   0  0  0  0  0  0  0  0  0  0  0  0
   59.0721   33.8689   53.1963 H   0  0  0  0  0  0  0  0  0  0  0  0
   58.7716   31.8802   55.2152 H   0  0  0  0  0  0  0  0  0  0  0  0
   57.3387   32.9352   54.9689 H   0  0  0  0  0  0  0  0  0  0  0  0
   57.1495   31.1489   54.9689 H   0  0  0  0  0  0  0  0  0  0  0  0
   57.0505   30.0523   52.8996 H   0  0  0  0  0  0  0  0  0  0  0  0
   57.4466   30.0338   50.4399 H   0  0  0  0  0  0  0  0  0  0  0  0
   60.3496   34.0674   45.3622 H   0  0  0  0  0  0  0  0  0  0  0  0
   59.3140   34.4248   46.8238 H   0  0  0  0  0  0  0  0  0  0  0  0
   62.5980   33.0227   45.6979 H   0  0  0  0  0  0  0  0  0  0  0  0
   64.6287   33.0932   47.1433 H   0  0  0  0  0  0  0  0  0  0  0  0
   64.4543   33.8576   49.5131 H   0  0  0  0  0  0  0  0  0  0  0  0
   62.2469   34.5746   50.4309 H   0  0  0  0  0  0  0  0  0  0  0  0
   60.2111   34.5125   48.9916 H   0  0  0  0  0  0  0  0  0  0  0  0
   58.5267   32.7019   43.1064 H   0  0  0  0  0  0  0  0  0  0  0  0
   57.0419   30.9935   41.6275 H   0  0  0  0  0  0  0  0  0  0  0  0
   55.5325   29.6146   43.3527 H   0  0  0  0  0  0  0  0  0  0  0  0
   57.7569   29.6439   47.6788 H   0  0  0  0  0  0  0  0  0  0  0  0
   56.8617   27.6021   46.5745 H   0  0  0  0  0  0  0  0  0  0  0  0
  1  2  1  0
  2  3  1  0
  3  4  2  0
  4  5  1  0
  5  6  2  0
  6  7  1  0
  7  8  1  0
  8  9  2  0
  8 10  1  0
 10 11  1  0
 11 12  2  0
 12 13  1  0
 13 14  2  0
 14 15  1  0
 14 16  1  0
 16 17  2  0
  7 18  1  0
 18 19  1  0
 19 20  1  0
 20 21  2  0
 21 22  1  0
 22 23  2  0
 23 24  1  0
 24 25  2  0
 18 26  1  0
 26 27  2  0
 26 28  1  0
 28 29  2  0
 29 30  1  0
 30 31  2  0
 31 32  1  0
  6 33  1  0
 33 34  2  0
 34  3  1  0
 17 11  1  0
 25 20  1  0
 32 28  1  0
  1 35  1  0
  1 36  1  0
  1 37  1  0
  4 38  1  0
  5 39  1  0
  7 40  1  1
 10 41  1  0
 12 42  1  0
 13 43  1  0
 15 44  1  0
 15 45  1  0
 15 46  1  0
 16 47  1  0
 17 48  1  0
 19 49  1  0
 19 50  1  0
 21 51  1  0
 22 52  1  0
 23 53  1  0
 24 54  1  0
 25 55  1  0
 29 56  1  0
 30 57  1  0
 31 58  1  0
 33 59  1  0
 34 60  1  0
M  END
>  <UniqueID>  (48) 
45

>  <SMILES>  (48) 
COc1ccc([C@H](C(=O)Nc2ccc(C)cc2)N(Cc2ccccc2)C(=O)c2ccco2)cc1

>  <Energy>  (48) 
98.1498786195367

>  <Genealogy>  (48) 
COc1ccc([C@H](C(=O)Nc2ccc(C)cc2)N(Cc2ccccc2)C(=O)c2ccco2)cc1 (chirality)
COc1ccc([C@H](C(=O)Nc2ccc(C)cc2)N(Cc2ccccc2)C(=O)c2ccco2)cc1 (3D coordinates assigned)
COc1ccc([C@H](C(=O)Nc2ccc(C)cc2)N(Cc2ccccc2)C(=O)c2ccco2)cc1 (optimized conformer: 98.1498786195367 kcal/mol)

>  <smiles>  (48) 
COc1ccc(C(C(=O)Nc2ccc(C)cc2)N(Cc2ccccc2)C(=O)c2ccco2)cc1

>  <score_type>  (48) 
oracle

>  <origin>  (48) 
adg

>  <m_score__min__energy>  (48) 
-8.4700000000000006

>  <m_primary>  (48) 
energy

$$$$
48:0
     RDKit          3D

 82 87  0  0  1  0  0  0  0  0999 V2000
   54.5710   30.8230   51.6480 C   0  0  0  0  0  0  0  0  0  0  0  0
   55.7150   30.4870   52.5970 C   0  0  0  0  0  0  0  0  0  0  0  0
   56.9680   31.0210   52.1500 N   0  0  0  0  0  0  0  0  0  0  0  0
   57.7980   30.0340   51.4690 C   0  0  0  0  0  0  0  0  0  0  0  0
   59.1710   30.6370   51.2740 C   0  0  0  0  0  0  0  0  0  0  0  0
   59.0070   32.0840   51.2070 N   0  0  0  0  0  0  0  0  0  0  0  0
   59.1830   32.8410   50.0330 C   0  0  0  0  0  0  0  0  0  0  0  0
   60.1710   33.8000   49.9120 C   0  0  0  0  0  0  0  0  0  0  0  0
   60.3320   34.5510   48.7440 C   0  0  0  0  0  0  0  0  0  0  0  0
   59.5120   34.3640   47.6680 C   0  0  0  0  0  0  0  0  0  0  0  0
   58.5100   33.4040   47.7690 C   0  0  0  0  0  0  0  0  0  0  0  0
   57.6380   33.1870   46.6660 N   0  0  0  0  0  0  0  0  0  0  0  0
   57.8570   32.3870   45.7020 C   0  0  0  0  0  0  0  0  0  0  0  0
   58.3760   31.1750   45.9690 N   0  0  0  0  0  0  0  0  0  0  0  0
   58.5990   30.3520   44.9480 C   0  0  0  0  0  0  0  0  0  0  0  0
   59.1020   29.1540   45.1070 N   0  0  0  0  0  0  0  0  0  0  0  0
   59.5800   28.7640   46.4070 C   0  0  0  0  0  0  0  0  0  0  0  0
   59.1810   27.5040   46.8500 C   0  0  0  0  0  0  0  0  0  0  0  0
   59.5830   27.0330   48.0830 C   0  0  0  0  0  0  0  0  0  0  0  0
   60.3890   27.8650   48.8400 C   0  0  0  0  0  0  0  0  0  0  0  0
   60.8950   27.2160   50.4500 S   0  0  0  0  0  0  0  0  0  0  0  0
   61.4890   28.5740   51.4780 C   0  0  0  0  0  0  0  0  0  0  0  0
   61.1590   28.5440   52.8180 C   0  0  0  0  0  0  0  0  0  0  0  0
   61.6110   29.5790   53.6110 C   0  0  0  0  0  0  0  0  0  0  0  0
   62.3630   30.5890   53.0370 C   0  0  0  0  0  0  0  0  0  0  0  0
   62.6780   30.5850   51.6740 C   0  0  0  0  0  0  0  0  0  0  0  0
   63.4440   31.6120   51.0910 N   0  0  0  0  0  0  0  0  0  0  0  0
   64.8100   31.9250   51.4620 C   0  0  0  0  0  0  0  0  0  0  0  0
   65.6060   31.9800   50.1530 C   0  0  0  0  0  0  0  0  0  0  0  0
   65.0900   32.9470   49.2300 N   0  0  0  0  0  0  0  0  0  0  0  0
   63.8010   33.4770   49.5620 C   0  0  0  0  0  0  0  0  0  0  0  0
   62.8390   32.4200   50.0450 C   0  0  0  0  0  0  0  0  0  0  0  0
   62.2180   29.5480   50.9130 N   0  0  0  0  0  0  0  0  0  0  0  0
   60.7780   29.0990   48.4000 C   0  0  0  0  0  0  0  0  0  0  0  0
   60.3850   29.5880   47.1690 C   0  0  0  0  0  0  0  0  0  0  0  0
   60.7610   30.8370   46.6910 O   0  0  0  0  0  0  0  0  0  0  0  0
   62.0010   31.3550   47.1760 C   0  0  0  0  0  0  0  0  0  0  0  0
   58.3100   30.7270   43.6830 N   0  0  0  0  0  0  0  0  0  0  0  0
   57.7880   31.9400   43.3880 C   0  0  0  0  0  0  0  0  0  0  0  0
   57.5460   32.8120   44.4260 C   0  0  0  0  0  0  0  0  0  0  0  0
   57.0190   34.0430   44.1710 F   0  0  0  0  0  0  0  0  0  0  0  0
   58.3610   32.6600   48.9430 C   0  0  0  0  0  0  0  0  0  0  0  0
   58.6310   32.7220   52.4770 C   0  0  0  0  0  0  0  0  0  0  0  0
   57.7410   31.6810   53.1700 C   0  0  0  0  0  0  0  0  0  0  0  0
   53.6761   31.0858   52.2311 H   0  0  0  0  0  0  0  0  0  0  0  0
   54.8587   31.6746   51.0139 H   0  0  0  0  0  0  0  0  0  0  0  0
   54.3525   29.9511   51.0139 H   0  0  0  0  0  0  0  0  0  0  0  0
   55.4862   30.9046   53.5886 H   0  0  0  0  0  0  0  0  0  0  0  0
   55.8103   29.3918   52.6343 H   0  0  0  0  0  0  0  0  0  0  0  0
   57.8733   29.1229   52.0807 H   0  0  0  0  0  0  0  0  0  0  0  0
   57.3558   29.7655   50.4982 H   0  0  0  0  0  0  0  0  0  0  0  0
   59.8218   30.3713   52.1201 H   0  0  0  0  0  0  0  0  0  0  0  0
   59.6348   30.2559   50.3522 H   0  0  0  0  0  0  0  0  0  0  0  0
   60.8500   33.9773   50.7590 H   0  0  0  0  0  0  0  0  0  0  0  0
   61.1317   35.3044   48.6907 H   0  0  0  0  0  0  0  0  0  0  0  0
   59.6399   34.9547   46.7489 H   0  0  0  0  0  0  0  0  0  0  0  0
   58.5920   30.9020   46.9370 H   0  0  0  0  0  0  0  0  0  0  0  0
   58.5397   26.8794   46.2107 H   0  0  0  0  0  0  0  0  0  0  0  0
   59.2768   26.0414   48.4476 H   0  0  0  0  0  0  0  0  0  0  0  0
   60.5575   27.7247   53.2385 H   0  0  0  0  0  0  0  0  0  0  0  0
   61.3766   29.6009   54.6855 H   0  0  0  0  0  0  0  0  0  0  0  0
   62.7219   31.4154   53.6681 H   0  0  0  0  0  0  0  0  0  0  0  0
   64.8527   32.8968   51.9755 H   0  0  0  0  0  0  0  0  0  0  0  0
   65.2213   31.1720   52.1503 H   0  0  0  0  0  0  0  0  0  0  0  0
   66.6493   32.2388   50.3866 H   0  0  0  0  0  0  0  0  0  0  0  0
   65.5279   30.9919   49.6759 H   0  0  0  0  0  0  0  0  0  0  0  0
   65.1810   32.6510   48.2420 H   0  0  0  0  0  0  0  0  0  0  0  0
   63.9242   34.2286   50.3556 H   0  0  0  0  0  0  0  0  0  0  0  0
   63.3779   33.9150   48.6459 H   0  0  0  0  0  0  0  0  0  0  0  0
   61.9367   32.9078   50.4423 H   0  0  0  0  0  0  0  0  0  0  0  0
   62.5794   31.7661   49.1994 H   0  0  0  0  0  0  0  0  0  0  0  0
   61.4206   29.7189   49.0425 H   0  0  0  0  0  0  0  0  0  0  0  0
   61.9944   31.3522   48.2760 H   0  0  0  0  0  0  0  0  0  0  0  0
   62.8279   30.7271   46.8127 H   0  0  0  0  0  0  0  0  0  0  0  0
   62.1355   32.3845   46.8127 H   0  0  0  0  0  0  0  0  0  0  0  0
   58.4760   30.0960   42.8550 H   0  0  0  0  0  0  0  0  0  0  0  0
   57.5633   32.2215   42.3486 H   0  0  0  0  0  0  0  0  0  0  0  0
   57.5619   31.9061   48.9979 H   0  0  0  0  0  0  0  0  0  0  0  0
   59.5224   32.9395   53.0837 H   0  0  0  0  0  0  0  0  0  0  0  0
   58.1191   33.6846   52.3305 H   0  0  0  0  0  0  0  0  0  0  0  0
   58.3655   30.9474   53.7009 H   0  0  0  0  0  0  0  0  0  0  0  0
   57.0795   32.1652   53.9035 H   0  0  0  0  0  0  0  0  0  0  0  0
  1  2  1  0
  2  3  1  0
  3  4  1  0
  4  5  1  0
  5  6  1  0
  6  7  1  0
  7  8  2  0
  8  9  1  0
  9 10  2  0
 10 11  1  0
 11 12  1  0
 12 13  2  0
 13 14  1  0
 14 15  1  0
 15 16  2  0
 16 17  1  0
 17 18  2  0
 18 19  1  0
 19 20  2  0
 20 21  1  0
 21 22  1  0
 22 23  2  0
 23 24  1  0
 24 25  2  0
 25 26  1  0
 26 27  1  0
 27 28  1  0
 28 29  1  0
 29 30  1  0
 30 31  1  0
 31 32  1  0
 26 33  2  0
 20 34  1  0
 34 35  2  0
 35 36  1  0
 36 37  1  0
 15 38  1  0
 38 39  1  0
 39 40  2  0
 40 41  1  0
 11 42  2  0
  6 43  1  0
 43 44  1  0
 44  3  1  0
 42  7  1  0
 40 13  1  0
 35 17  1  0
 33 22  1  0
 32 27  1  0
  1 45  1  0
  1 46  1  0
  1 47  1  0
  2 48  1  0
  2 49  1  0
  4 50  1  0
  4 51  1  0
  5 52  1  0
  5 53  1  0
  8 54  1  0
  9 55  1  0
 10 56  1  0
 14 57  1  0
 18 58  1  0
 19 59  1  0
 23 60  1  0
 24 61  1  0
 25 62  1  0
 28 63  1  0
 28 64  1  0
 29 65  1  0
 29 66  1  0
 30 67  1  0
 31 68  1  0
 31 69  1  0
 32 70  1  0
 32 71  1  0
 34 72  1  0
 37 73  1  0
 37 74  1  0
 37 75  1  0
 38 76  1  0
 39 77  1  0
 42 78  1  0
 43 79  1  0
 43 80  1  0
 44 81  1  0
 44 82  1  0
M  END
>  <smiles>  (49) 
CCN1CCN(c2cccc(N=c3[nH]c(=Nc4ccc(Sc5cccc(N6CCNCC6)n5)cc4OC)[nH]cc3F)c2)CC1

>  <score_type>  (49) 
oracle

>  <origin>  (49) 
adg

>  <m_score__min__energy>  (49) 
-10.35

>  <m_primary>  (49) 
energy

$$$$
49:0
     RDKit          3D

 52 54  0  0  0  0  0  0  0  0999 V2000
   58.9990   32.6350   53.2640 C   0  0  0  0  0  0  0  0  0  0  0  0
   59.9130   33.8600   53.2930 C   0  0  0  0  0  0  0  0  0  0  0  0
   61.3680   33.4950   52.9350 C   0  0  1  0  0  0  0  0  0  0  0  0
   61.8800   32.3280   53.7890 C   0  0  0  0  0  0  0  0  0  0  0  0
   61.5220   33.2090   51.4990 N   0  0  0  0  0  0  0  0  0  0  0  0
   62.7610   33.3140   50.7710 C   0  0  0  0  0  0  0  0  0  0  0  0
   63.8540   33.4310   51.3880 O   0  0  0  0  0  0  0  0  0  0  0  0
   62.7580   33.3810   49.2930 C   0  0  0  0  0  0  0  0  0  0  0  0
   63.8900   32.9190   48.5990 C   0  0  0  0  0  0  0  0  0  0  0  0
   63.9860   33.0770   47.2140 C   0  0  0  0  0  0  0  0  0  0  0  0
   62.9610   33.7070   46.5080 C   0  0  0  0  0  0  0  0  0  0  0  0
   61.8190   34.1480   47.1800 C   0  0  0  0  0  0  0  0  0  0  0  0
   61.6900   33.9590   48.5610 C   0  0  0  0  0  0  0  0  0  0  0  0
   60.4400   34.2920   49.1790 N   0  0  0  0  0  0  0  0  0  0  0  0
   59.2970   33.4210   49.1830 C   0  0  0  0  0  0  0  0  0  0  0  0
   58.7740   33.0950   50.2830 O   0  0  0  0  0  0  0  0  0  0  0  0
   58.7100   32.9160   47.9280 C   0  0  0  0  0  0  0  0  0  0  0  0
   58.7380   31.5460   47.6370 C   0  0  0  0  0  0  0  0  0  0  0  0
   58.1320   31.0610   46.4760 C   0  0  0  0  0  0  0  0  0  0  0  0
   57.4730   31.9310   45.6020 C   0  0  0  0  0  0  0  0  0  0  0  0
   56.8180   31.3770   44.4530 N   0  0  0  0  0  0  0  0  0  0  0  0
   56.4350   29.7030   44.1960 S   0  0  0  0  0  0  0  0  0  0  0  0
   55.1390   29.3440   44.8730 O   0  0  0  0  0  0  0  0  0  0  0  0
   56.2770   29.4890   42.7170 O   0  0  0  0  0  0  0  0  0  0  0  0
   57.7450   28.6830   44.7790 C   0  0  0  0  0  0  0  0  0  0  0  0
   59.0870   28.8630   44.4960 C   0  0  0  0  0  0  0  0  0  0  0  0
   59.9100   27.9300   45.1490 C   0  0  0  0  0  0  0  0  0  0  0  0
   59.2140   27.0280   45.9440 C   0  0  0  0  0  0  0  0  0  0  0  0
   57.5790   27.3850   45.8390 S   0  0  0  0  0  0  0  0  0  0  0  0
   57.4710   33.3080   45.8790 C   0  0  0  0  0  0  0  0  0  0  0  0
   58.0980   33.7970   47.0290 C   0  0  0  0  0  0  0  0  0  0  0  0
   58.7680   32.3254   54.2939 H   0  0  0  0  0  0  0  0  0  0  0  0
   58.0658   32.8862   52.7386 H   0  0  0  0  0  0  0  0  0  0  0  0
   59.5055   31.8120   52.7386 H   0  0  0  0  0  0  0  0  0  0  0  0
   59.5420   34.5988   52.5674 H   0  0  0  0  0  0  0  0  0  0  0  0
   59.9037   34.2705   54.3135 H   0  0  0  0  0  0  0  0  0  0  0  0
   61.9869   34.3752   53.1636 H   0  0  0  0  0  0  0  0  0  0  0  0
   61.7704   32.5778   54.8547 H   0  0  0  0  0  0  0  0  0  0  0  0
   61.2959   31.4239   53.5624 H   0  0  0  0  0  0  0  0  0  0  0  0
   62.9408   32.1456   53.5624 H   0  0  0  0  0  0  0  0  0  0  0  0
   60.6410   33.0560   50.9570 H   0  0  0  0  0  0  0  0  0  0  0  0
   64.7062   32.4295   49.1505 H   0  0  0  0  0  0  0  0  0  0  0  0
   64.8718   32.7038   46.6792 H   0  0  0  0  0  0  0  0  0  0  0  0
   63.0523   33.8564   45.4220 H   0  0  0  0  0  0  0  0  0  0  0  0
   61.0148   34.6476   46.6199 H   0  0  0  0  0  0  0  0  0  0  0  0
   59.2391   30.8497   48.3255 H   0  0  0  0  0  0  0  0  0  0  0  0
   58.1735   29.9858   46.2473 H   0  0  0  0  0  0  0  0  0  0  0  0
   59.4688   29.6518   43.8312 H   0  0  0  0  0  0  0  0  0  0  0  0
   61.0046   27.9151   45.0407 H   0  0  0  0  0  0  0  0  0  0  0  0
   59.6594   26.2181   46.5404 H   0  0  0  0  0  0  0  0  0  0  0  0
   56.9739   34.0048   45.1881 H   0  0  0  0  0  0  0  0  0  0  0  0
   58.1104   34.8788   47.2281 H   0  0  0  0  0  0  0  0  0  0  0  0
  1  2  1  0
  2  3  1  0
  3  4  1  0
  3  5  1  0
  5  6  1  0
  6  7  2  0
  6  8  1  0
  8  9  2  0
  9 10  1  0
 10 11  2  0
 11 12  1  0
 12 13  2  0
 13 14  1  0
 14 15  1  0
 15 16  2  0
 15 17  1  0
 17 18  2  0
 18 19  1  0
 19 20  2  0
 20 21  1  0
 21 22  1  0
 22 23  2  0
 22 24  2  0
 22 25  1  0
 25 26  2  0
 26 27  1  0
 27 28  2  0
 28 29  1  0
 20 30  1  0
 30 31  2  0
 13  8  1  0
 31 17  1  0
 29 25  1  0
  1 32  1  0
  1 33  1  0
  1 34  1  0
  2 35  1  0
  2 36  1  0
  3 37  1  1
  4 38  1  0
  4 39  1  0
  4 40  1  0
  5 41  1  0
  9 42  1  0
 10 43  1  0
 11 44  1  0
 12 45  1  0
 18 46  1  0
 19 47  1  0
 26 48  1  0
 27 49  1  0
 28 50  1  0
 30 51  1  0
 31 52  1  0
M  CHG  2  14  -1  21  -1
M  END
>  <UniqueID>  (50) 
46

>  <SMILES>  (50) 
CC[C@@H](C)NC(=O)c1ccccc1[N-]C(=O)c1ccc([N-]S(=O)(=O)c2cccs2)cc1

>  <Energy>  (50) 
91.40008117996945

>  <Genealogy>  (50) 
CCC(C)NC(=O)c1ccccc1[N-]C(=O)c1ccc([N-]S(=O)(=O)c2cccs2)cc1 (protonated)
CC[C@@H](C)NC(=O)c1ccccc1[N-]C(=O)c1ccc([N-]S(=O)(=O)c2cccs2)cc1 (chirality)
CC[C@@H](C)NC(=O)c1ccccc1[N-]C(=O)c1ccc([N-]S(=O)(=O)c2cccs2)cc1 (3D coordinates assigned)
CC[C@@H](C)NC(=O)c1ccccc1[N-]C(=O)c1ccc([N-]S(=O)(=O)c2cccs2)cc1 (optimized conformer: 91.40008117996945 kcal/mol)

>  <smiles>  (50) 
CCC(C)NC(=O)c1ccccc1NC(=O)c1ccc(NS(=O)(=O)c2cccs2)cc1

>  <score_type>  (50) 
oracle

>  <origin>  (50) 
adg

>  <m_score__min__energy>  (50) 
-11.41

>  <m_primary>  (50) 
energy

$$$$
50:0
     RDKit          3D

 43 47  0  0  0  0  0  0  0  0999 V2000
   57.1470   29.9340   44.1840 Cl  0  0  0  0  0  0  0  0  0  0  0  0
   57.8320   31.4270   44.8000 C   0  0  0  0  0  0  0  0  0  0  0  0
   57.4310   32.6530   44.2630 C   0  0  0  0  0  0  0  0  0  0  0  0
   57.9820   33.8420   44.7470 C   0  0  0  0  0  0  0  0  0  0  0  0
   58.9300   33.8160   45.7770 C   0  0  0  0  0  0  0  0  0  0  0  0
   59.6470   35.3400   46.2920 Cl  0  0  0  0  0  0  0  0  0  0  0  0
   59.3250   32.5800   46.3350 C   0  0  0  0  0  0  0  0  0  0  0  0
   60.3140   32.5020   47.4310 C   0  0  0  0  0  0  0  0  0  0  0  0
   61.6190   32.8680   47.2190 N   0  0  0  0  0  0  0  0  0  0  0  0
   62.5660   32.7880   48.2140 C   0  0  0  0  0  0  0  0  0  0  0  0
   63.8900   33.1800   47.9730 C   0  0  0  0  0  0  0  0  0  0  0  0
   64.8470   33.0910   48.9910 C   0  0  0  0  0  0  0  0  0  0  0  0
   64.4900   32.6110   50.2550 C   0  0  0  0  0  0  0  0  0  0  0  0
   63.1750   32.2140   50.5150 C   0  0  0  0  0  0  0  0  0  0  0  0
   62.2110   32.3010   49.5020 C   0  0  0  0  0  0  0  0  0  0  0  0
   60.8840   31.9190   49.6900 C   0  0  0  0  0  0  0  0  0  0  0  0
   60.3150   31.4070   50.7930 N   0  0  0  0  0  0  0  0  0  0  0  0
   59.0290   31.2020   50.4000 C   0  0  0  0  0  0  0  0  0  0  0  0
   57.9990   30.6390   51.3030 C   0  0  0  0  0  0  0  0  0  0  0  0
   58.2250   29.4850   51.9550 C   0  0  0  0  0  0  0  0  0  0  0  0
   57.2300   28.9010   52.9240 C   0  0  0  0  0  0  0  0  0  0  0  0
   55.8590   29.3640   52.6670 N   0  0  0  0  0  0  0  0  0  0  0  0
   55.8240   30.8290   52.5820 C   0  0  0  0  0  0  0  0  0  0  0  0
   56.6540   31.3240   51.3910 C   0  0  0  0  0  0  0  0  0  0  0  0
   58.7780   31.5560   49.1120 N   0  0  0  0  0  0  0  0  0  0  0  0
   59.9680   32.0110   48.6920 C   0  0  0  0  0  0  0  0  0  0  0  0
   58.7780   31.3900   45.8280 C   0  0  0  0  0  0  0  0  0  0  0  0
   56.6811   32.6820   43.4588 H   0  0  0  0  0  0  0  0  0  0  0  0
   57.6691   34.8046   44.3162 H   0  0  0  0  0  0  0  0  0  0  0  0
   61.8940   33.2290   46.2770 H   0  0  0  0  0  0  0  0  0  0  0  0
   64.1780   33.5586   46.9812 H   0  0  0  0  0  0  0  0  0  0  0  0
   65.8845   33.4001   48.7957 H   0  0  0  0  0  0  0  0  0  0  0  0
   65.2482   32.5454   51.0492 H   0  0  0  0  0  0  0  0  0  0  0  0
   62.8985   31.8352   51.5100 H   0  0  0  0  0  0  0  0  0  0  0  0
   59.1685   28.9490   51.7748 H   0  0  0  0  0  0  0  0  0  0  0  0
   57.2546   27.8047   52.8376 H   0  0  0  0  0  0  0  0  0  0  0  0
   57.5119   29.2323   53.9343 H   0  0  0  0  0  0  0  0  0  0  0  0
   55.5300   28.9620   51.7570 H   0  0  0  0  0  0  0  0  0  0  0  0
   54.7819   31.1585   52.4575 H   0  0  0  0  0  0  0  0  0  0  0  0
   56.2490   31.2467   53.5066 H   0  0  0  0  0  0  0  0  0  0  0  0
   56.0953   31.1263   50.4643 H   0  0  0  0  0  0  0  0  0  0  0  0
   56.8336   32.4002   51.5308 H   0  0  0  0  0  0  0  0  0  0  0  0
   59.0963   30.4222   46.2429 H   0  0  0  0  0  0  0  0  0  0  0  0
  1  2  1  0
  2  3  2  0
  3  4  1  0
  4  5  2  0
  5  6  1  0
  5  7  1  0
  7  8  1  0
  8  9  2  0
  9 10  1  0
 10 11  2  0
 11 12  1  0
 12 13  2  0
 13 14  1  0
 14 15  2  0
 15 16  1  0
 16 17  1  0
 17 18  1  0
 18 19  1  0
 19 20  2  0
 20 21  1  0
 21 22  1  0
 22 23  1  0
 23 24  1  0
 18 25  2  0
 25 26  1  0
  7 27  2  0
 27  2  1  0
 26  8  1  0
 15 10  1  0
 26 16  2  0
 24 19  1  0
  3 28  1  0
  4 29  1  0
  9 30  1  0
 11 31  1  0
 12 32  1  0
 13 33  1  0
 14 34  1  0
 20 35  1  0
 21 36  1  0
 21 37  1  0
 22 38  1  0
 23 39  1  0
 23 40  1  0
 24 41  1  0
 24 42  1  0
 27 43  1  0
M  CHG  2   9   1  17  -1
M  END
>  <UniqueID>  (51) 
47

>  <SMILES>  (51) 
Clc1ccc(Cl)c(-c2[nH+]c3ccccc3c3[n-]c(C4=CCNCC4)nc23)c1

>  <Energy>  (51) 
95.23628516147772

>  <Genealogy>  (51) 
Clc1ccc(Cl)c(-c2[nH+]c3ccccc3c3[n-]c(C4=CCNCC4)nc23)c1 (protonated)
Clc1ccc(Cl)c(-c2[nH+]c3ccccc3c3[n-]c(C4=CCNCC4)nc23)c1 (3D coordinates assigned)
Clc1ccc(Cl)c(-c2[nH+]c3ccccc3c3[n-]c(C4=CCNCC4)nc23)c1 (nonaromatic ring conformer: 95.23628516147772 kcal/mol)

>  <smiles>  (51) 
Clc1ccc(Cl)c(-c2nc3ccccc3c3[nH]c(C4=CCNCC4)nc23)c1

>  <score_type>  (51) 
oracle

>  <origin>  (51) 
adg

>  <m_score__min__energy>  (51) 
-7.96

>  <m_primary>  (51) 
energy

$$$$
51:0
     RDKit          3D

 45 48  0  0  0  0  0  0  0  0999 V2000
   63.4120   33.6830   46.6860 C   0  0  0  0  0  0  0  0  0  0  0  0
   62.6210   33.3530   47.8750 N   0  0  0  0  0  0  0  0  0  0  0  0
   61.5810   34.2850   48.3270 C   0  0  0  0  0  0  0  0  0  0  0  0
   60.3220   34.0790   47.5440 C   0  0  0  0  0  0  0  0  0  0  0  0
   59.9970   34.7010   46.3560 C   0  0  0  0  0  0  0  0  0  0  0  0
   58.7450   34.2290   46.0210 C   0  0  0  0  0  0  0  0  0  0  0  0
   58.3860   33.3520   47.0260 C   0  0  0  0  0  0  0  0  0  0  0  0
   59.3450   33.2860   47.9190 O   0  0  0  0  0  0  0  0  0  0  0  0
   62.6910   32.0290   48.4420 C   0  0  0  0  0  0  0  0  0  0  0  0
   63.7050   31.6900   49.1100 O   0  0  0  0  0  0  0  0  0  0  0  0
   61.5940   31.0520   48.2660 C   0  0  0  0  0  0  0  0  0  0  0  0
   60.9580   30.4900   49.3740 C   0  0  0  0  0  0  0  0  0  0  0  0
   59.9250   29.5730   49.2020 C   0  0  0  0  0  0  0  0  0  0  0  0
   59.4840   29.1960   47.9190 C   0  0  0  0  0  0  0  0  0  0  0  0
   60.0870   29.8140   46.7810 C   0  0  0  0  0  0  0  0  0  0  0  0
   61.1470   30.7210   46.9810 C   0  0  0  0  0  0  0  0  0  0  0  0
   59.7080   29.5390   45.3390 C   0  0  0  0  0  0  0  0  0  0  0  0
   58.2400   29.1850   45.1330 C   0  0  0  0  0  0  0  0  0  0  0  0
   58.0360   27.7400   45.4580 C   0  0  0  0  0  0  0  0  0  0  0  0
   57.7500   26.8140   44.4390 C   0  0  0  0  0  0  0  0  0  0  0  0
   57.5760   25.4610   44.7440 C   0  0  0  0  0  0  0  0  0  0  0  0
   57.2150   24.3120   43.4680 Cl  0  0  0  0  0  0  0  0  0  0  0  0
   57.6870   25.0250   46.0660 C   0  0  0  0  0  0  0  0  0  0  0  0
   57.9790   25.9390   47.0810 C   0  0  0  0  0  0  0  0  0  0  0  0
   58.1790   27.2970   46.7820 C   0  0  0  0  0  0  0  0  0  0  0  0
   58.4200   28.2180   47.8560 N   0  0  0  0  0  0  0  0  0  0  0  0
   64.3863   34.0895   46.9950 H   0  0  0  0  0  0  0  0  0  0  0  0
   63.5675   32.7747   46.0853 H   0  0  0  0  0  0  0  0  0  0  0  0
   62.8758   34.4325   46.0853 H   0  0  0  0  0  0  0  0  0  0  0  0
   61.3772   34.1114   49.3939 H   0  0  0  0  0  0  0  0  0  0  0  0
   61.9332   35.3157   48.1731 H   0  0  0  0  0  0  0  0  0  0  0  0
   60.6083   35.4222   45.7938 H   0  0  0  0  0  0  0  0  0  0  0  0
   58.1526   34.4967   45.1336 H   0  0  0  0  0  0  0  0  0  0  0  0
   57.4394   32.7935   47.0709 H   0  0  0  0  0  0  0  0  0  0  0  0
   61.2748   30.7732   50.3886 H   0  0  0  0  0  0  0  0  0  0  0  0
   59.4427   29.1333   50.0875 H   0  0  0  0  0  0  0  0  0  0  0  0
   61.6342   31.1793   46.1078 H   0  0  0  0  0  0  0  0  0  0  0  0
   59.9320   30.4383   44.7464 H   0  0  0  0  0  0  0  0  0  0  0  0
   60.2911   28.6619   45.0218 H   0  0  0  0  0  0  0  0  0  0  0  0
   57.6155   29.8033   45.7946 H   0  0  0  0  0  0  0  0  0  0  0  0
   57.9561   29.3737   44.0872 H   0  0  0  0  0  0  0  0  0  0  0  0
   57.6628   27.1560   43.3971 H   0  0  0  0  0  0  0  0  0  0  0  0
   57.5444   23.9615   46.3080 H   0  0  0  0  0  0  0  0  0  0  0  0
   58.0529   25.5928   48.1225 H   0  0  0  0  0  0  0  0  0  0  0  0
   57.9420   27.9860   48.7560 H   0  0  0  0  0  0  0  0  0  0  0  0
  1  2  1  0
  2  3  1  0
  3  4  1  0
  4  5  2  0
  5  6  1  0
  6  7  2  0
  7  8  1  0
  2  9  1  0
  9 10  2  0
  9 11  1  0
 11 12  2  0
 12 13  1  0
 13 14  2  0
 14 15  1  0
 15 16  2  0
 15 17  1  0
 17 18  1  0
 18 19  1  0
 19 20  2  0
 20 21  1  0
 21 22  1  0
 21 23  2  0
 23 24  1  0
 24 25  2  0
 25 26  1  0
  8  4  1  0
 16 11  1  0
 25 19  1  0
 26 14  1  0
  1 27  1  0
  1 28  1  0
  1 29  1  0
  3 30  1  0
  3 31  1  0
  5 32  1  0
  6 33  1  0
  7 34  1  0
 12 35  1  0
 13 36  1  0
 16 37  1  0
 17 38  1  0
 17 39  1  0
 18 40  1  0
 18 41  1  0
 20 42  1  0
 23 43  1  0
 24 44  1  0
 26 45  1  0
M  END
>  <UniqueID>  (52) 
48

>  <SMILES>  (52) 
CN(Cc1ccco1)C(=O)c1ccc2c(c1)CCc1cc(Cl)ccc1N2

>  <Energy>  (52) 
90.74830421221847

>  <Genealogy>  (52) 
CN(Cc1ccco1)C(=O)c1ccc2c(c1)CCc1cc(Cl)ccc1N2 (3D coordinates assigned)
CN(Cc1ccco1)C(=O)c1ccc2c(c1)CCc1cc(Cl)ccc1N2 (nonaromatic ring conformer: 90.74830421221847 kcal/mol)

>  <smiles>  (52) 
CN(Cc1ccco1)C(=O)c1ccc2c(c1)CCc1cc(Cl)ccc1N2

>  <score_type>  (52) 
oracle

>  <origin>  (52) 
adg

>  <m_score__min__energy>  (52) 
-6.8200000000000003

>  <m_primary>  (52) 
energy

$$$$
52:0
     RDKit          3D

 56 59  0  0  0  0  0  0  0  0999 V2000
   59.0900   22.4670   45.2130 C   0  0  0  0  0  0  0  0  0  0  0  0
   57.5910   22.7090   45.2960 C   0  0  0  0  0  0  0  0  0  0  0  0
   56.9300   22.0290   44.1430 C   0  0  0  0  0  0  0  0  0  0  0  0
   57.0420   22.2290   46.6190 C   0  0  0  0  0  0  0  0  0  0  0  0
   57.3830   24.1820   45.2660 C   0  0  0  0  0  0  0  0  0  0  0  0
   56.8170   24.8760   46.3280 C   0  0  0  0  0  0  0  0  0  0  0  0
   56.6340   26.2590   46.2720 C   0  0  0  0  0  0  0  0  0  0  0  0
   57.0290   26.9330   45.1340 C   0  0  0  0  0  0  0  0  0  0  0  0
   56.8500   28.3790   45.0500 C   0  0  0  0  0  0  0  0  0  0  0  0
   57.8220   29.3310   45.2730 C   0  0  0  0  0  0  0  0  0  0  0  0
   57.2080   30.5510   45.0850 C   0  0  0  0  0  0  0  0  0  0  0  0
   57.8010   31.8810   45.2010 C   0  0  0  0  0  0  0  0  0  0  0  0
   58.1000   32.5600   44.0370 C   0  0  0  0  0  0  0  0  0  0  0  0
   58.6670   33.8320   44.1170 C   0  0  0  0  0  0  0  0  0  0  0  0
   58.9130   34.3790   45.3740 C   0  0  0  0  0  0  0  0  0  0  0  0
   58.6260   33.7300   46.5410 C   0  0  0  0  0  0  0  0  0  0  0  0
   58.8330   34.2170   47.8430 N   0  0  0  0  0  0  0  0  0  0  0  0
   59.7420   33.4850   49.0780 S   0  0  0  0  0  0  0  0  0  0  0  0
   59.2180   32.0610   49.2340 O   0  0  0  0  0  0  0  0  0  0  0  0
   59.5820   34.2040   50.3900 O   0  0  0  0  0  0  0  0  0  0  0  0
   61.4340   33.3240   48.7080 C   0  0  0  0  0  0  0  0  0  0  0  0
   61.9280   32.9890   47.4700 C   0  0  0  0  0  0  0  0  0  0  0  0
   63.2880   32.8830   47.2610 C   0  0  0  0  0  0  0  0  0  0  0  0
   64.2020   33.1050   48.2730 C   0  0  0  0  0  0  0  0  0  0  0  0
   63.7180   33.4420   49.5240 C   0  0  0  0  0  0  0  0  0  0  0  0
   62.3450   33.5480   49.7270 C   0  0  0  0  0  0  0  0  0  0  0  0
   58.0600   32.4580   46.4260 C   0  0  0  0  0  0  0  0  0  0  0  0
   55.9300   30.3250   44.7650 N   0  0  0  0  0  0  0  0  0  0  0  0
   55.7050   29.0090   44.7420 N   0  0  0  0  0  0  0  0  0  0  0  0
   57.5910   26.2420   44.0820 C   0  0  0  0  0  0  0  0  0  0  0  0
   57.7690   24.8780   44.1440 C   0  0  0  0  0  0  0  0  0  0  0  0
   59.5073   22.3996   46.2285 H   0  0  0  0  0  0  0  0  0  0  0  0
   59.2804   21.5265   44.6752 H   0  0  0  0  0  0  0  0  0  0  0  0
   59.5666   23.2998   44.6752 H   0  0  0  0  0  0  0  0  0  0  0  0
   56.2094   21.2876   44.5186 H   0  0  0  0  0  0  0  0  0  0  0  0
   56.4028   22.7752   43.5304 H   0  0  0  0  0  0  0  0  0  0  0  0
   57.6908   21.5231   43.5304 H   0  0  0  0  0  0  0  0  0  0  0  0
   57.5925   22.7103   47.4407 H   0  0  0  0  0  0  0  0  0  0  0  0
   55.9757   22.4897   46.6898 H   0  0  0  0  0  0  0  0  0  0  0  0
   57.1580   21.1374   46.6898 H   0  0  0  0  0  0  0  0  0  0  0  0
   56.5075   24.3261   47.2290 H   0  0  0  0  0  0  0  0  0  0  0  0
   56.1843   26.8004   47.1174 H   0  0  0  0  0  0  0  0  0  0  0  0
   58.8729   29.1534   45.5453 H   0  0  0  0  0  0  0  0  0  0  0  0
   57.8936   32.1034   43.0578 H   0  0  0  0  0  0  0  0  0  0  0  0
   58.9153   34.3928   43.2039 H   0  0  0  0  0  0  0  0  0  0  0  0
   59.3602   35.3825   45.4296 H   0  0  0  0  0  0  0  0  0  0  0  0
   58.3680   35.1420   48.0700 H   0  0  0  0  0  0  0  0  0  0  0  0
   61.2328   32.8036   46.6379 H   0  0  0  0  0  0  0  0  0  0  0  0
   63.6550   32.6139   46.2595 H   0  0  0  0  0  0  0  0  0  0  0  0
   65.2829   33.0163   48.0892 H   0  0  0  0  0  0  0  0  0  0  0  0
   64.4150   33.6255   50.3549 H   0  0  0  0  0  0  0  0  0  0  0  0
   61.9725   33.8176   50.7263 H   0  0  0  0  0  0  0  0  0  0  0  0
   57.8134   31.8996   47.3411 H   0  0  0  0  0  0  0  0  0  0  0  0
   54.7860   28.5760   44.5190 H   0  0  0  0  0  0  0  0  0  0  0  0
   57.9020   26.7884   43.1794 H   0  0  0  0  0  0  0  0  0  0  0  0
   58.2206   24.3440   43.2949 H   0  0  0  0  0  0  0  0  0  0  0  0
  1  2  1  0
  2  3  1  0
  2  4  1  0
  2  5  1  0
  5  6  2  0
  6  7  1  0
  7  8  2  0
  8  9  1  0
  9 10  2  0
 10 11  1  0
 11 12  1  0
 12 13  2  0
 13 14  1  0
 14 15  2  0
 15 16  1  0
 16 17  1  0
 17 18  1  0
 18 19  2  0
 18 20  2  0
 18 21  1  0
 21 22  2  0
 22 23  1  0
 23 24  2  0
 24 25  1  0
 25 26  2  0
 16 27  2  0
 11 28  2  0
 28 29  1  0
  8 30  1  0
 30 31  2  0
 31  5  1  0
 29  9  1  0
 27 12  1  0
 26 21  1  0
  1 32  1  0
  1 33  1  0
  1 34  1  0
  3 35  1  0
  3 36  1  0
  3 37  1  0
  4 38  1  0
  4 39  1  0
  4 40  1  0
  6 41  1  0
  7 42  1  0
 10 43  1  0
 13 44  1  0
 14 45  1  0
 15 46  1  0
 17 47  1  0
 22 48  1  0
 23 49  1  0
 24 50  1  0
 25 51  1  0
 26 52  1  0
 27 53  1  0
 29 54  1  0
 30 55  1  0
 31 56  1  0
M  END
>  <smiles>  (53) 
CC(C)(C)c1ccc(-c2cc(-c3cccc(NS(=O)(=O)c4ccccc4)c3)n[nH]2)cc1

>  <score_type>  (53) 
oracle

>  <origin>  (53) 
adg

>  <m_score__min__energy>  (53) 
-10.609999999999999

>  <m_primary>  (53) 
energy

$$$$
53:0
     RDKit          3D

 25 26  0  0  0  0  0  0  0  0999 V2000
   55.1050   22.2180   43.2920 H   0  0  0  0  0  0  0  0  0  0  0  0
   55.5450   22.2810   44.2020 O   0  0  0  0  0  0  0  0  0  0  0  0
   56.0400   23.4890   44.6900 C   0  0  0  0  0  0  0  0  0  0  0  0
   57.4160   23.7260   44.6770 C   0  0  0  0  0  0  0  0  0  0  0  0
   58.1006   22.9604   44.2831 H   0  0  0  0  0  0  0  0  0  0  0  0
   57.9260   24.9330   45.1630 C   0  0  0  0  0  0  0  0  0  0  0  0
   59.0115   25.1103   45.1478 H   0  0  0  0  0  0  0  0  0  0  0  0
   57.0670   25.9230   45.6710 C   0  0  0  0  0  0  0  0  0  0  0  0
   57.6640   27.1830   46.1710 C   0  0  0  0  0  0  0  0  0  0  0  0
   57.7330   27.3503   47.2560 H   0  0  0  0  0  0  0  0  0  0  0  0
   58.1070   28.0930   45.3620 N   0  0  0  0  0  0  0  0  0  0  0  0
   57.6050   29.4080   45.3210 N   0  0  0  0  0  0  0  0  0  0  0  0
   58.2290   30.5860   45.5440 C   0  0  0  0  0  0  0  0  0  0  0  0
   59.6510   30.7630   45.9740 C   0  0  0  0  0  0  0  0  0  0  0  0
   59.7037   30.7696   47.0727 H   0  0  0  0  0  0  0  0  0  0  0  0
   60.2583   29.9335   45.5827 H   0  0  0  0  0  0  0  0  0  0  0  0
   60.0365   31.7161   45.5827 H   0  0  0  0  0  0  0  0  0  0  0  0
   57.4110   31.6230   45.2640 N   0  0  0  0  0  0  0  0  0  0  0  0
   56.2620   31.1150   44.8330 N   0  0  0  0  0  0  0  0  0  0  0  0
   56.4030   29.7780   44.8580 C   0  0  0  0  0  0  0  0  0  0  0  0
   55.5110   28.9720   44.4860 O   0  0  0  0  0  0  0  0  0  0  0  0
   55.6730   25.6780   45.6800 C   0  0  0  0  0  0  0  0  0  0  0  0
   54.7760   26.6230   46.1670 O   0  0  0  0  0  0  0  0  0  0  0  0
   55.1710   24.4660   45.1920 C   0  0  0  0  0  0  0  0  0  0  0  0
   54.0870   24.2796   45.2028 H   0  0  0  0  0  0  0  0  0  0  0  0
  1  2  1  0
  2  3  1  0
  3  4  2  0
  4  5  1  0
  4  6  1  0
  6  7  1  0
  6  8  2  0
  8  9  1  0
  9 10  1  0
  9 11  2  0
 11 12  1  0
 12 13  1  0
 13 14  1  0
 14 15  1  0
 14 16  1  0
 14 17  1  0
 13 18  2  0
 18 19  1  0
 19 20  1  0
 20 21  2  0
  8 22  1  0
 22 23  1  0
 22 24  2  0
 24 25  1  0
 24  3  1  0
 20 12  1  0
M  CHG  2  19  -1  23  -1
M  END
>  <UniqueID>  (54) 
49

>  <SMILES>  (54) 
Cc1n[n-]c(=O)n1/N=C/c1ccc(O)cc1[O-]

>  <Energy>  (54) 
67.823008230521

>  <Genealogy>  (54) 
Cc1n[n-]c(=O)n1N=Cc1ccc(O)cc1[O-] (protonated)
Cc1n[n-]c(=O)n1/N=C/c1ccc(O)cc1[O-] (cis-trans isomerization)
Cc1n[n-]c(=O)n1/N=C/c1ccc(O)cc1[O-] (3D coordinates assigned)
Cc1n[n-]c(=O)n1/N=C/c1ccc(O)cc1[O-] (optimized conformer: 67.823008230521 kcal/mol)

>  <smiles>  (54) 
Cc1n[nH]c(=O)n1N=Cc1ccc(O)cc1O

>  <score_type>  (54) 
oracle

>  <origin>  (54) 
adg

>  <m_score__min__energy>  (54) 
-11.91

>  <m_primary>  (54) 
energy

$$$$
54:0
     RDKit          3D

 44 45  0  0  1  0  0  0  0  0999 V2000
   61.4310   33.8200   46.4490 C   0  0  0  0  0  0  0  0  0  0  0  0
   60.3020   34.3170   47.1500 N   0  0  0  0  0  0  0  0  0  0  0  0
   60.3080   34.2020   48.5680 C   0  0  0  0  0  0  0  0  0  0  0  0
   59.6020   35.4120   46.5880 C   0  0  0  0  0  0  0  0  0  0  0  0
   59.2470   35.2790   45.1290 C   0  0  0  0  0  0  0  0  0  0  0  0
   58.1550   34.4030   44.8800 N   0  0  0  0  0  0  0  0  0  0  0  0
   58.0810   33.1440   45.1150 C   0  0  0  0  0  0  0  0  0  0  0  0
   57.7910   32.3610   44.0330 N   0  0  0  0  0  0  0  0  0  0  0  0
   57.6770   31.0360   44.1090 C   0  0  0  0  0  0  0  0  0  0  0  0
   57.8700   30.4590   45.3640 C   0  0  0  0  0  0  0  0  0  0  0  0
   57.7410   29.0300   45.4480 C   0  0  0  0  0  0  0  0  0  0  0  0
   57.6400   27.8330   45.5360 C   0  0  0  0  0  0  0  0  0  0  0  0
   57.5300   26.4040   45.6190 C   0  0  0  0  0  0  0  0  0  0  0  0
   58.6020   25.5540   45.4840 C   0  0  0  0  0  0  0  0  0  0  0  0
   58.3860   24.1990   45.5860 C   0  0  0  0  0  0  0  0  0  0  0  0
   57.1600   23.6330   45.8160 C   0  0  0  0  0  0  0  0  0  0  0  0
   57.0480   22.1840   45.9090 C   0  0  0  0  0  0  0  0  0  0  0  0
   57.0020   21.5490   47.1930 C   0  0  0  0  0  0  0  0  0  0  0  0
   56.9830   21.0360   48.2350 N   0  0  0  0  0  0  0  0  0  0  0  0
   56.9850   21.3860   44.8520 C   0  0  0  0  0  0  0  0  0  0  0  0
   56.4120   21.8120   43.6010 C   0  0  0  0  0  0  0  0  0  0  0  0
   55.9430   22.1610   42.5940 N   0  0  0  0  0  0  0  0  0  0  0  0
   56.0840   24.4810   45.9520 C   0  0  0  0  0  0  0  0  0  0  0  0
   56.2710   25.8460   45.8540 C   0  0  0  0  0  0  0  0  0  0  0  0
   55.2140   26.7100   45.9850 F   0  0  0  0  0  0  0  0  0  0  0  0
   58.1670   31.2410   46.4800 C   0  0  0  0  0  0  0  0  0  0  0  0
   58.2660   32.5800   46.3180 N   0  0  0  0  0  0  0  0  0  0  0  0
   62.1917   33.4851   47.1695 H   0  0  0  0  0  0  0  0  0  0  0  0
   61.1264   32.9728   45.8170 H   0  0  0  0  0  0  0  0  0  0  0  0
   61.8502   34.6168   45.8170 H   0  0  0  0  0  0  0  0  0  0  0  0
   60.2557   35.2046   49.0174 H   0  0  0  0  0  0  0  0  0  0  0  0
   59.4396   33.6094   48.8915 H   0  0  0  0  0  0  0  0  0  0  0  0
   61.2334   33.7030   48.8915 H   0  0  0  0  0  0  0  0  0  0  0  0
   58.6673   35.5420   47.1532 H   0  0  0  0  0  0  0  0  0  0  0  0
   60.2852   36.2716   46.6541 H   0  0  0  0  0  0  0  0  0  0  0  0
   58.9865   36.2758   44.7435 H   0  0  0  0  0  0  0  0  0  0  0  0
   60.1242   34.8476   44.6246 H   0  0  0  0  0  0  0  0  0  0  0  0
   57.4419   30.4261   43.2243 H   0  0  0  0  0  0  0  0  0  0  0  0
   59.6117   25.9490   45.2983 H   0  0  0  0  0  0  0  0  0  0  0  0
   59.2513   23.5288   45.4760 H   0  0  0  0  0  0  0  0  0  0  0  0
   57.3838   20.3641   44.9332 H   0  0  0  0  0  0  0  0  0  0  0  0
   55.0795   24.0731   46.1379 H   0  0  0  0  0  0  0  0  0  0  0  0
   58.3170   30.7801   47.4675 H   0  0  0  0  0  0  0  0  0  0  0  0
   58.4880   33.1720   47.1420 H   0  0  0  0  0  0  0  0  0  0  0  0
  1  2  1  0
  2  3  1  0
  2  4  1  0
  4  5  1  0
  5  6  1  0
  6  7  2  3
  7  8  1  0
  8  9  2  0
  9 10  1  0
 10 11  1  0
 11 12  3  0
 12 13  1  0
 13 14  2  0
 14 15  1  0
 15 16  2  0
 16 17  1  0
 17 18  1  0
 18 19  3  0
 17 20  2  0
 20 21  1  0
 21 22  3  0
 16 23  1  0
 23 24  2  0
 24 25  1  0
 10 26  2  0
 26 27  1  0
 27  7  1  0
 24 13  1  0
  1 28  1  0
  1 29  1  0
  1 30  1  0
  3 31  1  0
  3 32  1  0
  3 33  1  0
  4 34  1  0
  4 35  1  0
  5 36  1  0
  5 37  1  0
  9 38  1  0
 14 39  1  0
 15 40  1  0
 20 41  1  0
 23 42  1  0
 26 43  1  0
 27 44  1  0
M  END
>  <smiles>  (55) 
CN(C)CCN=c1ncc(C#Cc2ccc(C(C#N)=CC#N)cc2F)c[nH]1

>  <score_type>  (55) 
oracle

>  <origin>  (55) 
adg

>  <m_score__min__energy>  (55) 
-6.3600000000000003

>  <m_primary>  (55) 
energy

$$$$
55:0
     RDKit          3D

 37 39  0  0  0  0  0  0  0  0999 V2000
   56.8880   30.5300   54.2780 C   0  0  0  0  0  0  0  0  0  0  0  0
   57.3140   30.6950   52.8580 C   0  0  0  0  0  0  0  0  0  0  0  0
   57.7640   31.8570   52.2730 C   0  0  0  0  0  0  0  0  0  0  0  0
   58.0440   31.4740   50.9730 C   0  0  0  0  0  0  0  0  0  0  0  0
   58.5600   32.3240   49.8850 C   0  0  0  0  0  0  0  0  0  0  0  0
   59.1160   33.4160   50.1790 O   0  0  0  0  0  0  0  0  0  0  0  0
   58.4380   31.9310   48.5090 N   0  0  0  0  0  0  0  0  0  0  0  0
   58.9080   32.7880   47.4140 C   0  0  1  0  0  0  0  0  0  0  0  0
   60.4200   32.7590   47.3180 C   0  0  0  0  0  0  0  0  0  0  0  0
   61.1370   33.8840   46.8660 C   0  0  0  0  0  0  0  0  0  0  0  0
   62.5320   33.8480   46.7820 C   0  0  0  0  0  0  0  0  0  0  0  0
   63.2260   32.6910   47.1480 C   0  0  0  0  0  0  0  0  0  0  0  0
   62.5250   31.5700   47.5970 C   0  0  0  0  0  0  0  0  0  0  0  0
   61.1300   31.6000   47.6830 C   0  0  0  0  0  0  0  0  0  0  0  0
   58.2970   32.3600   46.1080 C   0  0  0  0  0  0  0  0  0  0  0  0
   58.5750   32.9070   44.8720 C   0  0  0  0  0  0  0  0  0  0  0  0
   57.8280   32.1360   44.0080 C   0  0  0  0  0  0  0  0  0  0  0  0
   57.7600   32.2890   42.5270 C   0  0  0  0  0  0  0  0  0  0  0  0
   57.1890   31.2190   44.6950 O   0  0  0  0  0  0  0  0  0  0  0  0
   57.4510   31.3190   45.9660 N   0  0  0  0  0  0  0  0  0  0  0  0
   57.7730   30.1610   50.8240 N   0  0  0  0  0  0  0  0  0  0  0  0
   57.3410   29.7280   51.9720 O   0  0  0  0  0  0  0  0  0  0  0  0
   57.7039   30.8460   54.9447 H   0  0  0  0  0  0  0  0  0  0  0  0
   55.9986   31.1487   54.4682 H   0  0  0  0  0  0  0  0  0  0  0  0
   56.6474   29.4736   54.4682 H   0  0  0  0  0  0  0  0  0  0  0  0
   57.8745   32.8517   52.7295 H   0  0  0  0  0  0  0  0  0  0  0  0
   57.9660   31.0280   48.2790 H   0  0  0  0  0  0  0  0  0  0  0  0
   58.5926   33.8195   47.6298 H   0  0  0  0  0  0  0  0  0  0  0  0
   60.5957   34.7970   46.5772 H   0  0  0  0  0  0  0  0  0  0  0  0
   63.0841   34.7309   46.4276 H   0  0  0  0  0  0  0  0  0  0  0  0
   64.3237   32.6637   47.0823 H   0  0  0  0  0  0  0  0  0  0  0  0
   63.0724   30.6601   47.8841 H   0  0  0  0  0  0  0  0  0  0  0  0
   60.5845   30.7131   48.0378 H   0  0  0  0  0  0  0  0  0  0  0  0
   59.2343   33.7546   44.6337 H   0  0  0  0  0  0  0  0  0  0  0  0
   57.3247   33.2683   42.2792 H   0  0  0  0  0  0  0  0  0  0  0  0
   58.7733   32.2206   42.1044 H   0  0  0  0  0  0  0  0  0  0  0  0
   57.1318   31.4910   42.1044 H   0  0  0  0  0  0  0  0  0  0  0  0
  1  2  1  0
  2  3  2  0
  3  4  1  0
  4  5  1  0
  5  6  2  0
  5  7  1  0
  7  8  1  0
  8  9  1  0
  9 10  2  0
 10 11  1  0
 11 12  2  0
 12 13  1  0
 13 14  2  0
  8 15  1  0
 15 16  1  0
 16 17  2  0
 17 18  1  0
 17 19  1  0
 19 20  1  0
  4 21  2  0
 21 22  1  0
 22  2  1  0
 14  9  1  0
 20 15  2  0
  1 23  1  0
  1 24  1  0
  1 25  1  0
  3 26  1  0
  7 27  1  0
  8 28  1  1
 10 29  1  0
 11 30  1  0
 12 31  1  0
 13 32  1  0
 14 33  1  0
 16 34  1  0
 18 35  1  0
 18 36  1  0
 18 37  1  0
M  END
>  <UniqueID>  (56) 
50

>  <SMILES>  (56) 
Cc1cc(C(=O)N[C@@H](c2ccccc2)c2cc(C)on2)no1

>  <Energy>  (56) 
95.27095244103656

>  <Genealogy>  (56) 
Cc1cc(C(=O)N[C@@H](c2ccccc2)c2cc(C)on2)no1 (chirality)
Cc1cc(C(=O)N[C@@H](c2ccccc2)c2cc(C)on2)no1 (3D coordinates assigned)
Cc1cc(C(=O)N[C@@H](c2ccccc2)c2cc(C)on2)no1 (optimized conformer: 95.27095244103656 kcal/mol)

>  <smiles>  (56) 
Cc1cc(C(=O)NC(c2ccccc2)c2cc(C)on2)no1

>  <score_type>  (56) 
oracle

>  <origin>  (56) 
adg

>  <m_score__min__energy>  (56) 
-8.1099999999999994

>  <m_primary>  (56) 
energy

$$$$
56:0
     RDKit          3D

 42 44  0  0  0  0  0  0  0  0999 V2000
   56.0200   27.2940   46.0810 H   0  0  0  0  0  0  0  0  0  0  0  0
   56.1210   27.9220   45.2520 N   0  0  0  0  0  0  0  0  0  0  0  0
   56.6320   29.1130   45.3030 C   0  0  0  0  0  0  0  0  0  0  0  0
   56.0510   30.1030   44.5530 N   0  0  0  0  0  0  0  0  0  0  0  0
   56.5320   31.3780   44.5140 C   0  0  0  0  0  0  0  0  0  0  0  0
   56.0434   32.1492   43.9004 H   0  0  0  0  0  0  0  0  0  0  0  0
   57.6570   31.6740   45.2720 C   0  0  0  0  0  0  0  0  0  0  0  0
   58.3880   32.8270   45.4290 C   0  0  0  0  0  0  0  0  0  0  0  0
   58.2460   34.0960   44.8730 C   0  0  0  0  0  0  0  0  0  0  0  0
   57.4176   34.3283   44.1876 H   0  0  0  0  0  0  0  0  0  0  0  0
   59.1990   35.0690   45.2190 C   0  0  0  0  0  0  0  0  0  0  0  0
   59.1157   36.0845   44.8044 H   0  0  0  0  0  0  0  0  0  0  0  0
   60.2630   34.7560   46.0940 C   0  0  0  0  0  0  0  0  0  0  0  0
   61.0028   35.5292   46.3486 H   0  0  0  0  0  0  0  0  0  0  0  0
   60.3880   33.4610   46.6460 C   0  0  0  0  0  0  0  0  0  0  0  0
   61.5140   33.1150   47.5750 C   0  0  0  0  0  0  0  0  0  0  0  0
   61.1753   33.2191   48.6164 H   0  0  0  0  0  0  0  0  0  0  0  0
   61.8323   32.0776   47.3949 H   0  0  0  0  0  0  0  0  0  0  0  0
   62.3600   33.7946   47.3949 H   0  0  0  0  0  0  0  0  0  0  0  0
   59.4180   32.5130   46.2950 C   0  0  0  0  0  0  0  0  0  0  0  0
   59.3500   31.2200   46.6860 N   0  0  0  0  0  0  0  0  0  0  0  0
   59.9980   30.7200   47.3340 H   0  0  0  0  0  0  0  0  0  0  0  0
   58.2730   30.7140   46.0420 C   0  0  0  0  0  0  0  0  0  0  0  0
   57.7910   29.4000   46.0840 C   0  0  0  0  0  0  0  0  0  0  0  0
   58.4710   28.3800   46.9110 C   0  0  0  0  0  0  0  0  0  0  0  0
   59.6550   28.5850   47.2940 O   0  0  0  0  0  0  0  0  0  0  0  0
   57.8220   27.1540   47.2770 N   0  0  0  0  0  0  0  0  0  0  0  0
   58.2640   25.8230   46.8670 C   0  0  0  0  0  0  0  0  0  0  0  0
   59.2277   25.9100   46.3438 H   0  0  0  0  0  0  0  0  0  0  0  0
   58.3665   25.1972   47.7658 H   0  0  0  0  0  0  0  0  0  0  0  0
   57.2400   25.1630   45.9270 C   0  0  0  0  0  0  0  0  0  0  0  0
   57.1991   25.7355   44.9886 H   0  0  0  0  0  0  0  0  0  0  0  0
   57.5626   24.1267   45.7479 H   0  0  0  0  0  0  0  0  0  0  0  0
   55.8860   25.1230   46.5210 N   0  0  0  0  0  0  0  0  0  0  0  0
   54.8570   24.8480   45.5020 C   0  0  0  0  0  0  0  0  0  0  0  0
   53.9084   24.5945   45.9979 H   0  0  0  0  0  0  0  0  0  0  0  0
   54.7155   25.7398   44.8738 H   0  0  0  0  0  0  0  0  0  0  0  0
   55.1792   24.0045   44.8738 H   0  0  0  0  0  0  0  0  0  0  0  0
   55.8310   24.0780   47.5590 C   0  0  0  0  0  0  0  0  0  0  0  0
   55.8557   24.5474   48.5535 H   0  0  0  0  0  0  0  0  0  0  0  0
   54.9012   23.5006   47.4491 H   0  0  0  0  0  0  0  0  0  0  0  0
   56.6950   23.4062   47.4491 H   0  0  0  0  0  0  0  0  0  0  0  0
  1  2  1  0
  2  3  2  0
  3  4  1  0
  4  5  1  0
  5  6  1  0
  5  7  2  0
  7  8  1  0
  8  9  2  0
  9 10  1  0
  9 11  1  0
 11 12  1  0
 11 13  2  0
 13 14  1  0
 13 15  1  0
 15 16  1  0
 16 17  1  0
 16 18  1  0
 16 19  1  0
 15 20  2  0
 20 21  1  0
 21 22  1  0
 21 23  1  0
 23 24  2  0
 24 25  1  0
 25 26  2  0
 25 27  1  0
 27 28  1  0
 28 29  1  0
 28 30  1  0
 28 31  1  0
 31 32  1  0
 31 33  1  0
 31 34  1  0
 34 35  1  0
 35 36  1  0
 35 37  1  0
 35 38  1  0
 34 39  1  0
 39 40  1  0
 39 41  1  0
 39 42  1  0
 24  3  1  0
 23  7  1  0
 20  8  1  0
M  CHG  2   4  -1  27  -1
M  END
>  <UniqueID>  (57) 
51

>  <SMILES>  (57) 
[H]/N=c1/[n-]cc2c([nH]c3c(C)cccc32)c1C(=O)[N-]CCN(C)C

>  <Energy>  (57) 
91.7376175081433

>  <Genealogy>  (57) 
Cc1cccc2c1[nH]c1c(C(=O)[N-]CCN(C)C)c(=N)[n-]cc12 (protonated)
[H]/N=c1/[n-]cc2c([nH]c3c(C)cccc32)c1C(=O)[N-]CCN(C)C (cis-trans isomerization)
[H]/N=c1/[n-]cc2c([nH]c3c(C)cccc32)c1C(=O)[N-]CCN(C)C (3D coordinates assigned)
[H]/N=c1/[n-]cc2c([nH]c3c(C)cccc32)c1C(=O)[N-]CCN(C)C (optimized conformer: 91.7376175081433 kcal/mol)

>  <smiles>  (57) 
Cc1cccc2c1[nH]c1c(C(=O)NCCN(C)C)c(=N)[nH]cc12

>  <score_type>  (57) 
oracle

>  <origin>  (57) 
adg

>  <m_score__min__energy>  (57) 
-10.24

>  <m_primary>  (57) 
energy

$$$$
57:0
     RDKit          3D

 50 52  0  0  0  0  0  0  0  0999 V2000
   57.9110   26.7730   45.1920 C   0  0  0  0  0  0  0  0  0  0  0  0
   58.4370   28.1160   44.9520 N   0  0  0  0  0  0  0  0  0  0  0  0
   57.8000   29.0070   44.0160 C   0  0  0  0  0  0  0  0  0  0  0  0
   57.3600   30.2880   44.5730 C   0  0  0  0  0  0  0  0  0  0  0  0
   56.1100   30.4600   44.7400 O   0  0  0  0  0  0  0  0  0  0  0  0
   58.2260   31.3530   44.9430 N   0  0  0  0  0  0  0  0  0  0  0  0
   57.6120   32.5480   45.4790 C   0  0  0  0  0  0  0  0  0  0  0  0
   58.3150   33.1140   46.6250 C   0  0  0  0  0  0  0  0  0  0  0  0
   58.2460   32.5490   47.8910 C   0  0  0  0  0  0  0  0  0  0  0  0
   58.9110   33.0880   48.9670 C   0  0  0  0  0  0  0  0  0  0  0  0
   58.8390   32.3950   50.5720 Cl  0  0  0  0  0  0  0  0  0  0  0  0
   59.6760   34.2340   48.7780 C   0  0  0  0  0  0  0  0  0  0  0  0
   59.7640   34.8190   47.5280 C   0  0  0  0  0  0  0  0  0  0  0  0
   59.0810   34.2560   46.4480 C   0  0  0  0  0  0  0  0  0  0  0  0
   59.1910   34.9870   44.8830 Cl  0  0  0  0  0  0  0  0  0  0  0  0
   59.6130   28.5680   45.6570 C   0  0  0  0  0  0  0  0  0  0  0  0
   60.3800   29.4360   45.1210 O   0  0  0  0  0  0  0  0  0  0  0  0
   59.9090   28.0020   47.0120 C   0  0  0  0  0  0  0  0  0  0  0  0
   59.4420   29.0110   48.0390 C   0  0  0  0  0  0  0  0  0  0  0  0
   60.5180   29.9360   48.4220 C   0  0  0  0  0  0  0  0  0  0  0  0
   61.1590   29.9050   49.6090 N   0  0  0  0  0  0  0  0  0  0  0  0
   62.1410   30.8060   49.8640 C   0  0  0  0  0  0  0  0  0  0  0  0
   62.7640   30.8080   50.9670 O   0  0  0  0  0  0  0  0  0  0  0  0
   62.5010   31.7510   48.9470 C   0  0  0  0  0  0  0  0  0  0  0  0
   63.4860   32.6940   49.1410 C   0  0  0  0  0  0  0  0  0  0  0  0
   63.8190   33.6340   48.1870 C   0  0  0  0  0  0  0  0  0  0  0  0
   63.1420   33.6400   46.9780 C   0  0  0  0  0  0  0  0  0  0  0  0
   62.1480   32.7070   46.7510 C   0  0  0  0  0  0  0  0  0  0  0  0
   61.8400   31.7770   47.7350 C   0  0  0  0  0  0  0  0  0  0  0  0
   60.8780   30.8770   47.5110 N   0  0  0  0  0  0  0  0  0  0  0  0
   57.8412   26.5947   46.2752 H   0  0  0  0  0  0  0  0  0  0  0  0
   56.9118   26.6845   44.7407 H   0  0  0  0  0  0  0  0  0  0  0  0
   58.5843   26.0294   44.7407 H   0  0  0  0  0  0  0  0  0  0  0  0
   58.5139   29.2158   43.2056 H   0  0  0  0  0  0  0  0  0  0  0  0
   56.8884   28.4926   43.6779 H   0  0  0  0  0  0  0  0  0  0  0  0
   59.2500   31.2250   44.8110 H   0  0  0  0  0  0  0  0  0  0  0  0
   57.5802   33.3070   44.6835 H   0  0  0  0  0  0  0  0  0  0  0  0
   56.6102   32.2604   45.8308 H   0  0  0  0  0  0  0  0  0  0  0  0
   57.6408   31.6423   48.0379 H   0  0  0  0  0  0  0  0  0  0  0  0
   60.2145   34.6779   49.6282 H   0  0  0  0  0  0  0  0  0  0  0  0
   60.3705   35.7255   47.3849 H   0  0  0  0  0  0  0  0  0  0  0  0
   59.3715   27.0519   47.1477 H   0  0  0  0  0  0  0  0  0  0  0  0
   60.9857   27.8064   47.1232 H   0  0  0  0  0  0  0  0  0  0  0  0
   58.6080   29.5902   47.6159 H   0  0  0  0  0  0  0  0  0  0  0  0
   59.1254   28.4627   48.9385 H   0  0  0  0  0  0  0  0  0  0  0  0
   64.0303   32.6980   50.0969 H   0  0  0  0  0  0  0  0  0  0  0  0
   64.6125   34.3698   48.3841 H   0  0  0  0  0  0  0  0  0  0  0  0
   63.3936   34.3813   46.2052 H   0  0  0  0  0  0  0  0  0  0  0  0
   61.6034   32.7012   45.7953 H   0  0  0  0  0  0  0  0  0  0  0  0
   60.3850   30.9180   46.5690 H   0  0  0  0  0  0  0  0  0  0  0  0
  1  2  1  0
  2  3  1  0
  3  4  1  0
  4  5  2  0
  4  6  1  0
  6  7  1  0
  7  8  1  0
  8  9  2  0
  9 10  1  0
 10 11  1  0
 10 12  2  0
 12 13  1  0
 13 14  2  0
 14 15  1  0
  2 16  1  0
 16 17  2  0
 16 18  1  0
 18 19  1  0
 19 20  1  0
 20 21  2  0
 21 22  1  0
 22 23  2  0
 22 24  1  0
 24 25  2  0
 25 26  1  0
 26 27  2  0
 27 28  1  0
 28 29  2  0
 29 30  1  0
 14  8  1  0
 30 20  1  0
 29 24  1  0
  1 31  1  0
  1 32  1  0
  1 33  1  0
  3 34  1  0
  3 35  1  0
  6 36  1  0
  7 37  1  0
  7 38  1  0
  9 39  1  0
 12 40  1  0
 13 41  1  0
 18 42  1  0
 18 43  1  0
 19 44  1  0
 19 45  1  0
 25 46  1  0
 26 47  1  0
 27 48  1  0
 28 49  1  0
 30 50  1  0
M  END
>  <smiles>  (58) 
CN(CC(=O)NCc1cc(Cl)ccc1Cl)C(=O)CCc1nc(=O)c2ccccc2[nH]1

>  <score_type>  (58) 
oracle

>  <origin>  (58) 
adg

>  <m_score__min__energy>  (58) 
-9.3499999999999996

>  <m_primary>  (58) 
energy

$$$$
58:0
     RDKit          3D

 38 40  0  0  0  0  0  0  0  0999 V2000
   61.4490   34.0690   48.3780 C   0  0  0  0  0  0  0  0  0  0  0  0
   60.2640   33.7630   47.5200 C   0  0  0  0  0  0  0  0  0  0  0  0
   59.3090   34.7520   47.4210 C   0  0  0  0  0  0  0  0  0  0  0  0
   58.2100   34.5170   46.6480 N   0  0  0  0  0  0  0  0  0  0  0  0
   58.0640   33.3460   45.9980 C   0  0  0  0  0  0  0  0  0  0  0  0
   57.0740   32.9020   45.1890 N   0  0  0  0  0  0  0  0  0  0  0  0
   57.3780   31.6580   44.7730 C   0  0  0  0  0  0  0  0  0  0  0  0
   58.5980   31.2740   45.3220 C   0  0  0  0  0  0  0  0  0  0  0  0
   59.3200   29.9990   45.1410 C   0  0  0  0  0  0  0  0  0  0  0  0
   58.5210   28.8630   45.6710 C   0  0  0  0  0  0  0  0  0  0  0  0
   58.8710   28.2170   46.8180 C   0  0  0  0  0  0  0  0  0  0  0  0
   58.1210   27.2010   47.2550 N   0  0  0  0  0  0  0  0  0  0  0  0
   57.0180   26.7430   46.6490 C   0  0  0  0  0  0  0  0  0  0  0  0
   56.2820   25.7930   47.0200 N   0  0  0  0  0  0  0  0  0  0  0  0
   55.9210   24.5840   46.3730 C   0  0  0  0  0  0  0  0  0  0  0  0
   54.6060   24.6600   45.6360 C   0  0  0  0  0  0  0  0  0  0  0  0
   54.0890   25.9630   45.6300 O   0  0  0  0  0  0  0  0  0  0  0  0
   56.6660   27.3920   45.4990 N   0  0  0  0  0  0  0  0  0  0  0  0
   57.3800   28.4150   45.0140 C   0  0  0  0  0  0  0  0  0  0  0  0
   59.0310   32.3400   46.0940 C   0  0  0  0  0  0  0  0  0  0  0  0
   60.1590   32.5470   46.8710 C   0  0  0  0  0  0  0  0  0  0  0  0
   61.1633   33.9952   49.4377 H   0  0  0  0  0  0  0  0  0  0  0  0
   62.2525   33.3489   48.1639 H   0  0  0  0  0  0  0  0  0  0  0  0
   61.8034   35.0881   48.1639 H   0  0  0  0  0  0  0  0  0  0  0  0
   59.4302   35.7075   47.9524 H   0  0  0  0  0  0  0  0  0  0  0  0
   56.2120   33.4340   44.9280 H   0  0  0  0  0  0  0  0  0  0  0  0
   56.7592   31.0418   44.1041 H   0  0  0  0  0  0  0  0  0  0  0  0
   59.5077   29.8393   44.0690 H   0  0  0  0  0  0  0  0  0  0  0  0
   60.2710   30.0498   45.6915 H   0  0  0  0  0  0  0  0  0  0  0  0
   59.7637   28.5291   47.3799 H   0  0  0  0  0  0  0  0  0  0  0  0
   56.7098   24.3277   45.6505 H   0  0  0  0  0  0  0  0  0  0  0  0
   55.8066   23.8212   47.1573 H   0  0  0  0  0  0  0  0  0  0  0  0
   54.7603   24.3330   44.5971 H   0  0  0  0  0  0  0  0  0  0  0  0
   53.8858   24.0080   46.1519 H   0  0  0  0  0  0  0  0  0  0  0  0
   54.2860   26.3330   46.5310 H   0  0  0  0  0  0  0  0  0  0  0  0
   55.8140   27.0850   44.9720 H   0  0  0  0  0  0  0  0  0  0  0  0
   57.0603   28.9077   44.0839 H   0  0  0  0  0  0  0  0  0  0  0  0
   60.9381   31.7765   46.9675 H   0  0  0  0  0  0  0  0  0  0  0  0
  1  2  1  0
  2  3  2  0
  3  4  1  0
  4  5  2  0
  5  6  1  0
  6  7  1  0
  7  8  2  0
  8  9  1  0
  9 10  1  0
 10 11  1  0
 11 12  2  0
 12 13  1  0
 13 14  2  3
 14 15  1  0
 15 16  1  0
 16 17  1  0
 13 18  1  0
 18 19  1  0
  8 20  1  0
 20 21  2  0
 21  2  1  0
 20  5  1  0
 19 10  2  0
  1 22  1  0
  1 23  1  0
  1 24  1  0
  3 25  1  0
  6 26  1  0
  7 27  1  0
  9 28  1  0
  9 29  1  0
 11 30  1  0
 15 31  1  0
 15 32  1  0
 16 33  1  0
 16 34  1  0
 17 35  1  0
 18 36  1  0
 19 37  1  0
 21 38  1  0
M  END
>  <smiles>  (59) 
Cc1cnc2[nH]cc(Cc3cnc(=NCCO)[nH]c3)c2c1

>  <score_type>  (59) 
oracle

>  <origin>  (59) 
adg

>  <m_score__min__energy>  (59) 
-7.9299999999999997

>  <m_primary>  (59) 
energy

$$$$
59:0
     RDKit          3D

 32 34  0  0  0  0  0  0  0  0999 V2000
   58.2452   34.9714   44.7145 H   0  0  0  0  0  0  0  0  0  0  0  0
   58.3170   33.9360   45.0790 C   0  0  0  0  0  0  0  0  0  0  0  0
   59.3560   33.5770   45.9670 C   0  0  0  0  0  0  0  0  0  0  0  0
   60.3080   34.5560   46.3890 N   0  0  0  0  0  0  0  0  0  0  0  0
   59.9970   35.4980   46.7150 H   0  0  0  0  0  0  0  0  0  0  0  0
   61.3310   34.3460   46.3780 H   0  0  0  0  0  0  0  0  0  0  0  0
   59.4520   32.2530   46.4350 C   0  0  0  0  0  0  0  0  0  0  0  0
   60.2542   31.9557   47.1264 H   0  0  0  0  0  0  0  0  0  0  0  0
   58.5050   31.3290   46.0000 C   0  0  0  0  0  0  0  0  0  0  0  0
   58.3760   29.7010   46.3910 S   0  0  0  0  0  0  0  0  0  0  0  0
   56.9990   29.5130   45.4100 C   0  0  0  0  0  0  0  0  0  0  0  0
   56.3300   28.4110   45.2480 N   0  0  0  0  0  0  0  0  0  0  0  0
   56.6680   27.1170   45.8430 C   0  0  1  0  0  0  0  0  0  0  0  0
   57.1438   27.2573   46.8248 H   0  0  0  0  0  0  0  0  0  0  0  0
   55.4200   26.3420   46.0160 N   0  0  0  0  0  0  0  0  0  0  0  0
   54.9910   26.6200   46.9300 H   0  0  0  0  0  0  0  0  0  0  0  0
   55.5890   24.8740   46.0030 C   0  0  0  0  0  0  0  0  0  0  0  0
   55.4315   24.5106   44.9768 H   0  0  0  0  0  0  0  0  0  0  0  0
   54.8541   24.4484   46.7021 H   0  0  0  0  0  0  0  0  0  0  0  0
   56.9830   24.4350   46.4710 C   0  0  0  0  0  0  0  0  0  0  0  0
   57.0439   23.3372   46.4388 H   0  0  0  0  0  0  0  0  0  0  0  0
   57.1389   24.8002   47.4968 H   0  0  0  0  0  0  0  0  0  0  0  0
   58.0800   25.0260   45.5690 C   0  0  0  0  0  0  0  0  0  0  0  0
   58.2935   24.3118   44.7601 H   0  0  0  0  0  0  0  0  0  0  0  0
   58.9656   25.2058   46.1962 H   0  0  0  0  0  0  0  0  0  0  0  0
   57.6720   26.3700   44.9440 C   0  0  0  0  0  0  0  0  0  0  0  0
   57.2081   26.1845   43.9640 H   0  0  0  0  0  0  0  0  0  0  0  0
   58.5725   26.9920   44.8336 H   0  0  0  0  0  0  0  0  0  0  0  0
   56.6390   30.6650   44.7960 N   0  0  0  0  0  0  0  0  0  0  0  0
   57.4840   31.6750   45.1290 C   0  0  0  0  0  0  0  0  0  0  0  0
   57.3740   32.9820   44.6570 C   0  0  0  0  0  0  0  0  0  0  0  0
   56.5643   33.2620   43.9670 H   0  0  0  0  0  0  0  0  0  0  0  0
  1  2  1  0
  2  3  2  0
  3  4  1  0
  4  5  1  0
  4  6  1  0
  3  7  1  0
  7  8  1  0
  7  9  2  0
  9 10  1  0
 10 11  1  0
 11 12  2  0
 12 13  1  0
 13 14  1  1
 13 15  1  0
 15 16  1  0
 15 17  1  0
 17 18  1  0
 17 19  1  0
 17 20  1  0
 20 21  1  0
 20 22  1  0
 20 23  1  0
 23 24  1  0
 23 25  1  0
 23 26  1  0
 26 27  1  0
 26 28  1  0
 11 29  1  0
 29 30  1  0
 30 31  2  0
 31 32  1  0
 31  2  1  0
 30  9  1  0
 26 13  1  0
M  CHG  1  29  -1
M  END
>  <UniqueID>  (60) 
52

>  <SMILES>  (60) 
Nc1ccc2[n-]/c(=N/[C@@H]3CCCCN3)sc2c1

>  <Energy>  (60) 
72.3357950772475

>  <Genealogy>  (60) 
Nc1ccc2[n-]c(=NC3CCCCN3)sc2c1 (protonated)
Nc1ccc2[n-]c(=N[C@@H]3CCCCN3)sc2c1 (chirality)
Nc1ccc2[n-]/c(=N/[C@@H]3CCCCN3)sc2c1 (cis-trans isomerization)
Nc1ccc2[n-]/c(=N/[C@@H]3CCCCN3)sc2c1 (3D coordinates assigned)
Nc1ccc2[n-]/c(=N/[C@@H]3CCCCN3)sc2c1 (nonaromatic ring conformer: 72.3357950772475 kcal/mol)

>  <smiles>  (60) 
Nc1ccc2[nH]c(=NC3CCCCN3)sc2c1

>  <score_type>  (60) 
oracle

>  <origin>  (60) 
adg

>  <m_score__min__energy>  (60) 
-8.5399999999999991

>  <m_primary>  (60) 
energy

$$$$
60:0
     RDKit          3D

 60 63  0  0  0  0  0  0  0  0999 V2000
   64.5390   34.7600   53.5580 C   0  0  0  0  0  0  0  0  0  0  0  0
   64.2750   33.5940   52.7800 O   0  0  0  0  0  0  0  0  0  0  0  0
   63.6460   33.5970   51.5230 C   0  0  0  0  0  0  0  0  0  0  0  0
   64.3650   33.4300   50.3300 C   0  0  0  0  0  0  0  0  0  0  0  0
   63.7030   33.3950   49.0960 C   0  0  0  0  0  0  0  0  0  0  0  0
   64.4190   33.2150   47.9490 N   0  0  0  0  0  0  0  0  0  0  0  0
   63.8060   33.1910   46.7410 C   0  0  0  0  0  0  0  0  0  0  0  0
   62.4610   33.3260   46.6560 N   0  0  0  0  0  0  0  0  0  0  0  0
   61.6890   33.5010   47.7600 C   0  0  0  0  0  0  0  0  0  0  0  0
   60.2670   33.5600   47.5890 N   0  0  0  0  0  0  0  0  0  0  0  0
   59.6480   34.7730   47.0420 C   0  0  0  0  0  0  0  0  0  0  0  0
   58.8110   34.4500   45.7880 C   0  0  0  0  0  0  0  0  0  0  0  0
   58.2180   33.0910   45.8180 N   0  0  0  0  0  0  0  0  0  0  0  0
   57.0240   32.9320   44.9560 C   0  0  0  0  0  0  0  0  0  0  0  0
   57.0130   31.6490   44.0940 C   0  0  0  0  0  0  0  0  0  0  0  0
   56.7780   30.4790   44.8760 O   0  0  0  0  0  0  0  0  0  0  0  0
   57.7400   29.5190   45.2290 C   0  0  0  0  0  0  0  0  0  0  0  0
   59.0920   29.8620   45.0870 C   0  0  0  0  0  0  0  0  0  0  0  0
   60.0950   28.9430   45.4110 C   0  0  0  0  0  0  0  0  0  0  0  0
   59.7550   27.6700   45.8800 C   0  0  0  0  0  0  0  0  0  0  0  0
   60.7290   26.7790   46.1910 F   0  0  0  0  0  0  0  0  0  0  0  0
   58.4110   27.3200   46.0360 C   0  0  0  0  0  0  0  0  0  0  0  0
   57.4040   28.2380   45.7140 C   0  0  0  0  0  0  0  0  0  0  0  0
   58.0810   32.5130   47.1640 C   0  0  0  0  0  0  0  0  0  0  0  0
   59.4750   32.3340   47.7560 C   0  0  0  0  0  0  0  0  0  0  0  0
   62.2990   33.5640   49.0380 C   0  0  0  0  0  0  0  0  0  0  0  0
   61.5860   33.8220   50.2340 C   0  0  0  0  0  0  0  0  0  0  0  0
   60.2420   34.1960   50.1830 O   0  0  0  0  0  0  0  0  0  0  0  0
   59.2430   33.5130   50.9350 C   0  0  0  0  0  0  0  0  0  0  0  0
   62.2550   33.7560   51.4780 C   0  0  0  0  0  0  0  0  0  0  0  0
   61.5660   33.8350   52.6960 O   0  0  0  0  0  0  0  0  0  0  0  0
   61.4360   32.7360   53.5930 C   0  0  0  0  0  0  0  0  0  0  0  0
   64.4820   34.5080   54.6272 H   0  0  0  0  0  0  0  0  0  0  0  0
   65.5453   35.1373   53.3234 H   0  0  0  0  0  0  0  0  0  0  0  0
   63.7934   35.5339   53.3234 H   0  0  0  0  0  0  0  0  0  0  0  0
   65.4595   33.3255   50.3639 H   0  0  0  0  0  0  0  0  0  0  0  0
   65.4580   33.0980   47.9830 H   0  0  0  0  0  0  0  0  0  0  0  0
   64.4027   33.0614   45.8261 H   0  0  0  0  0  0  0  0  0  0  0  0
   58.9939   35.2187   47.8059 H   0  0  0  0  0  0  0  0  0  0  0  0
   60.4454   35.4759   46.7591 H   0  0  0  0  0  0  0  0  0  0  0  0
   57.9967   35.1856   45.7117 H   0  0  0  0  0  0  0  0  0  0  0  0
   59.4879   34.4932   44.9220 H   0  0  0  0  0  0  0  0  0  0  0  0
   56.1344   32.9173   45.6029 H   0  0  0  0  0  0  0  0  0  0  0  0
   57.0351   33.7776   44.2525 H   0  0  0  0  0  0  0  0  0  0  0  0
   56.2183   31.7361   43.3384 H   0  0  0  0  0  0  0  0  0  0  0  0
   58.0021   31.5487   43.6232 H   0  0  0  0  0  0  0  0  0  0  0  0
   59.3658   30.8614   44.7180 H   0  0  0  0  0  0  0  0  0  0  0  0
   61.1530   29.2217   45.2968 H   0  0  0  0  0  0  0  0  0  0  0  0
   58.1438   26.3215   46.4124 H   0  0  0  0  0  0  0  0  0  0  0  0
   56.3474   27.9592   45.8397 H   0  0  0  0  0  0  0  0  0  0  0  0
   57.4913   33.1893   47.8003 H   0  0  0  0  0  0  0  0  0  0  0  0
   57.5672   31.5420   47.1075 H   0  0  0  0  0  0  0  0  0  0  0  0
   59.3861   32.1039   48.8280 H   0  0  0  0  0  0  0  0  0  0  0  0
   59.9808   31.5099   47.2315 H   0  0  0  0  0  0  0  0  0  0  0  0
   59.4378   33.6462   52.0094 H   0  0  0  0  0  0  0  0  0  0  0  0
   58.2531   33.9242   50.6881 H   0  0  0  0  0  0  0  0  0  0  0  0
   59.2669   32.4413   50.6881 H   0  0  0  0  0  0  0  0  0  0  0  0
   61.4793   33.1016   54.6295 H   0  0  0  0  0  0  0  0  0  0  0  0
   60.4723   32.2344   53.4210 H   0  0  0  0  0  0  0  0  0  0  0  0
   62.2561   32.0234   53.4210 H   0  0  0  0  0  0  0  0  0  0  0  0
  1  2  1  0
  2  3  1  0
  3  4  2  0
  4  5  1  0
  5  6  2  0
  6  7  1  0
  7  8  2  0
  8  9  1  0
  9 10  1  0
 10 11  1  0
 11 12  1  0
 12 13  1  0
 13 14  1  0
 14 15  1  0
 15 16  1  0
 16 17  1  0
 17 18  2  0
 18 19  1  0
 19 20  2  0
 20 21  1  0
 20 22  1  0
 22 23  2  0
 13 24  1  0
 24 25  1  0
  9 26  2  0
 26 27  1  0
 27 28  1  0
 28 29  1  0
 27 30  2  0
 30 31  1  0
 31 32  1  0
 30  3  1  0
 26  5  1  0
 25 10  1  0
 23 17  1  0
  1 33  1  0
  1 34  1  0
  1 35  1  0
  4 36  1  0
  6 37  1  0
  7 38  1  0
 11 39  1  0
 11 40  1  0
 12 41  1  0
 12 42  1  0
 14 43  1  0
 14 44  1  0
 15 45  1  0
 15 46  1  0
 18 47  1  0
 19 48  1  0
 22 49  1  0
 23 50  1  0
 24 51  1  0
 24 52  1  0
 25 53  1  0
 25 54  1  0
 29 55  1  0
 29 56  1  0
 29 57  1  0
 32 58  1  0
 32 59  1  0
 32 60  1  0
M  CHG  1   6   1
M  END
>  <UniqueID>  (61) 
53

>  <SMILES>  (61) 
COc1cc2[nH+]cnc(N3CCN(CCOc4ccc(F)cc4)CC3)c2c(OC)c1OC

>  <Energy>  (61) 
93.64441848697206

>  <Genealogy>  (61) 
COc1cc2[nH+]cnc(N3CCN(CCOc4ccc(F)cc4)CC3)c2c(OC)c1OC (protonated)
COc1cc2[nH+]cnc(N3CCN(CCOc4ccc(F)cc4)CC3)c2c(OC)c1OC (3D coordinates assigned)
COc1cc2[nH+]cnc(N3CCN(CCOc4ccc(F)cc4)CC3)c2c(OC)c1OC (nonaromatic ring conformer: 93.64441848697206 kcal/mol)

>  <smiles>  (61) 
COc1cc2ncnc(N3CCN(CCOc4ccc(F)cc4)CC3)c2c(OC)c1OC

>  <score_type>  (61) 
oracle

>  <origin>  (61) 
adg

>  <m_score__min__energy>  (61) 
-5.9500000000000002

>  <m_primary>  (61) 
energy

$$$$
61:0
     RDKit          3D

 33 34  0  0  0  0  0  0  0  0999 V2000
   58.9601   28.0640   44.7322 H   0  0  0  0  0  0  0  0  0  0  0  0
   57.9050   28.1750   45.0230 C   0  0  0  0  0  0  0  0  0  0  0  0
   57.3430   29.3920   44.8690 C   0  0  0  0  0  0  0  0  0  0  0  0
   58.0470   30.5590   45.4460 C   0  0  0  0  0  0  0  0  0  0  0  0
   57.3880   31.5920   45.7440 O   0  0  0  0  0  0  0  0  0  0  0  0
   59.4750   30.5470   45.5910 N   0  0  0  0  0  0  0  0  0  0  0  0
   60.0220   29.9310   44.9500 H   0  0  0  0  0  0  0  0  0  0  0  0
   60.1970   31.4190   46.4780 C   0  0  0  0  0  0  0  0  0  0  0  0
   59.7460   32.7240   46.7520 C   0  0  0  0  0  0  0  0  0  0  0  0
   58.8339   33.1014   46.2667 H   0  0  0  0  0  0  0  0  0  0  0  0
   60.4530   33.5430   47.6390 C   0  0  0  0  0  0  0  0  0  0  0  0
   60.1003   34.5648   47.8426 H   0  0  0  0  0  0  0  0  0  0  0  0
   61.6070   33.0650   48.2670 C   0  0  0  0  0  0  0  0  0  0  0  0
   62.5690   34.1830   49.4790 Br  0  0  0  0  0  0  0  0  0  0  0  0
   62.0490   31.7620   48.0170 C   0  0  0  0  0  0  0  0  0  0  0  0
   62.9521   31.3828   48.5176 H   0  0  0  0  0  0  0  0  0  0  0  0
   61.3440   30.9400   47.1310 C   0  0  0  0  0  0  0  0  0  0  0  0
   61.6903   29.9126   46.9450 H   0  0  0  0  0  0  0  0  0  0  0  0
   56.1400   29.6200   44.0220 C   0  0  0  0  0  0  0  0  0  0  0  0
   54.9940   29.3490   44.4760 O   0  0  0  0  0  0  0  0  0  0  0  0
   56.2500   30.0900   42.6050 C   0  0  0  0  0  0  0  0  0  0  0  0
   56.5007   31.1610   42.5923 H   0  0  0  0  0  0  0  0  0  0  0  0
   57.0396   29.5225   42.0907 H   0  0  0  0  0  0  0  0  0  0  0  0
   55.2906   29.9319   42.0907 H   0  0  0  0  0  0  0  0  0  0  0  0
   57.2160   26.9800   45.5510 C   0  0  0  0  0  0  0  0  0  0  0  0
   57.8530   25.9210   46.1680 C   0  0  0  0  0  0  0  0  0  0  0  0
   58.9375   25.7829   46.2894 H   0  0  0  0  0  0  0  0  0  0  0  0
   56.8550   25.0700   46.6020 C   0  0  0  0  0  0  0  0  0  0  0  0
   56.9897   24.1115   47.1246 H   0  0  0  0  0  0  0  0  0  0  0  0
   55.6560   25.6570   46.2520 C   0  0  0  0  0  0  0  0  0  0  0  0
   54.6624   25.2325   46.4581 H   0  0  0  0  0  0  0  0  0  0  0  0
   55.8800   26.8240   45.6220 N   0  0  0  0  0  0  0  0  0  0  0  0
   55.1460   27.4940   45.3000 H   0  0  0  0  0  0  0  0  0  0  0  0
  1  2  1  0
  2  3  2  0
  3  4  1  0
  4  5  2  0
  4  6  1  0
  6  7  1  0
  6  8  1  0
  8  9  2  0
  9 10  1  0
  9 11  1  0
 11 12  1  0
 11 13  2  0
 13 14  1  0
 13 15  1  0
 15 16  1  0
 15 17  2  0
 17 18  1  0
  3 19  1  0
 19 20  2  0
 19 21  1  0
 21 22  1  0
 21 23  1  0
 21 24  1  0
  2 25  1  0
 25 26  2  0
 26 27  1  0
 26 28  1  0
 28 29  1  0
 28 30  2  0
 30 31  1  0
 30 32  1  0
 32 33  1  0
 17  8  1  0
 32 25  1  0
M  END
>  <UniqueID>  (62) 
54

>  <SMILES>  (62) 
CC(=O)/C(=C\c1ccc[nH]1)C(=O)Nc1ccc(Br)cc1

>  <Energy>  (62) 
73.4864488251362

>  <Genealogy>  (62) 
CC(=O)/C(=C\c1ccc[nH]1)C(=O)Nc1ccc(Br)cc1 (cis-trans isomerization)
CC(=O)/C(=C\c1ccc[nH]1)C(=O)Nc1ccc(Br)cc1 (3D coordinates assigned)
CC(=O)/C(=C\c1ccc[nH]1)C(=O)Nc1ccc(Br)cc1 (optimized conformer: 73.4864488251362 kcal/mol)

>  <smiles>  (62) 
CC(=O)C(=Cc1ccc[nH]1)C(=O)Nc1ccc(Br)cc1

>  <score_type>  (62) 
oracle

>  <origin>  (62) 
adg

>  <m_score__min__energy>  (62) 
-7.5599999999999996

>  <m_primary>  (62) 
energy

$$$$
62:0
     RDKit          3D

 30 31  0  0  0  0  0  0  0  0999 V2000
   56.8920   25.9330   46.3520 C   0  0  0  0  0  0  0  0  0  0  0  0
   57.9850   26.9410   46.7060 C   0  0  0  0  0  0  0  0  0  0  0  0
   57.7290   28.3100   46.0730 C   0  0  0  0  0  0  0  0  0  0  0  0
   56.3570   28.3890   45.5790 N   0  0  0  0  0  0  0  0  0  0  0  0
   55.9020   29.3440   44.6140 C   0  0  0  0  0  0  0  0  0  0  0  0
   54.7580   29.2060   44.1080 O   0  0  0  0  0  0  0  0  0  0  0  0
   56.7150   30.5100   44.2300 C   0  0  0  0  0  0  0  0  0  0  0  0
   57.2570   31.2840   45.2060 N   0  0  0  0  0  0  0  0  0  0  0  0
   58.0130   32.3740   44.9080 C   0  0  0  0  0  0  0  0  0  0  0  0
   58.5960   33.1860   45.9850 C   0  0  0  0  0  0  0  0  0  0  0  0
   58.6500   32.8440   47.3320 C   0  0  0  0  0  0  0  0  0  0  0  0
   59.2670   33.8190   48.1250 C   0  0  0  0  0  0  0  0  0  0  0  0
   59.7000   34.9280   47.4100 C   0  0  0  0  0  0  0  0  0  0  0  0
   59.3150   34.6950   45.7900 S   0  0  0  0  0  0  0  0  0  0  0  0
   58.2300   32.7090   43.6090 N   0  0  0  0  0  0  0  0  0  0  0  0
   57.6940   31.9800   42.5960 C   0  0  0  0  0  0  0  0  0  0  0  0
   57.9080   32.3250   41.4040 O   0  0  0  0  0  0  0  0  0  0  0  0
   56.9060   30.8570   42.8840 C   0  0  0  0  0  0  0  0  0  0  0  0
   56.3010   30.1140   41.8680 O   0  0  0  0  0  0  0  0  0  0  0  0
   56.4532   25.5283   47.2760 H   0  0  0  0  0  0  0  0  0  0  0  0
   56.1092   26.4328   45.7626 H   0  0  0  0  0  0  0  0  0  0  0  0
   57.3270   25.1124   45.7626 H   0  0  0  0  0  0  0  0  0  0  0  0
   58.0210   27.0564   47.7993 H   0  0  0  0  0  0  0  0  0  0  0  0
   58.9393   26.5588   46.3145 H   0  0  0  0  0  0  0  0  0  0  0  0
   57.8893   29.0946   46.8271 H   0  0  0  0  0  0  0  0  0  0  0  0
   58.4223   28.4511   45.2307 H   0  0  0  0  0  0  0  0  0  0  0  0
   58.2483   31.9021   47.7339 H   0  0  0  0  0  0  0  0  0  0  0  0
   59.3966   33.7162   49.2125 H   0  0  0  0  0  0  0  0  0  0  0  0
   60.2079   35.8081   47.8313 H   0  0  0  0  0  0  0  0  0  0  0  0
   55.5450   29.4660   42.0530 H   0  0  0  0  0  0  0  0  0  0  0  0
  1  2  1  0
  2  3  1  0
  3  4  1  0
  4  5  1  0
  5  6  2  0
  5  7  1  0
  7  8  1  0
  8  9  1  0
  9 10  1  0
 10 11  2  0
 11 12  1  0
 12 13  2  0
 13 14  1  0
  9 15  2  0
 15 16  1  0
 16 17  2  0
 16 18  1  0
 18 19  1  0
 18  7  2  0
 14 10  1  0
  1 20  1  0
  1 21  1  0
  1 22  1  0
  2 23  1  0
  2 24  1  0
  3 25  1  0
  3 26  1  0
 11 27  1  0
 12 28  1  0
 13 29  1  0
 19 30  1  0
M  CHG  2   4  -1   8  -1
M  END
>  <UniqueID>  (63) 
55

>  <SMILES>  (63) 
CCC[N-]C(=O)c1[n-]c(-c2cccs2)nc(=O)c1O

>  <Energy>  (63) 
56.927979516375856

>  <Genealogy>  (63) 
CCC[N-]C(=O)c1[n-]c(-c2cccs2)nc(=O)c1O (protonated)
CCC[N-]C(=O)c1[n-]c(-c2cccs2)nc(=O)c1O (3D coordinates assigned)
CCC[N-]C(=O)c1[n-]c(-c2cccs2)nc(=O)c1O (optimized conformer: 56.927979516375856 kcal/mol)

>  <smiles>  (63) 
CCCNC(=O)c1[nH]c(-c2cccs2)nc(=O)c1O

>  <score_type>  (63) 
oracle

>  <origin>  (63) 
adg

>  <m_score__min__energy>  (63) 
-9.7200000000000006

>  <m_primary>  (63) 
energy

$$$$
63:0
     RDKit          3D

 40 40  0  0  0  0  0  0  0  0999 V2000
   56.5950   30.8270   43.1780 C   0  0  0  0  0  0  0  0  0  0  0  0
   56.2520   30.4650   44.5100 O   0  0  0  0  0  0  0  0  0  0  0  0
   56.8360   29.3800   45.1700 C   0  0  0  0  0  0  0  0  0  0  0  0
   57.9780   29.4920   45.6950 O   0  0  0  0  0  0  0  0  0  0  0  0
   56.1180   28.1430   45.2510 N   0  0  0  0  0  0  0  0  0  0  0  0
   56.6760   26.9430   45.8890 C   0  0  2  0  0  0  0  0  0  0  0  0
   57.8960   26.3850   45.1110 C   0  0  0  0  0  0  0  0  0  0  0  0
   59.0490   25.7840   45.9590 C   0  0  0  0  0  0  0  0  0  0  0  0
   59.0520   26.3020   47.4050 C   0  0  0  0  0  0  0  0  0  0  0  0
   58.9390   24.2530   45.9610 C   0  0  0  0  0  0  0  0  0  0  0  0
   55.6190   25.8900   46.1050 C   0  0  0  0  0  0  0  0  0  0  0  0
   54.4550   26.0750   45.6570 O   0  0  0  0  0  0  0  0  0  0  0  0
   55.9130   24.7160   46.8660 N   0  0  0  0  0  0  0  0  0  0  0  0
   55.2400   23.4420   46.6580 C   0  0  0  0  0  0  0  0  0  0  0  0
   55.6360   22.8900   45.3210 C   0  0  0  0  0  0  0  0  0  0  0  0
   56.3630   21.6940   45.2320 C   0  0  0  0  0  0  0  0  0  0  0  0
   56.6840   21.1770   43.9730 C   0  0  0  0  0  0  0  0  0  0  0  0
   56.2810   21.8240   42.8470 N   0  0  0  0  0  0  0  0  0  0  0  0
   55.5620   22.9760   42.9060 C   0  0  0  0  0  0  0  0  0  0  0  0
   55.2200   23.5270   44.1430 C   0  0  0  0  0  0  0  0  0  0  0  0
   57.3515   31.6254   43.1982 H   0  0  0  0  0  0  0  0  0  0  0  0
   57.0014   29.9501   42.6528 H   0  0  0  0  0  0  0  0  0  0  0  0
   55.6975   31.1856   42.6528 H   0  0  0  0  0  0  0  0  0  0  0  0
   55.1380   28.1390   44.8860 H   0  0  0  0  0  0  0  0  0  0  0  0
   57.0441   27.2451   46.8806 H   0  0  0  0  0  0  0  0  0  0  0  0
   57.5297   25.5948   44.4392 H   0  0  0  0  0  0  0  0  0  0  0  0
   58.3357   27.2548   44.6011 H   0  0  0  0  0  0  0  0  0  0  0  0
   59.9954   26.1020   45.4972 H   0  0  0  0  0  0  0  0  0  0  0  0
   59.0471   25.4493   48.0999 H   0  0  0  0  0  0  0  0  0  0  0  0
   59.9537   26.9086   47.5753 H   0  0  0  0  0  0  0  0  0  0  0  0
   58.1574   26.9190   47.5753 H   0  0  0  0  0  0  0  0  0  0  0  0
   58.9128   23.8886   46.9986 H   0  0  0  0  0  0  0  0  0  0  0  0
   58.0168   23.9510   45.4429 H   0  0  0  0  0  0  0  0  0  0  0  0
   59.8085   23.8222   45.4429 H   0  0  0  0  0  0  0  0  0  0  0  0
   55.5339   22.7367   47.4493 H   0  0  0  0  0  0  0  0  0  0  0  0
   54.1504   23.5891   46.6901 H   0  0  0  0  0  0  0  0  0  0  0  0
   56.6780   21.1671   46.1448 H   0  0  0  0  0  0  0  0  0  0  0  0
   57.2635   20.2454   43.8934 H   0  0  0  0  0  0  0  0  0  0  0  0
   55.2488   23.4755   41.9773 H   0  0  0  0  0  0  0  0  0  0  0  0
   54.6290   24.4534   44.1928 H   0  0  0  0  0  0  0  0  0  0  0  0
  1  2  1  0
  2  3  1  0
  3  4  2  0
  3  5  1  0
  5  6  1  0
  6  7  1  0
  7  8  1  0
  8  9  1  0
  8 10  1  0
  6 11  1  0
 11 12  2  0
 11 13  1  0
 13 14  1  0
 14 15  1  0
 15 16  2  0
 16 17  1  0
 17 18  2  0
 18 19  1  0
 19 20  2  0
 20 15  1  0
  1 21  1  0
  1 22  1  0
  1 23  1  0
  5 24  1  0
  6 25  1  1
  7 26  1  0
  7 27  1  0
  8 28  1  0
  9 29  1  0
  9 30  1  0
  9 31  1  0
 10 32  1  0
 10 33  1  0
 10 34  1  0
 14 35  1  0
 14 36  1  0
 16 37  1  0
 17 38  1  0
 19 39  1  0
 20 40  1  0
M  CHG  1  13  -1
M  END
>  <UniqueID>  (64) 
56

>  <SMILES>  (64) 
COC(=O)N[C@H](CC(C)C)C(=O)[N-]Cc1ccncc1

>  <Energy>  (64) 
27.058690916645478

>  <Genealogy>  (64) 
COC(=O)NC(CC(C)C)C(=O)[N-]Cc1ccncc1 (protonated)
COC(=O)N[C@H](CC(C)C)C(=O)[N-]Cc1ccncc1 (chirality)
COC(=O)N[C@H](CC(C)C)C(=O)[N-]Cc1ccncc1 (3D coordinates assigned)
COC(=O)N[C@H](CC(C)C)C(=O)[N-]Cc1ccncc1 (optimized conformer: 27.058690916645478 kcal/mol)

>  <smiles>  (64) 
COC(=O)NC(CC(C)C)C(=O)NCc1ccncc1

>  <score_type>  (64) 
oracle

>  <origin>  (64) 
adg

>  <m_score__min__energy>  (64) 
-8.6199999999999992

>  <m_primary>  (64) 
energy

$$$$
64:0
     RDKit          3D

 26 27  0  0  0  0  0  0  0  0999 V2000
   57.4930   27.3840   46.0900 O   0  0  0  0  0  0  0  0  0  0  0  0
   56.2710   27.4380   45.7870 C   0  0  0  0  0  0  0  0  0  0  0  0
   55.7130   28.6260   45.2180 N   0  0  0  0  0  0  0  0  0  0  0  0
   56.4100   29.6170   44.4460 C   0  0  0  0  0  0  0  0  0  0  0  0
   56.1240   29.8440   43.0870 C   0  0  0  0  0  0  0  0  0  0  0  0
   56.8120   30.8350   42.3790 C   0  0  0  0  0  0  0  0  0  0  0  0
   57.7790   31.6130   43.0210 C   0  0  0  0  0  0  0  0  0  0  0  0
   58.4440   32.5740   42.3350 F   0  0  0  0  0  0  0  0  0  0  0  0
   58.0510   31.4080   44.3780 C   0  0  0  0  0  0  0  0  0  0  0  0
   57.3640   30.4190   45.0880 C   0  0  0  0  0  0  0  0  0  0  0  0
   55.4160   26.3100   46.0050 N   0  0  0  0  0  0  0  0  0  0  0  0
   55.6360   24.9670   45.5460 C   0  0  0  0  0  0  0  0  0  0  0  0
   54.7940   23.9510   46.0180 C   0  0  0  0  0  0  0  0  0  0  0  0
   54.9850   22.6260   45.6120 C   0  0  0  0  0  0  0  0  0  0  0  0
   56.0320   22.3050   44.7420 C   0  0  0  0  0  0  0  0  0  0  0  0
   56.2740   20.6430   44.2360 Cl  0  0  0  0  0  0  0  0  0  0  0  0
   56.8930   23.3080   44.2860 C   0  0  0  0  0  0  0  0  0  0  0  0
   56.7030   24.6330   44.6900 C   0  0  0  0  0  0  0  0  0  0  0  0
   55.3570   29.2403   42.5798 H   0  0  0  0  0  0  0  0  0  0  0  0
   56.5913   31.0022   41.3144 H   0  0  0  0  0  0  0  0  0  0  0  0
   58.8060   32.0255   44.8866 H   0  0  0  0  0  0  0  0  0  0  0  0
   57.5733   30.2691   46.1574 H   0  0  0  0  0  0  0  0  0  0  0  0
   53.9773   24.1971   46.7125 H   0  0  0  0  0  0  0  0  0  0  0  0
   54.3117   21.8365   45.9770 H   0  0  0  0  0  0  0  0  0  0  0  0
   57.7213   23.0541   43.6082 H   0  0  0  0  0  0  0  0  0  0  0  0
   57.3894   25.4172   44.3379 H   0  0  0  0  0  0  0  0  0  0  0  0
  1  2  2  0
  2  3  1  0
  3  4  1  0
  4  5  2  0
  5  6  1  0
  6  7  2  0
  7  8  1  0
  7  9  1  0
  9 10  2  0
  2 11  1  0
 11 12  1  0
 12 13  2  0
 13 14  1  0
 14 15  2  0
 15 16  1  0
 15 17  1  0
 17 18  2  0
 10  4  1  0
 18 12  1  0
  5 19  1  0
  6 20  1  0
  9 21  1  0
 10 22  1  0
 13 23  1  0
 14 24  1  0
 17 25  1  0
 18 26  1  0
M  CHG  2   3  -1  11  -1
M  END
>  <UniqueID>  (65) 
57

>  <SMILES>  (65) 
O=C([N-]c1ccc(F)cc1)[N-]c1ccc(Cl)cc1

>  <Energy>  (65) 
33.757506075682684

>  <Genealogy>  (65) 
O=C([N-]c1ccc(F)cc1)[N-]c1ccc(Cl)cc1 (protonated)
O=C([N-]c1ccc(F)cc1)[N-]c1ccc(Cl)cc1 (3D coordinates assigned)
O=C([N-]c1ccc(F)cc1)[N-]c1ccc(Cl)cc1 (optimized conformer: 33.757506075682684 kcal/mol)

>  <smiles>  (65) 
O=C(Nc1ccc(F)cc1)Nc1ccc(Cl)cc1

>  <score_type>  (65) 
oracle

>  <origin>  (65) 
adg

>  <m_score__min__energy>  (65) 
-9.7699999999999996

>  <m_primary>  (65) 
energy

$$$$
65:0
     RDKit          3D

 39 41  0  0  0  0  0  0  0  0999 V2000
   57.1610   25.5210   44.4440 O   0  0  0  0  0  0  0  0  0  0  0  0
   56.7460   25.8730   45.5790 C   0  0  0  0  0  0  0  0  0  0  0  0
   55.9530   24.9710   46.3610 N   0  0  0  0  0  0  0  0  0  0  0  0
   55.1660   23.8840   45.7890 C   0  0  0  0  0  0  0  0  0  0  0  0
   56.0290   23.0160   44.9160 C   0  0  0  0  0  0  0  0  0  0  0  0
   55.8640   23.0280   43.5240 C   0  0  0  0  0  0  0  0  0  0  0  0
   56.6530   22.2030   42.7210 C   0  0  0  0  0  0  0  0  0  0  0  0
   57.6010   21.3700   43.3180 C   0  0  0  0  0  0  0  0  0  0  0  0
   57.7490   21.3630   44.6710 N   0  0  0  0  0  0  0  0  0  0  0  0
   56.9900   22.1590   45.4730 C   0  0  0  0  0  0  0  0  0  0  0  0
   57.0840   27.2000   46.1320 C   0  0  0  0  0  0  0  0  0  0  0  0
   57.5990   27.2600   47.2800 O   0  0  0  0  0  0  0  0  0  0  0  0
   56.8600   28.4660   45.4040 C   0  0  0  0  0  0  0  0  0  0  0  0
   57.7990   29.2990   44.8210 C   0  0  0  0  0  0  0  0  0  0  0  0
   57.0370   30.3110   44.2760 C   0  0  0  0  0  0  0  0  0  0  0  0
   57.5610   31.5250   43.5770 C   0  0  0  0  0  0  0  0  0  0  0  0
   58.0500   32.5290   44.5830 C   0  0  0  0  0  0  0  0  0  0  0  0
   57.7490   32.3700   45.9460 C   0  0  0  0  0  0  0  0  0  0  0  0
   58.1730   33.3230   46.8770 C   0  0  0  0  0  0  0  0  0  0  0  0
   58.8910   34.4470   46.4520 C   0  0  0  0  0  0  0  0  0  0  0  0
   59.2990   35.3710   47.3560 F   0  0  0  0  0  0  0  0  0  0  0  0
   59.1810   34.6180   45.0960 C   0  0  0  0  0  0  0  0  0  0  0  0
   58.7590   33.6660   44.1630 C   0  0  0  0  0  0  0  0  0  0  0  0
   55.7340   30.0940   44.5350 N   0  0  0  0  0  0  0  0  0  0  0  0
   55.6660   28.9780   45.2020 O   0  0  0  0  0  0  0  0  0  0  0  0
   54.7443   23.2749   46.6021 H   0  0  0  0  0  0  0  0  0  0  0  0
   54.3569   24.3117   45.1788 H   0  0  0  0  0  0  0  0  0  0  0  0
   55.1129   23.6874   43.0647 H   0  0  0  0  0  0  0  0  0  0  0  0
   56.5291   22.2091   41.6280 H   0  0  0  0  0  0  0  0  0  0  0  0
   58.2296   20.7180   42.6937 H   0  0  0  0  0  0  0  0  0  0  0  0
   58.4600   20.7320   45.1030 H   0  0  0  0  0  0  0  0  0  0  0  0
   57.1309   22.1301   46.5636 H   0  0  0  0  0  0  0  0  0  0  0  0
   58.8925   29.1818   44.7979 H   0  0  0  0  0  0  0  0  0  0  0  0
   58.3929   31.2350   42.9183 H   0  0  0  0  0  0  0  0  0  0  0  0
   56.7526   31.9753   42.9823 H   0  0  0  0  0  0  0  0  0  0  0  0
   57.1775   31.4923   46.2821 H   0  0  0  0  0  0  0  0  0  0  0  0
   57.9422   33.1895   47.9442 H   0  0  0  0  0  0  0  0  0  0  0  0
   59.7423   35.5031   44.7619 H   0  0  0  0  0  0  0  0  0  0  0  0
   58.9833   33.8083   43.0956 H   0  0  0  0  0  0  0  0  0  0  0  0
  1  2  2  0
  2  3  1  0
  3  4  1  0
  4  5  1  0
  5  6  2  0
  6  7  1  0
  7  8  2  0
  8  9  1  0
  9 10  2  0
  2 11  1  0
 11 12  2  0
 11 13  1  0
 13 14  2  0
 14 15  1  0
 15 16  1  0
 16 17  1  0
 17 18  2  0
 18 19  1  0
 19 20  2  0
 20 21  1  0
 20 22  1  0
 22 23  2  0
 15 24  2  0
 24 25  1  0
 10  5  1  0
 25 13  1  0
 23 17  1  0
  4 26  1  0
  4 27  1  0
  6 28  1  0
  7 29  1  0
  8 30  1  0
  9 31  1  0
 10 32  1  0
 14 33  1  0
 16 34  1  0
 16 35  1  0
 18 36  1  0
 19 37  1  0
 22 38  1  0
 23 39  1  0
M  CHG  2   3  -1   9   1
M  END
>  <UniqueID>  (66) 
58

>  <SMILES>  (66) 
O=C([N-]Cc1ccc[nH+]c1)C(=O)c1cc(Cc2ccc(F)cc2)no1

>  <Energy>  (66) 
67.94662070886459

>  <Genealogy>  (66) 
O=C([N-]Cc1ccc[nH+]c1)C(=O)c1cc(Cc2ccc(F)cc2)no1 (protonated)
O=C([N-]Cc1ccc[nH+]c1)C(=O)c1cc(Cc2ccc(F)cc2)no1 (3D coordinates assigned)
O=C([N-]Cc1ccc[nH+]c1)C(=O)c1cc(Cc2ccc(F)cc2)no1 (optimized conformer: 67.94662070886459 kcal/mol)

>  <smiles>  (66) 
O=C(NCc1cccnc1)C(=O)c1cc(Cc2ccc(F)cc2)no1

>  <score_type>  (66) 
oracle

>  <origin>  (66) 
adg

>  <m_score__min__energy>  (66) 
-10.890000000000001

>  <m_primary>  (66) 
energy

$$$$
66:0
     RDKit          3D

 51 53  0  0  0  0  0  0  0  0999 V2000
   58.0760   26.8180   44.0860 C   0  0  0  0  0  0  0  0  0  0  0  0
   57.3200   27.4950   45.1830 C   0  0  0  0  0  0  0  0  0  0  0  0
   57.4530   28.9590   45.0530 C   0  0  0  0  0  0  0  0  0  0  0  0
   58.6410   29.6110   45.2570 C   0  0  0  0  0  0  0  0  0  0  0  0
   59.9060   29.0150   45.6660 C   0  0  0  0  0  0  0  0  0  0  0  0
   60.0710   28.5500   47.0350 C   0  0  0  0  0  0  0  0  0  0  0  0
   59.9100   29.1910   48.2570 C   0  0  0  0  0  0  0  0  0  0  0  0
   60.1860   28.3270   49.2940 C   0  0  0  0  0  0  0  0  0  0  0  0
   60.5200   27.1360   48.6880 C   0  0  0  0  0  0  0  0  0  0  0  0
   60.4490   27.2780   47.3520 N   0  0  0  0  0  0  0  0  0  0  0  0
   60.7420   26.2120   46.4300 C   0  0  0  0  0  0  0  0  0  0  0  0
   58.6150   30.9660   45.0770 N   0  0  0  0  0  0  0  0  0  0  0  0
   57.5300   31.6420   44.7270 C   0  0  0  0  0  0  0  0  0  0  0  0
   57.5130   33.4210   44.4960 S   0  0  0  0  0  0  0  0  0  0  0  0
   57.8070   34.2850   46.0600 C   0  0  0  0  0  0  0  0  0  0  0  0
   58.9380   33.5420   46.7750 C   0  0  0  0  0  0  0  0  0  0  0  0
   60.2280   34.2550   46.4600 C   0  0  0  0  0  0  0  0  0  0  0  0
   61.3670   33.3940   46.9020 C   0  0  0  0  0  0  0  0  0  0  0  0
   61.1870   32.2570   47.6600 C   0  0  0  0  0  0  0  0  0  0  0  0
   62.3290   31.5460   48.0040 C   0  0  0  0  0  0  0  0  0  0  0  0
   63.5830   31.9780   47.5950 C   0  0  0  0  0  0  0  0  0  0  0  0
   63.7590   33.1160   46.8370 C   0  0  0  0  0  0  0  0  0  0  0  0
   62.6310   33.8210   46.4950 C   0  0  0  0  0  0  0  0  0  0  0  0
   56.3700   30.9760   44.5320 N   0  0  0  0  0  0  0  0  0  0  0  0
   56.2840   29.6440   44.6820 C   0  0  0  0  0  0  0  0  0  0  0  0
   55.1990   29.0140   44.5010 O   0  0  0  0  0  0  0  0  0  0  0  0
   58.8286   26.1440   44.5211 H   0  0  0  0  0  0  0  0  0  0  0  0
   57.3788   26.2367   43.4647 H   0  0  0  0  0  0  0  0  0  0  0  0
   58.5771   27.5749   43.4647 H   0  0  0  0  0  0  0  0  0  0  0  0
   56.2574   27.2179   45.1191 H   0  0  0  0  0  0  0  0  0  0  0  0
   57.7282   27.1783   46.1541 H   0  0  0  0  0  0  0  0  0  0  0  0
   60.0775   28.1480   45.0110 H   0  0  0  0  0  0  0  0  0  0  0  0
   60.6202   29.8480   45.5889 H   0  0  0  0  0  0  0  0  0  0  0  0
   59.6050   30.2408   48.3794 H   0  0  0  0  0  0  0  0  0  0  0  0
   60.1479   28.5417   50.3722 H   0  0  0  0  0  0  0  0  0  0  0  0
   60.8012   26.2121   49.2147 H   0  0  0  0  0  0  0  0  0  0  0  0
   60.9927   25.3000   46.9916 H   0  0  0  0  0  0  0  0  0  0  0  0
   59.8626   26.0227   45.7969 H   0  0  0  0  0  0  0  0  0  0  0  0
   61.5946   26.4988   45.7969 H   0  0  0  0  0  0  0  0  0  0  0  0
   59.4980   31.5330   45.2210 H   0  0  0  0  0  0  0  0  0  0  0  0
   58.1023   35.3268   45.8665 H   0  0  0  0  0  0  0  0  0  0  0  0
   56.8964   34.3017   46.6768 H   0  0  0  0  0  0  0  0  0  0  0  0
   58.7623   33.5484   47.8609 H   0  0  0  0  0  0  0  0  0  0  0  0
   58.9845   32.4960   46.4377 H   0  0  0  0  0  0  0  0  0  0  0  0
   60.2975   34.4348   45.3770 H   0  0  0  0  0  0  0  0  0  0  0  0
   60.2615   35.2217   46.9837 H   0  0  0  0  0  0  0  0  0  0  0  0
   60.1863   31.9285   47.9773 H   0  0  0  0  0  0  0  0  0  0  0  0
   62.2389   30.6305   48.6072 H   0  0  0  0  0  0  0  0  0  0  0  0
   64.4673   31.3919   47.8858 H   0  0  0  0  0  0  0  0  0  0  0  0
   64.7595   33.4451   46.5198 H   0  0  0  0  0  0  0  0  0  0  0  0
   62.7258   34.7357   45.8913 H   0  0  0  0  0  0  0  0  0  0  0  0
  1  2  1  0
  2  3  1  0
  3  4  2  0
  4  5  1  0
  5  6  1  0
  6  7  2  0
  7  8  1  0
  8  9  2  0
  9 10  1  0
 10 11  1  0
  4 12  1  0
 12 13  1  0
 13 14  1  0
 14 15  1  0
 15 16  1  0
 16 17  1  0
 17 18  1  0
 18 19  2  0
 19 20  1  0
 20 21  2  0
 21 22  1  0
 22 23  2  0
 13 24  2  0
 24 25  1  0
 25 26  2  0
 25  3  1  0
 10  6  1  0
 23 18  1  0
  1 27  1  0
  1 28  1  0
  1 29  1  0
  2 30  1  0
  2 31  1  0
  5 32  1  0
  5 33  1  0
  7 34  1  0
  8 35  1  0
  9 36  1  0
 11 37  1  0
 11 38  1  0
 11 39  1  0
 12 40  1  0
 15 41  1  0
 15 42  1  0
 16 43  1  0
 16 44  1  0
 17 45  1  0
 17 46  1  0
 19 47  1  0
 20 48  1  0
 21 49  1  0
 22 50  1  0
 23 51  1  0
M  END
>  <smiles>  (67) 
CCc1c(Cc2cccn2C)[nH]c(SCCCc2ccccc2)nc1=O

>  <score_type>  (67) 
oracle

>  <origin>  (67) 
adg

>  <m_score__min__energy>  (67) 
-9.0199999999999996

>  <m_primary>  (67) 
energy

$$$$
67:0
     RDKit          3D

 41 43  0  0  0  0  0  0  0  0999 V2000
   64.4011   32.1544   47.0124 H   0  0  0  0  0  0  0  0  0  0  0  0
   63.3250   32.3330   47.1540 C   0  0  0  0  0  0  0  0  0  0  0  0
   62.8580   33.6270   47.3740 C   0  0  0  0  0  0  0  0  0  0  0  0
   63.5666   34.4672   47.4170 H   0  0  0  0  0  0  0  0  0  0  0  0
   61.4910   33.8580   47.5400 C   0  0  0  0  0  0  0  0  0  0  0  0
   61.1294   34.8822   47.7142 H   0  0  0  0  0  0  0  0  0  0  0  0
   60.5730   32.7970   47.4870 C   0  0  0  0  0  0  0  0  0  0  0  0
   58.8480   33.1780   47.6460 S   0  0  0  0  0  0  0  0  0  0  0  0
   58.5630   34.5880   47.2110 O   0  0  0  0  0  0  0  0  0  0  0  0
   58.4890   33.0600   49.1000 O   0  0  0  0  0  0  0  0  0  0  0  0
   57.8280   32.0950   46.7490 N   0  0  0  0  0  0  0  0  0  0  0  0
   57.6870   31.9410   45.4630 C   0  0  0  0  0  0  0  0  0  0  0  0
   57.0070   30.9320   44.9700 O   0  0  0  0  0  0  0  0  0  0  0  0
   57.0250   30.9550   43.6720 N   0  0  0  0  0  0  0  0  0  0  0  0
   56.5630   30.2480   43.0570 H   0  0  0  0  0  0  0  0  0  0  0  0
   57.7460   32.0200   43.2800 C   0  0  0  0  0  0  0  0  0  0  0  0
   58.0220   32.3620   41.8500 C   0  0  0  0  0  0  0  0  0  0  0  0
   58.7122   33.2173   41.8042 H   0  0  0  0  0  0  0  0  0  0  0  0
   58.4773   31.4960   41.3472 H   0  0  0  0  0  0  0  0  0  0  0  0
   57.0794   32.6242   41.3472 H   0  0  0  0  0  0  0  0  0  0  0  0
   58.1860   32.7090   44.4020 C   0  0  0  0  0  0  0  0  0  0  0  0
   59.0870   33.9080   44.3810 C   0  0  0  0  0  0  0  0  0  0  0  0
   59.3160   34.2127   45.4129 H   0  0  0  0  0  0  0  0  0  0  0  0
   60.0209   33.6557   43.8574 H   0  0  0  0  0  0  0  0  0  0  0  0
   58.5849   34.7349   43.8574 H   0  0  0  0  0  0  0  0  0  0  0  0
   61.0540   31.4760   47.2910 C   0  0  0  0  0  0  0  0  0  0  0  0
   60.1550   30.3050   47.2470 C   0  0  0  0  0  0  0  0  0  0  0  0
   59.5930   29.7900   48.4260 C   0  0  0  0  0  0  0  0  0  0  0  0
   59.8314   30.2534   49.3948 H   0  0  0  0  0  0  0  0  0  0  0  0
   58.7320   28.6910   48.3730 C   0  0  0  0  0  0  0  0  0  0  0  0
   58.2883   28.2978   49.2996 H   0  0  0  0  0  0  0  0  0  0  0  0
   58.4310   28.0870   47.1440 C   0  0  0  0  0  0  0  0  0  0  0  0
   57.5440   26.9670   47.0900 N   0  0  0  0  0  0  0  0  0  0  0  0
   56.5090   27.1020   47.1230 H   0  0  0  0  0  0  0  0  0  0  0  0
   57.9160   25.9930   47.0150 H   0  0  0  0  0  0  0  0  0  0  0  0
   59.0090   28.5870   45.9680 C   0  0  0  0  0  0  0  0  0  0  0  0
   58.7819   28.1136   45.0014 H   0  0  0  0  0  0  0  0  0  0  0  0
   59.8720   29.6840   46.0200 C   0  0  0  0  0  0  0  0  0  0  0  0
   60.3320   30.0631   45.0955 H   0  0  0  0  0  0  0  0  0  0  0  0
   62.4310   31.2640   47.1130 C   0  0  0  0  0  0  0  0  0  0  0  0
   62.8075   30.2451   46.9396 H   0  0  0  0  0  0  0  0  0  0  0  0
  1  2  1  0
  2  3  2  0
  3  4  1  0
  3  5  1  0
  5  6  1  0
  5  7  2  0
  7  8  1  0
  8  9  2  0
  8 10  2  0
  8 11  1  0
 11 12  2  0
 12 13  1  0
 13 14  1  0
 14 15  1  0
 14 16  1  0
 16 17  1  0
 17 18  1  0
 17 19  1  0
 17 20  1  0
 16 21  2  0
 21 22  1  0
 22 23  1  0
 22 24  1  0
 22 25  1  0
  7 26  1  0
 26 27  1  0
 27 28  2  0
 28 29  1  0
 28 30  1  0
 30 31  1  0
 30 32  2  0
 32 33  1  0
 33 34  1  0
 33 35  1  0
 32 36  1  0
 36 37  1  0
 36 38  2  0
 38 39  1  0
 26 40  2  0
 40 41  1  0
 40  2  1  0
 21 12  1  0
 38 27  1  0
M  END
>  <UniqueID>  (68) 
59

>  <SMILES>  (68) 
Cc1[nH]o/c(=N/S(=O)(=O)c2ccccc2-c2ccc(N)cc2)c1C

>  <Energy>  (68) 
88.42860289521526

>  <Genealogy>  (68) 
Cc1[nH]o/c(=N/S(=O)(=O)c2ccccc2-c2ccc(N)cc2)c1C (cis-trans isomerization)
Cc1[nH]o/c(=N/S(=O)(=O)c2ccccc2-c2ccc(N)cc2)c1C (3D coordinates assigned)
Cc1[nH]o/c(=N/S(=O)(=O)c2ccccc2-c2ccc(N)cc2)c1C (optimized conformer: 88.42860289521526 kcal/mol)

>  <smiles>  (68) 
Cc1[nH]oc(=NS(=O)(=O)c2ccccc2-c2ccc(N)cc2)c1C

>  <score_type>  (68) 
oracle

>  <origin>  (68) 
adg

>  <m_score__min__energy>  (68) 
-8.3599999999999994

>  <m_primary>  (68) 
energy

$$$$
68:0
     RDKit          3D

 39 40  0  0  0  0  0  0  0  0999 V2000
   61.3370   30.8300   47.1410 C   0  0  0  0  0  0  0  0  0  0  0  0
   60.3980   30.1010   46.3570 O   0  0  0  0  0  0  0  0  0  0  0  0
   59.8710   28.8470   46.7050 C   0  0  0  0  0  0  0  0  0  0  0  0
   60.5160   28.0010   47.6310 C   0  0  0  0  0  0  0  0  0  0  0  0
   59.9670   26.7590   47.9530 C   0  0  0  0  0  0  0  0  0  0  0  0
   58.7690   26.3500   47.3680 C   0  0  0  0  0  0  0  0  0  0  0  0
   58.1190   27.1790   46.4510 C   0  0  0  0  0  0  0  0  0  0  0  0
   58.6700   28.4250   46.1010 C   0  0  0  0  0  0  0  0  0  0  0  0
   57.9910   29.2940   45.1780 N   0  0  0  0  0  0  0  0  0  0  0  0
   56.5920   29.1890   44.8690 C   0  0  0  0  0  0  0  0  0  0  0  0
   55.9220   28.1950   45.2600 O   0  0  0  0  0  0  0  0  0  0  0  0
   55.9170   30.2590   44.0520 C   0  0  2  0  0  0  0  0  0  0  0  0
   56.2720   30.0930   42.5770 C   0  0  0  0  0  0  0  0  0  0  0  0
   56.3320   31.5520   44.4920 O   0  0  0  0  0  0  0  0  0  0  0  0
   57.6650   31.9820   44.4640 C   0  0  0  0  0  0  0  0  0  0  0  0
   58.3570   31.8320   43.4190 O   0  0  0  0  0  0  0  0  0  0  0  0
   58.2590   32.6140   45.6630 C   0  0  0  0  0  0  0  0  0  0  0  0
   58.9650   33.8250   45.5510 C   0  0  0  0  0  0  0  0  0  0  0  0
   59.5280   34.4240   46.6820 C   0  0  0  0  0  0  0  0  0  0  0  0
   59.3930   33.8220   47.9360 C   0  0  0  0  0  0  0  0  0  0  0  0
   60.1010   34.5750   49.3540 Cl  0  0  0  0  0  0  0  0  0  0  0  0
   58.6930   32.6180   48.0590 C   0  0  0  0  0  0  0  0  0  0  0  0
   58.1280   32.0160   46.9300 C   0  0  0  0  0  0  0  0  0  0  0  0
   61.1278   30.6676   48.2086 H   0  0  0  0  0  0  0  0  0  0  0  0
   62.3551   30.4833   46.9100 H   0  0  0  0  0  0  0  0  0  0  0  0
   61.2535   31.9022   46.9100 H   0  0  0  0  0  0  0  0  0  0  0  0
   61.4569   28.3219   48.1020 H   0  0  0  0  0  0  0  0  0  0  0  0
   60.4804   26.1012   48.6698 H   0  0  0  0  0  0  0  0  0  0  0  0
   58.3355   25.3733   47.6291 H   0  0  0  0  0  0  0  0  0  0  0  0
   57.1697   26.8553   45.9994 H   0  0  0  0  0  0  0  0  0  0  0  0
   58.5600   29.9870   44.6420 H   0  0  0  0  0  0  0  0  0  0  0  0
   54.8290   30.1621   44.1816 H   0  0  0  0  0  0  0  0  0  0  0  0
   57.2652   29.6286   42.4889 H   0  0  0  0  0  0  0  0  0  0  0  0
   55.5229   29.4518   42.0895 H   0  0  0  0  0  0  0  0  0  0  0  0
   56.2838   31.0790   42.0895 H   0  0  0  0  0  0  0  0  0  0  0  0
   59.0751   34.3042   44.5670 H   0  0  0  0  0  0  0  0  0  0  0  0
   60.0785   35.3713   46.5845 H   0  0  0  0  0  0  0  0  0  0  0  0
   58.5864   32.1433   49.0455 H   0  0  0  0  0  0  0  0  0  0  0  0
   57.5778   31.0691   47.0332 H   0  0  0  0  0  0  0  0  0  0  0  0
  1  2  1  0
  2  3  1  0
  3  4  2  0
  4  5  1  0
  5  6  2  0
  6  7  1  0
  7  8  2  0
  8  9  1  0
  9 10  1  0
 10 11  2  0
 10 12  1  0
 12 13  1  0
 12 14  1  0
 14 15  1  0
 15 16  2  0
 15 17  1  0
 17 18  2  0
 18 19  1  0
 19 20  2  0
 20 21  1  0
 20 22  1  0
 22 23  2  0
  8  3  1  0
 23 17  1  0
  1 24  1  0
  1 25  1  0
  1 26  1  0
  4 27  1  0
  5 28  1  0
  6 29  1  0
  7 30  1  0
  9 31  1  0
 12 32  1  6
 13 33  1  0
 13 34  1  0
 13 35  1  0
 18 36  1  0
 19 37  1  0
 22 38  1  0
 23 39  1  0
M  END
>  <UniqueID>  (69) 
60

>  <SMILES>  (69) 
COc1ccccc1NC(=O)[C@H](C)OC(=O)c1ccc(Cl)cc1

>  <Energy>  (69) 
38.30996689278873

>  <Genealogy>  (69) 
COc1ccccc1NC(=O)[C@H](C)OC(=O)c1ccc(Cl)cc1 (chirality)
COc1ccccc1NC(=O)[C@H](C)OC(=O)c1ccc(Cl)cc1 (3D coordinates assigned)
COc1ccccc1NC(=O)[C@H](C)OC(=O)c1ccc(Cl)cc1 (optimized conformer: 38.30996689278873 kcal/mol)

>  <smiles>  (69) 
COc1ccccc1NC(=O)C(C)OC(=O)c1ccc(Cl)cc1

>  <score_type>  (69) 
oracle

>  <origin>  (69) 
adg

>  <m_score__min__energy>  (69) 
-8.5800000000000001

>  <m_primary>  (69) 
energy

$$$$
69:0
     RDKit          3D

 44 47  0  0  0  0  0  0  0  0999 V2000
   60.7140   29.0640   48.6280 C   0  0  0  0  0  0  0  0  0  0  0  0
   60.0400   28.4030   47.4950 N   0  0  0  0  0  0  0  0  0  0  0  0
   59.4720   29.1650   46.5030 C   0  0  0  0  0  0  0  0  0  0  0  0
   59.5110   30.4240   46.5670 O   0  0  0  0  0  0  0  0  0  0  0  0
   58.8630   28.5310   45.4120 C   0  0  0  0  0  0  0  0  0  0  0  0
   58.2270   29.1090   44.2840 C   0  0  0  0  0  0  0  0  0  0  0  0
   58.0800   30.5820   44.0010 C   0  0  0  0  0  0  0  0  0  0  0  0
   56.7890   31.1070   44.5680 C   0  0  0  0  0  0  0  0  0  0  0  0
   55.7430   30.4100   44.4810 O   0  0  0  0  0  0  0  0  0  0  0  0
   56.7390   32.3430   45.2940 N   0  0  0  0  0  0  0  0  0  0  0  0
   57.7480   33.1180   45.5620 C   0  0  0  0  0  0  0  0  0  0  0  0
   58.7650   32.8100   46.4030 N   0  0  0  0  0  0  0  0  0  0  0  0
   59.7000   33.8010   46.4660 C   0  0  0  0  0  0  0  0  0  0  0  0
   60.9150   33.7010   47.3120 C   0  0  0  0  0  0  0  0  0  0  0  0
   60.8300   33.8600   48.7090 C   0  0  0  0  0  0  0  0  0  0  0  0
   61.9770   33.7660   49.5030 C   0  0  0  0  0  0  0  0  0  0  0  0
   63.2190   33.5130   48.9160 C   0  0  0  0  0  0  0  0  0  0  0  0
   64.3290   33.4230   49.6900 F   0  0  0  0  0  0  0  0  0  0  0  0
   63.3160   33.3520   47.5330 C   0  0  0  0  0  0  0  0  0  0  0  0
   62.1730   33.4440   46.7330 C   0  0  0  0  0  0  0  0  0  0  0  0
   59.4210   34.9050   45.6540 C   0  0  0  0  0  0  0  0  0  0  0  0
   57.9760   34.6130   44.8420 S   0  0  0  0  0  0  0  0  0  0  0  0
   57.7730   28.1500   43.3740 C   0  0  0  0  0  0  0  0  0  0  0  0
   58.1310   26.6140   43.9600 S   0  0  0  0  0  0  0  0  0  0  0  0
   58.8720   27.1500   45.3740 C   0  0  0  0  0  0  0  0  0  0  0  0
   59.4400   26.3890   46.3510 N   0  0  0  0  0  0  0  0  0  0  0  0
   59.4620   24.9220   46.2300 C   0  0  0  0  0  0  0  0  0  0  0  0
   60.0560   27.0270   47.4010 C   0  0  0  0  0  0  0  0  0  0  0  0
   60.6480   26.3450   48.2850 O   0  0  0  0  0  0  0  0  0  0  0  0
   60.3127   28.6705   49.5736 H   0  0  0  0  0  0  0  0  0  0  0  0
   61.7949   28.8660   48.5778 H   0  0  0  0  0  0  0  0  0  0  0  0
   60.5371   30.1485   48.5778 H   0  0  0  0  0  0  0  0  0  0  0  0
   58.9215   31.1231   44.4582 H   0  0  0  0  0  0  0  0  0  0  0  0
   58.0750   30.7337   42.9115 H   0  0  0  0  0  0  0  0  0  0  0  0
   58.8410   31.9140   46.9320 H   0  0  0  0  0  0  0  0  0  0  0  0
   59.8552   34.0593   49.1782 H   0  0  0  0  0  0  0  0  0  0  0  0
   61.9011   33.8917   50.5932 H   0  0  0  0  0  0  0  0  0  0  0  0
   64.2942   33.1522   47.0712 H   0  0  0  0  0  0  0  0  0  0  0  0
   62.2568   33.3148   45.6438 H   0  0  0  0  0  0  0  0  0  0  0  0
   60.0401   35.8095   45.5618 H   0  0  0  0  0  0  0  0  0  0  0  0
   57.2620   28.3656   42.4241 H   0  0  0  0  0  0  0  0  0  0  0  0
   59.4688   24.4714   47.2334 H   0  0  0  0  0  0  0  0  0  0  0  0
   58.5688   24.5858   45.6831 H   0  0  0  0  0  0  0  0  0  0  0  0
   60.3649   24.6127   45.6831 H   0  0  0  0  0  0  0  0  0  0  0  0
  1  2  1  0
  2  3  1  0
  3  4  2  0
  3  5  1  0
  5  6  1  0
  6  7  1  0
  7  8  1  0
  8  9  2  0
  8 10  1  0
 10 11  2  3
 11 12  1  0
 12 13  1  0
 13 14  1  0
 14 15  2  0
 15 16  1  0
 16 17  2  0
 17 18  1  0
 17 19  1  0
 19 20  2  0
 13 21  2  0
 21 22  1  0
  6 23  2  0
 23 24  1  0
 24 25  1  0
 25 26  1  0
 26 27  1  0
 26 28  1  0
 28 29  2  0
 28  2  1  0
 25  5  2  0
 22 11  1  0
 20 14  1  0
  1 30  1  0
  1 31  1  0
  1 32  1  0
  7 33  1  0
  7 34  1  0
 12 35  1  0
 15 36  1  0
 16 37  1  0
 19 38  1  0
 20 39  1  0
 21 40  1  0
 23 41  1  0
 27 42  1  0
 27 43  1  0
 27 44  1  0
M  END
>  <UniqueID>  (70) 
61

>  <SMILES>  (70) 
Cn1c(=O)c2c(CC(=O)N=c3[nH]c(-c4ccc(F)cc4)cs3)csc2n(C)c1=O

>  <Energy>  (70) 
128.311659564362

>  <Genealogy>  (70) 
Cn1c(=O)c2c(CC(=O)N=c3[nH]c(-c4ccc(F)cc4)cs3)csc2n(C)c1=O (3D coordinates assigned)
Cn1c(=O)c2c(CC(=O)N=c3[nH]c(-c4ccc(F)cc4)cs3)csc2n(C)c1=O (optimized conformer: 128.311659564362 kcal/mol)

>  <smiles>  (70) 
Cn1c(=O)c2c(CC(=O)N=c3[nH]c(-c4ccc(F)cc4)cs3)csc2n(C)c1=O

>  <score_type>  (70) 
oracle

>  <origin>  (70) 
adg

>  <m_score__min__energy>  (70) 
-8.6199999999999992

>  <m_primary>  (70) 
energy

$$$$
70:0
     RDKit          3D

 46 48  0  0  0  0  0  0  0  0999 V2000
   60.2290   27.8360   47.3300 C   0  0  0  0  0  0  0  0  0  0  0  0
   58.9490   28.3160   47.9300 C   0  0  0  0  0  0  0  0  0  0  0  0
   57.8080   28.0980   47.1050 O   0  0  0  0  0  0  0  0  0  0  0  0
   57.6200   26.9370   46.3710 C   0  0  0  0  0  0  0  0  0  0  0  0
   57.4720   25.6900   46.9240 C   0  0  0  0  0  0  0  0  0  0  0  0
   57.2870   24.5800   46.1350 C   0  0  0  0  0  0  0  0  0  0  0  0
   57.2500   24.7310   44.7660 C   0  0  0  0  0  0  0  0  0  0  0  0
   57.0160   23.3600   43.6790 Cl  0  0  0  0  0  0  0  0  0  0  0  0
   57.3940   25.9730   44.1520 C   0  0  0  0  0  0  0  0  0  0  0  0
   57.5780   27.0570   45.0020 C   0  0  0  0  0  0  0  0  0  0  0  0
   57.7240   28.3300   44.3380 N   0  0  0  0  0  0  0  0  0  0  0  0
   56.5930   29.1850   44.3920 C   0  0  0  0  0  0  0  0  0  0  0  0
   55.5200   28.8950   44.9650 O   0  0  0  0  0  0  0  0  0  0  0  0
   56.6880   30.5130   43.7230 C   0  0  0  0  0  0  0  0  0  0  0  0
   56.7120   31.5610   44.6680 O   0  0  0  0  0  0  0  0  0  0  0  0
   57.8790   31.8000   45.3570 C   0  0  0  0  0  0  0  0  0  0  0  0
   58.1090   33.1240   45.7440 C   0  0  0  0  0  0  0  0  0  0  0  0
   59.2590   33.4330   46.4400 C   0  0  0  0  0  0  0  0  0  0  0  0
   60.1990   32.4820   46.7720 C   0  0  0  0  0  0  0  0  0  0  0  0
   61.4230   32.7780   47.5050 C   0  0  0  0  0  0  0  0  0  0  0  0
   61.4630   33.5840   48.6220 C   0  0  0  0  0  0  0  0  0  0  0  0
   62.6450   33.8400   49.2890 C   0  0  0  0  0  0  0  0  0  0  0  0
   63.8250   33.2840   48.8440 C   0  0  0  0  0  0  0  0  0  0  0  0
   64.9380   33.4760   49.4060 O   0  0  0  0  0  0  0  0  0  0  0  0
   63.7490   32.4990   47.7460 N   0  0  0  0  0  0  0  0  0  0  0  0
   62.6160   32.2560   47.1100 N   0  0  0  0  0  0  0  0  0  0  0  0
   59.9600   31.1800   46.3840 C   0  0  0  0  0  0  0  0  0  0  0  0
   58.8040   30.8290   45.6780 C   0  0  0  0  0  0  0  0  0  0  0  0
   60.9336   27.5718   48.1323 H   0  0  0  0  0  0  0  0  0  0  0  0
   60.0329   26.9503   46.7078 H   0  0  0  0  0  0  0  0  0  0  0  0
   60.6636   28.6322   46.7078 H   0  0  0  0  0  0  0  0  0  0  0  0
   58.7936   27.7885   48.8827 H   0  0  0  0  0  0  0  0  0  0  0  0
   59.0456   29.4039   48.0610 H   0  0  0  0  0  0  0  0  0  0  0  0
   57.5019   25.5768   48.0177 H   0  0  0  0  0  0  0  0  0  0  0  0
   57.1701   23.5853   46.5899 H   0  0  0  0  0  0  0  0  0  0  0  0
   57.3639   26.0890   43.0585 H   0  0  0  0  0  0  0  0  0  0  0  0
   58.5930   28.6100   43.8530 H   0  0  0  0  0  0  0  0  0  0  0  0
   57.6106   30.5481   43.1250 H   0  0  0  0  0  0  0  0  0  0  0  0
   55.8041   30.6433   43.0813 H   0  0  0  0  0  0  0  0  0  0  0  0
   57.3808   33.9103   45.4961 H   0  0  0  0  0  0  0  0  0  0  0  0
   59.4320   34.4768   46.7410 H   0  0  0  0  0  0  0  0  0  0  0  0
   60.5302   34.0348   48.9917 H   0  0  0  0  0  0  0  0  0  0  0  0
   62.6446   34.4890   50.1772 H   0  0  0  0  0  0  0  0  0  0  0  0
   64.6130   32.0560   47.3710 H   0  0  0  0  0  0  0  0  0  0  0  0
   60.6944   30.4005   46.6351 H   0  0  0  0  0  0  0  0  0  0  0  0
   58.6340   29.7837   45.3806 H   0  0  0  0  0  0  0  0  0  0  0  0
  1  2  1  0
  2  3  1  0
  3  4  1  0
  4  5  2  0
  5  6  1  0
  6  7  2  0
  7  8  1  0
  7  9  1  0
  9 10  2  0
 10 11  1  0
 11 12  1  0
 12 13  2  0
 12 14  1  0
 14 15  1  0
 15 16  1  0
 16 17  2  0
 17 18  1  0
 18 19  2  0
 19 20  1  0
 20 21  1  0
 21 22  2  0
 22 23  1  0
 23 24  2  0
 23 25  1  0
 25 26  1  0
 19 27  1  0
 27 28  2  0
 10  4  1  0
 28 16  1  0
 26 20  2  0
  1 29  1  0
  1 30  1  0
  1 31  1  0
  2 32  1  0
  2 33  1  0
  5 34  1  0
  6 35  1  0
  9 36  1  0
 11 37  1  0
 14 38  1  0
 14 39  1  0
 17 40  1  0
 18 41  1  0
 21 42  1  0
 22 43  1  0
 25 44  1  0
 27 45  1  0
 28 46  1  0
M  END
>  <smiles>  (71) 
CCOc1ccc(Cl)cc1NC(=O)COc1ccc(-c2ccc(=O)[nH]n2)cc1

>  <score_type>  (71) 
oracle

>  <origin>  (71) 
adg

>  <m_score__min__energy>  (71) 
-8.4299999999999997

>  <m_primary>  (71) 
energy

$$$$
71:0
     RDKit          3D

 44 47  0  0  0  0  0  0  0  0999 V2000
   59.4370   34.4330   47.9850 C   0  0  0  0  0  0  0  0  0  0  0  0
   58.2940   33.7540   47.4750 O   0  0  0  0  0  0  0  0  0  0  0  0
   58.1710   33.2900   46.1570 C   0  0  0  0  0  0  0  0  0  0  0  0
   58.8020   33.9440   45.0610 C   0  0  0  0  0  0  0  0  0  0  0  0
   58.6570   33.4490   43.7520 C   0  0  0  0  0  0  0  0  0  0  0  0
   57.8810   32.3080   43.5670 C   0  0  0  0  0  0  0  0  0  0  0  0
   57.6370   31.6670   42.4100 N   0  0  0  0  0  0  0  0  0  0  0  0
   56.8590   30.6070   42.7270 C   0  0  0  0  0  0  0  0  0  0  0  0
   56.6010   30.5860   44.0940 C   0  0  0  0  0  0  0  0  0  0  0  0
   55.8540   29.5260   44.8430 C   0  0  0  0  0  0  0  0  0  0  0  0
   56.7870   28.4250   45.2360 C   0  0  0  0  0  0  0  0  0  0  0  0
   58.1280   28.4690   45.0980 N   0  0  0  0  0  0  0  0  0  0  0  0
   58.5600   27.2600   45.5110 C   0  0  0  0  0  0  0  0  0  0  0  0
   59.7770   26.9330   45.5390 O   0  0  0  0  0  0  0  0  0  0  0  0
   57.5540   26.4410   45.8870 N   0  0  0  0  0  0  0  0  0  0  0  0
   57.6540   25.0930   46.4420 C   0  0  0  0  0  0  0  0  0  0  0  0
   57.3980   24.0740   45.3650 C   0  0  0  0  0  0  0  0  0  0  0  0
   56.4500   24.3290   44.3600 C   0  0  0  0  0  0  0  0  0  0  0  0
   56.2410   23.3990   43.3360 C   0  0  0  0  0  0  0  0  0  0  0  0
   56.9830   22.2150   43.3050 C   0  0  0  0  0  0  0  0  0  0  0  0
   57.9360   21.9600   44.2950 C   0  0  0  0  0  0  0  0  0  0  0  0
   58.1480   22.8870   45.3200 C   0  0  0  0  0  0  0  0  0  0  0  0
   56.4400   27.1780   45.7170 C   0  0  0  0  0  0  0  0  0  0  0  0
   55.1500   26.7350   45.9870 O   0  0  0  0  0  0  0  0  0  0  0  0
   57.2710   31.6750   44.6180 C   0  0  0  0  0  0  0  0  0  0  0  0
   57.3960   32.1380   45.9280 C   0  0  0  0  0  0  0  0  0  0  0  0
   59.4120   34.4181   49.0846 H   0  0  0  0  0  0  0  0  0  0  0  0
   60.3497   33.9305   47.6322 H   0  0  0  0  0  0  0  0  0  0  0  0
   59.4323   35.4749   47.6322 H   0  0  0  0  0  0  0  0  0  0  0  0
   59.4083   34.8443   45.2392 H   0  0  0  0  0  0  0  0  0  0  0  0
   59.1421   33.9485   42.9004 H   0  0  0  0  0  0  0  0  0  0  0  0
   57.9890   31.9230   41.4610 H   0  0  0  0  0  0  0  0  0  0  0  0
   56.4833   29.8662   42.0059 H   0  0  0  0  0  0  0  0  0  0  0  0
   55.4069   29.9650   45.7471 H   0  0  0  0  0  0  0  0  0  0  0  0
   55.0631   29.1165   44.1975 H   0  0  0  0  0  0  0  0  0  0  0  0
   58.7080   29.2650   44.7470 H   0  0  0  0  0  0  0  0  0  0  0  0
   58.6628   24.9424   46.8539 H   0  0  0  0  0  0  0  0  0  0  0  0
   56.9047   24.9734   47.2384 H   0  0  0  0  0  0  0  0  0  0  0  0
   55.8699   25.2634   44.3783 H   0  0  0  0  0  0  0  0  0  0  0  0
   55.4926   23.5996   42.5552 H   0  0  0  0  0  0  0  0  0  0  0  0
   56.8168   21.4832   42.5007 H   0  0  0  0  0  0  0  0  0  0  0  0
   58.5203   21.0284   44.2677 H   0  0  0  0  0  0  0  0  0  0  0  0
   58.9041   22.6863   46.0933 H   0  0  0  0  0  0  0  0  0  0  0  0
   56.9015   31.6160   46.7605 H   0  0  0  0  0  0  0  0  0  0  0  0
  1  2  1  0
  2  3  1  0
  3  4  2  0
  4  5  1  0
  5  6  2  0
  6  7  1  0
  7  8  1  0
  8  9  2  0
  9 10  1  0
 10 11  1  0
 11 12  1  0
 12 13  1  0
 13 14  2  0
 13 15  1  0
 15 16  1  0
 16 17  1  0
 17 18  2  0
 18 19  1  0
 19 20  2  0
 20 21  1  0
 21 22  2  0
 15 23  1  0
 23 24  1  0
  9 25  1  0
 25 26  2  0
 26  3  1  0
 25  6  1  0
 23 11  2  0
 22 17  1  0
  1 27  1  0
  1 28  1  0
  1 29  1  0
  4 30  1  0
  5 31  1  0
  7 32  1  0
  8 33  1  0
 10 34  1  0
 10 35  1  0
 12 36  1  0
 16 37  1  0
 16 38  1  0
 18 39  1  0
 19 40  1  0
 20 41  1  0
 21 42  1  0
 22 43  1  0
 26 44  1  0
M  CHG  1  24  -1
M  END
>  <UniqueID>  (72) 
62

>  <SMILES>  (72) 
COc1ccc2[nH]cc(Cc3[nH]c(=O)n(Cc4ccccc4)c3[O-])c2c1

>  <Energy>  (72) 
109.94234323580108

>  <Genealogy>  (72) 
COc1ccc2[nH]cc(Cc3[nH]c(=O)n(Cc4ccccc4)c3[O-])c2c1 (protonated)
COc1ccc2[nH]cc(Cc3[nH]c(=O)n(Cc4ccccc4)c3[O-])c2c1 (3D coordinates assigned)
COc1ccc2[nH]cc(Cc3[nH]c(=O)n(Cc4ccccc4)c3[O-])c2c1 (optimized conformer: 109.94234323580108 kcal/mol)

>  <smiles>  (72) 
COc1ccc2[nH]cc(Cc3[nH]c(=O)n(Cc4ccccc4)c3O)c2c1

>  <score_type>  (72) 
oracle

>  <origin>  (72) 
adg

>  <m_score__min__energy>  (72) 
-11.02

>  <m_primary>  (72) 
energy

$$$$
72:0
     RDKit          3D

 45 47  0  0  0  0  0  0  0  0999 V2000
   57.4430   34.2080   44.8460 C   0  0  0  0  0  0  0  0  0  0  0  0
   57.6060   33.7670   46.3070 C   0  0  0  0  0  0  0  0  0  0  0  0
   58.9670   33.9710   46.8570 N   0  0  0  0  0  0  0  0  0  0  0  0
   59.0770   33.7460   48.3170 C   0  0  0  0  0  0  0  0  0  0  0  0
   60.1870   34.5940   48.9360 C   0  0  0  0  0  0  0  0  0  0  0  0
   59.9950   33.2160   46.1100 C   0  0  0  0  0  0  0  0  0  0  0  0
   59.7930   31.7260   46.3030 C   0  0  0  0  0  0  0  0  0  0  0  0
   58.7640   31.1130   45.6510 N   0  0  0  0  0  0  0  0  0  0  0  0
   58.5120   29.7820   45.8020 C   0  0  0  0  0  0  0  0  0  0  0  0
   57.4420   29.1530   45.1240 C   0  0  0  0  0  0  0  0  0  0  0  0
   56.2620   30.1010   43.9420 Br  0  0  0  0  0  0  0  0  0  0  0  0
   57.2120   27.7840   45.3020 C   0  0  0  0  0  0  0  0  0  0  0  0
   58.0290   27.0320   46.1460 C   0  0  0  0  0  0  0  0  0  0  0  0
   57.6970   25.1650   46.3780 Br  0  0  0  0  0  0  0  0  0  0  0  0
   59.0860   27.6420   46.8220 C   0  0  0  0  0  0  0  0  0  0  0  0
   59.3350   29.0170   46.6570 C   0  0  0  0  0  0  0  0  0  0  0  0
   60.3890   29.6610   47.3250 C   0  0  0  0  0  0  0  0  0  0  0  0
   61.1410   29.0000   48.0970 O   0  0  0  0  0  0  0  0  0  0  0  0
   60.6040   31.0010   47.1430 N   0  0  0  0  0  0  0  0  0  0  0  0
   61.6820   31.6370   47.8540 C   0  0  0  0  0  0  0  0  0  0  0  0
   61.6770   31.6680   49.2580 C   0  0  0  0  0  0  0  0  0  0  0  0
   62.7100   32.3050   49.9490 C   0  0  0  0  0  0  0  0  0  0  0  0
   63.7580   32.9060   49.2440 C   0  0  0  0  0  0  0  0  0  0  0  0
   63.7740   32.8680   47.8460 C   0  0  0  0  0  0  0  0  0  0  0  0
   62.7400   32.2320   47.1510 C   0  0  0  0  0  0  0  0  0  0  0  0
   57.0618   35.2394   44.8147 H   0  0  0  0  0  0  0  0  0  0  0  0
   58.4176   34.1617   44.3381 H   0  0  0  0  0  0  0  0  0  0  0  0
   56.7327   33.5390   44.3381 H   0  0  0  0  0  0  0  0  0  0  0  0
   56.8965   34.3408   46.9213 H   0  0  0  0  0  0  0  0  0  0  0  0
   57.4148   32.6840   46.3325 H   0  0  0  0  0  0  0  0  0  0  0  0
   58.1202   34.0092   48.7916 H   0  0  0  0  0  0  0  0  0  0  0  0
   59.3206   32.6864   48.4839 H   0  0  0  0  0  0  0  0  0  0  0  0
   60.1195   34.5424   50.0327 H   0  0  0  0  0  0  0  0  0  0  0  0
   61.1656   34.2113   48.6105 H   0  0  0  0  0  0  0  0  0  0  0  0
   60.0751   35.6388   48.6105 H   0  0  0  0  0  0  0  0  0  0  0  0
   59.9173   33.4577   45.0397 H   0  0  0  0  0  0  0  0  0  0  0  0
   60.9901   33.4953   46.4866 H   0  0  0  0  0  0  0  0  0  0  0  0
   58.1580   31.6920   45.0280 H   0  0  0  0  0  0  0  0  0  0  0  0
   56.3801   27.2971   44.7720 H   0  0  0  0  0  0  0  0  0  0  0  0
   59.7277   27.0453   47.4870 H   0  0  0  0  0  0  0  0  0  0  0  0
   60.8577   31.1895   49.8146 H   0  0  0  0  0  0  0  0  0  0  0  0
   62.6995   32.3341   51.0486 H   0  0  0  0  0  0  0  0  0  0  0  0
   64.5701   33.4089   49.7895 H   0  0  0  0  0  0  0  0  0  0  0  0
   64.6001   33.3385   47.2927 H   0  0  0  0  0  0  0  0  0  0  0  0
   62.7566   32.1984   46.0516 H   0  0  0  0  0  0  0  0  0  0  0  0
  1  2  1  0
  2  3  1  0
  3  4  1  0
  4  5  1  0
  3  6  1  0
  6  7  1  0
  7  8  2  0
  8  9  1  0
  9 10  2  0
 10 11  1  0
 10 12  1  0
 12 13  2  0
 13 14  1  0
 13 15  1  0
 15 16  2  0
 16 17  1  0
 17 18  2  0
 17 19  1  0
 19 20  1  0
 20 21  2  0
 21 22  1  0
 22 23  2  0
 23 24  1  0
 24 25  2  0
 19  7  1  0
 25 20  1  0
 16  9  1  0
  1 26  1  0
  1 27  1  0
  1 28  1  0
  2 29  1  0
  2 30  1  0
  4 31  1  0
  4 32  1  0
  5 33  1  0
  5 34  1  0
  5 35  1  0
  6 36  1  0
  6 37  1  0
  8 38  1  0
 12 39  1  0
 15 40  1  0
 21 41  1  0
 22 42  1  0
 23 43  1  0
 24 44  1  0
 25 45  1  0
M  CHG  1   8   1
M  END
>  <UniqueID>  (73) 
63

>  <SMILES>  (73) 
CCN(CC)Cc1[nH+]c2c(Br)cc(Br)cc2c(=O)n1-c1ccccc1

>  <Energy>  (73) 
62.77183591746732

>  <Genealogy>  (73) 
CCN(CC)Cc1[nH+]c2c(Br)cc(Br)cc2c(=O)n1-c1ccccc1 (protonated)
CCN(CC)Cc1[nH+]c2c(Br)cc(Br)cc2c(=O)n1-c1ccccc1 (3D coordinates assigned)
CCN(CC)Cc1[nH+]c2c(Br)cc(Br)cc2c(=O)n1-c1ccccc1 (optimized conformer: 62.77183591746732 kcal/mol)

>  <smiles>  (73) 
CCN(CC)Cc1nc2c(Br)cc(Br)cc2c(=O)n1-c1ccccc1

>  <score_type>  (73) 
oracle

>  <origin>  (73) 
adg

>  <m_score__min__energy>  (73) 
-6.5999999999999996

>  <m_primary>  (73) 
energy

$$$$
73:0
     RDKit          3D

 36 37  0  0  0  0  0  0  0  0999 V2000
   56.7610   30.7430   44.2740 C   0  0  0  0  0  0  0  0  0  0  0  0
   55.6360   29.7180   44.2000 C   0  0  0  0  0  0  0  0  0  0  0  0
   55.8920   28.6180   45.0730 O   0  0  0  0  0  0  0  0  0  0  0  0
   57.0160   27.7920   44.9680 C   0  0  0  0  0  0  0  0  0  0  0  0
   57.9520   28.0830   44.1740 O   0  0  0  0  0  0  0  0  0  0  0  0
   57.1450   26.6090   45.8470 C   0  0  0  0  0  0  0  0  0  0  0  0
   58.4020   26.1060   46.2720 C   0  0  0  0  0  0  0  0  0  0  0  0
   59.6440   26.7940   46.0100 N   0  0  0  0  0  0  0  0  0  0  0  0
   59.7290   27.9670   46.8430 C   0  0  0  0  0  0  0  0  0  0  0  0
   59.6100   27.8580   48.2400 C   0  0  0  0  0  0  0  0  0  0  0  0
   59.6640   28.9970   49.0480 C   0  0  0  0  0  0  0  0  0  0  0  0
   59.8300   30.2700   48.4690 C   0  0  0  0  0  0  0  0  0  0  0  0
   59.8890   31.4430   49.2370 O   0  0  0  0  0  0  0  0  0  0  0  0
   59.5800   32.7430   48.7460 C   0  0  0  0  0  0  0  0  0  0  0  0
   59.9420   30.3780   47.0790 C   0  0  0  0  0  0  0  0  0  0  0  0
   59.8880   29.2400   46.2710 C   0  0  0  0  0  0  0  0  0  0  0  0
   58.4360   24.9910   47.0540 N   0  0  0  0  0  0  0  0  0  0  0  0
   57.3050   24.3470   47.4310 C   0  0  0  0  0  0  0  0  0  0  0  0
   57.3790   23.3160   48.1480 O   0  0  0  0  0  0  0  0  0  0  0  0
   56.0960   24.8180   47.0440 N   0  0  0  0  0  0  0  0  0  0  0  0
   55.9880   25.9260   46.2700 C   0  0  0  0  0  0  0  0  0  0  0  0
   54.8430   26.3230   45.9240 O   0  0  0  0  0  0  0  0  0  0  0  0
   56.9945   30.9557   45.3277 H   0  0  0  0  0  0  0  0  0  0  0  0
   57.6552   30.3427   43.7739 H   0  0  0  0  0  0  0  0  0  0  0  0
   56.4454   31.6705   43.7739 H   0  0  0  0  0  0  0  0  0  0  0  0
   54.6910   30.1985   44.4934 H   0  0  0  0  0  0  0  0  0  0  0  0
   55.5709   29.3409   43.1687 H   0  0  0  0  0  0  0  0  0  0  0  0
   59.7510   27.0500   45.0050 H   0  0  0  0  0  0  0  0  0  0  0  0
   60.4400   26.1510   46.2320 H   0  0  0  0  0  0  0  0  0  0  0  0
   59.4733   26.8684   48.7004 H   0  0  0  0  0  0  0  0  0  0  0  0
   59.5765   28.8988   50.1401 H   0  0  0  0  0  0  0  0  0  0  0  0
   59.4177   33.4258   49.5930 H   0  0  0  0  0  0  0  0  0  0  0  0
   60.4156   33.1115   48.1328 H   0  0  0  0  0  0  0  0  0  0  0  0
   58.6680   32.6961   48.1328 H   0  0  0  0  0  0  0  0  0  0  0  0
   60.0738   31.3680   46.6181 H   0  0  0  0  0  0  0  0  0  0  0  0
   59.9706   29.3414   45.1788 H   0  0  0  0  0  0  0  0  0  0  0  0
  1  2  1  0
  2  3  1  0
  3  4  1  0
  4  5  2  0
  4  6  1  0
  6  7  2  0
  7  8  1  0
  8  9  1  0
  9 10  2  0
 10 11  1  0
 11 12  2  0
 12 13  1  0
 13 14  1  0
 12 15  1  0
 15 16  2  0
  7 17  1  0
 17 18  1  0
 18 19  2  0
 18 20  1  0
 20 21  1  0
 21 22  2  0
 21  6  1  0
 16  9  1  0
  1 23  1  0
  1 24  1  0
  1 25  1  0
  2 26  1  0
  2 27  1  0
  8 28  1  0
  8 29  1  0
 10 30  1  0
 11 31  1  0
 14 32  1  0
 14 33  1  0
 14 34  1  0
 15 35  1  0
 16 36  1  0
M  CHG  3   8   1  17  -1  20  -1
M  END
>  <UniqueID>  (74) 
64

>  <SMILES>  (74) 
CCOC(=O)c1c([NH2+]c2ccc(OC)cc2)[n-]c(=O)[n-]c1=O

>  <Energy>  (74) 
41.692474606505336

>  <Genealogy>  (74) 
CCOC(=O)c1c([NH2+]c2ccc(OC)cc2)[n-]c(=O)[n-]c1=O (protonated)
CCOC(=O)c1c([NH2+]c2ccc(OC)cc2)[n-]c(=O)[n-]c1=O (3D coordinates assigned)
CCOC(=O)c1c([NH2+]c2ccc(OC)cc2)[n-]c(=O)[n-]c1=O (optimized conformer: 41.692474606505336 kcal/mol)

>  <smiles>  (74) 
CCOC(=O)c1c(Nc2ccc(OC)cc2)[nH]c(=O)[nH]c1=O

>  <score_type>  (74) 
oracle

>  <origin>  (74) 
adg

>  <m_score__min__energy>  (74) 
-8.4199999999999999

>  <m_primary>  (74) 
energy

$$$$
74:0
     RDKit          3D

 46 48  0  0  0  0  0  0  0  0999 V2000
   57.5723   34.9119   46.5126 H   0  0  0  0  0  0  0  0  0  0  0  0
   58.3060   34.1930   46.1190 C   0  0  0  0  0  0  0  0  0  0  0  0
   57.8540   32.8260   45.7980 C   0  0  0  0  0  0  0  0  0  0  0  0
   56.7020   32.6720   45.3090 O   0  0  0  0  0  0  0  0  0  0  0  0
   58.6710   31.6770   46.0860 N   0  0  0  0  0  0  0  0  0  0  0  0
   59.3480   31.7420   46.8790 H   0  0  0  0  0  0  0  0  0  0  0  0
   58.5000   30.3970   45.4520 C   0  0  0  0  0  0  0  0  0  0  0  0
   59.5900   29.5370   45.2300 C   0  0  0  0  0  0  0  0  0  0  0  0
   60.6024   29.8502   45.5250 H   0  0  0  0  0  0  0  0  0  0  0  0
   59.3950   28.2870   44.6370 C   0  0  0  0  0  0  0  0  0  0  0  0
   60.2575   27.6295   44.4533 H   0  0  0  0  0  0  0  0  0  0  0  0
   58.1070   27.8640   44.2740 C   0  0  0  0  0  0  0  0  0  0  0  0
   57.8970   26.5030   43.6530 C   0  0  0  0  0  0  0  0  0  0  0  0
   56.9799   26.5369   43.0465 H   0  0  0  0  0  0  0  0  0  0  0  0
   58.7926   26.2844   43.0529 H   0  0  0  0  0  0  0  0  0  0  0  0
   57.7630   25.4070   44.6400 N   0  0  0  0  0  0  0  0  0  0  0  0
   57.9920   25.7970   46.0460 C   0  0  0  0  0  0  0  0  0  0  0  0
   58.4319   24.9420   46.5802 H   0  0  0  0  0  0  0  0  0  0  0  0
   58.6649   26.6672   46.0419 H   0  0  0  0  0  0  0  0  0  0  0  0
   56.6930   26.2180   46.7730 C   0  0  0  0  0  0  0  0  0  0  0  0
   56.5741   25.5922   47.6698 H   0  0  0  0  0  0  0  0  0  0  0  0
   56.7878   27.2840   47.0272 H   0  0  0  0  0  0  0  0  0  0  0  0
   55.5400   26.0750   45.9670 O   0  0  0  0  0  0  0  0  0  0  0  0
   55.4790   24.7610   45.4630 C   0  0  0  0  0  0  0  0  0  0  0  0
   55.5885   24.0504   46.2955 H   0  0  0  0  0  0  0  0  0  0  0  0
   54.5091   24.6205   44.9635 H   0  0  0  0  0  0  0  0  0  0  0  0
   56.6000   24.5140   44.4390 C   0  0  0  0  0  0  0  0  0  0  0  0
   56.9370   23.4709   44.5307 H   0  0  0  0  0  0  0  0  0  0  0  0
   56.1896   24.7221   43.4399 H   0  0  0  0  0  0  0  0  0  0  0  0
   57.0180   28.7230   44.4980 C   0  0  0  0  0  0  0  0  0  0  0  0
   56.0052   28.4100   44.2042 H   0  0  0  0  0  0  0  0  0  0  0  0
   57.2140   29.9730   45.0920 C   0  0  0  0  0  0  0  0  0  0  0  0
   56.3513   30.6294   45.2784 H   0  0  0  0  0  0  0  0  0  0  0  0
   59.5740   34.5960   45.9510 C   0  0  0  0  0  0  0  0  0  0  0  0
   59.8020   35.2565   45.1014 H   0  0  0  0  0  0  0  0  0  0  0  0
   60.6850   34.1990   46.8490 C   0  0  0  0  0  0  0  0  0  0  0  0
   61.9600   33.8410   46.3650 C   0  0  0  0  0  0  0  0  0  0  0  0
   62.1533   33.8403   45.2821 H   0  0  0  0  0  0  0  0  0  0  0  0
   62.9800   33.4870   47.2530 C   0  0  0  0  0  0  0  0  0  0  0  0
   63.9696   33.2021   46.8662 H   0  0  0  0  0  0  0  0  0  0  0  0
   62.7460   33.4940   48.6310 C   0  0  0  0  0  0  0  0  0  0  0  0
   64.0290   33.0520   49.7420 Cl  0  0  0  0  0  0  0  0  0  0  0  0
   61.4920   33.8640   49.1230 C   0  0  0  0  0  0  0  0  0  0  0  0
   61.3093   33.8763   50.2077 H   0  0  0  0  0  0  0  0  0  0  0  0
   60.4680   34.2190   48.2380 C   0  0  0  0  0  0  0  0  0  0  0  0
   59.4850   34.5162   48.6322 H   0  0  0  0  0  0  0  0  0  0  0  0
  1  2  1  0
  2  3  1  0
  3  4  2  0
  3  5  1  0
  5  6  1  0
  5  7  1  0
  7  8  2  0
  8  9  1  0
  8 10  1  0
 10 11  1  0
 10 12  2  0
 12 13  1  0
 13 14  1  0
 13 15  1  0
 13 16  1  0
 16 17  1  0
 17 18  1  0
 17 19  1  0
 17 20  1  0
 20 21  1  0
 20 22  1  0
 20 23  1  0
 23 24  1  0
 24 25  1  0
 24 26  1  0
 24 27  1  0
 27 28  1  0
 27 29  1  0
 12 30  1  0
 30 31  1  0
 30 32  2  0
 32 33  1  0
  2 34  2  0
 34 35  1  0
 34 36  1  0
 36 37  2  0
 37 38  1  0
 37 39  1  0
 39 40  1  0
 39 41  2  0
 41 42  1  0
 41 43  1  0
 43 44  1  0
 43 45  2  0
 45 46  1  0
 32  7  1  0
 45 36  1  0
 27 16  1  0
M  END
>  <UniqueID>  (75) 
65

>  <SMILES>  (75) 
O=C(/C=C/c1ccc(Cl)cc1)Nc1ccc(CN2CCOCC2)cc1

>  <Energy>  (75) 
67.94703801323058

>  <Genealogy>  (75) 
O=C(/C=C/c1ccc(Cl)cc1)Nc1ccc(CN2CCOCC2)cc1 (cis-trans isomerization)
O=C(/C=C/c1ccc(Cl)cc1)Nc1ccc(CN2CCOCC2)cc1 (3D coordinates assigned)
O=C(/C=C/c1ccc(Cl)cc1)Nc1ccc(CN2CCOCC2)cc1 (nonaromatic ring conformer: 67.94703801323058 kcal/mol)

>  <smiles>  (75) 
O=C(C=Cc1ccc(Cl)cc1)Nc1ccc(CN2CCOCC2)cc1

>  <score_type>  (75) 
oracle

>  <origin>  (75) 
adg

>  <m_score__min__energy>  (75) 
-8.7599999999999998

>  <m_primary>  (75) 
energy

$$$$
75:0
     RDKit          3D

 46 46  0  0  0  0  0  0  0  0999 V2000
   60.4631   28.8962   46.2118 H   0  0  0  0  0  0  0  0  0  0  0  0
   59.7190   29.5230   46.7250 C   0  0  0  0  0  0  0  0  0  0  0  0
   60.1000   30.3950   47.6080 N   0  0  0  0  0  0  0  0  0  0  0  0
   61.0020   31.4830   47.3540 C   0  0  0  0  0  0  0  0  0  0  0  0
   62.3700   31.2660   47.5600 C   0  0  0  0  0  0  0  0  0  0  0  0
   62.7196   30.2812   47.9033 H   0  0  0  0  0  0  0  0  0  0  0  0
   63.2940   32.2870   47.3340 C   0  0  0  0  0  0  0  0  0  0  0  0
   64.3675   32.1008   47.4854 H   0  0  0  0  0  0  0  0  0  0  0  0
   62.8560   33.5440   46.9160 C   0  0  0  0  0  0  0  0  0  0  0  0
   63.7560   34.5330   46.6940 F   0  0  0  0  0  0  0  0  0  0  0  0
   61.4920   33.7870   46.7350 C   0  0  0  0  0  0  0  0  0  0  0  0
   61.1533   34.7808   46.4069 H   0  0  0  0  0  0  0  0  0  0  0  0
   60.5460   32.7670   46.9700 C   0  0  0  0  0  0  0  0  0  0  0  0
   59.1630   32.9920   46.8510 O   0  0  0  0  0  0  0  0  0  0  0  0
   58.5330   33.9840   46.0380 C   0  0  0  0  0  0  0  0  0  0  0  0
   58.6412   34.9741   46.5048 H   0  0  0  0  0  0  0  0  0  0  0  0
   59.2020   33.9830   44.6660 C   0  0  0  0  0  0  0  0  0  0  0  0
   60.2949   33.9814   44.7910 H   0  0  0  0  0  0  0  0  0  0  0  0
   58.8953   33.0853   44.1092 H   0  0  0  0  0  0  0  0  0  0  0  0
   58.8980   34.8816   44.1092 H   0  0  0  0  0  0  0  0  0  0  0  0
   57.0370   33.6840   45.9000 C   0  0  0  0  0  0  0  0  0  0  0  0
   56.5874   33.5938   46.8998 H   0  0  0  0  0  0  0  0  0  0  0  0
   56.5482   34.5020   45.3505 H   0  0  0  0  0  0  0  0  0  0  0  0
   56.9013   32.7408   45.3505 H   0  0  0  0  0  0  0  0  0  0  0  0
   58.2620   29.3730   46.4070 C   0  0  0  0  0  0  0  0  0  0  0  0
   57.6797   29.6453   47.2996 H   0  0  0  0  0  0  0  0  0  0  0  0
   57.8710   30.2940   45.2870 C   0  0  0  0  0  0  0  0  0  0  0  0
   58.7560   30.9770   44.7040 O   0  0  0  0  0  0  0  0  0  0  0  0
   56.5300   30.3760   44.8890 O   0  0  0  0  0  0  0  0  0  0  0  0
   56.0740   30.0130   43.5880 C   0  0  0  0  0  0  0  0  0  0  0  0
   54.9976   30.2257   43.5097 H   0  0  0  0  0  0  0  0  0  0  0  0
   56.2619   28.9404   43.4325 H   0  0  0  0  0  0  0  0  0  0  0  0
   56.8200   30.8030   42.5190 C   0  0  0  0  0  0  0  0  0  0  0  0
   57.4988   31.5219   43.0011 H   0  0  0  0  0  0  0  0  0  0  0  0
   57.4028   30.1120   41.8922 H   0  0  0  0  0  0  0  0  0  0  0  0
   56.0968   31.3453   41.8922 H   0  0  0  0  0  0  0  0  0  0  0  0
   57.9490   27.9490   46.0500 C   0  0  0  0  0  0  0  0  0  0  0  0
   57.0340   27.3290   46.6610 O   0  0  0  0  0  0  0  0  0  0  0  0
   58.6910   27.3150   45.0470 O   0  0  0  0  0  0  0  0  0  0  0  0
   58.1160   26.4300   44.0890 C   0  0  0  0  0  0  0  0  0  0  0  0
   58.7011   25.4990   44.0605 H   0  0  0  0  0  0  0  0  0  0  0  0
   57.0769   26.2187   44.3815 H   0  0  0  0  0  0  0  0  0  0  0  0
   58.1160   27.0640   42.7020 C   0  0  0  0  0  0  0  0  0  0  0  0
   59.1531   27.2164   42.3685 H   0  0  0  0  0  0  0  0  0  0  0  0
   57.5975   26.3996   41.9951 H   0  0  0  0  0  0  0  0  0  0  0  0
   57.5975   28.0333   42.7419 H   0  0  0  0  0  0  0  0  0  0  0  0
  1  2  1  0
  2  3  2  0
  3  4  1  0
  4  5  2  0
  5  6  1  0
  5  7  1  0
  7  8  1  0
  7  9  2  0
  9 10  1  0
  9 11  1  0
 11 12  1  0
 11 13  2  0
 13 14  1  0
 14 15  1  0
 15 16  1  0
 15 17  1  0
 17 18  1  0
 17 19  1  0
 17 20  1  0
 15 21  1  0
 21 22  1  0
 21 23  1  0
 21 24  1  0
  2 25  1  0
 25 26  1  0
 25 27  1  0
 27 28  2  0
 27 29  1  0
 29 30  1  0
 30 31  1  0
 30 32  1  0
 30 33  1  0
 33 34  1  0
 33 35  1  0
 33 36  1  0
 25 37  1  0
 37 38  2  0
 37 39  1  0
 39 40  1  0
 40 41  1  0
 40 42  1  0
 40 43  1  0
 43 44  1  0
 43 45  1  0
 43 46  1  0
 13  4  1  0
M  END
>  <UniqueID>  (76) 
66

>  <SMILES>  (76) 
CCOC(=O)C(/C=N/c1ccc(F)cc1OC(C)C)C(=O)OCC

>  <Energy>  (76) 
32.355257721680694

>  <Genealogy>  (76) 
CCOC(=O)C(/C=N/c1ccc(F)cc1OC(C)C)C(=O)OCC (cis-trans isomerization)
CCOC(=O)C(/C=N/c1ccc(F)cc1OC(C)C)C(=O)OCC (3D coordinates assigned)
CCOC(=O)C(/C=N/c1ccc(F)cc1OC(C)C)C(=O)OCC (optimized conformer: 32.355257721680694 kcal/mol)

>  <smiles>  (76) 
CCOC(=O)C(C=Nc1ccc(F)cc1OC(C)C)C(=O)OCC

>  <score_type>  (76) 
oracle

>  <origin>  (76) 
adg

>  <m_score__min__energy>  (76) 
-5.7199999999999998

>  <m_primary>  (76) 
energy

$$$$
76:0
     RDKit          3D

 43 46  0  0  0  0  0  0  0  0999 V2000
   59.9020   26.4070   45.9930 C   0  0  0  0  0  0  0  0  0  0  0  0
   59.3210   27.7810   45.8010 C   0  0  0  0  0  0  0  0  0  0  0  0
   59.7120   28.8180   46.6350 C   0  0  0  0  0  0  0  0  0  0  0  0
   59.0720   30.0520   46.5880 C   0  0  0  0  0  0  0  0  0  0  0  0
   58.1750   30.3290   45.5010 C   0  0  0  0  0  0  0  0  0  0  0  0
   57.8120   29.2760   44.6610 N   0  0  0  0  0  0  0  0  0  0  0  0
   57.0000   29.5070   43.4440 C   0  0  0  0  0  0  0  0  0  0  0  0
   58.2820   28.0000   44.8930 C   0  0  0  0  0  0  0  0  0  0  0  0
   57.7370   26.8840   44.2450 O   0  0  0  0  0  0  0  0  0  0  0  0
   57.7330   31.5940   45.2330 C   0  0  0  0  0  0  0  0  0  0  0  0
   58.4050   32.8540   45.6360 C   0  0  0  0  0  0  0  0  0  0  0  0
   58.5850   33.8460   44.6560 C   0  0  0  0  0  0  0  0  0  0  0  0
   59.2010   35.0570   44.9740 C   0  0  0  0  0  0  0  0  0  0  0  0
   59.6320   35.2960   46.2770 C   0  0  0  0  0  0  0  0  0  0  0  0
   59.4390   34.3310   47.2670 C   0  0  0  0  0  0  0  0  0  0  0  0
   58.8150   33.1020   46.9580 C   0  0  0  0  0  0  0  0  0  0  0  0
   58.5320   32.0410   47.9880 C   0  0  2  0  0  0  0  0  0  0  0  0
   58.8900   32.4390   49.4070 C   0  0  0  0  0  0  0  0  0  0  0  0
   57.9470   32.3420   50.4490 C   0  0  0  0  0  0  0  0  0  0  0  0
   58.3030   32.6790   51.7590 C   0  0  0  0  0  0  0  0  0  0  0  0
   59.6030   33.1030   52.0440 C   0  0  0  0  0  0  0  0  0  0  0  0
   60.5510   33.1870   51.0210 C   0  0  0  0  0  0  0  0  0  0  0  0
   60.2000   32.8520   49.7100 C   0  0  0  0  0  0  0  0  0  0  0  0
   59.2400   30.8190   47.6290 N   0  0  0  0  0  0  0  0  0  0  0  0
   59.9921   26.1940   47.0684 H   0  0  0  0  0  0  0  0  0  0  0  0
   59.2422   25.6613   45.5255 H   0  0  0  0  0  0  0  0  0  0  0  0
   60.8966   26.3609   45.5255 H   0  0  0  0  0  0  0  0  0  0  0  0
   60.5393   28.6624   47.3431 H   0  0  0  0  0  0  0  0  0  0  0  0
   55.9794   29.7974   43.7338 H   0  0  0  0  0  0  0  0  0  0  0  0
   57.4545   30.3115   42.8472 H   0  0  0  0  0  0  0  0  0  0  0  0
   56.9630   28.5837   42.8472 H   0  0  0  0  0  0  0  0  0  0  0  0
   56.8440   26.8940   43.7690 H   0  0  0  0  0  0  0  0  0  0  0  0
   56.7941   31.6865   44.6674 H   0  0  0  0  0  0  0  0  0  0  0  0
   58.2367   33.6656   43.6283 H   0  0  0  0  0  0  0  0  0  0  0  0
   59.3461   35.8219   44.1969 H   0  0  0  0  0  0  0  0  0  0  0  0
   60.1254   36.2470   46.5262 H   0  0  0  0  0  0  0  0  0  0  0  0
   59.7753   34.5291   48.2954 H   0  0  0  0  0  0  0  0  0  0  0  0
   57.4428   31.8871   47.9818 H   0  0  0  0  0  0  0  0  0  0  0  0
   56.9247   31.9992   50.2312 H   0  0  0  0  0  0  0  0  0  0  0  0
   57.5584   32.6100   52.5657 H   0  0  0  0  0  0  0  0  0  0  0  0
   59.8805   33.3709   53.0742 H   0  0  0  0  0  0  0  0  0  0  0  0
   61.5754   33.5174   51.2477 H   0  0  0  0  0  0  0  0  0  0  0  0
   60.9530   32.9117   48.9103 H   0  0  0  0  0  0  0  0  0  0  0  0
  1  2  1  0
  2  3  2  0
  3  4  1  0
  4  5  1  0
  5  6  1  0
  6  7  1  0
  6  8  2  0
  8  9  1  0
  5 10  2  0
 10 11  1  0
 11 12  2  0
 12 13  1  0
 13 14  2  0
 14 15  1  0
 15 16  2  0
 16 17  1  0
 17 18  1  0
 18 19  2  0
 19 20  1  0
 20 21  2  0
 21 22  1  0
 22 23  2  0
 17 24  1  0
  8  2  1  0
 16 11  1  0
 23 18  1  0
 24  4  2  0
  1 25  1  0
  1 26  1  0
  1 27  1  0
  3 28  1  0
  7 29  1  0
  7 30  1  0
  7 31  1  0
  9 32  1  0
 10 33  1  0
 12 34  1  0
 13 35  1  0
 14 36  1  0
 15 37  1  0
 17 38  1  1
 19 39  1  0
 20 40  1  0
 21 41  1  0
 22 42  1  0
 23 43  1  0
M  CHG  1   6   1
M  END
>  <UniqueID>  (77) 
67

>  <SMILES>  (77) 
Cc1cc2c([n+](C)c1O)=Cc1ccccc1[C@H](c1ccccc1)N=2

>  <Energy>  (77) 
87.85027953737816

>  <Genealogy>  (77) 
Cc1cc2c([n+](C)c1O)=Cc1ccccc1[C@H](c1ccccc1)N=2 (chirality)
Cc1cc2c([n+](C)c1O)=Cc1ccccc1[C@H](c1ccccc1)N=2 (3D coordinates assigned)
Cc1cc2c([n+](C)c1O)=Cc1ccccc1[C@H](c1ccccc1)N=2 (nonaromatic ring conformer: 87.85027953737816 kcal/mol)

>  <smiles>  (77) 
Cc1cc2c([n+](C)c1O)=Cc1ccccc1C(c1ccccc1)N=2

>  <score_type>  (77) 
oracle

>  <origin>  (77) 
adg

>  <m_score__min__energy>  (77) 
-6.5499999999999998

>  <m_primary>  (77) 
energy

$$$$
77:0
     RDKit          3D

 42 42  0  0  1  0  0  0  0  0999 V2000
   59.2390   32.0820   49.8200 O   0  0  0  0  0  0  0  0  0  0  0  0
   59.8320   33.1490   49.6100 N   0  0  0  0  0  0  0  0  0  0  0  0
   59.5090   34.2110   50.4260 O   0  0  0  0  0  0  0  0  0  0  0  0
   60.8040   33.3710   48.6140 C   0  0  0  0  0  0  0  0  0  0  0  0
   62.0840   33.6760   49.0360 C   0  0  0  0  0  0  0  0  0  0  0  0
   63.1300   33.9260   48.1760 C   0  0  0  0  0  0  0  0  0  0  0  0
   62.8820   33.8670   46.8350 C   0  0  0  0  0  0  0  0  0  0  0  0
   61.6130   33.5640   46.4130 C   0  0  0  0  0  0  0  0  0  0  0  0
   60.5560   33.3120   47.2670 C   0  0  0  0  0  0  0  0  0  0  0  0
   58.9750   32.9260   46.6610 S   0  0  0  0  0  0  0  0  0  0  0  0
   57.8980   33.5880   47.5130 O   0  0  0  0  0  0  0  0  0  0  0  0
   58.8290   33.5810   45.3040 O   0  0  0  0  0  0  0  0  0  0  0  0
   58.6860   31.2250   46.5520 N   0  0  0  0  0  0  0  0  0  0  0  0
   59.9780   30.5960   46.4580 C   0  0  0  0  0  0  0  0  0  0  0  0
   59.9590   29.1210   46.5560 C   0  0  0  0  0  0  0  0  0  0  0  0
   58.6690   28.5000   46.9590 C   0  0  0  0  0  0  0  0  0  0  0  0
   57.8360   27.9980   45.8370 C   0  0  0  0  0  0  0  0  0  0  0  0
   58.2220   28.5620   44.4910 C   0  0  0  0  0  0  0  0  0  0  0  0
   57.0870   28.9300   43.6070 C   0  0  0  0  0  0  0  0  0  0  0  0
   56.3460   30.0310   44.2770 C   0  0  0  0  0  0  0  0  0  0  0  0
   55.1570   29.7830   44.9450 O   0  0  0  0  0  0  0  0  0  0  0  0
   56.7660   31.2620   44.2740 N   0  0  0  0  0  0  0  0  0  0  0  0
   56.3380   32.1650   45.2320 O   0  0  0  0  0  0  0  0  0  0  0  0
   62.2779   33.7216   50.1178 H   0  0  0  0  0  0  0  0  0  0  0  0
   64.1335   34.1656   48.5575 H   0  0  0  0  0  0  0  0  0  0  0  0
   63.6843   34.0587   46.1073 H   0  0  0  0  0  0  0  0  0  0  0  0
   61.4251   33.5188   45.3301 H   0  0  0  0  0  0  0  0  0  0  0  0
   58.2120   31.0950   45.6150 H   0  0  0  0  0  0  0  0  0  0  0  0
   60.4215   30.8687   45.4890 H   0  0  0  0  0  0  0  0  0  0  0  0
   60.5604   30.9557   47.3190 H   0  0  0  0  0  0  0  0  0  0  0  0
   60.2309   28.7169   45.5697 H   0  0  0  0  0  0  0  0  0  0  0  0
   60.6659   28.8733   47.3615 H   0  0  0  0  0  0  0  0  0  0  0  0
   58.8914   27.6528   47.6244 H   0  0  0  0  0  0  0  0  0  0  0  0
   58.0838   29.2950   47.4443 H   0  0  0  0  0  0  0  0  0  0  0  0
   57.9341   26.9032   45.7952 H   0  0  0  0  0  0  0  0  0  0  0  0
   56.8034   28.3212   46.0353 H   0  0  0  0  0  0  0  0  0  0  0  0
   58.8262   29.4652   44.6618 H   0  0  0  0  0  0  0  0  0  0  0  0
   58.7651   27.7598   43.9700 H   0  0  0  0  0  0  0  0  0  0  0  0
   57.4643   29.2692   42.6310 H   0  0  0  0  0  0  0  0  0  0  0  0
   56.4295   28.0649   43.4357 H   0  0  0  0  0  0  0  0  0  0  0  0
   54.7830   30.4680   45.6180 H   0  0  0  0  0  0  0  0  0  0  0  0
   57.0770   32.4800   45.8790 H   0  0  0  0  0  0  0  0  0  0  0  0
  1  2  2  0
  2  3  1  0
  2  4  1  0
  4  5  2  0
  5  6  1  0
  6  7  2  0
  7  8  1  0
  8  9  2  0
  9 10  1  0
 10 11  2  0
 10 12  2  0
 10 13  1  0
 13 14  1  0
 14 15  1  0
 15 16  1  0
 16 17  1  0
 17 18  1  0
 18 19  1  0
 19 20  1  0
 20 21  1  0
 20 22  2  0
 22 23  1  0
  9  4  1  0
  5 24  1  0
  6 25  1  0
  7 26  1  0
  8 27  1  0
 13 28  1  0
 14 29  1  0
 14 30  1  0
 15 31  1  0
 15 32  1  0
 16 33  1  0
 16 34  1  0
 17 35  1  0
 17 36  1  0
 18 37  1  0
 18 38  1  0
 19 39  1  0
 19 40  1  0
 21 41  1  0
 23 42  1  0
M  CHG  2   2   1   3  -1
M  END
>  <smiles>  (78) 
O=[N+]([O-])c1ccccc1S(=O)(=O)NCCCCCCC(O)=NO

>  <score_type>  (78) 
oracle

>  <origin>  (78) 
adg

>  <m_score__min__energy>  (78) 
-7.5899999999999999

>  <m_primary>  (78) 
energy

$$$$
78:0
     RDKit          3D

 45 47  0  0  0  0  0  0  0  0999 V2000
   57.8887   32.5129   41.6697 H   0  0  0  0  0  0  0  0  0  0  0  0
   57.8270   32.2230   42.7290 C   0  0  0  0  0  0  0  0  0  0  0  0
   58.3880   33.0450   43.7100 C   0  0  0  0  0  0  0  0  0  0  0  0
   58.8928   33.9777   43.4180 H   0  0  0  0  0  0  0  0  0  0  0  0
   58.3120   32.6900   45.0600 C   0  0  0  0  0  0  0  0  0  0  0  0
   58.8870   33.5510   46.0070 O   0  0  0  0  0  0  0  0  0  0  0  0
   59.2330   34.9090   45.7550 C   0  0  0  0  0  0  0  0  0  0  0  0
   59.3674   35.4366   46.7108 H   0  0  0  0  0  0  0  0  0  0  0  0
   60.1698   34.9480   45.1797 H   0  0  0  0  0  0  0  0  0  0  0  0
   58.4291   35.3915   45.1797 H   0  0  0  0  0  0  0  0  0  0  0  0
   57.6670   31.4900   45.4220 C   0  0  0  0  0  0  0  0  0  0  0  0
   57.5954   31.2079   46.4828 H   0  0  0  0  0  0  0  0  0  0  0  0
   57.1140   30.6500   44.4380 C   0  0  0  0  0  0  0  0  0  0  0  0
   56.4370   29.3920   44.8310 C   0  0  0  0  0  0  0  0  0  0  0  0
   55.1780   29.3540   44.8710 O   0  0  0  0  0  0  0  0  0  0  0  0
   57.1670   28.1920   45.1190 N   0  0  0  0  0  0  0  0  0  0  0  0
   58.2560   28.0630   46.0440 C   0  0  0  0  0  0  0  0  0  0  0  0
   59.1400   26.9700   46.0000 C   0  0  0  0  0  0  0  0  0  0  0  0
   58.9962   26.1786   45.2496 H   0  0  0  0  0  0  0  0  0  0  0  0
   60.2000   26.8860   46.9060 C   0  0  0  0  0  0  0  0  0  0  0  0
   60.8803   26.0221   46.8762 H   0  0  0  0  0  0  0  0  0  0  0  0
   60.3980   27.8970   47.8500 C   0  0  0  0  0  0  0  0  0  0  0  0
   61.2286   27.8236   48.5674 H   0  0  0  0  0  0  0  0  0  0  0  0
   59.5400   29.0040   47.8840 C   0  0  0  0  0  0  0  0  0  0  0  0
   59.8000   30.3060   49.0400 S   0  0  0  0  0  0  0  0  0  0  0  0
   59.4030   29.8780   50.4260 O   0  0  0  0  0  0  0  0  0  0  0  0
   58.9560   31.4820   48.6370 O   0  0  0  0  0  0  0  0  0  0  0  0
   61.4720   30.7750   49.0430 N   0  0  0  0  0  0  0  0  0  0  0  0
   62.1060   30.2850   49.7130 H   0  0  0  0  0  0  0  0  0  0  0  0
   61.9630   31.6950   48.2630 C   0  0  0  0  0  0  0  0  0  0  0  0
   61.1380   32.5500   47.4980 N   0  0  0  0  0  0  0  0  0  0  0  0
   60.0960   32.5080   47.4680 H   0  0  0  0  0  0  0  0  0  0  0  0
   61.9480   33.4570   46.7100 C   0  0  0  0  0  0  0  0  0  0  0  0
   61.6690   34.4998   46.9214 H   0  0  0  0  0  0  0  0  0  0  0  0
   61.8035   33.2917   45.6321 H   0  0  0  0  0  0  0  0  0  0  0  0
   63.4070   33.1990   47.1280 C   0  0  0  0  0  0  0  0  0  0  0  0
   63.8047   34.0724   47.6656 H   0  0  0  0  0  0  0  0  0  0  0  0
   64.0402   33.0247   46.2456 H   0  0  0  0  0  0  0  0  0  0  0  0
   63.4070   31.9700   48.0490 C   0  0  0  0  0  0  0  0  0  0  0  0
   63.9099   32.1929   49.0016 H   0  0  0  0  0  0  0  0  0  0  0  0
   63.9465   31.1132   47.6190 H   0  0  0  0  0  0  0  0  0  0  0  0
   58.4750   29.0840   46.9770 C   0  0  0  0  0  0  0  0  0  0  0  0
   57.8052   29.9563   46.9980 H   0  0  0  0  0  0  0  0  0  0  0  0
   57.1890   31.0360   43.0890 C   0  0  0  0  0  0  0  0  0  0  0  0
   56.7419   30.3983   42.3122 H   0  0  0  0  0  0  0  0  0  0  0  0
  1  2  1  0
  2  3  2  0
  3  4  1  0
  3  5  1  0
  5  6  1  0
  6  7  1  0
  7  8  1  0
  7  9  1  0
  7 10  1  0
  5 11  2  0
 11 12  1  0
 11 13  1  0
 13 14  1  0
 14 15  2  0
 14 16  1  0
 16 17  1  0
 17 18  2  0
 18 19  1  0
 18 20  1  0
 20 21  1  0
 20 22  2  0
 22 23  1  0
 22 24  1  0
 24 25  1  0
 25 26  2  0
 25 27  2  0
 25 28  1  0
 28 29  1  0
 28 30  2  0
 30 31  1  0
 31 32  1  0
 31 33  1  0
 33 34  1  0
 33 35  1  0
 33 36  1  0
 36 37  1  0
 36 38  1  0
 36 39  1  0
 39 40  1  0
 39 41  1  0
 24 42  2  0
 42 43  1  0
 13 44  2  0
 44 45  1  0
 44  2  1  0
 42 17  1  0
 39 30  1  0
M  CHG  2  16  -1  28   1
M  END
>  <UniqueID>  (79) 
68

>  <SMILES>  (79) 
COc1cccc(C(=O)[N-]c2cccc(S(=O)(=O)/[NH+]=C3\CCCN3)c2)c1

>  <Energy>  (79) 
59.820967246673945

>  <Genealogy>  (79) 
COc1cccc(C(=O)[N-]c2cccc(S(=O)(=O)[NH+]=C3CCCN3)c2)c1 (protonated)
COc1cccc(C(=O)[N-]c2cccc(S(=O)(=O)/[NH+]=C3\CCCN3)c2)c1 (cis-trans isomerization)
COc1cccc(C(=O)[N-]c2cccc(S(=O)(=O)/[NH+]=C3\CCCN3)c2)c1 (3D coordinates assigned)
COc1cccc(C(=O)[N-]c2cccc(S(=O)(=O)/[NH+]=C3\CCCN3)c2)c1 (nonaromatic ring conformer: 59.820967246673945 kcal/mol)

>  <smiles>  (79) 
COc1cccc(C(=O)Nc2cccc(S(=O)(=O)N=C3CCCN3)c2)c1

>  <score_type>  (79) 
oracle

>  <origin>  (79) 
adg

>  <m_score__min__energy>  (79) 
-8.9900000000000002

>  <m_primary>  (79) 
energy

$$$$
79:0
     RDKit          3D

 39 42  0  0  0  0  0  0  0  0999 V2000
   58.6350   29.4600   48.9390 O   0  0  0  0  0  0  0  0  0  0  0  0
   59.8450   29.1490   49.0930 C   0  0  0  0  0  0  0  0  0  0  0  0
   60.5700   29.7960   50.2050 C   0  0  0  0  0  0  0  0  0  0  0  0
   61.0970   31.4830   49.8780 S   0  0  0  0  0  0  0  0  0  0  0  0
   60.1480   32.2200   48.5720 C   0  0  0  0  0  0  0  0  0  0  0  0
   60.6890   33.0700   47.6610 N   0  0  0  0  0  0  0  0  0  0  0  0
   59.7660   33.4830   46.7750 C   0  0  0  0  0  0  0  0  0  0  0  0
   59.7980   34.3310   45.6750 C   0  0  0  0  0  0  0  0  0  0  0  0
   58.6400   34.5690   44.9290 C   0  0  0  0  0  0  0  0  0  0  0  0
   57.4640   33.9380   45.3160 C   0  0  0  0  0  0  0  0  0  0  0  0
   57.4230   33.0880   46.4170 C   0  0  0  0  0  0  0  0  0  0  0  0
   58.5880   32.8680   47.1420 C   0  0  0  0  0  0  0  0  0  0  0  0
   58.8630   32.1160   48.2300 N   0  0  0  0  0  0  0  0  0  0  0  0
   60.4670   28.2270   48.2370 N   0  0  0  0  0  0  0  0  0  0  0  0
   59.8360   27.5470   47.1340 C   0  0  0  0  0  0  0  0  0  0  0  0
   59.0030   28.4290   46.2790 C   0  0  0  0  0  0  0  0  0  0  0  0
   59.5690   29.5510   45.6640 C   0  0  0  0  0  0  0  0  0  0  0  0
   58.7980   30.3690   44.8630 C   0  0  0  0  0  0  0  0  0  0  0  0
   57.4520   30.1290   44.6300 C   0  0  0  0  0  0  0  0  0  0  0  0
   56.8980   29.0320   45.2300 C   0  0  0  0  0  0  0  0  0  0  0  0
   57.6610   28.2100   46.0310 C   0  0  0  0  0  0  0  0  0  0  0  0
   55.5360   28.9760   44.8630 O   0  0  0  0  0  0  0  0  0  0  0  0
   55.4210   29.8070   43.6990 C   0  0  0  0  0  0  0  0  0  0  0  0
   56.4510   30.7520   43.8950 O   0  0  0  0  0  0  0  0  0  0  0  0
   59.9088   29.8080   51.0840 H   0  0  0  0  0  0  0  0  0  0  0  0
   61.4871   29.2090   50.3609 H   0  0  0  0  0  0  0  0  0  0  0  0
   60.7415   34.8188   45.3890 H   0  0  0  0  0  0  0  0  0  0  0  0
   58.6592   35.2393   44.0570 H   0  0  0  0  0  0  0  0  0  0  0  0
   56.5444   34.1145   44.7388 H   0  0  0  0  0  0  0  0  0  0  0  0
   56.4827   32.5976   46.7091 H   0  0  0  0  0  0  0  0  0  0  0  0
   58.1280   31.5530   48.7020 H   0  0  0  0  0  0  0  0  0  0  0  0
   61.4980   28.0380   48.4310 H   0  0  0  0  0  0  0  0  0  0  0  0
   60.6221   27.1000   46.5077 H   0  0  0  0  0  0  0  0  0  0  0  0
   59.1614   26.7942   47.5678 H   0  0  0  0  0  0  0  0  0  0  0  0
   60.6331   29.7823   45.8195 H   0  0  0  0  0  0  0  0  0  0  0  0
   59.2689   31.2443   44.3916 H   0  0  0  0  0  0  0  0  0  0  0  0
   57.1786   27.3373   46.4955 H   0  0  0  0  0  0  0  0  0  0  0  0
   55.5838   29.2268   42.7788 H   0  0  0  0  0  0  0  0  0  0  0  0
   54.4261   30.2611   43.5811 H   0  0  0  0  0  0  0  0  0  0  0  0
  1  2  2  0
  2  3  1  0
  3  4  1  0
  4  5  1  0
  5  6  2  0
  6  7  1  0
  7  8  2  0
  8  9  1  0
  9 10  2  0
 10 11  1  0
 11 12  2  0
 12 13  1  0
  2 14  1  0
 14 15  1  0
 15 16  1  0
 16 17  2  0
 17 18  1  0
 18 19  2  0
 19 20  1  0
 20 21  2  0
 20 22  1  0
 22 23  1  0
 23 24  1  0
 13  5  1  0
 21 16  1  0
 12  7  1  0
 24 19  1  0
  3 25  1  0
  3 26  1  0
  8 27  1  0
  9 28  1  0
 10 29  1  0
 11 30  1  0
 13 31  1  0
 14 32  1  0
 15 33  1  0
 15 34  1  0
 17 35  1  0
 18 36  1  0
 21 37  1  0
 23 38  1  0
 23 39  1  0
M  END
>  <smiles>  (80) 
O=C(CSc1nc2ccccc2[nH]1)NCc1ccc2c(c1)OCO2

>  <score_type>  (80) 
oracle

>  <origin>  (80) 
adg

>  <m_score__min__energy>  (80) 
-8.0999999999999996

>  <m_primary>  (80) 
energy

$$$$
80:0
     RDKit          3D

 35 37  0  0  0  0  0  0  0  0999 V2000
   61.4828   34.0094   48.1770 H   0  0  0  0  0  0  0  0  0  0  0  0
   61.1100   33.0520   47.7840 C   0  0  0  0  0  0  0  0  0  0  0  0
   61.9880   31.9780   47.6120 C   0  0  0  0  0  0  0  0  0  0  0  0
   63.0497   32.0880   47.8777 H   0  0  0  0  0  0  0  0  0  0  0  0
   61.5170   30.7630   47.1020 C   0  0  0  0  0  0  0  0  0  0  0  0
   62.2060   29.9134   46.9857 H   0  0  0  0  0  0  0  0  0  0  0  0
   60.1710   30.6250   46.7390 C   0  0  0  0  0  0  0  0  0  0  0  0
   59.6990   29.3500   46.2720 N   0  0  0  0  0  0  0  0  0  0  0  0
   58.4770   29.0160   45.9470 C   0  0  0  0  0  0  0  0  0  0  0  0
   57.6560   29.8610   45.1730 C   0  0  0  0  0  0  0  0  0  0  0  0
   58.0385   30.8329   44.8280 H   0  0  0  0  0  0  0  0  0  0  0  0
   56.3550   29.4650   44.8430 C   0  0  0  0  0  0  0  0  0  0  0  0
   55.4840   30.3510   44.0110 C   0  0  0  0  0  0  0  0  0  0  0  0
   54.8659   30.9798   44.6687 H   0  0  0  0  0  0  0  0  0  0  0  0
   56.1132   30.9921   43.3761 H   0  0  0  0  0  0  0  0  0  0  0  0
   54.8322   29.7329   43.3761 H   0  0  0  0  0  0  0  0  0  0  0  0
   55.8940   28.2530   45.2440 N   0  0  0  0  0  0  0  0  0  0  0  0
   56.6520   27.3930   45.9740 C   0  0  0  0  0  0  0  0  0  0  0  0
   56.1200   26.1510   46.3540 C   0  0  0  0  0  0  0  0  0  0  0  0
   54.8070   25.8340   45.9690 O   0  0  0  0  0  0  0  0  0  0  0  0
   54.3710   24.5350   45.5830 C   0  0  0  0  0  0  0  0  0  0  0  0
   54.1692   23.9338   46.4818 H   0  0  0  0  0  0  0  0  0  0  0  0
   53.4520   24.6195   44.9845 H   0  0  0  0  0  0  0  0  0  0  0  0
   55.1549   24.0479   44.9845 H   0  0  0  0  0  0  0  0  0  0  0  0
   56.9110   25.2640   47.1080 C   0  0  0  0  0  0  0  0  0  0  0  0
   56.5016   24.2891   47.4112 H   0  0  0  0  0  0  0  0  0  0  0  0
   58.2110   25.6140   47.4730 C   0  0  0  0  0  0  0  0  0  0  0  0
   58.8206   24.9130   48.0620 H   0  0  0  0  0  0  0  0  0  0  0  0
   58.7430   26.8470   47.0960 C   0  0  0  0  0  0  0  0  0  0  0  0
   59.7693   27.1125   47.3895 H   0  0  0  0  0  0  0  0  0  0  0  0
   57.9730   27.7550   46.3410 C   0  0  0  0  0  0  0  0  0  0  0  0
   59.2850   31.6970   46.9470 C   0  0  0  0  0  0  0  0  0  0  0  0
   58.2175   31.5814   46.7082 H   0  0  0  0  0  0  0  0  0  0  0  0
   59.7590   32.9100   47.4570 C   0  0  0  0  0  0  0  0  0  0  0  0
   59.0674   33.7532   47.6008 H   0  0  0  0  0  0  0  0  0  0  0  0
  1  2  1  0
  2  3  2  0
  3  4  1  0
  3  5  1  0
  5  6  1  0
  5  7  2  0
  7  8  1  0
  8  9  2  0
  9 10  1  0
 10 11  1  0
 10 12  2  0
 12 13  1  0
 13 14  1  0
 13 15  1  0
 13 16  1  0
 12 17  1  0
 17 18  1  0
 18 19  2  0
 19 20  1  0
 20 21  1  0
 21 22  1  0
 21 23  1  0
 21 24  1  0
 19 25  1  0
 25 26  1  0
 25 27  2  0
 27 28  1  0
 27 29  1  0
 29 30  1  0
 29 31  2  0
  7 32  1  0
 32 33  1  0
 32 34  2  0
 34 35  1  0
 34  2  1  0
 31  9  1  0
 31 18  1  0
M  CHG  1  17  -1
M  END
>  <UniqueID>  (81) 
69

>  <SMILES>  (81) 
COc1cccc2/c(=N/c3ccccc3)cc(C)[n-]c12

>  <Energy>  (81) 
50.44594017972961

>  <Genealogy>  (81) 
COc1cccc2c(=Nc3ccccc3)cc(C)[n-]c12 (protonated)
COc1cccc2/c(=N/c3ccccc3)cc(C)[n-]c12 (cis-trans isomerization)
COc1cccc2/c(=N/c3ccccc3)cc(C)[n-]c12 (3D coordinates assigned)
COc1cccc2/c(=N/c3ccccc3)cc(C)[n-]c12 (optimized conformer: 50.44594017972961 kcal/mol)

>  <smiles>  (81) 
COc1cccc2c(=Nc3ccccc3)cc(C)[nH]c12

>  <score_type>  (81) 
oracle

>  <origin>  (81) 
adg

>  <m_score__min__energy>  (81) 
-9.0099999999999998

>  <m_primary>  (81) 
energy

$$$$
81:0
     RDKit          3D

 43 46  0  0  0  0  0  0  0  0999 V2000
   59.3410   34.9920   45.2500 C   0  0  0  0  0  0  0  0  0  0  0  0
   59.5900   35.2220   46.7400 C   0  0  0  0  0  0  0  0  0  0  0  0
   59.2380   33.9920   47.5900 C   0  0  0  0  0  0  0  0  0  0  0  0
   59.6490   32.7040   46.9150 C   0  0  0  0  0  0  0  0  0  0  0  0
   60.8210   31.9830   47.1430 C   0  0  0  0  0  0  0  0  0  0  0  0
   61.9680   32.3760   47.9840 C   0  0  0  0  0  0  0  0  0  0  0  0
   62.0060   31.9970   49.3330 C   0  0  0  0  0  0  0  0  0  0  0  0
   63.0910   32.3550   50.1380 C   0  0  0  0  0  0  0  0  0  0  0  0
   64.1550   33.0940   49.6010 C   0  0  0  0  0  0  0  0  0  0  0  0
   65.3380   33.4440   50.4540 C   0  0  0  0  0  0  0  0  0  0  0  0
   64.1380   33.4390   48.2410 C   0  0  0  0  0  0  0  0  0  0  0  0
   63.0510   33.0820   47.4370 C   0  0  0  0  0  0  0  0  0  0  0  0
   60.7410   30.7920   46.5110 N   0  0  0  0  0  0  0  0  0  0  0  0
   59.5370   30.7990   45.9020 C   0  0  0  0  0  0  0  0  0  0  0  0
   58.9820   29.7720   45.1280 C   0  0  0  0  0  0  0  0  0  0  0  0
   59.6430   28.5630   44.8530 C   0  0  0  0  0  0  0  0  0  0  0  0
   59.0150   27.5880   44.0700 C   0  0  0  0  0  0  0  0  0  0  0  0
   57.7320   27.8120   43.5590 C   0  0  0  0  0  0  0  0  0  0  0  0
   57.0660   29.0120   43.8280 C   0  0  0  0  0  0  0  0  0  0  0  0
   57.6820   29.9960   44.6100 C   0  0  0  0  0  0  0  0  0  0  0  0
   57.0280   31.1640   44.8740 N   0  0  0  0  0  0  0  0  0  0  0  0
   57.5990   32.1390   45.6310 C   0  0  0  0  0  0  0  0  0  0  0  0
   56.9680   33.2060   45.8530 O   0  0  0  0  0  0  0  0  0  0  0  0
   58.8520   31.9370   46.1310 N   0  0  0  0  0  0  0  0  0  0  0  0
   58.5384   34.2507   45.1225 H   0  0  0  0  0  0  0  0  0  0  0  0
   59.0433   35.9396   44.7774 H   0  0  0  0  0  0  0  0  0  0  0  0
   60.2621   34.6201   44.7774 H   0  0  0  0  0  0  0  0  0  0  0  0
   60.6536   35.4605   46.8876 H   0  0  0  0  0  0  0  0  0  0  0  0
   58.9421   36.0498   47.0641 H   0  0  0  0  0  0  0  0  0  0  0  0
   59.7566   34.0679   48.5571 H   0  0  0  0  0  0  0  0  0  0  0  0
   58.1466   33.9725   47.7257 H   0  0  0  0  0  0  0  0  0  0  0  0
   61.1768   31.4143   49.7607 H   0  0  0  0  0  0  0  0  0  0  0  0
   63.1104   32.0561   51.1964 H   0  0  0  0  0  0  0  0  0  0  0  0
   65.0616   33.3622   51.5156 H   0  0  0  0  0  0  0  0  0  0  0  0
   66.1648   32.7520   50.2360 H   0  0  0  0  0  0  0  0  0  0  0  0
   65.6552   34.4745   50.2360 H   0  0  0  0  0  0  0  0  0  0  0  0
   64.9831   33.9924   47.8056 H   0  0  0  0  0  0  0  0  0  0  0  0
   63.0446   33.3555   46.3716 H   0  0  0  0  0  0  0  0  0  0  0  0
   61.4610   30.0380   46.5110 H   0  0  0  0  0  0  0  0  0  0  0  0
   60.6521   28.3833   45.2524 H   0  0  0  0  0  0  0  0  0  0  0  0
   59.5323   26.6413   43.8553 H   0  0  0  0  0  0  0  0  0  0  0  0
   57.2452   27.0413   42.9433 H   0  0  0  0  0  0  0  0  0  0  0  0
   56.0570   29.1827   43.4246 H   0  0  0  0  0  0  0  0  0  0  0  0
  1  2  1  0
  2  3  1  0
  3  4  1  0
  4  5  2  0
  5  6  1  0
  6  7  2  0
  7  8  1  0
  8  9  2  0
  9 10  1  0
  9 11  1  0
 11 12  2  0
  5 13  1  0
 13 14  2  0
 14 15  1  0
 15 16  2  0
 16 17  1  0
 17 18  2  0
 18 19  1  0
 19 20  2  0
 20 21  1  0
 21 22  1  0
 22 23  2  0
 22 24  1  0
 24  4  1  0
 12  6  1  0
 24 14  1  0
 20 15  1  0
  1 25  1  0
  1 26  1  0
  1 27  1  0
  2 28  1  0
  2 29  1  0
  3 30  1  0
  3 31  1  0
  7 32  1  0
  8 33  1  0
 10 34  1  0
 10 35  1  0
 10 36  1  0
 11 37  1  0
 12 38  1  0
 13 39  1  0
 16 40  1  0
 17 41  1  0
 18 42  1  0
 19 43  1  0
M  CHG  2  13   1  21  -1
M  END
>  <UniqueID>  (82) 
70

>  <SMILES>  (82) 
CCCc1c(-c2ccc(C)cc2)[nH+]c2c3ccccc3[n-]c(=O)n12

>  <Energy>  (82) 
88.26850503819257

>  <Genealogy>  (82) 
CCCc1c(-c2ccc(C)cc2)[nH+]c2c3ccccc3[n-]c(=O)n12 (protonated)
CCCc1c(-c2ccc(C)cc2)[nH+]c2c3ccccc3[n-]c(=O)n12 (3D coordinates assigned)
CCCc1c(-c2ccc(C)cc2)[nH+]c2c3ccccc3[n-]c(=O)n12 (optimized conformer: 88.26850503819257 kcal/mol)

>  <smiles>  (82) 
CCCc1c(-c2ccc(C)cc2)nc2c3ccccc3[nH]c(=O)n12

>  <score_type>  (82) 
oracle

>  <origin>  (82) 
adg

>  <m_score__min__energy>  (82) 
-9.0999999999999996

>  <m_primary>  (82) 
energy

$$$$
82:0
     RDKit          3D

 39 41  0  0  0  0  0  0  0  0999 V2000
   55.7840   30.0980   44.5000 O   0  0  0  0  0  0  0  0  0  0  0  0
   57.2460   30.3000   44.7810 S   0  0  0  0  0  0  0  0  0  0  0  0
   57.8920   30.8680   43.5500 O   0  0  0  0  0  0  0  0  0  0  0  0
   57.4240   31.4130   46.0930 N   0  0  0  0  0  0  0  0  0  0  0  0
   58.2090   32.5950   45.9450 C   0  0  0  0  0  0  0  0  0  0  0  0
   57.8390   33.5550   44.9940 C   0  0  0  0  0  0  0  0  0  0  0  0
   58.5620   34.7440   44.8770 C   0  0  0  0  0  0  0  0  0  0  0  0
   59.6600   34.9790   45.7080 C   0  0  0  0  0  0  0  0  0  0  0  0
   60.0390   34.0250   46.6560 C   0  0  0  0  0  0  0  0  0  0  0  0
   59.3210   32.8230   46.7790 C   0  0  0  0  0  0  0  0  0  0  0  0
   59.7050   31.8530   47.7660 N   0  0  0  0  0  0  0  0  0  0  0  0
   58.9250   31.7130   49.0010 C   0  0  0  0  0  0  0  0  0  0  0  0
   59.8260   31.3180   50.1950 C   0  0  0  0  0  0  0  0  0  0  0  0
   61.1590   30.9990   49.8270 O   0  0  0  0  0  0  0  0  0  0  0  0
   61.1630   30.1210   48.7220 C   0  0  0  0  0  0  0  0  0  0  0  0
   60.7710   30.8920   47.4620 C   0  0  0  0  0  0  0  0  0  0  0  0
   57.9880   28.7540   45.2120 C   0  0  0  0  0  0  0  0  0  0  0  0
   57.1870   27.6630   45.5920 C   0  0  0  0  0  0  0  0  0  0  0  0
   55.8340   27.7710   45.6170 F   0  0  0  0  0  0  0  0  0  0  0  0
   57.7790   26.4530   45.9720 C   0  0  0  0  0  0  0  0  0  0  0  0
   57.0020   25.4040   46.3360 F   0  0  0  0  0  0  0  0  0  0  0  0
   59.1710   26.3270   45.9840 C   0  0  0  0  0  0  0  0  0  0  0  0
   59.7420   25.1540   46.3570 F   0  0  0  0  0  0  0  0  0  0  0  0
   59.9740   27.4120   45.6230 C   0  0  0  0  0  0  0  0  0  0  0  0
   61.3260   27.2920   45.6500 F   0  0  0  0  0  0  0  0  0  0  0  0
   59.3880   28.6240   45.2420 C   0  0  0  0  0  0  0  0  0  0  0  0
   60.1900   29.6700   44.9220 F   0  0  0  0  0  0  0  0  0  0  0  0
   56.9759   33.3715   44.3372 H   0  0  0  0  0  0  0  0  0  0  0  0
   58.2668   35.4958   44.1302 H   0  0  0  0  0  0  0  0  0  0  0  0
   60.2274   35.9169   45.6159 H   0  0  0  0  0  0  0  0  0  0  0  0
   60.9034   34.2156   47.3091 H   0  0  0  0  0  0  0  0  0  0  0  0
   58.4338   32.6714   49.2248 H   0  0  0  0  0  0  0  0  0  0  0  0
   58.1794   30.9182   48.8517 H   0  0  0  0  0  0  0  0  0  0  0  0
   59.8537   32.1604   50.9019 H   0  0  0  0  0  0  0  0  0  0  0  0
   59.3904   30.4102   50.6379 H   0  0  0  0  0  0  0  0  0  0  0  0
   62.1694   29.6959   48.5943 H   0  0  0  0  0  0  0  0  0  0  0  0
   60.4427   29.3079   48.8952 H   0  0  0  0  0  0  0  0  0  0  0  0
   61.6491   31.4327   47.0792 H   0  0  0  0  0  0  0  0  0  0  0  0
   60.4077   30.1812   46.7052 H   0  0  0  0  0  0  0  0  0  0  0  0
  1  2  2  0
  2  3  2  0
  2  4  1  0
  4  5  1  0
  5  6  2  0
  6  7  1  0
  7  8  2  0
  8  9  1  0
  9 10  2  0
 10 11  1  0
 11 12  1  0
 12 13  1  0
 13 14  1  0
 14 15  1  0
 15 16  1  0
  2 17  1  0
 17 18  2  0
 18 19  1  0
 18 20  1  0
 20 21  1  0
 20 22  2  0
 22 23  1  0
 22 24  1  0
 24 25  1  0
 24 26  2  0
 26 27  1  0
 10  5  1  0
 16 11  1  0
 26 17  1  0
  6 28  1  0
  7 29  1  0
  8 30  1  0
  9 31  1  0
 12 32  1  0
 12 33  1  0
 13 34  1  0
 13 35  1  0
 15 36  1  0
 15 37  1  0
 16 38  1  0
 16 39  1  0
M  CHG  1   4  -1
M  END
>  <UniqueID>  (83) 
71

>  <SMILES>  (83) 
O=S(=O)([N-]c1ccccc1N1CCOCC1)c1c(F)c(F)c(F)c(F)c1F

>  <Energy>  (83) 
61.55922511977575

>  <Genealogy>  (83) 
O=S(=O)([N-]c1ccccc1N1CCOCC1)c1c(F)c(F)c(F)c(F)c1F (protonated)
O=S(=O)([N-]c1ccccc1N1CCOCC1)c1c(F)c(F)c(F)c(F)c1F (3D coordinates assigned)
O=S(=O)([N-]c1ccccc1N1CCOCC1)c1c(F)c(F)c(F)c(F)c1F (nonaromatic ring conformer: 61.55922511977575 kcal/mol)

>  <smiles>  (83) 
O=S(=O)(Nc1ccccc1N1CCOCC1)c1c(F)c(F)c(F)c(F)c1F

>  <score_type>  (83) 
oracle

>  <origin>  (83) 
adg

>  <m_score__min__energy>  (83) 
-8.3399999999999999

>  <m_primary>  (83) 
energy

$$$$
83:0
     RDKit          3D

 37 39  0  0  0  0  0  0  0  0999 V2000
   56.0827   33.1045   45.6472 H   0  0  0  0  0  0  0  0  0  0  0  0
   57.1130   32.7570   45.8140 C   0  0  0  0  0  0  0  0  0  0  0  0
   57.6690   31.7800   44.8500 C   0  0  0  0  0  0  0  0  0  0  0  0
   57.7250   32.1060   43.6350 O   0  0  0  0  0  0  0  0  0  0  0  0
   58.1030   30.4210   45.2560 C   0  0  0  0  0  0  0  0  0  0  0  0
   59.4420   30.1980   45.6210 C   0  0  0  0  0  0  0  0  0  0  0  0
   60.1507   31.0391   45.6373 H   0  0  0  0  0  0  0  0  0  0  0  0
   59.8790   28.9170   45.9630 C   0  0  0  0  0  0  0  0  0  0  0  0
   60.9302   28.7512   46.2415 H   0  0  0  0  0  0  0  0  0  0  0  0
   58.9850   27.8480   45.9520 C   0  0  0  0  0  0  0  0  0  0  0  0
   59.3327   26.8390   46.2187 H   0  0  0  0  0  0  0  0  0  0  0  0
   57.6480   28.0550   45.6030 C   0  0  0  0  0  0  0  0  0  0  0  0
   56.9457   27.2084   45.6046 H   0  0  0  0  0  0  0  0  0  0  0  0
   57.1930   29.3410   45.2490 C   0  0  0  0  0  0  0  0  0  0  0  0
   55.8640   29.5710   44.8590 O   0  0  0  0  0  0  0  0  0  0  0  0
   55.4320   29.7160   43.5100 C   0  0  0  0  0  0  0  0  0  0  0  0
   54.3893   30.0660   43.4945 H   0  0  0  0  0  0  0  0  0  0  0  0
   56.0723   30.4485   42.9967 H   0  0  0  0  0  0  0  0  0  0  0  0
   55.5007   28.7456   42.9967 H   0  0  0  0  0  0  0  0  0  0  0  0
   57.7700   33.2520   46.8770 C   0  0  0  0  0  0  0  0  0  0  0  0
   57.1709   33.6513   47.7086 H   0  0  0  0  0  0  0  0  0  0  0  0
   59.2430   33.2970   47.0060 C   0  0  0  0  0  0  0  0  0  0  0  0
   60.0140   34.1340   46.1790 C   0  0  0  0  0  0  0  0  0  0  0  0
   59.2700   35.1550   44.9560 Cl  0  0  0  0  0  0  0  0  0  0  0  0
   61.3610   34.2040   46.3470 N   0  0  0  0  0  0  0  0  0  0  0  0
   62.0090   33.4700   47.2910 C   0  0  0  0  0  0  0  0  0  0  0  0
   63.3950   33.5890   47.4450 C   0  0  0  0  0  0  0  0  0  0  0  0
   63.9638   34.2710   46.7959 H   0  0  0  0  0  0  0  0  0  0  0  0
   64.0570   32.8410   48.4240 C   0  0  0  0  0  0  0  0  0  0  0  0
   65.1459   32.9379   48.5461 H   0  0  0  0  0  0  0  0  0  0  0  0
   63.3370   31.9700   49.2480 C   0  0  0  0  0  0  0  0  0  0  0  0
   63.8615   31.3837   50.0169 H   0  0  0  0  0  0  0  0  0  0  0  0
   61.9540   31.8420   49.0980 C   0  0  0  0  0  0  0  0  0  0  0  0
   61.3915   31.1542   49.7465 H   0  0  0  0  0  0  0  0  0  0  0  0
   61.2830   32.5910   48.1200 C   0  0  0  0  0  0  0  0  0  0  0  0
   59.8970   32.4970   47.9570 C   0  0  0  0  0  0  0  0  0  0  0  0
   59.3181   31.7950   48.5750 H   0  0  0  0  0  0  0  0  0  0  0  0
  1  2  1  0
  2  3  1  0
  3  4  2  0
  3  5  1  0
  5  6  2  0
  6  7  1  0
  6  8  1  0
  8  9  1  0
  8 10  2  0
 10 11  1  0
 10 12  1  0
 12 13  1  0
 12 14  2  0
 14 15  1  0
 15 16  1  0
 16 17  1  0
 16 18  1  0
 16 19  1  0
  2 20  2  0
 20 21  1  0
 20 22  1  0
 22 23  2  0
 23 24  1  0
 23 25  1  0
 25 26  2  0
 26 27  1  0
 27 28  1  0
 27 29  2  0
 29 30  1  0
 29 31  1  0
 31 32  1  0
 31 33  2  0
 33 34  1  0
 33 35  1  0
 35 36  2  0
 36 37  1  0
 14  5  1  0
 36 22  1  0
 35 26  1  0
M  END
>  <UniqueID>  (84) 
72

>  <SMILES>  (84) 
COc1ccccc1C(=O)/C=C\c1cc2ccccc2nc1Cl

>  <Energy>  (84) 
52.48377563496574

>  <Genealogy>  (84) 
COc1ccccc1C(=O)/C=C\c1cc2ccccc2nc1Cl (cis-trans isomerization)
COc1ccccc1C(=O)/C=C\c1cc2ccccc2nc1Cl (3D coordinates assigned)
COc1ccccc1C(=O)/C=C\c1cc2ccccc2nc1Cl (optimized conformer: 52.48377563496574 kcal/mol)

>  <smiles>  (84) 
COc1ccccc1C(=O)C=Cc1cc2ccccc2nc1Cl

>  <score_type>  (84) 
oracle

>  <origin>  (84) 
adg

>  <m_score__min__energy>  (84) 
-9.3800000000000008

>  <m_primary>  (84) 
energy

$$$$
84:0
     RDKit          3D

 25 26  0  0  0  0  0  0  0  0999 V2000
   54.9650   29.3440   43.9320 N   0  0  0  0  0  0  0  0  0  0  0  0
   55.9570   30.1520   43.7600 C   0  0  0  0  0  0  0  0  0  0  0  0
   56.6760   30.6740   44.7700 N   0  0  0  0  0  0  0  0  0  0  0  0
   57.7100   31.5160   44.5660 C   0  0  0  0  0  0  0  0  0  0  0  0
   58.4830   32.0780   45.6390 C   0  0  0  0  0  0  0  0  0  0  0  0
   59.1460   32.5620   46.5290 C   0  0  0  0  0  0  0  0  0  0  0  0
   59.9480   33.1180   47.5840 C   0  0  0  0  0  0  0  0  0  0  0  0
   59.4300   33.8170   48.6450 C   0  0  0  0  0  0  0  0  0  0  0  0
   60.2440   34.3010   49.5840 N   0  0  0  0  0  0  0  0  0  0  0  0
   61.5750   34.1120   49.5050 C   0  0  0  0  0  0  0  0  0  0  0  0
   62.3280   34.5960   50.4310 N   0  0  0  0  0  0  0  0  0  0  0  0
   62.1550   33.4190   48.4630 C   0  0  0  0  0  0  0  0  0  0  0  0
   64.0370   33.1410   48.3320 Br  0  0  0  0  0  0  0  0  0  0  0  0
   61.3300   32.9190   47.4950 C   0  0  0  0  0  0  0  0  0  0  0  0
   58.0620   31.8710   43.2740 C   0  0  0  0  0  0  0  0  0  0  0  0
   57.3130   31.3260   42.2460 C   0  0  0  0  0  0  0  0  0  0  0  0
   56.2890   30.4890   42.4930 N   0  0  0  0  0  0  0  0  0  0  0  0
   54.5800   28.8980   43.0490 H   0  0  0  0  0  0  0  0  0  0  0  0
   58.3445   33.9780   48.7210 H   0  0  0  0  0  0  0  0  0  0  0  0
   59.8260   34.8310   50.3830 H   0  0  0  0  0  0  0  0  0  0  0  0
   63.0940   34.0330   50.8570 H   0  0  0  0  0  0  0  0  0  0  0  0
   61.7522   32.3605   46.6465 H   0  0  0  0  0  0  0  0  0  0  0  0
   58.8995   32.5556   43.0742 H   0  0  0  0  0  0  0  0  0  0  0  0
   57.5599   31.5824   41.2052 H   0  0  0  0  0  0  0  0  0  0  0  0
   55.7490   30.1010   41.6670 H   0  0  0  0  0  0  0  0  0  0  0  0
  1  2  2  3
  2  3  1  0
  3  4  2  0
  4  5  1  0
  5  6  3  0
  6  7  1  0
  7  8  2  0
  8  9  1  0
  9 10  1  0
 10 11  2  3
 10 12  1  0
 12 13  1  0
 12 14  2  0
  4 15  1  0
 15 16  2  0
 16 17  1  0
 17  2  1  0
 14  7  1  0
  1 18  1  0
  8 19  1  0
  9 20  1  0
 11 21  1  0
 14 22  1  0
 15 23  1  0
 16 24  1  0
 17 25  1  0
M  END
>  <smiles>  (85) 
N=c1nc(C#Cc2c[nH]c(=N)c(Br)c2)cc[nH]1

>  <score_type>  (85) 
oracle

>  <origin>  (85) 
adg

>  <m_score__min__energy>  (85) 
-6.04

>  <m_primary>  (85) 
energy

$$$$
85:0
     RDKit          3D

 28 27  0  0  0  0  0  0  0  0999 V2000
   59.6310   34.9580   45.6100 C   0  0  0  0  0  0  0  0  0  0  0  0
   58.5430   34.4540   46.5680 C   0  0  0  0  0  0  0  0  0  0  0  0
   59.1510   33.6510   47.7250 C   0  0  0  0  0  0  0  0  0  0  0  0
   57.3960   33.6950   45.8490 C   0  0  0  0  0  0  0  0  0  0  0  0
   57.7180   33.0880   44.4670 C   0  0  0  0  0  0  0  0  0  0  0  0
   57.4030   31.6170   44.3500 C   0  0  0  0  0  0  0  0  0  0  0  0
   57.0450   30.9990   45.3430 O   0  0  0  0  0  0  0  0  0  0  0  0
   57.4310   30.9220   43.0040 C   0  0  0  0  0  0  0  0  0  0  0  0
   56.2610   29.9440   42.8590 C   0  0  0  0  0  0  0  0  0  0  0  0
   57.4110   31.9590   41.8760 C   0  0  0  0  0  0  0  0  0  0  0  0
   60.4783   35.3505   46.1914 H   0  0  0  0  0  0  0  0  0  0  0  0
   59.9748   34.1274   44.9760 H   0  0  0  0  0  0  0  0  0  0  0  0
   59.2197   35.7573   44.9760 H   0  0  0  0  0  0  0  0  0  0  0  0
   58.0660   35.3451   47.0021 H   0  0  0  0  0  0  0  0  0  0  0  0
   58.8241   34.0827   48.6825 H   0  0  0  0  0  0  0  0  0  0  0  0
   58.8164   32.6051   47.6611 H   0  0  0  0  0  0  0  0  0  0  0  0
   60.2485   33.6894   47.6611 H   0  0  0  0  0  0  0  0  0  0  0  0
   57.0782   32.8728   46.5070 H   0  0  0  0  0  0  0  0  0  0  0  0
   56.6263   34.4565   45.6550 H   0  0  0  0  0  0  0  0  0  0  0  0
   57.1326   33.6278   43.7081 H   0  0  0  0  0  0  0  0  0  0  0  0
   58.8033   33.1919   44.3208 H   0  0  0  0  0  0  0  0  0  0  0  0
   58.3621   30.3402   42.9366 H   0  0  0  0  0  0  0  0  0  0  0  0
   55.9056   29.6469   43.8567 H   0  0  0  0  0  0  0  0  0  0  0  0
   55.4426   30.4305   42.3081 H   0  0  0  0  0  0  0  0  0  0  0  0
   56.5946   29.0523   42.3081 H   0  0  0  0  0  0  0  0  0  0  0  0
   57.3915   32.9704   42.3081 H   0  0  0  0  0  0  0  0  0  0  0  0
   58.3116   31.8428   41.2551 H   0  0  0  0  0  0  0  0  0  0  0  0
   56.5156   31.8082   41.2551 H   0  0  0  0  0  0  0  0  0  0  0  0
  1  2  1  0
  2  3  1  0
  2  4  1  0
  4  5  1  0
  5  6  1  0
  6  7  2  0
  6  8  1  0
  8  9  1  0
  8 10  1  0
  1 11  1  0
  1 12  1  0
  1 13  1  0
  2 14  1  0
  3 15  1  0
  3 16  1  0
  3 17  1  0
  4 18  1  0
  4 19  1  0
  5 20  1  0
  5 21  1  0
  8 22  1  0
  9 23  1  0
  9 24  1  0
  9 25  1  0
 10 26  1  0
 10 27  1  0
 10 28  1  0
M  END
>  <UniqueID>  (86) 
73

>  <SMILES>  (86) 
CC(C)CCC(=O)C(C)C

>  <Energy>  (86) 
12.581913403300385

>  <Genealogy>  (86) 
CC(C)CCC(=O)C(C)C (3D coordinates assigned)
CC(C)CCC(=O)C(C)C (optimized conformer: 12.581913403300385 kcal/mol)

>  <smiles>  (86) 
CC(C)CCC(=O)C(C)C

>  <score_type>  (86) 
oracle

>  <origin>  (86) 
adg

>  <m_score__min__energy>  (86) 
-5.0700000000000003

>  <m_primary>  (86) 
energy

$$$$
86:0
     RDKit          3D

 58 61  0  0  0  0  0  0  0  0999 V2000
   53.4970   24.2710   45.2740 C   0  0  0  0  0  0  0  0  0  0  0  0
   54.5600   24.4470   46.2040 O   0  0  0  0  0  0  0  0  0  0  0  0
   55.5170   25.4610   46.0750 C   0  0  0  0  0  0  0  0  0  0  0  0
   55.1430   26.6650   45.9980 O   0  0  0  0  0  0  0  0  0  0  0  0
   56.9600   25.1060   46.0220 C   0  0  0  0  0  0  0  0  0  0  0  0
   57.8930   25.9640   46.6380 C   0  0  0  0  0  0  0  0  0  0  0  0
   59.2660   25.6950   46.5930 C   0  0  0  0  0  0  0  0  0  0  0  0
   60.1710   26.6200   47.2140 N   0  0  0  0  0  0  0  0  0  0  0  0
   60.3360   28.0020   46.8660 C   0  0  0  0  0  0  0  0  0  0  0  0
   60.4510   28.8840   47.7620 O   0  0  0  0  0  0  0  0  0  0  0  0
   60.4270   28.3960   45.4200 C   0  0  0  0  0  0  0  0  0  0  0  0
   59.1200   28.9790   44.9480 C   0  0  0  0  0  0  0  0  0  0  0  0
   58.2660   28.2190   44.1300 C   0  0  0  0  0  0  0  0  0  0  0  0
   57.0430   28.7460   43.7100 C   0  0  0  0  0  0  0  0  0  0  0  0
   56.6640   30.0330   44.0970 C   0  0  0  0  0  0  0  0  0  0  0  0
   57.5030   30.8090   44.9070 C   0  0  0  0  0  0  0  0  0  0  0  0
   57.0950   32.1120   45.2350 O   0  0  0  0  0  0  0  0  0  0  0  0
   57.9180   33.1250   45.7500 C   0  0  0  0  0  0  0  0  0  0  0  0
   58.4510   34.0730   44.8660 C   0  0  0  0  0  0  0  0  0  0  0  0
   59.2730   35.1000   45.3410 C   0  0  0  0  0  0  0  0  0  0  0  0
   59.5560   35.1940   46.7080 C   0  0  0  0  0  0  0  0  0  0  0  0
   59.0070   34.2670   47.6030 C   0  0  0  0  0  0  0  0  0  0  0  0
   58.1840   33.2390   47.1300 C   0  0  0  0  0  0  0  0  0  0  0  0
   58.7420   30.2810   45.3200 C   0  0  0  0  0  0  0  0  0  0  0  0
   59.7180   24.5200   45.9750 C   0  0  0  0  0  0  0  0  0  0  0  0
   58.8100   23.6560   45.3650 C   0  0  0  0  0  0  0  0  0  0  0  0
   57.4380   23.9400   45.3710 C   0  0  0  0  0  0  0  0  0  0  0  0
   56.5520   23.0480   44.6780 N   0  0  0  0  0  0  0  0  0  0  0  0
   56.4020   23.1360   43.2250 C   0  0  0  0  0  0  0  0  0  0  0  0
   56.7270   21.7650   42.6150 C   0  0  0  0  0  0  0  0  0  0  0  0
   55.9540   20.7470   43.2260 O   0  0  0  0  0  0  0  0  0  0  0  0
   56.3080   20.6230   44.5940 C   0  0  0  0  0  0  0  0  0  0  0  0
   55.9560   21.9030   45.3640 C   0  0  0  0  0  0  0  0  0  0  0  0
   52.5546   24.1150   45.8195 H   0  0  0  0  0  0  0  0  0  0  0  0
   53.4107   25.1671   44.6419 H   0  0  0  0  0  0  0  0  0  0  0  0
   53.7041   23.3949   44.6419 H   0  0  0  0  0  0  0  0  0  0  0  0
   57.5357   26.8617   47.1639 H   0  0  0  0  0  0  0  0  0  0  0  0
   61.2226   29.1459   45.2986 H   0  0  0  0  0  0  0  0  0  0  0  0
   60.6541   27.5015   44.8214 H   0  0  0  0  0  0  0  0  0  0  0  0
   58.5621   27.2060   43.8198 H   0  0  0  0  0  0  0  0  0  0  0  0
   56.3767   28.1460   43.0729 H   0  0  0  0  0  0  0  0  0  0  0  0
   55.6986   30.4409   43.7630 H   0  0  0  0  0  0  0  0  0  0  0  0
   58.2214   34.0089   43.7921 H   0  0  0  0  0  0  0  0  0  0  0  0
   59.6970   35.8339   44.6398 H   0  0  0  0  0  0  0  0  0  0  0  0
   60.2100   35.9964   47.0800 H   0  0  0  0  0  0  0  0  0  0  0  0
   59.2230   34.3472   48.6786 H   0  0  0  0  0  0  0  0  0  0  0  0
   57.7440   32.5189   47.8356 H   0  0  0  0  0  0  0  0  0  0  0  0
   59.4178   30.8911   45.9373 H   0  0  0  0  0  0  0  0  0  0  0  0
   60.7914   24.2797   45.9716 H   0  0  0  0  0  0  0  0  0  0  0  0
   59.1744   22.7417   44.8738 H   0  0  0  0  0  0  0  0  0  0  0  0
   55.3681   23.4169   42.9755 H   0  0  0  0  0  0  0  0  0  0  0  0
   57.0854   23.8980   42.8222 H   0  0  0  0  0  0  0  0  0  0  0  0
   56.5062   21.7880   41.5376 H   0  0  0  0  0  0  0  0  0  0  0  0
   57.7922   21.5478   42.7827 H   0  0  0  0  0  0  0  0  0  0  0  0
   55.7610   19.7756   45.0331 H   0  0  0  0  0  0  0  0  0  0  0  0
   57.3928   20.4550   44.6646 H   0  0  0  0  0  0  0  0  0  0  0  0
   54.8632   22.0228   45.4010 H   0  0  0  0  0  0  0  0  0  0  0  0
   56.3463   21.8394   46.3905 H   0  0  0  0  0  0  0  0  0  0  0  0
  1  2  1  0
  2  3  1  0
  3  4  2  0
  3  5  1  0
  5  6  2  0
  6  7  1  0
  7  8  1  0
  8  9  1  0
  9 10  2  0
  9 11  1  0
 11 12  1  0
 12 13  2  0
 13 14  1  0
 14 15  2  0
 15 16  1  0
 16 17  1  0
 17 18  1  0
 18 19  2  0
 19 20  1  0
 20 21  2  0
 21 22  1  0
 22 23  2  0
 16 24  2  0
  7 25  2  0
 25 26  1  0
 26 27  2  0
 27 28  1  0
 28 29  1  0
 29 30  1  0
 30 31  1  0
 31 32  1  0
 32 33  1  0
 27  5  1  0
 33 28  1  0
 24 12  1  0
 23 18  1  0
  1 34  1  0
  1 35  1  0
  1 36  1  0
  6 37  1  0
 11 38  1  0
 11 39  1  0
 13 40  1  0
 14 41  1  0
 15 42  1  0
 19 43  1  0
 20 44  1  0
 21 45  1  0
 22 46  1  0
 23 47  1  0
 24 48  1  0
 25 49  1  0
 26 50  1  0
 29 51  1  0
 29 52  1  0
 30 53  1  0
 30 54  1  0
 32 55  1  0
 32 56  1  0
 33 57  1  0
 33 58  1  0
M  CHG  1   8  -1
M  END
>  <UniqueID>  (87) 
74

>  <SMILES>  (87) 
COC(=O)c1cc([N-]C(=O)Cc2cccc(Oc3ccccc3)c2)ccc1N1CCOCC1

>  <Energy>  (87) 
78.50002105048286

>  <Genealogy>  (87) 
COC(=O)c1cc([N-]C(=O)Cc2cccc(Oc3ccccc3)c2)ccc1N1CCOCC1 (protonated)
COC(=O)c1cc([N-]C(=O)Cc2cccc(Oc3ccccc3)c2)ccc1N1CCOCC1 (3D coordinates assigned)
COC(=O)c1cc([N-]C(=O)Cc2cccc(Oc3ccccc3)c2)ccc1N1CCOCC1 (nonaromatic ring conformer: 78.50002105048286 kcal/mol)

>  <smiles>  (87) 
COC(=O)c1cc(NC(=O)Cc2cccc(Oc3ccccc3)c2)ccc1N1CCOCC1

>  <score_type>  (87) 
oracle

>  <origin>  (87) 
adg

>  <m_score__min__energy>  (87) 
-10.92

>  <m_primary>  (87) 
energy

$$$$
87:0
     RDKit          3D

 50 52  0  0  0  0  0  0  0  0999 V2000
   52.6590   24.4120   45.2360 C   0  0  0  0  0  0  0  0  0  0  0  0
   54.1310   24.6810   45.3180 C   0  0  0  0  0  0  0  0  0  0  0  0
   54.9360   23.7700   44.9940 O   0  0  0  0  0  0  0  0  0  0  0  0
   54.6510   25.9570   45.7160 N   0  0  0  0  0  0  0  0  0  0  0  0
   56.0020   26.2510   46.0970 C   0  0  0  0  0  0  0  0  0  0  0  0
   56.6570   25.3900   46.9860 C   0  0  0  0  0  0  0  0  0  0  0  0
   57.9640   25.6630   47.4010 C   0  0  0  0  0  0  0  0  0  0  0  0
   58.6350   26.7980   46.9320 C   0  0  0  0  0  0  0  0  0  0  0  0
   59.9590   27.0630   47.4150 N   0  0  0  0  0  0  0  0  0  0  0  0
   60.3620   28.0120   48.4140 C   0  0  0  0  0  0  0  0  0  0  0  0
   61.0540   27.6030   49.3820 O   0  0  0  0  0  0  0  0  0  0  0  0
   60.1190   29.4880   48.2720 C   0  0  0  0  0  0  0  0  0  0  0  0
   60.6580   30.1530   46.6490 S   0  0  0  0  0  0  0  0  0  0  0  0
   60.7080   31.8910   47.1250 C   0  0  0  0  0  0  0  0  0  0  0  0
   61.8560   32.6500   47.3150 C   0  0  0  0  0  0  0  0  0  0  0  0
   63.2770   32.1920   47.2330 C   0  0  0  0  0  0  0  0  0  0  0  0
   61.4440   33.9250   47.6550 C   0  0  0  0  0  0  0  0  0  0  0  0
   60.0650   33.8980   47.6090 C   0  0  0  0  0  0  0  0  0  0  0  0
   59.2380   34.9920   47.8470 O   0  0  0  0  0  0  0  0  0  0  0  0
   59.6130   32.6700   47.2820 N   0  0  0  0  0  0  0  0  0  0  0  0
   58.2180   32.3090   47.0070 C   0  0  0  0  0  0  0  0  0  0  0  0
   58.0080   32.0090   45.5470 C   0  0  0  0  0  0  0  0  0  0  0  0
   57.4820   30.7700   45.1460 C   0  0  0  0  0  0  0  0  0  0  0  0
   57.2660   30.5020   43.7910 C   0  0  0  0  0  0  0  0  0  0  0  0
   57.5570   31.4730   42.8290 C   0  0  0  0  0  0  0  0  0  0  0  0
   58.0610   32.7160   43.2210 C   0  0  0  0  0  0  0  0  0  0  0  0
   58.2840   32.9850   44.5750 C   0  0  0  0  0  0  0  0  0  0  0  0
   57.9580   27.6930   46.0870 C   0  0  0  0  0  0  0  0  0  0  0  0
   56.6510   27.4220   45.6730 C   0  0  0  0  0  0  0  0  0  0  0  0
   52.2430   24.3360   46.2515 H   0  0  0  0  0  0  0  0  0  0  0  0
   52.1653   25.2348   44.6982 H   0  0  0  0  0  0  0  0  0  0  0  0
   52.4882   23.4678   44.6982 H   0  0  0  0  0  0  0  0  0  0  0  0
   56.1404   24.4938   47.3600 H   0  0  0  0  0  0  0  0  0  0  0  0
   58.4684   24.9808   48.1011 H   0  0  0  0  0  0  0  0  0  0  0  0
   59.0418   29.6783   48.3881 H   0  0  0  0  0  0  0  0  0  0  0  0
   60.7125   29.9943   49.0475 H   0  0  0  0  0  0  0  0  0  0  0  0
   63.6796   32.0622   48.2484 H   0  0  0  0  0  0  0  0  0  0  0  0
   63.3229   31.2336   46.6951 H   0  0  0  0  0  0  0  0  0  0  0  0
   63.8739   32.9433   46.6951 H   0  0  0  0  0  0  0  0  0  0  0  0
   62.0831   34.7834   47.9095 H   0  0  0  0  0  0  0  0  0  0  0  0
   59.2760   35.4910   48.7280 H   0  0  0  0  0  0  0  0  0  0  0  0
   57.9553   31.4186   47.5971 H   0  0  0  0  0  0  0  0  0  0  0  0
   57.5785   33.1607   47.2818 H   0  0  0  0  0  0  0  0  0  0  0  0
   57.2391   30.0077   45.9009 H   0  0  0  0  0  0  0  0  0  0  0  0
   56.8663   29.5251   43.4815 H   0  0  0  0  0  0  0  0  0  0  0  0
   57.3893   31.2588   41.7632 H   0  0  0  0  0  0  0  0  0  0  0  0
   58.2824   33.4830   42.4643 H   0  0  0  0  0  0  0  0  0  0  0  0
   58.6775   33.9657   44.8805 H   0  0  0  0  0  0  0  0  0  0  0  0
   58.4593   28.6121   45.7494 H   0  0  0  0  0  0  0  0  0  0  0  0
   56.1283   28.1291   45.0121 H   0  0  0  0  0  0  0  0  0  0  0  0
  1  2  1  0
  2  3  2  0
  2  4  1  0
  4  5  1  0
  5  6  2  0
  6  7  1  0
  7  8  2  0
  8  9  1  0
  9 10  1  0
 10 11  2  0
 10 12  1  0
 12 13  1  0
 13 14  1  0
 14 15  2  0
 15 16  1  0
 15 17  1  0
 17 18  2  0
 18 19  1  0
 18 20  1  0
 20 21  1  0
 21 22  1  0
 22 23  2  0
 23 24  1  0
 24 25  2  0
 25 26  1  0
 26 27  2  0
  8 28  1  0
 28 29  2  0
 29  5  1  0
 20 14  1  0
 27 22  1  0
  1 30  1  0
  1 31  1  0
  1 32  1  0
  6 33  1  0
  7 34  1  0
 12 35  1  0
 12 36  1  0
 16 37  1  0
 16 38  1  0
 16 39  1  0
 17 40  1  0
 19 41  1  0
 21 42  1  0
 21 43  1  0
 23 44  1  0
 24 45  1  0
 25 46  1  0
 26 47  1  0
 27 48  1  0
 28 49  1  0
 29 50  1  0
M  CHG  2   4  -1   9  -1
M  END
>  <UniqueID>  (88) 
75

>  <SMILES>  (88) 
CC(=O)[N-]c1ccc([N-]C(=O)CSc2c(C)cc(O)n2Cc2ccccc2)cc1

>  <Energy>  (88) 
79.16750447771037

>  <Genealogy>  (88) 
CC(=O)[N-]c1ccc([N-]C(=O)CSc2c(C)cc(O)n2Cc2ccccc2)cc1 (protonated)
CC(=O)[N-]c1ccc([N-]C(=O)CSc2c(C)cc(O)n2Cc2ccccc2)cc1 (3D coordinates assigned)
CC(=O)[N-]c1ccc([N-]C(=O)CSc2c(C)cc(O)n2Cc2ccccc2)cc1 (optimized conformer: 79.16750447771037 kcal/mol)

>  <smiles>  (88) 
CC(=O)Nc1ccc(NC(=O)CSc2c(C)cc(O)n2Cc2ccccc2)cc1

>  <score_type>  (88) 
oracle

>  <origin>  (88) 
adg

>  <m_score__min__energy>  (88) 
-11.25

>  <m_primary>  (88) 
energy

$$$$
88:0
     RDKit          3D

 36 38  0  0  0  0  0  0  0  0999 V2000
   58.1390   27.0990   42.9100 C   0  0  0  0  0  0  0  0  0  0  0  0
   58.0960   27.6420   44.2610 N   0  0  0  0  0  0  0  0  0  0  0  0
   58.8580   28.6480   44.7270 C   0  0  0  0  0  0  0  0  0  0  0  0
   58.5840   28.7950   46.0710 C   0  0  0  0  0  0  0  0  0  0  0  0
   59.2430   29.7220   47.0450 C   0  0  0  0  0  0  0  0  0  0  0  0
   59.7960   30.8740   46.3420 N   0  0  0  0  0  0  0  0  0  0  0  0
   59.0010   31.9780   45.8990 C   0  0  0  0  0  0  0  0  0  0  0  0
   59.1090   33.3630   45.8740 C   0  0  0  0  0  0  0  0  0  0  0  0
   60.0910   34.3200   46.2870 N   0  0  0  0  0  0  0  0  0  0  0  0
   61.2460   33.9330   47.0360 C   0  0  0  0  0  0  0  0  0  0  0  0
   62.4820   33.8350   46.3840 C   0  0  0  0  0  0  0  0  0  0  0  0
   63.6270   33.4580   47.0900 C   0  0  0  0  0  0  0  0  0  0  0  0
   63.5480   33.1890   48.4610 C   0  0  0  0  0  0  0  0  0  0  0  0
   64.7290   32.8050   49.1900 C   0  0  0  0  0  0  0  0  0  0  0  0
   65.6790   32.4950   49.7730 N   0  0  0  0  0  0  0  0  0  0  0  0
   62.3220   33.3080   49.1260 C   0  0  0  0  0  0  0  0  0  0  0  0
   61.1710   33.6850   48.4210 C   0  0  0  0  0  0  0  0  0  0  0  0
   59.6710   33.9090   49.3120 Cl  0  0  0  0  0  0  0  0  0  0  0  0
   57.8590   33.4440   45.2880 C   0  0  0  0  0  0  0  0  0  0  0  0
   57.1110   34.3840   44.9100 O   0  0  0  0  0  0  0  0  0  0  0  0
   57.7690   32.0690   45.2810 C   0  0  0  0  0  0  0  0  0  0  0  0
   56.9080   31.2370   44.8890 O   0  0  0  0  0  0  0  0  0  0  0  0
   57.6570   27.8110   46.3630 C   0  0  0  0  0  0  0  0  0  0  0  0
   57.3790   27.1170   45.2430 N   0  0  0  0  0  0  0  0  0  0  0  0
   58.2258   26.0035   42.9577 H   0  0  0  0  0  0  0  0  0  0  0  0
   57.2165   27.3708   42.3760 H   0  0  0  0  0  0  0  0  0  0  0  0
   59.0072   27.5126   42.3760 H   0  0  0  0  0  0  0  0  0  0  0  0
   59.5716   29.2461   44.1413 H   0  0  0  0  0  0  0  0  0  0  0  0
   58.5004   30.0659   47.7800 H   0  0  0  0  0  0  0  0  0  0  0  0
   60.0563   29.1878   47.5580 H   0  0  0  0  0  0  0  0  0  0  0  0
   60.7950   30.8340   46.0350 H   0  0  0  0  0  0  0  0  0  0  0  0
   60.0650   35.2820   45.8880 H   0  0  0  0  0  0  0  0  0  0  0  0
   62.5514   34.0564   45.3088 H   0  0  0  0  0  0  0  0  0  0  0  0
   64.5914   33.3725   46.5678 H   0  0  0  0  0  0  0  0  0  0  0  0
   62.2618   33.1049   50.2054 H   0  0  0  0  0  0  0  0  0  0  0  0
   57.2164   27.6247   47.3536 H   0  0  0  0  0  0  0  0  0  0  0  0
  1  2  1  0
  2  3  1  0
  3  4  2  0
  4  5  1  0
  5  6  1  0
  6  7  1  0
  7  8  2  0
  8  9  1  0
  9 10  1  0
 10 11  2  0
 11 12  1  0
 12 13  2  0
 13 14  1  0
 14 15  3  0
 13 16  1  0
 16 17  2  0
 17 18  1  0
  8 19  1  0
 19 20  2  0
 19 21  1  0
 21 22  2  0
  4 23  1  0
 23 24  2  0
 24  2  1  0
 21  7  1  0
 17 10  1  0
  1 25  1  0
  1 26  1  0
  1 27  1  0
  3 28  1  0
  5 29  1  0
  5 30  1  0
  6 31  1  0
  9 32  1  0
 11 33  1  0
 12 34  1  0
 16 35  1  0
 23 36  1  0
M  END
>  <UniqueID>  (89) 
76

>  <SMILES>  (89) 
Cn1cc(CNc2c(Nc3ccc(C#N)cc3Cl)c(=O)c2=O)cn1

>  <Energy>  (89) 
59.613799781672576

>  <Genealogy>  (89) 
Cn1cc(CNc2c(Nc3ccc(C#N)cc3Cl)c(=O)c2=O)cn1 (3D coordinates assigned)
Cn1cc(CNc2c(Nc3ccc(C#N)cc3Cl)c(=O)c2=O)cn1 (optimized conformer: 59.613799781672576 kcal/mol)

>  <smiles>  (89) 
Cn1cc(CNc2c(Nc3ccc(C#N)cc3Cl)c(=O)c2=O)cn1

>  <score_type>  (89) 
oracle

>  <origin>  (89) 
adg

>  <m_score__min__energy>  (89) 
-6.96

>  <m_primary>  (89) 
energy

$$$$
89:0
     RDKit          3D

 26 27  0  0  0  0  0  0  0  0999 V2000
   56.1810   30.1060   44.8600 O   0  0  0  0  0  0  0  0  0  0  0  0
   57.4120   30.3340   45.0120 C   0  0  0  0  0  0  0  0  0  0  0  0
   58.3330   29.2470   45.1980 N   0  0  0  0  0  0  0  0  0  0  0  0
   58.0260   27.8780   44.8800 C   0  0  0  0  0  0  0  0  0  0  0  0
   58.0910   27.4540   43.5470 C   0  0  0  0  0  0  0  0  0  0  0  0
   57.7790   26.1380   43.2080 C   0  0  0  0  0  0  0  0  0  0  0  0
   57.3830   25.2260   44.1920 C   0  0  0  0  0  0  0  0  0  0  0  0
   57.0010   23.5820   43.6890 Cl  0  0  0  0  0  0  0  0  0  0  0  0
   57.2880   25.6380   45.5410 C   0  0  0  0  0  0  0  0  0  0  0  0
   56.8410   24.6670   46.6140 C   0  0  0  0  0  0  0  0  0  0  0  0
   57.0240   25.2370   47.8600 F   0  0  0  0  0  0  0  0  0  0  0  0
   57.5570   23.4820   46.5670 F   0  0  0  0  0  0  0  0  0  0  0  0
   55.5010   24.3690   46.4420 F   0  0  0  0  0  0  0  0  0  0  0  0
   57.6040   26.9720   45.8680 C   0  0  0  0  0  0  0  0  0  0  0  0
   57.8750   31.7320   45.0390 C   0  0  0  0  0  0  0  0  0  0  0  0
   57.7740   32.6550   44.0130 C   0  0  0  0  0  0  0  0  0  0  0  0
   58.3330   33.8190   44.5010 C   0  0  0  0  0  0  0  0  0  0  0  0
   58.7350   33.5300   45.7870 C   0  0  0  0  0  0  0  0  0  0  0  0
   59.5830   34.7490   46.9830 Br  0  0  0  0  0  0  0  0  0  0  0  0
   58.4510   32.2840   46.0820 O   0  0  0  0  0  0  0  0  0  0  0  0
   59.2340   29.4410   45.6890 H   0  0  0  0  0  0  0  0  0  0  0  0
   58.3903   28.1640   42.7619 H   0  0  0  0  0  0  0  0  0  0  0  0
   57.8448   25.8145   42.1587 H   0  0  0  0  0  0  0  0  0  0  0  0
   57.5191   27.3089   46.9117 H   0  0  0  0  0  0  0  0  0  0  0  0
   57.3387   32.4945   43.0156 H   0  0  0  0  0  0  0  0  0  0  0  0
   58.4362   34.7784   43.9728 H   0  0  0  0  0  0  0  0  0  0  0  0
  1  2  2  0
  2  3  1  0
  3  4  1  0
  4  5  2  0
  5  6  1  0
  6  7  2  0
  7  8  1  0
  7  9  1  0
  9 10  1  0
 10 11  1  0
 10 12  1  0
 10 13  1  0
  9 14  2  0
  2 15  1  0
 15 16  2  0
 16 17  1  0
 17 18  2  0
 18 19  1  0
 18 20  1  0
 14  4  1  0
 20 15  1  0
  3 21  1  0
  5 22  1  0
  6 23  1  0
 14 24  1  0
 16 25  1  0
 17 26  1  0
M  END
>  <UniqueID>  (90) 
77

>  <SMILES>  (90) 
O=C(Nc1ccc(Cl)c(C(F)(F)F)c1)c1ccc(Br)o1

>  <Energy>  (90) 
57.91794306279726

>  <Genealogy>  (90) 
O=C(Nc1ccc(Cl)c(C(F)(F)F)c1)c1ccc(Br)o1 (3D coordinates assigned)
O=C(Nc1ccc(Cl)c(C(F)(F)F)c1)c1ccc(Br)o1 (optimized conformer: 57.91794306279726 kcal/mol)

>  <smiles>  (90) 
O=C(Nc1ccc(Cl)c(C(F)(F)F)c1)c1ccc(Br)o1

>  <score_type>  (90) 
oracle

>  <origin>  (90) 
adg

>  <m_score__min__energy>  (90) 
-6.5099999999999998

>  <m_primary>  (90) 
energy

$$$$
90:0
     RDKit          3D

 46 48  0  0  0  0  0  0  0  0999 V2000
   58.6180   34.0650   44.9090 C   0  0  0  0  0  0  0  0  0  0  0  0
   58.7320   32.6570   45.0830 O   0  0  0  0  0  0  0  0  0  0  0  0
   57.9150   31.7110   44.4470 C   0  0  0  0  0  0  0  0  0  0  0  0
   57.7710   31.7840   43.0570 C   0  0  0  0  0  0  0  0  0  0  0  0
   56.9590   30.8720   42.3800 C   0  0  0  0  0  0  0  0  0  0  0  0
   56.2910   29.8680   43.0860 C   0  0  0  0  0  0  0  0  0  0  0  0
   56.4430   29.7630   44.4790 C   0  0  0  0  0  0  0  0  0  0  0  0
   55.7620   28.7600   45.2460 N   0  0  0  0  0  0  0  0  0  0  0  0
   56.2770   27.4790   45.6280 C   0  0  0  0  0  0  0  0  0  0  0  0
   55.5330   26.6220   46.1790 O   0  0  0  0  0  0  0  0  0  0  0  0
   57.7080   27.1310   45.3150 C   0  0  0  0  0  0  0  0  0  0  0  0
   58.6830   28.1080   45.8480 N   0  0  0  0  0  0  0  0  0  0  0  0
   58.7400   28.1160   47.3290 C   0  0  0  0  0  0  0  0  0  0  0  0
   60.0030   28.8140   47.8710 C   0  0  0  0  0  0  0  0  0  0  0  0
   60.5430   29.7580   46.8840 N   0  0  0  0  0  0  0  0  0  0  0  0
   60.8750   31.1080   47.2610 C   0  0  0  0  0  0  0  0  0  0  0  0
   62.1980   31.4520   47.5840 C   0  0  0  0  0  0  0  0  0  0  0  0
   62.5010   32.7660   47.9430 C   0  0  0  0  0  0  0  0  0  0  0  0
   61.4920   33.7280   47.9720 C   0  0  0  0  0  0  0  0  0  0  0  0
   60.1880   33.3590   47.6360 C   0  0  0  0  0  0  0  0  0  0  0  0
   59.9070   32.0730   47.2890 N   0  0  0  0  0  0  0  0  0  0  0  0
   60.7980   29.2900   45.5140 C   0  0  0  0  0  0  0  0  0  0  0  0
   60.0140   28.0050   45.2250 C   0  0  0  0  0  0  0  0  0  0  0  0
   57.2390   30.6980   45.1560 C   0  0  0  0  0  0  0  0  0  0  0  0
   58.5784   34.5541   45.8935 H   0  0  0  0  0  0  0  0  0  0  0  0
   59.4890   34.4370   44.3495 H   0  0  0  0  0  0  0  0  0  0  0  0
   57.6985   34.2921   44.3495 H   0  0  0  0  0  0  0  0  0  0  0  0
   58.3015   32.5657   42.4935 H   0  0  0  0  0  0  0  0  0  0  0  0
   56.8448   30.9440   41.2883 H   0  0  0  0  0  0  0  0  0  0  0  0
   55.6443   29.1579   42.5498 H   0  0  0  0  0  0  0  0  0  0  0  0
   57.9297   26.1452   45.7498 H   0  0  0  0  0  0  0  0  0  0  0  0
   57.8102   27.1364   44.2198 H   0  0  0  0  0  0  0  0  0  0  0  0
   57.8542   28.6434   47.7126 H   0  0  0  0  0  0  0  0  0  0  0  0
   58.7676   27.0694   47.6665 H   0  0  0  0  0  0  0  0  0  0  0  0
   59.7460   29.3612   48.7900 H   0  0  0  0  0  0  0  0  0  0  0  0
   60.7654   28.0492   48.0804 H   0  0  0  0  0  0  0  0  0  0  0  0
   62.9907   30.6899   47.5541 H   0  0  0  0  0  0  0  0  0  0  0  0
   63.5336   33.0423   48.2026 H   0  0  0  0  0  0  0  0  0  0  0  0
   61.7207   34.7657   48.2563 H   0  0  0  0  0  0  0  0  0  0  0  0
   59.3847   34.1103   47.6517 H   0  0  0  0  0  0  0  0  0  0  0  0
   58.9270   31.8380   47.0160 H   0  0  0  0  0  0  0  0  0  0  0  0
   60.4880   30.0697   44.8026 H   0  0  0  0  0  0  0  0  0  0  0  0
   61.8724   29.0802   45.4065 H   0  0  0  0  0  0  0  0  0  0  0  0
   59.9040   27.8760   44.1381 H   0  0  0  0  0  0  0  0  0  0  0  0
   60.5526   27.1390   45.6373 H   0  0  0  0  0  0  0  0  0  0  0  0
   57.3366   30.6402   46.2501 H   0  0  0  0  0  0  0  0  0  0  0  0
  1  2  1  0
  2  3  1  0
  3  4  2  0
  4  5  1  0
  5  6  2  0
  6  7  1  0
  7  8  1  0
  8  9  1  0
  9 10  2  0
  9 11  1  0
 11 12  1  0
 12 13  1  0
 13 14  1  0
 14 15  1  0
 15 16  1  0
 16 17  2  0
 17 18  1  0
 18 19  2  0
 19 20  1  0
 20 21  2  0
 15 22  1  0
 22 23  1  0
  7 24  2  0
 24  3  1  0
 23 12  1  0
 21 16  1  0
  1 25  1  0
  1 26  1  0
  1 27  1  0
  4 28  1  0
  5 29  1  0
  6 30  1  0
 11 31  1  0
 11 32  1  0
 13 33  1  0
 13 34  1  0
 14 35  1  0
 14 36  1  0
 17 37  1  0
 18 38  1  0
 19 39  1  0
 20 40  1  0
 21 41  1  0
 22 42  1  0
 22 43  1  0
 23 44  1  0
 23 45  1  0
 24 46  1  0
M  CHG  2   8  -1  21   1
M  END
>  <UniqueID>  (91) 
78

>  <SMILES>  (91) 
COc1cccc([N-]C(=O)CN2CCN(c3cccc[nH+]3)CC2)c1

>  <Energy>  (91) 
61.151411760716044

>  <Genealogy>  (91) 
COc1cccc([N-]C(=O)CN2CCN(c3cccc[nH+]3)CC2)c1 (protonated)
COc1cccc([N-]C(=O)CN2CCN(c3cccc[nH+]3)CC2)c1 (3D coordinates assigned)
COc1cccc([N-]C(=O)CN2CCN(c3cccc[nH+]3)CC2)c1 (nonaromatic ring conformer: 61.151411760716044 kcal/mol)

>  <smiles>  (91) 
COc1cccc(NC(=O)CN2CCN(c3ccccn3)CC2)c1

>  <score_type>  (91) 
oracle

>  <origin>  (91) 
adg

>  <m_score__min__energy>  (91) 
-8.1400000000000006

>  <m_primary>  (91) 
energy

$$$$
91:0
     RDKit          3D

 37 39  0  0  0  0  0  0  0  0999 V2000
   55.5910   30.3520   44.5700 O   0  0  0  0  0  0  0  0  0  0  0  0
   56.8190   30.6200   44.6540 C   0  0  0  0  0  0  0  0  0  0  0  0
   57.2520   31.9540   44.3570 N   0  0  0  0  0  0  0  0  0  0  0  0
   57.8860   32.8620   45.2700 C   0  0  0  0  0  0  0  0  0  0  0  0
   57.9680   32.5140   46.6240 C   0  0  0  0  0  0  0  0  0  0  0  0
   58.5910   33.3710   47.5370 C   0  0  0  0  0  0  0  0  0  0  0  0
   59.1500   34.5750   47.0990 C   0  0  0  0  0  0  0  0  0  0  0  0
   59.0940   34.9190   45.7450 C   0  0  0  0  0  0  0  0  0  0  0  0
   59.6500   36.0800   45.3190 F   0  0  0  0  0  0  0  0  0  0  0  0
   58.4720   34.0640   44.8300 C   0  0  0  0  0  0  0  0  0  0  0  0
   57.7760   29.5420   44.9980 C   0  0  0  0  0  0  0  0  0  0  0  0
   59.1600   29.7340   44.8540 C   0  0  0  0  0  0  0  0  0  0  0  0
   60.0540   28.7150   45.1910 C   0  0  0  0  0  0  0  0  0  0  0  0
   59.5790   27.4860   45.6540 C   0  0  0  0  0  0  0  0  0  0  0  0
   60.4700   26.5360   46.0350 F   0  0  0  0  0  0  0  0  0  0  0  0
   58.1940   27.2600   45.7640 C   0  0  0  0  0  0  0  0  0  0  0  0
   57.6750   26.0110   46.2480 N   0  0  0  0  0  0  0  0  0  0  0  0
   56.2770   25.6780   46.2290 C   0  0  0  0  0  0  0  0  0  0  0  0
   55.4200   26.5730   45.9890 O   0  0  0  0  0  0  0  0  0  0  0  0
   55.8340   24.2980   46.5230 C   0  0  0  0  0  0  0  0  0  0  0  0
   54.6100   23.8110   46.0400 C   0  0  0  0  0  0  0  0  0  0  0  0
   54.2450   22.4980   46.3440 C   0  0  0  0  0  0  0  0  0  0  0  0
   53.1540   22.0300   45.9270 O   0  0  0  0  0  0  0  0  0  0  0  0
   55.0700   21.7210   47.0920 N   0  0  0  0  0  0  0  0  0  0  0  0
   56.2540   22.2040   47.5520 C   0  0  0  0  0  0  0  0  0  0  0  0
   57.0060   21.4690   48.2440 O   0  0  0  0  0  0  0  0  0  0  0  0
   56.6260   23.4790   47.2660 N   0  0  0  0  0  0  0  0  0  0  0  0
   57.3020   28.2970   45.4500 C   0  0  0  0  0  0  0  0  0  0  0  0
   57.5403   31.5619   46.9712 H   0  0  0  0  0  0  0  0  0  0  0  0
   58.6412   33.0972   48.6012 H   0  0  0  0  0  0  0  0  0  0  0  0
   59.6336   35.2514   47.8191 H   0  0  0  0  0  0  0  0  0  0  0  0
   58.4405   34.3313   43.7634 H   0  0  0  0  0  0  0  0  0  0  0  0
   59.5422   30.6927   44.4735 H   0  0  0  0  0  0  0  0  0  0  0  0
   61.1368   28.8813   45.0913 H   0  0  0  0  0  0  0  0  0  0  0  0
   58.3300   25.3800   46.7610 H   0  0  0  0  0  0  0  0  0  0  0  0
   53.9513   24.4506   45.4341 H   0  0  0  0  0  0  0  0  0  0  0  0
   56.2195   28.1344   45.5586 H   0  0  0  0  0  0  0  0  0  0  0  0
  1  2  2  0
  2  3  1  0
  3  4  1  0
  4  5  2  0
  5  6  1  0
  6  7  2  0
  7  8  1  0
  8  9  1  0
  8 10  2  0
  2 11  1  0
 11 12  2  0
 12 13  1  0
 13 14  2  0
 14 15  1  0
 14 16  1  0
 16 17  1  0
 17 18  1  0
 18 19  2  0
 18 20  1  0
 20 21  2  0
 21 22  1  0
 22 23  2  0
 22 24  1  0
 24 25  1  0
 25 26  2  0
 25 27  1  0
 16 28  2  0
 10  4  1  0
 28 11  1  0
 27 20  1  0
  5 29  1  0
  6 30  1  0
  7 31  1  0
 10 32  1  0
 12 33  1  0
 13 34  1  0
 17 35  1  0
 21 36  1  0
 28 37  1  0
M  CHG  3   3  -1  24  -1  27  -1
M  END
>  <UniqueID>  (92) 
79

>  <SMILES>  (92) 
O=C([N-]c1cccc(F)c1)c1ccc(F)c(NC(=O)c2cc(=O)[n-]c(=O)[n-]2)c1

>  <Energy>  (92) 
53.30664775290213

>  <Genealogy>  (92) 
O=C([N-]c1cccc(F)c1)c1ccc(F)c(NC(=O)c2cc(=O)[n-]c(=O)[n-]2)c1 (protonated)
O=C([N-]c1cccc(F)c1)c1ccc(F)c(NC(=O)c2cc(=O)[n-]c(=O)[n-]2)c1 (3D coordinates assigned)
O=C([N-]c1cccc(F)c1)c1ccc(F)c(NC(=O)c2cc(=O)[n-]c(=O)[n-]2)c1 (optimized conformer: 53.30664775290213 kcal/mol)

>  <smiles>  (92) 
O=C(Nc1cccc(F)c1)c1ccc(F)c(NC(=O)c2cc(=O)[nH]c(=O)[nH]2)c1

>  <score_type>  (92) 
oracle

>  <origin>  (92) 
adg

>  <m_score__min__energy>  (92) 
-13.69

>  <m_primary>  (92) 
energy

$$$$
92:0
     RDKit          3D

 47 50  0  0  0  0  0  0  0  0999 V2000
   57.4540   33.8694   52.6420 H   0  0  0  0  0  0  0  0  0  0  0  0
   57.3870   32.8550   52.2220 C   0  0  0  0  0  0  0  0  0  0  0  0
   56.4870   31.9700   52.7200 N   0  0  0  0  0  0  0  0  0  0  0  0
   56.3620   30.7210   52.1910 C   0  0  0  0  0  0  0  0  0  0  0  0
   55.5560   29.8420   52.7070 N   0  0  0  0  0  0  0  0  0  0  0  0
   54.1270   29.7870   52.5710 C   0  0  0  0  0  0  0  0  0  0  0  0
   53.3730   28.6650   52.9570 C   0  0  0  0  0  0  0  0  0  0  0  0
   53.8784   27.7660   53.3395 H   0  0  0  0  0  0  0  0  0  0  0  0
   51.9740   28.6950   52.8530 C   0  0  0  0  0  0  0  0  0  0  0  0
   51.3813   27.8268   53.1769 H   0  0  0  0  0  0  0  0  0  0  0  0
   51.3300   29.8270   52.3380 C   0  0  0  0  0  0  0  0  0  0  0  0
   50.2357   29.8289   52.2263 H   0  0  0  0  0  0  0  0  0  0  0  0
   52.0710   30.9600   51.9630 C   0  0  0  0  0  0  0  0  0  0  0  0
   51.4130   32.1410   51.3540 C   0  0  0  0  0  0  0  0  0  0  0  0
   51.8620   32.6500   50.2940 O   0  0  0  0  0  0  0  0  0  0  0  0
   50.2800   32.7250   51.9970 N   0  0  0  0  0  0  0  0  0  0  0  0
   50.3080   33.3230   53.3250 C   0  0  0  0  0  0  0  0  0  0  0  0
   50.2708   32.5291   54.0855 H   0  0  0  0  0  0  0  0  0  0  0  0
   51.2343   33.9037   53.4462 H   0  0  0  0  0  0  0  0  0  0  0  0
   49.4400   33.9877   53.4462 H   0  0  0  0  0  0  0  0  0  0  0  0
   53.4690   30.9320   52.1050 C   0  0  0  0  0  0  0  0  0  0  0  0
   54.0565   31.8250   51.8456 H   0  0  0  0  0  0  0  0  0  0  0  0
   57.1630   30.3460   51.1620 N   0  0  0  0  0  0  0  0  0  0  0  0
   58.0940   31.1880   50.6420 C   0  0  0  0  0  0  0  0  0  0  0  0
   58.9780   30.6990   49.6340 N   0  0  0  0  0  0  0  0  0  0  0  0
   58.8940   30.0310   48.3180 C   0  0  0  0  0  0  0  0  0  0  0  0
   58.6523   28.9609   48.3985 H   0  0  0  0  0  0  0  0  0  0  0  0
   58.1170   30.3830   47.6235 H   0  0  0  0  0  0  0  0  0  0  0  0
   60.3230   30.2760   47.9310 C   0  0  0  0  0  0  0  0  0  0  0  0
   61.0302   29.4904   47.6266 H   0  0  0  0  0  0  0  0  0  0  0  0
   60.4360   31.1680   46.8250 O   0  0  0  0  0  0  0  0  0  0  0  0
   59.3900   32.0050   46.4110 C   0  0  0  0  0  0  0  0  0  0  0  0
   59.3310   33.2920   46.9400 C   0  0  0  0  0  0  0  0  0  0  0  0
   60.0193   33.5883   47.7452 H   0  0  0  0  0  0  0  0  0  0  0  0
   58.3930   34.2100   46.4450 C   0  0  0  0  0  0  0  0  0  0  0  0
   58.3564   35.2310   46.8527 H   0  0  0  0  0  0  0  0  0  0  0  0
   57.5040   33.8300   45.4340 C   0  0  0  0  0  0  0  0  0  0  0  0
   56.6760   34.7520   44.8710 F   0  0  0  0  0  0  0  0  0  0  0  0
   57.5260   32.5140   44.9460 C   0  0  0  0  0  0  0  0  0  0  0  0
   56.8073   32.2021   44.1739 H   0  0  0  0  0  0  0  0  0  0  0  0
   58.4560   31.6040   45.4380 C   0  0  0  0  0  0  0  0  0  0  0  0
   58.4613   30.5689   45.0657 H   0  0  0  0  0  0  0  0  0  0  0  0
   60.3690   30.9830   49.2470 C   0  0  0  0  0  0  0  0  0  0  0  0
   61.0999   30.5407   49.9399 H   0  0  0  0  0  0  0  0  0  0  0  0
   60.6770   32.0389   49.2348 H   0  0  0  0  0  0  0  0  0  0  0  0
   58.2290   32.4730   51.1730 C   0  0  0  0  0  0  0  0  0  0  0  0
   58.9815   33.1694   50.7745 H   0  0  0  0  0  0  0  0  0  0  0  0
  1  2  1  0
  2  3  1  0
  3  4  1  0
  4  5  2  0
  5  6  1  0
  6  7  2  0
  7  8  1  0
  7  9  1  0
  9 10  1  0
  9 11  2  0
 11 12  1  0
 11 13  1  0
 13 14  1  0
 14 15  2  0
 14 16  1  0
 16 17  1  0
 17 18  1  0
 17 19  1  0
 17 20  1  0
 13 21  2  0
 21 22  1  0
  4 23  1  0
 23 24  2  0
 24 25  1  0
 25 26  1  0
 26 27  1  0
 26 28  1  0
 26 29  1  0
 29 30  1  0
 29 31  1  0
 31 32  1  0
 32 33  2  0
 33 34  1  0
 33 35  1  0
 35 36  1  0
 35 37  2  0
 37 38  1  0
 37 39  1  0
 39 40  1  0
 39 41  2  0
 41 42  1  0
 29 43  1  0
 43 44  1  0
 43 45  1  0
 24 46  1  0
 46 47  1  0
 46  2  2  0
 21  6  1  0
 43 25  1  0
 41 32  1  0
M  CHG  2   3  -1  16  -1
M  END
>  <UniqueID>  (93) 
80

>  <SMILES>  (93) 
C[N-]C(=O)c1cccc(/N=c2/nc(N3CC(Oc4ccc(F)cc4)C3)cc[n-]2)c1

>  <Energy>  (93) 
106.56315452732308

>  <Genealogy>  (93) 
C[N-]C(=O)c1cccc(N=c2nc(N3CC(Oc4ccc(F)cc4)C3)cc[n-]2)c1 (protonated)
C[N-]C(=O)c1cccc(/N=c2/nc(N3CC(Oc4ccc(F)cc4)C3)cc[n-]2)c1 (cis-trans isomerization)
C[N-]C(=O)c1cccc(/N=c2/nc(N3CC(Oc4ccc(F)cc4)C3)cc[n-]2)c1 (3D coordinates assigned)
C[N-]C(=O)c1cccc(/N=c2/nc(N3CC(Oc4ccc(F)cc4)C3)cc[n-]2)c1 (nonaromatic ring conformer: 106.56315452732308 kcal/mol)

>  <smiles>  (93) 
CNC(=O)c1cccc(N=c2nc(N3CC(Oc4ccc(F)cc4)C3)cc[nH]2)c1

>  <score_type>  (93) 
oracle

>  <origin>  (93) 
adg

>  <m_score__min__energy>  (93) 
-12.56

>  <m_primary>  (93) 
energy

$$$$
