0:0
     RDKit          3D

 60 63  0  0  0  0  0  0  0  0999 V2000
   63.4100   33.6160   46.7090 C   0  0  0  0  0  0  0  0  0  0  0  0
   62.7480   33.8350   48.0650 C   0  0  0  0  0  0  0  0  0  0  0  0
   61.4600   33.2230   48.1040 O   0  0  0  0  0  0  0  0  0  0  0  0
   61.2100   31.8400   48.0840 C   0  0  0  0  0  0  0  0  0  0  0  0
   61.0130   31.2260   46.8430 C   0  0  0  0  0  0  0  0  0  0  0  0
   60.7350   29.8600   46.7600 C   0  0  0  0  0  0  0  0  0  0  0  0
   60.6520   29.0820   47.9260 C   0  0  0  0  0  0  0  0  0  0  0  0
   60.2310   27.6370   47.8460 C   0  0  0  0  0  0  0  0  0  0  0  0
   60.0730   27.1730   46.3890 C   0  0  0  0  0  0  0  0  0  0  0  0
   58.7210   26.6600   46.1330 N   0  0  0  0  0  0  0  0  0  0  0  0
   57.5500   27.3390   46.1650 C   0  0  0  0  0  0  0  0  0  0  0  0
   57.3990   28.8260   46.3160 C   0  0  0  0  0  0  0  0  0  0  0  0
   57.0790   29.4510   44.9860 C   0  0  0  0  0  0  0  0  0  0  0  0
   57.2280   28.7670   43.9390 O   0  0  0  0  0  0  0  0  0  0  0  0
   56.7010   30.8280   44.8640 N   0  0  0  0  0  0  0  0  0  0  0  0
   57.5250   31.9610   45.1690 C   0  0  0  0  0  0  0  0  0  0  0  0
   58.0360   32.7340   44.1180 C   0  0  0  0  0  0  0  0  0  0  0  0
   58.8260   33.8550   44.3880 C   0  0  0  0  0  0  0  0  0  0  0  0
   59.0940   34.2220   45.7100 C   0  0  0  0  0  0  0  0  0  0  0  0
   58.5630   33.4740   46.7640 C   0  0  0  0  0  0  0  0  0  0  0  0
   58.8080   33.8400   48.0460 F   0  0  0  0  0  0  0  0  0  0  0  0
   57.7720   32.3510   46.4970 C   0  0  0  0  0  0  0  0  0  0  0  0
   56.5220   26.4310   45.9980 C   0  0  0  0  0  0  0  0  0  0  0  0
   55.1640   26.7300   45.9940 O   0  0  0  0  0  0  0  0  0  0  0  0
   57.0330   25.1870   45.8800 N   0  0  0  0  0  0  0  0  0  0  0  0
   56.3120   23.9470   45.7850 C   0  0  0  0  0  0  0  0  0  0  0  0
   55.3040   23.6370   46.7120 C   0  0  0  0  0  0  0  0  0  0  0  0
   54.6100   22.4270   46.6220 C   0  0  0  0  0  0  0  0  0  0  0  0
   54.9190   21.5150   45.6090 C   0  0  0  0  0  0  0  0  0  0  0  0
   55.9240   21.8080   44.6820 C   0  0  0  0  0  0  0  0  0  0  0  0
   56.2290   20.8880   43.6810 O   0  0  0  0  0  0  0  0  0  0  0  0
   56.6180   23.0220   44.7700 C   0  0  0  0  0  0  0  0  0  0  0  0
   58.3700   25.3650   45.9630 C   0  0  0  0  0  0  0  0  0  0  0  0
   59.2060   24.4230   45.8840 O   0  0  0  0  0  0  0  0  0  0  0  0
   60.8570   29.6910   49.1730 C   0  0  0  0  0  0  0  0  0  0  0  0
   61.1350   31.0590   49.2540 C   0  0  0  0  0  0  0  0  0  0  0  0
   64.4448   33.2737   46.8572 H   0  0  0  0  0  0  0  0  0  0  0  0
   62.8493   32.8555   46.1458 H   0  0  0  0  0  0  0  0  0  0  0  0
   63.4135   34.5609   46.1458 H   0  0  0  0  0  0  0  0  0  0  0  0
   63.3803   33.3952   48.8504 H   0  0  0  0  0  0  0  0  0  0  0  0
   62.6300   34.9162   48.2296 H   0  0  0  0  0  0  0  0  0  0  0  0
   61.0777   31.8252   45.9228 H   0  0  0  0  0  0  0  0  0  0  0  0
   60.5804   29.3914   45.7769 H   0  0  0  0  0  0  0  0  0  0  0  0
   60.9936   27.0153   48.3378 H   0  0  0  0  0  0  0  0  0  0  0  0
   59.2572   27.5343   48.3471 H   0  0  0  0  0  0  0  0  0  0  0  0
   60.2653   28.0244   45.7195 H   0  0  0  0  0  0  0  0  0  0  0  0
   60.7918   26.3609   46.2047 H   0  0  0  0  0  0  0  0  0  0  0  0
   56.5840   29.0389   47.0235 H   0  0  0  0  0  0  0  0  0  0  0  0
   58.3424   29.2470   46.6938 H   0  0  0  0  0  0  0  0  0  0  0  0
   57.8146   32.4576   43.0766 H   0  0  0  0  0  0  0  0  0  0  0  0
   59.2375   34.4494   43.5589 H   0  0  0  0  0  0  0  0  0  0  0  0
   59.7229   35.0996   45.9205 H   0  0  0  0  0  0  0  0  0  0  0  0
   57.3425   31.7721   47.3279 H   0  0  0  0  0  0  0  0  0  0  0  0
   55.0592   24.3500   47.5131 H   0  0  0  0  0  0  0  0  0  0  0  0
   53.8193   22.1922   47.3497 H   0  0  0  0  0  0  0  0  0  0  0  0
   54.3701   20.5642   45.5408 H   0  0  0  0  0  0  0  0  0  0  0  0
   56.9130   20.1550   43.8260 H   0  0  0  0  0  0  0  0  0  0  0  0
   57.4078   23.2536   44.0402 H   0  0  0  0  0  0  0  0  0  0  0  0
   60.7987   29.0892   50.0919 H   0  0  0  0  0  0  0  0  0  0  0  0
   61.2959   31.5276   50.2361 H   0  0  0  0  0  0  0  0  0  0  0  0
  1  2  1  0
  2  3  1  0
  3  4  1  0
  4  5  2  0
  5  6  1  0
  6  7  2  0
  7  8  1  0
  8  9  1  0
  9 10  1  0
 10 11  1  0
 11 12  1  0
 12 13  1  0
 13 14  2  0
 13 15  1  0
 15 16  1  0
 16 17  2  0
 17 18  1  0
 18 19  2  0
 19 20  1  0
 20 21  1  0
 20 22  2  0
 11 23  2  0
 23 24  1  0
 23 25  1  0
 25 26  1  0
 26 27  2  0
 27 28  1  0
 28 29  2  0
 29 30  1  0
 30 31  1  0
 30 32  2  0
 25 33  1  0
 33 34  2  0
  7 35  1  0
 35 36  2  0
 36  4  1  0
 33 10  1  0
 22 16  1  0
 32 26  1  0
  1 37  1  0
  1 38  1  0
  1 39  1  0
  2 40  1  0
  2 41  1  0
  5 42  1  0
  6 43  1  0
  8 44  1  0
  8 45  1  0
  9 46  1  0
  9 47  1  0
 12 48  1  0
 12 49  1  0
 17 50  1  0
 18 51  1  0
 19 52  1  0
 22 53  1  0
 27 54  1  0
 28 55  1  0
 29 56  1  0
 31 57  1  0
 32 58  1  0
 35 59  1  0
 36 60  1  0
M  CHG  2  15  -1  24  -1
M  END
>  <UniqueID>  (1) 
1

>  <SMILES>  (1) 
CCOc1ccc(CCn2c(CC(=O)[N-]c3cccc(F)c3)c([O-])n(-c3cccc(O)c3)c2=O)cc1

>  <Energy>  (1) 
98.78101071390472

>  <Genealogy>  (1) 
CCOc1ccc(CCn2c(CC(=O)[N-]c3cccc(F)c3)c([O-])n(-c3cccc(O)c3)c2=O)cc1 (protonated)
CCOc1ccc(CCn2c(CC(=O)[N-]c3cccc(F)c3)c([O-])n(-c3cccc(O)c3)c2=O)cc1 (3D coordinates assigned)
CCOc1ccc(CCn2c(CC(=O)[N-]c3cccc(F)c3)c([O-])n(-c3cccc(O)c3)c2=O)cc1 (optimized conformer: 98.78101071390472 kcal/mol)

>  <smiles>  (1) 
CCOc1ccc(CCn2c(CC(=O)Nc3cccc(F)c3)c(O)n(-c3cccc(O)c3)c2=O)cc1

>  <score_type>  (1) 
oracle

>  <origin>  (1) 
adg

>  <m_score__min__energy>  (1) 
-13.77

>  <m_primary>  (1) 
energy

$$$$
1:0
     RDKit          3D

 36 38  0  0  0  0  0  0  0  0999 V2000
   57.4600   25.1350   47.0950 C   0  0  0  0  0  0  0  0  0  0  0  0
   58.4640   26.1380   47.2150 O   0  0  0  0  0  0  0  0  0  0  0  0
   58.6340   27.2000   46.3120 C   0  0  0  0  0  0  0  0  0  0  0  0
   59.9380   27.5560   45.9450 C   0  0  0  0  0  0  0  0  0  0  0  0
   60.1590   28.6050   45.0490 C   0  0  0  0  0  0  0  0  0  0  0  0
   59.0790   29.3060   44.5110 C   0  0  0  0  0  0  0  0  0  0  0  0
   57.7690   28.9610   44.8640 C   0  0  0  0  0  0  0  0  0  0  0  0
   56.4150   29.8440   44.1680 S   0  0  0  0  0  0  0  0  0  0  0  0
   56.3500   29.6350   42.6800 O   0  0  0  0  0  0  0  0  0  0  0  0
   55.1390   29.3470   44.7860 O   0  0  0  0  0  0  0  0  0  0  0  0
   56.5820   31.5400   44.4940 N   0  0  0  0  0  0  0  0  0  0  0  0
   57.4540   32.0450   45.3140 C   0  0  0  0  0  0  0  0  0  0  0  0
   57.7930   31.4240   46.4680 N   0  0  0  0  0  0  0  0  0  0  0  0
   58.7240   32.1430   47.1470 C   0  0  0  0  0  0  0  0  0  0  0  0
   59.2720   31.7630   48.3700 C   0  0  0  0  0  0  0  0  0  0  0  0
   60.2310   32.5980   48.9700 C   0  0  0  0  0  0  0  0  0  0  0  0
   60.6350   33.8000   48.3510 C   0  0  0  0  0  0  0  0  0  0  0  0
   61.5950   34.5920   48.9980 O   0  0  0  0  0  0  0  0  0  0  0  0
   62.8500   34.1090   49.4670 C   0  0  0  0  0  0  0  0  0  0  0  0
   60.0670   34.1690   47.1090 C   0  0  0  0  0  0  0  0  0  0  0  0
   59.1200   33.3230   46.5390 C   0  0  0  0  0  0  0  0  0  0  0  0
   58.2920   33.5070   45.0910 S   0  0  0  0  0  0  0  0  0  0  0  0
   57.5460   27.9110   45.7680 C   0  0  0  0  0  0  0  0  0  0  0  0
   57.1397   24.8150   48.0975 H   0  0  0  0  0  0  0  0  0  0  0  0
   56.5977   25.5431   46.5474 H   0  0  0  0  0  0  0  0  0  0  0  0
   57.8672   24.2723   46.5474 H   0  0  0  0  0  0  0  0  0  0  0  0
   60.7934   27.0063   46.3648 H   0  0  0  0  0  0  0  0  0  0  0  0
   61.1864   28.8788   44.7671 H   0  0  0  0  0  0  0  0  0  0  0  0
   59.2576   30.1323   43.8073 H   0  0  0  0  0  0  0  0  0  0  0  0
   58.9603   30.8273   48.8572 H   0  0  0  0  0  0  0  0  0  0  0  0
   60.6725   32.3102   49.9355 H   0  0  0  0  0  0  0  0  0  0  0  0
   62.8544   34.1073   50.5670 H   0  0  0  0  0  0  0  0  0  0  0  0
   63.0099   33.0851   49.0981 H   0  0  0  0  0  0  0  0  0  0  0  0
   63.6551   34.7615   49.0981 H   0  0  0  0  0  0  0  0  0  0  0  0
   60.3661   35.1007   46.6066 H   0  0  0  0  0  0  0  0  0  0  0  0
   56.5181   27.6421   46.0529 H   0  0  0  0  0  0  0  0  0  0  0  0
  1  2  1  0
  2  3  1  0
  3  4  2  0
  4  5  1  0
  5  6  2  0
  6  7  1  0
  7  8  1  0
  8  9  2  0
  8 10  2  0
  8 11  1  0
 11 12  2  3
 12 13  1  0
 13 14  1  0
 14 15  2  0
 15 16  1  0
 16 17  2  0
 17 18  1  0
 18 19  1  0
 17 20  1  0
 20 21  2  0
 21 22  1  0
  7 23  2  0
 23  3  1  0
 22 12  1  0
 21 14  1  0
  1 24  1  0
  1 25  1  0
  1 26  1  0
  4 27  1  0
  5 28  1  0
  6 29  1  0
 15 30  1  0
 16 31  1  0
 19 32  1  0
 19 33  1  0
 19 34  1  0
 20 35  1  0
 23 36  1  0
M  CHG  1  13  -1
M  END
>  <UniqueID>  (2) 
2

>  <SMILES>  (2) 
COc1cccc(S(=O)(=O)N=c2[n-]c3ccc(OC)cc3s2)c1

>  <Energy>  (2) 
74.96546210741732

>  <Genealogy>  (2) 
COc1cccc(S(=O)(=O)N=c2[n-]c3ccc(OC)cc3s2)c1 (protonated)
COc1cccc(S(=O)(=O)N=c2[n-]c3ccc(OC)cc3s2)c1 (3D coordinates assigned)
COc1cccc(S(=O)(=O)N=c2[n-]c3ccc(OC)cc3s2)c1 (optimized conformer: 74.96546210741732 kcal/mol)

>  <smiles>  (2) 
COc1cccc(S(=O)(=O)N=c2[nH]c3ccc(OC)cc3s2)c1

>  <score_type>  (2) 
oracle

>  <origin>  (2) 
adg

>  <m_score__min__energy>  (2) 
-9.3399999999999999

>  <m_primary>  (2) 
energy

$$$$
2:0
     RDKit          3D

 36 37  0  0  0  0  0  0  0  0999 V2000
   61.6010   31.3430   47.4860 C   0  0  0  0  0  0  0  0  0  0  0  0
   60.4550   30.7150   48.0520 O   0  0  0  0  0  0  0  0  0  0  0  0
   59.6550   29.7770   47.3840 C   0  0  0  0  0  0  0  0  0  0  0  0
   59.9320   28.3990   47.4050 C   0  0  0  0  0  0  0  0  0  0  0  0
   59.1090   27.5040   46.7200 C   0  0  0  0  0  0  0  0  0  0  0  0
   57.9930   27.9690   46.0020 C   0  0  0  0  0  0  0  0  0  0  0  0
   57.1340   27.0730   45.2790 N   0  0  0  0  0  0  0  0  0  0  0  0
   56.1430   25.8430   45.9930 S   0  0  0  0  0  0  0  0  0  0  0  0
   54.7130   26.3010   45.9910 O   0  0  0  0  0  0  0  0  0  0  0  0
   56.5790   25.6490   47.4180 O   0  0  0  0  0  0  0  0  0  0  0  0
   56.2610   24.3340   45.0530 C   0  0  0  0  0  0  0  0  0  0  0  0
   57.5020   23.6830   44.8520 C   0  0  0  0  0  0  0  0  0  0  0  0
   58.7870   24.2220   45.4220 C   0  0  0  0  0  0  0  0  0  0  0  0
   57.5370   22.5070   44.1570 N   0  0  0  0  0  0  0  0  0  0  0  0
   56.4090   21.9660   43.6290 C   0  0  0  0  0  0  0  0  0  0  0  0
   56.4670   20.8830   42.9880 O   0  0  0  0  0  0  0  0  0  0  0  0
   55.2170   22.5890   43.7890 N   0  0  0  0  0  0  0  0  0  0  0  0
   55.1150   23.7500   44.4810 C   0  0  0  0  0  0  0  0  0  0  0  0
   53.9840   24.2880   44.6020 O   0  0  0  0  0  0  0  0  0  0  0  0
   57.7050   29.3430   45.9810 C   0  0  0  0  0  0  0  0  0  0  0  0
   56.5820   29.7800   45.2590 O   0  0  0  0  0  0  0  0  0  0  0  0
   56.4980   29.8090   43.8370 C   0  0  0  0  0  0  0  0  0  0  0  0
   58.5430   30.2390   46.6730 C   0  0  0  0  0  0  0  0  0  0  0  0
   62.2575   31.7028   48.2919 H   0  0  0  0  0  0  0  0  0  0  0  0
   62.1470   30.6180   46.8644 H   0  0  0  0  0  0  0  0  0  0  0  0
   61.2837   32.1933   46.8644 H   0  0  0  0  0  0  0  0  0  0  0  0
   60.8019   28.0242   47.9642 H   0  0  0  0  0  0  0  0  0  0  0  0
   59.3348   26.4277   46.7419 H   0  0  0  0  0  0  0  0  0  0  0  0
   58.7379   24.2014   46.5207 H   0  0  0  0  0  0  0  0  0  0  0  0
   59.6284   23.6010   45.0809 H   0  0  0  0  0  0  0  0  0  0  0  0
   58.9336   25.2574   45.0809 H   0  0  0  0  0  0  0  0  0  0  0  0
   58.4460   22.0070   44.0230 H   0  0  0  0  0  0  0  0  0  0  0  0
   55.4980   30.1542   43.5357 H   0  0  0  0  0  0  0  0  0  0  0  0
   57.2587   30.4966   43.4387 H   0  0  0  0  0  0  0  0  0  0  0  0
   56.6725   28.7986   43.4387 H   0  0  0  0  0  0  0  0  0  0  0  0
   58.3199   31.3160   46.6539 H   0  0  0  0  0  0  0  0  0  0  0  0
  1  2  1  0
  2  3  1  0
  3  4  2  0
  4  5  1  0
  5  6  2  0
  6  7  1  0
  7  8  1  0
  8  9  2  0
  8 10  2  0
  8 11  1  0
 11 12  2  0
 12 13  1  0
 12 14  1  0
 14 15  1  0
 15 16  2  0
 15 17  1  0
 17 18  1  0
 18 19  2  0
  6 20  1  0
 20 21  1  0
 21 22  1  0
 20 23  2  0
 23  3  1  0
 18 11  1  0
  1 24  1  0
  1 25  1  0
  1 26  1  0
  4 27  1  0
  5 28  1  0
 13 29  1  0
 13 30  1  0
 13 31  1  0
 14 32  1  0
 22 33  1  0
 22 34  1  0
 22 35  1  0
 23 36  1  0
M  CHG  2   7  -1  17  -1
M  END
>  <UniqueID>  (3) 
3

>  <SMILES>  (3) 
COc1ccc([N-]S(=O)(=O)c2c(C)[nH]c(=O)[n-]c2=O)c(OC)c1

>  <Energy>  (3) 
41.97321717232403

>  <Genealogy>  (3) 
COc1ccc([N-]S(=O)(=O)c2c(C)[nH]c(=O)[n-]c2=O)c(OC)c1 (protonated)
COc1ccc([N-]S(=O)(=O)c2c(C)[nH]c(=O)[n-]c2=O)c(OC)c1 (3D coordinates assigned)
COc1ccc([N-]S(=O)(=O)c2c(C)[nH]c(=O)[n-]c2=O)c(OC)c1 (optimized conformer: 41.97321717232403 kcal/mol)

>  <smiles>  (3) 
COc1ccc(NS(=O)(=O)c2c(C)[nH]c(=O)[nH]c2=O)c(OC)c1

>  <score_type>  (3) 
oracle

>  <origin>  (3) 
adg

>  <m_score__min__energy>  (3) 
-10.42

>  <m_primary>  (3) 
energy

$$$$
3:0
     RDKit          3D

 92 97  0  0  0  0  0  0  0  0999 V2000
   56.3040   29.4740   43.3030 C   0  0  0  0  0  0  0  0  0  0  0  0
   56.4620   29.9740   44.6260 O   0  0  0  0  0  0  0  0  0  0  0  0
   57.3570   30.9890   45.0040 C   0  0  0  0  0  0  0  0  0  0  0  0
   57.3940   32.2290   44.3190 C   0  0  0  0  0  0  0  0  0  0  0  0
   58.3290   33.2070   44.6670 C   0  0  0  0  0  0  0  0  0  0  0  0
   59.2830   32.9520   45.6580 C   0  0  0  0  0  0  0  0  0  0  0  0
   60.3090   33.9900   46.0420 C   0  0  0  0  0  0  0  0  0  0  0  0
   60.1640   34.5430   47.7900 S   0  0  0  0  0  0  0  0  0  0  0  0
   61.5630   33.5950   48.4290 C   0  0  0  0  0  0  0  0  0  0  0  0
   62.5370   33.1730   47.5220 C   0  0  0  0  0  0  0  0  0  0  0  0
   63.7180   32.5840   47.9660 C   0  0  0  0  0  0  0  0  0  0  0  0
   63.9810   32.4640   49.3450 C   0  0  0  0  0  0  0  0  0  0  0  0
   65.2170   31.9820   49.8230 O   0  0  0  0  0  0  0  0  0  0  0  0
   66.3570   32.7960   50.1010 C   0  0  0  0  0  0  0  0  0  0  0  0
   62.9940   32.8640   50.2750 C   0  0  0  0  0  0  0  0  0  0  0  0
   63.3830   32.9510   51.7360 C   0  0  0  0  0  0  0  0  0  0  0  0
   62.6030   31.9910   52.4430 O   0  0  0  0  0  0  0  0  0  0  0  0
   62.6210   30.6260   52.1460 C   0  0  0  0  0  0  0  0  0  0  0  0
   63.6060   29.8250   52.7370 C   0  0  0  0  0  0  0  0  0  0  0  0
   63.6450   28.4490   52.4940 C   0  0  0  0  0  0  0  0  0  0  0  0
   62.6980   27.8570   51.6490 C   0  0  0  0  0  0  0  0  0  0  0  0
   61.6990   28.6460   51.0560 C   0  0  0  0  0  0  0  0  0  0  0  0
   60.7200   28.0810   50.2340 C   0  0  0  0  0  0  0  0  0  0  0  0
   59.7220   28.8830   49.6860 C   0  0  0  0  0  0  0  0  0  0  0  0
   59.7150   30.2600   49.9580 C   0  0  0  0  0  0  0  0  0  0  0  0
   58.6350   31.1430   49.4270 C   0  0  0  0  0  0  0  0  0  0  0  0
   60.6720   30.7950   50.7630 N   0  0  0  0  0  0  0  0  0  0  0  0
   61.6620   30.0380   51.3080 C   0  0  0  0  0  0  0  0  0  0  0  0
   61.7530   33.3740   49.8100 C   0  0  0  0  0  0  0  0  0  0  0  0
   60.4740   33.8300   50.9460 Cl  0  0  0  0  0  0  0  0  0  0  0  0
   59.2650   31.7150   46.3120 C   0  0  0  0  0  0  0  0  0  0  0  0
   58.2710   30.7650   46.0620 C   0  0  0  0  0  0  0  0  0  0  0  0
   58.2970   29.6170   46.8670 O   0  0  0  0  0  0  0  0  0  0  0  0
   58.2800   28.2840   46.4530 C   0  0  0  0  0  0  0  0  0  0  0  0
   57.0440   27.6380   46.4380 C   0  0  0  0  0  0  0  0  0  0  0  0
   56.9390   26.2860   46.0870 C   0  0  0  0  0  0  0  0  0  0  0  0
   55.7160   25.6010   46.1250 O   0  0  0  0  0  0  0  0  0  0  0  0
   55.5140   24.3060   46.6870 C   0  0  0  0  0  0  0  0  0  0  0  0
   54.5130   23.4760   45.8610 C   0  0  0  0  0  0  0  0  0  0  0  0
   55.2430   22.6630   44.8610 N   0  0  0  0  0  0  0  0  0  0  0  0
   55.5020   23.4110   43.6120 C   0  0  0  0  0  0  0  0  0  0  0  0
   56.2810   22.5500   42.5910 C   0  0  0  0  0  0  0  0  0  0  0  0
   56.4620   21.1700   43.0600 N   0  0  0  0  0  0  0  0  0  0  0  0
   57.1600   21.1550   44.3550 C   0  0  0  0  0  0  0  0  0  0  0  0
   56.4860   22.0810   45.4000 C   0  0  0  0  0  0  0  0  0  0  0  0
   58.0860   25.5960   45.6800 C   0  0  0  0  0  0  0  0  0  0  0  0
   59.3220   26.2490   45.6260 C   0  0  0  0  0  0  0  0  0  0  0  0
   59.4310   27.6050   45.9950 C   0  0  0  0  0  0  0  0  0  0  0  0
   60.6450   28.3030   45.9150 O   0  0  0  0  0  0  0  0  0  0  0  0
   61.1210   28.9440   44.7390 C   0  0  0  0  0  0  0  0  0  0  0  0
   55.9728   28.4259   43.3443 H   0  0  0  0  0  0  0  0  0  0  0  0
   55.5521   30.0755   42.7711 H   0  0  0  0  0  0  0  0  0  0  0  0
   57.2649   29.5342   42.7711 H   0  0  0  0  0  0  0  0  0  0  0  0
   56.6796   32.4234   43.5054 H   0  0  0  0  0  0  0  0  0  0  0  0
   58.3150   34.1826   44.1591 H   0  0  0  0  0  0  0  0  0  0  0  0
   61.3114   33.5622   45.8930 H   0  0  0  0  0  0  0  0  0  0  0  0
   60.1359   34.8706   45.4059 H   0  0  0  0  0  0  0  0  0  0  0  0
   62.3693   33.3075   46.4432 H   0  0  0  0  0  0  0  0  0  0  0  0
   64.4504   32.2100   47.2354 H   0  0  0  0  0  0  0  0  0  0  0  0
   66.4854   32.8877   51.1896 H   0  0  0  0  0  0  0  0  0  0  0  0
   67.2538   32.3327   49.6638 H   0  0  0  0  0  0  0  0  0  0  0  0
   66.2099   33.7946   49.6638 H   0  0  0  0  0  0  0  0  0  0  0  0
   64.4533   32.7262   51.8540 H   0  0  0  0  0  0  0  0  0  0  0  0
   63.2006   33.9630   52.1267 H   0  0  0  0  0  0  0  0  0  0  0  0
   64.3560   30.2829   53.3986 H   0  0  0  0  0  0  0  0  0  0  0  0
   64.4212   27.8298   52.9675 H   0  0  0  0  0  0  0  0  0  0  0  0
   62.7366   26.7758   51.4501 H   0  0  0  0  0  0  0  0  0  0  0  0
   60.7378   27.0022   50.0198 H   0  0  0  0  0  0  0  0  0  0  0  0
   58.9452   28.4407   49.0449 H   0  0  0  0  0  0  0  0  0  0  0  0
   58.0841   31.5934   50.2658 H   0  0  0  0  0  0  0  0  0  0  0  0
   59.0810   31.9385   48.8119 H   0  0  0  0  0  0  0  0  0  0  0  0
   57.9440   30.5478   48.8119 H   0  0  0  0  0  0  0  0  0  0  0  0
   60.0544   31.4842   47.0425 H   0  0  0  0  0  0  0  0  0  0  0  0
   56.1368   28.1994   46.7062 H   0  0  0  0  0  0  0  0  0  0  0  0
   56.4775   23.7761   46.7167 H   0  0  0  0  0  0  0  0  0  0  0  0
   55.1020   24.4320   47.6991 H   0  0  0  0  0  0  0  0  0  0  0  0
   53.9488   22.8109   46.5313 H   0  0  0  0  0  0  0  0  0  0  0  0
   53.8188   24.1537   45.3425 H   0  0  0  0  0  0  0  0  0  0  0  0
   54.5411   23.7107   43.1683 H   0  0  0  0  0  0  0  0  0  0  0  0
   56.1108   24.2939   43.8567 H   0  0  0  0  0  0  0  0  0  0  0  0
   55.7239   22.5326   41.6427 H   0  0  0  0  0  0  0  0  0  0  0  0
   57.2771   22.9975   42.4590 H   0  0  0  0  0  0  0  0  0  0  0  0
   55.5220   20.7300   43.1920 H   0  0  0  0  0  0  0  0  0  0  0  0
   57.1616   20.1259   44.7437 H   0  0  0  0  0  0  0  0  0  0  0  0
   58.1827   21.5246   44.1893 H   0  0  0  0  0  0  0  0  0  0  0  0
   56.2489   21.4956   46.3006 H   0  0  0  0  0  0  0  0  0  0  0  0
   57.1799   22.8984   45.6457 H   0  0  0  0  0  0  0  0  0  0  0  0
   58.0156   24.5343   45.4010 H   0  0  0  0  0  0  0  0  0  0  0  0
   60.2153   25.7002   45.2931 H   0  0  0  0  0  0  0  0  0  0  0  0
   61.7553   29.7982   45.0182 H   0  0  0  0  0  0  0  0  0  0  0  0
   61.7091   28.2295   44.1444 H   0  0  0  0  0  0  0  0  0  0  0  0
   60.2669   29.3004   44.1444 H   0  0  0  0  0  0  0  0  0  0  0  0
  1  2  1  0
  2  3  1  0
  3  4  2  0
  4  5  1  0
  5  6  2  0
  6  7  1  0
  7  8  1  0
  8  9  1  0
  9 10  2  0
 10 11  1  0
 11 12  2  0
 12 13  1  0
 13 14  1  0
 12 15  1  0
 15 16  1  0
 16 17  1  0
 17 18  1  0
 18 19  2  0
 19 20  1  0
 20 21  2  0
 21 22  1  0
 22 23  2  0
 23 24  1  0
 24 25  2  0
 25 26  1  0
 25 27  1  0
 27 28  2  0
 15 29  2  0
 29 30  1  0
  6 31  1  0
 31 32  2  0
 32 33  1  0
 33 34  1  0
 34 35  2  0
 35 36  1  0
 36 37  1  0
 37 38  1  0
 38 39  1  0
 39 40  1  0
 40 41  1  0
 41 42  1  0
 42 43  1  0
 43 44  1  0
 44 45  1  0
 36 46  2  0
 46 47  1  0
 47 48  2  0
 48 49  1  0
 49 50  1  0
 32  3  1  0
 48 34  1  0
 29  9  1  0
 45 40  1  0
 28 18  1  0
 28 22  1  0
  1 51  1  0
  1 52  1  0
  1 53  1  0
  4 54  1  0
  5 55  1  0
  7 56  1  0
  7 57  1  0
 10 58  1  0
 11 59  1  0
 14 60  1  0
 14 61  1  0
 14 62  1  0
 16 63  1  0
 16 64  1  0
 19 65  1  0
 20 66  1  0
 21 67  1  0
 23 68  1  0
 24 69  1  0
 26 70  1  0
 26 71  1  0
 26 72  1  0
 31 73  1  0
 35 74  1  0
 38 75  1  0
 38 76  1  0
 39 77  1  0
 39 78  1  0
 41 79  1  0
 41 80  1  0
 42 81  1  0
 42 82  1  0
 43 83  1  0
 44 84  1  0
 44 85  1  0
 45 86  1  0
 45 87  1  0
 46 88  1  0
 47 89  1  0
 50 90  1  0
 50 91  1  0
 50 92  1  0
M  END
>  <UniqueID>  (4) 
4

>  <SMILES>  (4) 
COc1ccc(CSc2ccc(OC)c(COc3cccc4ccc(C)nc34)c2Cl)cc1Oc1cc(OCCN2CCNCC2)ccc1OC

>  <Energy>  (4) 
117.67027896887573

>  <Genealogy>  (4) 
COc1ccc(CSc2ccc(OC)c(COc3cccc4ccc(C)nc34)c2Cl)cc1Oc1cc(OCCN2CCNCC2)ccc1OC (3D coordinates assigned)
COc1ccc(CSc2ccc(OC)c(COc3cccc4ccc(C)nc34)c2Cl)cc1Oc1cc(OCCN2CCNCC2)ccc1OC (nonaromatic ring conformer: 117.67027896887573 kcal/mol)

>  <smiles>  (4) 
COc1ccc(CSc2ccc(OC)c(COc3cccc4ccc(C)nc34)c2Cl)cc1Oc1cc(OCCN2CCNCC2)ccc1OC

>  <score_type>  (4) 
oracle

>  <origin>  (4) 
adg

>  <m_score__min__energy>  (4) 
-10.039999999999999

>  <m_primary>  (4) 
energy

$$$$
4:0
     RDKit          3D

 52 55  0  0  0  0  0  0  0  0999 V2000
   56.9398   22.3481   43.3474 H   0  0  0  0  0  0  0  0  0  0  0  0
   57.6000   22.8120   44.0950 C   0  0  0  0  0  0  0  0  0  0  0  0
   57.3990   24.3350   44.7840 S   0  0  0  0  0  0  0  0  0  0  0  0
   58.7830   24.2120   45.7220 C   0  0  0  0  0  0  0  0  0  0  0  0
   59.1790   25.1400   46.5440 N   0  0  0  0  0  0  0  0  0  0  0  0
   59.9160   26.3100   46.1690 C   0  0  0  0  0  0  0  0  0  0  0  0
   61.1760   26.2670   46.1850 O   0  0  0  0  0  0  0  0  0  0  0  0
   59.2270   27.5650   45.7950 C   0  0  0  0  0  0  0  0  0  0  0  0
   57.8260   27.6520   45.8550 C   0  0  0  0  0  0  0  0  0  0  0  0
   57.2406   26.7973   46.2248 H   0  0  0  0  0  0  0  0  0  0  0  0
   57.1720   28.8170   45.4480 C   0  0  0  0  0  0  0  0  0  0  0  0
   56.0757   28.8806   45.5116 H   0  0  0  0  0  0  0  0  0  0  0  0
   57.9070   29.9050   44.9590 C   0  0  0  0  0  0  0  0  0  0  0  0
   57.0740   31.3270   44.3290 S   0  0  0  0  0  0  0  0  0  0  0  0
   57.3550   31.4510   42.8560 O   0  0  0  0  0  0  0  0  0  0  0  0
   55.5900   31.1570   44.5070 O   0  0  0  0  0  0  0  0  0  0  0  0
   57.5810   32.7820   45.1600 N   0  0  0  0  0  0  0  0  0  0  0  0
   57.4660   32.6450   46.6320 C   0  0  0  0  0  0  0  0  0  0  0  0
   56.7377   31.8503   46.8513 H   0  0  0  0  0  0  0  0  0  0  0  0
   57.1489   33.6231   47.0229 H   0  0  0  0  0  0  0  0  0  0  0  0
   58.7940   32.2920   47.3240 C   0  0  0  0  0  0  0  0  0  0  0  0
   59.0644   31.2552   47.0751 H   0  0  0  0  0  0  0  0  0  0  0  0
   58.6636   32.4073   48.4101 H   0  0  0  0  0  0  0  0  0  0  0  0
   59.8720   33.1870   46.8860 N   0  0  0  0  0  0  0  0  0  0  0  0
   61.1420   33.1590   47.5570 C   0  0  0  0  0  0  0  0  0  0  0  0
   62.1420   32.2690   47.1410 C   0  0  0  0  0  0  0  0  0  0  0  0
   61.9548   31.5936   46.2932 H   0  0  0  0  0  0  0  0  0  0  0  0
   63.3750   32.2350   47.7970 C   0  0  0  0  0  0  0  0  0  0  0  0
   64.1511   31.5274   47.4699 H   0  0  0  0  0  0  0  0  0  0  0  0
   63.6260   33.1010   48.8720 C   0  0  0  0  0  0  0  0  0  0  0  0
   64.9270   33.0390   49.6100 C   0  0  0  0  0  0  0  0  0  0  0  0
   64.7350   33.0482   50.6931 H   0  0  0  0  0  0  0  0  0  0  0  0
   65.4582   32.1145   49.3396 H   0  0  0  0  0  0  0  0  0  0  0  0
   65.5438   33.9088   49.3396 H   0  0  0  0  0  0  0  0  0  0  0  0
   62.6190   33.9780   49.3010 C   0  0  0  0  0  0  0  0  0  0  0  0
   62.8008   34.6440   50.1574 H   0  0  0  0  0  0  0  0  0  0  0  0
   61.3880   34.0090   48.6460 C   0  0  0  0  0  0  0  0  0  0  0  0
   60.6055   34.7038   48.9851 H   0  0  0  0  0  0  0  0  0  0  0  0
   59.6660   34.0430   45.7160 C   0  0  0  0  0  0  0  0  0  0  0  0
   60.6397   34.3509   45.3071 H   0  0  0  0  0  0  0  0  0  0  0  0
   59.0984   34.9400   46.0043 H   0  0  0  0  0  0  0  0  0  0  0  0
   58.8920   33.2560   44.6610 C   0  0  0  0  0  0  0  0  0  0  0  0
   59.4916   32.3843   44.3600 H   0  0  0  0  0  0  0  0  0  0  0  0
   58.7043   33.9288   43.8112 H   0  0  0  0  0  0  0  0  0  0  0  0
   59.3060   29.8320   44.9240 C   0  0  0  0  0  0  0  0  0  0  0  0
   59.8901   30.6903   44.5605 H   0  0  0  0  0  0  0  0  0  0  0  0
   59.9630   28.6730   45.3490 C   0  0  0  0  0  0  0  0  0  0  0  0
   61.0620   28.6299   45.3335 H   0  0  0  0  0  0  0  0  0  0  0  0
   59.3990   23.0220   45.5390 N   0  0  0  0  0  0  0  0  0  0  0  0
   60.2570   22.7000   46.0410 H   0  0  0  0  0  0  0  0  0  0  0  0
   58.7470   22.2440   44.6370 C   0  0  0  0  0  0  0  0  0  0  0  0
   59.0998   21.2405   44.3566 H   0  0  0  0  0  0  0  0  0  0  0  0
  1  2  1  0
  2  3  1  0
  3  4  1  0
  4  5  2  0
  5  6  1  0
  6  7  2  0
  6  8  1  0
  8  9  2  0
  9 10  1  0
  9 11  1  0
 11 12  1  0
 11 13  2  0
 13 14  1  0
 14 15  2  0
 14 16  2  0
 14 17  1  0
 17 18  1  0
 18 19  1  0
 18 20  1  0
 18 21  1  0
 21 22  1  0
 21 23  1  0
 21 24  1  0
 24 25  1  0
 25 26  2  0
 26 27  1  0
 26 28  1  0
 28 29  1  0
 28 30  2  0
 30 31  1  0
 31 32  1  0
 31 33  1  0
 31 34  1  0
 30 35  1  0
 35 36  1  0
 35 37  2  0
 37 38  1  0
 24 39  1  0
 39 40  1  0
 39 41  1  0
 39 42  1  0
 42 43  1  0
 42 44  1  0
 13 45  1  0
 45 46  1  0
 45 47  2  0
 47 48  1  0
  4 49  1  0
 49 50  1  0
 49 51  1  0
 51 52  1  0
 51  2  2  0
 47  8  1  0
 42 17  1  0
 37 25  1  0
M  END
>  <UniqueID>  (5) 
5

>  <SMILES>  (5) 
Cc1ccc(N2CCN(S(=O)(=O)c3ccc(C(=O)/N=c4\[nH]ccs4)cc3)CC2)cc1

>  <Energy>  (5) 
99.44075880297972

>  <Genealogy>  (5) 
Cc1ccc(N2CCN(S(=O)(=O)c3ccc(C(=O)/N=c4\[nH]ccs4)cc3)CC2)cc1 (cis-trans isomerization)
Cc1ccc(N2CCN(S(=O)(=O)c3ccc(C(=O)/N=c4\[nH]ccs4)cc3)CC2)cc1 (3D coordinates assigned)
Cc1ccc(N2CCN(S(=O)(=O)c3ccc(C(=O)/N=c4\[nH]ccs4)cc3)CC2)cc1 (nonaromatic ring conformer: 99.44075880297972 kcal/mol)

>  <smiles>  (5) 
Cc1ccc(N2CCN(S(=O)(=O)c3ccc(C(=O)N=c4[nH]ccs4)cc3)CC2)cc1

>  <score_type>  (5) 
oracle

>  <origin>  (5) 
adg

>  <m_score__min__energy>  (5) 
-9.25

>  <m_primary>  (5) 
energy

$$$$
5:0
     RDKit          3D

 51 54  0  0  0  0  0  0  0  0999 V2000
   55.2290   29.3350   44.8780 O   0  0  0  0  0  0  0  0  0  0  0  0
   56.4340   29.6780   44.7440 C   0  0  0  0  0  0  0  0  0  0  0  0
   57.4530   28.6550   44.3560 C   0  0  0  0  0  0  0  0  0  0  0  0
   59.1500   29.3240   44.4670 S   0  0  0  0  0  0  0  0  0  0  0  0
   59.2550   29.2870   46.2690 C   0  0  0  0  0  0  0  0  0  0  0  0
   59.1020   30.4720   46.9150 N   0  0  0  0  0  0  0  0  0  0  0  0
   59.2040   30.5720   48.2600 C   0  0  0  0  0  0  0  0  0  0  0  0
   59.0220   31.8120   48.8850 C   0  0  0  0  0  0  0  0  0  0  0  0
   59.1320   31.9160   50.2750 C   0  0  0  0  0  0  0  0  0  0  0  0
   59.4250   30.7850   51.0420 C   0  0  0  0  0  0  0  0  0  0  0  0
   59.6100   29.5440   50.4220 C   0  0  0  0  0  0  0  0  0  0  0  0
   59.5000   29.4310   49.0230 C   0  0  0  0  0  0  0  0  0  0  0  0
   59.6800   28.2110   48.3500 C   0  0  0  0  0  0  0  0  0  0  0  0
   59.9690   27.1740   49.0120 O   0  0  0  0  0  0  0  0  0  0  0  0
   59.5450   28.1420   46.9820 N   0  0  0  0  0  0  0  0  0  0  0  0
   59.7590   26.8400   46.3110 C   0  0  0  0  0  0  0  0  0  0  0  0
   58.4730   26.0700   46.1030 C   0  0  0  0  0  0  0  0  0  0  0  0
   58.4960   24.9170   45.2980 C   0  0  0  0  0  0  0  0  0  0  0  0
   57.3170   24.2140   45.0330 C   0  0  0  0  0  0  0  0  0  0  0  0
   56.1030   24.6550   45.5640 C   0  0  0  0  0  0  0  0  0  0  0  0
   54.6230   23.7810   45.2150 Cl  0  0  0  0  0  0  0  0  0  0  0  0
   56.0670   25.8010   46.3640 C   0  0  0  0  0  0  0  0  0  0  0  0
   57.2430   26.5090   46.6290 C   0  0  0  0  0  0  0  0  0  0  0  0
   56.8400   31.0180   45.0360 N   0  0  0  0  0  0  0  0  0  0  0  0
   57.4220   31.8980   44.0300 C   0  0  0  0  0  0  0  0  0  0  0  0
   57.5110   33.3350   44.5600 C   0  0  1  0  0  0  0  0  0  0  0  0
   57.1180   33.4460   46.0360 C   0  0  0  0  0  0  0  0  0  0  0  0
   58.3030   34.1030   46.6820 C   0  0  0  0  0  0  0  0  0  0  0  0
   59.4070   33.8920   45.6730 C   0  0  0  0  0  0  0  0  0  0  0  0
   58.8300   33.8110   44.3930 O   0  0  0  0  0  0  0  0  0  0  0  0
   57.3652   27.7897   45.0295 H   0  0  0  0  0  0  0  0  0  0  0  0
   57.2660   28.3600   43.3129 H   0  0  0  0  0  0  0  0  0  0  0  0
   58.7927   32.7035   48.2828 H   0  0  0  0  0  0  0  0  0  0  0  0
   58.9877   32.8898   50.7658 H   0  0  0  0  0  0  0  0  0  0  0  0
   59.5104   30.8704   52.1353 H   0  0  0  0  0  0  0  0  0  0  0  0
   59.8416   28.6560   51.0284 H   0  0  0  0  0  0  0  0  0  0  0  0
   60.2224   27.0219   45.3301 H   0  0  0  0  0  0  0  0  0  0  0  0
   60.4066   26.2341   46.9618 H   0  0  0  0  0  0  0  0  0  0  0  0
   59.4483   24.5659   44.8739 H   0  0  0  0  0  0  0  0  0  0  0  0
   57.3456   23.3115   44.4048 H   0  0  0  0  0  0  0  0  0  0  0  0
   55.1115   26.1463   46.7857 H   0  0  0  0  0  0  0  0  0  0  0  0
   57.2071   27.4146   47.2523 H   0  0  0  0  0  0  0  0  0  0  0  0
   58.4318   31.5419   43.7781 H   0  0  0  0  0  0  0  0  0  0  0  0
   56.7822   31.8878   43.1353 H   0  0  0  0  0  0  0  0  0  0  0  0
   56.7974   33.9423   43.9838 H   0  0  0  0  0  0  0  0  0  0  0  0
   56.2160   34.0643   46.1545 H   0  0  0  0  0  0  0  0  0  0  0  0
   56.8801   32.4700   46.4841 H   0  0  0  0  0  0  0  0  0  0  0  0
   58.1187   35.1749   46.8467 H   0  0  0  0  0  0  0  0  0  0  0  0
   58.5392   33.6882   47.6730 H   0  0  0  0  0  0  0  0  0  0  0  0
   60.1107   34.7367   45.7104 H   0  0  0  0  0  0  0  0  0  0  0  0
   59.9539   32.9650   45.9000 H   0  0  0  0  0  0  0  0  0  0  0  0
  1  2  2  0
  2  3  1  0
  3  4  1  0
  4  5  1  0
  5  6  2  0
  6  7  1  0
  7  8  2  0
  8  9  1  0
  9 10  2  0
 10 11  1  0
 11 12  2  0
 12 13  1  0
 13 14  2  0
 13 15  1  0
 15 16  1  0
 16 17  1  0
 17 18  2  0
 18 19  1  0
 19 20  2  0
 20 21  1  0
 20 22  1  0
 22 23  2  0
  2 24  1  0
 24 25  1  0
 25 26  1  0
 26 27  1  0
 27 28  1  0
 28 29  1  0
 29 30  1  0
 15  5  1  0
 23 17  1  0
 30 26  1  0
 12  7  1  0
  3 31  1  0
  3 32  1  0
  8 33  1  0
  9 34  1  0
 10 35  1  0
 11 36  1  0
 16 37  1  0
 16 38  1  0
 18 39  1  0
 19 40  1  0
 22 41  1  0
 23 42  1  0
 25 43  1  0
 25 44  1  0
 26 45  1  6
 27 46  1  0
 27 47  1  0
 28 48  1  0
 28 49  1  0
 29 50  1  0
 29 51  1  0
M  CHG  1  24  -1
M  END
>  <UniqueID>  (6) 
6

>  <SMILES>  (6) 
O=C(CSc1nc2ccccc2c(=O)n1Cc1ccc(Cl)cc1)[N-]C[C@H]1CCCO1

>  <Energy>  (6) 
52.16279236695074

>  <Genealogy>  (6) 
O=C(CSc1nc2ccccc2c(=O)n1Cc1ccc(Cl)cc1)[N-]CC1CCCO1 (protonated)
O=C(CSc1nc2ccccc2c(=O)n1Cc1ccc(Cl)cc1)[N-]C[C@H]1CCCO1 (chirality)
O=C(CSc1nc2ccccc2c(=O)n1Cc1ccc(Cl)cc1)[N-]C[C@H]1CCCO1 (3D coordinates assigned)
O=C(CSc1nc2ccccc2c(=O)n1Cc1ccc(Cl)cc1)[N-]C[C@H]1CCCO1 (nonaromatic ring conformer: 52.16279236695074 kcal/mol)

>  <smiles>  (6) 
O=C(CSc1nc2ccccc2c(=O)n1Cc1ccc(Cl)cc1)NCC1CCCO1

>  <score_type>  (6) 
oracle

>  <origin>  (6) 
adg

>  <m_score__min__energy>  (6) 
-10.970000000000001

>  <m_primary>  (6) 
energy

$$$$
6:0
     RDKit          3D

 60 63  0  0  0  0  0  0  0  0999 V2000
   61.3960   26.9430   51.3000 H   0  0  0  0  0  0  0  0  0  0  0  0
   60.7530   27.7630   51.2670 N   0  0  0  0  0  0  0  0  0  0  0  0
   60.4120   28.3200   50.1470 C   0  0  0  0  0  0  0  0  0  0  0  0
   60.2950   29.7960   50.0690 C   0  0  0  0  0  0  0  0  0  0  0  0
   59.0560   30.4190   50.3040 C   0  0  0  0  0  0  0  0  0  0  0  0
   58.1748   29.8066   50.5457 H   0  0  0  0  0  0  0  0  0  0  0  0
   58.9350   31.8090   50.2330 C   0  0  0  0  0  0  0  0  0  0  0  0
   57.9595   32.2833   50.4157 H   0  0  0  0  0  0  0  0  0  0  0  0
   60.0510   32.6030   49.9300 C   0  0  0  0  0  0  0  0  0  0  0  0
   59.9160   34.0960   49.8680 C   0  0  0  0  0  0  0  0  0  0  0  0
   58.8520   34.3707   49.9177 H   0  0  0  0  0  0  0  0  0  0  0  0
   60.4506   34.5488   50.7160 H   0  0  0  0  0  0  0  0  0  0  0  0
   60.4870   34.5830   48.6150 N   0  0  0  0  0  0  0  0  0  0  0  0
   59.7830   34.6250   47.3670 C   0  0  0  0  0  0  0  0  0  0  0  0
   60.0000   35.5840   46.5770 O   0  0  0  0  0  0  0  0  0  0  0  0
   58.8330   33.5380   46.9550 C   0  0  0  0  0  0  0  0  0  0  0  0
   58.9183   32.6963   47.6580 H   0  0  0  0  0  0  0  0  0  0  0  0
   57.8079   33.9368   46.9658 H   0  0  0  0  0  0  0  0  0  0  0  0
   59.1460   33.0730   45.6080 N   0  0  0  0  0  0  0  0  0  0  0  0
   58.3930   32.0980   44.8750 C   0  0  0  0  0  0  0  0  0  0  0  0
   57.7210   32.4680   43.8790 O   0  0  0  0  0  0  0  0  0  0  0  0
   58.3440   30.6850   45.2860 C   0  0  0  0  0  0  0  0  0  0  0  0
   59.4780   30.0600   45.8360 C   0  0  0  0  0  0  0  0  0  0  0  0
   60.6570   30.7270   45.9280 F   0  0  0  0  0  0  0  0  0  0  0  0
   59.4030   28.7360   46.2750 C   0  0  0  0  0  0  0  0  0  0  0  0
   60.2921   28.2521   46.7056 H   0  0  0  0  0  0  0  0  0  0  0  0
   58.1960   28.0160   46.1700 C   0  0  0  0  0  0  0  0  0  0  0  0
   58.0760   26.6930   46.6380 C   0  0  0  0  0  0  0  0  0  0  0  0
   59.0640   26.1210   47.1770 O   0  0  0  0  0  0  0  0  0  0  0  0
   56.8360   26.0220   46.5370 C   0  0  0  0  0  0  0  0  0  0  0  0
   56.6690   24.6630   47.0940 C   0  0  0  0  0  0  0  0  0  0  0  0
   57.6850   23.9850   47.4080 O   0  0  0  0  0  0  0  0  0  0  0  0
   55.3580   24.1070   47.2460 N   0  0  0  0  0  0  0  0  0  0  0  0
   54.8650   22.9250   46.5450 C   0  0  0  0  0  0  0  0  0  0  0  0
   55.3363   22.8776   45.5522 H   0  0  0  0  0  0  0  0  0  0  0  0
   55.1197   22.0401   47.1467 H   0  0  0  0  0  0  0  0  0  0  0  0
   53.3680   22.9590   46.3730 C   0  0  0  0  0  0  0  0  0  0  0  0
   52.5330   22.2980   47.2950 C   0  0  0  0  0  0  0  0  0  0  0  0
   52.9772   21.7414   48.1334 H   0  0  0  0  0  0  0  0  0  0  0  0
   51.1430   22.3450   47.1510 C   0  0  0  0  0  0  0  0  0  0  0  0
   50.4969   21.8275   47.8754 H   0  0  0  0  0  0  0  0  0  0  0  0
   50.5750   23.0500   46.0860 C   0  0  0  0  0  0  0  0  0  0  0  0
   49.4816   23.0924   45.9735 H   0  0  0  0  0  0  0  0  0  0  0  0
   51.4040   23.7040   45.1600 C   0  0  0  0  0  0  0  0  0  0  0  0
   50.6260   24.6700   43.7130 Br  0  0  0  0  0  0  0  0  0  0  0  0
   52.7940   23.6630   45.3040 C   0  0  0  0  0  0  0  0  0  0  0  0
   53.4376   24.1828   44.5790 H   0  0  0  0  0  0  0  0  0  0  0  0
   55.7460   26.6930   45.9500 C   0  0  0  0  0  0  0  0  0  0  0  0
   54.5130   26.0630   45.8130 O   0  0  0  0  0  0  0  0  0  0  0  0
   55.8870   27.9660   45.5010 N   0  0  0  0  0  0  0  0  0  0  0  0
   57.0660   28.6410   45.5970 C   0  0  0  0  0  0  0  0  0  0  0  0
   57.1500   29.9620   45.1460 C   0  0  0  0  0  0  0  0  0  0  0  0
   56.2747   30.4370   44.6787 H   0  0  0  0  0  0  0  0  0  0  0  0
   61.2960   31.9890   49.7280 C   0  0  0  0  0  0  0  0  0  0  0  0
   62.1829   32.6060   49.5212 H   0  0  0  0  0  0  0  0  0  0  0  0
   61.4160   30.5970   49.7880 C   0  0  0  0  0  0  0  0  0  0  0  0
   62.3944   30.1253   49.6141 H   0  0  0  0  0  0  0  0  0  0  0  0
   60.1430   27.5000   49.0000 N   0  0  0  0  0  0  0  0  0  0  0  0
   59.7390   27.9010   48.1230 H   0  0  0  0  0  0  0  0  0  0  0  0
   60.2770   26.4660   49.0470 H   0  0  0  0  0  0  0  0  0  0  0  0
  1  2  1  0
  2  3  2  0
  3  4  1  0
  4  5  2  0
  5  6  1  0
  5  7  1  0
  7  8  1  0
  7  9  2  0
  9 10  1  0
 10 11  1  0
 10 12  1  0
 10 13  1  0
 13 14  1  0
 14 15  2  0
 14 16  1  0
 16 17  1  0
 16 18  1  0
 16 19  1  0
 19 20  1  0
 20 21  2  0
 20 22  1  0
 22 23  2  0
 23 24  1  0
 23 25  1  0
 25 26  1  0
 25 27  2  0
 27 28  1  0
 28 29  2  0
 28 30  1  0
 30 31  1  0
 31 32  2  0
 31 33  1  0
 33 34  1  0
 34 35  1  0
 34 36  1  0
 34 37  1  0
 37 38  2  0
 38 39  1  0
 38 40  1  0
 40 41  1  0
 40 42  2  0
 42 43  1  0
 42 44  1  0
 44 45  1  0
 44 46  2  0
 46 47  1  0
 30 48  2  0
 48 49  1  0
 48 50  1  0
 50 51  1  0
 51 52  2  0
 52 53  1  0
  9 54  1  0
 54 55  1  0
 54 56  2  0
 56 57  1  0
  3 58  1  0
 58 59  1  0
 58 60  1  0
 56  4  1  0
 52 22  1  0
 51 27  1  0
 46 37  1  0
M  CHG  5  13  -1  19  -1  33  -1  49  -1  50  -1
M  END
>  <UniqueID>  (7) 
7

>  <SMILES>  (7) 
[H]/N=C(\N)c1ccc(C[N-]C(=O)C[N-]C(=O)c2cc3[n-]c([O-])c(C(=O)[N-]Cc4cccc(Br)c4)c(=O)c3cc2F)cc1

>  <Energy>  (7) 
80.2819704758101

>  <Genealogy>  (7) 
N=C(N)c1ccc(C[N-]C(=O)C[N-]C(=O)c2cc3[n-]c([O-])c(C(=O)[N-]Cc4cccc(Br)c4)c(=O)c3cc2F)cc1 (protonated)
[H]/N=C(\N)c1ccc(C[N-]C(=O)C[N-]C(=O)c2cc3[n-]c([O-])c(C(=O)[N-]Cc4cccc(Br)c4)c(=O)c3cc2F)cc1 (cis-trans isomerization)
[H]/N=C(\N)c1ccc(C[N-]C(=O)C[N-]C(=O)c2cc3[n-]c([O-])c(C(=O)[N-]Cc4cccc(Br)c4)c(=O)c3cc2F)cc1 (3D coordinates assigned)
[H]/N=C(\N)c1ccc(C[N-]C(=O)C[N-]C(=O)c2cc3[n-]c([O-])c(C(=O)[N-]Cc4cccc(Br)c4)c(=O)c3cc2F)cc1 (optimized conformer: 80.2819704758101 kcal/mol)

>  <smiles>  (7) 
N=C(N)c1ccc(CNC(=O)CNC(=O)c2cc3[nH]c(O)c(C(=O)NCc4cccc(Br)c4)c(=O)c3cc2F)cc1

>  <score_type>  (7) 
oracle

>  <origin>  (7) 
adg

>  <m_score__min__energy>  (7) 
-16.52

>  <m_primary>  (7) 
energy

$$$$
7:0
     RDKit          3D

 58 60  0  0  0  0  0  0  0  0999 V2000
   58.0720   26.6390   43.8620 C   0  0  0  0  0  0  0  0  0  0  0  0
   58.4950   27.0030   45.2600 C   0  0  0  0  0  0  0  0  0  0  0  0
   59.6290   26.3960   45.8270 C   0  0  0  0  0  0  0  0  0  0  0  0
   60.0220   26.7070   47.1310 C   0  0  0  0  0  0  0  0  0  0  0  0
   59.2780   27.6150   47.8870 C   0  0  0  0  0  0  0  0  0  0  0  0
   58.1370   28.2090   47.3430 C   0  0  0  0  0  0  0  0  0  0  0  0
   57.7280   27.9020   46.0300 C   0  0  0  0  0  0  0  0  0  0  0  0
   56.5570   28.5030   45.4580 N   0  0  0  0  0  0  0  0  0  0  0  0
   56.5640   29.9200   44.4570 S   0  0  0  0  0  0  0  0  0  0  0  0
   55.1710   30.4800   44.4110 O   0  0  0  0  0  0  0  0  0  0  0  0
   56.9790   29.5870   43.0520 O   0  0  0  0  0  0  0  0  0  0  0  0
   57.6550   31.1070   45.1620 C   0  0  0  0  0  0  0  0  0  0  0  0
   58.9340   30.7190   45.5830 C   0  0  0  0  0  0  0  0  0  0  0  0
   59.7680   31.6320   46.2350 C   0  0  0  0  0  0  0  0  0  0  0  0
   59.3420   32.9520   46.4510 C   0  0  0  0  0  0  0  0  0  0  0  0
   60.2120   33.8950   47.1840 C   0  0  0  0  0  0  0  0  0  0  0  0
   59.9980   35.1350   47.0580 O   0  0  0  0  0  0  0  0  0  0  0  0
   61.2370   33.4230   48.0950 N   0  0  1  0  0  0  0  0  0  0  0  0
   62.5790   33.8440   47.6550 C   0  0  0  0  0  0  0  0  0  0  0  0
   60.9460   33.8110   49.4960 C   0  0  0  0  0  0  0  0  0  0  0  0
   59.8480   32.9950   50.1500 C   0  0  0  0  0  0  0  0  0  0  0  0
   59.5140   31.7280   49.6590 C   0  0  0  0  0  0  0  0  0  0  0  0
   58.5130   30.9690   50.2730 C   0  0  0  0  0  0  0  0  0  0  0  0
   57.8130   31.4610   51.3970 C   0  0  0  0  0  0  0  0  0  0  0  0
   56.7760   30.6700   52.0440 N   0  0  0  0  0  0  0  0  0  0  0  0
   57.1130   29.4220   52.7450 C   0  0  0  0  0  0  0  0  0  0  0  0
   55.3720   31.1050   52.0120 C   0  0  0  0  0  0  0  0  0  0  0  0
   58.1510   32.7480   51.8730 C   0  0  0  0  0  0  0  0  0  0  0  0
   59.1490   33.5040   51.2540 C   0  0  0  0  0  0  0  0  0  0  0  0
   58.0650   33.3420   46.0120 C   0  0  0  0  0  0  0  0  0  0  0  0
   57.2260   32.4230   45.3790 C   0  0  0  0  0  0  0  0  0  0  0  0
   57.2389   25.9221   43.9060 H   0  0  0  0  0  0  0  0  0  0  0  0
   57.7482   27.5452   43.3292 H   0  0  0  0  0  0  0  0  0  0  0  0
   58.9198   26.1837   43.3292 H   0  0  0  0  0  0  0  0  0  0  0  0
   60.2112   25.6708   45.2396 H   0  0  0  0  0  0  0  0  0  0  0  0
   60.9178   26.2364   47.5623 H   0  0  0  0  0  0  0  0  0  0  0  0
   59.5908   27.8628   48.9121 H   0  0  0  0  0  0  0  0  0  0  0  0
   57.5533   28.9218   47.9440 H   0  0  0  0  0  0  0  0  0  0  0  0
   59.2831   29.6921   45.3997 H   0  0  0  0  0  0  0  0  0  0  0  0
   60.7629   31.3145   46.5805 H   0  0  0  0  0  0  0  0  0  0  0  0
   61.2420   32.3760   48.0790 H   0  0  0  0  0  0  0  0  0  0  0  0
   63.2083   34.0414   48.5353 H   0  0  0  0  0  0  0  0  0  0  0  0
   63.0340   33.0454   47.0506 H   0  0  0  0  0  0  0  0  0  0  0  0
   62.4963   34.7594   47.0506 H   0  0  0  0  0  0  0  0  0  0  0  0
   61.8659   33.6881   50.0865 H   0  0  0  0  0  0  0  0  0  0  0  0
   60.5936   34.8527   49.4695 H   0  0  0  0  0  0  0  0  0  0  0  0
   60.0433   31.3257   48.7827 H   0  0  0  0  0  0  0  0  0  0  0  0
   58.2669   29.9736   49.8747 H   0  0  0  0  0  0  0  0  0  0  0  0
   57.0681   29.5881   53.8315 H   0  0  0  0  0  0  0  0  0  0  0  0
   56.3944   28.6380   52.4640 H   0  0  0  0  0  0  0  0  0  0  0  0
   58.1286   29.1063   52.4640 H   0  0  0  0  0  0  0  0  0  0  0  0
   55.0003   31.2202   53.0409 H   0  0  0  0  0  0  0  0  0  0  0  0
   55.2984   32.0681   51.4856 H   0  0  0  0  0  0  0  0  0  0  0  0
   54.7668   30.3522   51.4856 H   0  0  0  0  0  0  0  0  0  0  0  0
   57.6203   33.1604   52.7438 H   0  0  0  0  0  0  0  0  0  0  0  0
   59.3888   34.5074   51.6358 H   0  0  0  0  0  0  0  0  0  0  0  0
   57.7250   34.3764   46.1679 H   0  0  0  0  0  0  0  0  0  0  0  0
   56.2236   32.7335   45.0491 H   0  0  0  0  0  0  0  0  0  0  0  0
  1  2  1  0
  2  3  2  0
  3  4  1  0
  4  5  2  0
  5  6  1  0
  6  7  2  0
  7  8  1  0
  8  9  1  0
  9 10  2  0
  9 11  2  0
  9 12  1  0
 12 13  2  0
 13 14  1  0
 14 15  2  0
 15 16  1  0
 16 17  2  0
 16 18  1  0
 18 19  1  0
 18 20  1  0
 20 21  1  0
 21 22  2  0
 22 23  1  0
 23 24  2  0
 24 25  1  0
 25 26  1  0
 25 27  1  0
 24 28  1  0
 28 29  2  0
 15 30  1  0
 30 31  2  0
  7  2  1  0
 31 12  1  0
 29 21  1  0
  1 32  1  0
  1 33  1  0
  1 34  1  0
  3 35  1  0
  4 36  1  0
  5 37  1  0
  6 38  1  0
 13 39  1  0
 14 40  1  0
 18 41  1  1
 19 42  1  0
 19 43  1  0
 19 44  1  0
 20 45  1  0
 20 46  1  0
 22 47  1  0
 23 48  1  0
 26 49  1  0
 26 50  1  0
 26 51  1  0
 27 52  1  0
 27 53  1  0
 27 54  1  0
 28 55  1  0
 29 56  1  0
 30 57  1  0
 31 58  1  0
M  CHG  2   8  -1  18   1
M  END
>  <UniqueID>  (8) 
8

>  <SMILES>  (8) 
Cc1ccccc1[N-]S(=O)(=O)c1ccc(C(=O)[N@@H+](C)Cc2ccc(N(C)C)cc2)cc1

>  <Energy>  (8) 
76.10741093786994

>  <Genealogy>  (8) 
Cc1ccccc1[N-]S(=O)(=O)c1ccc(C(=O)[NH+](C)Cc2ccc(N(C)C)cc2)cc1 (protonated)
Cc1ccccc1[N-]S(=O)(=O)c1ccc(C(=O)[N@@H+](C)Cc2ccc(N(C)C)cc2)cc1 (chirality)
Cc1ccccc1[N-]S(=O)(=O)c1ccc(C(=O)[N@@H+](C)Cc2ccc(N(C)C)cc2)cc1 (3D coordinates assigned)
Cc1ccccc1[N-]S(=O)(=O)c1ccc(C(=O)[N@@H+](C)Cc2ccc(N(C)C)cc2)cc1 (optimized conformer: 76.10741093786994 kcal/mol)

>  <smiles>  (8) 
Cc1ccccc1NS(=O)(=O)c1ccc(C(=O)N(C)Cc2ccc(N(C)C)cc2)cc1

>  <score_type>  (8) 
oracle

>  <origin>  (8) 
adg

>  <m_score__min__energy>  (8) 
-9.0199999999999996

>  <m_primary>  (8) 
energy

$$$$
8:0
     RDKit          3D

 49 53  0  0  0  0  0  0  0  0999 V2000
   63.7610   32.0220   46.9260 O   0  0  0  0  0  0  0  0  0  0  0  0
   62.6830   32.1910   47.5560 C   0  0  0  0  0  0  0  0  0  0  0  0
   62.0320   33.5520   47.5740 C   0  0  0  0  0  0  0  0  0  0  0  0
   60.5810   33.4650   47.8120 N   0  0  0  0  0  0  0  0  0  0  0  0
   59.6390   33.6910   46.7330 C   0  0  0  0  0  0  0  0  0  0  0  0
   59.8810   34.6540   45.7340 C   0  0  0  0  0  0  0  0  0  0  0  0
   58.8910   34.9670   44.7970 C   0  0  0  0  0  0  0  0  0  0  0  0
   57.6510   34.3290   44.8480 C   0  0  0  0  0  0  0  0  0  0  0  0
   57.4080   33.3510   45.8130 C   0  0  0  0  0  0  0  0  0  0  0  0
   58.4040   33.0140   46.7340 C   0  0  0  0  0  0  0  0  0  0  0  0
   58.1640   31.6120   47.8240 S   0  0  0  0  0  0  0  0  0  0  0  0
   58.8440   32.4560   49.2500 C   0  0  0  0  0  0  0  0  0  0  0  0
   58.2210   32.3160   50.4960 C   0  0  0  0  0  0  0  0  0  0  0  0
   58.8230   32.8390   51.6400 C   0  0  0  0  0  0  0  0  0  0  0  0
   60.0510   33.4960   51.5450 C   0  0  0  0  0  0  0  0  0  0  0  0
   60.6650   33.6620   50.3000 C   0  0  0  0  0  0  0  0  0  0  0  0
   60.0570   33.1620   49.1310 C   0  0  0  0  0  0  0  0  0  0  0  0
   62.1410   31.0880   48.2950 N   0  0  0  0  0  0  0  0  0  0  0  0
   61.2030   30.1180   47.8110 C   0  0  0  0  0  0  0  0  0  0  0  0
   60.5020   29.2730   48.6870 C   0  0  0  0  0  0  0  0  0  0  0  0
   59.5820   28.3470   48.1860 C   0  0  0  0  0  0  0  0  0  0  0  0
   59.3510   28.2540   46.8100 C   0  0  0  0  0  0  0  0  0  0  0  0
   58.3950   27.2990   46.3280 N   0  0  0  0  0  0  0  0  0  0  0  0
   57.0420   27.5830   45.9490 C   0  0  0  0  0  0  0  0  0  0  0  0
   56.1250   26.8170   46.3470 O   0  0  0  0  0  0  0  0  0  0  0  0
   56.6960   28.7040   45.0550 C   0  0  0  0  0  0  0  0  0  0  0  0
   57.5280   29.3170   44.1350 C   0  0  0  0  0  0  0  0  0  0  0  0
   56.7610   30.2900   43.5310 C   0  0  0  0  0  0  0  0  0  0  0  0
   55.5120   30.2080   44.1120 C   0  0  0  0  0  0  0  0  0  0  0  0
   55.5040   29.2540   45.0130 O   0  0  0  0  0  0  0  0  0  0  0  0
   60.0090   29.1400   45.9390 C   0  0  0  0  0  0  0  0  0  0  0  0
   60.9280   30.0660   46.4400 C   0  0  0  0  0  0  0  0  0  0  0  0
   62.4880   34.1535   48.3742 H   0  0  0  0  0  0  0  0  0  0  0  0
   62.1882   34.0170   46.5894 H   0  0  0  0  0  0  0  0  0  0  0  0
   60.8551   35.1632   45.6905 H   0  0  0  0  0  0  0  0  0  0  0  0
   59.0903   35.7178   44.0181 H   0  0  0  0  0  0  0  0  0  0  0  0
   56.8647   34.5972   44.1270 H   0  0  0  0  0  0  0  0  0  0  0  0
   56.4320   32.8449   45.8490 H   0  0  0  0  0  0  0  0  0  0  0  0
   57.2562   31.7932   50.5726 H   0  0  0  0  0  0  0  0  0  0  0  0
   58.3300   32.7338   52.6177 H   0  0  0  0  0  0  0  0  0  0  0  0
   60.5369   33.8842   52.4523 H   0  0  0  0  0  0  0  0  0  0  0  0
   61.6295   34.1866   50.2324 H   0  0  0  0  0  0  0  0  0  0  0  0
   60.6774   29.3400   49.7709 H   0  0  0  0  0  0  0  0  0  0  0  0
   59.0370   27.6881   48.8780 H   0  0  0  0  0  0  0  0  0  0  0  0
   58.5817   29.0778   43.9287 H   0  0  0  0  0  0  0  0  0  0  0  0
   57.0800   30.9902   42.7449 H   0  0  0  0  0  0  0  0  0  0  0  0
   54.6527   30.8461   43.8581 H   0  0  0  0  0  0  0  0  0  0  0  0
   59.7998   29.1042   44.8597 H   0  0  0  0  0  0  0  0  0  0  0  0
   61.4378   30.7575   45.7530 H   0  0  0  0  0  0  0  0  0  0  0  0
  1  2  2  0
  2  3  1  0
  3  4  1  0
  4  5  1  0
  5  6  2  0
  6  7  1  0
  7  8  2  0
  8  9  1  0
  9 10  2  0
 10 11  1  0
 11 12  1  0
 12 13  2  0
 13 14  1  0
 14 15  2  0
 15 16  1  0
 16 17  2  0
  2 18  1  0
 18 19  1  0
 19 20  2  0
 20 21  1  0
 21 22  2  0
 22 23  1  0
 23 24  1  0
 24 25  2  0
 24 26  1  0
 26 27  2  0
 27 28  1  0
 28 29  2  0
 29 30  1  0
 22 31  1  0
 31 32  2  0
 17  4  1  0
 32 19  1  0
 10  5  1  0
 17 12  1  0
 30 26  1  0
  3 33  1  0
  3 34  1  0
  6 35  1  0
  7 36  1  0
  8 37  1  0
  9 38  1  0
 13 39  1  0
 14 40  1  0
 15 41  1  0
 16 42  1  0
 20 43  1  0
 21 44  1  0
 27 45  1  0
 28 46  1  0
 29 47  1  0
 31 48  1  0
 32 49  1  0
M  CHG  2  18  -1  23  -1
M  END
>  <UniqueID>  (9) 
9

>  <SMILES>  (9) 
O=C(CN1c2ccccc2Sc2ccccc21)[N-]c1ccc([N-]C(=O)c2ccco2)cc1

>  <Energy>  (9) 
109.27929827091022

>  <Genealogy>  (9) 
O=C(CN1c2ccccc2Sc2ccccc21)[N-]c1ccc([N-]C(=O)c2ccco2)cc1 (protonated)
O=C(CN1c2ccccc2Sc2ccccc21)[N-]c1ccc([N-]C(=O)c2ccco2)cc1 (3D coordinates assigned)
O=C(CN1c2ccccc2Sc2ccccc21)[N-]c1ccc([N-]C(=O)c2ccco2)cc1 (nonaromatic ring conformer: 109.27929827091022 kcal/mol)

>  <smiles>  (9) 
O=C(CN1c2ccccc2Sc2ccccc21)Nc1ccc(NC(=O)c2ccco2)cc1

>  <score_type>  (9) 
oracle

>  <origin>  (9) 
adg

>  <m_score__min__energy>  (9) 
-12.369999999999999

>  <m_primary>  (9) 
energy

$$$$
9:0
     RDKit          3D

 47 49  0  0  0  0  0  0  0  0999 V2000
   58.1350   33.1210   44.0350 C   0  0  0  0  0  0  0  0  0  0  0  0
   58.4410   32.9830   45.4920 C   0  0  0  0  0  0  0  0  0  0  0  0
   58.5120   31.7200   46.0830 C   0  0  0  0  0  0  0  0  0  0  0  0
   58.8070   31.6010   47.4480 C   0  0  0  0  0  0  0  0  0  0  0  0
   58.8870   30.2250   48.0610 C   0  0  0  0  0  0  0  0  0  0  0  0
   59.0000   32.7740   48.2220 C   0  0  0  0  0  0  0  0  0  0  0  0
   59.3340   32.6940   49.6940 C   0  0  0  0  0  0  0  0  0  0  0  0
   58.5080   31.6690   50.3210 N   0  0  0  0  0  0  0  0  0  0  0  0
   57.7140   31.8590   51.4980 C   0  0  0  0  0  0  0  0  0  0  0  0
   57.5160   33.0330   51.9100 O   0  0  0  0  0  0  0  0  0  0  0  0
   57.1870   30.7270   52.2840 C   0  0  0  0  0  0  0  0  0  0  0  0
   57.9560   30.1350   53.2980 C   0  0  0  0  0  0  0  0  0  0  0  0
   57.4460   29.0550   54.0270 C   0  0  0  0  0  0  0  0  0  0  0  0
   56.1690   28.5630   53.7480 C   0  0  0  0  0  0  0  0  0  0  0  0
   55.3910   29.1360   52.7350 C   0  0  0  0  0  0  0  0  0  0  0  0
   54.0840   28.6010   52.4850 N   0  0  0  0  0  0  0  0  0  0  0  0
   52.6830   28.8930   53.4630 S   0  0  0  0  0  0  0  0  0  0  0  0
   53.0750   28.8710   54.9150 O   0  0  0  0  0  0  0  0  0  0  0  0
   51.6770   27.8040   53.2200 O   0  0  0  0  0  0  0  0  0  0  0  0
   51.9670   30.4400   53.0210 C   0  0  0  0  0  0  0  0  0  0  0  0
   51.6130   31.3480   54.0280 C   0  0  0  0  0  0  0  0  0  0  0  0
   51.0420   32.5800   53.6960 C   0  0  0  0  0  0  0  0  0  0  0  0
   50.8210   32.9110   52.3570 C   0  0  0  0  0  0  0  0  0  0  0  0
   50.2600   34.1410   52.0300 O   0  0  0  0  0  0  0  0  0  0  0  0
   51.1690   32.0040   51.3470 C   0  0  0  0  0  0  0  0  0  0  0  0
   50.9510   32.3260   50.0130 O   0  0  0  0  0  0  0  0  0  0  0  0
   51.7400   30.7710   51.6800 C   0  0  0  0  0  0  0  0  0  0  0  0
   55.9130   30.2150   51.9960 C   0  0  0  0  0  0  0  0  0  0  0  0
   58.9440   34.0240   47.5700 C   0  0  0  0  0  0  0  0  0  0  0  0
   59.1540   35.0910   48.2050 O   0  0  0  0  0  0  0  0  0  0  0  0
   58.6650   34.0920   46.2430 N   0  0  0  0  0  0  0  0  0  0  0  0
   57.1387   33.5703   43.9105 H   0  0  0  0  0  0  0  0  0  0  0  0
   58.8898   33.7659   43.5613 H   0  0  0  0  0  0  0  0  0  0  0  0
   58.1514   32.1284   43.5613 H   0  0  0  0  0  0  0  0  0  0  0  0
   58.3365   30.8186   45.4775 H   0  0  0  0  0  0  0  0  0  0  0  0
   58.8820   30.3113   49.1576 H   0  0  0  0  0  0  0  0  0  0  0  0
   58.0220   29.6280   47.7362 H   0  0  0  0  0  0  0  0  0  0  0  0
   59.8153   29.7323   47.7362 H   0  0  0  0  0  0  0  0  0  0  0  0
   60.3962   32.4354   49.8162 H   0  0  0  0  0  0  0  0  0  0  0  0
   59.1383   33.6664   50.1694 H   0  0  0  0  0  0  0  0  0  0  0  0
   58.9619   30.5209   53.5201 H   0  0  0  0  0  0  0  0  0  0  0  0
   58.0515   28.5930   54.8207 H   0  0  0  0  0  0  0  0  0  0  0  0
   55.7712   27.7181   54.3292 H   0  0  0  0  0  0  0  0  0  0  0  0
   51.7851   31.0903   55.0835 H   0  0  0  0  0  0  0  0  0  0  0  0
   50.7664   33.2896   54.4900 H   0  0  0  0  0  0  0  0  0  0  0  0
   52.0113   30.0598   50.8859 H   0  0  0  0  0  0  0  0  0  0  0  0
   55.3167   30.6603   51.1859 H   0  0  0  0  0  0  0  0  0  0  0  0
  1  2  1  0
  2  3  2  0
  3  4  1  0
  4  5  1  0
  4  6  2  0
  6  7  1  0
  7  8  1  0
  8  9  1  0
  9 10  2  0
  9 11  1  0
 11 12  2  0
 12 13  1  0
 13 14  2  0
 14 15  1  0
 15 16  1  0
 16 17  1  0
 17 18  2  0
 17 19  2  0
 17 20  1  0
 20 21  2  0
 21 22  1  0
 22 23  2  0
 23 24  1  0
 23 25  1  0
 25 26  1  0
 25 27  2  0
 15 28  2  0
  6 29  1  0
 29 30  2  0
 29 31  1  0
 31  2  1  0
 28 11  1  0
 27 20  1  0
  1 32  1  0
  1 33  1  0
  1 34  1  0
  3 35  1  0
  5 36  1  0
  5 37  1  0
  5 38  1  0
  7 39  1  0
  7 40  1  0
 12 41  1  0
 13 42  1  0
 14 43  1  0
 21 44  1  0
 22 45  1  0
 27 46  1  0
 28 47  1  0
M  CHG  5   8  -1  16  -1  24  -1  26  -1  31  -1
M  END
>  <UniqueID>  (10) 
10

>  <SMILES>  (10) 
Cc1cc(C)c(C[N-]C(=O)c2cccc([N-]S(=O)(=O)c3ccc([O-])c([O-])c3)c2)c(=O)[n-]1

>  <Energy>  (10) 
57.75085389900047

>  <Genealogy>  (10) 
Cc1cc(C)c(C[N-]C(=O)c2cccc([N-]S(=O)(=O)c3ccc([O-])c([O-])c3)c2)c(=O)[n-]1 (protonated)
Cc1cc(C)c(C[N-]C(=O)c2cccc([N-]S(=O)(=O)c3ccc([O-])c([O-])c3)c2)c(=O)[n-]1 (3D coordinates assigned)
Cc1cc(C)c(C[N-]C(=O)c2cccc([N-]S(=O)(=O)c3ccc([O-])c([O-])c3)c2)c(=O)[n-]1 (optimized conformer: 57.75085389900047 kcal/mol)

>  <smiles>  (10) 
Cc1cc(C)c(CNC(=O)c2cccc(NS(=O)(=O)c3ccc(O)c(O)c3)c2)c(=O)[nH]1

>  <score_type>  (10) 
oracle

>  <origin>  (10) 
adg

>  <m_score__min__energy>  (10) 
-20.41

>  <m_primary>  (10) 
energy

$$$$
10:0
     RDKit          3D

 57 60  0  0  0  0  0  0  0  0999 V2000
   54.8820   26.3370   46.0170 O   0  0  0  0  0  0  0  0  0  0  0  0
   56.1040   26.0420   46.1010 C   0  0  0  0  0  0  0  0  0  0  0  0
   56.4660   24.6750   46.3290 N   0  0  0  0  0  0  0  0  0  0  0  0
   56.6380   23.6530   45.3300 C   0  0  0  0  0  0  0  0  0  0  0  0
   57.4500   22.5220   45.5490 C   0  0  0  0  0  0  0  0  0  0  0  0
   57.6180   21.5680   44.5400 C   0  0  0  0  0  0  0  0  0  0  0  0
   57.0060   21.7480   43.2970 C   0  0  0  0  0  0  0  0  0  0  0  0
   57.1750   20.8270   42.3180 F   0  0  0  0  0  0  0  0  0  0  0  0
   56.2270   22.8870   43.0630 C   0  0  0  0  0  0  0  0  0  0  0  0
   56.0410   23.8330   44.0770 C   0  0  0  0  0  0  0  0  0  0  0  0
   57.1150   27.1140   45.9900 C   0  0  0  0  0  0  0  0  0  0  0  0
   57.3850   27.7200   44.7530 C   0  0  0  0  0  0  0  0  0  0  0  0
   58.3210   28.7530   44.6630 C   0  0  0  0  0  0  0  0  0  0  0  0
   58.9880   29.2080   45.8110 C   0  0  0  0  0  0  0  0  0  0  0  0
   59.9300   30.3790   45.7230 C   0  0  0  0  0  0  0  0  0  0  0  0
   59.2410   31.6170   46.1140 N   0  0  0  0  0  0  0  0  0  0  0  0
   58.1020   32.0910   45.3620 C   0  0  0  0  0  0  0  0  0  0  0  0
   57.0750   31.3680   45.2530 O   0  0  0  0  0  0  0  0  0  0  0  0
   58.1030   33.4380   44.6900 C   0  0  0  0  0  0  0  0  0  0  0  0
   56.8770   34.0870   44.8930 O   0  0  0  0  0  0  0  0  0  0  0  0
   59.7470   32.3670   47.2310 C   0  0  0  0  0  0  0  0  0  0  0  0
   60.9570   33.0620   47.1160 C   0  0  0  0  0  0  0  0  0  0  0  0
   61.4680   33.7630   48.2120 C   0  0  0  0  0  0  0  0  0  0  0  0
   60.7690   33.7780   49.4220 C   0  0  0  0  0  0  0  0  0  0  0  0
   59.5430   33.1140   49.5400 C   0  0  0  0  0  0  0  0  0  0  0  0
   58.8740   33.1410   50.7710 O   0  0  0  0  0  0  0  0  0  0  0  0
   58.2320   32.0440   51.3680 C   0  0  0  0  0  0  0  0  0  0  0  0
   58.7510   30.7380   51.2780 C   0  0  0  0  0  0  0  0  0  0  0  0
   58.0520   29.6630   51.8380 C   0  0  0  0  0  0  0  0  0  0  0  0
   56.8300   29.8820   52.4780 C   0  0  0  0  0  0  0  0  0  0  0  0
   56.3140   31.1760   52.5780 C   0  0  0  0  0  0  0  0  0  0  0  0
   57.0120   32.2520   52.0200 C   0  0  0  0  0  0  0  0  0  0  0  0
   59.0380   32.3990   48.4400 C   0  0  0  0  0  0  0  0  0  0  0  0
   58.7330   28.5880   47.0440 C   0  0  0  0  0  0  0  0  0  0  0  0
   57.8110   27.5410   47.1300 C   0  0  0  0  0  0  0  0  0  0  0  0
   57.9539   22.3890   46.5177 H   0  0  0  0  0  0  0  0  0  0  0  0
   58.2328   20.6749   44.7254 H   0  0  0  0  0  0  0  0  0  0  0  0
   55.7596   23.0389   42.0789 H   0  0  0  0  0  0  0  0  0  0  0  0
   55.4224   24.7228   43.8884 H   0  0  0  0  0  0  0  0  0  0  0  0
   56.8569   27.3798   43.8500 H   0  0  0  0  0  0  0  0  0  0  0  0
   58.5365   29.2124   43.6870 H   0  0  0  0  0  0  0  0  0  0  0  0
   60.7832   30.2101   46.3965 H   0  0  0  0  0  0  0  0  0  0  0  0
   60.2831   30.4777   44.6859 H   0  0  0  0  0  0  0  0  0  0  0  0
   58.9123   34.0524   45.1112 H   0  0  0  0  0  0  0  0  0  0  0  0
   58.2575   33.2975   43.6100 H   0  0  0  0  0  0  0  0  0  0  0  0
   56.2240   33.3900   45.1600 H   0  0  0  0  0  0  0  0  0  0  0  0
   61.5058   33.0564   46.1627 H   0  0  0  0  0  0  0  0  0  0  0  0
   62.4217   34.3036   48.1220 H   0  0  0  0  0  0  0  0  0  0  0  0
   61.1852   34.3151   50.2870 H   0  0  0  0  0  0  0  0  0  0  0  0
   59.7086   30.5625   50.7660 H   0  0  0  0  0  0  0  0  0  0  0  0
   58.4649   28.6454   51.7742 H   0  0  0  0  0  0  0  0  0  0  0  0
   56.2733   29.0342   52.9038 H   0  0  0  0  0  0  0  0  0  0  0  0
   55.3588   31.3489   53.0955 H   0  0  0  0  0  0  0  0  0  0  0  0
   56.5988   33.2687   52.0944 H   0  0  0  0  0  0  0  0  0  0  0  0
   58.0820   31.8621   48.5283 H   0  0  0  0  0  0  0  0  0  0  0  0
   59.2613   28.9277   47.9471 H   0  0  0  0  0  0  0  0  0  0  0  0
   57.6304   27.0493   48.0973 H   0  0  0  0  0  0  0  0  0  0  0  0
  1  2  2  0
  2  3  1  0
  3  4  1  0
  4  5  2  0
  5  6  1  0
  6  7  2  0
  7  8  1  0
  7  9  1  0
  9 10  2  0
  2 11  1  0
 11 12  2  0
 12 13  1  0
 13 14  2  0
 14 15  1  0
 15 16  1  0
 16 17  1  0
 17 18  2  0
 17 19  1  0
 19 20  1  0
 16 21  1  0
 21 22  2  0
 22 23  1  0
 23 24  2  0
 24 25  1  0
 25 26  1  0
 26 27  1  0
 27 28  2  0
 28 29  1  0
 29 30  2  0
 30 31  1  0
 31 32  2  0
 25 33  2  0
 14 34  1  0
 34 35  2  0
 10  4  1  0
 35 11  1  0
 33 21  1  0
 32 27  1  0
  5 36  1  0
  6 37  1  0
  9 38  1  0
 10 39  1  0
 12 40  1  0
 13 41  1  0
 15 42  1  0
 15 43  1  0
 19 44  1  0
 19 45  1  0
 20 46  1  0
 22 47  1  0
 23 48  1  0
 24 49  1  0
 28 50  1  0
 29 51  1  0
 30 52  1  0
 31 53  1  0
 32 54  1  0
 33 55  1  0
 34 56  1  0
 35 57  1  0
M  CHG  1   3  -1
M  END
>  <UniqueID>  (11) 
11

>  <SMILES>  (11) 
O=C([N-]c1ccc(F)cc1)c1ccc(CN(C(=O)CO)c2cccc(Oc3ccccc3)c2)cc1

>  <Energy>  (11) 
74.65733309057633

>  <Genealogy>  (11) 
O=C([N-]c1ccc(F)cc1)c1ccc(CN(C(=O)CO)c2cccc(Oc3ccccc3)c2)cc1 (protonated)
O=C([N-]c1ccc(F)cc1)c1ccc(CN(C(=O)CO)c2cccc(Oc3ccccc3)c2)cc1 (3D coordinates assigned)
O=C([N-]c1ccc(F)cc1)c1ccc(CN(C(=O)CO)c2cccc(Oc3ccccc3)c2)cc1 (optimized conformer: 74.65733309057633 kcal/mol)

>  <smiles>  (11) 
O=C(Nc1ccc(F)cc1)c1ccc(CN(C(=O)CO)c2cccc(Oc3ccccc3)c2)cc1

>  <score_type>  (11) 
oracle

>  <origin>  (11) 
adg

>  <m_score__min__energy>  (11) 
-11.16

>  <m_primary>  (11) 
energy

$$$$
11:0
     RDKit          3D

 69 73  0  0  0  0  0  0  0  0999 V2000
   68.2450   28.8510   52.0340 C   0  0  0  0  0  0  0  0  0  0  0  0
   67.8520   30.2840   52.0450 C   0  0  0  0  0  0  0  0  0  0  0  0
   68.6350   31.1680   52.5310 O   0  0  0  0  0  0  0  0  0  0  0  0
   66.5530   30.6380   51.4860 C   0  0  0  0  0  0  0  0  0  0  0  0
   66.3940   31.6730   50.5850 C   0  0  0  0  0  0  0  0  0  0  0  0
   65.1790   32.0090   50.0570 C   0  0  0  0  0  0  0  0  0  0  0  0
   64.0810   31.2710   50.4570 C   0  0  0  0  0  0  0  0  0  0  0  0
   62.7680   31.6810   49.8460 C   0  0  0  0  0  0  0  0  0  0  0  0
   63.0660   32.0690   48.4210 C   0  0  0  0  0  0  0  0  0  0  0  0
   61.8190   32.4910   47.7160 C   0  0  0  0  0  0  0  0  0  0  0  0
   61.1220   33.4900   48.5080 N   0  0  0  0  0  0  0  0  0  0  0  0
   59.8750   34.0210   48.0260 C   0  0  0  0  0  0  0  0  0  0  0  0
   59.2680   34.8920   48.7190 O   0  0  0  0  0  0  0  0  0  0  0  0
   59.3190   33.5620   46.7580 C   0  0  0  0  0  0  0  0  0  0  0  0
   58.7970   32.2940   46.5790 C   0  0  0  0  0  0  0  0  0  0  0  0
   58.3010   31.9740   45.3420 C   0  0  0  0  0  0  0  0  0  0  0  0
   57.7460   30.6400   45.1350 C   0  0  0  0  0  0  0  0  0  0  0  0
   56.5330   30.3660   44.6190 N   0  0  0  0  0  0  0  0  0  0  0  0
   56.3540   29.0560   44.5740 N   0  0  0  0  0  0  0  0  0  0  0  0
   57.4530   28.4460   45.0620 C   0  0  0  0  0  0  0  0  0  0  0  0
   57.7640   27.0190   45.2300 C   0  0  0  0  0  0  0  0  0  0  0  0
   59.1500   26.7650   45.8060 C   0  0  0  0  0  0  0  0  0  0  0  0
   59.0650   25.2460   46.0070 C   0  0  0  0  0  0  0  0  0  0  0  0
   57.5960   24.9390   46.2460 C   0  0  0  0  0  0  0  0  0  0  0  0
   56.9120   26.3130   46.2500 C   0  0  0  0  0  0  0  0  0  0  0  0
   58.2930   29.4390   45.3990 N   0  0  0  0  0  0  0  0  0  0  0  0
   58.3180   32.8810   44.3020 C   0  0  0  0  0  0  0  0  0  0  0  0
   57.7690   32.4820   42.9830 C   0  0  0  0  0  0  0  0  0  0  0  0
   58.8410   34.1510   44.4780 C   0  0  0  0  0  0  0  0  0  0  0  0
   59.3450   34.4950   45.7160 C   0  0  0  0  0  0  0  0  0  0  0  0
   59.9050   35.8500   45.9100 C   0  0  0  0  0  0  0  0  0  0  0  0
   61.6720   33.9340   49.7480 C   0  0  0  0  0  0  0  0  0  0  0  0
   62.2080   32.8470   50.6240 C   0  0  0  0  0  0  0  0  0  0  0  0
   64.1680   30.2230   51.3540 C   0  0  0  0  0  0  0  0  0  0  0  0
   65.4190   29.9190   51.8620 C   0  0  0  0  0  0  0  0  0  0  0  0
   68.3440   28.4900   53.0683 H   0  0  0  0  0  0  0  0  0  0  0  0
   67.4748   28.2636   51.5128 H   0  0  0  0  0  0  0  0  0  0  0  0
   69.2071   28.7386   51.5128 H   0  0  0  0  0  0  0  0  0  0  0  0
   67.2801   32.2494   50.2806 H   0  0  0  0  0  0  0  0  0  0  0  0
   65.0786   32.8368   49.3396 H   0  0  0  0  0  0  0  0  0  0  0  0
   62.0222   30.8729   49.8721 H   0  0  0  0  0  0  0  0  0  0  0  0
   63.7830   32.9032   48.4165 H   0  0  0  0  0  0  0  0  0  0  0  0
   63.4895   31.1982   47.8990 H   0  0  0  0  0  0  0  0  0  0  0  0
   62.0796   32.9179   46.7363 H   0  0  0  0  0  0  0  0  0  0  0  0
   61.1661   31.6168   47.5765 H   0  0  0  0  0  0  0  0  0  0  0  0
   58.7804   31.5655   47.4030 H   0  0  0  0  0  0  0  0  0  0  0  0
   55.5150   28.5120   44.2260 H   0  0  0  0  0  0  0  0  0  0  0  0
   57.6191   26.6539   44.2025 H   0  0  0  0  0  0  0  0  0  0  0  0
   59.9456   27.0416   45.0985 H   0  0  0  0  0  0  0  0  0  0  0  0
   59.3958   27.3441   46.7083 H   0  0  0  0  0  0  0  0  0  0  0  0
   59.4246   24.7206   45.1100 H   0  0  0  0  0  0  0  0  0  0  0  0
   59.6892   24.9146   46.8500 H   0  0  0  0  0  0  0  0  0  0  0  0
   57.1947   24.3072   45.4399 H   0  0  0  0  0  0  0  0  0  0  0  0
   57.4311   24.3869   47.1830 H   0  0  0  0  0  0  0  0  0  0  0  0
   55.8608   26.2487   45.9325 H   0  0  0  0  0  0  0  0  0  0  0  0
   56.8551   26.8043   47.2326 H   0  0  0  0  0  0  0  0  0  0  0  0
   56.8873   31.8412   43.1315 H   0  0  0  0  0  0  0  0  0  0  0  0
   57.4783   33.3810   42.4197 H   0  0  0  0  0  0  0  0  0  0  0  0
   58.5343   31.9279   42.4197 H   0  0  0  0  0  0  0  0  0  0  0  0
   58.8545   34.8718   43.6472 H   0  0  0  0  0  0  0  0  0  0  0  0
   59.9919   36.0602   46.9862 H   0  0  0  0  0  0  0  0  0  0  0  0
   60.8999   35.9058   45.4440 H   0  0  0  0  0  0  0  0  0  0  0  0
   59.2398   36.5918   45.4440 H   0  0  0  0  0  0  0  0  0  0  0  0
   62.4936   34.6313   49.5273 H   0  0  0  0  0  0  0  0  0  0  0  0
   60.8443   34.3985   50.3040 H   0  0  0  0  0  0  0  0  0  0  0  0
   63.0085   33.2659   51.2515 H   0  0  0  0  0  0  0  0  0  0  0  0
   61.3690   32.4671   51.2255 H   0  0  0  0  0  0  0  0  0  0  0  0
   63.2765   29.6521   51.6529 H   0  0  0  0  0  0  0  0  0  0  0  0
   65.5211   29.0910   52.5790 H   0  0  0  0  0  0  0  0  0  0  0  0
  1  2  1  0
  2  3  2  0
  2  4  1  0
  4  5  2  0
  5  6  1  0
  6  7  2  0
  7  8  1  0
  8  9  1  0
  9 10  1  0
 10 11  1  0
 11 12  1  0
 12 13  2  0
 12 14  1  0
 14 15  2  0
 15 16  1  0
 16 17  1  0
 17 18  2  0
 18 19  1  0
 19 20  1  0
 20 21  1  0
 21 22  1  0
 22 23  1  0
 23 24  1  0
 24 25  1  0
 20 26  2  0
 16 27  2  0
 27 28  1  0
 27 29  1  0
 29 30  2  0
 30 31  1  0
 11 32  1  0
 32 33  1  0
  7 34  1  0
 34 35  2  0
 35  4  1  0
 33  8  1  0
 30 14  1  0
 26 17  1  0
 25 21  1  0
  1 36  1  0
  1 37  1  0
  1 38  1  0
  5 39  1  0
  6 40  1  0
  8 41  1  0
  9 42  1  0
  9 43  1  0
 10 44  1  0
 10 45  1  0
 15 46  1  0
 19 47  1  0
 21 48  1  0
 22 49  1  0
 22 50  1  0
 23 51  1  0
 23 52  1  0
 24 53  1  0
 24 54  1  0
 25 55  1  0
 25 56  1  0
 28 57  1  0
 28 58  1  0
 28 59  1  0
 29 60  1  0
 31 61  1  0
 31 62  1  0
 31 63  1  0
 32 64  1  0
 32 65  1  0
 33 66  1  0
 33 67  1  0
 34 68  1  0
 35 69  1  0
M  END
>  <smiles>  (12) 
CC(=O)c1ccc(C2CCN(C(=O)c3cc(-c4n[nH]c(C5CCCC5)n4)c(C)cc3C)CC2)cc1

>  <score_type>  (12) 
oracle

>  <origin>  (12) 
adg

>  <m_score__min__energy>  (12) 
-11.640000000000001

>  <m_primary>  (12) 
energy

$$$$
12:0
     RDKit          3D

 55 57  0  0  0  0  0  0  0  0999 V2000
   54.7720   24.8510   46.7760 H   0  0  0  0  0  0  0  0  0  0  0  0
   54.3570   24.0860   46.2960 O   0  0  0  0  0  0  0  0  0  0  0  0
   55.3800   23.3790   45.6350 C   0  0  0  0  0  0  0  0  0  0  0  0
   55.1870   21.8610   45.8400 C   0  0  0  0  0  0  0  0  0  0  0  0
   55.1585   21.6371   46.9166 H   0  0  0  0  0  0  0  0  0  0  0  0
   54.2415   21.5455   45.3747 H   0  0  0  0  0  0  0  0  0  0  0  0
   56.0235   21.3189   45.3747 H   0  0  0  0  0  0  0  0  0  0  0  0
   55.3490   23.7090   44.1300 C   0  0  0  0  0  0  0  0  0  0  0  0
   55.2469   24.7959   43.9950 H   0  0  0  0  0  0  0  0  0  0  0  0
   56.2832   23.3673   43.6604 H   0  0  0  0  0  0  0  0  0  0  0  0
   54.4948   23.1993   43.6604 H   0  0  0  0  0  0  0  0  0  0  0  0
   56.7380   23.8200   46.2180 C   0  0  0  0  0  0  0  0  0  0  0  0
   57.4580   23.9534   45.3971 H   0  0  0  0  0  0  0  0  0  0  0  0
   57.0944   23.0459   46.9135 H   0  0  0  0  0  0  0  0  0  0  0  0
   56.5990   25.0800   46.9450 N   0  0  0  0  0  0  0  0  0  0  0  0
   56.3020   26.3330   46.3220 C   0  0  0  0  0  0  0  0  0  0  0  0
   55.1230   26.5650   45.9490 O   0  0  0  0  0  0  0  0  0  0  0  0
   57.3370   27.3560   46.1030 C   0  0  0  0  0  0  0  0  0  0  0  0
   58.7060   27.1950   46.2790 C   0  0  0  0  0  0  0  0  0  0  0  0
   59.1870   26.2793   46.6534 H   0  0  0  0  0  0  0  0  0  0  0  0
   59.3640   28.3230   45.9250 N   0  0  0  0  0  0  0  0  0  0  0  0
   60.3960   28.4800   45.9510 H   0  0  0  0  0  0  0  0  0  0  0  0
   58.4210   29.1860   45.5050 C   0  0  0  0  0  0  0  0  0  0  0  0
   58.6150   30.4680   44.9990 C   0  0  0  0  0  0  0  0  0  0  0  0
   59.6182   30.9162   44.9461 H   0  0  0  0  0  0  0  0  0  0  0  0
   57.4670   31.1740   44.5540 C   0  0  0  0  0  0  0  0  0  0  0  0
   57.5380   32.3840   44.0700 N   0  0  0  0  0  0  0  0  0  0  0  0
   57.6870   33.6010   44.8160 C   0  0  0  0  0  0  0  0  0  0  0  0
   56.9650   34.5860   44.5100 O   0  0  0  0  0  0  0  0  0  0  0  0
   58.7120   33.7440   45.8800 C   0  0  0  0  0  0  0  0  0  0  0  0
   58.4030   33.4590   47.2220 C   0  0  0  0  0  0  0  0  0  0  0  0
   57.3890   33.1272   47.4899 H   0  0  0  0  0  0  0  0  0  0  0  0
   59.3740   33.5940   48.2180 C   0  0  0  0  0  0  0  0  0  0  0  0
   59.1183   33.3729   49.2648 H   0  0  0  0  0  0  0  0  0  0  0  0
   60.6730   34.0100   47.8900 C   0  0  0  0  0  0  0  0  0  0  0  0
   61.7370   34.1170   48.9510 C   0  0  0  0  0  0  0  0  0  0  0  0
   61.2705   34.0235   49.9428 H   0  0  0  0  0  0  0  0  0  0  0  0
   62.2362   35.0928   48.8583 H   0  0  0  0  0  0  0  0  0  0  0  0
   62.7420   33.0470   48.7830 N   0  0  0  0  0  0  0  0  0  0  0  0
   62.0920   31.8070   48.3320 C   0  0  0  0  0  0  0  0  0  0  0  0
   61.7823   31.2162   49.2067 H   0  0  0  0  0  0  0  0  0  0  0  0
   61.2083   32.0557   47.7260 H   0  0  0  0  0  0  0  0  0  0  0  0
   62.7993   31.2217   47.7260 H   0  0  0  0  0  0  0  0  0  0  0  0
   63.7760   33.4440   47.8120 C   0  0  0  0  0  0  0  0  0  0  0  0
   64.6716   33.7879   48.3501 H   0  0  0  0  0  0  0  0  0  0  0  0
   64.0362   32.5818   47.1804 H   0  0  0  0  0  0  0  0  0  0  0  0
   63.3924   34.2588   47.1804 H   0  0  0  0  0  0  0  0  0  0  0  0
   60.9900   34.2790   46.5510 C   0  0  0  0  0  0  0  0  0  0  0  0
   62.0095   34.5935   46.2831 H   0  0  0  0  0  0  0  0  0  0  0  0
   60.0190   34.1500   45.5550 C   0  0  0  0  0  0  0  0  0  0  0  0
   60.2785   34.3676   44.5084 H   0  0  0  0  0  0  0  0  0  0  0  0
   56.2340   30.5820   44.6450 N   0  0  0  0  0  0  0  0  0  0  0  0
   56.0560   29.3230   45.1420 C   0  0  0  0  0  0  0  0  0  0  0  0
   55.0552   28.8685   45.1854 H   0  0  0  0  0  0  0  0  0  0  0  0
   57.1760   28.6310   45.5920 C   0  0  0  0  0  0  0  0  0  0  0  0
  1  2  1  0
  2  3  1  0
  3  4  1  0
  4  5  1  0
  4  6  1  0
  4  7  1  0
  3  8  1  0
  8  9  1  0
  8 10  1  0
  8 11  1  0
  3 12  1  0
 12 13  1  0
 12 14  1  0
 12 15  1  0
 15 16  1  0
 16 17  2  0
 16 18  1  0
 18 19  2  0
 19 20  1  0
 19 21  1  0
 21 22  1  0
 21 23  1  0
 23 24  2  0
 24 25  1  0
 24 26  1  0
 26 27  2  0
 27 28  1  0
 28 29  2  0
 28 30  1  0
 30 31  2  0
 31 32  1  0
 31 33  1  0
 33 34  1  0
 33 35  2  0
 35 36  1  0
 36 37  1  0
 36 38  1  0
 36 39  1  0
 39 40  1  0
 40 41  1  0
 40 42  1  0
 40 43  1  0
 39 44  1  0
 44 45  1  0
 44 46  1  0
 44 47  1  0
 35 48  1  0
 48 49  1  0
 48 50  2  0
 50 51  1  0
 26 52  1  0
 52 53  1  0
 53 54  1  0
 53 55  2  0
 55 18  1  0
 55 23  1  0
 50 30  1  0
M  CHG  2  15  -1  52  -1
M  END
>  <UniqueID>  (13) 
12

>  <SMILES>  (13) 
CN(C)Cc1ccc(C(=O)/N=c2\cc3[nH]cc(C(=O)[N-]CC(C)(C)O)c3c[n-]2)cc1

>  <Energy>  (13) 
101.04847143933878

>  <Genealogy>  (13) 
CN(C)Cc1ccc(C(=O)N=c2cc3[nH]cc(C(=O)[N-]CC(C)(C)O)c3c[n-]2)cc1 (protonated)
CN(C)Cc1ccc(C(=O)/N=c2\cc3[nH]cc(C(=O)[N-]CC(C)(C)O)c3c[n-]2)cc1 (cis-trans isomerization)
CN(C)Cc1ccc(C(=O)/N=c2\cc3[nH]cc(C(=O)[N-]CC(C)(C)O)c3c[n-]2)cc1 (3D coordinates assigned)
CN(C)Cc1ccc(C(=O)/N=c2\cc3[nH]cc(C(=O)[N-]CC(C)(C)O)c3c[n-]2)cc1 (optimized conformer: 101.04847143933878 kcal/mol)

>  <smiles>  (13) 
CN(C)Cc1ccc(C(=O)N=c2cc3[nH]cc(C(=O)NCC(C)(C)O)c3c[nH]2)cc1

>  <score_type>  (13) 
oracle

>  <origin>  (13) 
adg

>  <m_score__min__energy>  (13) 
-12.17

>  <m_primary>  (13) 
energy

$$$$
13:0
     RDKit          3D

 63 67  0  0  0  0  0  0  0  0999 V2000
   65.3280   35.5150   52.2990 C   0  0  0  0  0  0  0  0  0  0  0  0
   65.4020   34.2090   51.5500 C   0  0  0  0  0  0  0  0  0  0  0  0
   66.6560   33.6020   51.3710 C   0  0  0  0  0  0  0  0  0  0  0  0
   66.7690   32.3960   50.6810 C   0  0  0  0  0  0  0  0  0  0  0  0
   65.6350   31.7820   50.1550 C   0  0  0  0  0  0  0  0  0  0  0  0
   64.3700   32.3610   50.3270 C   0  0  0  0  0  0  0  0  0  0  0  0
   63.2240   31.7210   49.7420 N   0  0  0  0  0  0  0  0  0  0  0  0
   63.0490   31.7800   48.2850 C   0  0  0  0  0  0  0  0  0  0  0  0
   61.5610   31.7400   47.9300 C   0  0  0  0  0  0  0  0  0  0  0  0
   60.9190   30.6370   48.6530 N   0  0  0  0  0  0  0  0  0  0  0  0
   60.5930   29.3980   47.9930 C   0  0  0  0  0  0  0  0  0  0  0  0
   61.0280   28.3130   48.4680 O   0  0  0  0  0  0  0  0  0  0  0  0
   59.7300   29.3420   46.7520 C   0  0  0  0  0  0  0  0  0  0  0  0
   60.5120   28.9000   45.5060 C   0  0  0  0  0  0  0  0  0  0  0  0
   59.6050   28.9480   44.2650 C   0  0  0  0  0  0  0  0  0  0  0  0
   58.2620   28.3480   44.4740 N   0  0  0  0  0  0  0  0  0  0  0  0
   56.9770   29.5060   44.2030 S   0  0  0  0  0  0  0  0  0  0  0  0
   55.9170   29.3690   45.2600 O   0  0  0  0  0  0  0  0  0  0  0  0
   56.3400   29.2690   42.8610 O   0  0  0  0  0  0  0  0  0  0  0  0
   57.6580   31.1380   44.2120 C   0  0  0  0  0  0  0  0  0  0  0  0
   57.9390   31.7650   42.9860 C   0  0  0  0  0  0  0  0  0  0  0  0
   58.4880   33.0560   42.9440 C   0  0  0  0  0  0  0  0  0  0  0  0
   58.7730   33.7470   44.1270 C   0  0  0  0  0  0  0  0  0  0  0  0
   58.5110   33.1360   45.3520 C   0  0  0  0  0  0  0  0  0  0  0  0
   58.7740   33.7390   46.5390 N   0  0  0  0  0  0  0  0  0  0  0  0
   58.2790   32.5570   47.5830 S   0  0  0  0  0  0  0  0  0  0  0  0
   57.7430   31.3090   46.6400 N   0  0  0  0  0  0  0  0  0  0  0  0
   57.9520   31.8260   45.4020 C   0  0  0  0  0  0  0  0  0  0  0  0
   58.0930   27.6310   45.7540 C   0  0  0  0  0  0  0  0  0  0  0  0
   58.4560   28.4930   46.9760 C   0  0  0  0  0  0  0  0  0  0  0  0
   61.0380   30.6700   50.1130 C   0  0  0  0  0  0  0  0  0  0  0  0
   62.5170   30.6820   50.5010 C   0  0  0  0  0  0  0  0  0  0  0  0
   64.2370   33.5670   51.0560 C   0  0  0  0  0  0  0  0  0  0  0  0
   62.8720   34.1840   51.2610 C   0  0  0  0  0  0  0  0  0  0  0  0
   65.3392   35.3182   53.3812 H   0  0  0  0  0  0  0  0  0  0  0  0
   66.1921   36.1407   52.0312 H   0  0  0  0  0  0  0  0  0  0  0  0
   64.3987   36.0391   52.0312 H   0  0  0  0  0  0  0  0  0  0  0  0
   67.5573   34.0828   51.7791 H   0  0  0  0  0  0  0  0  0  0  0  0
   67.7561   31.9282   50.5517 H   0  0  0  0  0  0  0  0  0  0  0  0
   65.7326   30.8367   49.6011 H   0  0  0  0  0  0  0  0  0  0  0  0
   63.4887   32.7134   47.9036 H   0  0  0  0  0  0  0  0  0  0  0  0
   63.5508   30.9145   47.8276 H   0  0  0  0  0  0  0  0  0  0  0  0
   61.0892   32.6913   48.2171 H   0  0  0  0  0  0  0  0  0  0  0  0
   61.4448   31.5873   46.8469 H   0  0  0  0  0  0  0  0  0  0  0  0
   59.3997   30.3723   46.5535 H   0  0  0  0  0  0  0  0  0  0  0  0
   61.3684   29.5740   45.3564 H   0  0  0  0  0  0  0  0  0  0  0  0
   60.8665   27.8690   45.6518 H   0  0  0  0  0  0  0  0  0  0  0  0
   59.4721   30.0005   43.9743 H   0  0  0  0  0  0  0  0  0  0  0  0
   60.1016   28.3523   43.4849 H   0  0  0  0  0  0  0  0  0  0  0  0
   57.7255   31.2361   42.0454 H   0  0  0  0  0  0  0  0  0  0  0  0
   58.6960   33.5287   41.9728 H   0  0  0  0  0  0  0  0  0  0  0  0
   59.1988   34.7606   44.0905 H   0  0  0  0  0  0  0  0  0  0  0  0
   57.0424   27.3181   45.8449 H   0  0  0  0  0  0  0  0  0  0  0  0
   58.7773   26.7698   45.7427 H   0  0  0  0  0  0  0  0  0  0  0  0
   57.6158   29.1696   47.1912 H   0  0  0  0  0  0  0  0  0  0  0  0
   58.6552   27.8110   47.8157 H   0  0  0  0  0  0  0  0  0  0  0  0
   60.5493   31.5760   50.5008 H   0  0  0  0  0  0  0  0  0  0  0  0
   60.5525   29.7809   50.5418 H   0  0  0  0  0  0  0  0  0  0  0  0
   62.6101   30.8894   51.5773 H   0  0  0  0  0  0  0  0  0  0  0  0
   62.9596   29.7014   50.2718 H   0  0  0  0  0  0  0  0  0  0  0  0
   62.6691   34.2757   52.3382 H   0  0  0  0  0  0  0  0  0  0  0  0
   62.8468   35.1810   50.7970 H   0  0  0  0  0  0  0  0  0  0  0  0
   62.1070   33.5442   50.7970 H   0  0  0  0  0  0  0  0  0  0  0  0
  1  2  1  0
  2  3  2  0
  3  4  1  0
  4  5  2  0
  5  6  1  0
  6  7  1  0
  7  8  1  0
  8  9  1  0
  9 10  1  0
 10 11  1  0
 11 12  2  0
 11 13  1  0
 13 14  1  0
 14 15  1  0
 15 16  1  0
 16 17  1  0
 17 18  2  0
 17 19  2  0
 17 20  1  0
 20 21  2  0
 21 22  1  0
 22 23  2  0
 23 24  1  0
 24 25  2  0
 25 26  1  0
 26 27  1  0
 27 28  2  0
 16 29  1  0
 29 30  1  0
 10 31  1  0
 31 32  1  0
  6 33  2  0
 33 34  1  0
 33  2  1  0
 32  7  1  0
 30 13  1  0
 28 20  1  0
 28 24  1  0
  1 35  1  0
  1 36  1  0
  1 37  1  0
  3 38  1  0
  4 39  1  0
  5 40  1  0
  8 41  1  0
  8 42  1  0
  9 43  1  0
  9 44  1  0
 13 45  1  0
 14 46  1  0
 14 47  1  0
 15 48  1  0
 15 49  1  0
 21 50  1  0
 22 51  1  0
 23 52  1  0
 29 53  1  0
 29 54  1  0
 30 55  1  0
 30 56  1  0
 31 57  1  0
 31 58  1  0
 32 59  1  0
 32 60  1  0
 34 61  1  0
 34 62  1  0
 34 63  1  0
M  END
>  <UniqueID>  (14) 
13

>  <SMILES>  (14) 
Cc1cccc(N2CCN(C(=O)C3CCN(S(=O)(=O)c4cccc5nsnc45)CC3)CC2)c1C

>  <Energy>  (14) 
122.84386547882845

>  <Genealogy>  (14) 
Cc1cccc(N2CCN(C(=O)C3CCN(S(=O)(=O)c4cccc5nsnc45)CC3)CC2)c1C (3D coordinates assigned)
Cc1cccc(N2CCN(C(=O)C3CCN(S(=O)(=O)c4cccc5nsnc45)CC3)CC2)c1C (nonaromatic ring conformer: 122.84386547882845 kcal/mol)

>  <smiles>  (14) 
Cc1cccc(N2CCN(C(=O)C3CCN(S(=O)(=O)c4cccc5nsnc45)CC3)CC2)c1C

>  <score_type>  (14) 
oracle

>  <origin>  (14) 
adg

>  <m_score__min__energy>  (14) 
-9.5199999999999996

>  <m_primary>  (14) 
energy

$$$$
14:0
     RDKit          3D

 53 55  0  0  0  0  0  0  0  0999 V2000
   52.1590   24.0230   44.7090 C   0  0  0  0  0  0  0  0  0  0  0  0
   53.1570   23.0270   44.9080 O   0  0  0  0  0  0  0  0  0  0  0  0
   53.6350   22.6170   46.1630 C   0  0  0  0  0  0  0  0  0  0  0  0
   53.2080   21.4150   46.7610 C   0  0  0  0  0  0  0  0  0  0  0  0
   53.7460   21.0040   47.9830 C   0  0  0  0  0  0  0  0  0  0  0  0
   54.7160   21.7790   48.6170 C   0  0  0  0  0  0  0  0  0  0  0  0
   55.1410   22.9780   48.0400 C   0  0  0  0  0  0  0  0  0  0  0  0
   54.5860   23.4180   46.8320 C   0  0  0  0  0  0  0  0  0  0  0  0
   55.0590   24.6510   46.2700 N   0  0  0  0  0  0  0  0  0  0  0  0
   56.3990   25.1530   46.3480 C   0  0  0  0  0  0  0  0  0  0  0  0
   57.1000   24.8570   47.3520 O   0  0  0  0  0  0  0  0  0  0  0  0
   56.9800   26.0380   45.2740 C   0  0  0  0  0  0  0  0  0  0  0  0
   57.0610   27.4930   45.7370 C   0  0  0  0  0  0  0  0  0  0  0  0
   55.8950   28.2230   45.2470 N   0  0  0  0  0  0  0  0  0  0  0  0
   56.4010   29.5670   44.2690 S   0  0  0  0  0  0  0  0  0  0  0  0
   56.8640   29.0680   42.9280 O   0  0  0  0  0  0  0  0  0  0  0  0
   55.2320   30.4860   44.0530 O   0  0  0  0  0  0  0  0  0  0  0  0
   57.7030   30.4600   45.0540 C   0  0  0  0  0  0  0  0  0  0  0  0
   58.9040   29.8060   45.3970 C   0  0  0  0  0  0  0  0  0  0  0  0
   59.9460   30.5120   46.0180 C   0  0  0  0  0  0  0  0  0  0  0  0
   59.7610   31.8720   46.2950 C   0  0  0  0  0  0  0  0  0  0  0  0
   58.6050   32.5130   45.9390 C   0  0  0  0  0  0  0  0  0  0  0  0
   57.5570   31.8340   45.3160 C   0  0  0  0  0  0  0  0  0  0  0  0
   58.6820   33.9620   46.2600 C   0  0  0  0  0  0  0  0  0  0  0  0
   60.0630   34.1040   46.9590 C   0  0  1  0  0  0  0  0  0  0  0  0
   59.8980   34.5470   48.4170 C   0  0  0  0  0  0  0  0  0  0  0  0
   60.6860   32.7730   46.8900 N   0  0  0  0  0  0  0  0  0  0  0  0
   62.0270   32.4600   47.3120 C   0  0  0  0  0  0  0  0  0  0  0  0
   63.1620   33.3920   47.0260 C   0  0  0  0  0  0  0  0  0  0  0  0
   62.2500   31.4150   47.9820 O   0  0  0  0  0  0  0  0  0  0  0  0
   51.7994   24.3819   45.6847 H   0  0  0  0  0  0  0  0  0  0  0  0
   52.5878   24.8640   44.1443 H   0  0  0  0  0  0  0  0  0  0  0  0
   51.3189   23.5926   44.1443 H   0  0  0  0  0  0  0  0  0  0  0  0
   52.4467   20.7966   46.2629 H   0  0  0  0  0  0  0  0  0  0  0  0
   53.4035   20.0668   48.4460 H   0  0  0  0  0  0  0  0  0  0  0  0
   55.1471   21.4460   49.5726 H   0  0  0  0  0  0  0  0  0  0  0  0
   55.9159   23.5799   48.5373 H   0  0  0  0  0  0  0  0  0  0  0  0
   57.9916   25.6839   45.0263 H   0  0  0  0  0  0  0  0  0  0  0  0
   56.3242   25.9902   44.3922 H   0  0  0  0  0  0  0  0  0  0  0  0
   57.0806   27.5279   46.8363 H   0  0  0  0  0  0  0  0  0  0  0  0
   57.9772   27.9546   45.3402 H   0  0  0  0  0  0  0  0  0  0  0  0
   59.0252   28.7352   45.1764 H   0  0  0  0  0  0  0  0  0  0  0  0
   60.8875   30.0079   46.2814 H   0  0  0  0  0  0  0  0  0  0  0  0
   56.6345   32.3633   45.0353 H   0  0  0  0  0  0  0  0  0  0  0  0
   58.6399   34.5706   45.3447 H   0  0  0  0  0  0  0  0  0  0  0  0
   57.8464   34.3078   46.8863 H   0  0  0  0  0  0  0  0  0  0  0  0
   60.6823   34.8686   46.4673 H   0  0  0  0  0  0  0  0  0  0  0  0
   60.2029   33.7285   49.0857 H   0  0  0  0  0  0  0  0  0  0  0  0
   60.5280   35.4287   48.6059 H   0  0  0  0  0  0  0  0  0  0  0  0
   58.8447   34.8017   48.6059 H   0  0  0  0  0  0  0  0  0  0  0  0
   63.5933   33.7462   47.9739 H   0  0  0  0  0  0  0  0  0  0  0  0
   63.9335   32.8634   46.4469 H   0  0  0  0  0  0  0  0  0  0  0  0
   62.7936   34.2516   46.4469 H   0  0  0  0  0  0  0  0  0  0  0  0
  1  2  1  0
  2  3  1  0
  3  4  2  0
  4  5  1  0
  5  6  2  0
  6  7  1  0
  7  8  2  0
  8  9  1  0
  9 10  1  0
 10 11  2  0
 10 12  1  0
 12 13  1  0
 13 14  1  0
 14 15  1  0
 15 16  2  0
 15 17  2  0
 15 18  1  0
 18 19  2  0
 19 20  1  0
 20 21  2  0
 21 22  1  0
 22 23  2  0
 22 24  1  0
 24 25  1  0
 25 26  1  0
 25 27  1  0
 27 28  1  0
 28 29  1  0
 28 30  2  0
  8  3  1  0
 23 18  1  0
 27 21  1  0
  1 31  1  0
  1 32  1  0
  1 33  1  0
  4 34  1  0
  5 35  1  0
  6 36  1  0
  7 37  1  0
 12 38  1  0
 12 39  1  0
 13 40  1  0
 13 41  1  0
 19 42  1  0
 20 43  1  0
 23 44  1  0
 24 45  1  0
 24 46  1  0
 25 47  1  6
 26 48  1  0
 26 49  1  0
 26 50  1  0
 29 51  1  0
 29 52  1  0
 29 53  1  0
M  CHG  2   9  -1  14  -1
M  END
>  <UniqueID>  (15) 
14

>  <SMILES>  (15) 
COc1ccccc1[N-]C(=O)CC[N-]S(=O)(=O)c1ccc2c(c1)C[C@@H](C)N2C(C)=O

>  <Energy>  (15) 
69.89519798533146

>  <Genealogy>  (15) 
COc1ccccc1[N-]C(=O)CC[N-]S(=O)(=O)c1ccc2c(c1)CC(C)N2C(C)=O (protonated)
COc1ccccc1[N-]C(=O)CC[N-]S(=O)(=O)c1ccc2c(c1)C[C@@H](C)N2C(C)=O (chirality)
COc1ccccc1[N-]C(=O)CC[N-]S(=O)(=O)c1ccc2c(c1)C[C@@H](C)N2C(C)=O (3D coordinates assigned)
COc1ccccc1[N-]C(=O)CC[N-]S(=O)(=O)c1ccc2c(c1)C[C@@H](C)N2C(C)=O (nonaromatic ring conformer: 69.89519798533146 kcal/mol)

>  <smiles>  (15) 
COc1ccccc1NC(=O)CCNS(=O)(=O)c1ccc2c(c1)CC(C)N2C(C)=O

>  <score_type>  (15) 
oracle

>  <origin>  (15) 
adg

>  <m_score__min__energy>  (15) 
-13.66

>  <m_primary>  (15) 
energy

$$$$
15:0
     RDKit          3D

 32 34  0  0  0  0  0  0  0  0999 V2000
   66.3290   31.6890   51.6220 C   0  0  0  0  0  0  0  0  0  0  0  0
   65.1430   30.9630   51.4960 C   0  0  0  0  0  0  0  0  0  0  0  0
   64.2230   31.2890   50.4950 C   0  0  0  0  0  0  0  0  0  0  0  0
   64.4810   32.3490   49.6050 C   0  0  0  0  0  0  0  0  0  0  0  0
   63.5060   32.6980   48.5410 C   0  0  0  0  0  0  0  0  0  0  0  0
   62.1560   32.9630   48.7130 C   0  0  0  0  0  0  0  0  0  0  0  0
   61.7070   33.2350   47.4310 C   0  0  0  0  0  0  0  0  0  0  0  0
   60.3640   33.5770   47.0380 N   0  0  0  0  0  0  0  0  0  0  0  0
   59.2250   33.2210   47.8950 C   0  0  0  0  0  0  0  0  0  0  0  0
   57.9240   33.2050   47.0860 C   0  0  0  0  0  0  0  0  0  0  0  0
   57.7820   34.3930   46.3330 O   0  0  0  0  0  0  0  0  0  0  0  0
   58.7940   34.4470   45.3480 C   0  0  0  0  0  0  0  0  0  0  0  0
   60.1740   34.5920   45.9960 C   0  0  0  0  0  0  0  0  0  0  0  0
   62.7140   33.1410   46.5940 O   0  0  0  0  0  0  0  0  0  0  0  0
   63.8010   32.8190   47.2290 N   0  0  0  0  0  0  0  0  0  0  0  0
   65.6800   33.0740   49.7450 C   0  0  0  0  0  0  0  0  0  0  0  0
   66.5970   32.7440   50.7470 C   0  0  0  0  0  0  0  0  0  0  0  0
   67.0517   31.4302   52.4098 H   0  0  0  0  0  0  0  0  0  0  0  0
   64.9320   30.1326   52.1859 H   0  0  0  0  0  0  0  0  0  0  0  0
   63.2905   30.7130   50.4021 H   0  0  0  0  0  0  0  0  0  0  0  0
   61.5771   32.9584   49.6483 H   0  0  0  0  0  0  0  0  0  0  0  0
   59.3949   32.2232   48.3257 H   0  0  0  0  0  0  0  0  0  0  0  0
   59.1355   33.9711   48.6946 H   0  0  0  0  0  0  0  0  0  0  0  0
   57.9366   32.3442   46.4012 H   0  0  0  0  0  0  0  0  0  0  0  0
   57.0775   33.1290   47.7843 H   0  0  0  0  0  0  0  0  0  0  0  0
   58.7695   33.5213   44.7542 H   0  0  0  0  0  0  0  0  0  0  0  0
   58.6131   35.3195   44.7030 H   0  0  0  0  0  0  0  0  0  0  0  0
   60.9498   34.4692   45.2259 H   0  0  0  0  0  0  0  0  0  0  0  0
   60.2477   35.5892   46.4545 H   0  0  0  0  0  0  0  0  0  0  0  0
   64.7330   32.7060   46.7740 H   0  0  0  0  0  0  0  0  0  0  0  0
   65.8968   33.9070   49.0601 H   0  0  0  0  0  0  0  0  0  0  0  0
   67.5312   33.3162   50.8465 H   0  0  0  0  0  0  0  0  0  0  0  0
  1  2  2  0
  2  3  1  0
  3  4  2  0
  4  5  1  0
  5  6  1  0
  6  7  2  0
  7  8  1  0
  8  9  1  0
  9 10  1  0
 10 11  1  0
 11 12  1  0
 12 13  1  0
  7 14  1  0
 14 15  1  0
  4 16  1  0
 16 17  2  0
 17  1  1  0
 15  5  2  0
 13  8  1  0
  1 18  1  0
  2 19  1  0
  3 20  1  0
  6 21  1  0
  9 22  1  0
  9 23  1  0
 10 24  1  0
 10 25  1  0
 12 26  1  0
 12 27  1  0
 13 28  1  0
 13 29  1  0
 15 30  1  0
 16 31  1  0
 17 32  1  0
M  CHG  1  15   1
M  END
>  <UniqueID>  (16) 
15

>  <SMILES>  (16) 
c1ccc(-c2cc(N3CCOCC3)o[nH+]2)cc1

>  <Energy>  (16) 
68.49816215611213

>  <Genealogy>  (16) 
c1ccc(-c2cc(N3CCOCC3)o[nH+]2)cc1 (protonated)
c1ccc(-c2cc(N3CCOCC3)o[nH+]2)cc1 (3D coordinates assigned)
c1ccc(-c2cc(N3CCOCC3)o[nH+]2)cc1 (nonaromatic ring conformer: 68.49816215611213 kcal/mol)

>  <smiles>  (16) 
c1ccc(-c2cc(N3CCOCC3)on2)cc1

>  <score_type>  (16) 
oracle

>  <origin>  (16) 
adg

>  <m_score__min__energy>  (16) 
-4.75

>  <m_primary>  (16) 
energy

$$$$
16:0
     RDKit          3D

 33 34  0  0  0  0  0  0  0  0999 V2000
   59.8400   24.7510   46.0130 C   0  0  0  0  0  0  0  0  0  0  0  0
   58.9300   23.6930   45.4650 C   0  0  0  0  0  0  0  0  0  0  0  0
   59.2160   22.3760   45.5390 N   0  0  0  0  0  0  0  0  0  0  0  0
   58.1970   21.7450   44.9320 C   0  0  0  0  0  0  0  0  0  0  0  0
   57.2990   22.6960   44.4950 C   0  0  0  0  0  0  0  0  0  0  0  0
   56.0540   22.4000   43.8470 N   0  0  0  0  0  0  0  0  0  0  0  0
   54.9680   22.6870   44.3890 O   0  0  0  0  0  0  0  0  0  0  0  0
   56.0470   21.5790   42.7420 O   0  0  0  0  0  0  0  0  0  0  0  0
   57.7720   23.9320   44.7980 N   0  0  0  0  0  0  0  0  0  0  0  0
   57.1920   25.2430   44.4680 C   0  0  0  0  0  0  0  0  0  0  0  0
   56.3320   25.7690   45.5890 C   0  0  0  0  0  0  0  0  0  0  0  0
   55.4160   25.0390   46.0510 O   0  0  0  0  0  0  0  0  0  0  0  0
   56.5190   27.0770   46.1460 N   0  0  0  0  0  0  0  0  0  0  0  0
   57.6550   27.9110   45.8930 C   0  0  0  0  0  0  0  0  0  0  0  0
   58.8430   27.6360   46.5820 C   0  0  0  0  0  0  0  0  0  0  0  0
   59.9980   28.3750   46.3250 C   0  0  0  0  0  0  0  0  0  0  0  0
   59.9710   29.4060   45.3870 C   0  0  0  0  0  0  0  0  0  0  0  0
   58.7860   29.7110   44.7120 C   0  0  0  0  0  0  0  0  0  0  0  0
   57.6090   28.9810   44.9620 C   0  0  0  0  0  0  0  0  0  0  0  0
   56.3600   29.3790   44.2670 C   0  0  0  0  0  0  0  0  0  0  0  0
   56.3780   29.7530   43.0650 O   0  0  0  0  0  0  0  0  0  0  0  0
   55.1400   29.3180   44.9320 O   0  0  0  0  0  0  0  0  0  0  0  0
   59.8154   24.7224   47.1124 H   0  0  0  0  0  0  0  0  0  0  0  0
   60.8671   24.5678   45.6644 H   0  0  0  0  0  0  0  0  0  0  0  0
   59.5052   25.7391   45.6644 H   0  0  0  0  0  0  0  0  0  0  0  0
   60.0510   21.9340   45.9810 H   0  0  0  0  0  0  0  0  0  0  0  0
   58.0963   20.6570   44.8054 H   0  0  0  0  0  0  0  0  0  0  0  0
   58.0076   25.9565   44.2791 H   0  0  0  0  0  0  0  0  0  0  0  0
   56.5589   25.1239   43.5763 H   0  0  0  0  0  0  0  0  0  0  0  0
   58.8655   26.8312   47.3315 H   0  0  0  0  0  0  0  0  0  0  0  0
   60.9297   28.1443   46.8623 H   0  0  0  0  0  0  0  0  0  0  0  0
   60.8850   29.9810   45.1776 H   0  0  0  0  0  0  0  0  0  0  0  0
   58.7730   30.5300   43.9778 H   0  0  0  0  0  0  0  0  0  0  0  0
  1  2  1  0
  2  3  2  0
  3  4  1  0
  4  5  2  0
  5  6  1  0
  6  7  2  0
  6  8  1  0
  5  9  1  0
  9 10  1  0
 10 11  1  0
 11 12  2  0
 11 13  1  0
 13 14  1  0
 14 15  2  0
 15 16  1  0
 16 17  2  0
 17 18  1  0
 18 19  2  0
 19 20  1  0
 20 21  2  0
 20 22  1  0
  9  2  1  0
 19 14  1  0
  1 23  1  0
  1 24  1  0
  1 25  1  0
  3 26  1  0
  4 27  1  0
 10 28  1  0
 10 29  1  0
 15 30  1  0
 16 31  1  0
 17 32  1  0
 18 33  1  0
M  CHG  5   3   1   6   1   8  -1  13  -1  22  -1
M  END
>  <UniqueID>  (17) 
16

>  <SMILES>  (17) 
Cc1[nH+]cc([N+](=O)[O-])n1CC(=O)[N-]c1ccccc1C(=O)[O-]

>  <Energy>  (17) 
73.56477216530119

>  <Genealogy>  (17) 
Cc1[nH+]cc([N+](=O)[O-])n1CC(=O)[N-]c1ccccc1C(=O)[O-] (protonated)
Cc1[nH+]cc([N+](=O)[O-])n1CC(=O)[N-]c1ccccc1C(=O)[O-] (3D coordinates assigned)
Cc1[nH+]cc([N+](=O)[O-])n1CC(=O)[N-]c1ccccc1C(=O)[O-] (optimized conformer: 73.56477216530119 kcal/mol)

>  <smiles>  (17) 
Cc1ncc([N+](=O)[O-])n1CC(=O)Nc1ccccc1C(=O)O

>  <score_type>  (17) 
oracle

>  <origin>  (17) 
adg

>  <m_score__min__energy>  (17) 
-10.710000000000001

>  <m_primary>  (17) 
energy

$$$$
17:0
     RDKit          3D

 52 55  0  0  0  0  0  0  0  0999 V2000
   55.1610   29.0490   44.4710 O   0  0  0  0  0  0  0  0  0  0  0  0
   56.1840   29.6740   44.8610 C   0  0  0  0  0  0  0  0  0  0  0  0
   56.6560   30.8810   44.0950 C   0  0  0  0  0  0  0  0  0  0  0  0
   56.4720   32.0770   44.8550 O   0  0  0  0  0  0  0  0  0  0  0  0
   57.4920   32.9490   45.2710 C   0  0  0  0  0  0  0  0  0  0  0  0
   58.4960   33.4230   44.4020 C   0  0  0  0  0  0  0  0  0  0  0  0
   59.4840   34.2920   44.8750 C   0  0  0  0  0  0  0  0  0  0  0  0
   59.4810   34.6960   46.2130 C   0  0  0  0  0  0  0  0  0  0  0  0
   58.4900   34.2310   47.0800 C   0  0  0  0  0  0  0  0  0  0  0  0
   57.5000   33.3620   46.6110 C   0  0  0  0  0  0  0  0  0  0  0  0
   56.8910   29.1840   46.0070 N   0  0  0  0  0  0  0  0  0  0  0  0
   57.9100   28.1750   46.0150 C   0  0  0  0  0  0  0  0  0  0  0  0
   57.6810   26.9130   45.4370 C   0  0  0  0  0  0  0  0  0  0  0  0
   58.6770   25.9340   45.4580 C   0  0  0  0  0  0  0  0  0  0  0  0
   59.9130   26.2070   46.0430 C   0  0  0  0  0  0  0  0  0  0  0  0
   60.1640   27.4660   46.5950 C   0  0  0  0  0  0  0  0  0  0  0  0
   59.1740   28.4620   46.5730 C   0  0  0  0  0  0  0  0  0  0  0  0
   59.4550   29.7540   47.1390 N   0  0  0  0  0  0  0  0  0  0  0  0
   60.1440   30.7750   46.3420 C   0  0  0  0  0  0  0  0  0  0  0  0
   61.1640   31.5180   47.2100 C   0  0  0  0  0  0  0  0  0  0  0  0
   60.5730   31.9510   48.4880 N   0  0  0  0  0  0  0  0  0  0  0  0
   61.1940   33.0210   49.2230 C   0  0  0  0  0  0  0  0  0  0  0  0
   60.4870   33.9770   49.6430 O   0  0  0  0  0  0  0  0  0  0  0  0
   62.6410   33.0280   49.4980 C   0  0  0  0  0  0  0  0  0  0  0  0
   63.2500   33.2090   50.7340 C   0  0  0  0  0  0  0  0  0  0  0  0
   64.6480   33.2190   50.6650 C   0  0  0  0  0  0  0  0  0  0  0  0
   65.1460   33.0590   49.3800 C   0  0  0  0  0  0  0  0  0  0  0  0
   63.8430   32.9110   48.3260 S   0  0  0  0  0  0  0  0  0  0  0  0
   59.2150   31.5320   48.8540 C   0  0  0  0  0  0  0  0  0  0  0  0
   58.9990   30.0550   48.5030 C   0  0  0  0  0  0  0  0  0  0  0  0
   57.7248   30.7638   43.8628 H   0  0  0  0  0  0  0  0  0  0  0  0
   56.0659   30.9605   43.1701 H   0  0  0  0  0  0  0  0  0  0  0  0
   58.5021   33.1080   43.3481 H   0  0  0  0  0  0  0  0  0  0  0  0
   60.2652   34.6584   44.1927 H   0  0  0  0  0  0  0  0  0  0  0  0
   60.2590   35.3800   46.5829 H   0  0  0  0  0  0  0  0  0  0  0  0
   58.4882   34.5487   48.1331 H   0  0  0  0  0  0  0  0  0  0  0  0
   56.7215   32.9996   47.2985 H   0  0  0  0  0  0  0  0  0  0  0  0
   56.7112   26.6958   44.9654 H   0  0  0  0  0  0  0  0  0  0  0  0
   58.4862   24.9465   45.0126 H   0  0  0  0  0  0  0  0  0  0  0  0
   60.6915   25.4303   46.0700 H   0  0  0  0  0  0  0  0  0  0  0  0
   61.1430   27.6783   47.0495 H   0  0  0  0  0  0  0  0  0  0  0  0
   60.6642   30.2915   45.5020 H   0  0  0  0  0  0  0  0  0  0  0  0
   59.4044   31.4937   45.9593 H   0  0  0  0  0  0  0  0  0  0  0  0
   62.0119   30.8485   47.4171 H   0  0  0  0  0  0  0  0  0  0  0  0
   61.4955   32.4128   46.6628 H   0  0  0  0  0  0  0  0  0  0  0  0
   62.6896   33.3321   51.6725 H   0  0  0  0  0  0  0  0  0  0  0  0
   65.2923   33.3423   51.5480 H   0  0  0  0  0  0  0  0  0  0  0  0
   66.2092   33.0333   49.0988 H   0  0  0  0  0  0  0  0  0  0  0  0
   59.0714   31.6724   49.9355 H   0  0  0  0  0  0  0  0  0  0  0  0
   58.4903   32.1416   48.2944 H   0  0  0  0  0  0  0  0  0  0  0  0
   59.5622   29.4325   49.2138 H   0  0  0  0  0  0  0  0  0  0  0  0
   57.9219   29.8398   48.5625 H   0  0  0  0  0  0  0  0  0  0  0  0
  1  2  2  0
  2  3  1  0
  3  4  1  0
  4  5  1  0
  5  6  2  0
  6  7  1  0
  7  8  2  0
  8  9  1  0
  9 10  2  0
  2 11  1  0
 11 12  1  0
 12 13  2  0
 13 14  1  0
 14 15  2  0
 15 16  1  0
 16 17  2  0
 17 18  1  0
 18 19  1  0
 19 20  1  0
 20 21  1  0
 21 22  1  0
 22 23  2  0
 22 24  1  0
 24 25  2  0
 25 26  1  0
 26 27  2  0
 27 28  1  0
 21 29  1  0
 29 30  1  0
 10  5  1  0
 17 12  1  0
 30 18  1  0
 28 24  1  0
  3 31  1  0
  3 32  1  0
  6 33  1  0
  7 34  1  0
  8 35  1  0
  9 36  1  0
 10 37  1  0
 13 38  1  0
 14 39  1  0
 15 40  1  0
 16 41  1  0
 19 42  1  0
 19 43  1  0
 20 44  1  0
 20 45  1  0
 25 46  1  0
 26 47  1  0
 27 48  1  0
 29 49  1  0
 29 50  1  0
 30 51  1  0
 30 52  1  0
M  CHG  1  11  -1
M  END
>  <UniqueID>  (18) 
17

>  <SMILES>  (18) 
O=C(COc1ccccc1)[N-]c1ccccc1N1CCN(C(=O)c2cccs2)CC1

>  <Energy>  (18) 
95.30053529059327

>  <Genealogy>  (18) 
O=C(COc1ccccc1)[N-]c1ccccc1N1CCN(C(=O)c2cccs2)CC1 (protonated)
O=C(COc1ccccc1)[N-]c1ccccc1N1CCN(C(=O)c2cccs2)CC1 (3D coordinates assigned)
O=C(COc1ccccc1)[N-]c1ccccc1N1CCN(C(=O)c2cccs2)CC1 (nonaromatic ring conformer: 95.30053529059327 kcal/mol)

>  <smiles>  (18) 
O=C(COc1ccccc1)Nc1ccccc1N1CCN(C(=O)c2cccs2)CC1

>  <score_type>  (18) 
oracle

>  <origin>  (18) 
adg

>  <m_score__min__energy>  (18) 
-10.44

>  <m_primary>  (18) 
energy

$$$$
18:0
     RDKit          3D

 54 57  0  0  0  0  0  0  0  0999 V2000
   56.5460   29.3940   43.5310 C   0  0  0  0  0  0  0  0  0  0  0  0
   57.0520   28.9410   44.8660 C   0  0  0  0  0  0  0  0  0  0  0  0
   56.8810   29.6890   45.8630 O   0  0  0  0  0  0  0  0  0  0  0  0
   57.7390   27.6940   45.0510 N   0  0  0  0  0  0  0  0  0  0  0  0
   57.3430   26.5710   45.8540 C   0  0  0  0  0  0  0  0  0  0  0  0
   55.8060   25.8930   45.9590 S   0  0  0  0  0  0  0  0  0  0  0  0
   56.1970   24.7330   47.1110 C   0  0  0  0  0  0  0  0  0  0  0  0
   57.5390   24.8720   47.4370 C   0  0  0  0  0  0  0  0  0  0  0  0
   58.1820   25.9130   46.7490 C   0  0  0  0  0  0  0  0  0  0  0  0
   59.6440   26.2100   46.9080 C   0  0  0  0  0  0  0  0  0  0  0  0
   59.8200   27.5520   47.5460 C   0  0  0  0  0  0  0  0  0  0  0  0
   60.9290   27.8490   48.0680 O   0  0  0  0  0  0  0  0  0  0  0  0
   58.7510   28.5080   47.5140 N   0  0  0  0  0  0  0  0  0  0  0  0
   58.8990   29.8860   47.9880 C   0  0  1  0  0  0  0  0  0  0  0  0
   59.2640   29.8740   49.4420 C   0  0  0  0  0  0  0  0  0  0  0  0
   59.5970   28.7900   49.9930 O   0  0  0  0  0  0  0  0  0  0  0  0
   59.3710   31.1060   50.1690 N   0  0  0  0  0  0  0  0  0  0  0  0
   58.2520   31.4490   51.0530 C   0  0  0  0  0  0  0  0  0  0  0  0
   60.4530   32.0480   49.9190 C   0  0  0  0  0  0  0  0  0  0  0  0
   61.1730   32.5800   51.0130 C   0  0  0  0  0  0  0  0  0  0  0  0
   62.2070   33.4980   50.8220 C   0  0  0  0  0  0  0  0  0  0  0  0
   62.5480   33.9080   49.5390 C   0  0  0  0  0  0  0  0  0  0  0  0
   61.8560   33.4060   48.4400 C   0  0  0  0  0  0  0  0  0  0  0  0
   60.8050   32.4840   48.6030 C   0  0  0  0  0  0  0  0  0  0  0  0
   60.1320   32.0030   47.4190 N   0  0  0  0  0  0  0  0  0  0  0  0
   59.4560   32.9110   46.5220 C   0  0  0  0  0  0  0  0  0  0  0  0
   59.9410   34.2190   46.3300 C   0  0  0  0  0  0  0  0  0  0  0  0
   59.2740   35.1060   45.4780 C   0  0  0  0  0  0  0  0  0  0  0  0
   58.1180   34.6970   44.8100 C   0  0  0  0  0  0  0  0  0  0  0  0
   57.6240   33.4020   44.9950 C   0  0  0  0  0  0  0  0  0  0  0  0
   58.2860   32.5130   45.8480 C   0  0  0  0  0  0  0  0  0  0  0  0
   59.9690   30.5970   47.2240 C   0  0  0  0  0  0  0  0  0  0  0  0
   60.6880   29.9880   46.3870 O   0  0  0  0  0  0  0  0  0  0  0  0
   55.7334   30.1214   43.6744 H   0  0  0  0  0  0  0  0  0  0  0  0
   57.3656   29.8658   42.9691 H   0  0  0  0  0  0  0  0  0  0  0  0
   56.1674   28.5275   42.9691 H   0  0  0  0  0  0  0  0  0  0  0  0
   55.5061   23.9894   47.5349 H   0  0  0  0  0  0  0  0  0  0  0  0
   58.0508   24.2268   48.1662 H   0  0  0  0  0  0  0  0  0  0  0  0
   60.1065   25.4399   47.5429 H   0  0  0  0  0  0  0  0  0  0  0  0
   60.1250   26.2113   45.9187 H   0  0  0  0  0  0  0  0  0  0  0  0
   57.8170   28.2010   47.1620 H   0  0  0  0  0  0  0  0  0  0  0  0
   57.9447   30.4120   47.8378 H   0  0  0  0  0  0  0  0  0  0  0  0
   58.5699   31.3516   52.1016 H   0  0  0  0  0  0  0  0  0  0  0  0
   57.9367   32.4850   50.8602 H   0  0  0  0  0  0  0  0  0  0  0  0
   57.4102   30.7676   50.8602 H   0  0  0  0  0  0  0  0  0  0  0  0
   60.9135   32.2645   52.0343 H   0  0  0  0  0  0  0  0  0  0  0  0
   62.7531   33.8977   51.6892 H   0  0  0  0  0  0  0  0  0  0  0  0
   63.3651   34.6295   49.3914 H   0  0  0  0  0  0  0  0  0  0  0  0
   62.1351   33.7352   47.4282 H   0  0  0  0  0  0  0  0  0  0  0  0
   60.8513   34.5459   46.8539 H   0  0  0  0  0  0  0  0  0  0  0  0
   59.6604   36.1258   45.3343 H   0  0  0  0  0  0  0  0  0  0  0  0
   57.5957   35.3938   44.1380 H   0  0  0  0  0  0  0  0  0  0  0  0
   56.7128   33.0818   44.4685 H   0  0  0  0  0  0  0  0  0  0  0  0
   57.8901   31.4970   45.9930 H   0  0  0  0  0  0  0  0  0  0  0  0
  1  2  1  0
  2  3  2  0
  2  4  1  0
  4  5  1  0
  5  6  1  0
  6  7  1  0
  7  8  2  0
  8  9  1  0
  9 10  1  0
 10 11  1  0
 11 12  2  0
 11 13  1  0
 13 14  1  0
 14 15  1  0
 15 16  2  0
 15 17  1  0
 17 18  1  0
 17 19  1  0
 19 20  2  0
 20 21  1  0
 21 22  2  0
 22 23  1  0
 23 24  2  0
 24 25  1  0
 25 26  1  0
 26 27  2  0
 27 28  1  0
 28 29  2  0
 29 30  1  0
 30 31  2  0
 25 32  1  0
 32 33  2  0
  9  5  2  0
 32 14  1  0
 24 19  1  0
 31 26  1  0
  1 34  1  0
  1 35  1  0
  1 36  1  0
  7 37  1  0
  8 38  1  0
 10 39  1  0
 10 40  1  0
 13 41  1  0
 14 42  1  1
 18 43  1  0
 18 44  1  0
 18 45  1  0
 20 46  1  0
 21 47  1  0
 22 48  1  0
 23 49  1  0
 27 50  1  0
 28 51  1  0
 29 52  1  0
 30 53  1  0
 31 54  1  0
M  CHG  1   4  -1
M  END
>  <UniqueID>  (19) 
18

>  <SMILES>  (19) 
CC(=O)[N-]c1sccc1CC(=O)N[C@H]1C(=O)N(C)c2ccccc2N(c2ccccc2)C1=O

>  <Energy>  (19) 
110.32003976599464

>  <Genealogy>  (19) 
CC(=O)[N-]c1sccc1CC(=O)NC1C(=O)N(C)c2ccccc2N(c2ccccc2)C1=O (protonated)
CC(=O)[N-]c1sccc1CC(=O)N[C@H]1C(=O)N(C)c2ccccc2N(c2ccccc2)C1=O (chirality)
CC(=O)[N-]c1sccc1CC(=O)N[C@H]1C(=O)N(C)c2ccccc2N(c2ccccc2)C1=O (3D coordinates assigned)
CC(=O)[N-]c1sccc1CC(=O)N[C@H]1C(=O)N(C)c2ccccc2N(c2ccccc2)C1=O (nonaromatic ring conformer: 110.32003976599464 kcal/mol)

>  <smiles>  (19) 
CC(=O)Nc1sccc1CC(=O)NC1C(=O)N(C)c2ccccc2N(c2ccccc2)C1=O

>  <score_type>  (19) 
oracle

>  <origin>  (19) 
adg

>  <m_score__min__energy>  (19) 
-9.3499999999999996

>  <m_primary>  (19) 
energy

$$$$
19:0
     RDKit          3D

 41 43  0  0  0  0  0  0  0  0999 V2000
   57.3920   20.3260   44.8840 N   0  0  0  0  0  0  0  0  0  0  0  0
   56.6720   21.3920   44.2590 C   0  0  0  0  0  0  0  0  0  0  0  0
   56.0160   21.1480   43.2110 O   0  0  0  0  0  0  0  0  0  0  0  0
   56.6950   22.7730   44.8040 C   0  0  0  0  0  0  0  0  0  0  0  0
   57.3860   23.7870   44.1160 C   0  0  0  0  0  0  0  0  0  0  0  0
   57.4190   25.0920   44.6170 C   0  0  0  0  0  0  0  0  0  0  0  0
   56.7740   25.4060   45.8180 C   0  0  0  0  0  0  0  0  0  0  0  0
   56.8020   26.7600   46.2880 N   0  0  0  0  0  0  0  0  0  0  0  0
   57.9710   27.5240   46.6130 C   0  0  0  0  0  0  0  0  0  0  0  0
   58.1500   27.8760   47.8080 O   0  0  0  0  0  0  0  0  0  0  0  0
   58.9620   27.9430   45.5610 C   0  0  0  0  0  0  0  0  0  0  0  0
   58.1570   28.0780   43.9270 S   0  0  0  0  0  0  0  0  0  0  0  0
   57.5180   29.7290   44.2030 C   0  0  0  0  0  0  0  0  0  0  0  0
   56.2340   29.9990   44.5000 N   0  0  0  0  0  0  0  0  0  0  0  0
   56.1550   31.3140   44.6320 N   0  0  0  0  0  0  0  0  0  0  0  0
   57.3960   31.7900   44.4140 C   0  0  0  0  0  0  0  0  0  0  0  0
   57.7600   33.2390   44.4530 C   0  0  0  0  0  0  0  0  0  0  0  0
   58.4080   33.5760   45.7700 C   0  0  0  0  0  0  0  0  0  0  0  0
   58.1940   32.7510   46.8880 C   0  0  0  0  0  0  0  0  0  0  0  0
   58.8170   33.0370   48.1060 C   0  0  0  0  0  0  0  0  0  0  0  0
   59.6680   34.1410   48.2160 C   0  0  0  0  0  0  0  0  0  0  0  0
   59.9010   34.9580   47.1050 C   0  0  0  0  0  0  0  0  0  0  0  0
   59.2790   34.6770   45.8840 C   0  0  0  0  0  0  0  0  0  0  0  0
   59.5280   35.4770   44.8150 F   0  0  0  0  0  0  0  0  0  0  0  0
   58.2380   30.8210   44.1470 O   0  0  0  0  0  0  0  0  0  0  0  0
   56.0500   24.4090   46.4890 C   0  0  0  0  0  0  0  0  0  0  0  0
   56.0140   23.1040   45.9900 C   0  0  0  0  0  0  0  0  0  0  0  0
   58.0630   20.4950   45.6660 H   0  0  0  0  0  0  0  0  0  0  0  0
   57.3180   19.3560   44.5050 H   0  0  0  0  0  0  0  0  0  0  0  0
   57.9051   23.5511   43.1753 H   0  0  0  0  0  0  0  0  0  0  0  0
   57.9555   25.8766   44.0633 H   0  0  0  0  0  0  0  0  0  0  0  0
   59.3873   28.9197   45.8351 H   0  0  0  0  0  0  0  0  0  0  0  0
   59.7548   27.1828   45.5013 H   0  0  0  0  0  0  0  0  0  0  0  0
   58.4620   33.4596   43.6354 H   0  0  0  0  0  0  0  0  0  0  0  0
   56.8474   33.8421   44.3367 H   0  0  0  0  0  0  0  0  0  0  0  0
   57.5329   31.8759   46.8038 H   0  0  0  0  0  0  0  0  0  0  0  0
   58.6376   32.3927   48.9793 H   0  0  0  0  0  0  0  0  0  0  0  0
   60.1543   34.3670   49.1765 H   0  0  0  0  0  0  0  0  0  0  0  0
   60.5747   35.8232   47.1915 H   0  0  0  0  0  0  0  0  0  0  0  0
   55.5074   24.6559   47.4134 H   0  0  0  0  0  0  0  0  0  0  0  0
   55.4487   22.3293   46.5288 H   0  0  0  0  0  0  0  0  0  0  0  0
  1  2  1  0
  2  3  2  0
  2  4  1  0
  4  5  2  0
  5  6  1  0
  6  7  2  0
  7  8  1  0
  8  9  1  0
  9 10  2  0
  9 11  1  0
 11 12  1  0
 12 13  1  0
 13 14  2  0
 14 15  1  0
 15 16  2  0
 16 17  1  0
 17 18  1  0
 18 19  2  0
 19 20  1  0
 20 21  2  0
 21 22  1  0
 22 23  2  0
 23 24  1  0
 16 25  1  0
  7 26  1  0
 26 27  2  0
 27  4  1  0
 25 13  1  0
 23 18  1  0
  1 28  1  0
  1 29  1  0
  5 30  1  0
  6 31  1  0
 11 32  1  0
 11 33  1  0
 17 34  1  0
 17 35  1  0
 19 36  1  0
 20 37  1  0
 21 38  1  0
 22 39  1  0
 26 40  1  0
 27 41  1  0
M  CHG  1   8  -1
M  END
>  <UniqueID>  (20) 
19

>  <SMILES>  (20) 
NC(=O)c1ccc([N-]C(=O)CSc2nnc(Cc3ccccc3F)o2)cc1

>  <Energy>  (20) 
79.81637232819183

>  <Genealogy>  (20) 
NC(=O)c1ccc([N-]C(=O)CSc2nnc(Cc3ccccc3F)o2)cc1 (protonated)
NC(=O)c1ccc([N-]C(=O)CSc2nnc(Cc3ccccc3F)o2)cc1 (3D coordinates assigned)
NC(=O)c1ccc([N-]C(=O)CSc2nnc(Cc3ccccc3F)o2)cc1 (optimized conformer: 79.81637232819183 kcal/mol)

>  <smiles>  (20) 
NC(=O)c1ccc(NC(=O)CSc2nnc(Cc3ccccc3F)o2)cc1

>  <score_type>  (20) 
oracle

>  <origin>  (20) 
adg

>  <m_score__min__energy>  (20) 
-10.960000000000001

>  <m_primary>  (20) 
energy

$$$$
20:0
     RDKit          3D

 39 40  0  0  0  0  0  0  0  0999 V2000
   59.2630   28.3790   48.2450 C   0  0  0  0  0  0  0  0  0  0  0  0
   59.0160   29.5760   48.9490 O   0  0  0  0  0  0  0  0  0  0  0  0
   59.1620   29.3630   50.3410 C   0  0  0  0  0  0  0  0  0  0  0  0
   58.2190   30.2390   51.1270 C   0  0  0  0  0  0  0  0  0  0  0  0
   57.1860   29.7260   51.6320 O   0  0  0  0  0  0  0  0  0  0  0  0
   58.3720   31.6630   51.1740 N   0  0  0  0  0  0  0  0  0  0  0  0
   58.8580   32.5080   50.1220 C   0  0  0  0  0  0  0  0  0  0  0  0
   59.8920   33.4080   50.3980 C   0  0  0  0  0  0  0  0  0  0  0  0
   60.4210   34.2070   49.3820 C   0  0  0  0  0  0  0  0  0  0  0  0
   59.9270   34.1050   48.0790 C   0  0  0  0  0  0  0  0  0  0  0  0
   58.8980   33.1970   47.7780 C   0  0  0  0  0  0  0  0  0  0  0  0
   58.3920   33.0850   46.3900 C   0  0  0  0  0  0  0  0  0  0  0  0
   57.9440   34.1140   45.8130 O   0  0  0  0  0  0  0  0  0  0  0  0
   58.4080   31.8250   45.6980 N   0  0  0  0  0  0  0  0  0  0  0  0
   57.9810   31.6670   44.3360 C   0  0  0  0  0  0  0  0  0  0  0  0
   58.4470   32.5600   43.3550 C   0  0  0  0  0  0  0  0  0  0  0  0
   57.9740   32.4880   42.0440 C   0  0  0  0  0  0  0  0  0  0  0  0
   57.0190   31.5330   41.6990 C   0  0  0  0  0  0  0  0  0  0  0  0
   56.5370   30.6450   42.6620 C   0  0  0  0  0  0  0  0  0  0  0  0
   57.0110   30.6930   43.9860 C   0  0  0  0  0  0  0  0  0  0  0  0
   56.5090   29.6980   44.9670 C   0  0  0  0  0  0  0  0  0  0  0  0
   55.2200   29.1120   44.8000 N   0  0  0  0  0  0  0  0  0  0  0  0
   57.2250   29.3390   45.9400 O   0  0  0  0  0  0  0  0  0  0  0  0
   58.3850   32.3820   48.8050 C   0  0  0  0  0  0  0  0  0  0  0  0
   59.4318   27.5609   48.9607 H   0  0  0  0  0  0  0  0  0  0  0  0
   58.3953   28.1398   47.6127 H   0  0  0  0  0  0  0  0  0  0  0  0
   60.1545   28.5028   47.6127 H   0  0  0  0  0  0  0  0  0  0  0  0
   58.9456   28.3086   50.5676 H   0  0  0  0  0  0  0  0  0  0  0  0
   60.1936   29.6164   50.6265 H   0  0  0  0  0  0  0  0  0  0  0  0
   60.2906   33.4871   51.4202 H   0  0  0  0  0  0  0  0  0  0  0  0
   61.2288   34.9186   49.6082 H   0  0  0  0  0  0  0  0  0  0  0  0
   60.3462   34.7394   47.2841 H   0  0  0  0  0  0  0  0  0  0  0  0
   58.7450   30.9710   46.1970 H   0  0  0  0  0  0  0  0  0  0  0  0
   59.1921   33.3233   43.6237 H   0  0  0  0  0  0  0  0  0  0  0  0
   58.3548   33.1849   41.2829 H   0  0  0  0  0  0  0  0  0  0  0  0
   56.6446   31.4791   40.6661 H   0  0  0  0  0  0  0  0  0  0  0  0
   55.7781   29.8993   42.3828 H   0  0  0  0  0  0  0  0  0  0  0  0
   54.4350   29.3490   45.4470 H   0  0  0  0  0  0  0  0  0  0  0  0
   57.6067   31.6397   48.5742 H   0  0  0  0  0  0  0  0  0  0  0  0
  1  2  1  0
  2  3  1  0
  3  4  1  0
  4  5  2  0
  4  6  1  0
  6  7  1  0
  7  8  2  0
  8  9  1  0
  9 10  2  0
 10 11  1  0
 11 12  1  0
 12 13  2  0
 12 14  1  0
 14 15  1  0
 15 16  2  0
 16 17  1  0
 17 18  2  0
 18 19  1  0
 19 20  2  0
 20 21  1  0
 21 22  1  0
 21 23  2  0
 11 24  2  0
 24  7  1  0
 20 15  1  0
  1 25  1  0
  1 26  1  0
  1 27  1  0
  3 28  1  0
  3 29  1  0
  8 30  1  0
  9 31  1  0
 10 32  1  0
 14 33  1  0
 16 34  1  0
 17 35  1  0
 18 36  1  0
 19 37  1  0
 22 38  1  0
 24 39  1  0
M  CHG  2   6  -1  22  -1
M  END
>  <UniqueID>  (21) 
20

>  <SMILES>  (21) 
COCC(=O)[N-]c1cccc(C(=O)Nc2ccccc2C([NH-])=O)c1

>  <Energy>  (21) 
55.08811931549208

>  <Genealogy>  (21) 
COCC(=O)[N-]c1cccc(C(=O)Nc2ccccc2C([NH-])=O)c1 (protonated)
COCC(=O)[N-]c1cccc(C(=O)Nc2ccccc2C([NH-])=O)c1 (3D coordinates assigned)
COCC(=O)[N-]c1cccc(C(=O)Nc2ccccc2C([NH-])=O)c1 (optimized conformer: 55.08811931549208 kcal/mol)

>  <smiles>  (21) 
COCC(=O)Nc1cccc(C(=O)Nc2ccccc2C(N)=O)c1

>  <score_type>  (21) 
oracle

>  <origin>  (21) 
adg

>  <m_score__min__energy>  (21) 
-11.57

>  <m_primary>  (21) 
energy

$$$$
21:0
     RDKit          3D

 34 35  0  0  0  0  0  0  0  0999 V2000
   59.8320   29.6010   45.5360 C   0  0  0  0  0  0  0  0  0  0  0  0
   58.9660   30.8370   45.4890 C   0  0  0  0  0  0  0  0  0  0  0  0
   59.3930   32.0220   46.1370 C   0  0  0  0  0  0  0  0  0  0  0  0
   60.9050   32.1050   47.0380 Cl  0  0  0  0  0  0  0  0  0  0  0  0
   58.6050   33.1750   46.0870 C   0  0  0  0  0  0  0  0  0  0  0  0
   57.3870   33.1670   45.4150 C   0  0  0  0  0  0  0  0  0  0  0  0
   56.9330   32.0000   44.8050 C   0  0  0  0  0  0  0  0  0  0  0  0
   57.6930   30.8210   44.8560 C   0  0  0  0  0  0  0  0  0  0  0  0
   57.0150   29.3600   44.1160 S   0  0  0  0  0  0  0  0  0  0  0  0
   58.1500   28.4880   43.6640 O   0  0  0  0  0  0  0  0  0  0  0  0
   56.1770   29.7070   42.9180 O   0  0  0  0  0  0  0  0  0  0  0  0
   56.0390   28.4700   45.2430 N   0  0  0  0  0  0  0  0  0  0  0  0
   56.2640   27.1230   45.6760 C   0  0  0  0  0  0  0  0  0  0  0  0
   55.2910   26.4700   46.1340 O   0  0  0  0  0  0  0  0  0  0  0  0
   57.6180   26.4610   45.6140 C   0  0  0  0  0  0  0  0  0  0  0  0
   58.5520   26.9770   46.6360 N   0  0  0  0  0  0  0  0  0  0  0  0
   58.1500   27.9650   47.4940 C   0  0  0  0  0  0  0  0  0  0  0  0
   59.0080   28.4470   48.4790 C   0  0  0  0  0  0  0  0  0  0  0  0
   60.2720   27.8800   48.5960 C   0  0  0  0  0  0  0  0  0  0  0  0
   61.0720   28.2990   49.4750 O   0  0  0  0  0  0  0  0  0  0  0  0
   60.6360   26.8660   47.7690 N   0  0  0  0  0  0  0  0  0  0  0  0
   59.7870   26.3990   46.8110 C   0  0  0  0  0  0  0  0  0  0  0  0
   60.1500   25.4260   46.0950 O   0  0  0  0  0  0  0  0  0  0  0  0
   60.0238   29.3273   46.5840 H   0  0  0  0  0  0  0  0  0  0  0  0
   59.3160   28.7723   45.0291 H   0  0  0  0  0  0  0  0  0  0  0  0
   60.7871   29.8030   45.0291 H   0  0  0  0  0  0  0  0  0  0  0  0
   58.9500   34.0947   46.5821 H   0  0  0  0  0  0  0  0  0  0  0  0
   56.7814   34.0839   45.3653 H   0  0  0  0  0  0  0  0  0  0  0  0
   55.9679   32.0024   44.2773 H   0  0  0  0  0  0  0  0  0  0  0  0
   57.4886   25.3797   45.7693 H   0  0  0  0  0  0  0  0  0  0  0  0
   58.0507   26.6811   44.6269 H   0  0  0  0  0  0  0  0  0  0  0  0
   57.1366   28.3833   47.4042 H   0  0  0  0  0  0  0  0  0  0  0  0
   58.6924   29.2592   49.1504 H   0  0  0  0  0  0  0  0  0  0  0  0
   61.5800   26.4290   47.8780 H   0  0  0  0  0  0  0  0  0  0  0  0
  1  2  1  0
  2  3  2  0
  3  4  1  0
  3  5  1  0
  5  6  2  0
  6  7  1  0
  7  8  2  0
  8  9  1  0
  9 10  2  0
  9 11  2  0
  9 12  1  0
 12 13  1  0
 13 14  2  0
 13 15  1  0
 15 16  1  0
 16 17  1  0
 17 18  2  0
 18 19  1  0
 19 20  2  0
 19 21  1  0
 21 22  1  0
 22 23  2  0
  8  2  1  0
 22 16  1  0
  1 24  1  0
  1 25  1  0
  1 26  1  0
  5 27  1  0
  6 28  1  0
  7 29  1  0
 15 30  1  0
 15 31  1  0
 17 32  1  0
 18 33  1  0
 21 34  1  0
M  CHG  1  12  -1
M  END
>  <UniqueID>  (22) 
21

>  <SMILES>  (22) 
Cc1c(Cl)cccc1S(=O)(=O)[N-]C(=O)Cn1ccc(=O)[nH]c1=O

>  <Energy>  (22) 
43.03319123714427

>  <Genealogy>  (22) 
Cc1c(Cl)cccc1S(=O)(=O)[N-]C(=O)Cn1ccc(=O)[nH]c1=O (protonated)
Cc1c(Cl)cccc1S(=O)(=O)[N-]C(=O)Cn1ccc(=O)[nH]c1=O (3D coordinates assigned)
Cc1c(Cl)cccc1S(=O)(=O)[N-]C(=O)Cn1ccc(=O)[nH]c1=O (optimized conformer: 43.03319123714427 kcal/mol)

>  <smiles>  (22) 
Cc1c(Cl)cccc1S(=O)(=O)NC(=O)Cn1ccc(=O)[nH]c1=O

>  <score_type>  (22) 
oracle

>  <origin>  (22) 
adg

>  <m_score__min__energy>  (22) 
-10.109999999999999

>  <m_primary>  (22) 
energy

$$$$
22:0
     RDKit          3D

 37 39  0  0  0  0  0  0  0  0999 V2000
   59.3670   35.2370   45.0610 C   0  0  0  0  0  0  0  0  0  0  0  0
   58.3500   34.5020   45.8330 N   0  0  0  0  0  0  0  0  0  0  0  0
   57.2880   33.8830   45.0160 C   0  0  0  0  0  0  0  0  0  0  0  0
   57.7480   32.6600   44.2050 C   0  0  0  0  0  0  0  0  0  0  0  0
   57.7680   31.4100   45.0530 C   0  0  0  0  0  0  0  0  0  0  0  0
   56.8480   30.3830   44.7690 C   0  0  0  0  0  0  0  0  0  0  0  0
   56.8140   29.2240   45.5430 C   0  0  0  0  0  0  0  0  0  0  0  0
   55.9030   28.2170   45.2490 O   0  0  0  0  0  0  0  0  0  0  0  0
   57.6930   29.0770   46.6130 C   0  0  0  0  0  0  0  0  0  0  0  0
   58.6080   30.0870   46.9140 C   0  0  0  0  0  0  0  0  0  0  0  0
   58.6690   31.2680   46.1390 C   0  0  0  0  0  0  0  0  0  0  0  0
   59.6480   32.3990   46.4630 C   0  0  2  0  0  0  0  0  0  0  0  0
   60.7320   31.9980   47.4610 C   0  0  0  0  0  0  0  0  0  0  0  0
   60.3760   31.6620   48.7800 C   0  0  0  0  0  0  0  0  0  0  0  0
   61.3550   31.3210   49.7170 C   0  0  0  0  0  0  0  0  0  0  0  0
   62.7040   31.3250   49.3530 C   0  0  0  0  0  0  0  0  0  0  0  0
   63.6770   30.9860   50.2850 O   0  0  0  0  0  0  0  0  0  0  0  0
   63.0750   31.6730   48.0520 C   0  0  0  0  0  0  0  0  0  0  0  0
   62.0980   32.0140   47.1110 C   0  0  0  0  0  0  0  0  0  0  0  0
   58.8890   33.6720   46.9320 C   0  0  0  0  0  0  0  0  0  0  0  0
   60.0606   35.7382   45.7522 H   0  0  0  0  0  0  0  0  0  0  0  0
   59.9260   34.5328   44.4272 H   0  0  0  0  0  0  0  0  0  0  0  0
   58.8738   35.9887   44.4272 H   0  0  0  0  0  0  0  0  0  0  0  0
   56.4766   33.5661   45.6877 H   0  0  0  0  0  0  0  0  0  0  0  0
   56.9666   34.6422   44.2878 H   0  0  0  0  0  0  0  0  0  0  0  0
   57.0573   32.5094   43.3623 H   0  0  0  0  0  0  0  0  0  0  0  0
   58.7698   32.8491   43.8443 H   0  0  0  0  0  0  0  0  0  0  0  0
   56.1486   30.4962   43.9275 H   0  0  0  0  0  0  0  0  0  0  0  0
   57.6661   28.1620   47.2229 H   0  0  0  0  0  0  0  0  0  0  0  0
   59.2917   29.9624   47.7667 H   0  0  0  0  0  0  0  0  0  0  0  0
   60.1751   32.6293   45.5254 H   0  0  0  0  0  0  0  0  0  0  0  0
   59.3167   31.6678   49.0765 H   0  0  0  0  0  0  0  0  0  0  0  0
   61.0633   31.0491   50.7422 H   0  0  0  0  0  0  0  0  0  0  0  0
   64.1374   31.6789   47.7671 H   0  0  0  0  0  0  0  0  0  0  0  0
   62.3972   32.2966   46.0909 H   0  0  0  0  0  0  0  0  0  0  0  0
   58.0492   33.3568   47.5687 H   0  0  0  0  0  0  0  0  0  0  0  0
   59.6216   34.2953   47.4657 H   0  0  0  0  0  0  0  0  0  0  0  0
  1  2  1  0
  2  3  1  0
  3  4  1  0
  4  5  1  0
  5  6  2  0
  6  7  1  0
  7  8  1  0
  7  9  2  0
  9 10  1  0
 10 11  2  0
 11 12  1  0
 12 13  1  0
 13 14  2  0
 14 15  1  0
 15 16  2  0
 16 17  1  0
 16 18  1  0
 18 19  2  0
 12 20  1  0
 20  2  1  0
 11  5  1  0
 19 13  1  0
  1 21  1  0
  1 22  1  0
  1 23  1  0
  3 24  1  0
  3 25  1  0
  4 26  1  0
  4 27  1  0
  6 28  1  0
  9 29  1  0
 10 30  1  0
 12 31  1  6
 14 32  1  0
 15 33  1  0
 18 34  1  0
 19 35  1  0
 20 36  1  0
 20 37  1  0
M  CHG  2   8  -1  17  -1
M  END
>  <UniqueID>  (23) 
22

>  <SMILES>  (23) 
CN1CCc2cc([O-])ccc2[C@H](c2ccc([O-])cc2)C1

>  <Energy>  (23) 
55.274145059226356

>  <Genealogy>  (23) 
CN1CCc2cc([O-])ccc2C(c2ccc([O-])cc2)C1 (protonated)
CN1CCc2cc([O-])ccc2[C@H](c2ccc([O-])cc2)C1 (chirality)
CN1CCc2cc([O-])ccc2[C@H](c2ccc([O-])cc2)C1 (3D coordinates assigned)
CN1CCc2cc([O-])ccc2[C@H](c2ccc([O-])cc2)C1 (nonaromatic ring conformer: 55.274145059226356 kcal/mol)

>  <smiles>  (23) 
CN1CCc2cc(O)ccc2C(c2ccc(O)cc2)C1

>  <score_type>  (23) 
oracle

>  <origin>  (23) 
adg

>  <m_score__min__energy>  (23) 
-8.0999999999999996

>  <m_primary>  (23) 
energy

$$$$
23:0
     RDKit          3D

 44 48  0  0  0  0  0  0  0  0999 V2000
   52.5883   30.1405   50.5110 H   0  0  0  0  0  0  0  0  0  0  0  0
   52.6860   30.4020   51.5750 C   0  0  0  0  0  0  0  0  0  0  0  0
   51.7140   31.3500   52.1460 C   0  0  0  0  0  0  0  0  0  0  0  0
   51.4670   31.4470   53.4640 N   0  0  0  0  0  0  0  0  0  0  0  0
   50.5900   32.4700   53.5450 C   0  0  0  0  0  0  0  0  0  0  0  0
   50.1050   32.8630   54.6370 O   0  0  0  0  0  0  0  0  0  0  0  0
   50.2820   33.0480   52.3640 N   0  0  0  0  0  0  0  0  0  0  0  0
   51.0110   32.3360   51.4890 C   0  0  0  0  0  0  0  0  0  0  0  0
   51.0680   32.6180   50.1300 O   0  0  0  0  0  0  0  0  0  0  0  0
   53.6830   29.8380   52.2730 C   0  0  0  0  0  0  0  0  0  0  0  0
   53.6250   28.8300   53.2300 C   0  0  0  0  0  0  0  0  0  0  0  0
   52.7138   28.2981   53.5411 H   0  0  0  0  0  0  0  0  0  0  0  0
   54.8670   28.6080   53.7170 N   0  0  0  0  0  0  0  0  0  0  0  0
   55.0750   27.9220   54.4670 H   0  0  0  0  0  0  0  0  0  0  0  0
   55.7130   29.4340   53.1100 N   0  0  0  0  0  0  0  0  0  0  0  0
   57.0650   29.6150   53.2610 C   0  0  0  0  0  0  0  0  0  0  0  0
   57.8220   28.9170   54.0610 N   0  0  0  0  0  0  0  0  0  0  0  0
   58.3980   29.2870   55.3470 C   0  0  0  0  0  0  0  0  0  0  0  0
   58.3820   28.2915   55.8147 H   0  0  0  0  0  0  0  0  0  0  0  0
   58.0320   30.6840   55.8180 C   0  0  0  0  0  0  0  0  0  0  0  0
   57.2871   31.2738   55.2637 H   0  0  0  0  0  0  0  0  0  0  0  0
   57.6715   31.1169   56.7628 H   0  0  0  0  0  0  0  0  0  0  0  0
   59.3990   30.4210   55.2090 C   0  0  0  0  0  0  0  0  0  0  0  0
   59.6438   30.8205   54.2138 H   0  0  0  0  0  0  0  0  0  0  0  0
   60.4382   30.5846   55.5303 H   0  0  0  0  0  0  0  0  0  0  0  0
   57.6590   30.5880   52.5140 N   0  0  0  0  0  0  0  0  0  0  0  0
   56.9420   31.3550   51.6390 C   0  0  0  0  0  0  0  0  0  0  0  0
   57.5220   32.2780   50.9330 N   0  0  0  0  0  0  0  0  0  0  0  0
   58.9600   32.5200   50.9270 C   0  0  0  0  0  0  0  0  0  0  0  0
   59.4936   31.5613   50.8486 H   0  0  0  0  0  0  0  0  0  0  0  0
   59.2230   33.1552   50.0683 H   0  0  0  0  0  0  0  0  0  0  0  0
   59.3530   33.2100   52.2020 C   0  0  0  0  0  0  0  0  0  0  0  0
   60.5010   32.8030   52.9020 C   0  0  0  0  0  0  0  0  0  0  0  0
   61.1297   31.9942   52.5012 H   0  0  0  0  0  0  0  0  0  0  0  0
   60.8470   33.4230   54.1070 C   0  0  0  0  0  0  0  0  0  0  0  0
   61.7517   33.1073   54.6472 H   0  0  0  0  0  0  0  0  0  0  0  0
   60.0440   34.4440   54.6260 C   0  0  0  0  0  0  0  0  0  0  0  0
   60.3800   35.0420   55.7960 F   0  0  0  0  0  0  0  0  0  0  0  0
   58.8920   34.8430   53.9420 C   0  0  0  0  0  0  0  0  0  0  0  0
   58.2593   35.6440   54.3520 H   0  0  0  0  0  0  0  0  0  0  0  0
   58.5430   34.2250   52.7370 C   0  0  0  0  0  0  0  0  0  0  0  0
   57.6307   34.5350   52.2063 H   0  0  0  0  0  0  0  0  0  0  0  0
   55.6040   31.1540   51.5010 N   0  0  0  0  0  0  0  0  0  0  0  0
   55.0170   30.1880   52.2460 C   0  0  0  0  0  0  0  0  0  0  0  0
  1  2  1  0
  2  3  1  0
  3  4  1  0
  4  5  1  0
  5  6  2  0
  5  7  1  0
  7  8  1  0
  8  9  1  0
  2 10  2  3
 10 11  1  0
 11 12  1  0
 11 13  2  0
 13 14  1  0
 13 15  1  0
 15 16  1  0
 16 17  2  0
 17 18  1  0
 18 19  1  0
 18 20  1  0
 20 21  1  0
 20 22  1  0
 20 23  1  0
 23 24  1  0
 23 25  1  0
 16 26  1  0
 26 27  1  0
 27 28  2  3
 28 29  1  0
 29 30  1  0
 29 31  1  0
 29 32  1  0
 32 33  2  0
 33 34  1  0
 33 35  1  0
 35 36  1  0
 35 37  2  0
 37 38  1  0
 37 39  1  0
 39 40  1  0
 39 41  2  0
 41 42  1  0
 27 43  1  0
 43 44  2  0
  8  3  2  0
 44 10  1  0
 44 15  1  0
 23 18  1  0
 41 32  1  0
M  CHG  5   4  -1   7  -1   9  -1  13   1  26  -1
M  END
>  <UniqueID>  (24) 
23

>  <SMILES>  (24) 
O=c1[n-]c([O-])c(C=c2c[nH+]n3/c(=N\C4CC4)[n-]c(=NCc4ccc(F)cc4)nc23)[n-]1

>  <Energy>  (24) 
394.3719793315851

>  <Genealogy>  (24) 
O=c1[n-]c([O-])c(C=c2c[nH+]n3c(=NC4CC4)[n-]c(=NCc4ccc(F)cc4)nc23)[n-]1 (protonated)
O=c1[n-]c([O-])c(C=c2c[nH+]n3/c(=N\C4CC4)[n-]c(=NCc4ccc(F)cc4)nc23)[n-]1 (cis-trans isomerization)
O=c1[n-]c([O-])c(C=c2c[nH+]n3/c(=N\C4CC4)[n-]c(=NCc4ccc(F)cc4)nc23)[n-]1 (3D coordinates assigned)
O=c1[n-]c([O-])c(C=c2c[nH+]n3/c(=N\C4CC4)[n-]c(=NCc4ccc(F)cc4)nc23)[n-]1 (nonaromatic ring conformer: 394.3719793315851 kcal/mol)

>  <smiles>  (24) 
O=c1[nH]c(O)c(C=c2cnn3c(=NC4CC4)[nH]c(=NCc4ccc(F)cc4)nc23)[nH]1

>  <score_type>  (24) 
oracle

>  <origin>  (24) 
adg

>  <m_score__min__energy>  (24) 
-17.030000000000001

>  <m_primary>  (24) 
energy

$$$$
24:0
     RDKit          3D

 57 60  0  0  1  0  0  0  0  0999 V2000
   57.3860   33.7920   45.7660 C   0  0  0  0  0  0  0  0  0  0  0  0
   57.3860   32.7360   44.6700 C   0  0  0  0  0  0  0  0  0  0  0  0
   58.2320   31.6040   45.0740 C   0  0  0  0  0  0  0  0  0  0  0  0
   59.3560   31.9480   45.8400 N   0  0  0  0  0  0  0  0  0  0  0  0
   60.1740   30.9300   46.1280 C   0  0  0  0  0  0  0  0  0  0  0  0
   61.2440   31.3290   46.8060 N   0  0  0  0  0  0  0  0  0  0  0  0
   60.8000   32.2670   48.2040 S   0  0  0  0  0  0  0  0  0  0  0  0
   62.0980   32.2170   49.0520 O   0  0  0  0  0  0  0  0  0  0  0  0
   60.6400   33.7470   47.8620 O   0  0  0  0  0  0  0  0  0  0  0  0
   59.4360   31.6600   49.0690 C   0  0  0  0  0  0  0  0  0  0  0  0
   59.2360   30.3280   48.9570 C   0  0  0  0  0  0  0  0  0  0  0  0
   58.4990   29.6020   49.9110 C   0  0  0  0  0  0  0  0  0  0  0  0
   58.0290   30.3500   50.9420 C   0  0  0  0  0  0  0  0  0  0  0  0
   57.3500   29.7590   51.9700 O   0  0  0  0  0  0  0  0  0  0  0  0
   56.7250   29.2120   52.9190 C   0  0  0  0  0  0  0  0  0  0  0  0
   57.3830   28.4510   53.8710 C   0  0  0  0  0  0  0  0  0  0  0  0
   56.6670   27.8390   54.8300 C   0  0  0  0  0  0  0  0  0  0  0  0
   55.2900   27.9510   54.8740 C   0  0  0  0  0  0  0  0  0  0  0  0
   54.6110   28.6880   54.0080 C   0  0  0  0  0  0  0  0  0  0  0  0
   55.3650   29.3360   53.0080 C   0  0  0  0  0  0  0  0  0  0  0  0
   54.4600   30.5200   52.0250 Cl  0  0  0  0  0  0  0  0  0  0  0  0
   58.1990   31.8140   51.0510 C   0  0  0  0  0  0  0  0  0  0  0  0
   57.4980   32.2060   52.1090 O   0  0  0  0  0  0  0  0  0  0  0  0
   57.7820   32.3700   53.4480 C   0  0  0  0  0  0  0  0  0  0  0  0
   58.8770   32.4560   50.1560 C   0  0  0  0  0  0  0  0  0  0  0  0
   59.9970   29.6760   45.7460 N   0  0  0  0  0  0  0  0  0  0  0  0
   58.9000   29.2500   44.9990 C   0  0  0  0  0  0  0  0  0  0  0  0
   58.5490   27.9340   44.6850 C   0  0  0  0  0  0  0  0  0  0  0  0
   58.3700   27.4570   43.3690 C   0  0  0  0  0  0  0  0  0  0  0  0
   57.7760   26.1950   43.1570 C   0  0  0  0  0  0  0  0  0  0  0  0
   57.4090   25.5150   44.2920 C   0  0  0  0  0  0  0  0  0  0  0  0
   57.5450   25.8670   45.5770 C   0  0  0  0  0  0  0  0  0  0  0  0
   58.1400   27.1260   45.7500 C   0  0  0  0  0  0  0  0  0  0  0  0
   58.3310   27.5170   47.0630 O   0  0  0  0  0  0  0  0  0  0  0  0
   58.0340   30.3440   44.6810 C   0  0  0  0  0  0  0  0  0  0  0  0
   56.6180   29.9680   43.7460 Cl  0  0  0  0  0  0  0  0  0  0  0  0
   58.4231   34.0464   46.0300 H   0  0  0  0  0  0  0  0  0  0  0  0
   56.8675   34.6932   45.4069 H   0  0  0  0  0  0  0  0  0  0  0  0
   56.8675   33.3996   46.6532 H   0  0  0  0  0  0  0  0  0  0  0  0
   56.3578   32.3828   44.5024 H   0  0  0  0  0  0  0  0  0  0  0  0
   57.7816   33.1739   43.7417 H   0  0  0  0  0  0  0  0  0  0  0  0
   59.4950   32.9110   46.1730 H   0  0  0  0  0  0  0  0  0  0  0  0
   59.6622   29.7953   48.0941 H   0  0  0  0  0  0  0  0  0  0  0  0
   58.3189   28.5200   49.8284 H   0  0  0  0  0  0  0  0  0  0  0  0
   58.4779   28.3487   53.8426 H   0  0  0  0  0  0  0  0  0  0  0  0
   57.1855   27.2391   55.5924 H   0  0  0  0  0  0  0  0  0  0  0  0
   54.7385   27.4087   55.6561 H   0  0  0  0  0  0  0  0  0  0  0  0
   53.5172   28.7892   54.0658 H   0  0  0  0  0  0  0  0  0  0  0  0
   56.9852   31.9099   54.0509 H   0  0  0  0  0  0  0  0  0  0  0  0
   58.7428   31.8877   53.6808 H   0  0  0  0  0  0  0  0  0  0  0  0
   57.8446   33.4433   53.6808 H   0  0  0  0  0  0  0  0  0  0  0  0
   59.0243   33.5447   50.2116 H   0  0  0  0  0  0  0  0  0  0  0  0
   58.6923   28.0667   42.5120 H   0  0  0  0  0  0  0  0  0  0  0  0
   57.6174   25.7832   42.1494 H   0  0  0  0  0  0  0  0  0  0  0  0
   56.9336   24.5379   44.1207 H   0  0  0  0  0  0  0  0  0  0  0  0
   57.2219   25.2315   46.4147 H   0  0  0  0  0  0  0  0  0  0  0  0
   59.0110   28.3330   47.2250 H   0  0  0  0  0  0  0  0  0  0  0  0
  1  2  1  0
  2  3  1  0
  3  4  1  0
  4  5  1  0
  5  6  2  0
  6  7  1  0
  7  8  2  0
  7  9  2  0
  7 10  1  0
 10 11  2  0
 11 12  1  0
 12 13  2  0
 13 14  1  0
 14 15  1  0
 15 16  2  0
 16 17  1  0
 17 18  2  0
 18 19  1  0
 19 20  2  0
 20 21  1  0
 13 22  1  0
 22 23  1  0
 23 24  1  0
 22 25  2  0
  5 26  1  0
 26 27  2  0
 27 28  1  0
 28 29  2  0
 29 30  1  0
 30 31  2  0
 31 32  1  0
 32 33  2  0
 33 34  1  0
 27 35  1  0
 35 36  1  0
 35  3  2  0
 25 10  1  0
 33 28  1  0
 20 15  1  0
  1 37  1  0
  1 38  1  0
  1 39  1  0
  2 40  1  0
  2 41  1  0
  4 42  1  0
 11 43  1  0
 12 44  1  0
 16 45  1  0
 17 46  1  0
 18 47  1  0
 19 48  1  0
 24 49  1  0
 24 50  1  0
 24 51  1  0
 25 52  1  0
 29 53  1  0
 30 54  1  0
 31 55  1  0
 32 56  1  0
 34 57  1  0
M  END
>  <smiles>  (25) 
CCc1[nH]c(=NS(=O)(=O)c2ccc(Oc3ccccc3Cl)c(OC)c2)nc(-c2ccccc2O)c1Cl

>  <score_type>  (25) 
oracle

>  <origin>  (25) 
adg

>  <m_score__min__energy>  (25) 
-9.7799999999999994

>  <m_primary>  (25) 
energy

$$$$
25:0
     RDKit          3D

 43 44  0  0  0  0  0  0  0  0999 V2000
   63.6840   33.2860   46.7690 C   0  0  0  0  0  0  0  0  0  0  0  0
   62.8670   32.1050   47.2860 C   0  0  0  0  0  0  0  0  0  0  0  0
   61.7130   32.5800   48.1800 C   0  0  0  0  0  0  0  0  0  0  0  0
   61.4820   34.1010   48.1050 C   0  0  0  0  0  0  0  0  0  0  0  0
   60.0680   34.5770   48.5160 C   0  0  0  0  0  0  0  0  0  0  0  0
   59.1990   34.9720   47.3780 N   0  0  1  0  0  0  0  0  0  0  0  0
   60.0050   35.4700   46.2270 C   0  0  0  0  0  0  0  0  0  0  0  0
   59.2670   35.3240   44.8900 C   0  0  0  0  0  0  0  0  0  0  0  0
   58.9830   33.8450   44.5730 C   0  0  0  0  0  0  0  0  0  0  0  0
   58.8180   32.9930   45.8540 C   0  0  2  0  0  0  0  0  0  0  0  0
   57.9510   31.7720   45.6050 C   0  0  0  0  0  0  0  0  0  0  0  0
   58.1880   30.5610   46.2840 C   0  0  0  0  0  0  0  0  0  0  0  0
   57.3800   29.4450   46.0440 C   0  0  0  0  0  0  0  0  0  0  0  0
   56.3260   29.5250   45.1300 C   0  0  0  0  0  0  0  0  0  0  0  0
   55.5240   28.4160   44.8940 O   0  0  0  0  0  0  0  0  0  0  0  0
   56.0800   30.7220   44.4530 C   0  0  0  0  0  0  0  0  0  0  0  0
   56.8850   31.8400   44.6890 C   0  0  0  0  0  0  0  0  0  0  0  0
   58.2760   33.8530   47.0170 C   0  0  0  0  0  0  0  0  0  0  0  0
   64.0801   33.8586   47.6206 H   0  0  0  0  0  0  0  0  0  0  0  0
   64.5190   32.9143   46.1569 H   0  0  0  0  0  0  0  0  0  0  0  0
   63.0417   33.9362   46.1569 H   0  0  0  0  0  0  0  0  0  0  0  0
   62.4538   31.5518   46.4297 H   0  0  0  0  0  0  0  0  0  0  0  0
   63.5272   31.4580   47.8823 H   0  0  0  0  0  0  0  0  0  0  0  0
   60.7914   32.0693   47.8641 H   0  0  0  0  0  0  0  0  0  0  0  0
   61.9802   32.3381   49.2193 H   0  0  0  0  0  0  0  0  0  0  0  0
   62.2109   34.5884   48.7692 H   0  0  0  0  0  0  0  0  0  0  0  0
   61.5986   34.3742   47.0459 H   0  0  0  0  0  0  0  0  0  0  0  0
   59.5733   33.7579   49.0585 H   0  0  0  0  0  0  0  0  0  0  0  0
   60.2066   35.4773   49.1326 H   0  0  0  0  0  0  0  0  0  0  0  0
   58.5860   35.7570   47.7020 H   0  0  0  0  0  0  0  0  0  0  0  0
   60.2340   36.5335   46.3899 H   0  0  0  0  0  0  0  0  0  0  0  0
   60.9216   34.8643   46.1722 H   0  0  0  0  0  0  0  0  0  0  0  0
   58.3133   35.8694   44.9446 H   0  0  0  0  0  0  0  0  0  0  0  0
   59.9029   35.7365   44.0928 H   0  0  0  0  0  0  0  0  0  0  0  0
   58.0566   33.7808   43.9833 H   0  0  0  0  0  0  0  0  0  0  0  0
   59.8429   33.4489   44.0129 H   0  0  0  0  0  0  0  0  0  0  0  0
   59.8122   32.6234   46.1454 H   0  0  0  0  0  0  0  0  0  0  0  0
   59.0137   30.4926   47.0075 H   0  0  0  0  0  0  0  0  0  0  0  0
   57.5746   28.5021   46.5760 H   0  0  0  0  0  0  0  0  0  0  0  0
   55.2510   30.7848   43.7327 H   0  0  0  0  0  0  0  0  0  0  0  0
   56.6837   32.7802   44.1546 H   0  0  0  0  0  0  0  0  0  0  0  0
   57.3058   34.2776   46.7198 H   0  0  0  0  0  0  0  0  0  0  0  0
   58.1787   33.2017   47.8981 H   0  0  0  0  0  0  0  0  0  0  0  0
  1  2  1  0
  2  3  1  0
  3  4  1  0
  4  5  1  0
  5  6  1  0
  6  7  1  0
  7  8  1  0
  8  9  1  0
  9 10  1  0
 10 11  1  0
 11 12  2  0
 12 13  1  0
 13 14  2  0
 14 15  1  0
 14 16  1  0
 16 17  2  0
 10 18  1  0
 18  6  1  0
 17 11  1  0
  1 19  1  0
  1 20  1  0
  1 21  1  0
  2 22  1  0
  2 23  1  0
  3 24  1  0
  3 25  1  0
  4 26  1  0
  4 27  1  0
  5 28  1  0
  5 29  1  0
  6 30  1  1
  7 31  1  0
  7 32  1  0
  8 33  1  0
  8 34  1  0
  9 35  1  0
  9 36  1  0
 10 37  1  1
 12 38  1  0
 13 39  1  0
 16 40  1  0
 17 41  1  0
 18 42  1  0
 18 43  1  0
M  CHG  2   6   1  15  -1
M  END
>  <UniqueID>  (26) 
24

>  <SMILES>  (26) 
CCCCC[N@H+]1CCC[C@H](c2ccc([O-])cc2)C1

>  <Energy>  (26) 
45.879663362083136

>  <Genealogy>  (26) 
CCCCC[NH+]1CCCC(c2ccc([O-])cc2)C1 (protonated)
CCCCC[N@H+]1CCC[C@H](c2ccc([O-])cc2)C1 (chirality)
CCCCC[N@H+]1CCC[C@H](c2ccc([O-])cc2)C1 (3D coordinates assigned)
CCCCC[N@H+]1CCC[C@H](c2ccc([O-])cc2)C1 (nonaromatic ring conformer: 45.879663362083136 kcal/mol)

>  <smiles>  (26) 
CCCCCN1CCCC(c2ccc(O)cc2)C1

>  <score_type>  (26) 
oracle

>  <origin>  (26) 
adg

>  <m_score__min__energy>  (26) 
-8.0299999999999994

>  <m_primary>  (26) 
energy

$$$$
26:0
     RDKit          3D

 71 75  0  0  0  0  0  0  0  0999 V2000
   57.7180   31.5870   53.4620 C   0  0  0  0  0  0  0  0  0  0  0  0
   58.2930   32.1010   52.1760 C   0  0  0  0  0  0  0  0  0  0  0  0
   58.0110   31.4540   50.9630 C   0  0  0  0  0  0  0  0  0  0  0  0
   58.5100   31.9600   49.7600 C   0  0  0  0  0  0  0  0  0  0  0  0
   59.2900   33.1250   49.7560 C   0  0  0  0  0  0  0  0  0  0  0  0
   59.8740   33.8140   48.2470 S   0  0  0  0  0  0  0  0  0  0  0  0
   60.8240   34.9480   48.5120 O   0  0  0  0  0  0  0  0  0  0  0  0
   58.7060   34.3450   47.4640 O   0  0  0  0  0  0  0  0  0  0  0  0
   60.6900   32.5810   47.3380 N   0  0  0  0  0  0  0  0  0  0  0  0
   62.1020   32.7360   46.9800 C   0  0  0  0  0  0  0  0  0  0  0  0
   62.9770   32.5090   48.1830 C   0  0  0  0  0  0  0  0  0  0  0  0
   64.1580   33.2510   48.3490 C   0  0  0  0  0  0  0  0  0  0  0  0
   64.9380   33.0890   49.4970 C   0  0  0  0  0  0  0  0  0  0  0  0
   64.5460   32.1840   50.4870 C   0  0  0  0  0  0  0  0  0  0  0  0
   63.3730   31.4400   50.3290 C   0  0  0  0  0  0  0  0  0  0  0  0
   62.5890   31.6030   49.1830 C   0  0  0  0  0  0  0  0  0  0  0  0
   59.9490   31.4420   46.8860 C   0  0  0  0  0  0  0  0  0  0  0  0
   58.8080   31.6170   46.0950 C   0  0  0  0  0  0  0  0  0  0  0  0
   58.0680   30.5080   45.6730 C   0  0  0  0  0  0  0  0  0  0  0  0
   58.4590   29.2080   46.0420 C   0  0  0  0  0  0  0  0  0  0  0  0
   57.6820   28.0250   45.6030 C   0  0  0  0  0  0  0  0  0  0  0  0
   56.6400   28.1890   44.9120 O   0  0  0  0  0  0  0  0  0  0  0  0
   58.1320   26.6950   45.9100 N   0  0  0  0  0  0  0  0  0  0  0  0
   57.2910   25.5360   45.7990 C   0  0  0  0  0  0  0  0  0  0  0  0
   57.7050   24.2170   45.6880 C   0  0  0  0  0  0  0  0  0  0  0  0
   59.1240   23.7360   45.6130 C   0  0  0  0  0  0  0  0  0  0  0  0
   56.6100   23.4180   45.7220 N   0  0  0  0  0  0  0  0  0  0  0  0
   56.6160   21.9530   45.6700 C   0  0  0  0  0  0  0  0  0  0  0  0
   55.5230   24.1820   45.8240 N   0  0  0  0  0  0  0  0  0  0  0  0
   54.1620   23.7140   45.8550 C   0  0  0  0  0  0  0  0  0  0  0  0
   53.2510   24.1130   44.8630 C   0  0  0  0  0  0  0  0  0  0  0  0
   51.9280   23.6650   44.9000 C   0  0  0  0  0  0  0  0  0  0  0  0
   51.5030   22.8200   45.9290 C   0  0  0  0  0  0  0  0  0  0  0  0
   52.4010   22.4250   46.9250 C   0  0  0  0  0  0  0  0  0  0  0  0
   53.7250   22.8730   46.8910 C   0  0  0  0  0  0  0  0  0  0  0  0
   55.9150   25.4700   45.8940 C   0  0  0  0  0  0  0  0  0  0  0  0
   55.1330   26.4470   46.0450 O   0  0  0  0  0  0  0  0  0  0  0  0
   59.6140   29.0420   46.8280 C   0  0  0  0  0  0  0  0  0  0  0  0
   60.3480   30.1520   47.2530 C   0  0  0  0  0  0  0  0  0  0  0  0
   59.5610   33.7800   50.9630 C   0  0  0  0  0  0  0  0  0  0  0  0
   59.0590   33.2760   52.1660 C   0  0  0  0  0  0  0  0  0  0  0  0
   58.2405   32.0541   54.3098 H   0  0  0  0  0  0  0  0  0  0  0  0
   56.6473   31.8345   53.5098 H   0  0  0  0  0  0  0  0  0  0  0  0
   57.8444   30.4953   53.5098 H   0  0  0  0  0  0  0  0  0  0  0  0
   57.3937   30.5435   50.9593 H   0  0  0  0  0  0  0  0  0  0  0  0
   58.2904   31.4432   48.8141 H   0  0  0  0  0  0  0  0  0  0  0  0
   62.3606   32.0041   46.2006 H   0  0  0  0  0  0  0  0  0  0  0  0
   62.2653   33.7583   46.6082 H   0  0  0  0  0  0  0  0  0  0  0  0
   64.4705   33.9633   47.5712 H   0  0  0  0  0  0  0  0  0  0  0  0
   65.8611   33.6742   49.6215 H   0  0  0  0  0  0  0  0  0  0  0  0
   65.1604   32.0570   51.3906 H   0  0  0  0  0  0  0  0  0  0  0  0
   63.0666   30.7255   51.1072 H   0  0  0  0  0  0  0  0  0  0  0  0
   61.6644   31.0191   49.0643 H   0  0  0  0  0  0  0  0  0  0  0  0
   58.4923   32.6298   45.8043 H   0  0  0  0  0  0  0  0  0  0  0  0
   57.1743   30.6531   45.0484 H   0  0  0  0  0  0  0  0  0  0  0  0
   59.1470   26.5470   46.0980 H   0  0  0  0  0  0  0  0  0  0  0  0
   59.5199   23.6018   46.6305 H   0  0  0  0  0  0  0  0  0  0  0  0
   59.1579   22.7762   45.0768 H   0  0  0  0  0  0  0  0  0  0  0  0
   59.7346   24.4774   45.0768 H   0  0  0  0  0  0  0  0  0  0  0  0
   56.6177   21.5498   46.6934 H   0  0  0  0  0  0  0  0  0  0  0  0
   55.7193   21.6013   45.1388 H   0  0  0  0  0  0  0  0  0  0  0  0
   57.5156   21.6086   45.1388 H   0  0  0  0  0  0  0  0  0  0  0  0
   53.5805   24.7810   44.0536 H   0  0  0  0  0  0  0  0  0  0  0  0
   51.2201   23.9777   44.1183 H   0  0  0  0  0  0  0  0  0  0  0  0
   50.4619   22.4658   45.9552 H   0  0  0  0  0  0  0  0  0  0  0  0
   52.0658   21.7615   47.7358 H   0  0  0  0  0  0  0  0  0  0  0  0
   54.4275   22.5652   47.6795 H   0  0  0  0  0  0  0  0  0  0  0  0
   59.9416   28.0305   47.1100 H   0  0  0  0  0  0  0  0  0  0  0  0
   61.2422   30.0115   47.8780 H   0  0  0  0  0  0  0  0  0  0  0  0
   60.1715   34.6950   50.9647 H   0  0  0  0  0  0  0  0  0  0  0  0
   59.2655   33.8031   53.1092 H   0  0  0  0  0  0  0  0  0  0  0  0
  1  2  1  0
  2  3  2  0
  3  4  1  0
  4  5  2  0
  5  6  1  0
  6  7  2  0
  6  8  2  0
  6  9  1  0
  9 10  1  0
 10 11  1  0
 11 12  2  0
 12 13  1  0
 13 14  2  0
 14 15  1  0
 15 16  2  0
  9 17  1  0
 17 18  2  0
 18 19  1  0
 19 20  2  0
 20 21  1  0
 21 22  2  0
 21 23  1  0
 23 24  1  0
 24 25  2  0
 25 26  1  0
 25 27  1  0
 27 28  1  0
 27 29  1  0
 29 30  1  0
 30 31  2  0
 31 32  1  0
 32 33  2  0
 33 34  1  0
 34 35  2  0
 29 36  1  0
 36 37  2  0
 20 38  1  0
 38 39  2  0
  5 40  1  0
 40 41  2  0
 41  2  1  0
 16 11  1  0
 39 17  1  0
 36 24  1  0
 35 30  1  0
  1 42  1  0
  1 43  1  0
  1 44  1  0
  3 45  1  0
  4 46  1  0
 10 47  1  0
 10 48  1  0
 12 49  1  0
 13 50  1  0
 14 51  1  0
 15 52  1  0
 16 53  1  0
 18 54  1  0
 19 55  1  0
 23 56  1  0
 26 57  1  0
 26 58  1  0
 26 59  1  0
 28 60  1  0
 28 61  1  0
 28 62  1  0
 31 63  1  0
 32 64  1  0
 33 65  1  0
 34 66  1  0
 35 67  1  0
 38 68  1  0
 39 69  1  0
 40 70  1  0
 41 71  1  0
M  END
>  <UniqueID>  (27) 
25

>  <SMILES>  (27) 
Cc1ccc(S(=O)(=O)N(Cc2ccccc2)c2ccc(C(=O)Nc3c(C)n(C)n(-c4ccccc4)c3=O)cc2)cc1

>  <Energy>  (27) 
125.59269843925783

>  <Genealogy>  (27) 
Cc1ccc(S(=O)(=O)N(Cc2ccccc2)c2ccc(C(=O)Nc3c(C)n(C)n(-c4ccccc4)c3=O)cc2)cc1 (3D coordinates assigned)
Cc1ccc(S(=O)(=O)N(Cc2ccccc2)c2ccc(C(=O)Nc3c(C)n(C)n(-c4ccccc4)c3=O)cc2)cc1 (optimized conformer: 125.59269843925783 kcal/mol)

>  <smiles>  (27) 
Cc1ccc(S(=O)(=O)N(Cc2ccccc2)c2ccc(C(=O)Nc3c(C)n(C)n(-c4ccccc4)c3=O)cc2)cc1

>  <score_type>  (27) 
oracle

>  <origin>  (27) 
adg

>  <m_score__min__energy>  (27) 
-9.8800000000000008

>  <m_primary>  (27) 
energy

$$$$
27:0
     RDKit          3D

 62 65  0  0  0  0  0  0  0  0999 V2000
   62.0510   34.5340   49.2980 C   0  0  0  0  0  0  0  0  0  0  0  0
   61.7540   33.8950   48.0610 O   0  0  0  0  0  0  0  0  0  0  0  0
   60.4940   33.9070   47.4400 C   0  0  0  0  0  0  0  0  0  0  0  0
   60.1960   34.7880   46.3800 C   0  0  0  0  0  0  0  0  0  0  0  0
   58.9280   34.7860   45.7950 C   0  0  0  0  0  0  0  0  0  0  0  0
   57.9430   33.9120   46.2580 C   0  0  0  0  0  0  0  0  0  0  0  0
   58.2260   33.0330   47.3050 C   0  0  0  0  0  0  0  0  0  0  0  0
   59.4990   33.0230   47.9010 C   0  0  0  0  0  0  0  0  0  0  0  0
   59.7710   32.1090   48.9790 N   0  0  0  0  0  0  0  0  0  0  0  0
   61.1360   31.6070   49.1850 C   0  0  0  0  0  0  0  0  0  0  0  0
   61.1950   30.6730   50.4060 C   0  0  0  0  0  0  0  0  0  0  0  0
   60.1870   29.5820   50.3510 N   0  0  0  0  0  0  0  0  0  0  0  0
   60.7510   28.3580   49.7380 C   0  0  0  0  0  0  0  0  0  0  0  0
   60.0620   27.9760   48.4150 C   0  0  0  0  0  0  0  0  0  0  0  0
   60.5480   26.6540   47.8010 C   0  0  0  0  0  0  0  0  0  0  0  0
   60.2610   26.5410   45.9940 S   0  0  0  0  0  0  0  0  0  0  0  0
   59.3750   28.1020   45.8160 C   0  0  0  0  0  0  0  0  0  0  0  0
   60.0920   29.3050   45.8650 C   0  0  0  0  0  0  0  0  0  0  0  0
   59.4320   30.5270   45.7220 C   0  0  0  0  0  0  0  0  0  0  0  0
   58.0550   30.5570   45.5050 C   0  0  0  0  0  0  0  0  0  0  0  0
   57.3380   29.3630   45.4030 C   0  0  0  0  0  0  0  0  0  0  0  0
   57.9930   28.1240   45.5280 C   0  0  0  0  0  0  0  0  0  0  0  0
   57.2640   26.8970   45.3480 N   0  0  0  0  0  0  0  0  0  0  0  0
   57.1380   25.9050   46.3830 C   0  0  0  0  0  0  0  0  0  0  0  0
   57.8670   25.9650   47.4120 O   0  0  0  0  0  0  0  0  0  0  0  0
   56.1520   24.8000   46.2590 C   0  0  0  0  0  0  0  0  0  0  0  0
   54.8150   25.0400   45.8820 C   0  0  0  0  0  0  0  0  0  0  0  0
   54.3590   26.3310   45.6390 O   0  0  0  0  0  0  0  0  0  0  0  0
   53.9400   24.0060   45.7780 N   0  0  0  0  0  0  0  0  0  0  0  0
   54.3220   22.7330   46.0460 C   0  0  0  0  0  0  0  0  0  0  0  0
   53.4940   21.7920   45.9360 O   0  0  0  0  0  0  0  0  0  0  0  0
   55.5970   22.4730   46.4350 N   0  0  0  0  0  0  0  0  0  0  0  0
   56.5140   23.4690   46.5510 C   0  0  0  0  0  0  0  0  0  0  0  0
   57.6900   23.1820   46.9070 O   0  0  0  0  0  0  0  0  0  0  0  0
   58.8860   29.9720   49.7350 C   0  0  0  0  0  0  0  0  0  0  0  0
   58.6680   31.4870   49.7180 C   0  0  0  0  0  0  0  0  0  0  0  0
   61.7477   33.8814   50.1299 H   0  0  0  0  0  0  0  0  0  0  0  0
   63.1319   34.7286   49.3599 H   0  0  0  0  0  0  0  0  0  0  0  0
   61.5029   35.4857   49.3599 H   0  0  0  0  0  0  0  0  0  0  0  0
   60.9669   35.4809   46.0118 H   0  0  0  0  0  0  0  0  0  0  0  0
   58.7048   35.4750   44.9671 H   0  0  0  0  0  0  0  0  0  0  0  0
   56.9438   33.9159   45.7979 H   0  0  0  0  0  0  0  0  0  0  0  0
   57.4481   32.3440   47.6658 H   0  0  0  0  0  0  0  0  0  0  0  0
   61.4552   31.0521   48.2905 H   0  0  0  0  0  0  0  0  0  0  0  0
   61.8038   32.4628   49.3626 H   0  0  0  0  0  0  0  0  0  0  0  0
   62.1972   30.2223   50.4546 H   0  0  0  0  0  0  0  0  0  0  0  0
   60.9747   31.2804   51.2962 H   0  0  0  0  0  0  0  0  0  0  0  0
   61.8202   28.5252   49.5410 H   0  0  0  0  0  0  0  0  0  0  0  0
   60.5884   27.5309   50.4447 H   0  0  0  0  0  0  0  0  0  0  0  0
   58.9815   27.8907   48.6027 H   0  0  0  0  0  0  0  0  0  0  0  0
   60.3125   28.7668   47.6926 H   0  0  0  0  0  0  0  0  0  0  0  0
   61.6276   26.5583   47.9892 H   0  0  0  0  0  0  0  0  0  0  0  0
   59.9703   25.8454   48.2726 H   0  0  0  0  0  0  0  0  0  0  0  0
   61.1813   29.2864   46.0170 H   0  0  0  0  0  0  0  0  0  0  0  0
   59.9993   31.4676   45.7806 H   0  0  0  0  0  0  0  0  0  0  0  0
   57.5334   31.5212   45.4142 H   0  0  0  0  0  0  0  0  0  0  0  0
   56.2531   29.3913   45.2236 H   0  0  0  0  0  0  0  0  0  0  0  0
   56.6930   26.7820   44.4820 H   0  0  0  0  0  0  0  0  0  0  0  0
   58.8626   29.6020   48.6994 H   0  0  0  0  0  0  0  0  0  0  0  0
   58.0849   29.5290   50.3449 H   0  0  0  0  0  0  0  0  0  0  0  0
   57.7132   31.7187   49.2234 H   0  0  0  0  0  0  0  0  0  0  0  0
   58.6389   31.8745   50.7471 H   0  0  0  0  0  0  0  0  0  0  0  0
  1  2  1  0
  2  3  1  0
  3  4  2  0
  4  5  1  0
  5  6  2  0
  6  7  1  0
  7  8  2  0
  8  9  1  0
  9 10  1  0
 10 11  1  0
 11 12  1  0
 12 13  1  0
 13 14  1  0
 14 15  1  0
 15 16  1  0
 16 17  1  0
 17 18  2  0
 18 19  1  0
 19 20  2  0
 20 21  1  0
 21 22  2  0
 22 23  1  0
 23 24  1  0
 24 25  2  0
 24 26  1  0
 26 27  2  0
 27 28  1  0
 27 29  1  0
 29 30  1  0
 30 31  2  0
 30 32  1  0
 32 33  1  0
 33 34  2  0
 12 35  1  0
 35 36  1  0
  8  3  1  0
 36  9  1  0
 22 17  1  0
 33 26  1  0
  1 37  1  0
  1 38  1  0
  1 39  1  0
  4 40  1  0
  5 41  1  0
  6 42  1  0
  7 43  1  0
 10 44  1  0
 10 45  1  0
 11 46  1  0
 11 47  1  0
 13 48  1  0
 13 49  1  0
 14 50  1  0
 14 51  1  0
 15 52  1  0
 15 53  1  0
 18 54  1  0
 19 55  1  0
 20 56  1  0
 21 57  1  0
 23 58  1  0
 35 59  1  0
 35 60  1  0
 36 61  1  0
 36 62  1  0
M  CHG  3  28  -1  29  -1  32  -1
M  END
>  <UniqueID>  (28) 
26

>  <SMILES>  (28) 
COc1ccccc1N1CCN(CCCSc2ccccc2NC(=O)c2c([O-])[n-]c(=O)[n-]c2=O)CC1

>  <Energy>  (28) 
85.73737760043323

>  <Genealogy>  (28) 
COc1ccccc1N1CCN(CCCSc2ccccc2NC(=O)c2c([O-])[n-]c(=O)[n-]c2=O)CC1 (protonated)
COc1ccccc1N1CCN(CCCSc2ccccc2NC(=O)c2c([O-])[n-]c(=O)[n-]c2=O)CC1 (3D coordinates assigned)
COc1ccccc1N1CCN(CCCSc2ccccc2NC(=O)c2c([O-])[n-]c(=O)[n-]c2=O)CC1 (nonaromatic ring conformer: 85.73737760043323 kcal/mol)

>  <smiles>  (28) 
COc1ccccc1N1CCN(CCCSc2ccccc2NC(=O)c2c(O)[nH]c(=O)[nH]c2=O)CC1

>  <score_type>  (28) 
oracle

>  <origin>  (28) 
adg

>  <m_score__min__energy>  (28) 
-17.300000000000001

>  <m_primary>  (28) 
energy

$$$$
28:0
     RDKit          3D

 46 50  0  0  0  0  0  0  0  0999 V2000
   57.7680   25.7560   43.7950 C   0  0  0  0  0  0  0  0  0  0  0  0
   58.8080   26.2750   44.6180 O   0  0  0  0  0  0  0  0  0  0  0  0
   58.8270   27.5740   45.1460 C   0  0  0  0  0  0  0  0  0  0  0  0
   57.9270   27.8880   46.1700 C   0  0  0  0  0  0  0  0  0  0  0  0
   57.9060   29.1690   46.7290 C   0  0  0  0  0  0  0  0  0  0  0  0
   58.7910   30.1590   46.2700 C   0  0  0  0  0  0  0  0  0  0  0  0
   58.7750   31.5480   46.8640 C   0  0  1  0  0  0  0  0  0  0  0  0
   60.1420   31.9650   47.3490 C   0  0  0  0  0  0  0  0  0  0  0  0
   60.5600   33.1030   46.7030 C   0  0  0  0  0  0  0  0  0  0  0  0
   61.7220   33.6880   46.9540 O   0  0  0  0  0  0  0  0  0  0  0  0
   62.5500   33.1820   47.8700 C   0  0  0  0  0  0  0  0  0  0  0  0
   63.7740   33.8110   48.1200 C   0  0  0  0  0  0  0  0  0  0  0  0
   64.6490   33.2900   49.0790 C   0  0  0  0  0  0  0  0  0  0  0  0
   64.3070   32.1390   49.7940 C   0  0  0  0  0  0  0  0  0  0  0  0
   63.0870   31.4970   49.5590 C   0  0  0  0  0  0  0  0  0  0  0  0
   62.1960   32.0060   48.5980 C   0  0  0  0  0  0  0  0  0  0  0  0
   60.9540   31.3900   48.3260 C   0  0  0  0  0  0  0  0  0  0  0  0
   60.5800   30.3540   48.9410 O   0  0  0  0  0  0  0  0  0  0  0  0
   59.5330   33.4910   45.7760 C   0  0  0  0  0  0  0  0  0  0  0  0
   59.5550   34.5090   45.0350 O   0  0  0  0  0  0  0  0  0  0  0  0
   58.4610   32.5540   45.8350 N   0  0  0  0  0  0  0  0  0  0  0  0
   57.1390   32.7560   45.2470 C   0  0  0  0  0  0  0  0  0  0  0  0
   56.7640   31.5720   44.4160 C   0  0  0  0  0  0  0  0  0  0  0  0
   57.2540   31.2800   43.1600 C   0  0  0  0  0  0  0  0  0  0  0  0
   56.6650   30.0870   42.8020 C   0  0  0  0  0  0  0  0  0  0  0  0
   55.8580   29.7250   43.8620 C   0  0  0  0  0  0  0  0  0  0  0  0
   55.9400   30.6290   44.8110 O   0  0  0  0  0  0  0  0  0  0  0  0
   59.6930   29.8450   45.2410 C   0  0  0  0  0  0  0  0  0  0  0  0
   59.7130   28.5640   44.6830 C   0  0  0  0  0  0  0  0  0  0  0  0
   56.9640   25.3548   44.4295 H   0  0  0  0  0  0  0  0  0  0  0  0
   57.3673   26.5598   43.1599 H   0  0  0  0  0  0  0  0  0  0  0  0
   58.1694   24.9525   43.1599 H   0  0  0  0  0  0  0  0  0  0  0  0
   57.2302   27.1206   46.5382 H   0  0  0  0  0  0  0  0  0  0  0  0
   57.1926   29.4033   47.5328 H   0  0  0  0  0  0  0  0  0  0  0  0
   58.0340   31.5060   47.6759 H   0  0  0  0  0  0  0  0  0  0  0  0
   64.0492   34.7176   47.5611 H   0  0  0  0  0  0  0  0  0  0  0  0
   65.6105   33.7885   49.2712 H   0  0  0  0  0  0  0  0  0  0  0  0
   65.0013   31.7357   50.5459 H   0  0  0  0  0  0  0  0  0  0  0  0
   62.8241   30.5924   50.1269 H   0  0  0  0  0  0  0  0  0  0  0  0
   56.3989   32.8866   46.0503 H   0  0  0  0  0  0  0  0  0  0  0  0
   57.1598   33.6527   44.6101 H   0  0  0  0  0  0  0  0  0  0  0  0
   57.9656   31.8748   42.5685 H   0  0  0  0  0  0  0  0  0  0  0  0
   56.8087   29.5346   41.8617 H   0  0  0  0  0  0  0  0  0  0  0  0
   55.2396   28.8163   43.9052 H   0  0  0  0  0  0  0  0  0  0  0  0
   60.3888   30.6127   44.8715 H   0  0  0  0  0  0  0  0  0  0  0  0
   60.4248   28.3286   43.8780 H   0  0  0  0  0  0  0  0  0  0  0  0
  1  2  1  0
  2  3  1  0
  3  4  2  0
  4  5  1  0
  5  6  2  0
  6  7  1  0
  7  8  1  0
  8  9  2  0
  9 10  1  0
 10 11  1  0
 11 12  2  0
 12 13  1  0
 13 14  2  0
 14 15  1  0
 15 16  2  0
 16 17  1  0
 17 18  2  0
  9 19  1  0
 19 20  2  0
 19 21  1  0
 21 22  1  0
 22 23  1  0
 23 24  2  0
 24 25  1  0
 25 26  2  0
 26 27  1  0
  6 28  1  0
 28 29  2  0
 29  3  1  0
 21  7  1  0
 27 23  1  0
 17  8  1  0
 16 11  1  0
  1 30  1  0
  1 31  1  0
  1 32  1  0
  4 33  1  0
  5 34  1  0
  7 35  1  1
 12 36  1  0
 13 37  1  0
 14 38  1  0
 15 39  1  0
 22 40  1  0
 22 41  1  0
 24 42  1  0
 25 43  1  0
 26 44  1  0
 28 45  1  0
 29 46  1  0
M  END
>  <UniqueID>  (29) 
27

>  <SMILES>  (29) 
COc1ccc([C@H]2c3c(oc4ccccc4c3=O)C(=O)N2Cc2ccco2)cc1

>  <Energy>  (29) 
101.75143613901545

>  <Genealogy>  (29) 
COc1ccc([C@H]2c3c(oc4ccccc4c3=O)C(=O)N2Cc2ccco2)cc1 (chirality)
COc1ccc([C@H]2c3c(oc4ccccc4c3=O)C(=O)N2Cc2ccco2)cc1 (3D coordinates assigned)
COc1ccc([C@H]2c3c(oc4ccccc4c3=O)C(=O)N2Cc2ccco2)cc1 (nonaromatic ring conformer: 101.75143613901545 kcal/mol)

>  <smiles>  (29) 
COc1ccc(C2c3c(oc4ccccc4c3=O)C(=O)N2Cc2ccco2)cc1

>  <score_type>  (29) 
oracle

>  <origin>  (29) 
adg

>  <m_score__min__energy>  (29) 
-7.9800000000000004

>  <m_primary>  (29) 
energy

$$$$
29:0
     RDKit          3D

 27 27  0  0  0  0  0  0  0  0999 V2000
   56.0270   24.0000   45.1480 C   0  0  0  0  0  0  0  0  0  0  0  0
   56.3510   25.6370   45.7730 S   0  0  0  0  0  0  0  0  0  0  0  0
   57.0890   25.5190   47.0770 O   0  0  0  0  0  0  0  0  0  0  0  0
   55.0490   26.3490   46.0120 O   0  0  0  0  0  0  0  0  0  0  0  0
   57.3250   26.5450   44.6560 N   0  0  0  0  0  0  0  0  0  0  0  0
   58.6320   26.8320   45.2480 C   0  0  0  0  0  0  0  0  0  0  0  0
   58.5680   28.1230   45.9960 C   0  0  0  0  0  0  0  0  0  0  0  0
   57.9870   28.1700   47.1160 O   0  0  0  0  0  0  0  0  0  0  0  0
   59.0980   29.2810   45.4160 O   0  0  0  0  0  0  0  0  0  0  0  0
   58.4490   30.5200   45.4430 C   0  0  0  0  0  0  0  0  0  0  0  0
   59.0880   31.5940   46.0690 C   0  0  0  0  0  0  0  0  0  0  0  0
   58.5080   32.8620   46.0540 C   0  0  0  0  0  0  0  0  0  0  0  0
   57.2800   33.0430   45.4200 C   0  0  0  0  0  0  0  0  0  0  0  0
   56.6470   31.9840   44.8490 N   0  0  0  0  0  0  0  0  0  0  0  0
   57.1790   30.7280   44.8550 C   0  0  0  0  0  0  0  0  0  0  0  0
   56.4130   29.6460   44.3070 N   0  0  0  0  0  0  0  0  0  0  0  0
   55.5190   29.1110   44.9960 O   0  0  0  0  0  0  0  0  0  0  0  0
   56.7900   29.0450   43.1280 O   0  0  0  0  0  0  0  0  0  0  0  0
   55.8897   23.3063   45.9906 H   0  0  0  0  0  0  0  0  0  0  0  0
   55.1146   24.0160   44.5338 H   0  0  0  0  0  0  0  0  0  0  0  0
   56.8767   23.6672   44.5338 H   0  0  0  0  0  0  0  0  0  0  0  0
   56.8320   27.4550   44.4940 H   0  0  0  0  0  0  0  0  0  0  0  0
   58.9074   26.0215   45.9388 H   0  0  0  0  0  0  0  0  0  0  0  0
   59.3865   26.9074   44.4511 H   0  0  0  0  0  0  0  0  0  0  0  0
   60.0520   31.4384   46.5754 H   0  0  0  0  0  0  0  0  0  0  0  0
   59.0143   33.7105   46.5374 H   0  0  0  0  0  0  0  0  0  0  0  0
   56.8230   34.0428   45.3816 H   0  0  0  0  0  0  0  0  0  0  0  0
  1  2  1  0
  2  3  2  0
  2  4  2  0
  2  5  1  0
  5  6  1  0
  6  7  1  0
  7  8  2  0
  7  9  1  0
  9 10  1  0
 10 11  2  0
 11 12  1  0
 12 13  2  0
 13 14  1  0
 14 15  2  0
 15 16  1  0
 16 17  2  0
 16 18  1  0
 15 10  1  0
  1 19  1  0
  1 20  1  0
  1 21  1  0
  5 22  1  0
  6 23  1  0
  6 24  1  0
 11 25  1  0
 12 26  1  0
 13 27  1  0
M  CHG  2  16   1  18  -1
M  END
>  <UniqueID>  (30) 
28

>  <SMILES>  (30) 
CS(=O)(=O)NCC(=O)Oc1cccnc1[N+](=O)[O-]

>  <Energy>  (30) 
27.150027092876673

>  <Genealogy>  (30) 
CS(=O)(=O)NCC(=O)Oc1cccnc1[N+](=O)[O-] (3D coordinates assigned)
CS(=O)(=O)NCC(=O)Oc1cccnc1[N+](=O)[O-] (optimized conformer: 27.150027092876673 kcal/mol)

>  <smiles>  (30) 
CS(=O)(=O)NCC(=O)Oc1cccnc1[N+](=O)[O-]

>  <score_type>  (30) 
oracle

>  <origin>  (30) 
adg

>  <m_score__min__energy>  (30) 
-6.7300000000000004

>  <m_primary>  (30) 
energy

$$$$
30:0
     RDKit          3D

 57 60  0  0  0  0  0  0  0  0999 V2000
   57.7470   33.3940   47.7100 O   0  0  0  0  0  0  0  0  0  0  0  0
   58.5140   33.6060   46.7320 C   0  0  0  0  0  0  0  0  0  0  0  0
   59.6100   34.5150   46.9030 N   0  0  0  0  0  0  0  0  0  0  0  0
   60.9040   34.1830   47.4280 C   0  0  0  0  0  0  0  0  0  0  0  0
   61.9570   33.7730   46.5910 C   0  0  0  0  0  0  0  0  0  0  0  0
   63.2240   33.5230   47.1270 C   0  0  0  0  0  0  0  0  0  0  0  0
   63.4530   33.6780   48.5050 C   0  0  0  0  0  0  0  0  0  0  0  0
   64.7190   33.4760   49.0720 O   0  0  0  0  0  0  0  0  0  0  0  0
   65.0600   32.4340   49.9500 C   0  0  0  0  0  0  0  0  0  0  0  0
   64.0960   31.5460   50.4680 C   0  0  0  0  0  0  0  0  0  0  0  0
   64.4820   30.5090   51.3210 C   0  0  0  0  0  0  0  0  0  0  0  0
   65.8280   30.3370   51.6510 C   0  0  0  0  0  0  0  0  0  0  0  0
   66.7900   31.2030   51.1250 C   0  0  0  0  0  0  0  0  0  0  0  0
   66.4070   32.2470   50.2760 C   0  0  0  0  0  0  0  0  0  0  0  0
   62.3840   34.0120   49.3440 C   0  0  0  0  0  0  0  0  0  0  0  0
   61.1160   34.2580   48.8090 C   0  0  0  0  0  0  0  0  0  0  0  0
   58.2250   32.9520   45.4330 C   0  0  0  0  0  0  0  0  0  0  0  0
   58.3990   33.6470   44.2240 C   0  0  0  0  0  0  0  0  0  0  0  0
   58.1660   33.0090   43.0040 C   0  0  0  0  0  0  0  0  0  0  0  0
   57.7420   31.6780   42.9790 C   0  0  0  0  0  0  0  0  0  0  0  0
   57.5320   30.9820   44.1760 C   0  0  0  0  0  0  0  0  0  0  0  0
   56.9950   29.3010   44.1450 S   0  0  0  0  0  0  0  0  0  0  0  0
   56.3880   28.9990   42.8030 O   0  0  0  0  0  0  0  0  0  0  0  0
   55.9310   29.1000   45.1910 O   0  0  0  0  0  0  0  0  0  0  0  0
   58.3230   28.2010   44.4350 N   0  0  0  0  0  0  0  0  0  0  0  0
   57.8060   26.9150   44.9430 C   0  0  0  0  0  0  0  0  0  0  0  0
   58.8530   26.0900   45.7180 C   0  0  0  0  0  0  0  0  0  0  0  0
   58.8530   26.3280   47.2440 C   0  0  0  0  0  0  0  0  0  0  0  0
   59.2920   27.7380   47.7040 C   0  0  0  0  0  0  0  0  0  0  0  0
   58.7940   28.8880   46.8000 C   0  0  0  0  0  0  0  0  0  0  0  0
   59.3150   28.8150   45.3430 C   0  0  0  0  0  0  0  0  0  0  0  0
   57.7660   31.6250   45.4000 C   0  0  0  0  0  0  0  0  0  0  0  0
   61.7835   33.6486   45.5119 H   0  0  0  0  0  0  0  0  0  0  0  0
   64.0446   33.2038   46.4677 H   0  0  0  0  0  0  0  0  0  0  0  0
   63.0364   31.6697   50.1999 H   0  0  0  0  0  0  0  0  0  0  0  0
   63.7242   29.8267   51.7335 H   0  0  0  0  0  0  0  0  0  0  0  0
   66.1303   29.5211   52.3239 H   0  0  0  0  0  0  0  0  0  0  0  0
   67.8512   31.0636   51.3790 H   0  0  0  0  0  0  0  0  0  0  0  0
   67.1692   32.9241   49.8629 H   0  0  0  0  0  0  0  0  0  0  0  0
   62.5422   34.0814   50.4304 H   0  0  0  0  0  0  0  0  0  0  0  0
   60.2802   34.5120   49.4776 H   0  0  0  0  0  0  0  0  0  0  0  0
   58.7204   34.6989   44.2388 H   0  0  0  0  0  0  0  0  0  0  0  0
   58.3165   33.5552   42.0611 H   0  0  0  0  0  0  0  0  0  0  0  0
   57.5725   31.1749   42.0156 H   0  0  0  0  0  0  0  0  0  0  0  0
   56.9598   27.1217   45.6148 H   0  0  0  0  0  0  0  0  0  0  0  0
   57.5100   26.3186   44.0674 H   0  0  0  0  0  0  0  0  0  0  0  0
   58.6533   25.0236   45.5364 H   0  0  0  0  0  0  0  0  0  0  0  0
   59.8390   26.4111   45.3509 H   0  0  0  0  0  0  0  0  0  0  0  0
   57.8311   26.1553   47.6128 H   0  0  0  0  0  0  0  0  0  0  0  0
   59.5997   25.6329   47.6554 H   0  0  0  0  0  0  0  0  0  0  0  0
   58.9031   27.9053   48.7192 H   0  0  0  0  0  0  0  0  0  0  0  0
   60.3909   27.7555   47.6576 H   0  0  0  0  0  0  0  0  0  0  0  0
   57.6947   28.8579   46.7761 H   0  0  0  0  0  0  0  0  0  0  0  0
   59.1830   29.8225   47.2306 H   0  0  0  0  0  0  0  0  0  0  0  0
   59.5357   29.8340   44.9924 H   0  0  0  0  0  0  0  0  0  0  0  0
   60.2195   28.1891   45.3344 H   0  0  0  0  0  0  0  0  0  0  0  0
   57.5886   31.0856   46.3421 H   0  0  0  0  0  0  0  0  0  0  0  0
  1  2  2  0
  2  3  1  0
  3  4  1  0
  4  5  2  0
  5  6  1  0
  6  7  2  0
  7  8  1  0
  8  9  1  0
  9 10  2  0
 10 11  1  0
 11 12  2  0
 12 13  1  0
 13 14  2  0
  7 15  1  0
 15 16  2  0
  2 17  1  0
 17 18  2  0
 18 19  1  0
 19 20  2  0
 20 21  1  0
 21 22  1  0
 22 23  2  0
 22 24  2  0
 22 25  1  0
 25 26  1  0
 26 27  1  0
 27 28  1  0
 28 29  1  0
 29 30  1  0
 30 31  1  0
 21 32  2  0
 16  4  1  0
 32 17  1  0
 14  9  1  0
 31 25  1  0
  5 33  1  0
  6 34  1  0
 10 35  1  0
 11 36  1  0
 12 37  1  0
 13 38  1  0
 14 39  1  0
 15 40  1  0
 16 41  1  0
 18 42  1  0
 19 43  1  0
 20 44  1  0
 26 45  1  0
 26 46  1  0
 27 47  1  0
 27 48  1  0
 28 49  1  0
 28 50  1  0
 29 51  1  0
 29 52  1  0
 30 53  1  0
 30 54  1  0
 31 55  1  0
 31 56  1  0
 32 57  1  0
M  CHG  1   3  -1
M  END
>  <UniqueID>  (31) 
29

>  <SMILES>  (31) 
O=C([N-]c1ccc(Oc2ccccc2)cc1)c1cccc(S(=O)(=O)N2CCCCCC2)c1

>  <Energy>  (31) 
80.36419585885739

>  <Genealogy>  (31) 
O=C([N-]c1ccc(Oc2ccccc2)cc1)c1cccc(S(=O)(=O)N2CCCCCC2)c1 (protonated)
O=C([N-]c1ccc(Oc2ccccc2)cc1)c1cccc(S(=O)(=O)N2CCCCCC2)c1 (3D coordinates assigned)
O=C([N-]c1ccc(Oc2ccccc2)cc1)c1cccc(S(=O)(=O)N2CCCCCC2)c1 (nonaromatic ring conformer: 80.36419585885739 kcal/mol)

>  <smiles>  (31) 
O=C(Nc1ccc(Oc2ccccc2)cc1)c1cccc(S(=O)(=O)N2CCCCCC2)c1

>  <score_type>  (31) 
oracle

>  <origin>  (31) 
adg

>  <m_score__min__energy>  (31) 
-10

>  <m_primary>  (31) 
energy

$$$$
31:0
     RDKit          3D

 42 44  0  0  0  0  0  0  0  0999 V2000
   60.2764   35.0251   48.8125 H   0  0  0  0  0  0  0  0  0  0  0  0
   59.7420   34.0990   48.5540 C   0  0  0  0  0  0  0  0  0  0  0  0
   59.7690   33.0910   49.4340 C   0  0  0  0  0  0  0  0  0  0  0  0
   59.7849   33.3134   50.5112 H   0  0  0  0  0  0  0  0  0  0  0  0
   59.7780   31.6620   48.9750 C   0  0  0  0  0  0  0  0  0  0  0  0
   58.9978   31.5242   48.2119 H   0  0  0  0  0  0  0  0  0  0  0  0
   59.5866   31.0135   49.8427 H   0  0  0  0  0  0  0  0  0  0  0  0
   61.0340   31.3160   48.4210 O   0  0  0  0  0  0  0  0  0  0  0  0
   60.9190   31.0220   47.0410 C   0  0  0  0  0  0  0  0  0  0  0  0
   61.9174   30.8085   46.6315 H   0  0  0  0  0  0  0  0  0  0  0  0
   60.4770   31.8885   46.5273 H   0  0  0  0  0  0  0  0  0  0  0  0
   60.0330   29.8280   46.8320 C   0  0  0  0  0  0  0  0  0  0  0  0
   60.1490   28.6040   47.4730 C   0  0  0  0  0  0  0  0  0  0  0  0
   60.9240   28.3542   48.2126 H   0  0  0  0  0  0  0  0  0  0  0  0
   59.1750   27.7600   47.0610 N   0  0  0  0  0  0  0  0  0  0  0  0
   59.0460   26.3730   47.5000 C   0  0  0  0  0  0  0  0  0  0  0  0
   59.0425   26.3352   48.5993 H   0  0  0  0  0  0  0  0  0  0  0  0
   58.1049   25.9528   47.1156 H   0  0  0  0  0  0  0  0  0  0  0  0
   59.8935   25.7864   47.1156 H   0  0  0  0  0  0  0  0  0  0  0  0
   58.4100   28.4530   46.1800 C   0  0  0  0  0  0  0  0  0  0  0  0
   57.2700   28.0390   45.4570 C   0  0  0  0  0  0  0  0  0  0  0  0
   56.6410   26.7690   45.6590 N   0  0  0  0  0  0  0  0  0  0  0  0
   55.4400   26.7240   45.9960 O   0  0  0  0  0  0  0  0  0  0  0  0
   57.2320   25.6340   45.1560 O   0  0  0  0  0  0  0  0  0  0  0  0
   56.7140   28.9470   44.5320 C   0  0  0  0  0  0  0  0  0  0  0  0
   55.8427   28.6452   43.9322 H   0  0  0  0  0  0  0  0  0  0  0  0
   57.2590   30.2340   44.3660 C   0  0  0  0  0  0  0  0  0  0  0  0
   56.8071   30.9295   43.6435 H   0  0  0  0  0  0  0  0  0  0  0  0
   58.3750   30.6360   45.1160 C   0  0  0  0  0  0  0  0  0  0  0  0
   58.8001   31.6442   45.0029 H   0  0  0  0  0  0  0  0  0  0  0  0
   58.9290   29.7190   46.0090 C   0  0  0  0  0  0  0  0  0  0  0  0
   59.0350   34.0430   47.2510 C   0  0  0  0  0  0  0  0  0  0  0  0
   59.6560   34.6110   46.1250 C   0  0  0  0  0  0  0  0  0  0  0  0
   60.6472   35.0770   46.2264 H   0  0  0  0  0  0  0  0  0  0  0  0
   59.0250   34.5890   44.8770 C   0  0  0  0  0  0  0  0  0  0  0  0
   59.5238   35.0296   44.0011 H   0  0  0  0  0  0  0  0  0  0  0  0
   57.7620   34.0080   44.7420 C   0  0  0  0  0  0  0  0  0  0  0  0
   57.2685   33.9871   43.7591 H   0  0  0  0  0  0  0  0  0  0  0  0
   57.1260   33.4540   45.8540 C   0  0  0  0  0  0  0  0  0  0  0  0
   56.1292   33.0013   45.7470 H   0  0  0  0  0  0  0  0  0  0  0  0
   57.7530   33.4730   47.1040 C   0  0  0  0  0  0  0  0  0  0  0  0
   57.2434   33.0409   47.9778 H   0  0  0  0  0  0  0  0  0  0  0  0
  1  2  1  0
  2  3  2  0
  3  4  1  0
  3  5  1  0
  5  6  1  0
  5  7  1  0
  5  8  1  0
  8  9  1  0
  9 10  1  0
  9 11  1  0
  9 12  1  0
 12 13  2  0
 13 14  1  0
 13 15  1  0
 15 16  1  0
 16 17  1  0
 16 18  1  0
 16 19  1  0
 15 20  1  0
 20 21  2  0
 21 22  1  0
 22 23  2  0
 22 24  1  0
 21 25  1  0
 25 26  1  0
 25 27  2  0
 27 28  1  0
 27 29  1  0
 29 30  1  0
 29 31  2  0
  2 32  1  0
 32 33  2  0
 33 34  1  0
 33 35  1  0
 35 36  1  0
 35 37  2  0
 37 38  1  0
 37 39  1  0
 39 40  1  0
 39 41  2  0
 41 42  1  0
 31 12  1  0
 41 32  1  0
 31 20  1  0
M  CHG  2  22   1  24  -1
M  END
>  <UniqueID>  (32) 
30

>  <SMILES>  (32) 
Cn1cc(COC/C=C/c2ccccc2)c2cccc([N+](=O)[O-])c21

>  <Energy>  (32) 
87.71340153781998

>  <Genealogy>  (32) 
Cn1cc(COC/C=C/c2ccccc2)c2cccc([N+](=O)[O-])c21 (cis-trans isomerization)
Cn1cc(COC/C=C/c2ccccc2)c2cccc([N+](=O)[O-])c21 (3D coordinates assigned)
Cn1cc(COC/C=C/c2ccccc2)c2cccc([N+](=O)[O-])c21 (optimized conformer: 87.71340153781998 kcal/mol)

>  <smiles>  (32) 
Cn1cc(COCC=Cc2ccccc2)c2cccc([N+](=O)[O-])c21

>  <score_type>  (32) 
oracle

>  <origin>  (32) 
adg

>  <m_score__min__energy>  (32) 
-7.5

>  <m_primary>  (32) 
energy

$$$$
32:0
     RDKit          3D

 53 57  0  0  0  0  0  0  0  0999 V2000
   58.0471   34.7956   48.0988 H   0  0  0  0  0  0  0  0  0  0  0  0
   59.0180   34.5220   47.6600 C   0  0  0  0  0  0  0  0  0  0  0  0
   60.1380   34.5250   48.4310 N   0  0  0  0  0  0  0  0  0  0  0  0
   61.3630   34.1940   47.9310 C   0  0  0  0  0  0  0  0  0  0  0  0
   62.4270   34.2010   48.6810 N   0  0  0  0  0  0  0  0  0  0  0  0
   63.5750   33.3390   48.5720 C   0  0  0  0  0  0  0  0  0  0  0  0
   63.9320   32.8990   47.4440 O   0  0  0  0  0  0  0  0  0  0  0  0
   64.3430   32.9780   49.7970 C   0  0  0  0  0  0  0  0  0  0  0  0
   65.7510   32.9800   49.7470 C   0  0  0  0  0  0  0  0  0  0  0  0
   66.2600   33.2542   48.8112 H   0  0  0  0  0  0  0  0  0  0  0  0
   66.5090   32.6390   50.8680 C   0  0  0  0  0  0  0  0  0  0  0  0
   67.6075   32.6525   50.8122 H   0  0  0  0  0  0  0  0  0  0  0  0
   65.8790   32.2820   52.0560 C   0  0  0  0  0  0  0  0  0  0  0  0
   66.4794   32.0044   52.9349 H   0  0  0  0  0  0  0  0  0  0  0  0
   64.4860   32.2760   52.1330 C   0  0  0  0  0  0  0  0  0  0  0  0
   63.9942   31.9814   53.0718 H   0  0  0  0  0  0  0  0  0  0  0  0
   63.7030   32.6430   51.0220 C   0  0  0  0  0  0  0  0  0  0  0  0
   62.2690   32.6290   51.1070 N   0  0  0  0  0  0  0  0  0  0  0  0
   61.4070   31.4970   50.9200 C   0  0  0  0  0  0  0  0  0  0  0  0
   61.1010   30.7680   51.9030 O   0  0  0  0  0  0  0  0  0  0  0  0
   60.8300   31.2190   49.5840 C   0  0  0  0  0  0  0  0  0  0  0  0
   59.4560   31.4070   49.3460 C   0  0  0  0  0  0  0  0  0  0  0  0
   58.8054   31.7624   50.1586 H   0  0  0  0  0  0  0  0  0  0  0  0
   58.9110   31.1460   48.0860 C   0  0  0  0  0  0  0  0  0  0  0  0
   57.8321   31.2787   47.9177 H   0  0  0  0  0  0  0  0  0  0  0  0
   59.7350   30.7150   47.0340 C   0  0  0  0  0  0  0  0  0  0  0  0
   59.1900   30.3860   45.7470 N   0  0  0  0  0  0  0  0  0  0  0  0
   58.0340   29.8340   45.4840 C   0  0  0  0  0  0  0  0  0  0  0  0
   57.0290   30.5140   44.7620 C   0  0  0  0  0  0  0  0  0  0  0  0
   57.2037   31.5417   44.4109 H   0  0  0  0  0  0  0  0  0  0  0  0
   55.8140   29.8820   44.4940 C   0  0  0  0  0  0  0  0  0  0  0  0
   55.0289   30.4181   43.9406 H   0  0  0  0  0  0  0  0  0  0  0  0
   55.5960   28.6110   44.9120 N   0  0  0  0  0  0  0  0  0  0  0  0
   56.5380   27.9090   45.5920 C   0  0  0  0  0  0  0  0  0  0  0  0
   56.2670   26.5950   45.9950 C   0  0  0  0  0  0  0  0  0  0  0  0
   55.2933   26.1395   45.7615 H   0  0  0  0  0  0  0  0  0  0  0  0
   57.2290   25.8620   46.6920 C   0  0  0  0  0  0  0  0  0  0  0  0
   57.0125   24.8296   47.0040 H   0  0  0  0  0  0  0  0  0  0  0  0
   58.4650   26.4360   46.9940 C   0  0  0  0  0  0  0  0  0  0  0  0
   59.2188   25.8546   47.5451 H   0  0  0  0  0  0  0  0  0  0  0  0
   58.7490   27.7470   46.5990 C   0  0  0  0  0  0  0  0  0  0  0  0
   59.7258   28.1916   46.8403 H   0  0  0  0  0  0  0  0  0  0  0  0
   57.7900   28.5020   45.8930 C   0  0  0  0  0  0  0  0  0  0  0  0
   61.0950   30.4900   47.2760 C   0  0  0  0  0  0  0  0  0  0  0  0
   61.7373   30.1053   46.4701 H   0  0  0  0  0  0  0  0  0  0  0  0
   61.6420   30.7510   48.5350 C   0  0  0  0  0  0  0  0  0  0  0  0
   62.7163   30.5892   48.7072 H   0  0  0  0  0  0  0  0  0  0  0  0
   61.4800   33.8380   46.5820 C   0  0  0  0  0  0  0  0  0  0  0  0
   62.4610   33.5687   46.1636 H   0  0  0  0  0  0  0  0  0  0  0  0
   60.3430   33.8270   45.7710 C   0  0  0  0  0  0  0  0  0  0  0  0
   60.4256   33.5478   44.7102 H   0  0  0  0  0  0  0  0  0  0  0  0
   59.1010   34.1710   46.3090 C   0  0  0  0  0  0  0  0  0  0  0  0
   57.6640   34.1620   45.3050 Cl  0  0  0  0  0  0  0  0  0  0  0  0
  1  2  1  0
  2  3  1  0
  3  4  1  0
  4  5  2  3
  5  6  1  0
  6  7  2  0
  6  8  1  0
  8  9  2  0
  9 10  1  0
  9 11  1  0
 11 12  1  0
 11 13  2  0
 13 14  1  0
 13 15  1  0
 15 16  1  0
 15 17  2  0
 17 18  1  0
 18 19  1  0
 19 20  2  0
 19 21  1  0
 21 22  2  0
 22 23  1  0
 22 24  1  0
 24 25  1  0
 24 26  2  0
 26 27  1  0
 27 28  2  0
 28 29  1  0
 29 30  1  0
 29 31  2  0
 31 32  1  0
 31 33  1  0
 33 34  1  0
 34 35  2  0
 35 36  1  0
 35 37  1  0
 37 38  1  0
 37 39  2  0
 39 40  1  0
 39 41  1  0
 41 42  1  0
 41 43  2  0
 26 44  1  0
 44 45  1  0
 44 46  2  0
 46 47  1  0
  4 48  1  0
 48 49  1  0
 48 50  2  0
 50 51  1  0
 50 52  1  0
 52 53  1  0
 52  2  2  0
 17  8  1  0
 46 21  1  0
 43 28  1  0
 43 34  1  0
M  CHG  3   3  -1  18  -1  33  -1
M  END
>  <UniqueID>  (33) 
31

>  <SMILES>  (33) 
O=C([N-]c1ccccc1C(=O)N=c1ccc(Cl)c[n-]1)c1ccc(/N=c2\cc[n-]c3ccccc23)cc1

>  <Energy>  (33) 
86.10890897252365

>  <Genealogy>  (33) 
O=C([N-]c1ccccc1C(=O)N=c1ccc(Cl)c[n-]1)c1ccc(N=c2cc[n-]c3ccccc23)cc1 (protonated)
O=C([N-]c1ccccc1C(=O)N=c1ccc(Cl)c[n-]1)c1ccc(/N=c2\cc[n-]c3ccccc23)cc1 (cis-trans isomerization)
O=C([N-]c1ccccc1C(=O)N=c1ccc(Cl)c[n-]1)c1ccc(/N=c2\cc[n-]c3ccccc23)cc1 (3D coordinates assigned)
O=C([N-]c1ccccc1C(=O)N=c1ccc(Cl)c[n-]1)c1ccc(/N=c2\cc[n-]c3ccccc23)cc1 (optimized conformer: 86.10890897252365 kcal/mol)

>  <smiles>  (33) 
O=C(Nc1ccccc1C(=O)N=c1ccc(Cl)c[nH]1)c1ccc(N=c2cc[nH]c3ccccc23)cc1

>  <score_type>  (33) 
oracle

>  <origin>  (33) 
adg

>  <m_score__min__energy>  (33) 
-14.75

>  <m_primary>  (33) 
energy

$$$$
33:0
     RDKit          3D

 51 53  0  0  0  0  0  0  0  0999 V2000
   57.3990   32.0820   51.9320 C   0  0  0  0  0  0  0  0  0  0  0  0
   56.9040   30.7170   51.6360 C   0  0  0  0  0  0  0  0  0  0  0  0
   55.6610   30.4950   51.6340 O   0  0  0  0  0  0  0  0  0  0  0  0
   57.8340   29.6970   51.3910 O   0  0  0  0  0  0  0  0  0  0  0  0
   59.1330   29.9880   50.8710 C   0  0  0  0  0  0  0  0  0  0  0  0
   59.0520   30.2860   49.3650 C   0  0  2  0  0  0  0  0  0  0  0  0
   58.5220   29.1570   48.7220 O   0  0  0  0  0  0  0  0  0  0  0  0
   59.2910   28.8790   47.5770 C   0  0  1  0  0  0  0  0  0  0  0  0
   58.4030   28.7930   46.4020 N   0  0  0  0  0  0  0  0  0  0  0  0
   58.4580   29.7650   45.4340 C   0  0  0  0  0  0  0  0  0  0  0  0
   57.3320   30.0120   44.5820 C   0  0  0  0  0  0  0  0  0  0  0  0
   57.2730   31.3860   44.1170 C   0  0  0  0  0  0  0  0  0  0  0  0
   57.5860   31.6870   42.9250 O   0  0  0  0  0  0  0  0  0  0  0  0
   56.7740   32.4350   44.9580 N   0  0  0  0  0  0  0  0  0  0  0  0
   57.6880   33.3450   45.5930 C   0  0  0  0  0  0  0  0  0  0  0  0
   58.4110   34.2720   44.8290 C   0  0  0  0  0  0  0  0  0  0  0  0
   59.3830   35.0760   45.4350 C   0  0  0  0  0  0  0  0  0  0  0  0
   59.6410   34.9620   46.8070 C   0  0  0  0  0  0  0  0  0  0  0  0
   58.8760   34.0900   47.5870 C   0  0  0  0  0  0  0  0  0  0  0  0
   57.9150   33.2810   46.9810 C   0  0  0  0  0  0  0  0  0  0  0  0
   56.2420   29.1500   44.8360 C   0  0  0  0  0  0  0  0  0  0  0  0
   55.1430   29.3330   44.2440 O   0  0  0  0  0  0  0  0  0  0  0  0
   56.3540   28.0220   45.5860 N   0  0  0  0  0  0  0  0  0  0  0  0
   57.4530   27.8220   46.3280 C   0  0  0  0  0  0  0  0  0  0  0  0
   57.5170   26.7900   47.0330 O   0  0  0  0  0  0  0  0  0  0  0  0
   60.3850   29.9240   47.4030 C   0  0  0  0  0  0  0  0  0  0  0  0
   60.3780   30.6840   48.7090 C   0  0  2  0  0  0  0  0  0  0  0  0
   61.5040   30.3200   49.5220 O   0  0  0  0  0  0  0  0  0  0  0  0
   62.6040   31.1620   49.7150 C   0  0  0  0  0  0  0  0  0  0  0  0
   62.9240   32.1870   48.6800 C   0  0  0  0  0  0  0  0  0  0  0  0
   63.3580   31.0230   50.7090 O   0  0  0  0  0  0  0  0  0  0  0  0
   57.4509   32.2250   53.0214 H   0  0  0  0  0  0  0  0  0  0  0  0
   58.4011   32.2109   51.4971 H   0  0  0  0  0  0  0  0  0  0  0  0
   56.7125   32.8233   51.4971 H   0  0  0  0  0  0  0  0  0  0  0  0
   59.5443   30.8648   51.3925 H   0  0  0  0  0  0  0  0  0  0  0  0
   59.7843   29.1155   51.0280 H   0  0  0  0  0  0  0  0  0  0  0  0
   58.4057   31.1691   49.2536 H   0  0  0  0  0  0  0  0  0  0  0  0
   59.7965   27.9087   47.6909 H   0  0  0  0  0  0  0  0  0  0  0  0
   59.3750   30.3600   45.3110 H   0  0  0  0  0  0  0  0  0  0  0  0
   55.7580   32.6720   44.8860 H   0  0  0  0  0  0  0  0  0  0  0  0
   58.2138   34.3675   43.7510 H   0  0  0  0  0  0  0  0  0  0  0  0
   59.9474   35.8014   44.8306 H   0  0  0  0  0  0  0  0  0  0  0  0
   60.4428   35.5566   47.2691 H   0  0  0  0  0  0  0  0  0  0  0  0
   59.0314   34.0420   48.6749 H   0  0  0  0  0  0  0  0  0  0  0  0
   57.3267   32.5838   47.5956 H   0  0  0  0  0  0  0  0  0  0  0  0
   61.3605   29.4442   47.2354 H   0  0  0  0  0  0  0  0  0  0  0  0
   60.2126   30.5757   46.5338 H   0  0  0  0  0  0  0  0  0  0  0  0
   60.4600   31.7720   48.5696 H   0  0  0  0  0  0  0  0  0  0  0  0
   63.2172   33.1260   49.1722 H   0  0  0  0  0  0  0  0  0  0  0  0
   63.7528   31.8278   48.0522 H   0  0  0  0  0  0  0  0  0  0  0  0
   62.0381   32.3631   48.0522 H   0  0  0  0  0  0  0  0  0  0  0  0
  1  2  1  0
  2  3  2  0
  2  4  1  0
  4  5  1  0
  5  6  1  0
  6  7  1  0
  7  8  1  0
  8  9  1  0
  9 10  1  0
 10 11  2  0
 11 12  1  0
 12 13  2  0
 12 14  1  0
 14 15  1  0
 15 16  2  0
 16 17  1  0
 17 18  2  0
 18 19  1  0
 19 20  2  0
 11 21  1  0
 21 22  2  0
 21 23  1  0
 23 24  1  0
 24 25  2  0
  8 26  1  0
 26 27  1  0
 27 28  1  0
 28 29  1  0
 29 30  1  0
 29 31  2  0
 27  6  1  0
 24  9  1  0
 20 15  1  0
  1 32  1  0
  1 33  1  0
  1 34  1  0
  5 35  1  0
  5 36  1  0
  6 37  1  1
  8 38  1  1
 10 39  1  0
 14 40  1  0
 16 41  1  0
 17 42  1  0
 18 43  1  0
 19 44  1  0
 20 45  1  0
 26 46  1  0
 26 47  1  0
 27 48  1  6
 30 49  1  0
 30 50  1  0
 30 51  1  0
M  CHG  1  23  -1
M  END
>  <UniqueID>  (34) 
32

>  <SMILES>  (34) 
CC(=O)OC[C@@H]1O[C@@H](n2cc(C(=O)Nc3ccccc3)c(=O)[n-]c2=O)CC1OC(C)=O

>  <Energy>  (34) 
85.28964635101484

>  <Genealogy>  (34) 
CC(=O)OCC1OC(n2cc(C(=O)Nc3ccccc3)c(=O)[n-]c2=O)CC1OC(C)=O (protonated)
CC(=O)OC[C@@H]1O[C@@H](n2cc(C(=O)Nc3ccccc3)c(=O)[n-]c2=O)CC1OC(C)=O (chirality)
CC(=O)OC[C@@H]1O[C@@H](n2cc(C(=O)Nc3ccccc3)c(=O)[n-]c2=O)CC1OC(C)=O (3D coordinates assigned)
CC(=O)OC[C@@H]1O[C@@H](n2cc(C(=O)Nc3ccccc3)c(=O)[n-]c2=O)CC1OC(C)=O (nonaromatic ring conformer: 85.28964635101484 kcal/mol)

>  <smiles>  (34) 
CC(=O)OCC1OC(n2cc(C(=O)Nc3ccccc3)c(=O)[nH]c2=O)CC1OC(C)=O

>  <score_type>  (34) 
oracle

>  <origin>  (34) 
adg

>  <m_score__min__energy>  (34) 
-9.8800000000000008

>  <m_primary>  (34) 
energy

$$$$
34:0
     RDKit          3D

 56 58  0  0  0  0  0  0  0  0999 V2000
   56.8660   20.7390   42.8780 C   0  0  0  0  0  0  0  0  0  0  0  0
   56.0640   21.8050   43.3750 O   0  0  0  0  0  0  0  0  0  0  0  0
   56.5760   22.9880   43.9290 C   0  0  0  0  0  0  0  0  0  0  0  0
   56.8800   24.1190   43.1480 C   0  0  0  0  0  0  0  0  0  0  0  0
   57.3870   25.2750   43.7470 C   0  0  0  0  0  0  0  0  0  0  0  0
   57.6130   25.3150   45.1320 C   0  0  0  0  0  0  0  0  0  0  0  0
   58.0980   26.5810   45.7860 C   0  0  0  0  0  0  0  0  0  0  0  0
   56.9240   27.3650   46.3650 C   0  0  0  0  0  0  0  0  0  0  0  0
   56.2110   28.0500   45.2930 N   0  0  0  0  0  0  0  0  0  0  0  0
   56.4440   29.4090   44.8960 C   0  0  0  0  0  0  0  0  0  0  0  0
   55.4530   30.1630   44.7050 O   0  0  0  0  0  0  0  0  0  0  0  0
   57.8310   29.9730   44.7430 C   0  0  0  0  0  0  0  0  0  0  0  0
   58.3070   30.5000   45.9830 O   0  0  0  0  0  0  0  0  0  0  0  0
   58.8990   31.7620   46.1500 C   0  0  0  0  0  0  0  0  0  0  0  0
   60.2590   31.9100   46.4890 C   0  0  0  0  0  0  0  0  0  0  0  0
   60.8100   33.1780   46.7030 C   0  0  0  0  0  0  0  0  0  0  0  0
   62.5130   33.3370   47.1340 S   0  0  0  0  0  0  0  0  0  0  0  0
   63.1570   31.9790   47.0760 O   0  0  0  0  0  0  0  0  0  0  0  0
   63.1900   34.2040   46.1080 O   0  0  0  0  0  0  0  0  0  0  0  0
   62.7620   34.0430   48.7170 N   0  0  0  0  0  0  0  0  0  0  0  0
   61.5170   34.1780   49.4970 C   0  0  0  0  0  0  0  0  0  0  0  0
   61.2460   32.9570   50.3880 C   0  0  0  0  0  0  0  0  0  0  0  0
   62.3640   32.6770   51.2000 O   0  0  0  0  0  0  0  0  0  0  0  0
   63.4460   32.2910   50.3810 C   0  0  0  0  0  0  0  0  0  0  0  0
   63.8840   33.4470   49.4700 C   0  0  0  0  0  0  0  0  0  0  0  0
   60.0080   34.3150   46.5450 C   0  0  0  0  0  0  0  0  0  0  0  0
   58.6670   34.1820   46.1820 C   0  0  0  0  0  0  0  0  0  0  0  0
   58.1080   32.9150   45.9850 C   0  0  0  0  0  0  0  0  0  0  0  0
   56.7620   32.8200   45.6330 O   0  0  0  0  0  0  0  0  0  0  0  0
   57.3050   24.1890   45.9110 C   0  0  0  0  0  0  0  0  0  0  0  0
   56.7900   23.0370   45.3120 C   0  0  0  0  0  0  0  0  0  0  0  0
   57.2902   20.1751   43.7218 H   0  0  0  0  0  0  0  0  0  0  0  0
   56.2460   20.0691   42.2641 H   0  0  0  0  0  0  0  0  0  0  0  0
   57.6814   21.1491   42.2641 H   0  0  0  0  0  0  0  0  0  0  0  0
   56.7175   24.0926   42.0604 H   0  0  0  0  0  0  0  0  0  0  0  0
   57.6102   26.1581   43.1303 H   0  0  0  0  0  0  0  0  0  0  0  0
   58.7976   26.3256   46.5955 H   0  0  0  0  0  0  0  0  0  0  0  0
   58.6032   27.2013   45.0310 H   0  0  0  0  0  0  0  0  0  0  0  0
   56.2385   26.6724   46.8753 H   0  0  0  0  0  0  0  0  0  0  0  0
   57.3020   28.1081   47.0826 H   0  0  0  0  0  0  0  0  0  0  0  0
   58.5092   29.1749   44.4069 H   0  0  0  0  0  0  0  0  0  0  0  0
   57.7997   30.7872   44.0041 H   0  0  0  0  0  0  0  0  0  0  0  0
   60.8949   31.0177   46.5865 H   0  0  0  0  0  0  0  0  0  0  0  0
   61.5958   35.0702   50.1356 H   0  0  0  0  0  0  0  0  0  0  0  0
   60.6836   34.2632   48.7842 H   0  0  0  0  0  0  0  0  0  0  0  0
   60.3762   33.1633   51.0291 H   0  0  0  0  0  0  0  0  0  0  0  0
   61.0475   32.0864   49.7456 H   0  0  0  0  0  0  0  0  0  0  0  0
   64.2921   31.9944   51.0183 H   0  0  0  0  0  0  0  0  0  0  0  0
   63.1260   31.4486   49.7502 H   0  0  0  0  0  0  0  0  0  0  0  0
   64.3438   34.2291   50.0921 H   0  0  0  0  0  0  0  0  0  0  0  0
   64.5934   33.0377   48.7357 H   0  0  0  0  0  0  0  0  0  0  0  0
   60.4359   35.3153   46.7074 H   0  0  0  0  0  0  0  0  0  0  0  0
   58.0453   35.0798   46.0499 H   0  0  0  0  0  0  0  0  0  0  0  0
   56.2730   31.9340   45.6060 H   0  0  0  0  0  0  0  0  0  0  0  0
   57.4699   24.2138   46.9983 H   0  0  0  0  0  0  0  0  0  0  0  0
   56.5504   22.1606   45.9321 H   0  0  0  0  0  0  0  0  0  0  0  0
  1  2  1  0
  2  3  1  0
  3  4  2  0
  4  5  1  0
  5  6  2  0
  6  7  1  0
  7  8  1  0
  8  9  1  0
  9 10  1  0
 10 11  2  0
 10 12  1  0
 12 13  1  0
 13 14  1  0
 14 15  2  0
 15 16  1  0
 16 17  1  0
 17 18  2  0
 17 19  2  0
 17 20  1  0
 20 21  1  0
 21 22  1  0
 22 23  1  0
 23 24  1  0
 24 25  1  0
 16 26  2  0
 26 27  1  0
 27 28  2  0
 28 29  1  0
  6 30  1  0
 30 31  2  0
 31  3  1  0
 28 14  1  0
 25 20  1  0
  1 32  1  0
  1 33  1  0
  1 34  1  0
  4 35  1  0
  5 36  1  0
  7 37  1  0
  7 38  1  0
  8 39  1  0
  8 40  1  0
 12 41  1  0
 12 42  1  0
 15 43  1  0
 21 44  1  0
 21 45  1  0
 22 46  1  0
 22 47  1  0
 24 48  1  0
 24 49  1  0
 25 50  1  0
 25 51  1  0
 26 52  1  0
 27 53  1  0
 29 54  1  0
 30 55  1  0
 31 56  1  0
M  CHG  1   9  -1
M  END
>  <UniqueID>  (35) 
33

>  <SMILES>  (35) 
COc1ccc(CC[N-]C(=O)COc2cc(S(=O)(=O)N3CCOCC3)ccc2O)cc1

>  <Energy>  (35) 
54.29866279623436

>  <Genealogy>  (35) 
COc1ccc(CC[N-]C(=O)COc2cc(S(=O)(=O)N3CCOCC3)ccc2O)cc1 (protonated)
COc1ccc(CC[N-]C(=O)COc2cc(S(=O)(=O)N3CCOCC3)ccc2O)cc1 (3D coordinates assigned)
COc1ccc(CC[N-]C(=O)COc2cc(S(=O)(=O)N3CCOCC3)ccc2O)cc1 (nonaromatic ring conformer: 54.29866279623436 kcal/mol)

>  <smiles>  (35) 
COc1ccc(CCNC(=O)COc2cc(S(=O)(=O)N3CCOCC3)ccc2O)cc1

>  <score_type>  (35) 
oracle

>  <origin>  (35) 
adg

>  <m_score__min__energy>  (35) 
-10.26

>  <m_primary>  (35) 
energy

$$$$
35:0
     RDKit          3D

 48 50  0  0  0  0  0  0  0  0999 V2000
   57.6260   31.5140   45.2380 C   0  0  0  0  0  0  0  0  0  0  0  0
   58.6050   32.6000   45.6000 C   0  0  0  0  0  0  0  0  0  0  0  0
   59.8090   32.2760   46.2600 C   0  0  0  0  0  0  0  0  0  0  0  0
   60.7010   33.2860   46.6620 C   0  0  0  0  0  0  0  0  0  0  0  0
   62.1980   32.8860   47.5070 S   0  0  0  0  0  0  0  0  0  0  0  0
   62.7090   31.5350   47.0840 O   0  0  0  0  0  0  0  0  0  0  0  0
   63.2480   33.9030   47.1520 O   0  0  0  0  0  0  0  0  0  0  0  0
   61.9410   32.9380   49.2220 N   0  0  0  0  0  0  0  0  0  0  0  0
   60.7210   32.6360   49.9130 C   0  0  0  0  0  0  0  0  0  0  0  0
   60.0120   31.4390   49.7050 C   0  0  0  0  0  0  0  0  0  0  0  0
   58.8140   31.2020   50.3840 C   0  0  0  0  0  0  0  0  0  0  0  0
   58.3040   32.1510   51.2910 C   0  0  0  0  0  0  0  0  0  0  0  0
   57.0100   31.9200   51.9690 C   0  0  0  0  0  0  0  0  0  0  0  0
   56.3300   32.9040   52.3680 O   0  0  0  0  0  0  0  0  0  0  0  0
   56.5300   30.5870   52.1970 N   0  0  0  0  0  0  0  0  0  0  0  0
   55.1350   30.2520   52.2730 C   0  0  0  0  0  0  0  0  0  0  0  0
   54.7140   29.2500   53.1550 C   0  0  0  0  0  0  0  0  0  0  0  0
   53.3710   28.8740   53.2070 C   0  0  0  0  0  0  0  0  0  0  0  0
   52.4220   29.4790   52.3630 C   0  0  0  0  0  0  0  0  0  0  0  0
   50.9960   29.0030   52.4110 C   0  0  0  0  0  0  0  0  0  0  0  0
   52.8370   30.5010   51.4720 C   0  0  0  0  0  0  0  0  0  0  0  0
   51.9070   31.1580   50.5900 N   0  0  0  0  0  0  0  0  0  0  0  0
   51.4610   32.2910   50.8770 O   0  0  0  0  0  0  0  0  0  0  0  0
   51.4220   30.5180   49.4740 O   0  0  0  0  0  0  0  0  0  0  0  0
   54.1950   30.8630   51.4280 C   0  0  0  0  0  0  0  0  0  0  0  0
   59.0250   33.3380   51.5120 C   0  0  0  0  0  0  0  0  0  0  0  0
   60.2250   33.5720   50.8320 C   0  0  0  0  0  0  0  0  0  0  0  0
   60.3780   34.6280   46.4040 C   0  0  0  0  0  0  0  0  0  0  0  0
   59.1800   34.9550   45.7550 C   0  0  0  0  0  0  0  0  0  0  0  0
   58.2910   33.9480   45.3630 C   0  0  0  0  0  0  0  0  0  0  0  0
   57.1210   34.2850   44.7710 F   0  0  0  0  0  0  0  0  0  0  0  0
   57.2208   31.0645   46.1566 H   0  0  0  0  0  0  0  0  0  0  0  0
   56.8040   31.9436   44.6465 H   0  0  0  0  0  0  0  0  0  0  0  0
   58.1382   30.7408   44.6465 H   0  0  0  0  0  0  0  0  0  0  0  0
   60.0525   31.2225   46.4622 H   0  0  0  0  0  0  0  0  0  0  0  0
   60.4025   30.6861   49.0046 H   0  0  0  0  0  0  0  0  0  0  0  0
   58.2642   30.2656   50.2085 H   0  0  0  0  0  0  0  0  0  0  0  0
   57.2330   29.8300   52.3550 H   0  0  0  0  0  0  0  0  0  0  0  0
   55.4459   28.7560   53.8110 H   0  0  0  0  0  0  0  0  0  0  0  0
   53.0510   28.0960   53.9158 H   0  0  0  0  0  0  0  0  0  0  0  0
   50.6798   28.8974   53.4593 H   0  0  0  0  0  0  0  0  0  0  0  0
   50.3483   29.7337   51.9044 H   0  0  0  0  0  0  0  0  0  0  0  0
   50.9171   28.0298   51.9044 H   0  0  0  0  0  0  0  0  0  0  0  0
   54.5261   31.6372   50.7202 H   0  0  0  0  0  0  0  0  0  0  0  0
   58.6437   34.0859   52.2228 H   0  0  0  0  0  0  0  0  0  0  0  0
   60.7853   34.4997   51.0201 H   0  0  0  0  0  0  0  0  0  0  0  0
   61.0688   35.4264   46.7129 H   0  0  0  0  0  0  0  0  0  0  0  0
   58.9371   36.0086   45.5526 H   0  0  0  0  0  0  0  0  0  0  0  0
  1  2  1  0
  2  3  2  0
  3  4  1  0
  4  5  1  0
  5  6  2  0
  5  7  2  0
  5  8  1  0
  8  9  1  0
  9 10  2  0
 10 11  1  0
 11 12  2  0
 12 13  1  0
 13 14  2  0
 13 15  1  0
 15 16  1  0
 16 17  2  0
 17 18  1  0
 18 19  2  0
 19 20  1  0
 19 21  1  0
 21 22  1  0
 22 23  2  0
 22 24  1  0
 21 25  2  0
 12 26  1  0
 26 27  2  0
  4 28  2  0
 28 29  1  0
 29 30  2  0
 30 31  1  0
 30  2  1  0
 27  9  1  0
 25 16  1  0
  1 32  1  0
  1 33  1  0
  1 34  1  0
  3 35  1  0
 10 36  1  0
 11 37  1  0
 15 38  1  0
 17 39  1  0
 18 40  1  0
 20 41  1  0
 20 42  1  0
 20 43  1  0
 25 44  1  0
 26 45  1  0
 27 46  1  0
 28 47  1  0
 29 48  1  0
M  CHG  3   8  -1  22   1  24  -1
M  END
>  <UniqueID>  (36) 
34

>  <SMILES>  (36) 
Cc1cc(S(=O)(=O)[N-]c2ccc(C(=O)Nc3ccc(C)c([N+](=O)[O-])c3)cc2)ccc1F

>  <Energy>  (36) 
65.99729411033154

>  <Genealogy>  (36) 
Cc1cc(S(=O)(=O)[N-]c2ccc(C(=O)Nc3ccc(C)c([N+](=O)[O-])c3)cc2)ccc1F (protonated)
Cc1cc(S(=O)(=O)[N-]c2ccc(C(=O)Nc3ccc(C)c([N+](=O)[O-])c3)cc2)ccc1F (3D coordinates assigned)
Cc1cc(S(=O)(=O)[N-]c2ccc(C(=O)Nc3ccc(C)c([N+](=O)[O-])c3)cc2)ccc1F (optimized conformer: 65.99729411033154 kcal/mol)

>  <smiles>  (36) 
Cc1cc(S(=O)(=O)Nc2ccc(C(=O)Nc3ccc(C)c([N+](=O)[O-])c3)cc2)ccc1F

>  <score_type>  (36) 
oracle

>  <origin>  (36) 
adg

>  <m_score__min__energy>  (36) 
-10.99

>  <m_primary>  (36) 
energy

$$$$
36:0
     RDKit          3D

 61 64  0  0  0  0  0  0  0  0999 V2000
   55.9610   34.7780   45.5610 H   0  0  0  0  0  0  0  0  0  0  0  0
   56.6610   34.1900   45.0550 N   0  0  0  0  0  0  0  0  0  0  0  0
   57.4270   33.3340   45.6550 C   0  0  0  0  0  0  0  0  0  0  0  0
   57.5910   31.9550   45.1280 C   0  0  0  0  0  0  0  0  0  0  0  0
   56.6500   31.4090   44.2380 C   0  0  0  0  0  0  0  0  0  0  0  0
   55.7917   32.0142   43.9108 H   0  0  0  0  0  0  0  0  0  0  0  0
   56.7980   30.1040   43.7670 C   0  0  0  0  0  0  0  0  0  0  0  0
   56.0519   29.6824   43.0773 H   0  0  0  0  0  0  0  0  0  0  0  0
   57.8900   29.3310   44.1680 C   0  0  0  0  0  0  0  0  0  0  0  0
   57.9963   28.2995   43.8009 H   0  0  0  0  0  0  0  0  0  0  0  0
   58.8540   29.8680   45.0400 C   0  0  0  0  0  0  0  0  0  0  0  0
   59.9570   29.1200   45.4800 O   0  0  0  0  0  0  0  0  0  0  0  0
   60.1340   28.6210   46.7790 C   0  0  0  0  0  0  0  0  0  0  0  0
   60.2290   29.5020   47.8110 N   0  0  0  0  0  0  0  0  0  0  0  0
   60.4390   29.1040   49.0950 C   0  0  0  0  0  0  0  0  0  0  0  0
   60.4960   30.0770   50.1020 O   0  0  0  0  0  0  0  0  0  0  0  0
   59.3990   30.5730   50.8240 C   0  0  0  0  0  0  0  0  0  0  0  0
   58.8580   29.8670   51.9150 C   0  0  0  0  0  0  0  0  0  0  0  0
   59.2878   28.8975   52.2073 H   0  0  0  0  0  0  0  0  0  0  0  0
   57.7780   30.3920   52.6280 C   0  0  0  0  0  0  0  0  0  0  0  0
   57.3569   29.8331   53.4767 H   0  0  0  0  0  0  0  0  0  0  0  0
   57.2320   31.6240   52.2660 C   0  0  0  0  0  0  0  0  0  0  0  0
   56.3733   32.0292   52.8214 H   0  0  0  0  0  0  0  0  0  0  0  0
   57.7750   32.3430   51.1990 C   0  0  0  0  0  0  0  0  0  0  0  0
   57.3404   33.3127   50.9148 H   0  0  0  0  0  0  0  0  0  0  0  0
   58.8750   31.8330   50.4860 C   0  0  0  0  0  0  0  0  0  0  0  0
   59.4290   32.5390   49.3650 N   0  0  0  0  0  0  0  0  0  0  0  0
   59.9130   33.8850   49.3870 C   0  0  0  0  0  0  0  0  0  0  0  0
   59.3090   34.7650   48.7180 O   0  0  0  0  0  0  0  0  0  0  0  0
   61.1150   34.2140   50.0940 N   0  0  0  0  0  0  0  0  0  0  0  0
   62.3090   33.4290   50.0100 C   0  0  0  0  0  0  0  0  0  0  0  0
   62.9350   33.0450   51.2040 C   0  0  0  0  0  0  0  0  0  0  0  0
   62.5090   33.3577   52.1687 H   0  0  0  0  0  0  0  0  0  0  0  0
   64.0960   32.2680   51.1780 C   0  0  0  0  0  0  0  0  0  0  0  0
   64.5729   31.9592   52.1199 H   0  0  0  0  0  0  0  0  0  0  0  0
   64.6500   31.8840   49.9560 C   0  0  0  0  0  0  0  0  0  0  0  0
   65.5616   31.2686   49.9364 H   0  0  0  0  0  0  0  0  0  0  0  0
   64.0500   32.2790   48.7570 C   0  0  0  0  0  0  0  0  0  0  0  0
   64.5003   31.9793   47.7992 H   0  0  0  0  0  0  0  0  0  0  0  0
   62.8730   33.0580   48.7610 C   0  0  0  0  0  0  0  0  0  0  0  0
   62.2700   33.5210   47.4380 C   0  0  0  0  0  0  0  0  0  0  0  0
   61.6917   34.4361   47.6333 H   0  0  0  0  0  0  0  0  0  0  0  0
   63.3700   33.8640   46.4260 C   0  0  0  0  0  0  0  0  0  0  0  0
   64.2864   34.1497   46.9633 H   0  0  0  0  0  0  0  0  0  0  0  0
   63.5737   32.9867   45.7944 H   0  0  0  0  0  0  0  0  0  0  0  0
   63.0390   34.7016   45.7944 H   0  0  0  0  0  0  0  0  0  0  0  0
   61.3020   32.4750   46.8710 C   0  0  0  0  0  0  0  0  0  0  0  0
   60.8102   31.9436   47.6991 H   0  0  0  0  0  0  0  0  0  0  0  0
   60.5416   32.9757   46.2536 H   0  0  0  0  0  0  0  0  0  0  0  0
   61.8600   31.7556   46.2536 H   0  0  0  0  0  0  0  0  0  0  0  0
   60.5460   27.7330   49.3840 C   0  0  0  0  0  0  0  0  0  0  0  0
   60.6953   27.3934   50.4195 H   0  0  0  0  0  0  0  0  0  0  0  0
   60.4610   26.8080   48.3450 C   0  0  0  0  0  0  0  0  0  0  0  0
   60.5500   25.7324   48.5577 H   0  0  0  0  0  0  0  0  0  0  0  0
   60.2630   27.2460   47.0350 C   0  0  0  0  0  0  0  0  0  0  0  0
   60.2084   26.5206   46.2099 H   0  0  0  0  0  0  0  0  0  0  0  0
   58.6880   31.1710   45.5270 C   0  0  0  0  0  0  0  0  0  0  0  0
   59.4250   31.5860   46.2303 H   0  0  0  0  0  0  0  0  0  0  0  0
   58.1180   33.7390   46.8420 N   0  0  0  0  0  0  0  0  0  0  0  0
   58.0350   34.7200   47.1940 H   0  0  0  0  0  0  0  0  0  0  0  0
   58.6860   33.0580   47.3980 H   0  0  0  0  0  0  0  0  0  0  0  0
  1  2  1  0
  2  3  2  0
  3  4  1  0
  4  5  2  0
  5  6  1  0
  5  7  1  0
  7  8  1  0
  7  9  2  0
  9 10  1  0
  9 11  1  0
 11 12  1  0
 12 13  1  0
 13 14  2  0
 14 15  1  0
 15 16  1  0
 16 17  1  0
 17 18  2  0
 18 19  1  0
 18 20  1  0
 20 21  1  0
 20 22  2  0
 22 23  1  0
 22 24  1  0
 24 25  1  0
 24 26  2  0
 26 27  1  0
 27 28  1  0
 28 29  2  0
 28 30  1  0
 30 31  1  0
 31 32  2  0
 32 33  1  0
 32 34  1  0
 34 35  1  0
 34 36  2  0
 36 37  1  0
 36 38  1  0
 38 39  1  0
 38 40  2  0
 40 41  1  0
 41 42  1  0
 41 43  1  0
 43 44  1  0
 43 45  1  0
 43 46  1  0
 41 47  1  0
 47 48  1  0
 47 49  1  0
 47 50  1  0
 15 51  2  0
 51 52  1  0
 51 53  1  0
 53 54  1  0
 53 55  2  0
 55 56  1  0
 11 57  2  0
 57 58  1  0
  3 59  1  0
 59 60  1  0
 59 61  1  0
 57  4  1  0
 55 13  1  0
 26 17  1  0
 40 31  1  0
M  CHG  2  27  -1  30  -1
M  END
>  <UniqueID>  (37) 
35

>  <SMILES>  (37) 
[H]/N=C(/N)c1cccc(Oc2cccc(Oc3ccccc3[N-]C(=O)[N-]c3ccccc3C(C)C)n2)c1

>  <Energy>  (37) 
90.27566579388603

>  <Genealogy>  (37) 
CC(C)c1ccccc1[N-]C(=O)[N-]c1ccccc1Oc1cccc(Oc2cccc(C(=N)N)c2)n1 (protonated)
[H]/N=C(/N)c1cccc(Oc2cccc(Oc3ccccc3[N-]C(=O)[N-]c3ccccc3C(C)C)n2)c1 (cis-trans isomerization)
[H]/N=C(/N)c1cccc(Oc2cccc(Oc3ccccc3[N-]C(=O)[N-]c3ccccc3C(C)C)n2)c1 (3D coordinates assigned)
[H]/N=C(/N)c1cccc(Oc2cccc(Oc3ccccc3[N-]C(=O)[N-]c3ccccc3C(C)C)n2)c1 (optimized conformer: 90.27566579388603 kcal/mol)

>  <smiles>  (37) 
CC(C)c1ccccc1NC(=O)Nc1ccccc1Oc1cccc(Oc2cccc(C(=N)N)c2)n1

>  <score_type>  (37) 
oracle

>  <origin>  (37) 
adg

>  <m_score__min__energy>  (37) 
-14.15

>  <m_primary>  (37) 
energy

$$$$
37:0
     RDKit          3D

 71 74  0  0  0  0  0  0  0  0999 V2000
   66.2560   32.3220   50.4090 C   0  0  0  0  0  0  0  0  0  0  0  0
   64.8450   32.2590   50.5950 O   0  0  0  0  0  0  0  0  0  0  0  0
   63.9030   32.7870   49.6980 C   0  0  0  0  0  0  0  0  0  0  0  0
   64.0550   32.5130   48.3320 C   0  0  0  0  0  0  0  0  0  0  0  0
   63.1300   32.9990   47.4030 C   0  0  0  0  0  0  0  0  0  0  0  0
   62.0350   33.7620   47.8330 C   0  0  0  0  0  0  0  0  0  0  0  0
   61.0710   34.2620   46.9020 N   0  0  0  0  0  0  0  0  0  0  0  0
   59.3670   34.0140   47.0930 S   0  0  0  0  0  0  0  0  0  0  0  0
   58.7120   35.3350   47.3730 O   0  0  0  0  0  0  0  0  0  0  0  0
   59.1290   33.1070   48.2680 O   0  0  0  0  0  0  0  0  0  0  0  0
   58.6500   33.3290   45.6400 C   0  0  0  0  0  0  0  0  0  0  0  0
   59.1170   33.7040   44.3730 C   0  0  0  0  0  0  0  0  0  0  0  0
   58.5430   33.1520   43.2250 C   0  0  0  0  0  0  0  0  0  0  0  0
   57.4920   32.2290   43.3290 C   0  0  0  0  0  0  0  0  0  0  0  0
   56.9870   31.6270   42.1810 O   0  0  0  0  0  0  0  0  0  0  0  0
   56.9810   31.8910   44.6000 C   0  0  0  0  0  0  0  0  0  0  0  0
   55.9070   30.9540   44.7730 N   0  0  0  0  0  0  0  0  0  0  0  0
   55.8700   29.5980   44.3120 C   0  0  0  0  0  0  0  0  0  0  0  0
   55.7000   29.3410   43.0890 O   0  0  0  0  0  0  0  0  0  0  0  0
   55.9210   28.5090   45.2460 N   0  0  0  0  0  0  0  0  0  0  0  0
   56.8360   27.3590   45.2070 C   0  0  2  0  0  0  0  0  0  0  0  0
   56.2960   26.1860   46.0710 C   0  0  0  0  0  0  0  0  0  0  0  0
   56.1790   24.8610   45.3560 C   0  0  0  0  0  0  0  0  0  0  0  0
   55.1390   23.9700   45.6620 C   0  0  0  0  0  0  0  0  0  0  0  0
   55.0470   22.7380   45.0050 C   0  0  0  0  0  0  0  0  0  0  0  0
   55.9940   22.3850   44.0390 C   0  0  0  0  0  0  0  0  0  0  0  0
   55.8930   21.1700   43.3710 O   0  0  0  0  0  0  0  0  0  0  0  0
   57.0460   23.2570   43.7450 C   0  0  0  0  0  0  0  0  0  0  0  0
   57.1480   24.4830   44.4080 C   0  0  0  0  0  0  0  0  0  0  0  0
   58.2680   27.7610   45.4880 C   0  0  0  0  0  0  0  0  0  0  0  0
   59.1720   26.8840   45.4920 O   0  0  0  0  0  0  0  0  0  0  0  0
   58.6160   29.1110   45.8310 N   0  0  0  0  0  0  0  0  0  0  0  0
   58.1510   29.6730   47.1060 C   0  0  0  0  0  0  0  0  0  0  0  0
   58.9610   29.0850   48.2700 C   0  0  0  0  0  0  0  0  0  0  0  0
   60.3890   29.6520   48.4320 C   0  0  0  0  0  0  0  0  0  0  0  0
   60.9790   30.4290   47.2380 C   0  0  0  0  0  0  0  0  0  0  0  0
   61.0350   29.6210   45.9300 C   0  0  0  0  0  0  0  0  0  0  0  0
   59.7330   29.7450   45.1310 C   0  0  0  0  0  0  0  0  0  0  0  0
   57.5890   32.4210   45.7470 C   0  0  0  0  0  0  0  0  0  0  0  0
   61.9020   34.0750   49.1920 C   0  0  0  0  0  0  0  0  0  0  0  0
   62.8190   33.5800   50.1240 C   0  0  0  0  0  0  0  0  0  0  0  0
   66.7544   32.3443   51.3893 H   0  0  0  0  0  0  0  0  0  0  0  0
   66.5916   31.4379   49.8470 H   0  0  0  0  0  0  0  0  0  0  0  0
   66.5115   33.2324   49.8470 H   0  0  0  0  0  0  0  0  0  0  0  0
   64.9088   31.9108   47.9880 H   0  0  0  0  0  0  0  0  0  0  0  0
   63.2616   32.7823   46.3326 H   0  0  0  0  0  0  0  0  0  0  0  0
   59.9357   34.4331   44.2823 H   0  0  0  0  0  0  0  0  0  0  0  0
   58.9179   33.4433   42.2327 H   0  0  0  0  0  0  0  0  0  0  0  0
   56.3750   30.8190   42.2280 H   0  0  0  0  0  0  0  0  0  0  0  0
   56.8680   26.9673   44.1796 H   0  0  0  0  0  0  0  0  0  0  0  0
   56.9751   26.0524   46.9259 H   0  0  0  0  0  0  0  0  0  0  0  0
   55.2731   26.4671   46.3618 H   0  0  0  0  0  0  0  0  0  0  0  0
   54.3920   24.2415   46.4225 H   0  0  0  0  0  0  0  0  0  0  0  0
   54.2278   22.0457   45.2491 H   0  0  0  0  0  0  0  0  0  0  0  0
   57.7955   22.9776   42.9899 H   0  0  0  0  0  0  0  0  0  0  0  0
   57.9899   25.1559   44.1878 H   0  0  0  0  0  0  0  0  0  0  0  0
   58.2784   30.7655   47.0898 H   0  0  0  0  0  0  0  0  0  0  0  0
   57.0891   29.4213   47.2438 H   0  0  0  0  0  0  0  0  0  0  0  0
   58.4095   29.2812   49.2013 H   0  0  0  0  0  0  0  0  0  0  0  0
   59.0817   28.0146   48.0471 H   0  0  0  0  0  0  0  0  0  0  0  0
   60.3788   30.3319   49.2966 H   0  0  0  0  0  0  0  0  0  0  0  0
   61.0342   28.7678   48.5411 H   0  0  0  0  0  0  0  0  0  0  0  0
   60.3596   31.3217   47.0665 H   0  0  0  0  0  0  0  0  0  0  0  0
   62.0174   30.6774   47.5026 H   0  0  0  0  0  0  0  0  0  0  0  0
   61.8673   29.9947   45.3155 H   0  0  0  0  0  0  0  0  0  0  0  0
   61.1798   28.5614   46.1874 H   0  0  0  0  0  0  0  0  0  0  0  0
   59.5041   30.8106   44.9826 H   0  0  0  0  0  0  0  0  0  0  0  0
   59.8696   29.2374   44.1647 H   0  0  0  0  0  0  0  0  0  0  0  0
   57.2287   32.1203   46.7419 H   0  0  0  0  0  0  0  0  0  0  0  0
   61.0716   34.7136   49.5276 H   0  0  0  0  0  0  0  0  0  0  0  0
   62.6940   33.8101   51.1924 H   0  0  0  0  0  0  0  0  0  0  0  0
  1  2  1  0
  2  3  1  0
  3  4  2  0
  4  5  1  0
  5  6  2  0
  6  7  1  0
  7  8  1  0
  8  9  2  0
  8 10  2  0
  8 11  1  0
 11 12  2  0
 12 13  1  0
 13 14  2  0
 14 15  1  0
 14 16  1  0
 16 17  1  0
 17 18  1  0
 18 19  2  0
 18 20  1  0
 20 21  1  0
 21 22  1  0
 22 23  1  0
 23 24  2  0
 24 25  1  0
 25 26  2  0
 26 27  1  0
 26 28  1  0
 28 29  2  0
 21 30  1  0
 30 31  2  0
 30 32  1  0
 32 33  1  0
 33 34  1  0
 34 35  1  0
 35 36  1  0
 36 37  1  0
 37 38  1  0
 16 39  2  0
  6 40  1  0
 40 41  2  0
 41  3  1  0
 39 11  1  0
 29 23  1  0
 38 32  1  0
  1 42  1  0
  1 43  1  0
  1 44  1  0
  4 45  1  0
  5 46  1  0
 12 47  1  0
 13 48  1  0
 15 49  1  0
 21 50  1  6
 22 51  1  0
 22 52  1  0
 24 53  1  0
 25 54  1  0
 28 55  1  0
 29 56  1  0
 33 57  1  0
 33 58  1  0
 34 59  1  0
 34 60  1  0
 35 61  1  0
 35 62  1  0
 36 63  1  0
 36 64  1  0
 37 65  1  0
 37 66  1  0
 38 67  1  0
 38 68  1  0
 39 69  1  0
 40 70  1  0
 41 71  1  0
M  CHG  4   7  -1  17  -1  20  -1  27  -1
M  END
>  <UniqueID>  (38) 
36

>  <SMILES>  (38) 
COc1ccc([N-]S(=O)(=O)c2ccc(O)c([N-]C(=O)[N-][C@H](Cc3ccc([O-])cc3)C(=O)N3CCCCCC3)c2)cc1

>  <Energy>  (38) 
89.56351724659082

>  <Genealogy>  (38) 
COc1ccc([N-]S(=O)(=O)c2ccc(O)c([N-]C(=O)[N-]C(Cc3ccc([O-])cc3)C(=O)N3CCCCCC3)c2)cc1 (protonated)
COc1ccc([N-]S(=O)(=O)c2ccc(O)c([N-]C(=O)[N-][C@H](Cc3ccc([O-])cc3)C(=O)N3CCCCCC3)c2)cc1 (chirality)
COc1ccc([N-]S(=O)(=O)c2ccc(O)c([N-]C(=O)[N-][C@H](Cc3ccc([O-])cc3)C(=O)N3CCCCCC3)c2)cc1 (3D coordinates assigned)
COc1ccc([N-]S(=O)(=O)c2ccc(O)c([N-]C(=O)[N-][C@H](Cc3ccc([O-])cc3)C(=O)N3CCCCCC3)c2)cc1 (nonaromatic ring conformer: 89.56351724659082 kcal/mol)

>  <smiles>  (38) 
COc1ccc(NS(=O)(=O)c2ccc(O)c(NC(=O)NC(Cc3ccc(O)cc3)C(=O)N3CCCCCC3)c2)cc1

>  <score_type>  (38) 
oracle

>  <origin>  (38) 
adg

>  <m_score__min__energy>  (38) 
-12.94

>  <m_primary>  (38) 
energy

$$$$
38:0
     RDKit          3D

 50 52  0  0  0  0  0  0  0  0999 V2000
   60.4040   33.4510   49.1750 N   0  0  0  0  0  0  0  0  0  0  0  0
   60.3600   34.5150   48.1700 C   0  0  0  0  0  0  0  0  0  0  0  0
   59.4840   34.1130   47.0100 C   0  0  0  0  0  0  0  0  0  0  0  0
   59.3280   34.9710   45.9110 C   0  0  0  0  0  0  0  0  0  0  0  0
   58.5170   34.5970   44.8380 C   0  0  0  0  0  0  0  0  0  0  0  0
   57.8730   33.3590   44.8410 C   0  0  0  0  0  0  0  0  0  0  0  0
   58.0560   32.4700   45.9170 C   0  0  0  0  0  0  0  0  0  0  0  0
   57.4180   31.1850   45.9660 N   0  0  0  0  0  0  0  0  0  0  0  0
   57.8340   29.9860   45.3000 C   0  0  0  0  0  0  0  0  0  0  0  0
   57.8590   29.9340   44.0420 O   0  0  0  0  0  0  0  0  0  0  0  0
   58.2400   28.7950   46.0810 C   0  0  0  0  0  0  0  0  0  0  0  0
   57.4040   27.6650   46.0280 C   0  0  0  0  0  0  0  0  0  0  0  0
   57.7260   26.5020   46.7280 C   0  0  0  0  0  0  0  0  0  0  0  0
   58.8950   26.4430   47.4810 C   0  0  0  0  0  0  0  0  0  0  0  0
   59.7490   27.5450   47.5390 C   0  0  0  0  0  0  0  0  0  0  0  0
   59.4390   28.7340   46.8500 C   0  0  0  0  0  0  0  0  0  0  0  0
   60.4490   29.8600   46.8880 C   0  0  0  0  0  0  0  0  0  0  0  0
   60.4420   30.5340   48.2270 C   0  0  0  0  0  0  0  0  0  0  0  0
   61.4540   31.1860   48.5960 O   0  0  0  0  0  0  0  0  0  0  0  0
   59.2910   30.4140   49.0800 N   0  0  0  0  0  0  0  0  0  0  0  0
   59.2070   30.9730   50.4020 C   0  0  0  0  0  0  0  0  0  0  0  0
   60.0890   31.7810   50.8040 O   0  0  0  0  0  0  0  0  0  0  0  0
   58.0770   30.6330   51.3010 C   0  0  0  0  0  0  0  0  0  0  0  0
   56.9840   31.5070   51.4580 C   0  0  0  0  0  0  0  0  0  0  0  0
   55.9240   31.1700   52.3060 C   0  0  0  0  0  0  0  0  0  0  0  0
   55.9430   29.9600   53.0030 C   0  0  0  0  0  0  0  0  0  0  0  0
   57.0170   29.0800   52.8490 C   0  0  0  0  0  0  0  0  0  0  0  0
   58.0760   29.4110   51.9980 C   0  0  0  0  0  0  0  0  0  0  0  0
   58.8490   32.8610   47.0030 C   0  0  0  0  0  0  0  0  0  0  0  0
   61.4030   33.1890   49.3500 H   0  0  0  0  0  0  0  0  0  0  0  0
   59.8880   32.6100   48.8330 H   0  0  0  0  0  0  0  0  0  0  0  0
   59.9790   33.7890   50.0700 H   0  0  0  0  0  0  0  0  0  0  0  0
   59.9554   35.4292   48.6288 H   0  0  0  0  0  0  0  0  0  0  0  0
   61.3798   34.6949   47.7989 H   0  0  0  0  0  0  0  0  0  0  0  0
   59.8462   35.9412   45.8947 H   0  0  0  0  0  0  0  0  0  0  0  0
   58.3851   35.2810   43.9867 H   0  0  0  0  0  0  0  0  0  0  0  0
   57.2211   33.0773   44.0009 H   0  0  0  0  0  0  0  0  0  0  0  0
   56.4837   27.6988   45.4264 H   0  0  0  0  0  0  0  0  0  0  0  0
   57.0555   25.6310   46.6848 H   0  0  0  0  0  0  0  0  0  0  0  0
   59.1465   25.5248   48.0321 H   0  0  0  0  0  0  0  0  0  0  0  0
   60.6750   27.4846   48.1296 H   0  0  0  0  0  0  0  0  0  0  0  0
   61.4520   29.4519   46.6945 H   0  0  0  0  0  0  0  0  0  0  0  0
   60.1827   30.5997   46.1187 H   0  0  0  0  0  0  0  0  0  0  0  0
   58.4650   29.9040   48.6970 H   0  0  0  0  0  0  0  0  0  0  0  0
   56.9638   32.4607   50.9103 H   0  0  0  0  0  0  0  0  0  0  0  0
   55.0745   31.8588   52.4240 H   0  0  0  0  0  0  0  0  0  0  0  0
   55.1113   29.6995   53.6741 H   0  0  0  0  0  0  0  0  0  0  0  0
   57.0296   28.1265   53.3973 H   0  0  0  0  0  0  0  0  0  0  0  0
   58.9148   28.7105   51.8726 H   0  0  0  0  0  0  0  0  0  0  0  0
   58.9755   32.1809   47.8583 H   0  0  0  0  0  0  0  0  0  0  0  0
  1  2  1  0
  2  3  1  0
  3  4  2  0
  4  5  1  0
  5  6  2  0
  6  7  1  0
  7  8  1  0
  8  9  1  0
  9 10  2  0
  9 11  1  0
 11 12  2  0
 12 13  1  0
 13 14  2  0
 14 15  1  0
 15 16  2  0
 16 17  1  0
 17 18  1  0
 18 19  2  0
 18 20  1  0
 20 21  1  0
 21 22  2  0
 21 23  1  0
 23 24  2  0
 24 25  1  0
 25 26  2  0
 26 27  1  0
 27 28  2  0
  7 29  2  0
 29  3  1  0
 16 11  1  0
 28 23  1  0
  1 30  1  0
  1 31  1  0
  1 32  1  0
  2 33  1  0
  2 34  1  0
  4 35  1  0
  5 36  1  0
  6 37  1  0
 12 38  1  0
 13 39  1  0
 14 40  1  0
 15 41  1  0
 17 42  1  0
 17 43  1  0
 20 44  1  0
 24 45  1  0
 25 46  1  0
 26 47  1  0
 27 48  1  0
 28 49  1  0
 29 50  1  0
M  CHG  2   1   1   8  -1
M  END
>  <UniqueID>  (39) 
37

>  <SMILES>  (39) 
[NH3+]Cc1cccc([N-]C(=O)c2ccccc2CC(=O)NC(=O)c2ccccc2)c1

>  <Energy>  (39) 
61.42138617474899

>  <Genealogy>  (39) 
[NH3+]Cc1cccc([N-]C(=O)c2ccccc2CC(=O)NC(=O)c2ccccc2)c1 (protonated)
[NH3+]Cc1cccc([N-]C(=O)c2ccccc2CC(=O)NC(=O)c2ccccc2)c1 (3D coordinates assigned)
[NH3+]Cc1cccc([N-]C(=O)c2ccccc2CC(=O)NC(=O)c2ccccc2)c1 (optimized conformer: 61.42138617474899 kcal/mol)

>  <smiles>  (39) 
NCc1cccc(NC(=O)c2ccccc2CC(=O)NC(=O)c2ccccc2)c1

>  <score_type>  (39) 
oracle

>  <origin>  (39) 
adg

>  <m_score__min__energy>  (39) 
-10.6

>  <m_primary>  (39) 
energy

$$$$
39:0
     RDKit          3D

 76 78  0  0  0  0  0  0  0  0999 V2000
   61.9210   31.2400   48.8670 H   0  0  0  0  0  0  0  0  0  0  0  0
   62.7160   31.6680   48.3440 N   0  0  0  0  0  0  0  0  0  0  0  0
   62.1350   33.1420   47.6640 S   0  0  0  0  0  0  0  0  0  0  0  0
   62.3780   34.2750   48.6220 O   0  0  0  0  0  0  0  0  0  0  0  0
   62.8960   33.4180   46.3980 O   0  0  0  0  0  0  0  0  0  0  0  0
   60.4050   32.9910   47.3170 C   0  0  0  0  0  0  0  0  0  0  0  0
   60.0080   32.7330   45.9890 C   0  0  0  0  0  0  0  0  0  0  0  0
   60.7742   32.5967   45.2116 H   0  0  0  0  0  0  0  0  0  0  0  0
   58.6450   32.6470   45.6420 C   0  0  0  0  0  0  0  0  0  0  0  0
   58.1520   32.5590   44.2370 C   0  0  0  0  0  0  0  0  0  0  0  0
   57.9831   33.5224   43.7336 H   0  0  0  0  0  0  0  0  0  0  0  0
   57.8860   31.4700   43.5020 C   0  0  0  0  0  0  0  0  0  0  0  0
   58.3202   31.4538   42.4915 H   0  0  0  0  0  0  0  0  0  0  0  0
   57.0870   30.2950   43.8770 C   0  0  0  0  0  0  0  0  0  0  0  0
   56.0590   30.4800   44.5860 O   0  0  0  0  0  0  0  0  0  0  0  0
   57.5580   28.9600   43.6330 N   0  0  0  0  0  0  0  0  0  0  0  0
   58.3010   28.8120   42.9090 H   0  0  0  0  0  0  0  0  0  0  0  0
   57.4050   27.9300   44.6640 C   0  0  0  0  0  0  0  0  0  0  0  0
   56.3344   27.8069   44.8848 H   0  0  0  0  0  0  0  0  0  0  0  0
   57.9636   28.2583   45.5529 H   0  0  0  0  0  0  0  0  0  0  0  0
   57.9760   26.5780   44.2250 C   0  0  0  0  0  0  0  0  0  0  0  0
   58.9343   26.4217   44.7420 H   0  0  0  0  0  0  0  0  0  0  0  0
   58.0895   26.6176   43.1316 H   0  0  0  0  0  0  0  0  0  0  0  0
   57.0720   25.4060   44.5320 C   0  0  0  0  0  0  0  0  0  0  0  0
   56.1980   25.4710   45.6270 C   0  0  0  0  0  0  0  0  0  0  0  0
   56.2325   26.3399   46.3007 H   0  0  0  0  0  0  0  0  0  0  0  0
   55.2850   24.4440   45.8700 C   0  0  0  0  0  0  0  0  0  0  0  0
   54.5968   24.5165   46.7251 H   0  0  0  0  0  0  0  0  0  0  0  0
   55.2380   23.3170   45.0300 C   0  0  0  0  0  0  0  0  0  0  0  0
   54.3640   22.2440   45.2680 O   0  0  0  0  0  0  0  0  0  0  0  0
   53.7530   21.9640   46.5230 C   0  0  0  0  0  0  0  0  0  0  0  0
   54.4268   22.2728   47.3358 H   0  0  0  0  0  0  0  0  0  0  0  0
   52.8059   22.5179   46.6014 H   0  0  0  0  0  0  0  0  0  0  0  0
   53.5542   20.8850   46.6014 H   0  0  0  0  0  0  0  0  0  0  0  0
   56.0860   23.2500   43.9130 C   0  0  0  0  0  0  0  0  0  0  0  0
   55.9940   22.1260   43.0740 O   0  0  0  0  0  0  0  0  0  0  0  0
   56.9710   21.0920   42.9930 C   0  0  0  0  0  0  0  0  0  0  0  0
   57.2629   20.7831   44.0076 H   0  0  0  0  0  0  0  0  0  0  0  0
   56.5493   20.2305   42.4544 H   0  0  0  0  0  0  0  0  0  0  0  0
   57.8550   21.4642   42.4544 H   0  0  0  0  0  0  0  0  0  0  0  0
   56.9890   24.3040   43.6600 C   0  0  0  0  0  0  0  0  0  0  0  0
   57.6357   24.2642   42.7711 H   0  0  0  0  0  0  0  0  0  0  0  0
   57.6850   32.8450   46.6460 C   0  0  0  0  0  0  0  0  0  0  0  0
   56.6161   32.7850   46.3932 H   0  0  0  0  0  0  0  0  0  0  0  0
   58.0650   33.1160   47.9560 C   0  0  0  0  0  0  0  0  0  0  0  0
   57.2919   33.2931   48.7183 H   0  0  0  0  0  0  0  0  0  0  0  0
   59.4160   33.1670   48.3200 C   0  0  0  0  0  0  0  0  0  0  0  0
   59.7960   33.6530   50.0230 S   0  0  0  0  0  0  0  0  0  0  0  0
   58.8280   32.3670   50.8400 C   0  0  0  0  0  0  0  0  0  0  0  0
   57.8370   32.7580   51.7490 C   0  0  0  0  0  0  0  0  0  0  0  0
   57.6846   33.8263   51.9622 H   0  0  0  0  0  0  0  0  0  0  0  0
   57.0410   31.8060   52.3870 C   0  0  0  0  0  0  0  0  0  0  0  0
   56.2709   32.1239   53.1053 H   0  0  0  0  0  0  0  0  0  0  0  0
   57.2230   30.4530   52.1130 C   0  0  0  0  0  0  0  0  0  0  0  0
   56.6177   29.7002   52.6392 H   0  0  0  0  0  0  0  0  0  0  0  0
   58.1740   30.0490   51.1700 C   0  0  0  0  0  0  0  0  0  0  0  0
   58.3103   28.9790   50.9543 H   0  0  0  0  0  0  0  0  0  0  0  0
   58.9570   31.0040   50.4960 C   0  0  0  0  0  0  0  0  0  0  0  0
   59.9140   30.6110   49.5010 N   0  0  0  0  0  0  0  0  0  0  0  0
   60.7160   29.4220   49.5100 C   0  0  0  0  0  0  0  0  0  0  0  0
   61.8490   29.4080   50.0640 O   0  0  0  0  0  0  0  0  0  0  0  0
   60.1850   28.1780   48.8690 C   0  0  0  0  0  0  0  0  0  0  0  0
   61.0256   27.6062   48.4490 H   0  0  0  0  0  0  0  0  0  0  0  0
   59.6571   27.5939   49.6372 H   0  0  0  0  0  0  0  0  0  0  0  0
   59.1880   28.5020   47.7410 C   0  0  0  0  0  0  0  0  0  0  0  0
   58.2987   27.8657   47.8605 H   0  0  0  0  0  0  0  0  0  0  0  0
   58.9296   29.5687   47.8146 H   0  0  0  0  0  0  0  0  0  0  0  0
   59.7660   28.2660   46.4000 N   0  0  0  0  0  0  0  0  0  0  0  0
   60.5980   27.0480   46.3790 C   0  0  0  0  0  0  0  0  0  0  0  0
   60.8131   26.7331   47.4108 H   0  0  0  0  0  0  0  0  0  0  0  0
   60.0590   26.2448   45.8553 H   0  0  0  0  0  0  0  0  0  0  0  0
   61.5423   27.2580   45.8553 H   0  0  0  0  0  0  0  0  0  0  0  0
   60.5810   29.4220   45.9900 C   0  0  0  0  0  0  0  0  0  0  0  0
   60.9503   29.9458   46.8840 H   0  0  0  0  0  0  0  0  0  0  0  0
   61.4348   29.0743   45.3899 H   0  0  0  0  0  0  0  0  0  0  0  0
   59.9667   30.1094   45.3899 H   0  0  0  0  0  0  0  0  0  0  0  0
  1  2  1  0
  2  3  1  0
  3  4  2  0
  3  5  2  0
  3  6  1  0
  6  7  2  0
  7  8  1  0
  7  9  1  0
  9 10  1  0
 10 11  1  0
 10 12  2  0
 12 13  1  0
 12 14  1  0
 14 15  2  0
 14 16  1  0
 16 17  1  0
 16 18  1  0
 18 19  1  0
 18 20  1  0
 18 21  1  0
 21 22  1  0
 21 23  1  0
 21 24  1  0
 24 25  2  0
 25 26  1  0
 25 27  1  0
 27 28  1  0
 27 29  2  0
 29 30  1  0
 30 31  1  0
 31 32  1  0
 31 33  1  0
 31 34  1  0
 29 35  1  0
 35 36  1  0
 36 37  1  0
 37 38  1  0
 37 39  1  0
 37 40  1  0
 35 41  2  0
 41 42  1  0
  9 43  2  0
 43 44  1  0
 43 45  1  0
 45 46  1  0
 45 47  2  0
 47 48  1  0
 48 49  1  0
 49 50  2  0
 50 51  1  0
 50 52  1  0
 52 53  1  0
 52 54  2  0
 54 55  1  0
 54 56  1  0
 56 57  1  0
 56 58  2  0
 58 59  1  0
 59 60  1  0
 60 61  2  0
 60 62  1  0
 62 63  1  0
 62 64  1  0
 62 65  1  0
 65 66  1  0
 65 67  1  0
 65 68  1  0
 68 69  1  0
 69 70  1  0
 69 71  1  0
 69 72  1  0
 68 73  1  0
 73 74  1  0
 73 75  1  0
 73 76  1  0
 47  6  1  0
 58 49  1  0
 41 24  1  0
M  CHG  2   2  -1  59  -1
M  END
>  <UniqueID>  (40) 
38

>  <SMILES>  (40) 
COc1ccc(CCNC(=O)/C=C\c2ccc(Sc3ccccc3[N-]C(=O)CCN(C)C)c(S([NH-])(=O)=O)c2)cc1OC

>  <Energy>  (40) 
86.33455209605185

>  <Genealogy>  (40) 
COc1ccc(CCNC(=O)C=Cc2ccc(Sc3ccccc3[N-]C(=O)CCN(C)C)c(S([NH-])(=O)=O)c2)cc1OC (protonated)
COc1ccc(CCNC(=O)/C=C\c2ccc(Sc3ccccc3[N-]C(=O)CCN(C)C)c(S([NH-])(=O)=O)c2)cc1OC (cis-trans isomerization)
COc1ccc(CCNC(=O)/C=C\c2ccc(Sc3ccccc3[N-]C(=O)CCN(C)C)c(S([NH-])(=O)=O)c2)cc1OC (3D coordinates assigned)
COc1ccc(CCNC(=O)/C=C\c2ccc(Sc3ccccc3[N-]C(=O)CCN(C)C)c(S([NH-])(=O)=O)c2)cc1OC (optimized conformer: 86.33455209605185 kcal/mol)

>  <smiles>  (40) 
COc1ccc(CCNC(=O)C=Cc2ccc(Sc3ccccc3NC(=O)CCN(C)C)c(S(N)(=O)=O)c2)cc1OC

>  <score_type>  (40) 
oracle

>  <origin>  (40) 
adg

>  <m_score__min__energy>  (40) 
-12.98

>  <m_primary>  (40) 
energy

$$$$
40:0
     RDKit          3D

 46 49  0  0  0  0  0  0  0  0999 V2000
   59.3903   34.7934   43.4921 H   0  0  0  0  0  0  0  0  0  0  0  0
   59.0730   34.2630   44.4020 C   0  0  0  0  0  0  0  0  0  0  0  0
   59.2950   34.7520   45.6520 N   0  0  0  0  0  0  0  0  0  0  0  0
   58.8200   33.9240   46.6070 C   0  0  0  0  0  0  0  0  0  0  0  0
   58.8430   34.2490   47.8660 N   0  0  0  0  0  0  0  0  0  0  0  0
   59.3820   33.4790   48.9520 C   0  0  0  0  0  0  0  0  0  0  0  0
   59.6200   34.0230   50.0660 O   0  0  0  0  0  0  0  0  0  0  0  0
   59.6410   32.0320   48.7690 C   0  0  0  0  0  0  0  0  0  0  0  0
   60.7040   31.5910   47.9580 C   0  0  0  0  0  0  0  0  0  0  0  0
   61.3570   32.3270   47.4662 H   0  0  0  0  0  0  0  0  0  0  0  0
   60.9360   30.2250   47.7730 C   0  0  0  0  0  0  0  0  0  0  0  0
   61.7710   29.8906   47.1398 H   0  0  0  0  0  0  0  0  0  0  0  0
   60.1090   29.2840   48.3910 C   0  0  0  0  0  0  0  0  0  0  0  0
   60.2924   28.2094   48.2438 H   0  0  0  0  0  0  0  0  0  0  0  0
   59.0490   29.7080   49.1960 C   0  0  0  0  0  0  0  0  0  0  0  0
   58.3973   28.9665   49.6812 H   0  0  0  0  0  0  0  0  0  0  0  0
   58.8150   31.0730   49.3860 C   0  0  0  0  0  0  0  0  0  0  0  0
   57.9795   31.4003   50.0222 H   0  0  0  0  0  0  0  0  0  0  0  0
   58.0990   32.5460   45.9420 S   0  0  0  0  0  0  0  0  0  0  0  0
   58.4150   33.0430   44.3660 C   0  0  0  0  0  0  0  0  0  0  0  0
   57.7580   32.2710   42.8880 S   0  0  0  0  0  0  0  0  0  0  0  0
   57.4980   30.7240   43.7590 C   0  0  0  0  0  0  0  0  0  0  0  0
   56.1990   30.3000   44.0690 C   0  0  0  0  0  0  0  0  0  0  0  0
   55.3318   30.8199   43.6359 H   0  0  0  0  0  0  0  0  0  0  0  0
   56.0070   29.2160   44.9290 C   0  0  0  0  0  0  0  0  0  0  0  0
   54.9873   28.9009   45.1954 H   0  0  0  0  0  0  0  0  0  0  0  0
   57.1120   28.5280   45.4540 C   0  0  0  0  0  0  0  0  0  0  0  0
   56.9320   27.4980   46.4300 N   0  0  0  0  0  0  0  0  0  0  0  0
   56.2220   26.2910   46.1410 C   0  0  0  0  0  0  0  0  0  0  0  0
   54.9910   26.3490   45.8830 O   0  0  0  0  0  0  0  0  0  0  0  0
   56.9380   25.0500   46.0440 N   0  0  0  0  0  0  0  0  0  0  0  0
   56.8490   24.0640   45.0070 C   0  0  0  0  0  0  0  0  0  0  0  0
   55.8900   24.1370   43.9790 C   0  0  0  0  0  0  0  0  0  0  0  0
   55.1828   24.9790   43.9473 H   0  0  0  0  0  0  0  0  0  0  0  0
   55.8340   23.1420   42.9980 C   0  0  0  0  0  0  0  0  0  0  0  0
   55.0904   23.2088   42.1902 H   0  0  0  0  0  0  0  0  0  0  0  0
   56.7210   22.0630   43.0420 C   0  0  0  0  0  0  0  0  0  0  0  0
   56.6809   21.2860   42.2643 H   0  0  0  0  0  0  0  0  0  0  0  0
   57.6590   21.9710   44.0740 C   0  0  0  0  0  0  0  0  0  0  0  0
   58.3510   21.1169   44.1135 H   0  0  0  0  0  0  0  0  0  0  0  0
   57.7180   22.9640   45.0560 C   0  0  0  0  0  0  0  0  0  0  0  0
   58.4506   22.8823   45.8725 H   0  0  0  0  0  0  0  0  0  0  0  0
   58.4050   28.8960   45.0670 C   0  0  0  0  0  0  0  0  0  0  0  0
   59.2699   28.3125   45.4157 H   0  0  0  0  0  0  0  0  0  0  0  0
   58.5990   30.0040   44.2380 C   0  0  0  0  0  0  0  0  0  0  0  0
   59.6184   30.3110   43.9613 H   0  0  0  0  0  0  0  0  0  0  0  0
  1  2  1  0
  2  3  1  0
  3  4  1  0
  4  5  2  0
  5  6  1  0
  6  7  2  0
  6  8  1  0
  8  9  2  0
  9 10  1  0
  9 11  1  0
 11 12  1  0
 11 13  2  0
 13 14  1  0
 13 15  1  0
 15 16  1  0
 15 17  2  0
 17 18  1  0
  4 19  1  0
 19 20  1  0
 20 21  1  0
 21 22  1  0
 22 23  2  0
 23 24  1  0
 23 25  1  0
 25 26  1  0
 25 27  2  0
 27 28  1  0
 28 29  1  0
 29 30  2  0
 29 31  1  0
 31 32  1  0
 32 33  2  0
 33 34  1  0
 33 35  1  0
 35 36  1  0
 35 37  2  0
 37 38  1  0
 37 39  1  0
 39 40  1  0
 39 41  2  0
 41 42  1  0
 27 43  1  0
 43 44  1  0
 43 45  2  0
 45 46  1  0
 20  2  2  0
 45 22  1  0
 17  8  1  0
 41 32  1  0
M  CHG  3   3  -1  28  -1  31  -1
M  END
>  <UniqueID>  (41) 
39

>  <SMILES>  (41) 
O=C([N-]c1ccccc1)[N-]c1ccc(Sc2c[n-]/c(=N/C(=O)c3ccccc3)s2)cc1

>  <Energy>  (41) 
90.87376454299834

>  <Genealogy>  (41) 
O=C([N-]c1ccccc1)[N-]c1ccc(Sc2c[n-]c(=NC(=O)c3ccccc3)s2)cc1 (protonated)
O=C([N-]c1ccccc1)[N-]c1ccc(Sc2c[n-]/c(=N/C(=O)c3ccccc3)s2)cc1 (cis-trans isomerization)
O=C([N-]c1ccccc1)[N-]c1ccc(Sc2c[n-]/c(=N/C(=O)c3ccccc3)s2)cc1 (3D coordinates assigned)
O=C([N-]c1ccccc1)[N-]c1ccc(Sc2c[n-]/c(=N/C(=O)c3ccccc3)s2)cc1 (optimized conformer: 90.87376454299834 kcal/mol)

>  <smiles>  (41) 
O=C(Nc1ccccc1)Nc1ccc(Sc2c[nH]c(=NC(=O)c3ccccc3)s2)cc1

>  <score_type>  (41) 
oracle

>  <origin>  (41) 
adg

>  <m_score__min__energy>  (41) 
-14.6

>  <m_primary>  (41) 
energy

$$$$
41:0
     RDKit          3D

 59 63  0  0  0  0  0  0  0  0999 V2000
   64.0770   33.4160   47.4290 C   0  0  0  0  0  0  0  0  0  0  0  0
   64.1430   32.6360   48.6170 O   0  0  0  0  0  0  0  0  0  0  0  0
   64.7810   33.0380   49.8020 C   0  0  0  0  0  0  0  0  0  0  0  0
   66.0870   32.6180   50.1260 C   0  0  0  0  0  0  0  0  0  0  0  0
   66.7070   33.0790   51.2890 C   0  0  0  0  0  0  0  0  0  0  0  0
   66.0400   33.9660   52.1350 C   0  0  0  0  0  0  0  0  0  0  0  0
   64.7430   34.3840   51.8280 C   0  0  0  0  0  0  0  0  0  0  0  0
   64.0990   33.9030   50.6820 C   0  0  0  0  0  0  0  0  0  0  0  0
   62.7710   34.3600   50.3890 N   0  0  0  0  0  0  0  0  0  0  0  0
   61.9200   33.7280   49.6360 C   0  0  0  0  0  0  0  0  0  0  0  0
   61.3030   34.3250   48.5900 N   0  0  0  0  0  0  0  0  0  0  0  0
   60.4700   33.4960   47.9640 N   0  0  0  0  0  0  0  0  0  0  0  0
   59.7430   33.8210   46.8610 C   0  0  0  0  0  0  0  0  0  0  0  0
   59.8180   34.9820   46.3710 O   0  0  0  0  0  0  0  0  0  0  0  0
   58.9210   32.8340   46.2790 C   0  0  0  0  0  0  0  0  0  0  0  0
   58.1530   33.0790   45.1280 C   0  0  0  0  0  0  0  0  0  0  0  0
   57.3890   32.0530   44.5620 C   0  0  0  0  0  0  0  0  0  0  0  0
   57.3780   30.7710   45.1360 C   0  0  0  0  0  0  0  0  0  0  0  0
   56.6300   29.6690   44.4830 C   0  0  0  0  0  0  0  0  0  0  0  0
   56.5780   29.6130   43.2260 O   0  0  0  0  0  0  0  0  0  0  0  0
   55.9330   28.6740   45.2480 N   0  0  0  0  0  0  0  0  0  0  0  0
   56.4760   27.3980   45.6180 C   0  0  0  0  0  0  0  0  0  0  0  0
   57.8590   27.2010   45.5650 C   0  0  0  0  0  0  0  0  0  0  0  0
   58.4000   25.9350   45.8120 C   0  0  0  0  0  0  0  0  0  0  0  0
   57.5560   24.8570   46.1200 C   0  0  0  0  0  0  0  0  0  0  0  0
   58.1250   23.5230   46.3550 C   0  0  0  0  0  0  0  0  0  0  0  0
   59.2550   23.2590   45.8690 O   0  0  0  0  0  0  0  0  0  0  0  0
   57.4390   22.5060   47.1010 N   0  0  0  0  0  0  0  0  0  0  0  0
   56.7250   21.3170   46.6180 C   0  0  0  0  0  0  0  0  0  0  0  0
   56.4700   21.3720   45.1100 C   0  0  0  0  0  0  0  0  0  0  0  0
   57.4250   20.0210   47.0370 C   0  0  0  0  0  0  0  0  0  0  0  0
   56.1810   25.0760   46.2670 C   0  0  0  0  0  0  0  0  0  0  0  0
   55.6410   26.3380   46.0090 C   0  0  0  0  0  0  0  0  0  0  0  0
   58.1020   30.5400   46.3180 C   0  0  0  0  0  0  0  0  0  0  0  0
   58.8860   31.5500   46.8800 C   0  0  0  0  0  0  0  0  0  0  0  0
   59.6310   31.2870   47.9880 N   0  0  0  0  0  0  0  0  0  0  0  0
   60.4100   32.2630   48.5100 C   0  0  0  0  0  0  0  0  0  0  0  0
   61.4210   32.1120   49.8410 S   0  0  0  0  0  0  0  0  0  0  0  0
   63.9870   34.4799   47.6934 H   0  0  0  0  0  0  0  0  0  0  0  0
   64.9914   33.2613   46.8375 H   0  0  0  0  0  0  0  0  0  0  0  0
   63.2016   33.1098   46.8375 H   0  0  0  0  0  0  0  0  0  0  0  0
   66.6201   31.9239   49.4596 H   0  0  0  0  0  0  0  0  0  0  0  0
   67.7239   32.7421   51.5390 H   0  0  0  0  0  0  0  0  0  0  0  0
   66.5360   34.3363   53.0443 H   0  0  0  0  0  0  0  0  0  0  0  0
   64.2255   35.0942   52.4896 H   0  0  0  0  0  0  0  0  0  0  0  0
   58.1526   34.0796   44.6712 H   0  0  0  0  0  0  0  0  0  0  0  0
   56.7918   32.2518   43.6599 H   0  0  0  0  0  0  0  0  0  0  0  0
   58.5241   28.0446   45.3282 H   0  0  0  0  0  0  0  0  0  0  0  0
   59.4886   25.7842   45.7648 H   0  0  0  0  0  0  0  0  0  0  0  0
   55.7384   21.3179   47.1044 H   0  0  0  0  0  0  0  0  0  0  0  0
   55.4100   21.6006   44.9255 H   0  0  0  0  0  0  0  0  0  0  0  0
   57.0977   22.1554   44.6603 H   0  0  0  0  0  0  0  0  0  0  0  0
   56.7190   20.3995   44.6603 H   0  0  0  0  0  0  0  0  0  0  0  0
   57.4578   19.9604   48.1348 H   0  0  0  0  0  0  0  0  0  0  0  0
   56.8698   19.1590   46.6386 H   0  0  0  0  0  0  0  0  0  0  0  0
   58.4503   20.0127   46.6386 H   0  0  0  0  0  0  0  0  0  0  0  0
   55.5249   24.2528   46.5862 H   0  0  0  0  0  0  0  0  0  0  0  0
   54.5583   26.5025   46.1123 H   0  0  0  0  0  0  0  0  0  0  0  0
   58.0508   29.5550   46.8049 H   0  0  0  0  0  0  0  0  0  0  0  0
  1  2  1  0
  2  3  1  0
  3  4  2  0
  4  5  1  0
  5  6  2  0
  6  7  1  0
  7  8  2  0
  8  9  1  0
  9 10  2  3
 10 11  1  0
 11 12  1  0
 12 13  1  0
 13 14  2  0
 13 15  1  0
 15 16  2  0
 16 17  1  0
 17 18  2  0
 18 19  1  0
 19 20  2  0
 19 21  1  0
 21 22  1  0
 22 23  2  0
 23 24  1  0
 24 25  2  0
 25 26  1  0
 26 27  2  0
 26 28  1  0
 28 29  1  0
 29 30  1  0
 29 31  1  0
 25 32  1  0
 32 33  2  0
 18 34  1  0
 34 35  2  0
 35 36  1  0
 36 37  2  0
 37 38  1  0
  8  3  1  0
 38 10  1  0
 37 12  1  0
 35 15  1  0
 33 22  1  0
  1 39  1  0
  1 40  1  0
  1 41  1  0
  4 42  1  0
  5 43  1  0
  6 44  1  0
  7 45  1  0
 16 46  1  0
 17 47  1  0
 23 48  1  0
 24 49  1  0
 29 50  1  0
 30 51  1  0
 30 52  1  0
 30 53  1  0
 31 54  1  0
 31 55  1  0
 31 56  1  0
 32 57  1  0
 33 58  1  0
 34 59  1  0
M  CHG  3  11  -1  21  -1  28  -1
M  END
>  <UniqueID>  (42) 
40

>  <SMILES>  (42) 
COc1ccccc1N=c1[n-]n2c(=O)c3ccc(C(=O)[N-]c4ccc(C(=O)[N-]C(C)C)cc4)cc3nc2s1

>  <Energy>  (42) 
122.37119198292139

>  <Genealogy>  (42) 
COc1ccccc1N=c1[n-]n2c(=O)c3ccc(C(=O)[N-]c4ccc(C(=O)[N-]C(C)C)cc4)cc3nc2s1 (protonated)
COc1ccccc1N=c1[n-]n2c(=O)c3ccc(C(=O)[N-]c4ccc(C(=O)[N-]C(C)C)cc4)cc3nc2s1 (3D coordinates assigned)
COc1ccccc1N=c1[n-]n2c(=O)c3ccc(C(=O)[N-]c4ccc(C(=O)[N-]C(C)C)cc4)cc3nc2s1 (optimized conformer: 122.37119198292139 kcal/mol)

>  <smiles>  (42) 
COc1ccccc1N=c1[nH]n2c(=O)c3ccc(C(=O)Nc4ccc(C(=O)NC(C)C)cc4)cc3nc2s1

>  <score_type>  (42) 
oracle

>  <origin>  (42) 
adg

>  <m_score__min__energy>  (42) 
-13.67

>  <m_primary>  (42) 
energy

$$$$
42:0
     RDKit          3D

 52 55  0  0  0  0  0  0  0  0999 V2000
   53.8260   26.7200   46.3740 H   0  0  0  0  0  0  0  0  0  0  0  0
   54.3680   25.9980   45.8520 N   0  0  0  0  0  0  0  0  0  0  0  0
   55.7090   25.7010   46.2280 C   0  0  0  0  0  0  0  0  0  0  0  0
   55.9190   24.9790   47.2390 O   0  0  0  0  0  0  0  0  0  0  0  0
   56.8330   26.3270   45.5120 C   0  0  0  0  0  0  0  0  0  0  0  0
   57.0440   27.6930   45.4690 C   0  0  0  0  0  0  0  0  0  0  0  0
   56.2846   28.4629   45.6705 H   0  0  0  0  0  0  0  0  0  0  0  0
   58.3320   27.9300   45.1400 N   0  0  0  0  0  0  0  0  0  0  0  0
   59.0050   29.2290   45.2110 C   0  0  0  0  0  0  0  0  0  0  0  0
   60.5430   29.0810   45.3100 C   0  0  0  0  0  0  0  0  0  0  0  0
   60.7748   28.0361   45.5639 H   0  0  0  0  0  0  0  0  0  0  0  0
   60.9560   29.3804   44.3354 H   0  0  0  0  0  0  0  0  0  0  0  0
   61.1620   29.9520   46.3220 C   0  0  0  0  0  0  0  0  0  0  0  0
   61.6520   30.6390   47.1170 N   0  0  0  0  0  0  0  0  0  0  0  0
   58.3600   30.1860   46.1810 C   0  0  0  0  0  0  0  0  0  0  0  0
   59.0753   30.6048   46.9041 H   0  0  0  0  0  0  0  0  0  0  0  0
   57.5825   29.7801   46.8448 H   0  0  0  0  0  0  0  0  0  0  0  0
   57.9330   31.1700   45.1650 N   0  0  0  0  0  0  0  0  0  0  0  0
   57.4750   32.5180   45.1540 C   0  0  0  0  0  0  0  0  0  0  0  0
   57.4110   33.1440   44.0620 O   0  0  0  0  0  0  0  0  0  0  0  0
   57.1500   33.1710   46.3850 N   0  0  0  0  0  0  0  0  0  0  0  0
   58.0780   33.3650   47.4630 C   0  0  0  0  0  0  0  0  0  0  0  0
   58.1050   32.4330   48.5060 C   0  0  0  0  0  0  0  0  0  0  0  0
   57.4111   31.5795   48.4949 H   0  0  0  0  0  0  0  0  0  0  0  0
   59.0070   32.5800   49.5600 C   0  0  0  0  0  0  0  0  0  0  0  0
   59.0190   31.6790   50.5710 F   0  0  0  0  0  0  0  0  0  0  0  0
   59.9090   33.6450   49.5690 C   0  0  0  0  0  0  0  0  0  0  0  0
   60.6195   33.7565   50.4013 H   0  0  0  0  0  0  0  0  0  0  0  0
   59.9100   34.5700   48.5210 C   0  0  0  0  0  0  0  0  0  0  0  0
   60.6229   35.4077   48.5313 H   0  0  0  0  0  0  0  0  0  0  0  0
   59.0030   34.4350   47.4520 C   0  0  0  0  0  0  0  0  0  0  0  0
   59.0140   35.3210   46.3610 O   0  0  0  0  0  0  0  0  0  0  0  0
   59.4900   34.9990   45.0580 C   0  0  0  0  0  0  0  0  0  0  0  0
   60.3985   34.3844   45.1410 H   0  0  0  0  0  0  0  0  0  0  0  0
   58.7163   34.4380   44.5133 H   0  0  0  0  0  0  0  0  0  0  0  0
   59.7228   35.9259   44.5133 H   0  0  0  0  0  0  0  0  0  0  0  0
   58.5020   30.2180   44.1900 C   0  0  0  0  0  0  0  0  0  0  0  0
   59.3118   30.6579   43.5894 H   0  0  0  0  0  0  0  0  0  0  0  0
   57.8274   29.8350   43.4101 H   0  0  0  0  0  0  0  0  0  0  0  0
   58.9730   26.7810   44.9900 N   0  0  0  0  0  0  0  0  0  0  0  0
   58.0800   25.7900   45.1710 C   0  0  0  0  0  0  0  0  0  0  0  0
   58.4110   24.5380   45.0220 N   0  0  0  0  0  0  0  0  0  0  0  0
   57.6990   23.5380   44.2830 C   0  0  0  0  0  0  0  0  0  0  0  0
   56.6260   23.9190   43.4710 C   0  0  0  0  0  0  0  0  0  0  0  0
   56.3537   24.9804   43.3743 H   0  0  0  0  0  0  0  0  0  0  0  0
   55.9030   22.9420   42.7840 C   0  0  0  0  0  0  0  0  0  0  0  0
   55.0831   23.2363   42.1123 H   0  0  0  0  0  0  0  0  0  0  0  0
   56.2110   21.6260   42.9440 N   0  0  0  0  0  0  0  0  0  0  0  0
   57.2280   21.2250   43.7540 C   0  0  0  0  0  0  0  0  0  0  0  0
   57.4603   20.1547   43.8568 H   0  0  0  0  0  0  0  0  0  0  0  0
   57.9770   22.1730   44.4550 C   0  0  0  0  0  0  0  0  0  0  0  0
   58.7786   21.8523   45.1366 H   0  0  0  0  0  0  0  0  0  0  0  0
  1  2  1  0
  2  3  1  0
  3  4  2  0
  3  5  1  0
  5  6  2  0
  6  7  1  0
  6  8  1  0
  8  9  1  0
  9 10  1  0
 10 11  1  0
 10 12  1  0
 10 13  1  0
 13 14  3  0
  9 15  1  0
 15 16  1  0
 15 17  1  0
 15 18  1  0
 18 19  1  0
 19 20  2  0
 19 21  1  0
 21 22  1  0
 22 23  2  0
 23 24  1  0
 23 25  1  0
 25 26  1  0
 25 27  2  0
 27 28  1  0
 27 29  1  0
 29 30  1  0
 29 31  2  0
 31 32  1  0
 32 33  1  0
 33 34  1  0
 33 35  1  0
 33 36  1  0
 18 37  1  0
 37 38  1  0
 37 39  1  0
  8 40  1  0
 40 41  1  0
 41 42  2  0
 42 43  1  0
 43 44  2  0
 44 45  1  0
 44 46  1  0
 46 47  1  0
 46 48  2  0
 48 49  1  0
 49 50  1  0
 49 51  2  0
 51 52  1  0
 41  5  1  0
 51 43  1  0
 37  9  1  0
 31 22  1  0
M  CHG  3   2  -1  21  -1  40  -1
M  END
>  <UniqueID>  (43) 
41

>  <SMILES>  (43) 
COc1ccc(F)cc1[N-]C(=O)N1CC(CC#N)(n2cc(C([NH-])=O)/c(=N\c3ccncc3)[n-]2)C1

>  <Energy>  (43) 
154.03389865264947

>  <Genealogy>  (43) 
COc1ccc(F)cc1[N-]C(=O)N1CC(CC#N)(n2cc(C([NH-])=O)c(=Nc3ccncc3)[n-]2)C1 (protonated)
COc1ccc(F)cc1[N-]C(=O)N1CC(CC#N)(n2cc(C([NH-])=O)/c(=N\c3ccncc3)[n-]2)C1 (cis-trans isomerization)
COc1ccc(F)cc1[N-]C(=O)N1CC(CC#N)(n2cc(C([NH-])=O)/c(=N\c3ccncc3)[n-]2)C1 (3D coordinates assigned)
COc1ccc(F)cc1[N-]C(=O)N1CC(CC#N)(n2cc(C([NH-])=O)/c(=N\c3ccncc3)[n-]2)C1 (nonaromatic ring conformer: 154.03389865264947 kcal/mol)

>  <smiles>  (43) 
COc1ccc(F)cc1NC(=O)N1CC(CC#N)(n2cc(C(N)=O)c(=Nc3ccncc3)[nH]2)C1

>  <score_type>  (43) 
oracle

>  <origin>  (43) 
adg

>  <m_score__min__energy>  (43) 
-13.789999999999999

>  <m_primary>  (43) 
energy

$$$$
43:0
     RDKit          3D

 28 30  0  0  0  0  0  0  0  0999 V2000
   55.5350   28.6040   45.1500 F   0  0  0  0  0  0  0  0  0  0  0  0
   56.7440   28.0600   45.4340 C   0  0  0  0  0  0  0  0  0  0  0  0
   57.9360   28.7570   45.1590 C   0  0  0  0  0  0  0  0  0  0  0  0
   59.1880   28.1760   45.4640 C   0  0  0  0  0  0  0  0  0  0  0  0
   59.2560   26.8940   46.0450 C   0  0  0  0  0  0  0  0  0  0  0  0
   58.0560   26.2360   46.3000 C   0  0  0  0  0  0  0  0  0  0  0  0
   57.8850   25.0240   46.8470 N   0  0  0  0  0  0  0  0  0  0  0  0
   56.5320   24.9030   46.8650 C   0  0  0  0  0  0  0  0  0  0  0  0
   55.7060   23.4610   47.5320 S   0  0  0  0  0  0  0  0  0  0  0  0
   54.7910   23.0880   45.9960 C   0  0  0  0  0  0  0  0  0  0  0  0
   55.7020   22.4960   44.9560 C   0  0  0  0  0  0  0  0  0  0  0  0
   55.8180   23.0800   43.6860 C   0  0  0  0  0  0  0  0  0  0  0  0
   56.6430   22.4980   42.7230 C   0  0  0  0  0  0  0  0  0  0  0  0
   57.3460   21.3340   43.0380 C   0  0  0  0  0  0  0  0  0  0  0  0
   57.2240   20.7750   44.2730 N   0  0  0  0  0  0  0  0  0  0  0  0
   56.4240   21.3240   45.2270 C   0  0  0  0  0  0  0  0  0  0  0  0
   55.8560   25.9650   46.3570 N   0  0  0  0  0  0  0  0  0  0  0  0
   56.8490   26.7950   46.0080 C   0  0  0  0  0  0  0  0  0  0  0  0
   57.8928   29.7579   44.7049 H   0  0  0  0  0  0  0  0  0  0  0  0
   60.1145   28.7277   45.2466 H   0  0  0  0  0  0  0  0  0  0  0  0
   60.2230   26.4296   46.2884 H   0  0  0  0  0  0  0  0  0  0  0  0
   53.9879   22.3708   46.2209 H   0  0  0  0  0  0  0  0  0  0  0  0
   54.3715   24.0253   45.6017 H   0  0  0  0  0  0  0  0  0  0  0  0
   55.2585   23.9970   43.4492 H   0  0  0  0  0  0  0  0  0  0  0  0
   56.7385   22.9519   41.7256 H   0  0  0  0  0  0  0  0  0  0  0  0
   58.0000   20.8675   42.2866 H   0  0  0  0  0  0  0  0  0  0  0  0
   57.7550   19.9020   44.4920 H   0  0  0  0  0  0  0  0  0  0  0  0
   56.3430   20.8469   46.2148 H   0  0  0  0  0  0  0  0  0  0  0  0
  1  2  1  0
  2  3  2  0
  3  4  1  0
  4  5  2  0
  5  6  1  0
  6  7  1  0
  7  8  1  0
  8  9  1  0
  9 10  1  0
 10 11  1  0
 11 12  2  0
 12 13  1  0
 13 14  2  0
 14 15  1  0
 15 16  2  0
  8 17  2  0
 17 18  1  0
 18  2  1  0
 18  6  2  0
 16 11  1  0
  3 19  1  0
  4 20  1  0
  5 21  1  0
 10 22  1  0
 10 23  1  0
 12 24  1  0
 13 25  1  0
 14 26  1  0
 15 27  1  0
 16 28  1  0
M  CHG  2   7  -1  15   1
M  END
>  <UniqueID>  (44) 
42

>  <SMILES>  (44) 
Fc1cccc2[n-]c(SCc3ccc[nH+]c3)nc12

>  <Energy>  (44) 
60.587816897257504

>  <Genealogy>  (44) 
Fc1cccc2[n-]c(SCc3ccc[nH+]c3)nc12 (protonated)
Fc1cccc2[n-]c(SCc3ccc[nH+]c3)nc12 (3D coordinates assigned)
Fc1cccc2[n-]c(SCc3ccc[nH+]c3)nc12 (optimized conformer: 60.587816897257504 kcal/mol)

>  <smiles>  (44) 
Fc1cccc2[nH]c(SCc3cccnc3)nc12

>  <score_type>  (44) 
oracle

>  <origin>  (44) 
adg

>  <m_score__min__energy>  (44) 
-7.1200000000000001

>  <m_primary>  (44) 
energy

$$$$
44:0
     RDKit          3D

 41 42  0  0  0  0  0  0  0  0999 V2000
   57.4380   31.8750   42.2160 O   0  0  0  0  0  0  0  0  0  0  0  0
   57.7760   31.6520   43.4090 C   0  0  0  0  0  0  0  0  0  0  0  0
   58.5550   32.6380   44.0990 N   0  0  0  0  0  0  0  0  0  0  0  0
   58.0660   33.9480   44.5140 C   0  0  0  0  0  0  0  0  0  0  0  0
   56.9900   33.7940   45.5910 C   0  0  0  0  0  0  0  0  0  0  0  0
   57.5660   33.2140   46.9000 C   0  0  0  0  0  0  0  0  0  0  0  0
   58.9410   32.6840   46.7320 N   0  0  2  0  0  0  0  0  0  0  0  0
   59.1000   31.4540   47.5460 C   0  0  0  0  0  0  0  0  0  0  0  0
   60.1090   30.4440   46.9540 C   0  0  0  0  0  0  0  0  0  0  0  0
   61.5920   30.8600   47.0150 C   0  0  0  0  0  0  0  0  0  0  0  0
   61.8420   32.1740   47.7770 C   0  0  0  0  0  0  0  0  0  0  0  0
   61.4070   33.4530   47.0210 C   0  0  0  0  0  0  0  0  0  0  0  0
   59.9160   33.7110   47.0710 C   0  0  0  0  0  0  0  0  0  0  0  0
   59.5300   34.8360   47.3550 O   0  0  0  0  0  0  0  0  0  0  0  0
   57.3240   30.4060   44.0600 C   0  0  0  0  0  0  0  0  0  0  0  0
   58.2360   29.4070   44.4280 C   0  0  0  0  0  0  0  0  0  0  0  0
   57.7800   28.2310   45.0280 C   0  0  0  0  0  0  0  0  0  0  0  0
   56.4090   28.0600   45.2430 C   0  0  0  0  0  0  0  0  0  0  0  0
   55.9820   27.0070   45.7840 O   0  0  0  0  0  0  0  0  0  0  0  0
   55.5360   29.0280   44.8630 N   0  0  0  0  0  0  0  0  0  0  0  0
   55.9570   30.1810   44.2760 C   0  0  0  0  0  0  0  0  0  0  0  0
   58.9027   34.5368   44.9180 H   0  0  0  0  0  0  0  0  0  0  0  0
   57.6314   34.4610   43.6434 H   0  0  0  0  0  0  0  0  0  0  0  0
   56.5532   34.7814   45.8013 H   0  0  0  0  0  0  0  0  0  0  0  0
   56.2279   33.0957   45.2146 H   0  0  0  0  0  0  0  0  0  0  0  0
   57.5853   34.0095   47.6594 H   0  0  0  0  0  0  0  0  0  0  0  0
   56.9212   32.3770   47.2059 H   0  0  0  0  0  0  0  0  0  0  0  0
   59.0760   32.4100   45.7290 H   0  0  0  0  0  0  0  0  0  0  0  0
   59.4463   31.7436   48.5491 H   0  0  0  0  0  0  0  0  0  0  0  0
   58.1203   30.9543   47.5686 H   0  0  0  0  0  0  0  0  0  0  0  0
   60.0014   29.4979   47.5047 H   0  0  0  0  0  0  0  0  0  0  0  0
   59.8640   30.3707   45.8841 H   0  0  0  0  0  0  0  0  0  0  0  0
   62.1561   30.0581   47.5137 H   0  0  0  0  0  0  0  0  0  0  0  0
   61.9193   31.0258   45.9780 H   0  0  0  0  0  0  0  0  0  0  0  0
   61.2866   32.1310   48.7255 H   0  0  0  0  0  0  0  0  0  0  0  0
   62.9305   32.2503   47.9160 H   0  0  0  0  0  0  0  0  0  0  0  0
   61.9239   34.3143   47.4693 H   0  0  0  0  0  0  0  0  0  0  0  0
   61.6733   33.3081   45.9636 H   0  0  0  0  0  0  0  0  0  0  0  0
   59.3112   29.5493   44.2442 H   0  0  0  0  0  0  0  0  0  0  0  0
   58.4917   27.4478   45.3281 H   0  0  0  0  0  0  0  0  0  0  0  0
   55.2219   30.9398   43.9696 H   0  0  0  0  0  0  0  0  0  0  0  0
  1  2  2  0
  2  3  1  0
  3  4  1  0
  4  5  1  0
  5  6  1  0
  6  7  1  0
  7  8  1  0
  8  9  1  0
  9 10  1  0
 10 11  1  0
 11 12  1  0
 12 13  1  0
 13 14  2  0
  2 15  1  0
 15 16  1  0
 16 17  2  0
 17 18  1  0
 18 19  2  0
 18 20  1  0
 20 21  1  0
 13  7  1  0
 21 15  2  0
  4 22  1  0
  4 23  1  0
  5 24  1  0
  5 25  1  0
  6 26  1  0
  6 27  1  0
  7 28  1  6
  8 29  1  0
  8 30  1  0
  9 31  1  0
  9 32  1  0
 10 33  1  0
 10 34  1  0
 11 35  1  0
 11 36  1  0
 12 37  1  0
 12 38  1  0
 16 39  1  0
 17 40  1  0
 21 41  1  0
M  CHG  3   3  -1   7   1  20  -1
M  END
>  <UniqueID>  (45) 
43

>  <SMILES>  (45) 
O=C([N-]CCC[N@@H+]1CCCCCC1=O)c1ccc(=O)[n-]c1

>  <Energy>  (45) 
52.82610040896713

>  <Genealogy>  (45) 
O=C([N-]CCC[NH+]1CCCCCC1=O)c1ccc(=O)[n-]c1 (protonated)
O=C([N-]CCC[N@@H+]1CCCCCC1=O)c1ccc(=O)[n-]c1 (chirality)
O=C([N-]CCC[N@@H+]1CCCCCC1=O)c1ccc(=O)[n-]c1 (3D coordinates assigned)
O=C([N-]CCC[N@@H+]1CCCCCC1=O)c1ccc(=O)[n-]c1 (nonaromatic ring conformer: 52.82610040896713 kcal/mol)

>  <smiles>  (45) 
O=C(NCCCN1CCCCCC1=O)c1ccc(=O)[nH]c1

>  <score_type>  (45) 
oracle

>  <origin>  (45) 
adg

>  <m_score__min__energy>  (45) 
-6.3799999999999999

>  <m_primary>  (45) 
energy

$$$$
45:0
     RDKit          3D

 11 11  0  0  0  0  0  0  0  0999 V2000
   55.1890   29.3360   44.7240 O   0  0  0  0  0  0  0  0  0  0  0  0
   56.0180   30.1190   44.1900 C   0  0  0  0  0  0  0  0  0  0  0  0
   56.8060   30.9030   44.9730 N   0  0  0  0  0  0  0  0  0  0  0  0
   57.7080   31.7570   44.4210 C   0  0  0  0  0  0  0  0  0  0  0  0
   57.8330   31.8370   43.0360 C   0  0  0  0  0  0  0  0  0  0  0  0
   57.0160   31.0250   42.2480 C   0  0  0  0  0  0  0  0  0  0  0  0
   56.1250   30.1830   42.8340 N   0  0  0  0  0  0  0  0  0  0  0  0
   58.3389   32.3846   45.0677 H   0  0  0  0  0  0  0  0  0  0  0  0
   58.5581   32.5235   42.5745 H   0  0  0  0  0  0  0  0  0  0  0  0
   57.0934   31.0667   41.1515 H   0  0  0  0  0  0  0  0  0  0  0  0
   55.5180   29.5800   42.2330 H   0  0  0  0  0  0  0  0  0  0  0  0
  1  2  2  0
  2  3  1  0
  3  4  2  0
  4  5  1  0
  5  6  2  0
  6  7  1  0
  7  2  1  0
  4  8  1  0
  5  9  1  0
  6 10  1  0
  7 11  1  0
M  END
>  <UniqueID>  (46) 
44

>  <SMILES>  (46) 
O=c1nccc[nH]1

>  <Energy>  (46) 
10.256315300465506

>  <Genealogy>  (46) 
O=c1nccc[nH]1 (3D coordinates assigned)
O=c1nccc[nH]1 (optimized conformer: 10.256315300465506 kcal/mol)

>  <smiles>  (46) 
O=c1nccc[nH]1

>  <score_type>  (46) 
oracle

>  <origin>  (46) 
adg

>  <m_score__min__energy>  (46) 
-4.4400000000000004

>  <m_primary>  (46) 
energy

$$$$
46:0
     RDKit          3D

 27 29  0  0  0  0  0  0  0  0999 V2000
   57.0960   25.2200   45.4270 O   0  0  0  0  0  0  0  0  0  0  0  0
   56.5830   26.2960   45.7990 N   0  0  0  0  0  0  0  0  0  0  0  0
   55.2210   26.3460   45.9960 O   0  0  0  0  0  0  0  0  0  0  0  0
   57.3990   27.4620   46.0210 C   0  0  0  0  0  0  0  0  0  0  0  0
   58.5820   27.3640   46.7620 C   0  0  0  0  0  0  0  0  0  0  0  0
   59.3820   28.4850   46.9810 C   0  0  0  0  0  0  0  0  0  0  0  0
   59.0280   29.7450   46.4500 C   0  0  0  0  0  0  0  0  0  0  0  0
   57.8120   29.8570   45.7270 C   0  0  0  0  0  0  0  0  0  0  0  0
   57.0180   28.7130   45.5120 C   0  0  0  0  0  0  0  0  0  0  0  0
   57.4120   31.0750   45.2530 N   0  0  0  0  0  0  0  0  0  0  0  0
   56.2280   31.1820   44.5520 O   0  0  0  0  0  0  0  0  0  0  0  0
   58.1630   32.1930   45.4770 C   0  0  0  0  0  0  0  0  0  0  0  0
   57.7410   33.4540   45.0070 C   0  0  0  0  0  0  0  0  0  0  0  0
   58.5180   34.5910   45.2330 C   0  0  0  0  0  0  0  0  0  0  0  0
   59.7220   34.4890   45.9280 C   0  0  0  0  0  0  0  0  0  0  0  0
   60.1550   33.2490   46.3990 C   0  0  0  0  0  0  0  0  0  0  0  0
   59.3850   32.0870   46.1840 C   0  0  0  0  0  0  0  0  0  0  0  0
   59.8100   30.8650   46.6350 N   0  0  0  0  0  0  0  0  0  0  0  0
   61.0490   30.8020   47.2530 O   0  0  0  0  0  0  0  0  0  0  0  0
   58.8845   26.3911   47.1767 H   0  0  0  0  0  0  0  0  0  0  0  0
   60.3020   28.3865   47.5759 H   0  0  0  0  0  0  0  0  0  0  0  0
   56.0850   28.8019   44.9362 H   0  0  0  0  0  0  0  0  0  0  0  0
   56.7919   33.5420   44.4579 H   0  0  0  0  0  0  0  0  0  0  0  0
   58.1796   35.5697   44.8619 H   0  0  0  0  0  0  0  0  0  0  0  0
   60.3316   35.3873   46.1054 H   0  0  0  0  0  0  0  0  0  0  0  0
   61.1077   33.1769   46.9442 H   0  0  0  0  0  0  0  0  0  0  0  0
   61.9300   30.8440   46.7630 H   0  0  0  0  0  0  0  0  0  0  0  0
  1  2  2  0
  2  3  1  0
  2  4  1  0
  4  5  2  0
  5  6  1  0
  6  7  2  0
  7  8  1  0
  8  9  2  0
  8 10  1  0
 10 11  1  0
 10 12  2  0
 12 13  1  0
 13 14  2  0
 14 15  1  0
 15 16  2  0
 16 17  1  0
 17 18  2  0
 18 19  1  0
  9  4  1  0
 17 12  1  0
 18  7  1  0
  5 20  1  0
  6 21  1  0
  9 22  1  0
 13 23  1  0
 14 24  1  0
 15 25  1  0
 16 26  1  0
 19 27  1  0
M  CHG  5   2   1   3  -1  10   1  11  -1  18   1
M  END
>  <UniqueID>  (47) 
45

>  <SMILES>  (47) 
O=[N+]([O-])c1ccc2c(c1)[n+]([O-])c1ccccc1[n+]2O

>  <Energy>  (47) 
47.268471695293336

>  <Genealogy>  (47) 
O=[N+]([O-])c1ccc2c(c1)[n+]([O-])c1ccccc1[n+]2O (protonated)
O=[N+]([O-])c1ccc2c(c1)[n+]([O-])c1ccccc1[n+]2O (3D coordinates assigned)
O=[N+]([O-])c1ccc2c(c1)[n+]([O-])c1ccccc1[n+]2O (optimized conformer: 47.268471695293336 kcal/mol)

>  <smiles>  (47) 
O=[N+]([O-])c1ccc2c(c1)[n+]([O-])c1ccccc1[n+]2[O-]

>  <score_type>  (47) 
oracle

>  <origin>  (47) 
adg

>  <m_score__min__energy>  (47) 
-5.46

>  <m_primary>  (47) 
energy

$$$$
47:0
     RDKit          3D

 33 34  0  0  0  0  0  0  0  0999 V2000
   54.9650   26.3460   46.0090 N   0  0  0  0  0  0  0  0  0  0  0  0
   56.5790   25.7400   46.1180 S   0  0  0  0  0  0  0  0  0  0  0  0
   56.7750   24.6450   45.1070 O   0  0  0  0  0  0  0  0  0  0  0  0
   56.8080   25.1730   47.4910 O   0  0  0  0  0  0  0  0  0  0  0  0
   57.7190   27.0460   45.8110 C   0  0  0  0  0  0  0  0  0  0  0  0
   59.0410   26.7580   45.4490 C   0  0  0  0  0  0  0  0  0  0  0  0
   59.9480   27.7960   45.2250 C   0  0  0  0  0  0  0  0  0  0  0  0
   59.5390   29.1270   45.3500 C   0  0  0  0  0  0  0  0  0  0  0  0
   58.2080   29.4270   45.6950 C   0  0  0  0  0  0  0  0  0  0  0  0
   57.7370   30.7760   45.8360 N   0  0  0  0  0  0  0  0  0  0  0  0
   57.0190   31.5490   44.8650 C   0  0  0  0  0  0  0  0  0  0  0  0
   56.0490   31.0590   44.2290 O   0  0  0  0  0  0  0  0  0  0  0  0
   57.3780   32.9870   44.6650 C   0  0  0  0  0  0  0  0  0  0  0  0
   58.8260   33.1760   44.7470 N   0  0  0  0  0  0  0  0  0  0  0  0
   59.3040   33.7880   46.3070 S   0  0  0  0  0  0  0  0  0  0  0  0
   58.1410   34.5070   46.9280 O   0  0  0  0  0  0  0  0  0  0  0  0
   60.4420   34.7590   46.1500 O   0  0  0  0  0  0  0  0  0  0  0  0
   59.7860   32.4770   47.3690 C   0  0  0  0  0  0  0  0  0  0  0  0
   60.9100   31.6790   47.2210 C   0  0  0  0  0  0  0  0  0  0  0  0
   61.0280   30.7120   48.2260 C   0  0  0  0  0  0  0  0  0  0  0  0
   60.0000   30.7500   49.1610 C   0  0  0  0  0  0  0  0  0  0  0  0
   58.9450   31.9910   48.7400 S   0  0  0  0  0  0  0  0  0  0  0  0
   57.3140   28.3800   45.9510 C   0  0  0  0  0  0  0  0  0  0  0  0
   54.8360   26.6930   45.0320 H   0  0  0  0  0  0  0  0  0  0  0  0
   59.3654   25.7125   45.3410 H   0  0  0  0  0  0  0  0  0  0  0  0
   60.9877   27.5656   44.9493 H   0  0  0  0  0  0  0  0  0  0  0  0
   60.2586   29.9410   45.1784 H   0  0  0  0  0  0  0  0  0  0  0  0
   57.0272   33.3121   43.6744 H   0  0  0  0  0  0  0  0  0  0  0  0
   56.8988   33.5837   45.4551 H   0  0  0  0  0  0  0  0  0  0  0  0
   61.6331   31.7938   46.4000 H   0  0  0  0  0  0  0  0  0  0  0  0
   61.8564   29.9898   48.2717 H   0  0  0  0  0  0  0  0  0  0  0  0
   59.8943   30.0822   50.0287 H   0  0  0  0  0  0  0  0  0  0  0  0
   56.2844   28.6069   46.2649 H   0  0  0  0  0  0  0  0  0  0  0  0
  1  2  1  0
  2  3  2  0
  2  4  2  0
  2  5  1  0
  5  6  2  0
  6  7  1  0
  7  8  2  0
  8  9  1  0
  9 10  1  0
 10 11  1  0
 11 12  2  0
 11 13  1  0
 13 14  1  0
 14 15  1  0
 15 16  2  0
 15 17  2  0
 15 18  1  0
 18 19  2  0
 19 20  1  0
 20 21  2  0
 21 22  1  0
  9 23  2  0
 23  5  1  0
 22 18  1  0
  1 24  1  0
  6 25  1  0
  7 26  1  0
  8 27  1  0
 13 28  1  0
 13 29  1  0
 19 30  1  0
 20 31  1  0
 21 32  1  0
 23 33  1  0
M  CHG  3   1  -1  10  -1  14  -1
M  END
>  <UniqueID>  (48) 
46

>  <SMILES>  (48) 
[NH-]S(=O)(=O)c1cccc([N-]C(=O)C[N-]S(=O)(=O)c2cccs2)c1

>  <Energy>  (48) 
57.736358531442775

>  <Genealogy>  (48) 
[NH-]S(=O)(=O)c1cccc([N-]C(=O)C[N-]S(=O)(=O)c2cccs2)c1 (protonated)
[NH-]S(=O)(=O)c1cccc([N-]C(=O)C[N-]S(=O)(=O)c2cccs2)c1 (3D coordinates assigned)
[NH-]S(=O)(=O)c1cccc([N-]C(=O)C[N-]S(=O)(=O)c2cccs2)c1 (optimized conformer: 57.736358531442775 kcal/mol)

>  <smiles>  (48) 
NS(=O)(=O)c1cccc(NC(=O)CNS(=O)(=O)c2cccs2)c1

>  <score_type>  (48) 
oracle

>  <origin>  (48) 
adg

>  <m_score__min__energy>  (48) 
-13.52

>  <m_primary>  (48) 
energy

$$$$
48:0
     RDKit          3D

 58 61  0  0  0  0  0  0  0  0999 V2000
   58.0830   32.6500   43.0550 C   0  0  0  0  0  0  0  0  0  0  0  0
   58.2250   33.0450   44.5000 C   0  0  0  0  0  0  0  0  0  0  0  0
   58.7440   34.3080   44.8270 C   0  0  0  0  0  0  0  0  0  0  0  0
   58.8830   34.6920   46.1640 C   0  0  0  0  0  0  0  0  0  0  0  0
   58.4990   33.8210   47.1850 C   0  0  0  0  0  0  0  0  0  0  0  0
   57.9640   32.5690   46.8740 C   0  0  0  0  0  0  0  0  0  0  0  0
   57.8040   32.1820   45.5380 C   0  0  0  0  0  0  0  0  0  0  0  0
   57.2340   30.9020   45.2480 N   0  0  0  0  0  0  0  0  0  0  0  0
   57.9890   29.7680   44.8040 C   0  0  0  0  0  0  0  0  0  0  0  0
   59.2000   29.9400   44.5000 O   0  0  0  0  0  0  0  0  0  0  0  0
   57.3840   28.3750   44.7780 C   0  0  1  0  0  0  0  0  0  0  0  0
   57.9580   27.4910   43.6500 C   0  0  0  0  0  0  0  0  0  0  0  0
   57.7810   26.0140   43.9850 C   0  0  0  0  0  0  0  0  0  0  0  0
   58.5630   25.6510   45.2610 C   0  0  0  0  0  0  0  0  0  0  0  0
   58.5410   26.7040   46.3030 N   0  0  0  0  0  0  0  0  0  0  0  0
   60.1140   27.4230   46.5780 S   0  0  0  0  0  0  0  0  0  0  0  0
   60.7080   27.9180   45.2880 O   0  0  0  0  0  0  0  0  0  0  0  0
   61.0580   26.4270   47.1900 O   0  0  0  0  0  0  0  0  0  0  0  0
   59.9120   28.7920   47.6660 C   0  0  0  0  0  0  0  0  0  0  0  0
   58.9320   28.7740   48.6560 C   0  0  0  0  0  0  0  0  0  0  0  0
   58.7670   29.8670   49.5020 C   0  0  0  0  0  0  0  0  0  0  0  0
   59.5810   31.0200   49.3770 C   0  0  0  0  0  0  0  0  0  0  0  0
   60.5790   31.0470   48.3600 C   0  0  0  0  0  0  0  0  0  0  0  0
   60.7230   29.9190   47.5150 C   0  0  0  0  0  0  0  0  0  0  0  0
   61.3780   32.1620   48.2170 N   0  0  0  0  0  0  0  0  0  0  0  0
   62.4180   32.2150   47.1690 C   0  0  0  0  0  0  0  0  0  0  0  0
   61.2040   33.2330   49.0550 C   0  0  0  0  0  0  0  0  0  0  0  0
   61.9250   34.2660   48.9400 O   0  0  0  0  0  0  0  0  0  0  0  0
   60.2270   33.2050   50.0530 C   0  0  0  0  0  0  0  0  0  0  0  0
   60.0990   34.2120   50.8040 O   0  0  0  0  0  0  0  0  0  0  0  0
   59.4230   32.1060   50.2110 N   0  0  0  0  0  0  0  0  0  0  0  0
   58.3960   32.0980   51.2750 C   0  0  0  0  0  0  0  0  0  0  0  0
   57.4590   27.6980   46.1740 C   0  0  0  0  0  0  0  0  0  0  0  0
   57.7115   31.6165   42.9922 H   0  0  0  0  0  0  0  0  0  0  0  0
   57.3717   33.3262   42.5582 H   0  0  0  0  0  0  0  0  0  0  0  0
   59.0620   32.7185   42.5582 H   0  0  0  0  0  0  0  0  0  0  0  0
   59.0432   34.9999   44.0259 H   0  0  0  0  0  0  0  0  0  0  0  0
   59.2953   35.6813   46.4116 H   0  0  0  0  0  0  0  0  0  0  0  0
   58.6180   34.1213   48.2365 H   0  0  0  0  0  0  0  0  0  0  0  0
   57.6671   31.8841   47.6820 H   0  0  0  0  0  0  0  0  0  0  0  0
   56.3174   28.4941   44.5367 H   0  0  0  0  0  0  0  0  0  0  0  0
   57.4305   27.7148   42.7111 H   0  0  0  0  0  0  0  0  0  0  0  0
   59.0317   27.7048   43.5426 H   0  0  0  0  0  0  0  0  0  0  0  0
   56.7128   25.8046   44.1436 H   0  0  0  0  0  0  0  0  0  0  0  0
   58.1664   25.4117   43.1491 H   0  0  0  0  0  0  0  0  0  0  0  0
   58.1257   24.7354   45.6857 H   0  0  0  0  0  0  0  0  0  0  0  0
   59.6139   25.5208   44.9632 H   0  0  0  0  0  0  0  0  0  0  0  0
   58.2853   27.8915   48.7697 H   0  0  0  0  0  0  0  0  0  0  0  0
   57.9912   29.8351   50.2811 H   0  0  0  0  0  0  0  0  0  0  0  0
   61.4882   29.9310   46.7249 H   0  0  0  0  0  0  0  0  0  0  0  0
   63.4108   32.2656   47.6399 H   0  0  0  0  0  0  0  0  0  0  0  0
   62.3545   31.3125   46.5434 H   0  0  0  0  0  0  0  0  0  0  0  0
   62.2630   33.1064   46.5434 H   0  0  0  0  0  0  0  0  0  0  0  0
   58.8875   32.1018   52.2591 H   0  0  0  0  0  0  0  0  0  0  0  0
   57.7613   32.9912   51.1787 H   0  0  0  0  0  0  0  0  0  0  0  0
   57.7753   31.1950   51.1787 H   0  0  0  0  0  0  0  0  0  0  0  0
   56.5008   27.1926   46.3649 H   0  0  0  0  0  0  0  0  0  0  0  0
   57.6711   28.4946   46.9023 H   0  0  0  0  0  0  0  0  0  0  0  0
  1  2  1  0
  2  3  2  0
  3  4  1  0
  4  5  2  0
  5  6  1  0
  6  7  2  0
  7  8  1  0
  8  9  1  0
  9 10  2  0
  9 11  1  0
 11 12  1  0
 12 13  1  0
 13 14  1  0
 14 15  1  0
 15 16  1  0
 16 17  2  0
 16 18  2  0
 16 19  1  0
 19 20  2  0
 20 21  1  0
 21 22  2  0
 22 23  1  0
 23 24  2  0
 23 25  1  0
 25 26  1  0
 25 27  1  0
 27 28  2  0
 27 29  1  0
 29 30  2  0
 29 31  1  0
 31 32  1  0
 15 33  1  0
  7  2  1  0
 33 11  1  0
 24 19  1  0
 31 22  1  0
  1 34  1  0
  1 35  1  0
  1 36  1  0
  3 37  1  0
  4 38  1  0
  5 39  1  0
  6 40  1  0
 11 41  1  6
 12 42  1  0
 12 43  1  0
 13 44  1  0
 13 45  1  0
 14 46  1  0
 14 47  1  0
 20 48  1  0
 21 49  1  0
 24 50  1  0
 26 51  1  0
 26 52  1  0
 26 53  1  0
 32 54  1  0
 32 55  1  0
 32 56  1  0
 33 57  1  0
 33 58  1  0
M  CHG  1   8  -1
M  END
>  <UniqueID>  (49) 
47

>  <SMILES>  (49) 
Cc1ccccc1[N-]C(=O)[C@H]1CCCN(S(=O)(=O)c2ccc3c(c2)n(C)c(=O)c(=O)n3C)C1

>  <Energy>  (49) 
96.04046481537807

>  <Genealogy>  (49) 
Cc1ccccc1[N-]C(=O)C1CCCN(S(=O)(=O)c2ccc3c(c2)n(C)c(=O)c(=O)n3C)C1 (protonated)
Cc1ccccc1[N-]C(=O)[C@H]1CCCN(S(=O)(=O)c2ccc3c(c2)n(C)c(=O)c(=O)n3C)C1 (chirality)
Cc1ccccc1[N-]C(=O)[C@H]1CCCN(S(=O)(=O)c2ccc3c(c2)n(C)c(=O)c(=O)n3C)C1 (3D coordinates assigned)
Cc1ccccc1[N-]C(=O)[C@H]1CCCN(S(=O)(=O)c2ccc3c(c2)n(C)c(=O)c(=O)n3C)C1 (nonaromatic ring conformer: 96.04046481537807 kcal/mol)

>  <smiles>  (49) 
Cc1ccccc1NC(=O)C1CCCN(S(=O)(=O)c2ccc3c(c2)n(C)c(=O)c(=O)n3C)C1

>  <score_type>  (49) 
oracle

>  <origin>  (49) 
adg

>  <m_score__min__energy>  (49) 
-11.449999999999999

>  <m_primary>  (49) 
energy

$$$$
49:0
     RDKit          3D

 47 49  0  0  0  0  0  0  0  0999 V2000
   56.3240   29.7680   42.4150 C   0  0  0  0  0  0  0  0  0  0  0  0
   56.8490   29.8080   43.8200 C   0  0  0  0  0  0  0  0  0  0  0  0
   57.0160   28.6190   44.5430 C   0  0  0  0  0  0  0  0  0  0  0  0
   57.5400   28.6450   45.8420 C   0  0  0  0  0  0  0  0  0  0  0  0
   57.7610   27.3610   46.5950 C   0  0  0  0  0  0  0  0  0  0  0  0
   56.9510   26.2590   45.9800 C   0  0  0  0  0  0  0  0  0  0  0  0
   57.5510   25.3170   45.1310 C   0  0  0  0  0  0  0  0  0  0  0  0
   56.7620   24.3290   44.5370 C   0  0  0  0  0  0  0  0  0  0  0  0
   57.2870   23.4730   43.7750 O   0  0  0  0  0  0  0  0  0  0  0  0
   55.3870   24.2950   44.7870 C   0  0  0  0  0  0  0  0  0  0  0  0
   54.8220   25.2560   45.6280 C   0  0  0  0  0  0  0  0  0  0  0  0
   55.6070   26.2100   46.1970 N   0  0  0  0  0  0  0  0  0  0  0  0
   57.9280   29.8700   46.4090 C   0  0  0  0  0  0  0  0  0  0  0  0
   57.7770   31.0700   45.6920 C   0  0  0  0  0  0  0  0  0  0  0  0
   58.2080   32.3640   46.2760 C   0  0  0  0  0  0  0  0  0  0  0  0
   57.7580   32.7160   47.4000 O   0  0  0  0  0  0  0  0  0  0  0  0
   59.1370   33.2120   45.5850 N   0  0  0  0  0  0  0  0  0  0  0  0
   59.4170   34.5780   46.0280 C   0  0  0  0  0  0  0  0  0  0  0  0
   60.1200   34.5770   47.3890 C   0  0  0  0  0  0  0  0  0  0  0  0
   61.2220   33.5490   47.4400 C   0  0  0  0  0  0  0  0  0  0  0  0
   62.4680   33.8210   46.8520 C   0  0  0  0  0  0  0  0  0  0  0  0
   63.4840   32.8600   46.8790 C   0  0  0  0  0  0  0  0  0  0  0  0
   63.2640   31.6240   47.4930 C   0  0  0  0  0  0  0  0  0  0  0  0
   62.0260   31.3460   48.0780 C   0  0  0  0  0  0  0  0  0  0  0  0
   61.0040   32.3000   48.0440 C   0  0  0  0  0  0  0  0  0  0  0  0
   57.2470   31.0250   44.3910 C   0  0  0  0  0  0  0  0  0  0  0  0
   55.2274   29.6844   42.4356 H   0  0  0  0  0  0  0  0  0  0  0  0
   56.6116   30.6907   41.8897 H   0  0  0  0  0  0  0  0  0  0  0  0
   56.7481   28.8996   41.8897 H   0  0  0  0  0  0  0  0  0  0  0  0
   56.7336   27.6585   44.0872 H   0  0  0  0  0  0  0  0  0  0  0  0
   58.8275   27.0946   46.5555 H   0  0  0  0  0  0  0  0  0  0  0  0
   57.4488   27.4978   47.6408 H   0  0  0  0  0  0  0  0  0  0  0  0
   58.6327   25.3560   44.9349 H   0  0  0  0  0  0  0  0  0  0  0  0
   54.7571   23.5198   44.3263 H   0  0  0  0  0  0  0  0  0  0  0  0
   53.7409   25.2415   45.8305 H   0  0  0  0  0  0  0  0  0  0  0  0
   58.3538   29.8908   47.4230 H   0  0  0  0  0  0  0  0  0  0  0  0
   59.7590   32.7940   44.8570 H   0  0  0  0  0  0  0  0  0  0  0  0
   60.0648   35.0711   45.2882 H   0  0  0  0  0  0  0  0  0  0  0  0
   58.4640   35.1188   46.1246 H   0  0  0  0  0  0  0  0  0  0  0  0
   60.5512   35.5727   47.5695 H   0  0  0  0  0  0  0  0  0  0  0  0
   59.3777   34.3264   48.1611 H   0  0  0  0  0  0  0  0  0  0  0  0
   62.6455   34.7930   46.3686 H   0  0  0  0  0  0  0  0  0  0  0  0
   64.4579   33.0775   46.4161 H   0  0  0  0  0  0  0  0  0  0  0  0
   64.0650   30.8705   47.5157 H   0  0  0  0  0  0  0  0  0  0  0  0
   61.8549   30.3752   48.5661 H   0  0  0  0  0  0  0  0  0  0  0  0
   60.0258   32.0713   48.4920 H   0  0  0  0  0  0  0  0  0  0  0  0
   57.1433   31.9557   43.8140 H   0  0  0  0  0  0  0  0  0  0  0  0
  1  2  1  0
  2  3  2  0
  3  4  1  0
  4  5  1  0
  5  6  1  0
  6  7  2  0
  7  8  1  0
  8  9  2  0
  8 10  1  0
 10 11  2  0
 11 12  1  0
  4 13  2  0
 13 14  1  0
 14 15  1  0
 15 16  2  0
 15 17  1  0
 17 18  1  0
 18 19  1  0
 19 20  1  0
 20 21  2  0
 21 22  1  0
 22 23  2  0
 23 24  1  0
 24 25  2  0
 14 26  2  0
 26  2  1  0
 12  6  1  0
 25 20  1  0
  1 27  1  0
  1 28  1  0
  1 29  1  0
  3 30  1  0
  5 31  1  0
  5 32  1  0
  7 33  1  0
 10 34  1  0
 11 35  1  0
 13 36  1  0
 17 37  1  0
 18 38  1  0
 18 39  1  0
 19 40  1  0
 19 41  1  0
 21 42  1  0
 22 43  1  0
 23 44  1  0
 24 45  1  0
 25 46  1  0
 26 47  1  0
M  CHG  1  12  -1
M  END
>  <UniqueID>  (50) 
48

>  <SMILES>  (50) 
Cc1cc(Cc2cc(=O)cc[n-]2)cc(C(=O)NCCc2ccccc2)c1

>  <Energy>  (50) 
44.13537677621668

>  <Genealogy>  (50) 
Cc1cc(Cc2cc(=O)cc[n-]2)cc(C(=O)NCCc2ccccc2)c1 (protonated)
Cc1cc(Cc2cc(=O)cc[n-]2)cc(C(=O)NCCc2ccccc2)c1 (3D coordinates assigned)
Cc1cc(Cc2cc(=O)cc[n-]2)cc(C(=O)NCCc2ccccc2)c1 (optimized conformer: 44.13537677621668 kcal/mol)

>  <smiles>  (50) 
Cc1cc(Cc2cc(=O)cc[nH]2)cc(C(=O)NCCc2ccccc2)c1

>  <score_type>  (50) 
oracle

>  <origin>  (50) 
adg

>  <m_score__min__energy>  (50) 
-10.33

>  <m_primary>  (50) 
energy

$$$$
50:0
     RDKit          3D

 37 38  0  0  0  0  0  0  0  0999 V2000
   54.5840   29.3690   45.7180 H   0  0  0  0  0  0  0  0  0  0  0  0
   55.1670   29.3410   44.8520 N   0  0  0  0  0  0  0  0  0  0  0  0
   56.5100   29.8200   44.8560 C   0  0  0  0  0  0  0  0  0  0  0  0
   56.7350   31.0200   44.5380 O   0  0  0  0  0  0  0  0  0  0  0  0
   57.6300   28.9240   45.2290 C   0  0  0  0  0  0  0  0  0  0  0  0
   57.8900   27.7600   44.4820 C   0  0  0  0  0  0  0  0  0  0  0  0
   57.2538   27.5100   43.6202 H   0  0  0  0  0  0  0  0  0  0  0  0
   58.9500   26.9210   44.8280 C   0  0  0  0  0  0  0  0  0  0  0  0
   59.1492   26.0169   44.2339 H   0  0  0  0  0  0  0  0  0  0  0  0
   59.7590   27.2240   45.9250 C   0  0  0  0  0  0  0  0  0  0  0  0
   60.5991   26.5634   46.1854 H   0  0  0  0  0  0  0  0  0  0  0  0
   59.5040   28.3690   46.6970 C   0  0  0  0  0  0  0  0  0  0  0  0
   60.3370   28.7150   47.8180 N   0  0  0  0  0  0  0  0  0  0  0  0
   60.6560   27.9460   48.4500 H   0  0  0  0  0  0  0  0  0  0  0  0
   60.7290   30.0580   48.1520 C   0  0  0  0  0  0  0  0  0  0  0  0
   60.9700   30.3720   49.5310 N   0  0  0  0  0  0  0  0  0  0  0  0
   60.7230   29.6770   50.2710 H   0  0  0  0  0  0  0  0  0  0  0  0
   61.4690   31.2370   49.8280 H   0  0  0  0  0  0  0  0  0  0  0  0
   60.9680   30.9270   47.2050 N   0  0  0  0  0  0  0  0  0  0  0  0
   61.6580   30.6850   46.4580 H   0  0  0  0  0  0  0  0  0  0  0  0
   60.3730   32.2340   47.1260 C   0  0  0  0  0  0  0  0  0  0  0  0
   59.3160   32.4800   46.2320 C   0  0  0  0  0  0  0  0  0  0  0  0
   58.9181   31.6597   45.6165 H   0  0  0  0  0  0  0  0  0  0  0  0
   58.7680   33.7610   46.1210 C   0  0  0  0  0  0  0  0  0  0  0  0
   57.4410   34.0540   45.0120 Cl  0  0  0  0  0  0  0  0  0  0  0  0
   59.2840   34.8080   46.8860 C   0  0  0  0  0  0  0  0  0  0  0  0
   58.8487   35.8147   46.8023 H   0  0  0  0  0  0  0  0  0  0  0  0
   60.3520   34.5810   47.7580 C   0  0  0  0  0  0  0  0  0  0  0  0
   60.7586   35.4123   48.3527 H   0  0  0  0  0  0  0  0  0  0  0  0
   60.9110   33.2940   47.8800 C   0  0  0  0  0  0  0  0  0  0  0  0
   61.9890   33.0280   48.7390 O   0  0  0  0  0  0  0  0  0  0  0  0
   63.3600   33.1180   48.3650 C   0  0  0  0  0  0  0  0  0  0  0  0
   63.9848   33.1590   49.2694 H   0  0  0  0  0  0  0  0  0  0  0  0
   63.6360   32.2360   47.7684 H   0  0  0  0  0  0  0  0  0  0  0  0
   63.5183   34.0285   47.7684 H   0  0  0  0  0  0  0  0  0  0  0  0
   58.4500   29.2220   46.3330 C   0  0  0  0  0  0  0  0  0  0  0  0
   58.2629   30.1345   46.9180 H   0  0  0  0  0  0  0  0  0  0  0  0
  1  2  1  0
  2  3  1  0
  3  4  2  0
  3  5  1  0
  5  6  2  0
  6  7  1  0
  6  8  1  0
  8  9  1  0
  8 10  2  0
 10 11  1  0
 10 12  1  0
 12 13  1  0
 13 14  1  0
 13 15  1  0
 15 16  1  0
 16 17  1  0
 16 18  1  0
 15 19  2  0
 19 20  1  0
 19 21  1  0
 21 22  2  0
 22 23  1  0
 22 24  1  0
 24 25  1  0
 24 26  2  0
 26 27  1  0
 26 28  1  0
 28 29  1  0
 28 30  2  0
 30 31  1  0
 31 32  1  0
 32 33  1  0
 32 34  1  0
 32 35  1  0
 12 36  2  0
 36 37  1  0
 36  5  1  0
 30 21  1  0
M  CHG  2   2  -1  19   1
M  END
>  <UniqueID>  (51) 
49

>  <SMILES>  (51) 
COc1ccc(Cl)cc1/[NH+]=C(\N)Nc1cccc(C([NH-])=O)c1

>  <Energy>  (51) 
48.05852908329127

>  <Genealogy>  (51) 
COc1ccc(Cl)cc1[NH+]=C(N)Nc1cccc(C([NH-])=O)c1 (protonated)
COc1ccc(Cl)cc1/[NH+]=C(\N)Nc1cccc(C([NH-])=O)c1 (cis-trans isomerization)
COc1ccc(Cl)cc1/[NH+]=C(\N)Nc1cccc(C([NH-])=O)c1 (3D coordinates assigned)
COc1ccc(Cl)cc1/[NH+]=C(\N)Nc1cccc(C([NH-])=O)c1 (optimized conformer: 48.05852908329127 kcal/mol)

>  <smiles>  (51) 
COc1ccc(Cl)cc1N=C(N)Nc1cccc(C(N)=O)c1

>  <score_type>  (51) 
oracle

>  <origin>  (51) 
adg

>  <m_score__min__energy>  (51) 
-9.0999999999999996

>  <m_primary>  (51) 
energy

$$$$
51:0
     RDKit          3D

 44 47  0  0  0  0  0  0  0  0999 V2000
   57.6020   25.5080   47.2540 C   0  0  0  0  0  0  0  0  0  0  0  0
   57.2370   26.1110   45.8740 C   0  0  1  0  0  0  0  0  0  0  0  0
   57.9260   27.4710   45.6560 C   0  0  0  0  0  0  0  0  0  0  0  0
   57.1740   28.6100   45.2890 C   0  0  0  0  0  0  0  0  0  0  0  0
   57.7660   29.8820   45.2100 C   0  0  0  0  0  0  0  0  0  0  0  0
   57.0020   31.0500   44.8730 N   0  0  0  0  0  0  0  0  0  0  0  0
   57.5060   32.3880   44.7520 C   0  0  0  0  0  0  0  0  0  0  0  0
   57.4010   32.9740   43.6430 O   0  0  0  0  0  0  0  0  0  0  0  0
   58.1700   33.0900   45.8710 C   0  0  0  0  0  0  0  0  0  0  0  0
   58.8100   34.3280   45.6870 C   0  0  0  0  0  0  0  0  0  0  0  0
   59.4430   34.9410   46.7700 C   0  0  0  0  0  0  0  0  0  0  0  0
   59.4210   34.3310   48.0250 C   0  0  0  0  0  0  0  0  0  0  0  0
   60.0320   34.9190   49.0830 F   0  0  0  0  0  0  0  0  0  0  0  0
   58.7530   33.1150   48.1810 C   0  0  0  0  0  0  0  0  0  0  0  0
   58.1480   32.5290   47.1120 N   0  0  0  0  0  0  0  0  0  0  0  0
   59.1350   30.0180   45.4460 C   0  0  0  0  0  0  0  0  0  0  0  0
   59.8920   28.9140   45.8330 C   0  0  0  0  0  0  0  0  0  0  0  0
   59.2970   27.6580   45.9670 C   0  0  0  0  0  0  0  0  0  0  0  0
   60.0630   26.6370   46.4290 F   0  0  0  0  0  0  0  0  0  0  0  0
   57.6750   25.1810   44.7240 C   0  0  0  0  0  0  0  0  0  0  0  0
   56.8440   23.6020   44.7810 S   0  0  0  0  0  0  0  0  0  0  0  0
   56.7600   23.0580   43.3830 O   0  0  0  0  0  0  0  0  0  0  0  0
   57.6610   22.6580   45.6170 O   0  0  0  0  0  0  0  0  0  0  0  0
   55.1800   23.8150   45.4520 C   0  0  2  0  0  0  0  0  0  0  0  0
   54.8730   22.9950   46.6100 C   0  0  0  0  0  0  0  0  0  0  0  0
   53.8720   22.2640   45.7730 C   0  0  0  0  0  0  0  0  0  0  0  0
   53.0710   21.3130   45.9680 O   0  0  0  0  0  0  0  0  0  0  0  0
   54.2130   23.1260   44.6200 N   0  0  0  0  0  0  0  0  0  0  0  0
   54.8010   25.2710   45.6290 C   0  0  0  0  0  0  0  0  0  0  0  0
   53.5830   25.5980   45.6340 O   0  0  0  0  0  0  0  0  0  0  0  0
   55.7820   26.2950   45.8370 N   0  0  0  0  0  0  0  0  0  0  0  0
   57.2101   26.1554   48.0523 H   0  0  0  0  0  0  0  0  0  0  0  0
   57.1592   24.5052   47.3447 H   0  0  0  0  0  0  0  0  0  0  0  0
   58.6958   25.4353   47.3447 H   0  0  0  0  0  0  0  0  0  0  0  0
   56.1038   28.4985   45.0606 H   0  0  0  0  0  0  0  0  0  0  0  0
   58.8121   34.8097   44.6981 H   0  0  0  0  0  0  0  0  0  0  0  0
   59.9583   35.9033   46.6343 H   0  0  0  0  0  0  0  0  0  0  0  0
   58.7157   32.6306   49.1679 H   0  0  0  0  0  0  0  0  0  0  0  0
   59.6175   30.9992   45.3262 H   0  0  0  0  0  0  0  0  0  0  0  0
   60.9668   29.0329   46.0345 H   0  0  0  0  0  0  0  0  0  0  0  0
   57.4433   25.6690   43.7658 H   0  0  0  0  0  0  0  0  0  0  0  0
   58.7547   24.9987   44.8293 H   0  0  0  0  0  0  0  0  0  0  0  0
   55.7100   22.3753   46.9641 H   0  0  0  0  0  0  0  0  0  0  0  0
   54.5913   23.4478   47.5721 H   0  0  0  0  0  0  0  0  0  0  0  0
  2  1  1  1
  2  3  1  0
  3  4  2  0
  4  5  1  0
  5  6  1  0
  6  7  1  0
  7  8  2  0
  7  9  1  0
  9 10  2  0
 10 11  1  0
 11 12  2  0
 12 13  1  0
 12 14  1  0
 14 15  2  0
  5 16  2  0
 16 17  1  0
 17 18  2  0
 18 19  1  0
  2 20  1  0
 20 21  1  0
 21 22  2  0
 21 23  2  0
 21 24  1  0
 24 25  1  0
 25 26  1  0
 26 27  2  0
 26 28  1  0
 24 29  1  0
 29 30  2  0
 29 31  1  0
 31  2  1  0
 18  3  1  0
 24 28  1  6
 15  9  1  0
  1 32  1  0
  1 33  1  0
  1 34  1  0
  4 35  1  0
 10 36  1  0
 11 37  1  0
 14 38  1  0
 16 39  1  0
 17 40  1  0
 20 41  1  0
 20 42  1  0
 25 43  1  0
 25 44  1  0
M  CHG  3   6  -1  28  -1  31  -1
M  END
>  <UniqueID>  (52) 
50

>  <SMILES>  (52) 
C[C@@]1(c2cc([N-]C(=O)c3ccc(F)cn3)ccc2F)CS(=O)(=O)[C@@]2(CC(=O)[N-]2)C(=O)[N-]1

>  <Energy>  (52) 
94.05313452482049

>  <Genealogy>  (52) 
CC1(c2cc([N-]C(=O)c3ccc(F)cn3)ccc2F)CS(=O)(=O)C2(CC(=O)[N-]2)C(=O)[N-]1 (protonated)
C[C@@]1(c2cc([N-]C(=O)c3ccc(F)cn3)ccc2F)CS(=O)(=O)[C@@]2(CC(=O)[N-]2)C(=O)[N-]1 (chirality)
C[C@@]1(c2cc([N-]C(=O)c3ccc(F)cn3)ccc2F)CS(=O)(=O)[C@@]2(CC(=O)[N-]2)C(=O)[N-]1 (3D coordinates assigned)
C[C@@]1(c2cc([N-]C(=O)c3ccc(F)cn3)ccc2F)CS(=O)(=O)[C@@]2(CC(=O)[N-]2)C(=O)[N-]1 (nonaromatic ring conformer: 94.05313452482049 kcal/mol)

>  <smiles>  (52) 
CC1(c2cc(NC(=O)c3ccc(F)cn3)ccc2F)CS(=O)(=O)C2(CC(=O)N2)C(=O)N1

>  <score_type>  (52) 
oracle

>  <origin>  (52) 
adg

>  <m_score__min__energy>  (52) 
-14.33

>  <m_primary>  (52) 
energy

$$$$
52:0
     RDKit          3D

 51 54  0  0  0  0  0  0  0  0999 V2000
   51.0350   32.3350   49.8830 N   0  0  0  0  0  0  0  0  0  0  0  0
   51.3700   32.2700   51.2680 C   0  0  0  0  0  0  0  0  0  0  0  0
   51.0310   33.2180   52.0270 O   0  0  0  0  0  0  0  0  0  0  0  0
   52.1020   31.1010   51.8130 C   0  0  0  0  0  0  0  0  0  0  0  0
   51.4150   30.0990   52.5210 C   0  0  0  0  0  0  0  0  0  0  0  0
   52.1070   29.0070   53.0490 C   0  0  0  0  0  0  0  0  0  0  0  0
   53.4870   28.8950   52.8710 C   0  0  0  0  0  0  0  0  0  0  0  0
   54.1860   29.8640   52.1440 C   0  0  0  0  0  0  0  0  0  0  0  0
   55.6110   29.7310   52.0140 N   0  0  0  0  0  0  0  0  0  0  0  0
   56.4700   30.6910   51.8300 C   0  0  0  0  0  0  0  0  0  0  0  0
   57.4260   30.5500   50.8740 N   0  0  0  0  0  0  0  0  0  0  0  0
   58.3350   31.5310   50.6200 C   0  0  0  0  0  0  0  0  0  0  0  0
   59.3300   31.3300   49.5980 N   0  0  0  0  0  0  0  0  0  0  0  0
   59.9000   32.3900   48.7810 C   0  0  0  0  0  0  0  0  0  0  0  0
   61.0070   31.7320   47.9670 C   0  0  0  0  0  0  0  0  0  0  0  0
   60.7300   30.2280   48.0250 C   0  0  2  0  0  0  0  0  0  0  0  0
   59.9910   29.8080   46.8280 N   0  0  0  0  0  0  0  0  0  0  0  0
   58.6900   30.3140   46.5120 C   0  0  0  0  0  0  0  0  0  0  0  0
   58.1430   31.1700   47.2600 O   0  0  0  0  0  0  0  0  0  0  0  0
   57.9970   29.7990   45.3680 N   0  0  0  0  0  0  0  0  0  0  0  0
   57.8090   28.4170   45.0370 C   0  0  0  0  0  0  0  0  0  0  0  0
   58.1460   27.9010   43.7720 C   0  0  0  0  0  0  0  0  0  0  0  0
   57.9700   26.5410   43.4980 C   0  0  0  0  0  0  0  0  0  0  0  0
   57.4720   25.6840   44.4850 C   0  0  0  0  0  0  0  0  0  0  0  0
   57.2280   23.8290   44.1070 Br  0  0  0  0  0  0  0  0  0  0  0  0
   57.1620   26.1860   45.7520 C   0  0  0  0  0  0  0  0  0  0  0  0
   57.3370   27.5460   46.0270 C   0  0  0  0  0  0  0  0  0  0  0  0
   59.8780   30.0230   49.2790 C   0  0  0  0  0  0  0  0  0  0  0  0
   58.2750   32.7210   51.3600 C   0  0  0  0  0  0  0  0  0  0  0  0
   57.2830   32.8580   52.3280 C   0  0  0  0  0  0  0  0  0  0  0  0
   56.4010   31.8490   52.5420 N   0  0  0  0  0  0  0  0  0  0  0  0
   53.4930   30.9800   51.6380 C   0  0  0  0  0  0  0  0  0  0  0  0
   51.5100   33.0150   49.2470 H   0  0  0  0  0  0  0  0  0  0  0  0
   50.3265   30.1758   52.6597 H   0  0  0  0  0  0  0  0  0  0  0  0
   51.5622   28.2317   53.6076 H   0  0  0  0  0  0  0  0  0  0  0  0
   54.0273   28.0405   53.3046 H   0  0  0  0  0  0  0  0  0  0  0  0
   59.1346   32.8147   48.1148 H   0  0  0  0  0  0  0  0  0  0  0  0
   60.2849   33.2157   49.3975 H   0  0  0  0  0  0  0  0  0  0  0  0
   60.9795   32.0866   46.9261 H   0  0  0  0  0  0  0  0  0  0  0  0
   62.0025   31.9759   48.3663 H   0  0  0  0  0  0  0  0  0  0  0  0
   61.6561   29.6354   48.0603 H   0  0  0  0  0  0  0  0  0  0  0  0
   60.3570   29.0130   46.2580 H   0  0  0  0  0  0  0  0  0  0  0  0
   58.5489   28.5691   42.9966 H   0  0  0  0  0  0  0  0  0  0  0  0
   58.2238   26.1442   42.5039 H   0  0  0  0  0  0  0  0  0  0  0  0
   56.7804   25.5115   46.5327 H   0  0  0  0  0  0  0  0  0  0  0  0
   57.1021   27.9347   47.0289 H   0  0  0  0  0  0  0  0  0  0  0  0
   59.0683   29.3055   49.0798 H   0  0  0  0  0  0  0  0  0  0  0  0
   60.4710   29.6164   50.1115 H   0  0  0  0  0  0  0  0  0  0  0  0
   58.9975   33.5305   51.1793 H   0  0  0  0  0  0  0  0  0  0  0  0
   57.2145   33.7834   52.9187 H   0  0  0  0  0  0  0  0  0  0  0  0
   54.0444   31.7654   51.1004 H   0  0  0  0  0  0  0  0  0  0  0  0
  1  2  1  0
  2  3  2  0
  2  4  1  0
  4  5  2  0
  5  6  1  0
  6  7  2  0
  7  8  1  0
  8  9  1  0
  9 10  2  3
 10 11  1  0
 11 12  2  0
 12 13  1  0
 13 14  1  0
 14 15  1  0
 15 16  1  0
 16 17  1  0
 17 18  1  0
 18 19  2  0
 18 20  1  0
 20 21  1  0
 21 22  2  0
 22 23  1  0
 23 24  2  0
 24 25  1  0
 24 26  1  0
 26 27  2  0
 16 28  1  0
 12 29  1  0
 29 30  2  0
 30 31  1  0
  8 32  2  0
 32  4  1  0
 31 10  1  0
 28 13  1  0
 27 21  1  0
  1 33  1  0
  5 34  1  0
  6 35  1  0
  7 36  1  0
 14 37  1  0
 14 38  1  0
 15 39  1  0
 15 40  1  0
 16 41  1  1
 17 42  1  0
 22 43  1  0
 23 44  1  0
 26 45  1  0
 27 46  1  0
 28 47  1  0
 28 48  1  0
 29 49  1  0
 30 50  1  0
 32 51  1  0
M  CHG  3   1  -1  20  -1  31  -1
M  END
>  <UniqueID>  (53) 
51

>  <SMILES>  (53) 
[NH-]C(=O)c1cccc(N=c2nc(N3CC[C@H](NC(=O)[N-]c4ccc(Br)cc4)C3)cc[n-]2)c1

>  <Energy>  (53) 
65.15927879510113

>  <Genealogy>  (53) 
[NH-]C(=O)c1cccc(N=c2nc(N3CCC(NC(=O)[N-]c4ccc(Br)cc4)C3)cc[n-]2)c1 (protonated)
[NH-]C(=O)c1cccc(N=c2nc(N3CC[C@H](NC(=O)[N-]c4ccc(Br)cc4)C3)cc[n-]2)c1 (chirality)
[NH-]C(=O)c1cccc(N=c2nc(N3CC[C@H](NC(=O)[N-]c4ccc(Br)cc4)C3)cc[n-]2)c1 (3D coordinates assigned)
[NH-]C(=O)c1cccc(N=c2nc(N3CC[C@H](NC(=O)[N-]c4ccc(Br)cc4)C3)cc[n-]2)c1 (nonaromatic ring conformer: 65.15927879510113 kcal/mol)

>  <smiles>  (53) 
NC(=O)c1cccc(N=c2nc(N3CCC(NC(=O)Nc4ccc(Br)cc4)C3)cc[nH]2)c1

>  <score_type>  (53) 
oracle

>  <origin>  (53) 
adg

>  <m_score__min__energy>  (53) 
-15.119999999999999

>  <m_primary>  (53) 
energy

$$$$
53:0
     RDKit          3D

 52 56  0  0  0  0  0  0  0  0999 V2000
   57.7790   26.8080   43.1830 C   0  0  0  0  0  0  0  0  0  0  0  0
   57.9730   26.7960   44.6850 C   0  0  0  0  0  0  0  0  0  0  0  0
   58.6440   27.8750   45.3330 C   0  0  0  0  0  0  0  0  0  0  0  0
   59.2280   29.0560   44.5770 C   0  0  0  0  0  0  0  0  0  0  0  0
   58.4460   30.3180   44.8360 C   0  0  0  0  0  0  0  0  0  0  0  0
   58.8170   31.3740   45.6440 C   0  0  0  0  0  0  0  0  0  0  0  0
   59.9590   31.6280   46.4020 C   0  0  0  0  0  0  0  0  0  0  0  0
   60.0050   32.8280   47.1510 C   0  0  0  0  0  0  0  0  0  0  0  0
   61.1890   33.1430   47.9770 C   0  0  0  0  0  0  0  0  0  0  0  0
   62.1680   32.2590   48.2570 N   0  0  0  0  0  0  0  0  0  0  0  0
   62.9960   32.9960   49.0240 C   0  0  0  0  0  0  0  0  0  0  0  0
   64.2490   32.4820   49.5930 C   0  0  0  0  0  0  0  0  0  0  0  0
   64.2560   31.3060   50.4040 N   0  0  0  0  0  0  0  0  0  0  0  0
   65.3320   33.0870   49.3670 O   0  0  0  0  0  0  0  0  0  0  0  0
   62.5510   34.2520   49.2030 N   0  0  0  0  0  0  0  0  0  0  0  0
   61.4090   34.3460   48.5440 N   0  0  0  0  0  0  0  0  0  0  0  0
   58.9010   33.7220   47.1090 C   0  0  0  0  0  0  0  0  0  0  0  0
   57.7640   33.4290   46.3350 C   0  0  0  0  0  0  0  0  0  0  0  0
   57.7590   32.2400   45.6130 C   0  0  0  0  0  0  0  0  0  0  0  0
   56.7730   31.7580   44.8360 N   0  0  0  0  0  0  0  0  0  0  0  0
   57.1990   30.5880   44.3690 N   0  0  0  0  0  0  0  0  0  0  0  0
   56.3940   29.7370   43.5010 C   0  0  0  0  0  0  0  0  0  0  0  0
   58.8290   27.8320   46.7260 C   0  0  0  0  0  0  0  0  0  0  0  0
   58.3230   26.7820   47.4840 C   0  0  0  0  0  0  0  0  0  0  0  0
   57.6480   25.7360   46.8650 C   0  0  0  0  0  0  0  0  0  0  0  0
   57.4810   25.7180   45.4740 C   0  0  0  0  0  0  0  0  0  0  0  0
   56.8030   24.5440   44.8850 C   0  0  0  0  0  0  0  0  0  0  0  0
   57.5150   23.6550   44.0690 C   0  0  0  0  0  0  0  0  0  0  0  0
   56.8530   22.5620   43.5040 C   0  0  0  0  0  0  0  0  0  0  0  0
   55.5270   22.3730   43.7370 N   0  0  0  0  0  0  0  0  0  0  0  0
   54.8090   23.2260   44.5150 C   0  0  0  0  0  0  0  0  0  0  0  0
   53.5820   23.0190   44.7050 O   0  0  0  0  0  0  0  0  0  0  0  0
   55.4330   24.3330   45.1010 C   0  0  0  0  0  0  0  0  0  0  0  0
   56.7055   26.8744   42.9525 H   0  0  0  0  0  0  0  0  0  0  0  0
   58.3008   27.6756   42.7528 H   0  0  0  0  0  0  0  0  0  0  0  0
   58.1899   25.8827   42.7528 H   0  0  0  0  0  0  0  0  0  0  0  0
   60.2687   29.2077   44.8994 H   0  0  0  0  0  0  0  0  0  0  0  0
   59.1802   28.8348   43.5005 H   0  0  0  0  0  0  0  0  0  0  0  0
   60.7987   30.9176   46.4175 H   0  0  0  0  0  0  0  0  0  0  0  0
   63.3750   30.7820   50.6020 H   0  0  0  0  0  0  0  0  0  0  0  0
   65.1510   30.9510   50.8080 H   0  0  0  0  0  0  0  0  0  0  0  0
   58.9363   34.6556   47.6897 H   0  0  0  0  0  0  0  0  0  0  0  0
   56.9067   34.1175   46.3016 H   0  0  0  0  0  0  0  0  0  0  0  0
   55.7673   29.0744   44.1160 H   0  0  0  0  0  0  0  0  0  0  0  0
   55.7512   30.3645   42.8661 H   0  0  0  0  0  0  0  0  0  0  0  0
   57.0562   29.1300   42.8661 H   0  0  0  0  0  0  0  0  0  0  0  0
   59.3827   28.6416   47.2239 H   0  0  0  0  0  0  0  0  0  0  0  0
   58.4570   26.7789   48.5758 H   0  0  0  0  0  0  0  0  0  0  0  0
   57.2411   24.9146   47.4732 H   0  0  0  0  0  0  0  0  0  0  0  0
   58.5857   23.8161   43.8749 H   0  0  0  0  0  0  0  0  0  0  0  0
   57.4056   21.8533   42.8697 H   0  0  0  0  0  0  0  0  0  0  0  0
   54.8551   25.0308   45.7248 H   0  0  0  0  0  0  0  0  0  0  0  0
  1  2  1  0
  2  3  2  0
  3  4  1  0
  4  5  1  0
  5  6  2  0
  6  7  1  0
  7  8  2  0
  8  9  1  0
  9 10  2  0
 10 11  1  0
 11 12  1  0
 12 13  1  0
 12 14  2  0
 11 15  2  0
 15 16  1  0
  8 17  1  0
 17 18  2  0
 18 19  1  0
 19 20  2  0
 20 21  1  0
 21 22  1  0
  3 23  1  0
 23 24  2  0
 24 25  1  0
 25 26  2  0
 26 27  1  0
 27 28  1  0
 28 29  2  0
 29 30  1  0
 30 31  1  0
 31 32  2  0
 31 33  1  0
 26  2  1  0
 33 27  2  0
 21  5  1  0
 19  6  1  0
 16  9  1  0
  1 34  1  0
  1 35  1  0
  1 36  1  0
  4 37  1  0
  4 38  1  0
  7 39  1  0
 13 40  1  0
 13 41  1  0
 17 42  1  0
 18 43  1  0
 22 44  1  0
 22 45  1  0
 22 46  1  0
 23 47  1  0
 24 48  1  0
 25 49  1  0
 28 50  1  0
 29 51  1  0
 33 52  1  0
M  CHG  2  16  -1  30  -1
M  END
>  <UniqueID>  (54) 
52

>  <SMILES>  (54) 
Cc1c(Cc2c3cc(-c4nc(C(N)=O)n[n-]4)ccc3nn2C)cccc1-c1cc[n-]c(=O)c1

>  <Energy>  (54) 
137.08998165893559

>  <Genealogy>  (54) 
Cc1c(Cc2c3cc(-c4nc(C(N)=O)n[n-]4)ccc3nn2C)cccc1-c1cc[n-]c(=O)c1 (protonated)
Cc1c(Cc2c3cc(-c4nc(C(N)=O)n[n-]4)ccc3nn2C)cccc1-c1cc[n-]c(=O)c1 (3D coordinates assigned)
Cc1c(Cc2c3cc(-c4nc(C(N)=O)n[n-]4)ccc3nn2C)cccc1-c1cc[n-]c(=O)c1 (optimized conformer: 137.08998165893559 kcal/mol)

>  <smiles>  (54) 
Cc1c(Cc2c3cc(-c4nc(C(N)=O)n[nH]4)ccc3nn2C)cccc1-c1cc[nH]c(=O)c1

>  <score_type>  (54) 
oracle

>  <origin>  (54) 
adg

>  <m_score__min__energy>  (54) 
-12.56

>  <m_primary>  (54) 
energy

$$$$
54:0
     RDKit          3D

 43 44  0  0  0  0  0  0  0  0999 V2000
   57.5920   30.8920   43.0450 O   0  0  0  0  0  0  0  0  0  0  0  0
   57.0630   31.0700   44.4410 S   0  0  0  0  0  0  0  0  0  0  0  0
   55.6590   30.5360   44.5060 O   0  0  0  0  0  0  0  0  0  0  0  0
   57.0250   32.8090   44.8750 C   0  0  0  0  0  0  0  0  0  0  0  0
   58.3170   33.2780   45.5700 C   0  0  0  0  0  0  0  0  0  0  0  0
   58.1470   33.5470   47.0620 C   0  0  0  0  0  0  0  0  0  0  0  0
   59.1920   34.6000   47.4170 C   0  0  0  0  0  0  0  0  0  0  0  0
   59.6670   35.2170   46.1020 C   0  0  0  0  0  0  0  0  0  0  0  0
   58.8180   34.6000   45.0010 C   0  0  0  0  0  0  0  0  0  0  0  0
   58.0630   30.2060   45.5700 N   0  0  0  0  0  0  0  0  0  0  0  0
   59.0040   29.3560   44.8380 C   0  0  0  0  0  0  0  0  0  0  0  0
   60.3520   29.3210   45.5650 C   0  0  0  0  0  0  0  0  0  0  0  0
   60.2310   29.6310   47.0620 C   0  0  0  0  0  0  0  0  0  0  0  0
   60.3140   31.0360   47.3130 O   0  0  0  0  0  0  0  0  0  0  0  0
   61.4750   31.7630   47.6330 C   0  0  0  0  0  0  0  0  0  0  0  0
   62.2440   31.5190   48.7900 C   0  0  0  0  0  0  0  0  0  0  0  0
   63.3860   32.2840   49.0510 C   0  0  0  0  0  0  0  0  0  0  0  0
   63.7740   33.2900   48.1630 C   0  0  0  0  0  0  0  0  0  0  0  0
   63.0220   33.5330   47.0110 C   0  0  0  0  0  0  0  0  0  0  0  0
   63.4000   34.5090   46.1490 F   0  0  0  0  0  0  0  0  0  0  0  0
   61.8790   32.7700   46.7490 C   0  0  0  0  0  0  0  0  0  0  0  0
   56.8863   33.3978   43.9562 H   0  0  0  0  0  0  0  0  0  0  0  0
   56.1957   32.9562   45.5825 H   0  0  0  0  0  0  0  0  0  0  0  0
   59.0161   32.4464   45.3975 H   0  0  0  0  0  0  0  0  0  0  0  0
   57.1355   33.9260   47.2699 H   0  0  0  0  0  0  0  0  0  0  0  0
   58.2783   32.6304   47.6558 H   0  0  0  0  0  0  0  0  0  0  0  0
   58.7458   35.3742   48.0584 H   0  0  0  0  0  0  0  0  0  0  0  0
   60.0322   34.1505   47.9665 H   0  0  0  0  0  0  0  0  0  0  0  0
   59.5277   36.3080   46.1224 H   0  0  0  0  0  0  0  0  0  0  0  0
   60.7365   35.0210   45.9353 H   0  0  0  0  0  0  0  0  0  0  0  0
   57.9719   35.2577   44.7530 H   0  0  0  0  0  0  0  0  0  0  0  0
   59.3921   34.4553   44.0739 H   0  0  0  0  0  0  0  0  0  0  0  0
   58.6180   30.9190   46.0950 H   0  0  0  0  0  0  0  0  0  0  0  0
   58.5985   28.3355   44.7728 H   0  0  0  0  0  0  0  0  0  0  0  0
   59.1491   29.7647   43.8271 H   0  0  0  0  0  0  0  0  0  0  0  0
   60.7877   28.3177   45.4484 H   0  0  0  0  0  0  0  0  0  0  0  0
   60.9887   30.0983   45.1174 H   0  0  0  0  0  0  0  0  0  0  0  0
   59.2624   29.2590   47.4272 H   0  0  0  0  0  0  0  0  0  0  0  0
   61.0623   29.1364   47.5858 H   0  0  0  0  0  0  0  0  0  0  0  0
   61.9448   30.7245   49.4895 H   0  0  0  0  0  0  0  0  0  0  0  0
   63.9795   32.0929   49.9572 H   0  0  0  0  0  0  0  0  0  0  0  0
   64.6716   33.8909   48.3708 H   0  0  0  0  0  0  0  0  0  0  0  0
   61.2920   32.9635   45.8391 H   0  0  0  0  0  0  0  0  0  0  0  0
  1  2  2  0
  2  3  2  0
  2  4  1  0
  4  5  1  0
  5  6  1  0
  6  7  1  0
  7  8  1  0
  8  9  1  0
  2 10  1  0
 10 11  1  0
 11 12  1  0
 12 13  1  0
 13 14  1  0
 14 15  1  0
 15 16  2  0
 16 17  1  0
 17 18  2  0
 18 19  1  0
 19 20  1  0
 19 21  2  0
  9  5  1  0
 21 15  1  0
  4 22  1  0
  4 23  1  0
  5 24  1  0
  6 25  1  0
  6 26  1  0
  7 27  1  0
  7 28  1  0
  8 29  1  0
  8 30  1  0
  9 31  1  0
  9 32  1  0
 10 33  1  0
 11 34  1  0
 11 35  1  0
 12 36  1  0
 12 37  1  0
 13 38  1  0
 13 39  1  0
 16 40  1  0
 17 41  1  0
 18 42  1  0
 21 43  1  0
M  END
>  <UniqueID>  (55) 
53

>  <SMILES>  (55) 
O=S(=O)(CC1CCCC1)NCCCOc1cccc(F)c1

>  <Energy>  (55) 
32.33080657677564

>  <Genealogy>  (55) 
O=S(=O)(CC1CCCC1)NCCCOc1cccc(F)c1 (3D coordinates assigned)
O=S(=O)(CC1CCCC1)NCCCOc1cccc(F)c1 (nonaromatic ring conformer: 32.33080657677564 kcal/mol)

>  <smiles>  (55) 
O=S(=O)(CC1CCCC1)NCCCOc1cccc(F)c1

>  <score_type>  (55) 
oracle

>  <origin>  (55) 
adg

>  <m_score__min__energy>  (55) 
-7.7699999999999996

>  <m_primary>  (55) 
energy

$$$$
55:0
     RDKit          3D

 48 50  0  0  0  0  0  0  0  0999 V2000
   57.9220   23.2690   46.2450 C   0  0  0  0  0  0  0  0  0  0  0  0
   57.6320   24.6820   45.9720 C   0  0  0  0  0  0  0  0  0  0  0  0
   58.6030   25.4380   45.3550 C   0  0  0  0  0  0  0  0  0  0  0  0
   58.3430   26.7860   45.0850 C   0  0  0  0  0  0  0  0  0  0  0  0
   57.1370   27.3750   45.4250 C   0  0  0  0  0  0  0  0  0  0  0  0
   56.9280   28.7820   45.1200 C   0  0  0  0  0  0  0  0  0  0  0  0
   57.8810   29.7270   44.7980 C   0  0  0  0  0  0  0  0  0  0  0  0
   57.1940   30.9000   44.5990 C   0  0  0  0  0  0  0  0  0  0  0  0
   57.6970   32.2180   44.2380 C   0  0  0  0  0  0  0  0  0  0  0  0
   57.8640   32.5740   43.0400 O   0  0  0  0  0  0  0  0  0  0  0  0
   58.0310   33.1920   45.2300 N   0  0  0  0  0  0  0  0  0  0  0  0
   58.5170   34.4600   44.8250 C   0  0  0  0  0  0  0  0  0  0  0  0
   59.6040   35.0700   45.6720 C   0  0  0  0  0  0  0  0  0  0  0  0
   59.3310   34.9150   47.1480 C   0  0  0  0  0  0  0  0  0  0  0  0
   60.1650   33.9330   47.7470 N   0  0  0  0  0  0  0  0  0  0  0  0
   60.7590   33.0170   46.7980 C   0  0  0  0  0  0  0  0  0  0  0  0
   60.2510   31.6070   47.0100 C   0  0  0  0  0  0  0  0  0  0  0  0
   58.9330   31.5630   47.3800 O   0  0  0  0  0  0  0  0  0  0  0  0
   58.5920   32.2030   48.5400 C   0  0  0  0  0  0  0  0  0  0  0  0
   59.6100   33.2330   48.8790 C   0  0  0  0  0  0  0  0  0  0  0  0
   55.8950   30.6320   44.8000 N   0  0  0  0  0  0  0  0  0  0  0  0
   55.7140   29.3610   45.1160 N   0  0  0  0  0  0  0  0  0  0  0  0
   56.1920   26.5860   46.0410 C   0  0  0  0  0  0  0  0  0  0  0  0
   56.4230   25.2430   46.3210 C   0  0  0  0  0  0  0  0  0  0  0  0
   57.9557   23.1050   47.3322 H   0  0  0  0  0  0  0  0  0  0  0  0
   57.1340   22.6411   45.8037 H   0  0  0  0  0  0  0  0  0  0  0  0
   58.8936   23.0022   45.8037 H   0  0  0  0  0  0  0  0  0  0  0  0
   59.5685   24.9892   45.0785 H   0  0  0  0  0  0  0  0  0  0  0  0
   59.1158   27.3928   44.5904 H   0  0  0  0  0  0  0  0  0  0  0  0
   58.9671   29.5727   44.7173 H   0  0  0  0  0  0  0  0  0  0  0  0
   57.9060   32.9350   46.2540 H   0  0  0  0  0  0  0  0  0  0  0  0
   58.9099   34.3555   43.8029 H   0  0  0  0  0  0  0  0  0  0  0  0
   57.6593   35.1422   44.9199 H   0  0  0  0  0  0  0  0  0  0  0  0
   60.5576   34.5759   45.4343 H   0  0  0  0  0  0  0  0  0  0  0  0
   59.6437   36.1460   45.4470 H   0  0  0  0  0  0  0  0  0  0  0  0
   59.5076   35.8806   47.6444 H   0  0  0  0  0  0  0  0  0  0  0  0
   58.2869   34.5896   47.2663 H   0  0  0  0  0  0  0  0  0  0  0  0
   60.5042   33.3411   45.7782 H   0  0  0  0  0  0  0  0  0  0  0  0
   61.8493   33.0211   46.9441 H   0  0  0  0  0  0  0  0  0  0  0  0
   60.3704   31.0465   46.0711 H   0  0  0  0  0  0  0  0  0  0  0  0
   60.8376   31.1656   47.8292 H   0  0  0  0  0  0  0  0  0  0  0  0
   57.6131   32.6883   48.4126 H   0  0  0  0  0  0  0  0  0  0  0  0
   58.5435   31.4657   49.3549 H   0  0  0  0  0  0  0  0  0  0  0  0
   59.1390   33.9740   49.5417 H   0  0  0  0  0  0  0  0  0  0  0  0
   60.4465   32.6968   49.3509 H   0  0  0  0  0  0  0  0  0  0  0  0
   54.7710   28.9680   45.3090 H   0  0  0  0  0  0  0  0  0  0  0  0
   55.2254   27.0307   46.3202 H   0  0  0  0  0  0  0  0  0  0  0  0
   55.6498   24.6364   46.8150 H   0  0  0  0  0  0  0  0  0  0  0  0
  1  2  1  0
  2  3  2  0
  3  4  1  0
  4  5  2  0
  5  6  1  0
  6  7  2  0
  7  8  1  0
  8  9  1  0
  9 10  2  0
  9 11  1  0
 11 12  1  0
 12 13  1  0
 13 14  1  0
 14 15  1  0
 15 16  1  0
 16 17  1  0
 17 18  1  0
 18 19  1  0
 19 20  1  0
  8 21  2  0
 21 22  1  0
  5 23  1  0
 23 24  2  0
 24  2  1  0
 22  6  1  0
 20 15  1  0
  1 25  1  0
  1 26  1  0
  1 27  1  0
  3 28  1  0
  4 29  1  0
  7 30  1  0
 11 31  1  0
 12 32  1  0
 12 33  1  0
 13 34  1  0
 13 35  1  0
 14 36  1  0
 14 37  1  0
 16 38  1  0
 16 39  1  0
 17 40  1  0
 17 41  1  0
 19 42  1  0
 19 43  1  0
 20 44  1  0
 20 45  1  0
 22 46  1  0
 23 47  1  0
 24 48  1  0
M  END
>  <smiles>  (56) 
Cc1ccc(-c2cc(C(=O)NCCCN3CCOCC3)n[nH]2)cc1

>  <score_type>  (56) 
oracle

>  <origin>  (56) 
adg

>  <m_score__min__energy>  (56) 
-8.0500000000000007

>  <m_primary>  (56) 
energy

$$$$
56:0
     RDKit          3D

 38 40  0  0  0  0  0  0  0  0999 V2000
   55.1420   29.3300   44.9320 N   0  0  0  0  0  0  0  0  0  0  0  0
   56.5530   29.5980   43.9670 S   0  0  0  0  0  0  0  0  0  0  0  0
   56.1110   30.0030   42.5880 O   0  0  0  0  0  0  0  0  0  0  0  0
   57.3540   28.3310   43.8720 O   0  0  0  0  0  0  0  0  0  0  0  0
   57.5460   30.8790   44.6840 C   0  0  0  0  0  0  0  0  0  0  0  0
   57.2880   32.2130   44.3260 C   0  0  0  0  0  0  0  0  0  0  0  0
   58.0000   33.2590   44.9200 C   0  0  0  0  0  0  0  0  0  0  0  0
   58.9730   32.9860   45.8800 C   0  0  0  0  0  0  0  0  0  0  0  0
   59.2490   31.6660   46.2400 C   0  0  0  0  0  0  0  0  0  0  0  0
   58.5580   30.6030   45.6370 C   0  0  0  0  0  0  0  0  0  0  0  0
   58.9100   29.2300   46.0350 C   0  0  0  0  0  0  0  0  0  0  0  0
   60.1630   28.6650   45.8100 C   0  0  0  0  0  0  0  0  0  0  0  0
   60.1310   27.0930   46.4030 S   0  0  0  0  0  0  0  0  0  0  0  0
   58.5450   27.2120   46.9460 C   0  0  0  0  0  0  0  0  0  0  0  0
   57.7540   26.0840   47.5240 C   0  0  0  0  0  0  0  0  0  0  0  0
   57.3330   25.1690   46.4510 N   0  0  0  0  0  0  0  0  0  0  0  0
   58.1470   24.1180   46.1210 C   0  0  0  0  0  0  0  0  0  0  0  0
   57.8180   23.2520   45.0660 C   0  0  0  0  0  0  0  0  0  0  0  0
   58.6960   22.0690   44.7440 C   0  0  0  0  0  0  0  0  0  0  0  0
   58.6130   21.1160   45.7450 F   0  0  0  0  0  0  0  0  0  0  0  0
   58.2810   21.5060   43.5510 F   0  0  0  0  0  0  0  0  0  0  0  0
   60.0190   22.4560   44.6230 F   0  0  0  0  0  0  0  0  0  0  0  0
   56.6160   23.4600   44.3800 C   0  0  0  0  0  0  0  0  0  0  0  0
   55.8010   24.5380   44.7120 C   0  0  0  0  0  0  0  0  0  0  0  0
   56.1760   25.3970   45.7480 C   0  0  0  0  0  0  0  0  0  0  0  0
   55.4360   26.3800   46.0260 O   0  0  0  0  0  0  0  0  0  0  0  0
   58.0170   28.4230   46.6670 N   0  0  0  0  0  0  0  0  0  0  0  0
   55.3820   28.5850   45.6230 H   0  0  0  0  0  0  0  0  0  0  0  0
   56.5190   32.4361   43.5717 H   0  0  0  0  0  0  0  0  0  0  0  0
   57.7921   34.2993   44.6293 H   0  0  0  0  0  0  0  0  0  0  0  0
   59.5238   33.8116   46.3543 H   0  0  0  0  0  0  0  0  0  0  0  0
   60.0140   31.4569   47.0023 H   0  0  0  0  0  0  0  0  0  0  0  0
   61.0203   29.1594   45.3299 H   0  0  0  0  0  0  0  0  0  0  0  0
   58.3747   25.5363   48.2484 H   0  0  0  0  0  0  0  0  0  0  0  0
   56.8632   26.4863   48.0286 H   0  0  0  0  0  0  0  0  0  0  0  0
   59.0725   23.9499   46.6912 H   0  0  0  0  0  0  0  0  0  0  0  0
   56.3151   22.7705   43.5774 H   0  0  0  0  0  0  0  0  0  0  0  0
   54.8652   24.7131   44.1609 H   0  0  0  0  0  0  0  0  0  0  0  0
  1  2  1  0
  2  3  2  0
  2  4  2  0
  2  5  1  0
  5  6  2  0
  6  7  1  0
  7  8  2  0
  8  9  1  0
  9 10  2  0
 10 11  1  0
 11 12  2  0
 12 13  1  0
 13 14  1  0
 14 15  1  0
 15 16  1  0
 16 17  1  0
 17 18  2  0
 18 19  1  0
 19 20  1  0
 19 21  1  0
 19 22  1  0
 18 23  1  0
 23 24  2  0
 24 25  1  0
 25 26  2  0
 14 27  2  0
 10  5  1  0
 27 11  1  0
 25 16  1  0
  1 28  1  0
  6 29  1  0
  7 30  1  0
  8 31  1  0
  9 32  1  0
 12 33  1  0
 15 34  1  0
 15 35  1  0
 17 36  1  0
 23 37  1  0
 24 38  1  0
M  CHG  1   1  -1
M  END
>  <UniqueID>  (57) 
54

>  <SMILES>  (57) 
[NH-]S(=O)(=O)c1ccccc1-c1csc(Cn2cc(C(F)(F)F)ccc2=O)n1

>  <Energy>  (57) 
78.39777618432045

>  <Genealogy>  (57) 
[NH-]S(=O)(=O)c1ccccc1-c1csc(Cn2cc(C(F)(F)F)ccc2=O)n1 (protonated)
[NH-]S(=O)(=O)c1ccccc1-c1csc(Cn2cc(C(F)(F)F)ccc2=O)n1 (3D coordinates assigned)
[NH-]S(=O)(=O)c1ccccc1-c1csc(Cn2cc(C(F)(F)F)ccc2=O)n1 (optimized conformer: 78.39777618432045 kcal/mol)

>  <smiles>  (57) 
NS(=O)(=O)c1ccccc1-c1csc(Cn2cc(C(F)(F)F)ccc2=O)n1

>  <score_type>  (57) 
oracle

>  <origin>  (57) 
adg

>  <m_score__min__energy>  (57) 
-11.27

>  <m_primary>  (57) 
energy

$$$$
57:0
     RDKit          3D

 42 45  0  0  0  0  0  0  0  0999 V2000
   60.5220   31.8520   50.7610 C   0  0  0  0  0  0  0  0  0  0  0  0
   60.4450   30.8130   49.6850 C   0  0  0  0  0  0  0  0  0  0  0  0
   60.2320   31.0040   48.3190 C   0  0  0  0  0  0  0  0  0  0  0  0
   60.1070   32.3150   47.6550 C   0  0  0  0  0  0  0  0  0  0  0  0
   58.8690   32.9750   47.6280 C   0  0  0  0  0  0  0  0  0  0  0  0
   58.7560   34.2330   47.0270 C   0  0  0  0  0  0  0  0  0  0  0  0
   59.8770   34.8330   46.4440 C   0  0  0  0  0  0  0  0  0  0  0  0
   59.7640   36.0830   45.8470 O   0  0  0  0  0  0  0  0  0  0  0  0
   61.1110   34.1760   46.4620 C   0  0  0  0  0  0  0  0  0  0  0  0
   61.2280   32.9210   47.0680 C   0  0  0  0  0  0  0  0  0  0  0  0
   60.2200   29.8090   47.6670 N   0  0  0  0  0  0  0  0  0  0  0  0
   60.1550   29.6070   46.2130 C   0  0  0  0  0  0  0  0  0  0  0  0
   58.7240   29.4570   45.7710 C   0  0  0  0  0  0  0  0  0  0  0  0
   58.0970   30.4700   45.0280 C   0  0  0  0  0  0  0  0  0  0  0  0
   56.7820   30.3080   44.5840 C   0  0  0  0  0  0  0  0  0  0  0  0
   56.0800   29.1370   44.8830 C   0  0  0  0  0  0  0  0  0  0  0  0
   54.7710   28.9840   44.4460 O   0  0  0  0  0  0  0  0  0  0  0  0
   56.6980   28.1220   45.6200 C   0  0  0  0  0  0  0  0  0  0  0  0
   56.0240   26.9820   45.9090 F   0  0  0  0  0  0  0  0  0  0  0  0
   58.0160   28.2780   46.0600 C   0  0  0  0  0  0  0  0  0  0  0  0
   60.4350   28.8690   48.6160 C   0  0  0  0  0  0  0  0  0  0  0  0
   60.5480   27.4820   48.4540 C   0  0  0  0  0  0  0  0  0  0  0  0
   60.7920   26.6990   49.5970 C   0  0  0  0  0  0  0  0  0  0  0  0
   60.9230   27.3030   50.8660 C   0  0  0  0  0  0  0  0  0  0  0  0
   61.1680   26.5170   51.9850 O   0  0  0  0  0  0  0  0  0  0  0  0
   60.8120   28.6980   51.0020 C   0  0  0  0  0  0  0  0  0  0  0  0
   60.5680   29.4500   49.8530 C   0  0  0  0  0  0  0  0  0  0  0  0
   60.4858   31.3633   51.7458 H   0  0  0  0  0  0  0  0  0  0  0  0
   61.4641   32.4115   50.6637 H   0  0  0  0  0  0  0  0  0  0  0  0
   59.6727   32.5443   50.6637 H   0  0  0  0  0  0  0  0  0  0  0  0
   57.9851   32.5019   48.0806 H   0  0  0  0  0  0  0  0  0  0  0  0
   57.7854   34.7505   47.0128 H   0  0  0  0  0  0  0  0  0  0  0  0
   61.9908   34.6467   45.9990 H   0  0  0  0  0  0  0  0  0  0  0  0
   62.2009   32.4080   47.0844 H   0  0  0  0  0  0  0  0  0  0  0  0
   60.6027   30.4742   45.7056 H   0  0  0  0  0  0  0  0  0  0  0  0
   60.7080   28.6923   45.9533 H   0  0  0  0  0  0  0  0  0  0  0  0
   58.6435   31.3956   44.7943 H   0  0  0  0  0  0  0  0  0  0  0  0
   56.2984   31.1035   43.9981 H   0  0  0  0  0  0  0  0  0  0  0  0
   58.5005   27.4748   46.6346 H   0  0  0  0  0  0  0  0  0  0  0  0
   60.4488   27.0185   47.4614 H   0  0  0  0  0  0  0  0  0  0  0  0
   60.8815   25.6069   49.5010 H   0  0  0  0  0  0  0  0  0  0  0  0
   60.9145   29.1816   51.9847 H   0  0  0  0  0  0  0  0  0  0  0  0
  1  2  1  0
  2  3  2  0
  3  4  1  0
  4  5  2  0
  5  6  1  0
  6  7  2  0
  7  8  1  0
  7  9  1  0
  9 10  2  0
  3 11  1  0
 11 12  1  0
 12 13  1  0
 13 14  2  0
 14 15  1  0
 15 16  2  0
 16 17  1  0
 16 18  1  0
 18 19  1  0
 18 20  2  0
 11 21  1  0
 21 22  2  0
 22 23  1  0
 23 24  2  0
 24 25  1  0
 24 26  1  0
 26 27  2  0
 27  2  1  0
 10  4  1  0
 20 13  1  0
 27 21  1  0
  1 28  1  0
  1 29  1  0
  1 30  1  0
  5 31  1  0
  6 32  1  0
  9 33  1  0
 10 34  1  0
 12 35  1  0
 12 36  1  0
 14 37  1  0
 15 38  1  0
 20 39  1  0
 22 40  1  0
 23 41  1  0
 26 42  1  0
M  CHG  3   8  -1  17  -1  25  -1
M  END
>  <UniqueID>  (58) 
55

>  <SMILES>  (58) 
Cc1c(-c2ccc([O-])cc2)n(Cc2ccc([O-])c(F)c2)c2ccc([O-])cc12

>  <Energy>  (58) 
84.35161035045195

>  <Genealogy>  (58) 
Cc1c(-c2ccc([O-])cc2)n(Cc2ccc([O-])c(F)c2)c2ccc([O-])cc12 (protonated)
Cc1c(-c2ccc([O-])cc2)n(Cc2ccc([O-])c(F)c2)c2ccc([O-])cc12 (3D coordinates assigned)
Cc1c(-c2ccc([O-])cc2)n(Cc2ccc([O-])c(F)c2)c2ccc([O-])cc12 (optimized conformer: 84.35161035045195 kcal/mol)

>  <smiles>  (58) 
Cc1c(-c2ccc(O)cc2)n(Cc2ccc(O)c(F)c2)c2ccc(O)cc12

>  <score_type>  (58) 
oracle

>  <origin>  (58) 
adg

>  <m_score__min__energy>  (58) 
-12.01

>  <m_primary>  (58) 
energy

$$$$
58:0
     RDKit          3D

 25 26  0  0  0  0  0  0  0  0999 V2000
   59.6583   35.7755   46.0458 H   0  0  0  0  0  0  0  0  0  0  0  0
   59.6320   34.7800   46.5130 C   0  0  0  0  0  0  0  0  0  0  0  0
   60.2270   34.5890   47.6530 N   0  0  0  0  0  0  0  0  0  0  0  0
   61.5420   34.0410   47.8530 C   0  0  0  0  0  0  0  0  0  0  0  0
   62.3480   33.6000   46.7830 C   0  0  0  0  0  0  0  0  0  0  0  0
   61.9776   33.6585   45.7489 H   0  0  0  0  0  0  0  0  0  0  0  0
   63.6190   33.0890   47.0470 C   0  0  0  0  0  0  0  0  0  0  0  0
   64.2528   32.7372   46.2196 H   0  0  0  0  0  0  0  0  0  0  0  0
   64.0860   33.0240   48.3580 C   0  0  0  0  0  0  0  0  0  0  0  0
   65.0848   32.6164   48.5733 H   0  0  0  0  0  0  0  0  0  0  0  0
   63.2720   33.4820   49.3950 C   0  0  0  0  0  0  0  0  0  0  0  0
   63.6314   33.4406   50.4338 H   0  0  0  0  0  0  0  0  0  0  0  0
   62.0340   33.9800   49.1240 N   0  0  0  0  0  0  0  0  0  0  0  0
   61.4450   34.3180   49.9190 H   0  0  0  0  0  0  0  0  0  0  0  0
   58.9210   33.6750   45.8380 C   0  0  0  0  0  0  0  0  0  0  0  0
   58.7150   32.4660   46.5230 C   0  0  0  0  0  0  0  0  0  0  0  0
   59.0832   32.3523   47.5533 H   0  0  0  0  0  0  0  0  0  0  0  0
   58.0450   31.4060   45.9040 C   0  0  0  0  0  0  0  0  0  0  0  0
   57.8884   30.4629   46.4480 H   0  0  0  0  0  0  0  0  0  0  0  0
   57.5740   31.5430   44.5950 C   0  0  0  0  0  0  0  0  0  0  0  0
   56.6600   30.0950   43.7520 Br  0  0  0  0  0  0  0  0  0  0  0  0
   57.7750   32.7420   43.9040 C   0  0  0  0  0  0  0  0  0  0  0  0
   57.4059   32.8499   42.8734 H   0  0  0  0  0  0  0  0  0  0  0  0
   58.4440   33.8040   44.5200 C   0  0  0  0  0  0  0  0  0  0  0  0
   58.5984   34.7451   43.9719 H   0  0  0  0  0  0  0  0  0  0  0  0
  1  2  1  0
  2  3  2  0
  3  4  1  0
  4  5  2  0
  5  6  1  0
  5  7  1  0
  7  8  1  0
  7  9  2  0
  9 10  1  0
  9 11  1  0
 11 12  1  0
 11 13  2  0
 13 14  1  0
  2 15  1  0
 15 16  2  0
 16 17  1  0
 16 18  1  0
 18 19  1  0
 18 20  2  0
 20 21  1  0
 20 22  1  0
 22 23  1  0
 22 24  2  0
 24 25  1  0
 13  4  1  0
 24 15  1  0
M  CHG  1  13   1
M  END
>  <UniqueID>  (59) 
56

>  <SMILES>  (59) 
Brc1ccc(/C=N/c2cccc[nH+]2)cc1

>  <Energy>  (59) 
28.547831959520064

>  <Genealogy>  (59) 
Brc1ccc(C=Nc2cccc[nH+]2)cc1 (protonated)
Brc1ccc(/C=N/c2cccc[nH+]2)cc1 (cis-trans isomerization)
Brc1ccc(/C=N/c2cccc[nH+]2)cc1 (3D coordinates assigned)
Brc1ccc(/C=N/c2cccc[nH+]2)cc1 (optimized conformer: 28.547831959520064 kcal/mol)

>  <smiles>  (59) 
Brc1ccc(C=Nc2ccccn2)cc1

>  <score_type>  (59) 
oracle

>  <origin>  (59) 
adg

>  <m_score__min__energy>  (59) 
-5.0999999999999996

>  <m_primary>  (59) 
energy

$$$$
59:0
     RDKit          3D

 37 39  0  0  0  0  0  0  0  0999 V2000
   59.6487   27.8777   45.7619 H   0  0  0  0  0  0  0  0  0  0  0  0
   59.6680   28.9770   45.7970 C   0  0  0  0  0  0  0  0  0  0  0  0
   59.1140   29.6300   44.8170 N   0  0  0  0  0  0  0  0  0  0  0  0
   57.7270   29.8160   44.6720 N   0  0  0  0  0  0  0  0  0  0  0  0
   57.0870   30.9640   44.3920 C   0  0  0  0  0  0  0  0  0  0  0  0
   57.7530   32.2210   43.9240 C   0  0  0  0  0  0  0  0  0  0  0  0
   57.0083   32.8703   43.4404 H   0  0  0  0  0  0  0  0  0  0  0  0
   58.5455   31.9655   43.2052 H   0  0  0  0  0  0  0  0  0  0  0  0
   58.3600   32.9440   45.0950 C   0  0  0  0  0  0  0  0  0  0  0  0
   59.0050   34.1780   44.9130 C   0  0  0  0  0  0  0  0  0  0  0  0
   59.1263   34.5885   43.8997 H   0  0  0  0  0  0  0  0  0  0  0  0
   59.4930   34.8860   46.0130 C   0  0  0  0  0  0  0  0  0  0  0  0
   59.9974   35.8520   45.8631 H   0  0  0  0  0  0  0  0  0  0  0  0
   59.3430   34.3720   47.3030 C   0  0  0  0  0  0  0  0  0  0  0  0
   59.7187   34.9396   48.1671 H   0  0  0  0  0  0  0  0  0  0  0  0
   58.7140   33.1330   47.4990 C   0  0  0  0  0  0  0  0  0  0  0  0
   58.5040   32.6060   48.8880 C   0  0  0  0  0  0  0  0  0  0  0  0
   58.8081   33.3691   49.6196 H   0  0  0  0  0  0  0  0  0  0  0  0
   57.4406   32.3637   49.0314 H   0  0  0  0  0  0  0  0  0  0  0  0
   59.1093   31.6988   49.0314 H   0  0  0  0  0  0  0  0  0  0  0  0
   58.2120   32.4300   46.3940 C   0  0  0  0  0  0  0  0  0  0  0  0
   57.6986   31.4691   46.5457 H   0  0  0  0  0  0  0  0  0  0  0  0
   55.7490   30.8070   44.4890 N   0  0  0  0  0  0  0  0  0  0  0  0
   55.5260   29.5570   44.8800 N   0  0  0  0  0  0  0  0  0  0  0  0
   56.7330   28.9750   45.0010 C   0  0  0  0  0  0  0  0  0  0  0  0
   56.9030   27.7940   45.4050 O   0  0  0  0  0  0  0  0  0  0  0  0
   60.3220   29.6240   46.9550 C   0  0  0  0  0  0  0  0  0  0  0  0
   61.2060   30.7060   46.7900 C   0  0  0  0  0  0  0  0  0  0  0  0
   61.4454   31.0685   45.7794 H   0  0  0  0  0  0  0  0  0  0  0  0
   61.7820   31.3230   47.9060 C   0  0  0  0  0  0  0  0  0  0  0  0
   62.4841   32.1590   47.7708 H   0  0  0  0  0  0  0  0  0  0  0  0
   61.4660   30.8780   49.1910 C   0  0  0  0  0  0  0  0  0  0  0  0
   61.9248   31.3587   50.0676 H   0  0  0  0  0  0  0  0  0  0  0  0
   60.5670   29.8220   49.3640 C   0  0  0  0  0  0  0  0  0  0  0  0
   60.3144   29.4764   50.3773 H   0  0  0  0  0  0  0  0  0  0  0  0
   59.9880   29.2040   48.2510 C   0  0  0  0  0  0  0  0  0  0  0  0
   59.2675   28.3849   48.3925 H   0  0  0  0  0  0  0  0  0  0  0  0
  1  2  1  0
  2  3  2  0
  3  4  1  0
  4  5  1  0
  5  6  1  0
  6  7  1  0
  6  8  1  0
  6  9  1  0
  9 10  2  0
 10 11  1  0
 10 12  1  0
 12 13  1  0
 12 14  2  0
 14 15  1  0
 14 16  1  0
 16 17  1  0
 17 18  1  0
 17 19  1  0
 17 20  1  0
 16 21  2  0
 21 22  1  0
  5 23  2  0
 23 24  1  0
 24 25  1  0
 25 26  2  0
  2 27  1  0
 27 28  2  0
 28 29  1  0
 28 30  1  0
 30 31  1  0
 30 32  2  0
 32 33  1  0
 32 34  1  0
 34 35  1  0
 34 36  2  0
 36 37  1  0
 25  4  1  0
 36 27  1  0
 21  9  1  0
M  CHG  1  24  -1
M  END
>  <UniqueID>  (60) 
57

>  <SMILES>  (60) 
Cc1cccc(Cc2n[n-]c(=O)n2/N=C\c2ccccc2)c1

>  <Energy>  (60) 
83.11808523615319

>  <Genealogy>  (60) 
Cc1cccc(Cc2n[n-]c(=O)n2N=Cc2ccccc2)c1 (protonated)
Cc1cccc(Cc2n[n-]c(=O)n2/N=C\c2ccccc2)c1 (cis-trans isomerization)
Cc1cccc(Cc2n[n-]c(=O)n2/N=C\c2ccccc2)c1 (3D coordinates assigned)
Cc1cccc(Cc2n[n-]c(=O)n2/N=C\c2ccccc2)c1 (optimized conformer: 83.11808523615319 kcal/mol)

>  <smiles>  (60) 
Cc1cccc(Cc2n[nH]c(=O)n2N=Cc2ccccc2)c1

>  <score_type>  (60) 
oracle

>  <origin>  (60) 
adg

>  <m_score__min__energy>  (60) 
-9.1999999999999993

>  <m_primary>  (60) 
energy

$$$$
60:0
     RDKit          3D

 56 59  0  0  0  0  0  0  0  0999 V2000
   57.4010   32.1560   41.5800 C   0  0  0  0  0  0  0  0  0  0  0  0
   58.3870   32.1730   42.6070 O   0  0  0  0  0  0  0  0  0  0  0  0
   58.2170   32.7760   43.8630 C   0  0  0  0  0  0  0  0  0  0  0  0
   59.0490   33.8220   44.3090 C   0  0  0  0  0  0  0  0  0  0  0  0
   58.8540   34.3910   45.5700 C   0  0  0  0  0  0  0  0  0  0  0  0
   57.8370   33.9200   46.4000 C   0  0  0  0  0  0  0  0  0  0  0  0
   57.0040   32.8850   45.9690 C   0  0  0  0  0  0  0  0  0  0  0  0
   57.1760   32.3200   44.6920 C   0  0  0  0  0  0  0  0  0  0  0  0
   56.3520   31.2370   44.2360 N   0  0  0  0  0  0  0  0  0  0  0  0
   56.2100   29.9620   44.8700 C   0  0  0  0  0  0  0  0  0  0  0  0
   55.4190   29.0970   44.4050 O   0  0  0  0  0  0  0  0  0  0  0  0
   57.0140   29.6610   46.0130 N   0  0  0  0  0  0  0  0  0  0  0  0
   58.0550   28.6730   46.0060 C   0  0  0  0  0  0  0  0  0  0  0  0
   59.4200   29.0550   45.9800 C   0  0  0  0  0  0  0  0  0  0  0  0
   59.8620   30.5000   45.8630 C   0  0  0  0  0  0  0  0  0  0  0  0
   60.6320   30.9130   47.0550 N   0  0  0  0  0  0  0  0  0  0  0  0
   61.1660   32.2900   46.8990 C   0  0  0  0  0  0  0  0  0  0  0  0
   61.4910   32.9280   48.2570 C   0  0  0  0  0  0  0  0  0  0  0  0
   60.2940   33.0330   49.1280 N   0  0  0  0  0  0  0  0  0  0  0  0
   59.7420   34.3970   49.1210 C   0  0  0  0  0  0  0  0  0  0  0  0
   59.2370   32.0490   48.8040 C   0  0  0  0  0  0  0  0  0  0  0  0
   59.8420   30.7300   48.3010 C   0  0  0  0  0  0  0  0  0  0  0  0
   60.4130   28.0630   45.9710 C   0  0  0  0  0  0  0  0  0  0  0  0
   60.0750   26.7110   45.9790 C   0  0  0  0  0  0  0  0  0  0  0  0
   58.7320   26.3200   45.9820 C   0  0  0  0  0  0  0  0  0  0  0  0
   58.3950   24.9570   45.9760 C   0  0  0  0  0  0  0  0  0  0  0  0
   57.0550   24.5640   45.9770 C   0  0  0  0  0  0  0  0  0  0  0  0
   56.0430   25.5240   45.9870 C   0  0  0  0  0  0  0  0  0  0  0  0
   56.3640   26.8840   45.9940 C   0  0  0  0  0  0  0  0  0  0  0  0
   57.7100   27.3020   45.9910 C   0  0  0  0  0  0  0  0  0  0  0  0
   56.3991   32.1387   42.0338 H   0  0  0  0  0  0  0  0  0  0  0  0
   57.5056   33.0561   40.9564 H   0  0  0  0  0  0  0  0  0  0  0  0
   57.5365   31.2601   40.9564 H   0  0  0  0  0  0  0  0  0  0  0  0
   59.8566   34.1927   43.6607 H   0  0  0  0  0  0  0  0  0  0  0  0
   59.5035   35.2116   45.9087 H   0  0  0  0  0  0  0  0  0  0  0  0
   57.6907   34.3643   47.3956 H   0  0  0  0  0  0  0  0  0  0  0  0
   56.2097   32.5098   46.6311 H   0  0  0  0  0  0  0  0  0  0  0  0
   60.4934   30.6125   44.9693 H   0  0  0  0  0  0  0  0  0  0  0  0
   58.9681   31.1361   45.7837 H   0  0  0  0  0  0  0  0  0  0  0  0
   62.0841   32.2503   46.2945 H   0  0  0  0  0  0  0  0  0  0  0  0
   60.3970   32.9032   46.4063 H   0  0  0  0  0  0  0  0  0  0  0  0
   62.2466   32.3117   48.7662 H   0  0  0  0  0  0  0  0  0  0  0  0
   61.8637   33.9461   48.0712 H   0  0  0  0  0  0  0  0  0  0  0  0
   59.6026   34.7415   50.1563 H   0  0  0  0  0  0  0  0  0  0  0  0
   60.4379   35.0715   48.6007 H   0  0  0  0  0  0  0  0  0  0  0  0
   58.7728   34.3977   48.6007 H   0  0  0  0  0  0  0  0  0  0  0  0
   58.6430   31.8496   49.7081 H   0  0  0  0  0  0  0  0  0  0  0  0
   58.6033   32.4676   48.0083 H   0  0  0  0  0  0  0  0  0  0  0  0
   60.5011   30.3223   49.0816 H   0  0  0  0  0  0  0  0  0  0  0  0
   59.0132   30.0423   48.0771 H   0  0  0  0  0  0  0  0  0  0  0  0
   61.4729   28.3569   45.9574 H   0  0  0  0  0  0  0  0  0  0  0  0
   60.8676   25.9482   45.9830 H   0  0  0  0  0  0  0  0  0  0  0  0
   59.1893   24.1961   45.9705 H   0  0  0  0  0  0  0  0  0  0  0  0
   56.7968   23.4947   45.9699 H   0  0  0  0  0  0  0  0  0  0  0  0
   54.9889   25.2095   45.9894 H   0  0  0  0  0  0  0  0  0  0  0  0
   55.5597   27.6344   46.0019 H   0  0  0  0  0  0  0  0  0  0  0  0
  1  2  1  0
  2  3  1  0
  3  4  2  0
  4  5  1  0
  5  6  2  0
  6  7  1  0
  7  8  2  0
  8  9  1  0
  9 10  1  0
 10 11  2  0
 10 12  1  0
 12 13  1  0
 13 14  1  0
 14 15  1  0
 15 16  1  0
 16 17  1  0
 17 18  1  0
 18 19  1  0
 19 20  1  0
 19 21  1  0
 21 22  1  0
 14 23  2  0
 23 24  1  0
 24 25  2  0
 25 26  1  0
 26 27  2  0
 27 28  1  0
 28 29  2  0
 29 30  1  0
  8  3  1  0
 30 13  2  0
 22 16  1  0
 30 25  1  0
  1 31  1  0
  1 32  1  0
  1 33  1  0
  4 34  1  0
  5 35  1  0
  6 36  1  0
  7 37  1  0
 15 38  1  0
 15 39  1  0
 17 40  1  0
 17 41  1  0
 18 42  1  0
 18 43  1  0
 20 44  1  0
 20 45  1  0
 20 46  1  0
 21 47  1  0
 21 48  1  0
 22 49  1  0
 22 50  1  0
 23 51  1  0
 24 52  1  0
 26 53  1  0
 27 54  1  0
 28 55  1  0
 29 56  1  0
M  CHG  2   9  -1  12  -1
M  END
>  <UniqueID>  (61) 
58

>  <SMILES>  (61) 
COc1ccccc1[N-]C(=O)[N-]c1c(CN2CCN(C)CC2)ccc2ccccc12

>  <Energy>  (61) 
86.2689499833888

>  <Genealogy>  (61) 
COc1ccccc1[N-]C(=O)[N-]c1c(CN2CCN(C)CC2)ccc2ccccc12 (protonated)
COc1ccccc1[N-]C(=O)[N-]c1c(CN2CCN(C)CC2)ccc2ccccc12 (3D coordinates assigned)
COc1ccccc1[N-]C(=O)[N-]c1c(CN2CCN(C)CC2)ccc2ccccc12 (nonaromatic ring conformer: 86.2689499833888 kcal/mol)

>  <smiles>  (61) 
COc1ccccc1NC(=O)Nc1c(CN2CCN(C)CC2)ccc2ccccc12

>  <score_type>  (61) 
oracle

>  <origin>  (61) 
adg

>  <m_score__min__energy>  (61) 
-11.68

>  <m_primary>  (61) 
energy

$$$$
61:0
     RDKit          3D

 63 67  0  0  0  0  0  0  0  0999 V2000
   55.9070   24.6940   46.7960 O   0  0  0  0  0  0  0  0  0  0  0  0
   56.1490   25.9060   46.5450 C   0  0  0  0  0  0  0  0  0  0  0  0
   55.1550   26.7080   45.9970 O   0  0  0  0  0  0  0  0  0  0  0  0
   57.4900   26.4910   46.8750 C   0  0  0  0  0  0  0  0  0  0  0  0
   58.2530   26.8860   45.5990 C   0  0  2  0  0  0  0  0  0  0  0  0
   59.7990   26.9130   45.8000 C   0  0  0  0  0  0  0  0  0  0  0  0
   60.2090   28.2510   45.5150 O   0  0  0  0  0  0  0  0  0  0  0  0
   59.1210   29.0200   45.1660 C   0  0  0  0  0  0  0  0  0  0  0  0
   59.1400   30.3620   44.7890 C   0  0  0  0  0  0  0  0  0  0  0  0
   57.9310   30.9750   44.4120 C   0  0  0  0  0  0  0  0  0  0  0  0
   57.9690   32.3140   43.9860 O   0  0  0  0  0  0  0  0  0  0  0  0
   57.3930   33.4150   44.6920 C   0  0  0  0  0  0  0  0  0  0  0  0
   58.2810   33.8330   45.8350 C   0  0  0  0  0  0  0  0  0  0  0  0
   59.0710   34.9920   45.7410 C   0  0  0  0  0  0  0  0  0  0  0  0
   59.9340   35.3450   46.7830 C   0  0  0  0  0  0  0  0  0  0  0  0
   60.0150   34.5470   47.9270 C   0  0  0  0  0  0  0  0  0  0  0  0
   59.2080   33.4050   48.0450 C   0  0  0  0  0  0  0  0  0  0  0  0
   59.2610   32.5830   49.2660 C   0  0  0  0  0  0  0  0  0  0  0  0
   58.9840   33.1740   50.5060 C   0  0  0  0  0  0  0  0  0  0  0  0
   59.0470   32.4120   51.6720 C   0  0  0  0  0  0  0  0  0  0  0  0
   59.3950   31.0600   51.6110 C   0  0  0  0  0  0  0  0  0  0  0  0
   59.7020   30.4490   50.3780 C   0  0  0  0  0  0  0  0  0  0  0  0
   60.0400   28.9740   50.3270 C   0  0  0  0  0  0  0  0  0  0  0  0
   59.3810   28.3490   49.2820 F   0  0  0  0  0  0  0  0  0  0  0  0
   59.6670   28.3790   51.5170 F   0  0  0  0  0  0  0  0  0  0  0  0
   61.4000   28.7850   50.1400 F   0  0  0  0  0  0  0  0  0  0  0  0
   59.6030   31.2160   49.1950 C   0  0  0  0  0  0  0  0  0  0  0  0
   59.8500   30.6320   47.9490 O   0  0  0  0  0  0  0  0  0  0  0  0
   61.1680   30.2920   47.5370 C   0  0  0  0  0  0  0  0  0  0  0  0
   62.1070   31.3900   47.9370 C   0  0  0  0  0  0  0  0  0  0  0  0
   62.7260   31.3650   49.2010 C   0  0  0  0  0  0  0  0  0  0  0  0
   63.5740   32.4060   49.5890 C   0  0  0  0  0  0  0  0  0  0  0  0
   63.8030   33.4840   48.7270 C   0  0  0  0  0  0  0  0  0  0  0  0
   63.1770   33.5240   47.4750 C   0  0  0  0  0  0  0  0  0  0  0  0
   62.3230   32.4860   47.0850 C   0  0  0  0  0  0  0  0  0  0  0  0
   58.3380   33.0540   47.0010 C   0  0  0  0  0  0  0  0  0  0  0  0
   56.7250   30.2240   44.4560 C   0  0  0  0  0  0  0  0  0  0  0  0
   56.7410   28.8740   44.8450 C   0  0  0  0  0  0  0  0  0  0  0  0
   57.9630   28.2980   45.2030 C   0  0  0  0  0  0  0  0  0  0  0  0
   57.3476   27.3853   47.4995 H   0  0  0  0  0  0  0  0  0  0  0  0
   58.0784   25.7328   47.4125 H   0  0  0  0  0  0  0  0  0  0  0  0
   57.9322   26.1358   44.8612 H   0  0  0  0  0  0  0  0  0  0  0  0
   60.0545   26.6474   46.8364 H   0  0  0  0  0  0  0  0  0  0  0  0
   60.3036   26.1883   45.1441 H   0  0  0  0  0  0  0  0  0  0  0  0
   60.0817   30.9305   44.7863 H   0  0  0  0  0  0  0  0  0  0  0  0
   57.2689   34.2624   44.0017 H   0  0  0  0  0  0  0  0  0  0  0  0
   56.4168   33.1072   45.0947 H   0  0  0  0  0  0  0  0  0  0  0  0
   59.0099   35.6245   44.8431 H   0  0  0  0  0  0  0  0  0  0  0  0
   60.5502   36.2526   46.7019 H   0  0  0  0  0  0  0  0  0  0  0  0
   60.7115   34.8140   48.7354 H   0  0  0  0  0  0  0  0  0  0  0  0
   58.7167   34.2397   50.5596 H   0  0  0  0  0  0  0  0  0  0  0  0
   58.8220   32.8767   52.6433 H   0  0  0  0  0  0  0  0  0  0  0  0
   59.4298   30.4654   52.5358 H   0  0  0  0  0  0  0  0  0  0  0  0
   61.4737   29.3521   48.0199 H   0  0  0  0  0  0  0  0  0  0  0  0
   61.1927   30.1636   46.4448 H   0  0  0  0  0  0  0  0  0  0  0  0
   62.5418   30.5237   49.8853 H   0  0  0  0  0  0  0  0  0  0  0  0
   64.0624   32.3777   50.5742 H   0  0  0  0  0  0  0  0  0  0  0  0
   64.4746   34.2998   49.0327 H   0  0  0  0  0  0  0  0  0  0  0  0
   63.3566   34.3718   46.7976 H   0  0  0  0  0  0  0  0  0  0  0  0
   61.8192   32.5285   46.1081 H   0  0  0  0  0  0  0  0  0  0  0  0
   57.6981   32.1645   47.0971 H   0  0  0  0  0  0  0  0  0  0  0  0
   55.7729   30.7029   44.1837 H   0  0  0  0  0  0  0  0  0  0  0  0
   55.8129   28.2839   44.8673 H   0  0  0  0  0  0  0  0  0  0  0  0
  1  2  2  0
  2  3  1  0
  2  4  1  0
  4  5  1  0
  5  6  1  0
  6  7  1  0
  7  8  1  0
  8  9  2  0
  9 10  1  0
 10 11  1  0
 11 12  1  0
 12 13  1  0
 13 14  2  0
 14 15  1  0
 15 16  2  0
 16 17  1  0
 17 18  1  0
 18 19  2  0
 19 20  1  0
 20 21  2  0
 21 22  1  0
 22 23  1  0
 23 24  1  0
 23 25  1  0
 23 26  1  0
 22 27  2  0
 27 28  1  0
 28 29  1  0
 29 30  1  0
 30 31  2  0
 31 32  1  0
 32 33  2  0
 33 34  1  0
 34 35  2  0
 17 36  2  0
 10 37  2  0
 37 38  1  0
 38 39  2  0
 39  5  1  0
 39  8  1  0
 36 13  1  0
 27 18  1  0
 35 30  1  0
  4 40  1  0
  4 41  1  0
  5 42  1  6
  6 43  1  0
  6 44  1  0
  9 45  1  0
 12 46  1  0
 12 47  1  0
 14 48  1  0
 15 49  1  0
 16 50  1  0
 19 51  1  0
 20 52  1  0
 21 53  1  0
 29 54  1  0
 29 55  1  0
 31 56  1  0
 32 57  1  0
 33 58  1  0
 34 59  1  0
 35 60  1  0
 36 61  1  0
 37 62  1  0
 38 63  1  0
M  CHG  1   3  -1
M  END
>  <UniqueID>  (62) 
59

>  <SMILES>  (62) 
O=C([O-])C[C@@H]1COc2cc(OCc3cccc(-c4cccc(C(F)(F)F)c4OCc4ccccc4)c3)ccc21

>  <Energy>  (62) 
95.7644096402627

>  <Genealogy>  (62) 
O=C([O-])CC1COc2cc(OCc3cccc(-c4cccc(C(F)(F)F)c4OCc4ccccc4)c3)ccc21 (protonated)
O=C([O-])C[C@@H]1COc2cc(OCc3cccc(-c4cccc(C(F)(F)F)c4OCc4ccccc4)c3)ccc21 (chirality)
O=C([O-])C[C@@H]1COc2cc(OCc3cccc(-c4cccc(C(F)(F)F)c4OCc4ccccc4)c3)ccc21 (3D coordinates assigned)
O=C([O-])C[C@@H]1COc2cc(OCc3cccc(-c4cccc(C(F)(F)F)c4OCc4ccccc4)c3)ccc21 (nonaromatic ring conformer: 95.7644096402627 kcal/mol)

>  <smiles>  (62) 
O=C(O)CC1COc2cc(OCc3cccc(-c4cccc(C(F)(F)F)c4OCc4ccccc4)c3)ccc21

>  <score_type>  (62) 
oracle

>  <origin>  (62) 
adg

>  <m_score__min__energy>  (62) 
-13.710000000000001

>  <m_primary>  (62) 
energy

$$$$
62:0
     RDKit          3D

 39 41  0  0  0  0  0  0  0  0999 V2000
   56.9960   33.0990   46.3410 N   0  0  0  0  0  0  0  0  0  0  0  0
   58.3910   33.3040   46.6020 C   0  0  0  0  0  0  0  0  0  0  0  0
   58.8470   34.5900   46.9310 C   0  0  0  0  0  0  0  0  0  0  0  0
   60.2030   34.8210   47.1710 C   0  0  0  0  0  0  0  0  0  0  0  0
   61.1200   33.7720   47.0740 C   0  0  0  0  0  0  0  0  0  0  0  0
   60.6810   32.4890   46.7460 C   0  0  0  0  0  0  0  0  0  0  0  0
   59.3180   32.2420   46.5120 C   0  0  0  0  0  0  0  0  0  0  0  0
   58.8920   30.9050   46.2030 N   0  0  0  0  0  0  0  0  0  0  0  0
   58.5410   29.9830   47.2880 C   0  0  0  0  0  0  0  0  0  0  0  0
   58.8330   28.5650   46.8810 C   0  0  0  0  0  0  0  0  0  0  0  0
   57.7800   27.6780   46.6070 C   0  0  0  0  0  0  0  0  0  0  0  0
   58.0520   26.3500   46.2670 C   0  0  0  0  0  0  0  0  0  0  0  0
   59.3730   25.8980   46.2010 C   0  0  0  0  0  0  0  0  0  0  0  0
   60.4250   26.7720   46.4830 C   0  0  0  0  0  0  0  0  0  0  0  0
   60.1590   28.1000   46.8290 C   0  0  0  0  0  0  0  0  0  0  0  0
   58.8980   30.4500   44.8110 C   0  0  0  0  0  0  0  0  0  0  0  0
   57.5020   30.1540   44.3660 C   0  0  0  0  0  0  0  0  0  0  0  0
   57.1390   29.2850   43.3640 C   0  0  0  0  0  0  0  0  0  0  0  0
   55.8090   29.3640   43.2170 N   0  0  0  0  0  0  0  0  0  0  0  0
   55.3960   30.2740   44.1200 C   0  0  0  0  0  0  0  0  0  0  0  0
   56.4120   30.7920   44.8400 N   0  0  0  0  0  0  0  0  0  0  0  0
   56.2780   33.7390   46.7470 H   0  0  0  0  0  0  0  0  0  0  0  0
   56.6630   32.3170   45.7370 H   0  0  0  0  0  0  0  0  0  0  0  0
   58.1308   35.4221   47.0003 H   0  0  0  0  0  0  0  0  0  0  0  0
   60.5495   35.8306   47.4368 H   0  0  0  0  0  0  0  0  0  0  0  0
   62.1888   33.9575   47.2563 H   0  0  0  0  0  0  0  0  0  0  0  0
   61.4066   31.6657   46.6701 H   0  0  0  0  0  0  0  0  0  0  0  0
   59.1310   30.2330   48.1821 H   0  0  0  0  0  0  0  0  0  0  0  0
   57.4673   30.0792   47.5069 H   0  0  0  0  0  0  0  0  0  0  0  0
   56.7388   28.0289   46.6600 H   0  0  0  0  0  0  0  0  0  0  0  0
   57.2242   25.6586   46.0507 H   0  0  0  0  0  0  0  0  0  0  0  0
   59.5839   24.8538   45.9269 H   0  0  0  0  0  0  0  0  0  0  0  0
   61.4642   26.4150   46.4328 H   0  0  0  0  0  0  0  0  0  0  0  0
   60.9893   28.7831   47.0612 H   0  0  0  0  0  0  0  0  0  0  0  0
   59.3253   31.2368   44.1720 H   0  0  0  0  0  0  0  0  0  0  0  0
   59.5047   29.5359   44.7316 H   0  0  0  0  0  0  0  0  0  0  0  0
   57.8183   28.6406   42.7866 H   0  0  0  0  0  0  0  0  0  0  0  0
   55.2190   28.8360   42.5410 H   0  0  0  0  0  0  0  0  0  0  0  0
   54.3435   30.5635   44.2556 H   0  0  0  0  0  0  0  0  0  0  0  0
  1  2  1  0
  2  3  2  0
  3  4  1  0
  4  5  2  0
  5  6  1  0
  6  7  2  0
  7  8  1  0
  8  9  1  0
  9 10  1  0
 10 11  2  0
 11 12  1  0
 12 13  2  0
 13 14  1  0
 14 15  2  0
  8 16  1  0
 16 17  1  0
 17 18  2  0
 18 19  1  0
 19 20  1  0
 20 21  2  0
  7  2  1  0
 15 10  1  0
 21 17  1  0
  1 22  1  0
  1 23  1  0
  3 24  1  0
  4 25  1  0
  5 26  1  0
  6 27  1  0
  9 28  1  0
  9 29  1  0
 11 30  1  0
 12 31  1  0
 13 32  1  0
 14 33  1  0
 15 34  1  0
 16 35  1  0
 16 36  1  0
 18 37  1  0
 19 38  1  0
 20 39  1  0
M  END
>  <UniqueID>  (63) 
60

>  <SMILES>  (63) 
Nc1ccccc1N(Cc1ccccc1)Cc1c[nH]cn1

>  <Energy>  (63) 
70.34306721320993

>  <Genealogy>  (63) 
Nc1ccccc1N(Cc1ccccc1)Cc1c[nH]cn1 (3D coordinates assigned)
Nc1ccccc1N(Cc1ccccc1)Cc1c[nH]cn1 (optimized conformer: 70.34306721320993 kcal/mol)

>  <smiles>  (63) 
Nc1ccccc1N(Cc1ccccc1)Cc1c[nH]cn1

>  <score_type>  (63) 
oracle

>  <origin>  (63) 
adg

>  <m_score__min__energy>  (63) 
-6.5499999999999998

>  <m_primary>  (63) 
energy

$$$$
63:0
     RDKit          3D

 44 47  0  0  0  0  0  0  0  0999 V2000
   55.1460   29.3570   44.6160 O   0  0  0  0  0  0  0  0  0  0  0  0
   56.2690   29.8630   44.8770 C   0  0  0  0  0  0  0  0  0  0  0  0
   57.2360   29.1310   45.6430 N   0  0  0  0  0  0  0  0  0  0  0  0
   57.4420   27.7110   45.6270 C   0  0  0  0  0  0  0  0  0  0  0  0
   56.3220   26.8710   45.6630 C   0  0  0  0  0  0  0  0  0  0  0  0
   56.4760   25.4820   45.6260 C   0  0  0  0  0  0  0  0  0  0  0  0
   57.7560   24.9130   45.5490 C   0  0  0  0  0  0  0  0  0  0  0  0
   57.9210   23.4200   45.4720 C   0  0  0  0  0  0  0  0  0  0  0  0
   56.5620   22.7230   45.5500 C   0  0  0  0  0  0  0  0  0  0  0  0
   56.7340   21.3210   45.9320 N   0  0  0  0  0  0  0  0  0  0  0  0
   57.1270   20.8600   47.1360 C   0  0  0  0  0  0  0  0  0  0  0  0
   57.3860   21.6720   48.2340 O   0  0  0  0  0  0  0  0  0  0  0  0
   57.2430   19.4850   47.1290 C   0  0  0  0  0  0  0  0  0  0  0  0
   56.9190   19.0800   45.8470 C   0  0  0  0  0  0  0  0  0  0  0  0
   56.6210   20.2300   45.1420 C   0  0  0  0  0  0  0  0  0  0  0  0
   56.2680   20.2540   43.7950 O   0  0  0  0  0  0  0  0  0  0  0  0
   58.8770   25.7540   45.4750 C   0  0  0  0  0  0  0  0  0  0  0  0
   58.7230   27.1430   45.5120 C   0  0  0  0  0  0  0  0  0  0  0  0
   56.6070   31.1300   44.3050 N   0  0  0  0  0  0  0  0  0  0  0  0
   57.3990   32.1530   44.9250 C   0  0  0  0  0  0  0  0  0  0  0  0
   57.8780   33.2740   44.1940 C   0  0  0  0  0  0  0  0  0  0  0  0
   58.6740   34.2490   44.8230 C   0  0  0  0  0  0  0  0  0  0  0  0
   58.9840   34.0660   46.1670 C   0  0  0  0  0  0  0  0  0  0  0  0
   58.5490   32.9870   46.8640 C   0  0  0  0  0  0  0  0  0  0  0  0
   57.7600   32.0010   46.2790 C   0  0  0  0  0  0  0  0  0  0  0  0
   59.0120   33.0600   48.1640 O   0  0  0  0  0  0  0  0  0  0  0  0
   59.7860   34.2610   48.2900 C   0  0  0  0  0  0  0  0  0  0  0  0
   59.7430   34.8730   46.9930 O   0  0  0  0  0  0  0  0  0  0  0  0
   55.3139   27.3073   45.7208 H   0  0  0  0  0  0  0  0  0  0  0  0
   55.5891   24.8320   45.6574 H   0  0  0  0  0  0  0  0  0  0  0  0
   58.4071   23.1587   44.5205 H   0  0  0  0  0  0  0  0  0  0  0  0
   58.5389   23.0876   46.3191 H   0  0  0  0  0  0  0  0  0  0  0  0
   55.9364   23.2296   46.2996 H   0  0  0  0  0  0  0  0  0  0  0  0
   56.0779   22.7692   44.5633 H   0  0  0  0  0  0  0  0  0  0  0  0
   57.5342   18.8415   47.9723 H   0  0  0  0  0  0  0  0  0  0  0  0
   56.9020   18.0486   45.4651 H   0  0  0  0  0  0  0  0  0  0  0  0
   56.6680   19.6080   43.1260 H   0  0  0  0  0  0  0  0  0  0  0  0
   59.8829   25.3176   45.3873 H   0  0  0  0  0  0  0  0  0  0  0  0
   59.6075   27.7941   45.4509 H   0  0  0  0  0  0  0  0  0  0  0  0
   57.6246   33.3801   43.1289 H   0  0  0  0  0  0  0  0  0  0  0  0
   59.0392   35.1271   44.2703 H   0  0  0  0  0  0  0  0  0  0  0  0
   57.4271   31.1267   46.8576 H   0  0  0  0  0  0  0  0  0  0  0  0
   59.3445   34.9271   49.0459 H   0  0  0  0  0  0  0  0  0  0  0  0
   60.8168   34.0542   48.6135 H   0  0  0  0  0  0  0  0  0  0  0  0
  1  2  2  0
  2  3  1  0
  3  4  1  0
  4  5  2  0
  5  6  1  0
  6  7  2  0
  7  8  1  0
  8  9  1  0
  9 10  1  0
 10 11  1  0
 11 12  1  0
 11 13  2  0
 13 14  1  0
 14 15  2  0
 15 16  1  0
  7 17  1  0
 17 18  2  0
  2 19  1  0
 19 20  1  0
 20 21  2  0
 21 22  1  0
 22 23  2  0
 23 24  1  0
 24 25  2  0
 24 26  1  0
 26 27  1  0
 27 28  1  0
 18  4  1  0
 25 20  1  0
 15 10  1  0
 28 23  1  0
  5 29  1  0
  6 30  1  0
  8 31  1  0
  8 32  1  0
  9 33  1  0
  9 34  1  0
 13 35  1  0
 14 36  1  0
 16 37  1  0
 17 38  1  0
 18 39  1  0
 21 40  1  0
 22 41  1  0
 25 42  1  0
 27 43  1  0
 27 44  1  0
M  CHG  3   3  -1  12  -1  19  -1
M  END
>  <UniqueID>  (64) 
61

>  <SMILES>  (64) 
O=C([N-]c1ccc(CCn2c([O-])ccc2O)cc1)[N-]c1ccc2c(c1)OCO2

>  <Energy>  (64) 
106.4264450695636

>  <Genealogy>  (64) 
O=C([N-]c1ccc(CCn2c([O-])ccc2O)cc1)[N-]c1ccc2c(c1)OCO2 (protonated)
O=C([N-]c1ccc(CCn2c([O-])ccc2O)cc1)[N-]c1ccc2c(c1)OCO2 (3D coordinates assigned)
O=C([N-]c1ccc(CCn2c([O-])ccc2O)cc1)[N-]c1ccc2c(c1)OCO2 (nonaromatic ring conformer: 106.4264450695636 kcal/mol)

>  <smiles>  (64) 
O=C(Nc1ccc(CCn2c(O)ccc2O)cc1)Nc1ccc2c(c1)OCO2

>  <score_type>  (64) 
oracle

>  <origin>  (64) 
adg

>  <m_score__min__energy>  (64) 
-13.109999999999999

>  <m_primary>  (64) 
energy

$$$$
64:0
     RDKit          3D

 75 80  0  0  0  0  0  0  0  0999 V2000
   54.5210   27.0570   46.7230 H   0  0  0  0  0  0  0  0  0  0  0  0
   54.7640   26.3210   46.0190 N   0  0  0  0  0  0  0  0  0  0  0  0
   56.4900   26.2040   45.9940 S   0  0  0  0  0  0  0  0  0  0  0  0
   56.9850   25.6520   47.3000 O   0  0  0  0  0  0  0  0  0  0  0  0
   56.9010   25.2790   44.8840 O   0  0  0  0  0  0  0  0  0  0  0  0
   57.1820   27.8100   45.7490 C   0  0  0  0  0  0  0  0  0  0  0  0
   56.5390   28.7290   44.9030 C   0  0  0  0  0  0  0  0  0  0  0  0
   55.5925   28.4535   44.4150 H   0  0  0  0  0  0  0  0  0  0  0  0
   57.0950   29.9910   44.6780 C   0  0  0  0  0  0  0  0  0  0  0  0
   56.5840   30.7064   44.0169 H   0  0  0  0  0  0  0  0  0  0  0  0
   58.2980   30.3450   45.2910 C   0  0  0  0  0  0  0  0  0  0  0  0
   58.7387   31.3353   45.1039 H   0  0  0  0  0  0  0  0  0  0  0  0
   58.9430   29.4450   46.1410 C   0  0  0  0  0  0  0  0  0  0  0  0
   59.8941   29.7270   46.6163 H   0  0  0  0  0  0  0  0  0  0  0  0
   58.3830   28.1790   46.3930 C   0  0  0  0  0  0  0  0  0  0  0  0
   59.0660   27.2240   47.2230 N   0  0  0  0  0  0  0  0  0  0  0  0
   59.8050   27.4970   48.2580 C   0  0  0  0  0  0  0  0  0  0  0  0
   60.0390   26.5650   49.2240 N   0  0  0  0  0  0  0  0  0  0  0  0
   60.8400   26.8570   50.2780 C   0  0  0  0  0  0  0  0  0  0  0  0
   61.0400   25.9620   51.1970 N   0  0  0  0  0  0  0  0  0  0  0  0
   61.2870   26.2810   52.6010 C   0  0  0  0  0  0  0  0  0  0  0  0
   61.5670   25.3643   53.1407 H   0  0  0  0  0  0  0  0  0  0  0  0
   62.1043   27.0140   52.6702 H   0  0  0  0  0  0  0  0  0  0  0  0
   60.0450   26.8610   53.2130 C   0  0  0  0  0  0  0  0  0  0  0  0
   59.3230   26.1320   54.1660 C   0  0  0  0  0  0  0  0  0  0  0  0
   59.6611   25.1266   54.4573 H   0  0  0  0  0  0  0  0  0  0  0  0
   58.2080   26.6600   54.7320 N   0  0  0  0  0  0  0  0  0  0  0  0
   57.7580   27.9010   54.4070 C   0  0  0  0  0  0  0  0  0  0  0  0
   56.8484   28.2953   54.8836 H   0  0  0  0  0  0  0  0  0  0  0  0
   58.4490   28.6830   53.4650 C   0  0  0  0  0  0  0  0  0  0  0  0
   57.9620   30.0360   53.0980 C   0  0  0  0  0  0  0  0  0  0  0  0
   58.3500   31.1630   53.8490 C   0  0  0  0  0  0  0  0  0  0  0  0
   59.0190   31.0405   54.7136 H   0  0  0  0  0  0  0  0  0  0  0  0
   57.8890   32.4370   53.5010 C   0  0  0  0  0  0  0  0  0  0  0  0
   58.1964   33.3118   54.0928 H   0  0  0  0  0  0  0  0  0  0  0  0
   57.0400   32.6020   52.4050 C   0  0  0  0  0  0  0  0  0  0  0  0
   56.6811   33.6055   52.1327 H   0  0  0  0  0  0  0  0  0  0  0  0
   56.6470   31.4920   51.6550 C   0  0  0  0  0  0  0  0  0  0  0  0
   55.9754   31.6219   50.7936 H   0  0  0  0  0  0  0  0  0  0  0  0
   57.1050   30.2150   51.9960 C   0  0  0  0  0  0  0  0  0  0  0  0
   56.7934   29.3452   51.3991 H   0  0  0  0  0  0  0  0  0  0  0  0
   59.6090   28.1490   52.8750 C   0  0  0  0  0  0  0  0  0  0  0  0
   60.1763   28.7452   52.1451 H   0  0  0  0  0  0  0  0  0  0  0  0
   61.4090   28.0880   50.3660 N   0  0  0  0  0  0  0  0  0  0  0  0
   61.1810   29.0250   49.4080 C   0  0  0  0  0  0  0  0  0  0  0  0
   61.6670   30.2270   49.5180 N   0  0  0  0  0  0  0  0  0  0  0  0
   60.8660   31.4150   49.5990 C   0  0  0  0  0  0  0  0  0  0  0  0
   60.5560   31.9870   50.8380 C   0  0  0  0  0  0  0  0  0  0  0  0
   60.9304   31.5290   51.7654 H   0  0  0  0  0  0  0  0  0  0  0  0
   59.7720   33.1380   50.8950 C   0  0  0  0  0  0  0  0  0  0  0  0
   59.5426   33.5954   51.8687 H   0  0  0  0  0  0  0  0  0  0  0  0
   59.2760   33.7140   49.7240 C   0  0  0  0  0  0  0  0  0  0  0  0
   58.6532   34.6185   49.7876 H   0  0  0  0  0  0  0  0  0  0  0  0
   59.5620   33.1520   48.4540 C   0  0  0  0  0  0  0  0  0  0  0  0
   59.0090   33.7270   47.2260 N   0  0  0  0  0  0  0  0  0  0  0  0
   57.6100   33.4150   46.8600 C   0  0  0  0  0  0  0  0  0  0  0  0
   56.9665   33.6806   47.7117 H   0  0  0  0  0  0  0  0  0  0  0  0
   57.5868   32.3429   46.6148 H   0  0  0  0  0  0  0  0  0  0  0  0
   57.0880   34.1510   45.6210 C   0  0  0  0  0  0  0  0  0  0  0  0
   56.7308   35.1450   45.9283 H   0  0  0  0  0  0  0  0  0  0  0  0
   56.2811   33.5396   45.1907 H   0  0  0  0  0  0  0  0  0  0  0  0
   58.1100   34.3220   44.5830 N   0  0  0  0  0  0  0  0  0  0  0  0
   58.5540   33.0450   43.9980 C   0  0  0  0  0  0  0  0  0  0  0  0
   58.7998   32.3381   44.8042 H   0  0  0  0  0  0  0  0  0  0  0  0
   57.7486   32.6267   43.3765 H   0  0  0  0  0  0  0  0  0  0  0  0
   59.4452   33.2166   43.3765 H   0  0  0  0  0  0  0  0  0  0  0  0
   59.2190   35.1250   45.1080 C   0  0  0  0  0  0  0  0  0  0  0  0
   58.8282   36.1104   45.4017 H   0  0  0  0  0  0  0  0  0  0  0  0
   59.9735   35.1992   44.3110 H   0  0  0  0  0  0  0  0  0  0  0  0
   59.9050   34.4900   46.3260 C   0  0  0  0  0  0  0  0  0  0  0  0
   60.3715   35.2953   46.9124 H   0  0  0  0  0  0  0  0  0  0  0  0
   60.6277   33.7636   45.9260 H   0  0  0  0  0  0  0  0  0  0  0  0
   60.3980   32.0060   48.4200 C   0  0  0  0  0  0  0  0  0  0  0  0
   60.6834   31.5743   47.4493 H   0  0  0  0  0  0  0  0  0  0  0  0
   60.3820   28.7230   48.3550 N   0  0  0  0  0  0  0  0  0  0  0  0
  1  2  1  0
  2  3  1  0
  3  4  2  0
  3  5  2  0
  3  6  1  0
  6  7  2  0
  7  8  1  0
  7  9  1  0
  9 10  1  0
  9 11  2  0
 11 12  1  0
 11 13  1  0
 13 14  1  0
 13 15  2  0
 15 16  1  0
 16 17  2  3
 17 18  1  0
 18 19  1  0
 19 20  2  3
 20 21  1  0
 21 22  1  0
 21 23  1  0
 21 24  1  0
 24 25  2  0
 25 26  1  0
 25 27  1  0
 27 28  2  0
 28 29  1  0
 28 30  1  0
 30 31  1  0
 31 32  2  0
 32 33  1  0
 32 34  1  0
 34 35  1  0
 34 36  2  0
 36 37  1  0
 36 38  1  0
 38 39  1  0
 38 40  2  0
 40 41  1  0
 30 42  2  0
 42 43  1  0
 19 44  1  0
 44 45  1  0
 45 46  2  0
 46 47  1  0
 47 48  2  0
 48 49  1  0
 48 50  1  0
 50 51  1  0
 50 52  2  0
 52 53  1  0
 52 54  1  0
 54 55  1  0
 55 56  1  0
 56 57  1  0
 56 58  1  0
 56 59  1  0
 59 60  1  0
 59 61  1  0
 59 62  1  0
 62 63  1  0
 63 64  1  0
 63 65  1  0
 63 66  1  0
 62 67  1  0
 67 68  1  0
 67 69  1  0
 67 70  1  0
 70 71  1  0
 70 72  1  0
 54 73  2  0
 73 74  1  0
 45 75  1  0
 15  6  1  0
 75 17  1  0
 42 24  1  0
 73 47  1  0
 40 31  1  0
 70 55  1  0
M  CHG  4   2  -1  18  -1  44  -1  75  -1
M  END
>  <UniqueID>  (65) 
62

>  <SMILES>  (65) 
CN1CCN(c2cccc(/N=c3\[n-]c(=NCc4cncc(-c5ccccc5)c4)[n-]c(=Nc4ccccc4S([NH-])(=O)=O)[n-]3)c2)CC1

>  <Energy>  (65) 
113.1083554091039

>  <Genealogy>  (65) 
CN1CCN(c2cccc(N=c3[n-]c(=NCc4cncc(-c5ccccc5)c4)[n-]c(=Nc4ccccc4S([NH-])(=O)=O)[n-]3)c2)CC1 (protonated)
CN1CCN(c2cccc(/N=c3\[n-]c(=NCc4cncc(-c5ccccc5)c4)[n-]c(=Nc4ccccc4S([NH-])(=O)=O)[n-]3)c2)CC1 (cis-trans isomerization)
CN1CCN(c2cccc(/N=c3\[n-]c(=NCc4cncc(-c5ccccc5)c4)[n-]c(=Nc4ccccc4S([NH-])(=O)=O)[n-]3)c2)CC1 (3D coordinates assigned)
CN1CCN(c2cccc(/N=c3\[n-]c(=NCc4cncc(-c5ccccc5)c4)[n-]c(=Nc4ccccc4S([NH-])(=O)=O)[n-]3)c2)CC1 (nonaromatic ring conformer: 113.1083554091039 kcal/mol)

>  <smiles>  (65) 
CN1CCN(c2cccc(N=c3[nH]c(=NCc4cncc(-c5ccccc5)c4)[nH]c(=Nc4ccccc4S(N)(=O)=O)[nH]3)c2)CC1

>  <score_type>  (65) 
oracle

>  <origin>  (65) 
adg

>  <m_score__min__energy>  (65) 
-19.27

>  <m_primary>  (65) 
energy

$$$$
65:0
     RDKit          3D

 34 35  0  0  0  0  0  0  0  0999 V2000
   55.1540   26.4390   45.9770 N   0  0  0  0  0  0  0  0  0  0  0  0
   56.8600   26.7150   46.0090 S   0  0  0  0  0  0  0  0  0  0  0  0
   57.5410   25.7590   45.0700 O   0  0  0  0  0  0  0  0  0  0  0  0
   57.3780   26.4740   47.4000 O   0  0  0  0  0  0  0  0  0  0  0  0
   57.1970   28.3730   45.5230 C   0  0  0  0  0  0  0  0  0  0  0  0
   56.2930   29.0680   44.7100 C   0  0  0  0  0  0  0  0  0  0  0  0
   56.5670   30.3810   44.3160 C   0  0  0  0  0  0  0  0  0  0  0  0
   57.7640   31.0040   44.7120 C   0  0  0  0  0  0  0  0  0  0  0  0
   58.0620   32.3590   44.3500 N   0  0  0  0  0  0  0  0  0  0  0  0
   57.6930   33.5380   45.0790 C   0  0  0  0  0  0  0  0  0  0  0  0
   57.8370   34.6620   44.5300 O   0  0  0  0  0  0  0  0  0  0  0  0
   57.0940   33.4680   46.4580 C   0  0  0  0  0  0  0  0  0  0  0  0
   57.9460   34.1080   47.4050 O   0  0  0  0  0  0  0  0  0  0  0  0
   59.2800   34.4430   47.1350 C   0  0  0  0  0  0  0  0  0  0  0  0
   59.5720   35.6020   46.7290 O   0  0  0  0  0  0  0  0  0  0  0  0
   60.3440   33.4340   47.3270 C   0  0  0  0  0  0  0  0  0  0  0  0
   61.6710   33.7140   46.9600 C   0  0  0  0  0  0  0  0  0  0  0  0
   62.6450   32.7820   47.1400 N   0  0  0  0  0  0  0  0  0  0  0  0
   62.3770   31.5610   47.6730 C   0  0  0  0  0  0  0  0  0  0  0  0
   61.0750   31.2350   48.0540 C   0  0  0  0  0  0  0  0  0  0  0  0
   60.6910   29.5210   48.8040 Br  0  0  0  0  0  0  0  0  0  0  0  0
   60.0560   32.1740   47.8800 C   0  0  0  0  0  0  0  0  0  0  0  0
   58.6540   30.3130   45.5420 C   0  0  0  0  0  0  0  0  0  0  0  0
   58.3790   29.0000   45.9360 C   0  0  0  0  0  0  0  0  0  0  0  0
   54.7290   27.0850   46.6800 H   0  0  0  0  0  0  0  0  0  0  0  0
   55.3643   28.5792   44.3804 H   0  0  0  0  0  0  0  0  0  0  0  0
   55.8438   30.9288   43.6940 H   0  0  0  0  0  0  0  0  0  0  0  0
   56.1155   33.9705   46.4537 H   0  0  0  0  0  0  0  0  0  0  0  0
   56.9763   32.4118   46.7418 H   0  0  0  0  0  0  0  0  0  0  0  0
   61.9235   34.6922   46.5248 H   0  0  0  0  0  0  0  0  0  0  0  0
   63.1874   30.8289   47.8042 H   0  0  0  0  0  0  0  0  0  0  0  0
   59.0258   31.9272   48.1763 H   0  0  0  0  0  0  0  0  0  0  0  0
   59.5752   30.8057   45.8864 H   0  0  0  0  0  0  0  0  0  0  0  0
   59.0936   28.4577   46.5726 H   0  0  0  0  0  0  0  0  0  0  0  0
  1  2  1  0
  2  3  2  0
  2  4  2  0
  2  5  1  0
  5  6  2  0
  6  7  1  0
  7  8  2  0
  8  9  1  0
  9 10  1  0
 10 11  2  0
 10 12  1  0
 12 13  1  0
 13 14  1  0
 14 15  2  0
 14 16  1  0
 16 17  2  0
 17 18  1  0
 18 19  2  0
 19 20  1  0
 20 21  1  0
 20 22  2  0
  8 23  1  0
 23 24  2  0
 24  5  1  0
 22 16  1  0
  1 25  1  0
  6 26  1  0
  7 27  1  0
 12 28  1  0
 12 29  1  0
 17 30  1  0
 19 31  1  0
 22 32  1  0
 23 33  1  0
 24 34  1  0
M  CHG  2   1  -1   9  -1
M  END
>  <UniqueID>  (66) 
63

>  <SMILES>  (66) 
[NH-]S(=O)(=O)c1ccc([N-]C(=O)COC(=O)c2cncc(Br)c2)cc1

>  <Energy>  (66) 
38.252669030263334

>  <Genealogy>  (66) 
[NH-]S(=O)(=O)c1ccc([N-]C(=O)COC(=O)c2cncc(Br)c2)cc1 (protonated)
[NH-]S(=O)(=O)c1ccc([N-]C(=O)COC(=O)c2cncc(Br)c2)cc1 (3D coordinates assigned)
[NH-]S(=O)(=O)c1ccc([N-]C(=O)COC(=O)c2cncc(Br)c2)cc1 (optimized conformer: 38.252669030263334 kcal/mol)

>  <smiles>  (66) 
NS(=O)(=O)c1ccc(NC(=O)COC(=O)c2cncc(Br)c2)cc1

>  <score_type>  (66) 
oracle

>  <origin>  (66) 
adg

>  <m_score__min__energy>  (66) 
-10.77

>  <m_primary>  (66) 
energy

$$$$
66:0
     RDKit          3D

 59 62  0  0  0  0  0  0  0  0999 V2000
   58.7023   30.1969   52.4059 H   0  0  0  0  0  0  0  0  0  0  0  0
   59.1230   30.2280   51.3900 C   0  0  0  0  0  0  0  0  0  0  0  0
   59.4410   31.4200   50.8250 N   0  0  0  0  0  0  0  0  0  0  0  0
   59.9590   31.4650   49.5690 C   0  0  0  0  0  0  0  0  0  0  0  0
   60.3550   32.7180   48.9750 N   0  0  0  0  0  0  0  0  0  0  0  0
   61.7640   33.0180   48.6720 C   0  0  0  0  0  0  0  0  0  0  0  0
   62.1122   33.8216   49.3376 H   0  0  0  0  0  0  0  0  0  0  0  0
   62.3584   32.1055   48.8270 H   0  0  0  0  0  0  0  0  0  0  0  0
   61.9280   33.4680   47.2120 C   0  0  0  0  0  0  0  0  0  0  0  0
   62.9074   33.9573   47.1050 H   0  0  0  0  0  0  0  0  0  0  0  0
   61.8431   32.5702   46.5821 H   0  0  0  0  0  0  0  0  0  0  0  0
   60.8230   34.4650   46.7480 C   0  0  0  0  0  0  0  0  0  0  0  0
   61.4085   35.3491   46.4553 H   0  0  0  0  0  0  0  0  0  0  0  0
   60.1000   34.0820   45.5610 O   0  0  0  0  0  0  0  0  0  0  0  0
   59.1500   33.0590   45.3890 C   0  0  0  0  0  0  0  0  0  0  0  0
   58.0120   33.3420   44.6230 C   0  0  0  0  0  0  0  0  0  0  0  0
   57.8792   34.3472   44.1964 H   0  0  0  0  0  0  0  0  0  0  0  0
   57.0430   32.3600   44.3950 C   0  0  0  0  0  0  0  0  0  0  0  0
   56.1566   32.5977   43.7885 H   0  0  0  0  0  0  0  0  0  0  0  0
   57.1930   31.0770   44.9330 C   0  0  0  0  0  0  0  0  0  0  0  0
   56.2190   30.1100   44.6440 O   0  0  0  0  0  0  0  0  0  0  0  0
   55.8420   29.7220   43.3270 C   0  0  0  0  0  0  0  0  0  0  0  0
   55.0764   28.9341   43.3819 H   0  0  0  0  0  0  0  0  0  0  0  0
   55.4350   30.5920   42.7908 H   0  0  0  0  0  0  0  0  0  0  0  0
   56.7233   29.3402   42.7908 H   0  0  0  0  0  0  0  0  0  0  0  0
   58.3140   30.7990   45.7360 C   0  0  0  0  0  0  0  0  0  0  0  0
   58.4351   29.8002   46.1807 H   0  0  0  0  0  0  0  0  0  0  0  0
   59.2740   31.7860   45.9710 C   0  0  0  0  0  0  0  0  0  0  0  0
   60.1356   31.5646   46.6180 H   0  0  0  0  0  0  0  0  0  0  0  0
   59.8700   34.8980   47.8730 C   0  0  0  0  0  0  0  0  0  0  0  0
   60.4175   35.5517   48.5679 H   0  0  0  0  0  0  0  0  0  0  0  0
   59.0212   35.4230   47.4105 H   0  0  0  0  0  0  0  0  0  0  0  0
   59.3130   33.7080   48.6540 C   0  0  0  0  0  0  0  0  0  0  0  0
   58.8717   34.0751   49.5923 H   0  0  0  0  0  0  0  0  0  0  0  0
   58.5589   33.2133   48.0243 H   0  0  0  0  0  0  0  0  0  0  0  0
   60.1500   30.3030   48.8890 N   0  0  0  0  0  0  0  0  0  0  0  0
   59.8420   29.1080   49.4490 C   0  0  0  0  0  0  0  0  0  0  0  0
   60.0130   28.0230   48.7530 N   0  0  0  0  0  0  0  0  0  0  0  0
   59.3760   27.6830   47.5120 C   0  0  0  0  0  0  0  0  0  0  0  0
   60.0940   27.8480   46.3290 C   0  0  0  0  0  0  0  0  0  0  0  0
   61.0992   28.2938   46.3577 H   0  0  0  0  0  0  0  0  0  0  0  0
   59.5470   27.4520   45.1100 C   0  0  0  0  0  0  0  0  0  0  0  0
   60.1157   27.6111   44.1820 H   0  0  0  0  0  0  0  0  0  0  0  0
   58.2780   26.8520   45.0520 C   0  0  0  0  0  0  0  0  0  0  0  0
   57.7690   26.3820   43.7150 C   0  0  0  0  0  0  0  0  0  0  0  0
   56.9686   25.6429   43.8666 H   0  0  0  0  0  0  0  0  0  0  0  0
   57.3740   27.2398   43.1509 H   0  0  0  0  0  0  0  0  0  0  0  0
   58.5926   25.9200   43.1509 H   0  0  0  0  0  0  0  0  0  0  0  0
   57.5350   26.6770   46.2500 C   0  0  0  0  0  0  0  0  0  0  0  0
   56.1900   26.0480   46.2780 C   0  0  0  0  0  0  0  0  0  0  0  0
   55.1830   26.7120   45.9060 O   0  0  0  0  0  0  0  0  0  0  0  0
   56.0240   24.6900   46.6950 N   0  0  0  0  0  0  0  0  0  0  0  0
   56.9280   24.0350   47.6270 C   0  0  0  0  0  0  0  0  0  0  0  0
   56.6177   24.2598   48.6581 H   0  0  0  0  0  0  0  0  0  0  0  0
   56.8981   22.9476   47.4639 H   0  0  0  0  0  0  0  0  0  0  0  0
   57.9520   24.4022   47.4639 H   0  0  0  0  0  0  0  0  0  0  0  0
   58.1070   27.0820   47.4710 C   0  0  0  0  0  0  0  0  0  0  0  0
   57.5516   26.9254   48.4075 H   0  0  0  0  0  0  0  0  0  0  0  0
   59.3230   29.0740   50.7040 N   0  0  0  0  0  0  0  0  0  0  0  0
  1  2  1  0
  2  3  2  0
  3  4  1  0
  4  5  1  0
  5  6  1  0
  6  7  1  0
  6  8  1  0
  6  9  1  0
  9 10  1  0
  9 11  1  0
  9 12  1  0
 12 13  1  0
 12 14  1  0
 14 15  1  0
 15 16  2  0
 16 17  1  0
 16 18  1  0
 18 19  1  0
 18 20  2  0
 20 21  1  0
 21 22  1  0
 22 23  1  0
 22 24  1  0
 22 25  1  0
 20 26  1  0
 26 27  1  0
 26 28  2  0
 28 29  1  0
 12 30  1  0
 30 31  1  0
 30 32  1  0
 30 33  1  0
 33 34  1  0
 33 35  1  0
  4 36  2  0
 36 37  1  0
 37 38  2  0
 38 39  1  0
 39 40  2  0
 40 41  1  0
 40 42  1  0
 42 43  1  0
 42 44  2  0
 44 45  1  0
 45 46  1  0
 45 47  1  0
 45 48  1  0
 44 49  1  0
 49 50  1  0
 50 51  2  0
 50 52  1  0
 52 53  1  0
 53 54  1  0
 53 55  1  0
 53 56  1  0
 49 57  2  0
 57 58  1  0
 37 59  1  0
 59  2  1  0
 33  5  1  0
 57 39  1  0
 28 15  1  0
M  CHG  2  52  -1  59  -1
M  END
>  <UniqueID>  (67) 
64

>  <SMILES>  (67) 
C[N-]C(=O)c1cc(/N=c2/nc(N3CCC(Oc4ccc(OC)cc4)CC3)nc[n-]2)ccc1C

>  <Energy>  (67) 
85.9450140676549

>  <Genealogy>  (67) 
C[N-]C(=O)c1cc(N=c2nc(N3CCC(Oc4ccc(OC)cc4)CC3)nc[n-]2)ccc1C (protonated)
C[N-]C(=O)c1cc(/N=c2/nc(N3CCC(Oc4ccc(OC)cc4)CC3)nc[n-]2)ccc1C (cis-trans isomerization)
C[N-]C(=O)c1cc(/N=c2/nc(N3CCC(Oc4ccc(OC)cc4)CC3)nc[n-]2)ccc1C (3D coordinates assigned)
C[N-]C(=O)c1cc(/N=c2/nc(N3CCC(Oc4ccc(OC)cc4)CC3)nc[n-]2)ccc1C (nonaromatic ring conformer: 85.9450140676549 kcal/mol)

>  <smiles>  (67) 
CNC(=O)c1cc(N=c2nc(N3CCC(Oc4ccc(OC)cc4)CC3)nc[nH]2)ccc1C

>  <score_type>  (67) 
oracle

>  <origin>  (67) 
adg

>  <m_score__min__energy>  (67) 
-13.890000000000001

>  <m_primary>  (67) 
energy

$$$$
67:0
     RDKit          3D

 47 50  0  0  0  0  0  0  0  0999 V2000
   54.9871   29.2051   43.9975 H   0  0  0  0  0  0  0  0  0  0  0  0
   55.9070   29.5490   44.4930 C   0  0  0  0  0  0  0  0  0  0  0  0
   56.2620   30.8560   44.4310 N   0  0  0  0  0  0  0  0  0  0  0  0
   57.3980   31.2790   45.0430 C   0  0  0  0  0  0  0  0  0  0  0  0
   57.7740   32.6520   44.9760 N   0  0  0  0  0  0  0  0  0  0  0  0
   58.7520   33.4770   44.2460 C   0  0  0  0  0  0  0  0  0  0  0  0
   59.7927   33.1981   44.4677 H   0  0  0  0  0  0  0  0  0  0  0  0
   58.7343   33.4219   43.1475 H   0  0  0  0  0  0  0  0  0  0  0  0
   58.3570   34.7770   44.8700 C   0  0  0  0  0  0  0  0  0  0  0  0
   58.0867   35.6841   44.3096 H   0  0  0  0  0  0  0  0  0  0  0  0
   59.3810   35.2920   45.7200 O   0  0  0  0  0  0  0  0  0  0  0  0
   60.0280   34.5500   46.7200 C   0  0  0  0  0  0  0  0  0  0  0  0
   61.1960   33.8030   46.4680 C   0  0  0  0  0  0  0  0  0  0  0  0
   61.6297   33.7870   45.4572 H   0  0  0  0  0  0  0  0  0  0  0  0
   61.8050   33.0820   47.5000 C   0  0  0  0  0  0  0  0  0  0  0  0
   62.7172   32.5010   47.2994 H   0  0  0  0  0  0  0  0  0  0  0  0
   61.2570   33.0980   48.7860 C   0  0  0  0  0  0  0  0  0  0  0  0
   61.8490   32.3980   49.7840 F   0  0  0  0  0  0  0  0  0  0  0  0
   60.0990   33.8370   49.0410 C   0  0  0  0  0  0  0  0  0  0  0  0
   59.6671   33.8497   50.0526 H   0  0  0  0  0  0  0  0  0  0  0  0
   59.4880   34.5610   48.0110 C   0  0  0  0  0  0  0  0  0  0  0  0
   58.5774   35.1425   48.2175 H   0  0  0  0  0  0  0  0  0  0  0  0
   57.3690   33.9230   45.6010 C   0  0  0  0  0  0  0  0  0  0  0  0
   57.5246   33.9299   46.6899 H   0  0  0  0  0  0  0  0  0  0  0  0
   56.3084   34.2046   45.5249 H   0  0  0  0  0  0  0  0  0  0  0  0
   58.1740   30.3940   45.7170 N   0  0  0  0  0  0  0  0  0  0  0  0
   57.8180   29.0870   45.7910 C   0  0  0  0  0  0  0  0  0  0  0  0
   58.5930   28.2530   46.4230 N   0  0  0  0  0  0  0  0  0  0  0  0
   59.1030   28.3950   47.7600 C   0  0  0  0  0  0  0  0  0  0  0  0
   60.2330   27.6580   48.1290 C   0  0  0  0  0  0  0  0  0  0  0  0
   60.7026   26.9782   47.4029 H   0  0  0  0  0  0  0  0  0  0  0  0
   60.7690   27.7790   49.4120 C   0  0  0  0  0  0  0  0  0  0  0  0
   61.6451   27.1793   49.6998 H   0  0  0  0  0  0  0  0  0  0  0  0
   60.1950   28.6600   50.3310 C   0  0  0  0  0  0  0  0  0  0  0  0
   60.6113   28.7379   51.3462 H   0  0  0  0  0  0  0  0  0  0  0  0
   59.0890   29.4480   49.9680 C   0  0  0  0  0  0  0  0  0  0  0  0
   58.5030   30.3930   50.9500 C   0  0  0  0  0  0  0  0  0  0  0  0
   57.4240   30.0890   51.5320 O   0  0  0  0  0  0  0  0  0  0  0  0
   59.1480   31.6370   51.2650 N   0  0  0  0  0  0  0  0  0  0  0  0
   60.1190   31.8270   50.9290 H   0  0  0  0  0  0  0  0  0  0  0  0
   58.5080   32.6360   52.1100 C   0  0  0  0  0  0  0  0  0  0  0  0
   58.6714   32.3809   53.1674 H   0  0  0  0  0  0  0  0  0  0  0  0
   58.9409   33.6253   51.9003 H   0  0  0  0  0  0  0  0  0  0  0  0
   57.4284   32.6563   51.9003 H   0  0  0  0  0  0  0  0  0  0  0  0
   58.5460   29.3090   48.6770 C   0  0  0  0  0  0  0  0  0  0  0  0
   57.6796   29.9188   48.3812 H   0  0  0  0  0  0  0  0  0  0  0  0
   56.6860   28.6650   45.1660 N   0  0  0  0  0  0  0  0  0  0  0  0
  1  2  1  0
  2  3  2  0
  3  4  1  0
  4  5  1  0
  5  6  1  0
  6  7  1  0
  6  8  1  0
  6  9  1  0
  9 10  1  0
  9 11  1  0
 11 12  1  0
 12 13  2  0
 13 14  1  0
 13 15  1  0
 15 16  1  0
 15 17  2  0
 17 18  1  0
 17 19  1  0
 19 20  1  0
 19 21  2  0
 21 22  1  0
  9 23  1  0
 23 24  1  0
 23 25  1  0
  4 26  2  0
 26 27  1  0
 27 28  2  0
 28 29  1  0
 29 30  2  0
 30 31  1  0
 30 32  1  0
 32 33  1  0
 32 34  2  0
 34 35  1  0
 34 36  1  0
 36 37  1  0
 37 38  2  0
 37 39  1  0
 39 40  1  0
 39 41  1  0
 41 42  1  0
 41 43  1  0
 41 44  1  0
 36 45  2  0
 45 46  1  0
 27 47  1  0
 47  2  1  0
 23  5  1  0
 45 29  1  0
 21 12  1  0
M  CHG  1  47  -1
M  END
>  <UniqueID>  (68) 
65

>  <SMILES>  (68) 
CNC(=O)c1cccc(/N=c2/nc(N3CC(Oc4ccc(F)cc4)C3)nc[n-]2)c1

>  <Energy>  (68) 
101.48459214844652

>  <Genealogy>  (68) 
CNC(=O)c1cccc(N=c2nc(N3CC(Oc4ccc(F)cc4)C3)nc[n-]2)c1 (protonated)
CNC(=O)c1cccc(/N=c2/nc(N3CC(Oc4ccc(F)cc4)C3)nc[n-]2)c1 (cis-trans isomerization)
CNC(=O)c1cccc(/N=c2/nc(N3CC(Oc4ccc(F)cc4)C3)nc[n-]2)c1 (3D coordinates assigned)
CNC(=O)c1cccc(/N=c2/nc(N3CC(Oc4ccc(F)cc4)C3)nc[n-]2)c1 (nonaromatic ring conformer: 101.48459214844652 kcal/mol)

>  <smiles>  (68) 
CNC(=O)c1cccc(N=c2nc(N3CC(Oc4ccc(F)cc4)C3)nc[nH]2)c1

>  <score_type>  (68) 
oracle

>  <origin>  (68) 
adg

>  <m_score__min__energy>  (68) 
-10.09

>  <m_primary>  (68) 
energy

$$$$
68:0
     RDKit          3D

 25 26  0  0  0  0  0  0  0  0999 V2000
   57.2750   22.4260   47.6370 N   0  0  0  0  0  0  0  0  0  0  0  0
   57.5990   22.6960   45.9620 S   0  0  0  0  0  0  0  0  0  0  0  0
   58.9400   22.1140   45.6130 O   0  0  0  0  0  0  0  0  0  0  0  0
   56.5480   22.0170   45.1300 O   0  0  0  0  0  0  0  0  0  0  0  0
   57.5950   24.4250   45.6330 C   0  0  0  0  0  0  0  0  0  0  0  0
   57.3980   25.3430   46.6740 C   0  0  0  0  0  0  0  0  0  0  0  0
   57.3820   26.7150   46.4090 C   0  0  0  0  0  0  0  0  0  0  0  0
   57.5600   27.1890   45.0990 C   0  0  0  0  0  0  0  0  0  0  0  0
   57.5450   28.6020   44.8250 N   0  0  0  0  0  0  0  0  0  0  0  0
   56.4630   29.4040   44.7390 C   0  0  0  0  0  0  0  0  0  0  0  0
   55.1500   28.9680   44.8830 O   0  0  0  0  0  0  0  0  0  0  0  0
   56.8290   30.7050   44.4620 C   0  0  0  0  0  0  0  0  0  0  0  0
   58.2080   30.7040   44.3710 C   0  0  0  0  0  0  0  0  0  0  0  0
   58.6090   29.4010   44.6000 C   0  0  0  0  0  0  0  0  0  0  0  0
   59.9310   28.9650   44.6230 O   0  0  0  0  0  0  0  0  0  0  0  0
   57.7510   26.2650   44.0580 C   0  0  0  0  0  0  0  0  0  0  0  0
   57.7650   24.8920   44.3230 C   0  0  0  0  0  0  0  0  0  0  0  0
   57.7500   23.1920   48.1670 H   0  0  0  0  0  0  0  0  0  0  0  0
   57.2555   24.9820   47.7033 H   0  0  0  0  0  0  0  0  0  0  0  0
   57.2289   27.4286   47.2320 H   0  0  0  0  0  0  0  0  0  0  0  0
   56.1588   31.5685   44.3385 H   0  0  0  0  0  0  0  0  0  0  0  0
   58.8564   31.5669   44.1589 H   0  0  0  0  0  0  0  0  0  0  0  0
   60.4840   28.9370   43.7750 H   0  0  0  0  0  0  0  0  0  0  0  0
   57.8905   26.6240   43.0276 H   0  0  0  0  0  0  0  0  0  0  0  0
   57.9099   24.1763   43.5003 H   0  0  0  0  0  0  0  0  0  0  0  0
  1  2  1  0
  2  3  2  0
  2  4  2  0
  2  5  1  0
  5  6  2  0
  6  7  1  0
  7  8  2  0
  8  9  1  0
  9 10  1  0
 10 11  1  0
 10 12  2  0
 12 13  1  0
 13 14  2  0
 14 15  1  0
  8 16  1  0
 16 17  2  0
 17  5  1  0
 14  9  1  0
  1 18  1  0
  6 19  1  0
  7 20  1  0
 12 21  1  0
 13 22  1  0
 15 23  1  0
 16 24  1  0
 17 25  1  0
M  CHG  2   1  -1  11  -1
M  END
>  <UniqueID>  (69) 
66

>  <SMILES>  (69) 
[NH-]S(=O)(=O)c1ccc(-n2c([O-])ccc2O)cc1

>  <Energy>  (69) 
57.86069703669215

>  <Genealogy>  (69) 
[NH-]S(=O)(=O)c1ccc(-n2c([O-])ccc2O)cc1 (protonated)
[NH-]S(=O)(=O)c1ccc(-n2c([O-])ccc2O)cc1 (3D coordinates assigned)
[NH-]S(=O)(=O)c1ccc(-n2c([O-])ccc2O)cc1 (optimized conformer: 57.86069703669215 kcal/mol)

>  <smiles>  (69) 
NS(=O)(=O)c1ccc(-n2c(O)ccc2O)cc1

>  <score_type>  (69) 
oracle

>  <origin>  (69) 
adg

>  <m_score__min__energy>  (69) 
-10.16

>  <m_primary>  (69) 
energy

$$$$
69:0
     RDKit          3D

 57 59  0  0  0  0  0  0  0  0999 V2000
   61.0980   29.8880   46.2620 N   0  0  0  0  0  0  0  0  0  0  0  0
   60.6050   29.3500   45.1910 C   0  0  0  0  0  0  0  0  0  0  0  0
   61.4580   28.5910   44.3250 N   0  0  0  0  0  0  0  0  0  0  0  0
   59.1690   29.5400   44.8690 C   0  0  0  0  0  0  0  0  0  0  0  0
   58.7440   30.6230   44.0790 C   0  0  0  0  0  0  0  0  0  0  0  0
   57.3890   30.7950   43.7860 C   0  0  0  0  0  0  0  0  0  0  0  0
   56.4450   29.8850   44.2630 C   0  0  0  0  0  0  0  0  0  0  0  0
   56.8500   28.7820   45.0320 C   0  0  0  0  0  0  0  0  0  0  0  0
   55.9100   27.8460   45.5770 N   0  0  0  0  0  0  0  0  0  0  0  0
   56.1770   26.4960   45.9870 C   0  0  0  0  0  0  0  0  0  0  0  0
   55.2300   25.7210   46.2830 O   0  0  0  0  0  0  0  0  0  0  0  0
   57.5800   25.9580   45.9860 C   0  0  0  0  0  0  0  0  0  0  0  0
   58.0410   25.5700   47.3660 C   0  0  0  0  0  0  0  0  0  0  0  0
   57.3380   24.7790   48.0480 O   0  0  0  0  0  0  0  0  0  0  0  0
   59.3140   25.9820   47.8790 N   0  0  0  0  0  0  0  0  0  0  0  0
   59.6380   27.2970   48.3430 C   0  0  0  0  0  0  0  0  0  0  0  0
   60.8100   27.4900   49.0840 C   0  0  0  0  0  0  0  0  0  0  0  0
   61.1040   28.7440   49.6270 C   0  0  0  0  0  0  0  0  0  0  0  0
   60.2180   29.8170   49.4480 C   0  0  0  0  0  0  0  0  0  0  0  0
   60.4910   31.1270   50.0670 C   0  0  0  0  0  0  0  0  0  0  0  0
   60.8140   31.1750   51.2830 O   0  0  0  0  0  0  0  0  0  0  0  0
   60.3710   32.3540   49.3350 N   0  0  0  0  0  0  0  0  0  0  0  0
   60.8720   32.5790   47.9790 C   0  0  2  0  0  0  0  0  0  0  0  0
   62.0800   33.5270   48.0400 C   0  0  0  0  0  0  0  0  0  0  0  0
   63.1590   33.1080   47.0880 C   0  0  0  0  0  0  0  0  0  0  0  0
   63.7200   33.9610   46.3510 O   0  0  0  0  0  0  0  0  0  0  0  0
   63.5120   31.7690   46.9820 O   0  0  0  0  0  0  0  0  0  0  0  0
   59.7740   33.1480   47.1010 C   0  0  0  0  0  0  0  0  0  0  0  0
   60.0860   34.0830   46.1010 C   0  0  0  0  0  0  0  0  0  0  0  0
   59.0770   34.6140   45.2910 C   0  0  0  0  0  0  0  0  0  0  0  0
   57.7500   34.2170   45.4730 C   0  0  0  0  0  0  0  0  0  0  0  0
   56.7500   34.7460   44.6650 O   0  0  0  0  0  0  0  0  0  0  0  0
   57.4280   33.2910   46.4690 C   0  0  0  0  0  0  0  0  0  0  0  0
   58.4330   32.7620   47.2830 C   0  0  0  0  0  0  0  0  0  0  0  0
   59.0320   29.6170   48.7260 C   0  0  0  0  0  0  0  0  0  0  0  0
   58.7440   28.3660   48.1740 C   0  0  0  0  0  0  0  0  0  0  0  0
   58.2090   28.6250   45.3390 C   0  0  0  0  0  0  0  0  0  0  0  0
   61.8290   30.6340   46.2180 H   0  0  0  0  0  0  0  0  0  0  0  0
   61.1390   28.2800   43.3810 H   0  0  0  0  0  0  0  0  0  0  0  0
   62.4470   28.3910   44.5970 H   0  0  0  0  0  0  0  0  0  0  0  0
   59.4828   31.3388   43.6895 H   0  0  0  0  0  0  0  0  0  0  0  0
   57.0649   31.6515   43.1766 H   0  0  0  0  0  0  0  0  0  0  0  0
   55.3789   30.0322   44.0357 H   0  0  0  0  0  0  0  0  0  0  0  0
   57.6188   25.0707   45.3370 H   0  0  0  0  0  0  0  0  0  0  0  0
   58.2462   26.7523   45.6181 H   0  0  0  0  0  0  0  0  0  0  0  0
   61.5033   26.6503   49.2397 H   0  0  0  0  0  0  0  0  0  0  0  0
   62.0335   28.8901   50.1968 H   0  0  0  0  0  0  0  0  0  0  0  0
   61.1915   31.6236   47.5372 H   0  0  0  0  0  0  0  0  0  0  0  0
   61.7495   34.5435   47.7800 H   0  0  0  0  0  0  0  0  0  0  0  0
   62.4903   33.4961   49.0601 H   0  0  0  0  0  0  0  0  0  0  0  0
   61.1292   34.3994   45.9539 H   0  0  0  0  0  0  0  0  0  0  0  0
   59.3288   35.3456   44.5091 H   0  0  0  0  0  0  0  0  0  0  0  0
   56.3831   32.9785   46.6122 H   0  0  0  0  0  0  0  0  0  0  0  0
   58.1744   32.0394   48.0710 H   0  0  0  0  0  0  0  0  0  0  0  0
   58.3250   30.4493   48.5937 H   0  0  0  0  0  0  0  0  0  0  0  0
   57.8140   28.2185   47.6054 H   0  0  0  0  0  0  0  0  0  0  0  0
   58.5297   27.7733   45.9569 H   0  0  0  0  0  0  0  0  0  0  0  0
  1  2  2  3
  2  3  1  0
  2  4  1  0
  4  5  2  0
  5  6  1  0
  6  7  2  0
  7  8  1  0
  8  9  1  0
  9 10  1  0
 10 11  2  0
 10 12  1  0
 12 13  1  0
 13 14  2  0
 13 15  1  0
 15 16  1  0
 16 17  2  0
 17 18  1  0
 18 19  2  0
 19 20  1  0
 20 21  2  0
 20 22  1  0
 22 23  1  0
 23 24  1  0
 24 25  1  0
 25 26  2  0
 25 27  1  0
 23 28  1  0
 28 29  2  0
 29 30  1  0
 30 31  2  0
 31 32  1  0
 31 33  1  0
 33 34  2  0
 19 35  1  0
 35 36  2  0
  8 37  2  0
 37  4  1  0
 36 16  1  0
 34 28  1  0
  1 38  1  0
  3 39  1  0
  3 40  1  0
  5 41  1  0
  6 42  1  0
  7 43  1  0
 12 44  1  0
 12 45  1  0
 17 46  1  0
 18 47  1  0
 23 48  1  6
 24 49  1  0
 24 50  1  0
 29 51  1  0
 30 52  1  0
 33 53  1  0
 34 54  1  0
 35 55  1  0
 36 56  1  0
 37 57  1  0
M  CHG  5   9  -1  15  -1  22  -1  27  -1  32  -1
M  END
>  <UniqueID>  (70) 
67

>  <SMILES>  (70) 
N=C(N)c1cccc([N-]C(=O)CC(=O)[N-]c2ccc(C(=O)[N-][C@H](CC(=O)[O-])c3ccc([O-])cc3)cc2)c1

>  <Energy>  (70) 
66.71216472617685

>  <Genealogy>  (70) 
N=C(N)c1cccc([N-]C(=O)CC(=O)[N-]c2ccc(C(=O)[N-]C(CC(=O)[O-])c3ccc([O-])cc3)cc2)c1 (protonated)
N=C(N)c1cccc([N-]C(=O)CC(=O)[N-]c2ccc(C(=O)[N-][C@H](CC(=O)[O-])c3ccc([O-])cc3)cc2)c1 (chirality)
N=C(N)c1cccc([N-]C(=O)CC(=O)[N-]c2ccc(C(=O)[N-][C@H](CC(=O)[O-])c3ccc([O-])cc3)cc2)c1 (3D coordinates assigned)
N=C(N)c1cccc([N-]C(=O)CC(=O)[N-]c2ccc(C(=O)[N-][C@H](CC(=O)[O-])c3ccc([O-])cc3)cc2)c1 (optimized conformer: 66.71216472617685 kcal/mol)

>  <smiles>  (70) 
N=C(N)c1cccc(NC(=O)CC(=O)Nc2ccc(C(=O)NC(CC(=O)O)c3ccc(O)cc3)cc2)c1

>  <score_type>  (70) 
oracle

>  <origin>  (70) 
adg

>  <m_score__min__energy>  (70) 
-15.92

>  <m_primary>  (70) 
energy

$$$$
70:0
     RDKit          3D

 29 30  0  0  0  0  0  0  0  0999 V2000
   58.1520   27.2540   47.3010 C   0  0  0  0  0  0  0  0  0  0  0  0
   58.0330   27.0260   45.8180 C   0  0  0  0  0  0  0  0  0  0  0  0
   57.8350   25.7200   45.3360 C   0  0  0  0  0  0  0  0  0  0  0  0
   57.7230   25.4810   43.9650 C   0  0  0  0  0  0  0  0  0  0  0  0
   57.8190   26.5380   43.0610 C   0  0  0  0  0  0  0  0  0  0  0  0
   58.0260   27.8390   43.5230 C   0  0  0  0  0  0  0  0  0  0  0  0
   58.1270   28.1010   44.9030 C   0  0  0  0  0  0  0  0  0  0  0  0
   58.3810   29.4400   45.3660 N   0  0  0  0  0  0  0  0  0  0  0  0
   57.4790   30.5360   45.1460 C   0  0  0  0  0  0  0  0  0  0  0  0
   56.2740   30.3120   44.8500 O   0  0  0  0  0  0  0  0  0  0  0  0
   57.9270   31.9300   45.3490 C   0  0  0  0  0  0  0  0  0  0  0  0
   58.1270   32.3940   46.6610 C   0  0  0  0  0  0  0  0  0  0  0  0
   58.5700   33.6980   46.8930 C   0  0  0  0  0  0  0  0  0  0  0  0
   58.8080   34.5570   45.8200 C   0  0  0  0  0  0  0  0  0  0  0  0
   58.5940   34.1170   44.5120 C   0  0  0  0  0  0  0  0  0  0  0  0
   58.1500   32.8130   44.2660 C   0  0  0  0  0  0  0  0  0  0  0  0
   57.7730   32.3320   42.4460 Br  0  0  0  0  0  0  0  0  0  0  0  0
   57.7082   26.4037   47.8395 H   0  0  0  0  0  0  0  0  0  0  0  0
   59.2136   27.3469   47.5737 H   0  0  0  0  0  0  0  0  0  0  0  0
   57.6212   28.1781   47.5737 H   0  0  0  0  0  0  0  0  0  0  0  0
   57.7679   24.8808   46.0440 H   0  0  0  0  0  0  0  0  0  0  0  0
   57.5588   24.4573   43.5976 H   0  0  0  0  0  0  0  0  0  0  0  0
   57.7314   26.3464   41.9814 H   0  0  0  0  0  0  0  0  0  0  0  0
   58.1109   28.6664   42.8031 H   0  0  0  0  0  0  0  0  0  0  0  0
   59.2310   29.6200   45.9450 H   0  0  0  0  0  0  0  0  0  0  0  0
   57.9329   31.7244   47.5119 H   0  0  0  0  0  0  0  0  0  0  0  0
   58.7315   34.0481   47.9232 H   0  0  0  0  0  0  0  0  0  0  0  0
   59.1643   35.5813   46.0042 H   0  0  0  0  0  0  0  0  0  0  0  0
   58.7757   34.8002   43.6693 H   0  0  0  0  0  0  0  0  0  0  0  0
  1  2  1  0
  2  3  2  0
  3  4  1  0
  4  5  2  0
  5  6  1  0
  6  7  2  0
  7  8  1  0
  8  9  1  0
  9 10  2  0
  9 11  1  0
 11 12  2  0
 12 13  1  0
 13 14  2  0
 14 15  1  0
 15 16  2  0
 16 17  1  0
  7  2  1  0
 16 11  1  0
  1 18  1  0
  1 19  1  0
  1 20  1  0
  3 21  1  0
  4 22  1  0
  5 23  1  0
  6 24  1  0
  8 25  1  0
 12 26  1  0
 13 27  1  0
 14 28  1  0
 15 29  1  0
M  END
>  <UniqueID>  (71) 
68

>  <SMILES>  (71) 
Cc1ccccc1NC(=O)c1ccccc1Br

>  <Energy>  (71) 
39.25187031177338

>  <Genealogy>  (71) 
Cc1ccccc1NC(=O)c1ccccc1Br (3D coordinates assigned)
Cc1ccccc1NC(=O)c1ccccc1Br (optimized conformer: 39.25187031177338 kcal/mol)

>  <smiles>  (71) 
Cc1ccccc1NC(=O)c1ccccc1Br

>  <score_type>  (71) 
oracle

>  <origin>  (71) 
adg

>  <m_score__min__energy>  (71) 
-7.04

>  <m_primary>  (71) 
energy

$$$$
71:0
     RDKit          3D

 57 61  0  0  0  0  0  0  0  0999 V2000
   56.6660   33.9960   45.2340 O   0  0  0  0  0  0  0  0  0  0  0  0
   57.6700   33.2290   45.0450 C   0  0  0  0  0  0  0  0  0  0  0  0
   57.6010   32.3010   44.0000 N   0  0  0  0  0  0  0  0  0  0  0  0
   56.9990   31.1610   44.0790 C   0  0  0  0  0  0  0  0  0  0  0  0
   55.9260   30.8410   44.8240 N   0  0  0  0  0  0  0  0  0  0  0  0
   55.6780   29.5640   44.5730 N   0  0  0  0  0  0  0  0  0  0  0  0
   56.5680   29.1060   43.6990 N   0  0  0  0  0  0  0  0  0  0  0  0
   57.4130   30.0810   43.3660 N   0  0  0  0  0  0  0  0  0  0  0  0
   58.7970   33.4020   45.9450 C   0  0  0  0  0  0  0  0  0  0  0  0
   58.9720   34.5960   46.6020 C   0  0  0  0  0  0  0  0  0  0  0  0
   60.0360   34.7410   47.4370 C   0  0  0  0  0  0  0  0  0  0  0  0
   60.9330   33.6870   47.6180 C   0  0  0  0  0  0  0  0  0  0  0  0
   60.7920   32.4790   46.9800 C   0  0  0  0  0  0  0  0  0  0  0  0
   61.7620   31.3440   47.1630 C   0  0  0  0  0  0  0  0  0  0  0  0
   61.7060   30.8280   48.4900 N   0  0  0  0  0  0  0  0  0  0  0  0
   60.9480   29.7870   48.8860 C   0  0  0  0  0  0  0  0  0  0  0  0
   60.0300   29.0690   48.0230 C   0  0  0  0  0  0  0  0  0  0  0  0
   60.2620   27.7180   47.8430 C   0  0  0  0  0  0  0  0  0  0  0  0
   59.4230   26.9300   47.0600 C   0  0  0  0  0  0  0  0  0  0  0  0
   58.3070   27.4650   46.4190 C   0  0  0  0  0  0  0  0  0  0  0  0
   57.4480   26.6770   45.6030 N   0  0  0  0  0  0  0  0  0  0  0  0
   56.1010   26.2950   46.0040 C   0  0  0  0  0  0  0  0  0  0  0  0
   56.0100   24.7820   45.8260 C   0  0  0  0  0  0  0  0  0  0  0  0
   56.4020   24.4230   44.5570 O   0  0  0  0  0  0  0  0  0  0  0  0
   57.7650   24.6940   44.3360 C   0  0  0  0  0  0  0  0  0  0  0  0
   57.8550   26.2040   44.2750 C   0  0  0  0  0  0  0  0  0  0  0  0
   58.0910   28.8110   46.6120 C   0  0  0  0  0  0  0  0  0  0  0  0
   58.9340   29.6030   47.4000 C   0  0  0  0  0  0  0  0  0  0  0  0
   61.0050   29.3060   50.2090 C   0  0  0  0  0  0  0  0  0  0  0  0
   61.8320   29.8820   51.1470 C   0  0  0  0  0  0  0  0  0  0  0  0
   62.5980   30.9460   50.7220 C   0  0  0  0  0  0  0  0  0  0  0  0
   62.5120   31.3840   49.4200 C   0  0  0  0  0  0  0  0  0  0  0  0
   63.2660   32.3790   49.1380 O   0  0  0  0  0  0  0  0  0  0  0  0
   59.6920   32.3510   46.1270 C   0  0  0  0  0  0  0  0  0  0  0  0
   56.6580   28.1430   43.2880 H   0  0  0  0  0  0  0  0  0  0  0  0
   58.2170   30.0210   42.7040 H   0  0  0  0  0  0  0  0  0  0  0  0
   58.2617   35.4229   46.4548 H   0  0  0  0  0  0  0  0  0  0  0  0
   60.1898   35.6906   47.9705 H   0  0  0  0  0  0  0  0  0  0  0  0
   61.7859   33.8294   48.2980 H   0  0  0  0  0  0  0  0  0  0  0  0
   61.5120   30.5405   46.4546 H   0  0  0  0  0  0  0  0  0  0  0  0
   62.7787   31.7211   46.9782 H   0  0  0  0  0  0  0  0  0  0  0  0
   61.1318   27.2539   48.3310 H   0  0  0  0  0  0  0  0  0  0  0  0
   59.6462   25.8591   46.9444 H   0  0  0  0  0  0  0  0  0  0  0  0
   55.9264   26.5653   47.0559 H   0  0  0  0  0  0  0  0  0  0  0  0
   55.3430   26.8136   45.3986 H   0  0  0  0  0  0  0  0  0  0  0  0
   56.6655   24.2908   46.5602 H   0  0  0  0  0  0  0  0  0  0  0  0
   54.9672   24.4672   45.9793 H   0  0  0  0  0  0  0  0  0  0  0  0
   58.3767   24.3026   45.1622 H   0  0  0  0  0  0  0  0  0  0  0  0
   58.1388   24.2186   43.4172 H   0  0  0  0  0  0  0  0  0  0  0  0
   58.8857   26.5187   44.0544 H   0  0  0  0  0  0  0  0  0  0  0  0
   57.2157   26.6183   43.4815 H   0  0  0  0  0  0  0  0  0  0  0  0
   57.2225   29.2820   46.1283 H   0  0  0  0  0  0  0  0  0  0  0  0
   58.7120   30.6736   47.5209 H   0  0  0  0  0  0  0  0  0  0  0  0
   60.3752   28.4519   50.4987 H   0  0  0  0  0  0  0  0  0  0  0  0
   61.8789   29.5122   52.1819 H   0  0  0  0  0  0  0  0  0  0  0  0
   63.2799   31.4465   51.4252 H   0  0  0  0  0  0  0  0  0  0  0  0
   59.5308   31.4043   45.5906 H   0  0  0  0  0  0  0  0  0  0  0  0
  1  2  2  0
  2  3  1  0
  3  4  2  3
  4  5  1  0
  5  6  2  0
  6  7  1  0
  7  8  1  0
  2  9  1  0
  9 10  2  0
 10 11  1  0
 11 12  2  0
 12 13  1  0
 13 14  1  0
 14 15  1  0
 15 16  1  0
 16 17  1  0
 17 18  2  0
 18 19  1  0
 19 20  2  0
 20 21  1  0
 21 22  1  0
 22 23  1  0
 23 24  1  0
 24 25  1  0
 25 26  1  0
 20 27  1  0
 27 28  2  0
 16 29  2  0
 29 30  1  0
 30 31  2  0
 31 32  1  0
 32 33  2  0
 13 34  2  0
  8  4  1  0
 34  9  1  0
 32 15  1  0
 28 17  1  0
 26 21  1  0
  7 35  1  0
  8 36  1  0
 10 37  1  0
 11 38  1  0
 12 39  1  0
 14 40  1  0
 14 41  1  0
 18 42  1  0
 19 43  1  0
 22 44  1  0
 22 45  1  0
 23 46  1  0
 23 47  1  0
 25 48  1  0
 25 49  1  0
 26 50  1  0
 26 51  1  0
 27 52  1  0
 28 53  1  0
 29 54  1  0
 30 55  1  0
 31 56  1  0
 34 57  1  0
M  END
>  <smiles>  (72) 
O=C(N=c1nn[nH][nH]1)c1cccc(Cn2c(-c3ccc(N4CCOCC4)cc3)cccc2=O)c1

>  <score_type>  (72) 
oracle

>  <origin>  (72) 
adg

>  <m_score__min__energy>  (72) 
-11.07

>  <m_primary>  (72) 
energy

$$$$
72:0
     RDKit          3D

 33 35  0  0  0  0  0  0  0  0999 V2000
   54.6680   26.3310   45.9970 N   0  0  0  0  0  0  0  0  0  0  0  0
   55.2820   25.1290   45.5350 C   0  0  0  0  0  0  0  0  0  0  0  0
   54.5720   24.2610   44.9580 O   0  0  0  0  0  0  0  0  0  0  0  0
   56.7410   24.9150   45.6860 C   0  0  0  0  0  0  0  0  0  0  0  0
   57.3010   23.6990   45.2520 C   0  0  0  0  0  0  0  0  0  0  0  0
   58.6820   23.4960   45.2960 C   0  0  0  0  0  0  0  0  0  0  0  0
   59.5230   24.5030   45.7680 C   0  0  0  0  0  0  0  0  0  0  0  0
   58.9830   25.7090   46.2200 C   0  0  0  0  0  0  0  0  0  0  0  0
   57.5980   25.9150   46.2110 C   0  0  0  0  0  0  0  0  0  0  0  0
   57.1090   27.1160   46.7380 O   0  0  0  0  0  0  0  0  0  0  0  0
   57.0790   28.3140   46.0140 C   0  0  0  0  0  0  0  0  0  0  0  0
   58.1300   29.2220   46.1450 C   0  0  0  0  0  0  0  0  0  0  0  0
   58.0870   30.4140   45.4160 C   0  0  0  0  0  0  0  0  0  0  0  0
   59.1700   31.3500   45.5440 N   0  0  0  0  0  0  0  0  0  0  0  0
   59.2330   32.3860   46.3290 C   0  0  0  0  0  0  0  0  0  0  0  0
   59.1740   32.2580   47.6850 N   0  0  0  0  0  0  0  0  0  0  0  0
   59.2400   33.3450   48.4980 C   0  0  0  0  0  0  0  0  0  0  0  0
   59.3710   34.6180   47.9450 C   0  0  0  0  0  0  0  0  0  0  0  0
   59.4310   34.7350   46.5580 C   0  0  0  0  0  0  0  0  0  0  0  0
   59.3610   33.6230   45.7800 N   0  0  0  0  0  0  0  0  0  0  0  0
   57.0220   30.6600   44.6040 N   0  0  0  0  0  0  0  0  0  0  0  0
   56.0040   29.7700   44.4890 C   0  0  0  0  0  0  0  0  0  0  0  0
   56.0340   28.6070   45.1920 N   0  0  0  0  0  0  0  0  0  0  0  0
   55.1930   27.2340   46.0030 H   0  0  0  0  0  0  0  0  0  0  0  0
   56.6448   22.9009   44.8746 H   0  0  0  0  0  0  0  0  0  0  0  0
   59.1072   22.5396   44.9576 H   0  0  0  0  0  0  0  0  0  0  0  0
   60.6118   24.3475   45.7843 H   0  0  0  0  0  0  0  0  0  0  0  0
   59.6506   26.5030   46.5858 H   0  0  0  0  0  0  0  0  0  0  0  0
   58.9781   29.0037   46.8106 H   0  0  0  0  0  0  0  0  0  0  0  0
   59.1902   33.2207   49.5898 H   0  0  0  0  0  0  0  0  0  0  0  0
   59.4257   35.5086   48.5883 H   0  0  0  0  0  0  0  0  0  0  0  0
   59.5349   35.7265   46.0931 H   0  0  0  0  0  0  0  0  0  0  0  0
   55.1539   29.9899   43.8264 H   0  0  0  0  0  0  0  0  0  0  0  0
  1  2  1  0
  2  3  2  0
  2  4  1  0
  4  5  2  0
  5  6  1  0
  6  7  2  0
  7  8  1  0
  8  9  2  0
  9 10  1  0
 10 11  1  0
 11 12  2  0
 12 13  1  0
 13 14  1  0
 14 15  2  3
 15 16  1  0
 16 17  2  0
 17 18  1  0
 18 19  2  0
 19 20  1  0
 13 21  2  0
 21 22  1  0
 22 23  2  0
  9  4  1  0
 23 11  1  0
 20 15  1  0
  1 24  1  0
  5 25  1  0
  6 26  1  0
  7 27  1  0
  8 28  1  0
 12 29  1  0
 17 30  1  0
 18 31  1  0
 19 32  1  0
 22 33  1  0
M  CHG  2   1  -1  20  -1
M  END
>  <UniqueID>  (73) 
69

>  <SMILES>  (73) 
[NH-]C(=O)c1ccccc1Oc1cc(N=c2nccc[n-]2)ncn1

>  <Energy>  (73) 
50.96484234945936

>  <Genealogy>  (73) 
[NH-]C(=O)c1ccccc1Oc1cc(N=c2nccc[n-]2)ncn1 (protonated)
[NH-]C(=O)c1ccccc1Oc1cc(N=c2nccc[n-]2)ncn1 (3D coordinates assigned)
[NH-]C(=O)c1ccccc1Oc1cc(N=c2nccc[n-]2)ncn1 (optimized conformer: 50.96484234945936 kcal/mol)

>  <smiles>  (73) 
NC(=O)c1ccccc1Oc1cc(N=c2nccc[nH]2)ncn1

>  <score_type>  (73) 
oracle

>  <origin>  (73) 
adg

>  <m_score__min__energy>  (73) 
-11.359999999999999

>  <m_primary>  (73) 
energy

$$$$
73:0
     RDKit          3D

 44 46  0  0  0  0  0  0  0  0999 V2000
   55.9680   23.8820   46.3800 C   0  0  0  0  0  0  0  0  0  0  0  0
   56.9270   24.9860   46.0250 C   0  0  0  0  0  0  0  0  0  0  0  0
   58.2910   24.6990   45.8970 C   0  0  0  0  0  0  0  0  0  0  0  0
   59.2020   25.7120   45.6210 C   0  0  0  0  0  0  0  0  0  0  0  0
   58.7670   27.0240   45.4380 C   0  0  0  0  0  0  0  0  0  0  0  0
   59.6670   27.9590   45.1520 O   0  0  0  0  0  0  0  0  0  0  0  0
   59.3420   29.2240   44.9290 C   0  0  0  0  0  0  0  0  0  0  0  0
   58.0090   29.6300   44.9600 C   0  0  0  0  0  0  0  0  0  0  0  0
   57.5940   31.3430   44.6040 S   0  0  0  0  0  0  0  0  0  0  0  0
   58.5450   31.9630   45.9920 C   0  0  0  0  0  0  0  0  0  0  0  0
   59.2200   33.1810   45.8910 C   0  0  0  0  0  0  0  0  0  0  0  0
   59.9700   33.6630   46.9680 C   0  0  0  0  0  0  0  0  0  0  0  0
   60.0560   32.9350   48.1790 C   0  0  0  0  0  0  0  0  0  0  0  0
   60.8740   33.4240   49.3910 C   0  0  0  0  0  0  0  0  0  0  0  0
   61.7130   32.2560   49.9520 C   0  0  0  0  0  0  0  0  0  0  0  0
   61.8480   34.5750   49.0420 C   0  0  0  0  0  0  0  0  0  0  0  0
   59.9140   33.9390   50.4870 C   0  0  0  0  0  0  0  0  0  0  0  0
   59.3560   31.7090   48.2590 C   0  0  0  0  0  0  0  0  0  0  0  0
   58.6080   31.2330   47.1790 C   0  0  0  0  0  0  0  0  0  0  0  0
   57.0180   28.6860   45.2600 C   0  0  0  0  0  0  0  0  0  0  0  0
   55.8120   29.0450   45.2290 O   0  0  0  0  0  0  0  0  0  0  0  0
   57.3880   27.3480   45.5480 C   0  0  0  0  0  0  0  0  0  0  0  0
   56.4690   26.3150   45.9040 C   0  0  0  0  0  0  0  0  0  0  0  0
   55.1170   26.5540   46.1760 O   0  0  0  0  0  0  0  0  0  0  0  0
   55.8948   23.7977   47.4743 H   0  0  0  0  0  0  0  0  0  0  0  0
   54.9761   24.1096   45.9626 H   0  0  0  0  0  0  0  0  0  0  0  0
   56.3322   22.9317   45.9626 H   0  0  0  0  0  0  0  0  0  0  0  0
   58.6446   23.6642   46.0157 H   0  0  0  0  0  0  0  0  0  0  0  0
   60.2740   25.4768   45.5464 H   0  0  0  0  0  0  0  0  0  0  0  0
   60.1313   29.9604   44.7175 H   0  0  0  0  0  0  0  0  0  0  0  0
   59.1615   33.7639   44.9600 H   0  0  0  0  0  0  0  0  0  0  0  0
   60.5009   34.6217   46.8730 H   0  0  0  0  0  0  0  0  0  0  0  0
   61.6924   32.2847   51.0514 H   0  0  0  0  0  0  0  0  0  0  0  0
   61.2928   31.3015   49.6022 H   0  0  0  0  0  0  0  0  0  0  0  0
   62.7517   32.3495   49.6022 H   0  0  0  0  0  0  0  0  0  0  0  0
   62.2298   35.0262   49.9697 H   0  0  0  0  0  0  0  0  0  0  0  0
   62.6888   34.1783   48.4541 H   0  0  0  0  0  0  0  0  0  0  0  0
   61.3176   35.3386   48.4541 H   0  0  0  0  0  0  0  0  0  0  0  0
   60.3344   33.7135   51.4782 H   0  0  0  0  0  0  0  0  0  0  0  0
   59.7867   35.0265   50.3815 H   0  0  0  0  0  0  0  0  0  0  0  0
   58.9376   33.4436   50.3815 H   0  0  0  0  0  0  0  0  0  0  0  0
   59.4011   31.1201   49.1870 H   0  0  0  0  0  0  0  0  0  0  0  0
   58.0669   30.2792   47.2651 H   0  0  0  0  0  0  0  0  0  0  0  0
   54.7230   27.4640   46.3590 H   0  0  0  0  0  0  0  0  0  0  0  0
  1  2  1  0
  2  3  2  0
  3  4  1  0
  4  5  2  0
  5  6  1  0
  6  7  1  0
  7  8  2  0
  8  9  1  0
  9 10  1  0
 10 11  2  0
 11 12  1  0
 12 13  2  0
 13 14  1  0
 14 15  1  0
 14 16  1  0
 14 17  1  0
 13 18  1  0
 18 19  2  0
  8 20  1  0
 20 21  2  0
 20 22  1  0
 22 23  2  0
 23 24  1  0
 23  2  1  0
 22  5  1  0
 19 10  1  0
  1 25  1  0
  1 26  1  0
  1 27  1  0
  3 28  1  0
  4 29  1  0
  7 30  1  0
 11 31  1  0
 12 32  1  0
 15 33  1  0
 15 34  1  0
 15 35  1  0
 16 36  1  0
 16 37  1  0
 16 38  1  0
 17 39  1  0
 17 40  1  0
 17 41  1  0
 18 42  1  0
 19 43  1  0
 24 44  1  0
M  END
>  <UniqueID>  (74) 
70

>  <SMILES>  (74) 
Cc1ccc2occ(Sc3ccc(C(C)(C)C)cc3)c(=O)c2c1O

>  <Energy>  (74) 
55.1032410700626

>  <Genealogy>  (74) 
Cc1ccc2occ(Sc3ccc(C(C)(C)C)cc3)c(=O)c2c1O (3D coordinates assigned)
Cc1ccc2occ(Sc3ccc(C(C)(C)C)cc3)c(=O)c2c1O (optimized conformer: 55.1032410700626 kcal/mol)

>  <smiles>  (74) 
Cc1ccc2occ(Sc3ccc(C(C)(C)C)cc3)c(=O)c2c1O

>  <score_type>  (74) 
oracle

>  <origin>  (74) 
adg

>  <m_score__min__energy>  (74) 
-9.2699999999999996

>  <m_primary>  (74) 
energy

$$$$
74:0
     RDKit          3D

 50 51  0  0  0  0  0  0  0  0999 V2000
   59.7030   34.9660   47.4920 C   0  0  0  0  0  0  0  0  0  0  0  0
   58.7020   34.3710   46.6750 O   0  0  0  0  0  0  0  0  0  0  0  0
   58.6510   33.0080   46.3440 C   0  0  0  0  0  0  0  0  0  0  0  0
   59.6490   32.1030   46.7500 C   0  0  0  0  0  0  0  0  0  0  0  0
   59.5570   30.7430   46.4160 C   0  0  0  0  0  0  0  0  0  0  0  0
   60.6310   29.7860   46.8660 C   0  0  0  0  0  0  0  0  0  0  0  0
   60.0180   28.4980   47.2750 N   0  0  0  0  0  0  0  0  0  0  0  0
   60.4610   28.1170   48.6270 C   0  0  0  0  0  0  0  0  0  0  0  0
   60.3110   27.3990   46.3250 C   0  0  0  0  0  0  0  0  0  0  0  0
   59.0380   26.7880   45.7290 C   0  0  0  0  0  0  0  0  0  0  0  0
   58.1040   26.4370   46.7900 N   0  0  0  0  0  0  0  0  0  0  0  0
   57.5930   25.1160   46.9810 C   0  0  0  0  0  0  0  0  0  0  0  0
   57.5530   24.6210   48.1410 O   0  0  0  0  0  0  0  0  0  0  0  0
   57.1960   24.2940   45.8130 C   0  0  0  0  0  0  0  0  0  0  0  0
   58.1180   23.3470   45.3260 C   0  0  0  0  0  0  0  0  0  0  0  0
   57.8670   22.6480   44.1450 C   0  0  0  0  0  0  0  0  0  0  0  0
   56.6950   22.8840   43.4290 C   0  0  0  0  0  0  0  0  0  0  0  0
   55.7560   23.7970   43.9070 C   0  0  0  0  0  0  0  0  0  0  0  0
   55.9770   24.4940   45.1090 C   0  0  0  0  0  0  0  0  0  0  0  0
   54.8890   25.3560   45.6250 C   0  0  0  0  0  0  0  0  0  0  0  0
   53.7500   24.8690   45.8570 O   0  0  0  0  0  0  0  0  0  0  0  0
   55.1250   26.6930   45.9180 O   0  0  0  0  0  0  0  0  0  0  0  0
   58.4670   30.2910   45.6590 C   0  0  0  0  0  0  0  0  0  0  0  0
   57.4580   31.1840   45.2510 C   0  0  0  0  0  0  0  0  0  0  0  0
   56.3420   30.7570   44.5150 O   0  0  0  0  0  0  0  0  0  0  0  0
   56.3740   29.7460   43.5120 C   0  0  0  0  0  0  0  0  0  0  0  0
   57.5650   32.5460   45.5900 C   0  0  0  0  0  0  0  0  0  0  0  0
   56.5880   33.4590   45.1870 O   0  0  0  0  0  0  0  0  0  0  0  0
   59.4490   34.8150   48.5516 H   0  0  0  0  0  0  0  0  0  0  0  0
   60.6759   34.4995   47.2781 H   0  0  0  0  0  0  0  0  0  0  0  0
   59.7581   36.0436   47.2781 H   0  0  0  0  0  0  0  0  0  0  0  0
   60.5083   32.4644   47.3339 H   0  0  0  0  0  0  0  0  0  0  0  0
   61.3331   29.6095   46.0378 H   0  0  0  0  0  0  0  0  0  0  0  0
   61.1686   30.2201   47.7219 H   0  0  0  0  0  0  0  0  0  0  0  0
   59.8495   28.6429   49.3750 H   0  0  0  0  0  0  0  0  0  0  0  0
   60.3465   27.0308   48.7579 H   0  0  0  0  0  0  0  0  0  0  0  0
   61.5178   28.3927   48.7579 H   0  0  0  0  0  0  0  0  0  0  0  0
   60.9297   27.7951   45.5063 H   0  0  0  0  0  0  0  0  0  0  0  0
   60.8358   26.6070   46.8794 H   0  0  0  0  0  0  0  0  0  0  0  0
   58.5653   27.5182   45.0557 H   0  0  0  0  0  0  0  0  0  0  0  0
   59.3041   25.8789   45.1698 H   0  0  0  0  0  0  0  0  0  0  0  0
   59.0469   23.1563   45.8835 H   0  0  0  0  0  0  0  0  0  0  0  0
   58.5953   21.9095   43.7785 H   0  0  0  0  0  0  0  0  0  0  0  0
   56.5105   22.3493   42.4856 H   0  0  0  0  0  0  0  0  0  0  0  0
   54.8316   23.9745   43.3378 H   0  0  0  0  0  0  0  0  0  0  0  0
   58.3995   29.2288   45.3813 H   0  0  0  0  0  0  0  0  0  0  0  0
   56.4053   28.7559   43.9903 H   0  0  0  0  0  0  0  0  0  0  0  0
   55.4730   29.8223   42.8856 H   0  0  0  0  0  0  0  0  0  0  0  0
   57.2684   29.8791   42.8856 H   0  0  0  0  0  0  0  0  0  0  0  0
   56.5630   34.4110   45.5290 H   0  0  0  0  0  0  0  0  0  0  0  0
  1  2  1  0
  2  3  1  0
  3  4  2  0
  4  5  1  0
  5  6  1  0
  6  7  1  0
  7  8  1  0
  7  9  1  0
  9 10  1  0
 10 11  1  0
 11 12  1  0
 12 13  2  0
 12 14  1  0
 14 15  2  0
 15 16  1  0
 16 17  2  0
 17 18  1  0
 18 19  2  0
 19 20  1  0
 20 21  2  0
 20 22  1  0
  5 23  2  0
 23 24  1  0
 24 25  1  0
 25 26  1  0
 24 27  2  0
 27 28  1  0
 27  3  1  0
 19 14  1  0
  1 29  1  0
  1 30  1  0
  1 31  1  0
  4 32  1  0
  6 33  1  0
  6 34  1  0
  8 35  1  0
  8 36  1  0
  8 37  1  0
  9 38  1  0
  9 39  1  0
 10 40  1  0
 10 41  1  0
 15 42  1  0
 16 43  1  0
 17 44  1  0
 18 45  1  0
 23 46  1  0
 26 47  1  0
 26 48  1  0
 26 49  1  0
 28 50  1  0
M  CHG  2  11  -1  22  -1
M  END
>  <UniqueID>  (75) 
71

>  <SMILES>  (75) 
COc1cc(CN(C)CC[N-]C(=O)c2ccccc2C(=O)[O-])cc(OC)c1O

>  <Energy>  (75) 
50.05766783446892

>  <Genealogy>  (75) 
COc1cc(CN(C)CC[N-]C(=O)c2ccccc2C(=O)[O-])cc(OC)c1O (protonated)
COc1cc(CN(C)CC[N-]C(=O)c2ccccc2C(=O)[O-])cc(OC)c1O (3D coordinates assigned)
COc1cc(CN(C)CC[N-]C(=O)c2ccccc2C(=O)[O-])cc(OC)c1O (optimized conformer: 50.05766783446892 kcal/mol)

>  <smiles>  (75) 
COc1cc(CN(C)CCNC(=O)c2ccccc2C(=O)O)cc(OC)c1O

>  <score_type>  (75) 
oracle

>  <origin>  (75) 
adg

>  <m_score__min__energy>  (75) 
-11.1

>  <m_primary>  (75) 
energy

$$$$
75:0
     RDKit          3D

 51 54  0  0  0  0  0  0  0  0999 V2000
   59.7360   35.7490   46.5280 C   0  0  0  0  0  0  0  0  0  0  0  0
   59.5220   34.2730   46.6840 C   0  0  0  0  0  0  0  0  0  0  0  0
   60.6150   33.3940   46.6630 C   0  0  0  0  0  0  0  0  0  0  0  0
   60.4130   32.0150   46.7730 C   0  0  0  0  0  0  0  0  0  0  0  0
   59.1140   31.4960   46.9000 C   0  0  0  0  0  0  0  0  0  0  0  0
   58.8960   30.0340   47.0260 C   0  0  0  0  0  0  0  0  0  0  0  0
   59.4230   29.3650   48.1410 C   0  0  0  0  0  0  0  0  0  0  0  0
   59.2050   27.9990   48.3210 C   0  0  0  0  0  0  0  0  0  0  0  0
   58.4590   27.2650   47.3900 C   0  0  0  0  0  0  0  0  0  0  0  0
   58.2630   25.8540   47.6030 N   0  0  0  0  0  0  0  0  0  0  0  0
   56.9550   25.2140   47.7670 C   0  0  0  0  0  0  0  0  0  0  0  0
   56.5160   24.5490   46.4830 C   0  0  0  0  0  0  0  0  0  0  0  0
   57.1010   23.3300   46.0990 C   0  0  0  0  0  0  0  0  0  0  0  0
   56.7060   22.6950   44.9190 C   0  0  0  0  0  0  0  0  0  0  0  0
   55.7160   23.2630   44.1170 C   0  0  0  0  0  0  0  0  0  0  0  0
   55.1130   24.4640   44.4960 C   0  0  0  0  0  0  0  0  0  0  0  0
   55.5010   25.1060   45.6770 C   0  0  0  0  0  0  0  0  0  0  0  0
   54.8730   26.2940   46.0380 O   0  0  0  0  0  0  0  0  0  0  0  0
   57.9290   27.9290   46.2690 C   0  0  0  0  0  0  0  0  0  0  0  0
   58.1470   29.3020   46.0700 C   0  0  0  0  0  0  0  0  0  0  0  0
   57.6360   29.9300   44.8280 C   0  0  0  0  0  0  0  0  0  0  0  0
   58.4970   30.7080   44.0340 C   0  0  0  0  0  0  0  0  0  0  0  0
   58.0300   31.3020   42.8590 C   0  0  0  0  0  0  0  0  0  0  0  0
   56.7040   31.1220   42.4630 C   0  0  0  0  0  0  0  0  0  0  0  0
   55.8410   30.3450   43.2390 C   0  0  0  0  0  0  0  0  0  0  0  0
   56.2990   29.7490   44.4230 C   0  0  0  0  0  0  0  0  0  0  0  0
   55.4270   28.9890   45.2030 O   0  0  0  0  0  0  0  0  0  0  0  0
   58.0190   32.3750   46.8910 C   0  0  0  0  0  0  0  0  0  0  0  0
   58.2220   33.7530   46.7800 C   0  0  0  0  0  0  0  0  0  0  0  0
   59.8038   36.2167   47.5213 H   0  0  0  0  0  0  0  0  0  0  0  0
   60.6694   35.9276   45.9741 H   0  0  0  0  0  0  0  0  0  0  0  0
   58.8917   36.1854   45.9741 H   0  0  0  0  0  0  0  0  0  0  0  0
   61.6355   33.7914   46.5595 H   0  0  0  0  0  0  0  0  0  0  0  0
   61.2759   31.3329   46.7600 H   0  0  0  0  0  0  0  0  0  0  0  0
   60.0145   29.9237   48.8813 H   0  0  0  0  0  0  0  0  0  0  0  0
   59.6234   27.4928   49.2035 H   0  0  0  0  0  0  0  0  0  0  0  0
   59.1010   25.2300   47.6090 H   0  0  0  0  0  0  0  0  0  0  0  0
   57.0220   24.4556   48.5609 H   0  0  0  0  0  0  0  0  0  0  0  0
   56.2172   25.9850   48.0339 H   0  0  0  0  0  0  0  0  0  0  0  0
   57.8755   22.8727   46.7322 H   0  0  0  0  0  0  0  0  0  0  0  0
   57.1762   21.7460   44.6219 H   0  0  0  0  0  0  0  0  0  0  0  0
   55.4102   22.7644   43.1854 H   0  0  0  0  0  0  0  0  0  0  0  0
   54.3297   24.9072   43.8635 H   0  0  0  0  0  0  0  0  0  0  0  0
   57.3342   27.3638   45.5364 H   0  0  0  0  0  0  0  0  0  0  0  0
   59.5441   30.8497   44.3397 H   0  0  0  0  0  0  0  0  0  0  0  0
   58.7085   31.9125   42.2450 H   0  0  0  0  0  0  0  0  0  0  0  0
   56.3380   31.5926   41.5386 H   0  0  0  0  0  0  0  0  0  0  0  0
   54.7982   30.2000   42.9203 H   0  0  0  0  0  0  0  0  0  0  0  0
   55.1450   28.0560   44.9290 H   0  0  0  0  0  0  0  0  0  0  0  0
   56.9967   31.9769   46.9717 H   0  0  0  0  0  0  0  0  0  0  0  0
   57.3582   34.4339   46.7678 H   0  0  0  0  0  0  0  0  0  0  0  0
  1  2  1  0
  2  3  2  0
  3  4  1  0
  4  5  2  0
  5  6  1  0
  6  7  2  0
  7  8  1  0
  8  9  2  0
  9 10  1  0
 10 11  1  0
 11 12  1  0
 12 13  2  0
 13 14  1  0
 14 15  2  0
 15 16  1  0
 16 17  2  0
 17 18  1  0
  9 19  1  0
 19 20  2  0
 20 21  1  0
 21 22  2  0
 22 23  1  0
 23 24  2  0
 24 25  1  0
 25 26  2  0
 26 27  1  0
  5 28  1  0
 28 29  2  0
 29  2  1  0
 20  6  1  0
 26 21  1  0
 17 12  1  0
  1 30  1  0
  1 31  1  0
  1 32  1  0
  3 33  1  0
  4 34  1  0
  7 35  1  0
  8 36  1  0
 10 37  1  0
 11 38  1  0
 11 39  1  0
 13 40  1  0
 14 41  1  0
 15 42  1  0
 16 43  1  0
 19 44  1  0
 22 45  1  0
 23 46  1  0
 24 47  1  0
 25 48  1  0
 27 49  1  0
 28 50  1  0
 29 51  1  0
M  CHG  1  18  -1
M  END
>  <UniqueID>  (76) 
72

>  <SMILES>  (76) 
Cc1ccc(-c2ccc(NCc3ccccc3[O-])cc2-c2ccccc2O)cc1

>  <Energy>  (76) 
67.5164119295948

>  <Genealogy>  (76) 
Cc1ccc(-c2ccc(NCc3ccccc3[O-])cc2-c2ccccc2O)cc1 (protonated)
Cc1ccc(-c2ccc(NCc3ccccc3[O-])cc2-c2ccccc2O)cc1 (3D coordinates assigned)
Cc1ccc(-c2ccc(NCc3ccccc3[O-])cc2-c2ccccc2O)cc1 (optimized conformer: 67.5164119295948 kcal/mol)

>  <smiles>  (76) 
Cc1ccc(-c2ccc(NCc3ccccc3O)cc2-c2ccccc2O)cc1

>  <score_type>  (76) 
oracle

>  <origin>  (76) 
adg

>  <m_score__min__energy>  (76) 
-12.75

>  <m_primary>  (76) 
energy

$$$$
76:0
     RDKit          3D

 49 52  0  0  0  0  0  0  0  0999 V2000
   58.9651   34.3560   51.1563 H   0  0  0  0  0  0  0  0  0  0  0  0
   59.7580   34.2050   50.4090 C   0  0  0  0  0  0  0  0  0  0  0  0
   60.9400   33.6610   50.7780 N   0  0  0  0  0  0  0  0  0  0  0  0
   61.9600   33.4930   49.8990 C   0  0  0  0  0  0  0  0  0  0  0  0
   63.1620   32.9550   50.3710 C   0  0  0  0  0  0  0  0  0  0  0  0
   63.2415   32.6290   51.4186 H   0  0  0  0  0  0  0  0  0  0  0  0
   64.2590   32.8300   49.5210 C   0  0  0  0  0  0  0  0  0  0  0  0
   65.7660   32.1620   50.1210 Cl  0  0  0  0  0  0  0  0  0  0  0  0
   64.1640   33.2670   48.2020 C   0  0  0  0  0  0  0  0  0  0  0  0
   65.0374   33.1917   47.5376 H   0  0  0  0  0  0  0  0  0  0  0  0
   62.9680   33.8000   47.7170 C   0  0  0  0  0  0  0  0  0  0  0  0
   62.9214   34.1648   46.6803 H   0  0  0  0  0  0  0  0  0  0  0  0
   61.8150   33.8800   48.5330 C   0  0  0  0  0  0  0  0  0  0  0  0
   60.5300   34.3670   48.1110 C   0  0  0  0  0  0  0  0  0  0  0  0
   60.1380   34.5840   46.8780 N   0  0  0  0  0  0  0  0  0  0  0  0
   60.2170   33.8380   45.6230 C   0  0  0  0  0  0  0  0  0  0  0  0
   60.9631   33.0374   45.7340 H   0  0  0  0  0  0  0  0  0  0  0  0
   60.5004   34.5448   44.8292 H   0  0  0  0  0  0  0  0  0  0  0  0
   58.8710   33.2080   45.2320 C   0  0  0  0  0  0  0  0  0  0  0  0
   59.0551   32.1954   44.8436 H   0  0  0  0  0  0  0  0  0  0  0  0
   58.4076   33.8547   44.4724 H   0  0  0  0  0  0  0  0  0  0  0  0
   57.7130   33.0930   46.6460 S   0  0  0  0  0  0  0  0  0  0  0  0
   58.4020   31.5780   47.3360 C   0  0  0  0  0  0  0  0  0  0  0  0
   58.9020   31.5990   48.6450 C   0  0  0  0  0  0  0  0  0  0  0  0
   58.8765   32.5328   49.2258 H   0  0  0  0  0  0  0  0  0  0  0  0
   59.4320   30.4410   49.2150 C   0  0  0  0  0  0  0  0  0  0  0  0
   59.8112   30.4601   50.2474 H   0  0  0  0  0  0  0  0  0  0  0  0
   59.4810   29.2580   48.4750 C   0  0  0  0  0  0  0  0  0  0  0  0
   59.9202   28.3515   48.9170 H   0  0  0  0  0  0  0  0  0  0  0  0
   58.9730   29.2240   47.1740 C   0  0  0  0  0  0  0  0  0  0  0  0
   59.0235   28.2924   46.5912 H   0  0  0  0  0  0  0  0  0  0  0  0
   58.3970   30.3750   46.6050 C   0  0  0  0  0  0  0  0  0  0  0  0
   57.8780   30.3660   45.2660 N   0  0  0  0  0  0  0  0  0  0  0  0
   56.5440   30.0260   44.8750 C   0  0  0  0  0  0  0  0  0  0  0  0
   55.8620   30.8680   44.2340 O   0  0  0  0  0  0  0  0  0  0  0  0
   55.9890   28.7480   45.2110 N   0  0  0  0  0  0  0  0  0  0  0  0
   56.7230   27.5240   45.3510 C   0  0  0  0  0  0  0  0  0  0  0  0
   58.0790   27.5110   44.9990 C   0  0  0  0  0  0  0  0  0  0  0  0
   58.5518   28.4263   44.6135 H   0  0  0  0  0  0  0  0  0  0  0  0
   58.8350   26.3440   45.1340 C   0  0  0  0  0  0  0  0  0  0  0  0
   59.8950   26.3390   44.8401 H   0  0  0  0  0  0  0  0  0  0  0  0
   58.2460   25.1830   45.6420 C   0  0  0  0  0  0  0  0  0  0  0  0
   58.9810   24.0520   45.7770 F   0  0  0  0  0  0  0  0  0  0  0  0
   56.9020   25.1950   46.0270 C   0  0  0  0  0  0  0  0  0  0  0  0
   56.4418   24.2840   46.4372 H   0  0  0  0  0  0  0  0  0  0  0  0
   56.1400   26.3600   45.8930 C   0  0  0  0  0  0  0  0  0  0  0  0
   54.8620   26.3630   46.3460 F   0  0  0  0  0  0  0  0  0  0  0  0
   59.5450   34.5730   49.0870 C   0  0  0  0  0  0  0  0  0  0  0  0
   58.5879   35.0336   48.8010 H   0  0  0  0  0  0  0  0  0  0  0  0
  1  2  1  0
  2  3  1  0
  3  4  1  0
  4  5  2  0
  5  6  1  0
  5  7  1  0
  7  8  1  0
  7  9  2  0
  9 10  1  0
  9 11  1  0
 11 12  1  0
 11 13  2  0
 13 14  1  0
 14 15  2  0
 15 16  1  0
 16 17  1  0
 16 18  1  0
 16 19  1  0
 19 20  1  0
 19 21  1  0
 19 22  1  0
 22 23  1  0
 23 24  2  0
 24 25  1  0
 24 26  1  0
 26 27  1  0
 26 28  2  0
 28 29  1  0
 28 30  1  0
 30 31  1  0
 30 32  2  0
 32 33  1  0
 33 34  1  0
 34 35  2  0
 34 36  1  0
 36 37  1  0
 37 38  2  0
 38 39  1  0
 38 40  1  0
 40 41  1  0
 40 42  2  0
 42 43  1  0
 42 44  1  0
 44 45  1  0
 44 46  2  0
 46 47  1  0
 14 48  1  0
 48 49  1  0
 48  2  2  0
 13  4  1  0
 32 23  1  0
 46 37  1  0
M  CHG  3   3  -1  33  -1  36  -1
M  END
>  <UniqueID>  (77) 
73

>  <SMILES>  (77) 
O=C([N-]c1ccc(F)cc1F)[N-]c1ccccc1SCC/N=c1/cc[n-]c2cc(Cl)ccc12

>  <Energy>  (77) 
76.36391948011743

>  <Genealogy>  (77) 
O=C([N-]c1ccc(F)cc1F)[N-]c1ccccc1SCCN=c1cc[n-]c2cc(Cl)ccc12 (protonated)
O=C([N-]c1ccc(F)cc1F)[N-]c1ccccc1SCC/N=c1/cc[n-]c2cc(Cl)ccc12 (cis-trans isomerization)
O=C([N-]c1ccc(F)cc1F)[N-]c1ccccc1SCC/N=c1/cc[n-]c2cc(Cl)ccc12 (3D coordinates assigned)
O=C([N-]c1ccc(F)cc1F)[N-]c1ccccc1SCC/N=c1/cc[n-]c2cc(Cl)ccc12 (optimized conformer: 76.36391948011743 kcal/mol)

>  <smiles>  (77) 
O=C(Nc1ccc(F)cc1F)Nc1ccccc1SCCN=c1cc[nH]c2cc(Cl)ccc12

>  <score_type>  (77) 
oracle

>  <origin>  (77) 
adg

>  <m_score__min__energy>  (77) 
-13.67

>  <m_primary>  (77) 
energy

$$$$
77:0
     RDKit          3D

 44 47  0  0  0  0  0  0  0  0999 V2000
   56.4400   30.5300   54.6510 C   0  0  0  0  0  0  0  0  0  0  0  0
   57.0830   30.9900   53.3680 C   0  0  0  0  0  0  0  0  0  0  0  0
   57.6680   32.2270   53.3090 N   0  0  0  0  0  0  0  0  0  0  0  0
   58.2300   32.6280   52.1560 C   0  0  0  0  0  0  0  0  0  0  0  0
   58.8140   33.8650   52.0520 C   0  0  0  0  0  0  0  0  0  0  0  0
   58.8160   34.6050   53.0730 O   0  0  0  0  0  0  0  0  0  0  0  0
   59.3430   34.1980   50.8730 N   0  0  0  0  0  0  0  0  0  0  0  0
   59.3790   33.4770   49.7660 C   0  0  0  0  0  0  0  0  0  0  0  0
   60.0060   33.8950   48.5390 N   0  0  0  0  0  0  0  0  0  0  0  0
   59.1780   34.5780   47.5840 C   0  0  0  0  0  0  0  0  0  0  0  0
   58.6800   33.7450   46.4680 C   0  0  0  0  0  0  0  0  0  0  0  0
   58.5880   32.3600   46.6440 C   0  0  0  0  0  0  0  0  0  0  0  0
   58.1080   31.5200   45.6530 C   0  0  0  0  0  0  0  0  0  0  0  0
   57.6960   32.0080   44.4400 C   0  0  0  0  0  0  0  0  0  0  0  0
   57.2280   31.1570   43.4990 F   0  0  0  0  0  0  0  0  0  0  0  0
   57.7770   33.3620   44.2420 C   0  0  0  0  0  0  0  0  0  0  0  0
   58.2620   34.2160   45.2450 C   0  0  0  0  0  0  0  0  0  0  0  0
   61.3890   33.6370   48.2730 C   0  0  0  0  0  0  0  0  0  0  0  0
   61.9180   33.8340   47.0150 C   0  0  0  0  0  0  0  0  0  0  0  0
   63.2720   33.5960   46.7270 C   0  0  0  0  0  0  0  0  0  0  0  0
   64.1360   33.1510   47.6910 C   0  0  0  0  0  0  0  0  0  0  0  0
   63.6280   32.9480   48.9480 C   0  0  0  0  0  0  0  0  0  0  0  0
   62.2740   33.1870   49.2350 C   0  0  0  0  0  0  0  0  0  0  0  0
   58.7990   32.2440   49.8670 N   0  0  0  0  0  0  0  0  0  0  0  0
   58.2340   31.8280   51.0340 C   0  0  0  0  0  0  0  0  0  0  0  0
   57.6530   30.5850   51.0750 N   0  0  0  0  0  0  0  0  0  0  0  0
   57.0760   30.1600   52.2390 C   0  0  0  0  0  0  0  0  0  0  0  0
   56.5340   29.0290   52.3070 O   0  0  0  0  0  0  0  0  0  0  0  0
   57.0016   30.9318   55.5072 H   0  0  0  0  0  0  0  0  0  0  0  0
   55.4019   30.8917   54.6911 H   0  0  0  0  0  0  0  0  0  0  0  0
   56.4471   29.4308   54.6911 H   0  0  0  0  0  0  0  0  0  0  0  0
   58.3072   34.9849   48.1190 H   0  0  0  0  0  0  0  0  0  0  0  0
   59.8148   35.3495   47.1266 H   0  0  0  0  0  0  0  0  0  0  0  0
   58.9077   31.9236   47.6018 H   0  0  0  0  0  0  0  0  0  0  0  0
   58.0562   30.4378   45.8433 H   0  0  0  0  0  0  0  0  0  0  0  0
   57.4561   33.7871   43.2796 H   0  0  0  0  0  0  0  0  0  0  0  0
   58.3093   35.2969   45.0465 H   0  0  0  0  0  0  0  0  0  0  0  0
   61.2577   34.1894   46.2102 H   0  0  0  0  0  0  0  0  0  0  0  0
   63.6453   33.7706   45.7071 H   0  0  0  0  0  0  0  0  0  0  0  0
   65.1963   32.9637   47.4659 H   0  0  0  0  0  0  0  0  0  0  0  0
   64.2938   32.5910   49.7475 H   0  0  0  0  0  0  0  0  0  0  0  0
   61.9065   33.0107   50.2567 H   0  0  0  0  0  0  0  0  0  0  0  0
   58.7750   31.5590   49.0980 H   0  0  0  0  0  0  0  0  0  0  0  0
   57.6420   29.9600   50.2410 H   0  0  0  0  0  0  0  0  0  0  0  0
  1  2  1  0
  2  3  2  0
  3  4  1  0
  4  5  1  0
  5  6  2  0
  5  7  1  0
  7  8  2  0
  8  9  1  0
  9 10  1  0
 10 11  1  0
 11 12  2  0
 12 13  1  0
 13 14  2  0
 14 15  1  0
 14 16  1  0
 16 17  2  0
  9 18  1  0
 18 19  2  0
 19 20  1  0
 20 21  2  0
 21 22  1  0
 22 23  2  0
  8 24  1  0
 24 25  1  0
 25 26  1  0
 26 27  1  0
 27 28  2  0
 27  2  1  0
 25  4  2  0
 17 11  1  0
 23 18  1  0
  1 29  1  0
  1 30  1  0
  1 31  1  0
 10 32  1  0
 10 33  1  0
 12 34  1  0
 13 35  1  0
 16 36  1  0
 17 37  1  0
 19 38  1  0
 20 39  1  0
 21 40  1  0
 22 41  1  0
 23 42  1  0
 24 43  1  0
 26 44  1  0
M  END
>  <smiles>  (78) 
Cc1nc2c(=O)nc(N(Cc3ccc(F)cc3)c3ccccc3)[nH]c2[nH]c1=O

>  <score_type>  (78) 
oracle

>  <origin>  (78) 
adg

>  <m_score__min__energy>  (78) 
-8.1099999999999994

>  <m_primary>  (78) 
energy

$$$$
78:0
     RDKit          3D

 30 32  0  0  0  0  0  0  0  0999 V2000
   56.1500   24.5560   44.4990 N   0  0  0  0  0  0  0  0  0  0  0  0
   56.0190   25.4400   45.9780 S   0  0  0  0  0  0  0  0  0  0  0  0
   54.7740   26.2820   45.9610 O   0  0  0  0  0  0  0  0  0  0  0  0
   55.9430   24.4760   47.1270 O   0  0  0  0  0  0  0  0  0  0  0  0
   57.4210   26.4730   46.1800 C   0  0  0  0  0  0  0  0  0  0  0  0
   58.7340   26.0760   46.0300 C   0  0  0  0  0  0  0  0  0  0  0  0
   59.4920   27.1980   46.2860 C   0  0  0  0  0  0  0  0  0  0  0  0
   58.5870   28.1990   46.5790 C   0  0  0  0  0  0  0  0  0  0  0  0
   59.0070   29.8820   47.0080 S   0  0  0  0  0  0  0  0  0  0  0  0
   57.8390   30.5550   45.8240 C   0  0  0  0  0  0  0  0  0  0  0  0
   56.9060   29.8150   45.1990 N   0  0  0  0  0  0  0  0  0  0  0  0
   56.1790   30.6860   44.5120 N   0  0  0  0  0  0  0  0  0  0  0  0
   56.6340   31.9140   44.7100 N   0  0  0  0  0  0  0  0  0  0  0  0
   57.6780   31.8570   45.5190 N   0  0  0  0  0  0  0  0  0  0  0  0
   58.3930   33.0040   46.0050 C   0  0  0  0  0  0  0  0  0  0  0  0
   58.8570   33.9950   45.1210 C   0  0  0  0  0  0  0  0  0  0  0  0
   59.5570   35.1030   45.6090 C   0  0  0  0  0  0  0  0  0  0  0  0
   59.7900   35.2360   46.9800 C   0  0  0  0  0  0  0  0  0  0  0  0
   59.3150   34.2660   47.8670 C   0  0  0  0  0  0  0  0  0  0  0  0
   58.6150   33.1580   47.3830 C   0  0  0  0  0  0  0  0  0  0  0  0
   57.3590   27.7420   46.5080 O   0  0  0  0  0  0  0  0  0  0  0  0
   55.2290   24.0920   44.3370 H   0  0  0  0  0  0  0  0  0  0  0  0
   56.2720   25.2580   43.7350 H   0  0  0  0  0  0  0  0  0  0  0  0
   59.0992   25.0736   45.7621 H   0  0  0  0  0  0  0  0  0  0  0  0
   60.5887   27.2793   46.2620 H   0  0  0  0  0  0  0  0  0  0  0  0
   58.6685   33.8980   44.0416 H   0  0  0  0  0  0  0  0  0  0  0  0
   59.9246   35.8708   44.9124 H   0  0  0  0  0  0  0  0  0  0  0  0
   60.3474   36.1042   47.3614 H   0  0  0  0  0  0  0  0  0  0  0  0
   59.4924   34.3750   48.9471 H   0  0  0  0  0  0  0  0  0  0  0  0
   58.2354   32.4016   48.0857 H   0  0  0  0  0  0  0  0  0  0  0  0
  1  2  1  0
  2  3  2  0
  2  4  2  0
  2  5  1  0
  5  6  2  0
  6  7  1  0
  7  8  2  0
  8  9  1  0
  9 10  1  0
 10 11  2  0
 11 12  1  0
 12 13  2  0
 13 14  1  0
 14 15  1  0
 15 16  2  0
 16 17  1  0
 17 18  2  0
 18 19  1  0
 19 20  2  0
  8 21  1  0
 21  5  1  0
 14 10  1  0
 20 15  1  0
  1 22  1  0
  1 23  1  0
  6 24  1  0
  7 25  1  0
 16 26  1  0
 17 27  1  0
 18 28  1  0
 19 29  1  0
 20 30  1  0
M  END
>  <UniqueID>  (79) 
74

>  <SMILES>  (79) 
NS(=O)(=O)c1ccc(Sc2nnnn2-c2ccccc2)o1

>  <Energy>  (79) 
97.15646707434603

>  <Genealogy>  (79) 
NS(=O)(=O)c1ccc(Sc2nnnn2-c2ccccc2)o1 (3D coordinates assigned)
NS(=O)(=O)c1ccc(Sc2nnnn2-c2ccccc2)o1 (optimized conformer: 97.15646707434603 kcal/mol)

>  <smiles>  (79) 
NS(=O)(=O)c1ccc(Sc2nnnn2-c2ccccc2)o1

>  <score_type>  (79) 
oracle

>  <origin>  (79) 
adg

>  <m_score__min__energy>  (79) 
-9.3300000000000001

>  <m_primary>  (79) 
energy

$$$$
79:0
     RDKit          3D

 57 60  0  0  0  0  0  0  0  0999 V2000
   60.0210   29.0000   49.3110 C   0  0  0  0  0  0  0  0  0  0  0  0
   60.0470   27.7330   48.5800 N   0  0  0  0  0  0  0  0  0  0  0  0
   61.0680   26.7500   48.9350 C   0  0  0  0  0  0  0  0  0  0  0  0
   58.8730   27.2980   47.8720 C   0  0  0  0  0  0  0  0  0  0  0  0
   58.5480   25.9220   47.8610 C   0  0  0  0  0  0  0  0  0  0  0  0
   57.4730   25.5070   47.0840 C   0  0  0  0  0  0  0  0  0  0  0  0
   57.0210   24.2570   46.9120 N   0  0  0  0  0  0  0  0  0  0  0  0
   55.9820   24.4340   46.0510 C   0  0  0  0  0  0  0  0  0  0  0  0
   55.1710   23.2950   45.4840 C   0  0  0  0  0  0  0  0  0  0  0  0
   55.8030   21.9050   45.7920 C   0  0  0  0  0  0  0  0  0  0  0  0
   56.3560   21.1860   44.5490 C   0  0  0  0  0  0  0  0  0  0  0  0
   57.1000   22.1570   43.6260 C   0  0  0  0  0  0  0  0  0  0  0  0
   56.2000   23.3140   43.1330 C   0  0  0  0  0  0  0  0  0  0  0  0
   54.9250   23.5100   43.9770 C   0  0  0  0  0  0  0  0  0  0  0  0
   55.7890   25.7240   45.6650 N   0  0  0  0  0  0  0  0  0  0  0  0
   56.7440   26.3770   46.3410 C   0  0  0  0  0  0  0  0  0  0  0  0
   57.0210   27.7390   46.3180 C   0  0  0  0  0  0  0  0  0  0  0  0
   58.0820   28.2190   47.1110 C   0  0  0  0  0  0  0  0  0  0  0  0
   58.3370   29.6310   47.1000 N   0  0  0  0  0  0  0  0  0  0  0  0
   59.2160   30.3170   46.2000 C   0  0  0  0  0  0  0  0  0  0  0  0
   60.3150   29.7980   45.8640 O   0  0  0  0  0  0  0  0  0  0  0  0
   58.8670   31.6720   45.7200 C   0  0  0  0  0  0  0  0  0  0  0  0
   59.5610   32.7970   46.2300 C   0  0  0  0  0  0  0  0  0  0  0  0
   60.8380   32.6510   47.4320 Cl  0  0  0  0  0  0  0  0  0  0  0  0
   59.2220   34.0840   45.8050 C   0  0  0  0  0  0  0  0  0  0  0  0
   58.2040   34.2740   44.8760 C   0  0  0  0  0  0  0  0  0  0  0  0
   57.5240   33.1790   44.3500 C   0  0  0  0  0  0  0  0  0  0  0  0
   57.8470   31.8710   44.7490 C   0  0  0  0  0  0  0  0  0  0  0  0
   57.0020   30.5240   43.9550 S   0  0  0  0  0  0  0  0  0  0  0  0
   58.0750   29.1090   43.7990 C   0  0  0  0  0  0  0  0  0  0  0  0
   56.5830   30.9300   42.5700 O   0  0  0  0  0  0  0  0  0  0  0  0
   55.7710   30.1580   44.7340 O   0  0  0  0  0  0  0  0  0  0  0  0
   60.0251   28.7995   50.3926 H   0  0  0  0  0  0  0  0  0  0  0  0
   60.9071   29.5950   49.0450 H   0  0  0  0  0  0  0  0  0  0  0  0
   59.1112   29.5582   49.0450 H   0  0  0  0  0  0  0  0  0  0  0  0
   61.1427   26.6781   50.0301 H   0  0  0  0  0  0  0  0  0  0  0  0
   60.7921   25.7689   48.5211 H   0  0  0  0  0  0  0  0  0  0  0  0
   62.0379   27.0629   48.5211 H   0  0  0  0  0  0  0  0  0  0  0  0
   59.1303   25.1994   48.4515 H   0  0  0  0  0  0  0  0  0  0  0  0
   54.1932   23.2925   45.9878 H   0  0  0  0  0  0  0  0  0  0  0  0
   56.6280   22.0493   46.5051 H   0  0  0  0  0  0  0  0  0  0  0  0
   55.0013   21.2712   46.1990 H   0  0  0  0  0  0  0  0  0  0  0  0
   57.0502   20.3961   44.8717 H   0  0  0  0  0  0  0  0  0  0  0  0
   55.5097   20.7582   43.9915 H   0  0  0  0  0  0  0  0  0  0  0  0
   57.9523   22.5829   44.1757 H   0  0  0  0  0  0  0  0  0  0  0  0
   57.4301   21.5910   42.7424 H   0  0  0  0  0  0  0  0  0  0  0  0
   56.7839   24.2457   43.1643 H   0  0  0  0  0  0  0  0  0  0  0  0
   55.8747   23.0566   42.1142 H   0  0  0  0  0  0  0  0  0  0  0  0
   54.5551   24.5345   43.8233 H   0  0  0  0  0  0  0  0  0  0  0  0
   54.1907   22.7594   43.6495 H   0  0  0  0  0  0  0  0  0  0  0  0
   56.4267   28.4248   45.6963 H   0  0  0  0  0  0  0  0  0  0  0  0
   59.7635   34.9527   46.2075 H   0  0  0  0  0  0  0  0  0  0  0  0
   57.9358   35.2918   44.5563 H   0  0  0  0  0  0  0  0  0  0  0  0
   56.7237   33.3398   43.6127 H   0  0  0  0  0  0  0  0  0  0  0  0
   58.3505   28.7456   44.8000 H   0  0  0  0  0  0  0  0  0  0  0  0
   57.5526   28.3114   43.2504 H   0  0  0  0  0  0  0  0  0  0  0  0
   58.9839   29.3968   43.2504 H   0  0  0  0  0  0  0  0  0  0  0  0
  1  2  1  0
  2  3  1  0
  2  4  1  0
  4  5  2  0
  5  6  1  0
  6  7  1  0
  7  8  2  0
  8  9  1  0
  9 10  1  0
 10 11  1  0
 11 12  1  0
 12 13  1  0
 13 14  1  0
  8 15  1  0
 15 16  1  0
 16 17  1  0
 17 18  2  0
 18 19  1  0
 19 20  1  0
 20 21  2  0
 20 22  1  0
 22 23  2  0
 23 24  1  0
 23 25  1  0
 25 26  2  0
 26 27  1  0
 27 28  2  0
 28 29  1  0
 29 30  1  0
 29 31  2  0
 29 32  2  0
 18  4  1  0
 28 22  1  0
 16  6  2  0
 14  9  1  0
  1 33  1  0
  1 34  1  0
  1 35  1  0
  3 36  1  0
  3 37  1  0
  3 38  1  0
  5 39  1  0
  9 40  1  0
 10 41  1  0
 10 42  1  0
 11 43  1  0
 11 44  1  0
 12 45  1  0
 12 46  1  0
 13 47  1  0
 13 48  1  0
 14 49  1  0
 14 50  1  0
 17 51  1  0
 25 52  1  0
 26 53  1  0
 27 54  1  0
 30 55  1  0
 30 56  1  0
 30 57  1  0
M  CHG  2  15  -1  19  -1
M  END
>  <UniqueID>  (80) 
75

>  <SMILES>  (80) 
CN(C)c1cc2nc(C3CCCCC3)[n-]c2cc1[N-]C(=O)c1c(Cl)cccc1S(C)(=O)=O

>  <Energy>  (80) 
112.47692646215553

>  <Genealogy>  (80) 
CN(C)c1cc2nc(C3CCCCC3)[n-]c2cc1[N-]C(=O)c1c(Cl)cccc1S(C)(=O)=O (protonated)
CN(C)c1cc2nc(C3CCCCC3)[n-]c2cc1[N-]C(=O)c1c(Cl)cccc1S(C)(=O)=O (3D coordinates assigned)
CN(C)c1cc2nc(C3CCCCC3)[n-]c2cc1[N-]C(=O)c1c(Cl)cccc1S(C)(=O)=O (nonaromatic ring conformer: 112.47692646215553 kcal/mol)

>  <smiles>  (80) 
CN(C)c1cc2nc(C3CCCCC3)[nH]c2cc1NC(=O)c1c(Cl)cccc1S(C)(=O)=O

>  <score_type>  (80) 
oracle

>  <origin>  (80) 
adg

>  <m_score__min__energy>  (80) 
-11.880000000000001

>  <m_primary>  (80) 
energy

$$$$
80:0
     RDKit          3D

 30 31  0  0  0  0  0  0  0  0999 V2000
   55.3800   28.6670   45.6300 H   0  0  0  0  0  0  0  0  0  0  0  0
   55.1450   29.3350   44.8620 N   0  0  0  0  0  0  0  0  0  0  0  0
   56.6010   29.6220   43.9780 S   0  0  0  0  0  0  0  0  0  0  0  0
   56.2660   30.1020   42.5940 O   0  0  0  0  0  0  0  0  0  0  0  0
   57.3700   28.3350   43.8710 O   0  0  0  0  0  0  0  0  0  0  0  0
   57.5670   30.8470   44.8080 C   0  0  0  0  0  0  0  0  0  0  0  0
   57.4050   32.2040   44.4840 C   0  0  0  0  0  0  0  0  0  0  0  0
   56.6779   32.4995   43.7133 H   0  0  0  0  0  0  0  0  0  0  0  0
   58.1630   33.1810   45.1360 C   0  0  0  0  0  0  0  0  0  0  0  0
   58.0331   34.2417   44.8753 H   0  0  0  0  0  0  0  0  0  0  0  0
   59.0850   32.8120   46.1180 C   0  0  0  0  0  0  0  0  0  0  0  0
   59.6761   33.5827   46.6343 H   0  0  0  0  0  0  0  0  0  0  0  0
   59.2570   31.4650   46.4450 C   0  0  0  0  0  0  0  0  0  0  0  0
   59.9765   31.1792   47.2265 H   0  0  0  0  0  0  0  0  0  0  0  0
   58.5170   30.4750   45.7820 C   0  0  0  0  0  0  0  0  0  0  0  0
   58.6940   29.0980   46.1380 N   0  0  0  0  0  0  0  0  0  0  0  0
   57.8630   28.4000   46.8550 C   0  0  0  0  0  0  0  0  0  0  0  0
   57.3386   28.8969   47.6845 H   0  0  0  0  0  0  0  0  0  0  0  0
   57.5850   26.9310   46.5980 C   0  0  0  0  0  0  0  0  0  0  0  0
   57.6554   26.4397   47.5797 H   0  0  0  0  0  0  0  0  0  0  0  0
   56.2520   26.7180   46.0360 N   0  0  0  0  0  0  0  0  0  0  0  0
   56.0540   27.4790   45.3430 H   0  0  0  0  0  0  0  0  0  0  0  0
   56.3700   25.4710   45.2900 C   0  0  0  0  0  0  0  0  0  0  0  0
   55.9194   24.6452   45.8602 H   0  0  0  0  0  0  0  0  0  0  0  0
   55.8464   25.5389   44.3250 H   0  0  0  0  0  0  0  0  0  0  0  0
   57.8550   25.2160   45.0860 C   0  0  0  0  0  0  0  0  0  0  0  0
   58.1498   24.2794   45.5820 H   0  0  0  0  0  0  0  0  0  0  0  0
   58.0951   25.1198   44.0168 H   0  0  0  0  0  0  0  0  0  0  0  0
   58.5630   26.3430   45.6810 N   0  0  0  0  0  0  0  0  0  0  0  0
   58.7570   27.0220   44.9060 H   0  0  0  0  0  0  0  0  0  0  0  0
  1  2  1  0
  2  3  1  0
  3  4  2  0
  3  5  2  0
  3  6  1  0
  6  7  2  0
  7  8  1  0
  7  9  1  0
  9 10  1  0
  9 11  2  0
 11 12  1  0
 11 13  1  0
 13 14  1  0
 13 15  2  0
 15 16  1  0
 16 17  2  0
 17 18  1  0
 17 19  1  0
 19 20  1  0
 19 21  1  0
 21 22  1  0
 21 23  1  0
 23 24  1  0
 23 25  1  0
 23 26  1  0
 26 27  1  0
 26 28  1  0
 26 29  1  0
 29 30  1  0
 15  6  1  0
 29 19  1  0
M  CHG  1   2  -1
M  END
>  <UniqueID>  (81) 
76

>  <SMILES>  (81) 
[NH-]S(=O)(=O)c1ccccc1/N=C\C1NCCN1

>  <Energy>  (81) 
37.52920789460985

>  <Genealogy>  (81) 
[NH-]S(=O)(=O)c1ccccc1N=CC1NCCN1 (protonated)
[NH-]S(=O)(=O)c1ccccc1/N=C\C1NCCN1 (cis-trans isomerization)
[NH-]S(=O)(=O)c1ccccc1/N=C\C1NCCN1 (3D coordinates assigned)
[NH-]S(=O)(=O)c1ccccc1/N=C\C1NCCN1 (nonaromatic ring conformer: 37.52920789460985 kcal/mol)

>  <smiles>  (81) 
NS(=O)(=O)c1ccccc1N=CC1NCCN1

>  <score_type>  (81) 
oracle

>  <origin>  (81) 
adg

>  <m_score__min__energy>  (81) 
-8.3900000000000006

>  <m_primary>  (81) 
energy

$$$$
81:0
     RDKit          3D

 33 34  0  0  0  0  0  0  0  0999 V2000
   55.5300   23.7220   47.0800 C   0  0  0  0  0  0  0  0  0  0  0  0
   56.6040   24.6210   46.6750 N   0  0  0  0  0  0  0  0  0  0  0  0
   56.3340   25.9480   46.1990 C   0  0  0  0  0  0  0  0  0  0  0  0
   55.1400   26.3020   45.9950 O   0  0  0  0  0  0  0  0  0  0  0  0
   57.4330   26.9060   45.9250 C   0  0  0  0  0  0  0  0  0  0  0  0
   58.7580   26.6190   46.2980 C   0  0  0  0  0  0  0  0  0  0  0  0
   59.7810   27.5290   46.0250 C   0  0  0  0  0  0  0  0  0  0  0  0
   59.4960   28.7420   45.3960 C   0  0  0  0  0  0  0  0  0  0  0  0
   58.1730   29.0630   45.0500 C   0  0  0  0  0  0  0  0  0  0  0  0
   57.8400   30.2910   44.3870 N   0  0  0  0  0  0  0  0  0  0  0  0
   56.6160   31.0170   44.5300 C   0  0  0  0  0  0  0  0  0  0  0  0
   55.5250   30.3940   44.4340 O   0  0  0  0  0  0  0  0  0  0  0  0
   56.6350   32.3750   44.8770 O   0  0  0  0  0  0  0  0  0  0  0  0
   57.6890   33.0320   45.5300 C   0  0  0  0  0  0  0  0  0  0  0  0
   58.1620   32.6290   46.7930 C   0  0  0  0  0  0  0  0  0  0  0  0
   59.2070   33.3260   47.4090 C   0  0  0  0  0  0  0  0  0  0  0  0
   59.7790   34.4330   46.7760 C   0  0  0  0  0  0  0  0  0  0  0  0
   59.3010   34.8500   45.5310 C   0  0  0  0  0  0  0  0  0  0  0  0
   58.2570   34.1550   44.9140 C   0  0  0  0  0  0  0  0  0  0  0  0
   57.1530   28.1360   45.3010 C   0  0  0  0  0  0  0  0  0  0  0  0
   55.4808   23.6808   48.1781 H   0  0  0  0  0  0  0  0  0  0  0  0
   54.5730   24.0922   46.6837 H   0  0  0  0  0  0  0  0  0  0  0  0
   55.7259   22.7147   46.6837 H   0  0  0  0  0  0  0  0  0  0  0  0
   57.5820   24.2560   46.6950 H   0  0  0  0  0  0  0  0  0  0  0  0
   58.9898   25.6722   46.8077 H   0  0  0  0  0  0  0  0  0  0  0  0
   60.8168   27.2888   46.3070 H   0  0  0  0  0  0  0  0  0  0  0  0
   60.3090   29.4479   45.1708 H   0  0  0  0  0  0  0  0  0  0  0  0
   57.7084   31.7631   47.2974 H   0  0  0  0  0  0  0  0  0  0  0  0
   59.5788   33.0025   48.3924 H   0  0  0  0  0  0  0  0  0  0  0  0
   60.6054   34.9760   47.2579 H   0  0  0  0  0  0  0  0  0  0  0  0
   59.7465   35.7256   45.0362 H   0  0  0  0  0  0  0  0  0  0  0  0
   57.8786   34.4921   43.9377 H   0  0  0  0  0  0  0  0  0  0  0  0
   56.1199   28.3726   45.0065 H   0  0  0  0  0  0  0  0  0  0  0  0
  1  2  1  0
  2  3  1  0
  3  4  2  0
  3  5  1  0
  5  6  2  0
  6  7  1  0
  7  8  2  0
  8  9  1  0
  9 10  1  0
 10 11  1  0
 11 12  2  0
 11 13  1  0
 13 14  1  0
 14 15  2  0
 15 16  1  0
 16 17  2  0
 17 18  1  0
 18 19  2  0
  9 20  2  0
 20  5  1  0
 19 14  1  0
  1 21  1  0
  1 22  1  0
  1 23  1  0
  2 24  1  0
  6 25  1  0
  7 26  1  0
  8 27  1  0
 15 28  1  0
 16 29  1  0
 17 30  1  0
 18 31  1  0
 19 32  1  0
 20 33  1  0
M  CHG  1  10  -1
M  END
>  <UniqueID>  (82) 
77

>  <SMILES>  (82) 
CNC(=O)c1cccc([N-]C(=O)Oc2ccccc2)c1

>  <Energy>  (82) 
40.36337954475425

>  <Genealogy>  (82) 
CNC(=O)c1cccc([N-]C(=O)Oc2ccccc2)c1 (protonated)
CNC(=O)c1cccc([N-]C(=O)Oc2ccccc2)c1 (3D coordinates assigned)
CNC(=O)c1cccc([N-]C(=O)Oc2ccccc2)c1 (optimized conformer: 40.36337954475425 kcal/mol)

>  <smiles>  (82) 
CNC(=O)c1cccc(NC(=O)Oc2ccccc2)c1

>  <score_type>  (82) 
oracle

>  <origin>  (82) 
adg

>  <m_score__min__energy>  (82) 
-8.9399999999999995

>  <m_primary>  (82) 
energy

$$$$
82:0
     RDKit          3D

 31 32  0  0  0  0  0  0  0  0999 V2000
   58.1480   32.6610   46.9920 C   0  0  0  0  0  0  0  0  0  0  0  0
   57.6300   32.9310   45.3130 S   0  0  0  0  0  0  0  0  0  0  0  0
   58.8370   33.2640   44.4820 O   0  0  0  0  0  0  0  0  0  0  0  0
   56.6480   34.0680   45.2820 O   0  0  0  0  0  0  0  0  0  0  0  0
   56.8820   31.4810   44.7240 N   0  0  0  0  0  0  0  0  0  0  0  0
   57.2220   30.1190   45.0370 C   0  0  0  0  0  0  0  0  0  0  0  0
   58.5810   29.8150   45.1810 C   0  0  0  0  0  0  0  0  0  0  0  0
   58.9950   28.5190   45.4890 C   0  0  0  0  0  0  0  0  0  0  0  0
   58.0540   27.5050   45.6550 C   0  0  0  0  0  0  0  0  0  0  0  0
   56.6850   27.7800   45.5020 C   0  0  0  0  0  0  0  0  0  0  0  0
   55.6960   26.7560   45.6910 N   0  0  0  0  0  0  0  0  0  0  0  0
   55.9390   25.4170   46.1440 C   0  0  0  0  0  0  0  0  0  0  0  0
   55.9630   25.1950   47.3840 O   0  0  0  0  0  0  0  0  0  0  0  0
   56.1080   24.2860   45.2020 C   0  0  0  0  0  0  0  0  0  0  0  0
   57.3840   23.8450   44.8150 C   0  0  0  0  0  0  0  0  0  0  0  0
   57.5180   22.7800   43.9210 C   0  0  0  0  0  0  0  0  0  0  0  0
   56.3710   22.1690   43.4080 C   0  0  0  0  0  0  0  0  0  0  0  0
   56.4740   21.2090   42.6010 O   0  0  0  0  0  0  0  0  0  0  0  0
   55.1420   22.6150   43.7770 N   0  0  0  0  0  0  0  0  0  0  0  0
   54.9850   23.6490   44.6470 C   0  0  0  0  0  0  0  0  0  0  0  0
   56.2660   29.0900   45.2170 C   0  0  0  0  0  0  0  0  0  0  0  0
   54.9030   29.3430   45.1220 O   0  0  0  0  0  0  0  0  0  0  0  0
   57.3862   33.0581   47.6791 H   0  0  0  0  0  0  0  0  0  0  0  0
   58.2740   31.5825   47.1679 H   0  0  0  0  0  0  0  0  0  0  0  0
   59.1043   33.1754   47.1679 H   0  0  0  0  0  0  0  0  0  0  0  0
   59.3318   30.6081   45.0496 H   0  0  0  0  0  0  0  0  0  0  0  0
   60.0665   28.2971   45.6010 H   0  0  0  0  0  0  0  0  0  0  0  0
   58.3840   26.4863   45.9066 H   0  0  0  0  0  0  0  0  0  0  0  0
   58.2805   24.3397   45.2170 H   0  0  0  0  0  0  0  0  0  0  0  0
   58.5163   22.4261   43.6240 H   0  0  0  0  0  0  0  0  0  0  0  0
   53.9741   23.9881   44.9174 H   0  0  0  0  0  0  0  0  0  0  0  0
  1  2  1  0
  2  3  2  0
  2  4  2  0
  2  5  1  0
  5  6  1  0
  6  7  2  0
  7  8  1  0
  8  9  2  0
  9 10  1  0
 10 11  1  0
 11 12  1  0
 12 13  2  0
 12 14  1  0
 14 15  1  0
 15 16  2  0
 16 17  1  0
 17 18  2  0
 17 19  1  0
 19 20  1  0
 10 21  2  0
 21 22  1  0
 21  6  1  0
 20 14  2  0
  1 23  1  0
  1 24  1  0
  1 25  1  0
  7 26  1  0
  8 27  1  0
  9 28  1  0
 15 29  1  0
 16 30  1  0
 20 31  1  0
M  CHG  4   5  -1  11  -1  19  -1  22  -1
M  END
>  <UniqueID>  (83) 
78

>  <SMILES>  (83) 
CS(=O)(=O)[N-]c1cccc([N-]C(=O)c2ccc(=O)[n-]c2)c1[O-]

>  <Energy>  (83) 
42.435872063603746

>  <Genealogy>  (83) 
CS(=O)(=O)[N-]c1cccc([N-]C(=O)c2ccc(=O)[n-]c2)c1[O-] (protonated)
CS(=O)(=O)[N-]c1cccc([N-]C(=O)c2ccc(=O)[n-]c2)c1[O-] (3D coordinates assigned)
CS(=O)(=O)[N-]c1cccc([N-]C(=O)c2ccc(=O)[n-]c2)c1[O-] (optimized conformer: 42.435872063603746 kcal/mol)

>  <smiles>  (83) 
CS(=O)(=O)Nc1cccc(NC(=O)c2ccc(=O)[nH]c2)c1O

>  <score_type>  (83) 
oracle

>  <origin>  (83) 
adg

>  <m_score__min__energy>  (83) 
-16.100000000000001

>  <m_primary>  (83) 
energy

$$$$
83:0
     RDKit          3D

 31 32  0  0  0  0  0  0  0  0999 V2000
   57.0300   34.2320   45.2340 C   0  0  0  0  0  0  0  0  0  0  0  0
   58.3210   33.7590   45.8100 C   0  0  0  0  0  0  0  0  0  0  0  0
   59.5410   34.3990   45.6950 C   0  0  0  0  0  0  0  0  0  0  0  0
   60.4190   33.5740   46.3670 C   0  0  0  0  0  0  0  0  0  0  0  0
   61.8750   33.8490   46.5860 C   0  0  0  0  0  0  0  0  0  0  0  0
   59.7370   32.5110   46.8480 N   0  0  0  0  0  0  0  0  0  0  0  0
   60.2530   31.4270   47.6840 C   0  0  0  0  0  0  0  0  0  0  0  0
   60.1720   30.0730   46.9660 C   0  0  0  0  0  0  0  0  0  0  0  0
   59.0490   30.0370   46.0250 N   0  0  0  0  0  0  0  0  0  0  0  0
   58.0520   28.9970   45.9820 C   0  0  0  0  0  0  0  0  0  0  0  0
   58.2390   27.7570   46.6150 C   0  0  0  0  0  0  0  0  0  0  0  0
   57.2620   26.8150   46.5750 N   0  0  0  0  0  0  0  0  0  0  0  0
   56.0950   27.0450   45.9200 C   0  0  0  0  0  0  0  0  0  0  0  0
   55.2020   26.1600   45.9010 O   0  0  0  0  0  0  0  0  0  0  0  0
   55.8930   28.2270   45.2860 N   0  0  0  0  0  0  0  0  0  0  0  0
   56.8410   29.2000   45.2980 C   0  0  0  0  0  0  0  0  0  0  0  0
   56.6140   30.2880   44.7040 O   0  0  0  0  0  0  0  0  0  0  0  0
   58.4620   32.6130   46.5030 N   0  0  0  0  0  0  0  0  0  0  0  0
   56.3362   34.4862   46.0489 H   0  0  0  0  0  0  0  0  0  0  0  0
   57.2096   35.1227   44.6141 H   0  0  0  0  0  0  0  0  0  0  0  0
   56.5916   33.4361   44.6141 H   0  0  0  0  0  0  0  0  0  0  0  0
   59.7611   35.3483   45.1847 H   0  0  0  0  0  0  0  0  0  0  0  0
   62.0824   33.8882   47.6656 H   0  0  0  0  0  0  0  0  0  0  0  0
   62.4726   33.0478   46.1266 H   0  0  0  0  0  0  0  0  0  0  0  0
   62.1392   34.8129   46.1266 H   0  0  0  0  0  0  0  0  0  0  0  0
   61.3037   31.6370   47.9326 H   0  0  0  0  0  0  0  0  0  0  0  0
   59.6378   31.3714   48.5942 H   0  0  0  0  0  0  0  0  0  0  0  0
   61.1081   29.9034   46.4138 H   0  0  0  0  0  0  0  0  0  0  0  0
   60.0185   29.2877   47.7208 H   0  0  0  0  0  0  0  0  0  0  0  0
   58.9070   30.8890   45.4360 H   0  0  0  0  0  0  0  0  0  0  0  0
   59.1801   27.5485   47.1449 H   0  0  0  0  0  0  0  0  0  0  0  0
  1  2  1  0
  2  3  1  0
  3  4  2  0
  4  5  1  0
  4  6  1  0
  6  7  1  0
  7  8  1  0
  8  9  1  0
  9 10  1  0
 10 11  2  0
 11 12  1  0
 12 13  1  0
 13 14  2  0
 13 15  1  0
 15 16  1  0
 16 17  2  0
  6 18  1  0
 18  2  2  0
 16 10  1  0
  1 19  1  0
  1 20  1  0
  1 21  1  0
  3 22  1  0
  5 23  1  0
  5 24  1  0
  5 25  1  0
  7 26  1  0
  7 27  1  0
  8 28  1  0
  8 29  1  0
  9 30  1  0
 11 31  1  0
M  CHG  2  12  -1  15  -1
M  END
>  <UniqueID>  (84) 
79

>  <SMILES>  (84) 
Cc1cc(C)n(CCNc2c[n-]c(=O)[n-]c2=O)n1

>  <Energy>  (84) 
56.712870119485395

>  <Genealogy>  (84) 
Cc1cc(C)n(CCNc2c[n-]c(=O)[n-]c2=O)n1 (protonated)
Cc1cc(C)n(CCNc2c[n-]c(=O)[n-]c2=O)n1 (3D coordinates assigned)
Cc1cc(C)n(CCNc2c[n-]c(=O)[n-]c2=O)n1 (optimized conformer: 56.712870119485395 kcal/mol)

>  <smiles>  (84) 
Cc1cc(C)n(CCNc2c[nH]c(=O)[nH]c2=O)n1

>  <score_type>  (84) 
oracle

>  <origin>  (84) 
adg

>  <m_score__min__energy>  (84) 
-10.48

>  <m_primary>  (84) 
energy

$$$$
84:0
     RDKit          3D

 34 36  0  0  0  0  0  0  0  0999 V2000
   57.5100   27.6630   44.7480 C   0  0  0  0  0  0  0  0  0  0  0  0
   56.9440   29.0280   44.5300 C   0  0  0  0  0  0  0  0  0  0  0  0
   55.9660   29.4160   45.2250 O   0  0  0  0  0  0  0  0  0  0  0  0
   57.5340   29.9000   43.5570 N   0  0  0  0  0  0  0  0  0  0  0  0
   57.0090   31.2350   43.2850 C   0  0  0  0  0  0  0  0  0  0  0  0
   57.6180   32.2050   44.1860 N   0  0  0  0  0  0  0  0  0  0  0  0
   58.4960   31.9440   45.1690 C   0  0  0  0  0  0  0  0  0  0  0  0
   58.8240   33.1680   45.7250 C   0  0  0  0  0  0  0  0  0  0  0  0
   59.7580   33.4360   46.8440 C   0  0  0  0  0  0  0  0  0  0  0  0
   59.3270   34.0960   48.0090 C   0  0  0  0  0  0  0  0  0  0  0  0
   60.2150   34.3430   49.0590 C   0  0  0  0  0  0  0  0  0  0  0  0
   61.5520   33.9350   48.9650 C   0  0  0  0  0  0  0  0  0  0  0  0
   62.4510   34.1790   50.0150 C   0  0  0  0  0  0  0  0  0  0  0  0
   63.7830   33.7660   49.9080 C   0  0  0  0  0  0  0  0  0  0  0  0
   64.2250   33.1100   48.7560 C   0  0  0  0  0  0  0  0  0  0  0  0
   63.3390   32.8620   47.7040 C   0  0  0  0  0  0  0  0  0  0  0  0
   62.0000   33.2710   47.7990 C   0  0  0  0  0  0  0  0  0  0  0  0
   61.1000   33.0260   46.7490 C   0  0  0  0  0  0  0  0  0  0  0  0
   58.1380   34.1240   45.0600 N   0  0  0  0  0  0  0  0  0  0  0  0
   57.4180   33.5110   44.1320 N   0  0  0  0  0  0  0  0  0  0  0  0
   57.5910   27.4677   45.8275 H   0  0  0  0  0  0  0  0  0  0  0  0
   56.8483   26.9140   44.2885 H   0  0  0  0  0  0  0  0  0  0  0  0
   58.5076   27.6020   44.2885 H   0  0  0  0  0  0  0  0  0  0  0  0
   58.3720   29.5740   43.0260 H   0  0  0  0  0  0  0  0  0  0  0  0
   57.2373   31.5109   42.2449 H   0  0  0  0  0  0  0  0  0  0  0  0
   55.9201   31.2326   43.4408 H   0  0  0  0  0  0  0  0  0  0  0  0
   58.8769   30.9572   45.4707 H   0  0  0  0  0  0  0  0  0  0  0  0
   58.2796   34.4211   48.0943 H   0  0  0  0  0  0  0  0  0  0  0  0
   59.8628   34.8602   49.9637 H   0  0  0  0  0  0  0  0  0  0  0  0
   62.1075   34.6957   50.9233 H   0  0  0  0  0  0  0  0  0  0  0  0
   64.4847   33.9581   50.7331 H   0  0  0  0  0  0  0  0  0  0  0  0
   65.2738   32.7877   48.6769 H   0  0  0  0  0  0  0  0  0  0  0  0
   63.6920   32.3450   46.7995 H   0  0  0  0  0  0  0  0  0  0  0  0
   61.4482   32.5082   45.8431 H   0  0  0  0  0  0  0  0  0  0  0  0
  1  2  1  0
  2  3  2  0
  2  4  1  0
  4  5  1  0
  5  6  1  0
  6  7  1  0
  7  8  2  0
  8  9  1  0
  9 10  2  0
 10 11  1  0
 11 12  2  0
 12 13  1  0
 13 14  2  0
 14 15  1  0
 15 16  2  0
 16 17  1  0
 17 18  2  0
  8 19  1  0
 19 20  2  0
 20  6  1  0
 18  9  1  0
 17 12  1  0
  1 21  1  0
  1 22  1  0
  1 23  1  0
  4 24  1  0
  5 25  1  0
  5 26  1  0
  7 27  1  0
 10 28  1  0
 11 29  1  0
 13 30  1  0
 14 31  1  0
 15 32  1  0
 16 33  1  0
 18 34  1  0
M  END
>  <UniqueID>  (85) 
80

>  <SMILES>  (85) 
CC(=O)NCn1cc(-c2ccc3ccccc3c2)nn1

>  <Energy>  (85) 
70.65111643417342

>  <Genealogy>  (85) 
CC(=O)NCn1cc(-c2ccc3ccccc3c2)nn1 (3D coordinates assigned)
CC(=O)NCn1cc(-c2ccc3ccccc3c2)nn1 (optimized conformer: 70.65111643417342 kcal/mol)

>  <smiles>  (85) 
CC(=O)NCn1cc(-c2ccc3ccccc3c2)nn1

>  <score_type>  (85) 
oracle

>  <origin>  (85) 
adg

>  <m_score__min__energy>  (85) 
-7.9299999999999997

>  <m_primary>  (85) 
energy

$$$$
85:0
     RDKit          3D

 46 48  0  0  0  0  0  0  0  0999 V2000
   55.1490   24.0850   45.2470 C   0  0  0  0  0  0  0  0  0  0  0  0
   56.5040   24.7320   45.6280 C   0  0  0  0  0  0  0  0  0  0  0  0
   57.1800   23.8350   46.6830 C   0  0  0  0  0  0  0  0  0  0  0  0
   57.3680   24.7850   44.3470 C   0  0  0  0  0  0  0  0  0  0  0  0
   56.2600   26.1290   46.2180 C   0  0  0  0  0  0  0  0  0  0  0  0
   55.1630   26.7040   45.9810 O   0  0  0  0  0  0  0  0  0  0  0  0
   57.1690   26.8140   47.0970 N   0  0  0  0  0  0  0  0  0  0  0  0
   58.3890   27.5390   46.7730 C   0  0  0  0  0  0  0  0  0  0  0  0
   58.0930   28.5720   45.7280 C   0  0  0  0  0  0  0  0  0  0  0  0
   57.1950   28.3720   44.7270 N   0  0  0  0  0  0  0  0  0  0  0  0
   57.2490   29.5020   44.0030 C   0  0  0  0  0  0  0  0  0  0  0  0
   56.5580   29.8360   42.8450 C   0  0  0  0  0  0  0  0  0  0  0  0
   56.8340   31.0930   42.2750 C   0  0  0  0  0  0  0  0  0  0  0  0
   57.7830   31.9500   42.8830 C   0  0  0  0  0  0  0  0  0  0  0  0
   58.4370   31.5660   44.0230 N   0  0  0  0  0  0  0  0  0  0  0  0
   58.1520   30.3530   44.5590 C   0  0  0  0  0  0  0  0  0  0  0  0
   58.6980   29.7940   45.6520 N   0  0  0  0  0  0  0  0  0  0  0  0
   59.7370   30.3610   46.5160 C   0  0  0  0  0  0  0  0  0  0  0  0
   59.5480   31.8460   46.6830 C   0  0  0  0  0  0  0  0  0  0  0  0
   58.2710   32.3800   46.9320 C   0  0  0  0  0  0  0  0  0  0  0  0
   58.1030   33.7590   47.0970 C   0  0  0  0  0  0  0  0  0  0  0  0
   59.2080   34.6120   47.0320 C   0  0  0  0  0  0  0  0  0  0  0  0
   60.4830   34.0870   46.8060 C   0  0  0  0  0  0  0  0  0  0  0  0
   60.6550   32.7090   46.6380 C   0  0  0  0  0  0  0  0  0  0  0  0
   54.5981   23.8220   46.1621 H   0  0  0  0  0  0  0  0  0  0  0  0
   54.5564   24.7973   44.6542 H   0  0  0  0  0  0  0  0  0  0  0  0
   55.3304   23.1763   44.6542 H   0  0  0  0  0  0  0  0  0  0  0  0
   56.9135   24.1886   47.6900 H   0  0  0  0  0  0  0  0  0  0  0  0
   56.8372   22.7975   46.5561 H   0  0  0  0  0  0  0  0  0  0  0  0
   58.2718   23.8786   46.5561 H   0  0  0  0  0  0  0  0  0  0  0  0
   58.4306   24.8502   44.6239 H   0  0  0  0  0  0  0  0  0  0  0  0
   57.1991   23.8748   43.7529 H   0  0  0  0  0  0  0  0  0  0  0  0
   57.0891   25.6677   43.7529 H   0  0  0  0  0  0  0  0  0  0  0  0
   58.7738   28.0323   47.6778 H   0  0  0  0  0  0  0  0  0  0  0  0
   59.1432   26.8356   46.3904 H   0  0  0  0  0  0  0  0  0  0  0  0
   56.6070   27.5260   44.5480 H   0  0  0  0  0  0  0  0  0  0  0  0
   55.8275   29.1485   42.3936 H   0  0  0  0  0  0  0  0  0  0  0  0
   56.3134   31.4090   41.3589 H   0  0  0  0  0  0  0  0  0  0  0  0
   57.9966   32.9321   42.4360 H   0  0  0  0  0  0  0  0  0  0  0  0
   59.6868   29.8786   47.5033 H   0  0  0  0  0  0  0  0  0  0  0  0
   60.7171   30.1824   46.0496 H   0  0  0  0  0  0  0  0  0  0  0  0
   57.4006   31.7105   46.9973 H   0  0  0  0  0  0  0  0  0  0  0  0
   57.0999   34.1724   47.2781 H   0  0  0  0  0  0  0  0  0  0  0  0
   59.0741   35.6964   47.1587 H   0  0  0  0  0  0  0  0  0  0  0  0
   61.3530   34.7585   46.7601 H   0  0  0  0  0  0  0  0  0  0  0  0
   61.6620   32.2994   46.4699 H   0  0  0  0  0  0  0  0  0  0  0  0
  1  2  1  0
  2  3  1  0
  2  4  1  0
  2  5  1  0
  5  6  2  0
  5  7  1  0
  7  8  1  0
  8  9  1  0
  9 10  2  0
 10 11  1  0
 11 12  2  0
 12 13  1  0
 13 14  2  0
 14 15  1  0
 15 16  2  0
 16 17  1  0
 17 18  1  0
 18 19  1  0
 19 20  2  0
 20 21  1  0
 21 22  2  0
 22 23  1  0
 23 24  2  0
 17  9  1  0
 24 19  1  0
 16 11  1  0
  1 25  1  0
  1 26  1  0
  1 27  1  0
  3 28  1  0
  3 29  1  0
  3 30  1  0
  4 31  1  0
  4 32  1  0
  4 33  1  0
  8 34  1  0
  8 35  1  0
 10 36  1  0
 12 37  1  0
 13 38  1  0
 14 39  1  0
 18 40  1  0
 18 41  1  0
 20 42  1  0
 21 43  1  0
 22 44  1  0
 23 45  1  0
 24 46  1  0
M  CHG  2   7  -1  10   1
M  END
>  <UniqueID>  (86) 
81

>  <SMILES>  (86) 
CC(C)(C)C(=O)[N-]Cc1[nH+]c2cccnc2n1Cc1ccccc1

>  <Energy>  (86) 
86.0786864027624

>  <Genealogy>  (86) 
CC(C)(C)C(=O)[N-]Cc1[nH+]c2cccnc2n1Cc1ccccc1 (protonated)
CC(C)(C)C(=O)[N-]Cc1[nH+]c2cccnc2n1Cc1ccccc1 (3D coordinates assigned)
CC(C)(C)C(=O)[N-]Cc1[nH+]c2cccnc2n1Cc1ccccc1 (optimized conformer: 86.0786864027624 kcal/mol)

>  <smiles>  (86) 
CC(C)(C)C(=O)NCc1nc2cccnc2n1Cc1ccccc1

>  <score_type>  (86) 
oracle

>  <origin>  (86) 
adg

>  <m_score__min__energy>  (86) 
-8.6500000000000004

>  <m_primary>  (86) 
energy

$$$$
86:0
     RDKit          3D

 50 54  0  0  0  0  0  0  0  0999 V2000
   56.1930   31.7500   44.8640 O   0  0  0  0  0  0  0  0  0  0  0  0
   57.4390   31.6230   45.0080 C   0  0  0  0  0  0  0  0  0  0  0  0
   58.0790   30.3200   44.6950 C   0  0  0  0  0  0  0  0  0  0  0  0
   57.3240   29.2820   44.1170 C   0  0  0  0  0  0  0  0  0  0  0  0
   57.9170   28.0490   43.8270 C   0  0  0  0  0  0  0  0  0  0  0  0
   59.2660   27.8350   44.1160 C   0  0  0  0  0  0  0  0  0  0  0  0
   60.0250   28.8520   44.6990 C   0  0  0  0  0  0  0  0  0  0  0  0
   59.4370   30.0870   44.9900 C   0  0  0  0  0  0  0  0  0  0  0  0
   58.2310   32.7910   45.4570 C   0  0  0  0  0  0  0  0  0  0  0  0
   58.4770   33.8270   44.5390 C   0  0  0  0  0  0  0  0  0  0  0  0
   59.2190   34.9480   44.9120 C   0  0  0  0  0  0  0  0  0  0  0  0
   59.7280   35.0490   46.2050 C   0  0  0  0  0  0  0  0  0  0  0  0
   59.4970   34.0300   47.1300 C   0  0  0  0  0  0  0  0  0  0  0  0
   58.7430   32.8950   46.7770 C   0  0  0  0  0  0  0  0  0  0  0  0
   58.5270   31.8170   47.8130 C   0  0  0  0  0  0  0  0  0  0  0  0
   60.0850   31.3860   48.6680 S   0  0  0  0  0  0  0  0  0  0  0  0
   59.9050   29.6190   48.4490 C   0  0  0  0  0  0  0  0  0  0  0  0
   60.6480   28.6950   49.0800 N   0  0  0  0  0  0  0  0  0  0  0  0
   60.2400   27.5080   48.6650 N   0  0  0  0  0  0  0  0  0  0  0  0
   59.2460   27.7560   47.7860 C   0  0  0  0  0  0  0  0  0  0  0  0
   58.4930   26.7130   47.0630 C   0  0  0  0  0  0  0  0  0  0  0  0
   59.1560   25.5710   46.5810 C   0  0  0  0  0  0  0  0  0  0  0  0
   58.4500   24.5790   45.8910 C   0  0  0  0  0  0  0  0  0  0  0  0
   57.0770   24.7230   45.6770 C   0  0  0  0  0  0  0  0  0  0  0  0
   56.4030   25.8440   46.1780 C   0  0  0  0  0  0  0  0  0  0  0  0
   57.1070   26.8440   46.8560 C   0  0  0  0  0  0  0  0  0  0  0  0
   55.0210   25.9450   45.9910 O   0  0  0  0  0  0  0  0  0  0  0  0
   54.2520   24.8220   45.5540 C   0  0  0  0  0  0  0  0  0  0  0  0
   55.0300   24.0210   44.5020 C   0  0  0  0  0  0  0  0  0  0  0  0
   56.3580   23.7600   44.9620 O   0  0  0  0  0  0  0  0  0  0  0  0
   59.0360   29.0490   47.6510 O   0  0  0  0  0  0  0  0  0  0  0  0
   56.2593   29.4419   43.8917 H   0  0  0  0  0  0  0  0  0  0  0  0
   57.3194   27.2463   43.3703 H   0  0  0  0  0  0  0  0  0  0  0  0
   59.7310   26.8654   43.8845 H   0  0  0  0  0  0  0  0  0  0  0  0
   61.0869   28.6814   44.9297 H   0  0  0  0  0  0  0  0  0  0  0  0
   60.0393   30.8827   45.4528 H   0  0  0  0  0  0  0  0  0  0  0  0
   58.0802   33.7529   43.5157 H   0  0  0  0  0  0  0  0  0  0  0  0
   59.4023   35.7527   44.1847 H   0  0  0  0  0  0  0  0  0  0  0  0
   60.3130   35.9335   46.4972 H   0  0  0  0  0  0  0  0  0  0  0  0
   59.9088   34.1147   48.1465 H   0  0  0  0  0  0  0  0  0  0  0  0
   57.7993   32.1759   48.5557 H   0  0  0  0  0  0  0  0  0  0  0  0
   58.1540   30.9173   47.3018 H   0  0  0  0  0  0  0  0  0  0  0  0
   61.4160   28.8610   49.7680 H   0  0  0  0  0  0  0  0  0  0  0  0
   60.2373   25.4563   46.7473 H   0  0  0  0  0  0  0  0  0  0  0  0
   58.9753   23.6875   45.5178 H   0  0  0  0  0  0  0  0  0  0  0  0
   56.5773   27.7335   47.2278 H   0  0  0  0  0  0  0  0  0  0  0  0
   54.0343   24.1739   46.4157 H   0  0  0  0  0  0  0  0  0  0  0  0
   53.3138   25.1828   45.1073 H   0  0  0  0  0  0  0  0  0  0  0  0
   54.5151   23.0665   44.3183 H   0  0  0  0  0  0  0  0  0  0  0  0
   55.0811   24.6057   43.5717 H   0  0  0  0  0  0  0  0  0  0  0  0
  1  2  2  0
  2  3  1  0
  3  4  2  0
  4  5  1  0
  5  6  2  0
  6  7  1  0
  7  8  2  0
  2  9  1  0
  9 10  2  0
 10 11  1  0
 11 12  2  0
 12 13  1  0
 13 14  2  0
 14 15  1  0
 15 16  1  0
 16 17  1  0
 17 18  2  0
 18 19  1  0
 19 20  2  0
 20 21  1  0
 21 22  2  0
 22 23  1  0
 23 24  2  0
 24 25  1  0
 25 26  2  0
 25 27  1  0
 27 28  1  0
 28 29  1  0
 29 30  1  0
 20 31  1  0
  8  3  1  0
 14  9  1  0
 31 17  1  0
 26 21  1  0
 30 24  1  0
  4 32  1  0
  5 33  1  0
  6 34  1  0
  7 35  1  0
  8 36  1  0
 10 37  1  0
 11 38  1  0
 12 39  1  0
 13 40  1  0
 15 41  1  0
 15 42  1  0
 18 43  1  0
 22 44  1  0
 23 45  1  0
 26 46  1  0
 28 47  1  0
 28 48  1  0
 29 49  1  0
 29 50  1  0
M  CHG  1  18   1
M  END
>  <UniqueID>  (87) 
82

>  <SMILES>  (87) 
O=C(c1ccccc1)c1ccccc1CSc1[nH+]nc(-c2ccc3c(c2)OCCO3)o1

>  <Energy>  (87) 
97.18859235220039

>  <Genealogy>  (87) 
O=C(c1ccccc1)c1ccccc1CSc1[nH+]nc(-c2ccc3c(c2)OCCO3)o1 (protonated)
O=C(c1ccccc1)c1ccccc1CSc1[nH+]nc(-c2ccc3c(c2)OCCO3)o1 (3D coordinates assigned)
O=C(c1ccccc1)c1ccccc1CSc1[nH+]nc(-c2ccc3c(c2)OCCO3)o1 (nonaromatic ring conformer: 97.18859235220039 kcal/mol)

>  <smiles>  (87) 
O=C(c1ccccc1)c1ccccc1CSc1nnc(-c2ccc3c(c2)OCCO3)o1

>  <score_type>  (87) 
oracle

>  <origin>  (87) 
adg

>  <m_score__min__energy>  (87) 
-8.5600000000000005

>  <m_primary>  (87) 
energy

$$$$
87:0
     RDKit          3D

 38 39  0  0  0  0  0  0  0  0999 V2000
   55.5110   28.9290   44.8820 N   0  0  0  0  0  0  0  0  0  0  0  0
   56.7480   30.0710   44.4990 S   0  0  0  0  0  0  0  0  0  0  0  0
   57.0550   30.0020   43.0290 O   0  0  0  0  0  0  0  0  0  0  0  0
   56.2720   31.4590   44.8270 O   0  0  0  0  0  0  0  0  0  0  0  0
   58.1960   29.7030   45.4310 C   0  0  0  0  0  0  0  0  0  0  0  0
   58.4230   28.4030   45.9010 C   0  0  0  0  0  0  0  0  0  0  0  0
   59.5680   28.1160   46.6470 C   0  0  0  0  0  0  0  0  0  0  0  0
   60.4870   29.1260   46.9380 C   0  0  0  0  0  0  0  0  0  0  0  0
   60.2580   30.4420   46.4970 C   0  0  0  0  0  0  0  0  0  0  0  0
   61.1900   31.4980   46.7830 N   0  0  0  0  0  0  0  0  0  0  0  0
   61.7430   31.7350   48.0850 C   0  0  0  0  0  0  0  0  0  0  0  0
   63.3110   32.1810   48.2180 S   0  0  0  0  0  0  0  0  0  0  0  0
   60.9360   31.6350   49.2690 N   0  0  0  0  0  0  0  0  0  0  0  0
   59.5370   32.0690   49.3020 C   0  0  0  0  0  0  0  0  0  0  0  0
   59.4170   33.5770   49.0520 C   0  0  0  0  0  0  0  0  0  0  0  0
   59.0580   33.8860   47.6230 C   0  0  0  0  0  0  0  0  0  0  0  0
   57.8090   33.5030   47.1050 C   0  0  0  0  0  0  0  0  0  0  0  0
   57.4690   33.8140   45.7850 C   0  0  0  0  0  0  0  0  0  0  0  0
   58.3690   34.5140   44.9760 C   0  0  0  0  0  0  0  0  0  0  0  0
   59.6100   34.9050   45.4870 C   0  0  0  0  0  0  0  0  0  0  0  0
   59.9540   34.5950   46.8060 C   0  0  0  0  0  0  0  0  0  0  0  0
   59.1160   30.7190   45.7310 C   0  0  0  0  0  0  0  0  0  0  0  0
   54.8590   29.3970   45.5520 H   0  0  0  0  0  0  0  0  0  0  0  0
   57.6972   27.6060   45.6818 H   0  0  0  0  0  0  0  0  0  0  0  0
   59.7464   27.0917   47.0062 H   0  0  0  0  0  0  0  0  0  0  0  0
   61.3940   28.8917   47.5146 H   0  0  0  0  0  0  0  0  0  0  0  0
   61.5250   32.0920   45.9910 H   0  0  0  0  0  0  0  0  0  0  0  0
   61.4280   31.5250   50.1840 H   0  0  0  0  0  0  0  0  0  0  0  0
   58.9761   31.5307   48.5237 H   0  0  0  0  0  0  0  0  0  0  0  0
   59.1277   31.8480   50.2988 H   0  0  0  0  0  0  0  0  0  0  0  0
   58.6359   33.9849   49.7104 H   0  0  0  0  0  0  0  0  0  0  0  0
   60.3948   34.0348   49.2628 H   0  0  0  0  0  0  0  0  0  0  0  0
   57.0964   32.9566   47.7403 H   0  0  0  0  0  0  0  0  0  0  0  0
   56.4922   33.5076   45.3825 H   0  0  0  0  0  0  0  0  0  0  0  0
   58.1006   34.7571   43.9373 H   0  0  0  0  0  0  0  0  0  0  0  0
   60.3168   35.4574   44.8504 H   0  0  0  0  0  0  0  0  0  0  0  0
   60.9301   34.9075   47.2056 H   0  0  0  0  0  0  0  0  0  0  0  0
   58.9404   31.7405   45.3627 H   0  0  0  0  0  0  0  0  0  0  0  0
  1  2  1  0
  2  3  2  0
  2  4  2  0
  2  5  1  0
  5  6  2  0
  6  7  1  0
  7  8  2  0
  8  9  1  0
  9 10  1  0
 10 11  1  0
 11 12  2  0
 11 13  1  0
 13 14  1  0
 14 15  1  0
 15 16  1  0
 16 17  2  0
 17 18  1  0
 18 19  2  0
 19 20  1  0
 20 21  2  0
  9 22  2  0
 22  5  1  0
 21 16  1  0
  1 23  1  0
  6 24  1  0
  7 25  1  0
  8 26  1  0
 10 27  1  0
 13 28  1  0
 14 29  1  0
 14 30  1  0
 15 31  1  0
 15 32  1  0
 17 33  1  0
 18 34  1  0
 19 35  1  0
 20 36  1  0
 21 37  1  0
 22 38  1  0
M  CHG  1   1  -1
M  END
>  <UniqueID>  (88) 
83

>  <SMILES>  (88) 
[NH-]S(=O)(=O)c1cccc(NC(=S)NCCc2ccccc2)c1

>  <Energy>  (88) 
39.126636103633246

>  <Genealogy>  (88) 
[NH-]S(=O)(=O)c1cccc(NC(=S)NCCc2ccccc2)c1 (protonated)
[NH-]S(=O)(=O)c1cccc(NC(=S)NCCc2ccccc2)c1 (3D coordinates assigned)
[NH-]S(=O)(=O)c1cccc(NC(=S)NCCc2ccccc2)c1 (optimized conformer: 39.126636103633246 kcal/mol)

>  <smiles>  (88) 
NS(=O)(=O)c1cccc(NC(=S)NCCc2ccccc2)c1

>  <score_type>  (88) 
oracle

>  <origin>  (88) 
adg

>  <m_score__min__energy>  (88) 
-10.99

>  <m_primary>  (88) 
energy

$$$$
88:0
     RDKit          3D

 63 66  0  0  0  0  0  0  0  0999 V2000
   66.4380   33.0700   49.7610 N   0  0  0  0  0  0  0  0  0  0  0  0
   66.4680   31.8040   50.9370 S   0  0  0  0  0  0  0  0  0  0  0  0
   67.4480   30.7420   50.5140 O   0  0  0  0  0  0  0  0  0  0  0  0
   66.9070   32.3800   52.2570 O   0  0  0  0  0  0  0  0  0  0  0  0
   64.8620   31.0920   51.0890 C   0  0  0  0  0  0  0  0  0  0  0  0
   64.6910   29.8070   51.6190 C   0  0  0  0  0  0  0  0  0  0  0  0
   63.4100   29.2580   51.7410 C   0  0  0  0  0  0  0  0  0  0  0  0
   62.2850   29.9950   51.3560 C   0  0  0  0  0  0  0  0  0  0  0  0
   60.9880   29.3910   51.4710 N   0  0  0  0  0  0  0  0  0  0  0  0
   60.2300   28.8010   50.4030 C   0  0  0  0  0  0  0  0  0  0  0  0
   59.2950   29.4650   49.8790 O   0  0  0  0  0  0  0  0  0  0  0  0
   60.5610   27.4730   49.8590 C   0  0  0  0  0  0  0  0  0  0  0  0
   60.6570   26.4810   50.6330 O   0  0  0  0  0  0  0  0  0  0  0  0
   60.8330   27.3360   48.4900 O   0  0  0  0  0  0  0  0  0  0  0  0
   60.0840   27.9350   47.4670 C   0  0  0  0  0  0  0  0  0  0  0  0
   58.6860   27.9100   47.5490 C   0  0  0  0  0  0  0  0  0  0  0  0
   57.9040   28.4920   46.5460 C   0  0  0  0  0  0  0  0  0  0  0  0
   58.5150   29.1000   45.4350 C   0  0  0  0  0  0  0  0  0  0  0  0
   57.7700   29.6740   44.3960 O   0  0  0  0  0  0  0  0  0  0  0  0
   57.0160   30.8530   44.5060 C   0  0  0  0  0  0  0  0  0  0  0  0
   55.8180   30.8870   44.1110 O   0  0  0  0  0  0  0  0  0  0  0  0
   57.5960   32.0080   45.1320 N   0  0  0  0  0  0  0  0  0  0  0  0
   59.0520   32.0850   45.2890 C   0  0  0  0  0  0  0  0  0  0  0  0
   59.4800   33.5150   45.6470 C   0  0  0  0  0  0  0  0  0  0  0  0
   58.7800   34.0360   46.8460 N   0  0  0  0  0  0  0  0  0  0  0  0
   59.5420   33.7360   48.0780 C   0  0  0  0  0  0  0  0  0  0  0  0
   60.8900   33.1360   47.7610 C   0  0  0  0  0  0  0  0  0  0  0  0
   61.9780   33.9670   47.4470 C   0  0  0  0  0  0  0  0  0  0  0  0
   63.2300   33.4090   47.1560 C   0  0  0  0  0  0  0  0  0  0  0  0
   63.4010   32.0220   47.1730 C   0  0  0  0  0  0  0  0  0  0  0  0
   62.3200   31.1870   47.4840 C   0  0  0  0  0  0  0  0  0  0  0  0
   61.0700   31.7410   47.7770 C   0  0  0  0  0  0  0  0  0  0  0  0
   57.3540   33.6110   46.9580 C   0  0  0  0  0  0  0  0  0  0  0  0
   56.7670   33.1040   45.6360 C   0  0  0  0  0  0  0  0  0  0  0  0
   59.9110   29.0930   45.3350 C   0  0  0  0  0  0  0  0  0  0  0  0
   60.6930   28.5210   46.3420 C   0  0  0  0  0  0  0  0  0  0  0  0
   62.4590   31.2760   50.8080 C   0  0  0  0  0  0  0  0  0  0  0  0
   63.7400   31.8210   50.6810 C   0  0  0  0  0  0  0  0  0  0  0  0
   67.0340   33.8460   50.1280 H   0  0  0  0  0  0  0  0  0  0  0  0
   66.9200   32.7060   48.9070 H   0  0  0  0  0  0  0  0  0  0  0  0
   65.5682   29.2265   51.9409 H   0  0  0  0  0  0  0  0  0  0  0  0
   63.2867   28.2411   52.1419 H   0  0  0  0  0  0  0  0  0  0  0  0
   58.1988   27.4285   48.4097 H   0  0  0  0  0  0  0  0  0  0  0  0
   56.8071   28.4740   46.6266 H   0  0  0  0  0  0  0  0  0  0  0  0
   59.3660   31.4016   46.0917 H   0  0  0  0  0  0  0  0  0  0  0  0
   59.5275   31.7989   44.3393 H   0  0  0  0  0  0  0  0  0  0  0  0
   60.5628   33.5207   45.8409 H   0  0  0  0  0  0  0  0  0  0  0  0
   59.2165   34.1640   44.7989 H   0  0  0  0  0  0  0  0  0  0  0  0
   59.6894   34.6681   48.6432 H   0  0  0  0  0  0  0  0  0  0  0  0
   58.9694   33.0064   48.6695 H   0  0  0  0  0  0  0  0  0  0  0  0
   61.8469   35.0590   47.4295 H   0  0  0  0  0  0  0  0  0  0  0  0
   64.0799   34.0639   46.9137 H   0  0  0  0  0  0  0  0  0  0  0  0
   64.3842   31.5861   46.9422 H   0  0  0  0  0  0  0  0  0  0  0  0
   62.4545   30.0953   47.4977 H   0  0  0  0  0  0  0  0  0  0  0  0
   60.2233   31.0827   48.0212 H   0  0  0  0  0  0  0  0  0  0  0  0
   57.2877   32.8034   47.7020 H   0  0  0  0  0  0  0  0  0  0  0  0
   56.7724   34.4964   47.2545 H   0  0  0  0  0  0  0  0  0  0  0  0
   55.7413   32.7432   45.8029 H   0  0  0  0  0  0  0  0  0  0  0  0
   56.7484   33.9223   44.9012 H   0  0  0  0  0  0  0  0  0  0  0  0
   60.3969   29.5417   44.4560 H   0  0  0  0  0  0  0  0  0  0  0  0
   61.7895   28.5289   46.2548 H   0  0  0  0  0  0  0  0  0  0  0  0
   61.5832   31.8534   50.4771 H   0  0  0  0  0  0  0  0  0  0  0  0
   63.8664   32.8285   50.2580 H   0  0  0  0  0  0  0  0  0  0  0  0
  1  2  1  0
  2  3  2  0
  2  4  2  0
  2  5  1  0
  5  6  2  0
  6  7  1  0
  7  8  2  0
  8  9  1  0
  9 10  1  0
 10 11  2  0
 10 12  1  0
 12 13  2  0
 12 14  1  0
 14 15  1  0
 15 16  2  0
 16 17  1  0
 17 18  2  0
 18 19  1  0
 19 20  1  0
 20 21  2  0
 20 22  1  0
 22 23  1  0
 23 24  1  0
 24 25  1  0
 25 26  1  0
 26 27  1  0
 27 28  2  0
 28 29  1  0
 29 30  2  0
 30 31  1  0
 31 32  2  0
 25 33  1  0
 33 34  1  0
 18 35  1  0
 35 36  2  0
  8 37  1  0
 37 38  2  0
 38  5  1  0
 36 15  1  0
 34 22  1  0
 32 27  1  0
  1 39  1  0
  1 40  1  0
  6 41  1  0
  7 42  1  0
 16 43  1  0
 17 44  1  0
 23 45  1  0
 23 46  1  0
 24 47  1  0
 24 48  1  0
 26 49  1  0
 26 50  1  0
 28 51  1  0
 29 52  1  0
 30 53  1  0
 31 54  1  0
 32 55  1  0
 33 56  1  0
 33 57  1  0
 34 58  1  0
 34 59  1  0
 35 60  1  0
 36 61  1  0
 37 62  1  0
 38 63  1  0
M  CHG  1   9  -1
M  END
>  <UniqueID>  (89) 
84

>  <SMILES>  (89) 
NS(=O)(=O)c1ccc([N-]C(=O)C(=O)Oc2ccc(OC(=O)N3CCN(Cc4ccccc4)CC3)cc2)cc1

>  <Energy>  (89) 
86.44911468940248

>  <Genealogy>  (89) 
NS(=O)(=O)c1ccc([N-]C(=O)C(=O)Oc2ccc(OC(=O)N3CCN(Cc4ccccc4)CC3)cc2)cc1 (protonated)
NS(=O)(=O)c1ccc([N-]C(=O)C(=O)Oc2ccc(OC(=O)N3CCN(Cc4ccccc4)CC3)cc2)cc1 (3D coordinates assigned)
NS(=O)(=O)c1ccc([N-]C(=O)C(=O)Oc2ccc(OC(=O)N3CCN(Cc4ccccc4)CC3)cc2)cc1 (nonaromatic ring conformer: 86.44911468940248 kcal/mol)

>  <smiles>  (89) 
NS(=O)(=O)c1ccc(NC(=O)C(=O)Oc2ccc(OC(=O)N3CCN(Cc4ccccc4)CC3)cc2)cc1

>  <score_type>  (89) 
oracle

>  <origin>  (89) 
adg

>  <m_score__min__energy>  (89) 
-10.83

>  <m_primary>  (89) 
energy

$$$$
89:0
     RDKit          3D

 32 34  0  0  0  0  0  0  0  0999 V2000
   58.1740   33.3030   47.0870 O   0  0  0  0  0  0  0  0  0  0  0  0
   58.9450   33.9090   46.2840 C   0  0  0  0  0  0  0  0  0  0  0  0
   58.4490   34.1880   44.9250 C   0  0  0  0  0  0  0  0  0  0  0  0
   57.9900   32.9800   44.2440 C   0  0  0  0  0  0  0  0  0  0  0  0
   57.8790   32.7220   42.9160 C   0  0  0  0  0  0  0  0  0  0  0  0
   57.4320   31.5420   42.4910 C   0  0  0  0  0  0  0  0  0  0  0  0
   57.0990   30.6240   43.5000 C   0  0  0  0  0  0  0  0  0  0  0  0
   57.4530   31.5230   45.0710 S   0  0  0  0  0  0  0  0  0  0  0  0
   60.2540   34.3210   46.6570 N   0  0  0  0  0  0  0  0  0  0  0  0
   60.6910   34.0270   47.9910 C   0  0  0  0  0  0  0  0  0  0  0  0
   59.7640   34.1430   49.0120 C   0  0  0  0  0  0  0  0  0  0  0  0
   60.1980   33.8560   50.3060 C   0  0  0  0  0  0  0  0  0  0  0  0
   61.4980   33.4700   50.5580 C   0  0  0  0  0  0  0  0  0  0  0  0
   62.3900   33.3670   49.5010 C   0  0  0  0  0  0  0  0  0  0  0  0
   63.7070   32.9860   49.6850 C   0  0  0  0  0  0  0  0  0  0  0  0
   64.1030   32.7230   50.8670 O   0  0  0  0  0  0  0  0  0  0  0  0
   64.5630   32.8920   48.6300 N   0  0  0  0  0  0  0  0  0  0  0  0
   64.1420   33.1670   47.4090 N   0  0  0  0  0  0  0  0  0  0  0  0
   62.8730   33.5480   47.1370 C   0  0  0  0  0  0  0  0  0  0  0  0
   62.4870   33.8050   45.9750 O   0  0  0  0  0  0  0  0  0  0  0  0
   61.9970   33.6450   48.1970 C   0  0  0  0  0  0  0  0  0  0  0  0
   57.6101   34.8963   44.9930 H   0  0  0  0  0  0  0  0  0  0  0  0
   59.2822   34.6073   44.3419 H   0  0  0  0  0  0  0  0  0  0  0  0
   58.1607   33.4941   42.1849 H   0  0  0  0  0  0  0  0  0  0  0  0
   57.3305   31.3026   41.4222 H   0  0  0  0  0  0  0  0  0  0  0  0
   56.7142   29.6005   43.3805 H   0  0  0  0  0  0  0  0  0  0  0  0
   60.8990   34.8240   46.0000 H   0  0  0  0  0  0  0  0  0  0  0  0
   58.7268   34.4492   48.8111 H   0  0  0  0  0  0  0  0  0  0  0  0
   59.4889   33.9392   51.1429 H   0  0  0  0  0  0  0  0  0  0  0  0
   61.8233   33.2466   51.5848 H   0  0  0  0  0  0  0  0  0  0  0  0
   65.5370   32.5980   48.8560 H   0  0  0  0  0  0  0  0  0  0  0  0
   64.8490   33.0770   46.6360 H   0  0  0  0  0  0  0  0  0  0  0  0
  1  2  2  0
  2  3  1  0
  3  4  1  0
  4  5  2  0
  5  6  1  0
  6  7  2  0
  7  8  1  0
  2  9  1  0
  9 10  1  0
 10 11  2  0
 11 12  1  0
 12 13  2  0
 13 14  1  0
 14 15  1  0
 15 16  2  0
 15 17  1  0
 17 18  1  0
 18 19  1  0
 19 20  2  0
 19 21  1  0
  8  4  1  0
 21 10  1  0
 21 14  2  0
  3 22  1  0
  3 23  1  0
  5 24  1  0
  6 25  1  0
  7 26  1  0
  9 27  1  0
 11 28  1  0
 12 29  1  0
 13 30  1  0
 17 31  1  0
 18 32  1  0
M  END
>  <smiles>  (90) 
O=C(Cc1cccs1)Nc1cccc2c(=O)[nH][nH]c(=O)c12

>  <score_type>  (90) 
oracle

>  <origin>  (90) 
adg

>  <m_score__min__energy>  (90) 
-7.2300000000000004

>  <m_primary>  (90) 
energy

$$$$
90:0
     RDKit          3D

 34 35  0  0  0  0  0  0  0  0999 V2000
   55.0100   24.1100   45.8530 C   0  0  0  0  0  0  0  0  0  0  0  0
   55.7930   25.0440   46.6480 N   0  0  0  0  0  0  0  0  0  0  0  0
   56.3180   26.2820   46.1560 C   0  0  0  0  0  0  0  0  0  0  0  0
   55.5320   27.1060   45.6220 O   0  0  0  0  0  0  0  0  0  0  0  0
   57.7190   26.5900   46.2440 N   0  0  0  0  0  0  0  0  0  0  0  0
   58.5120   26.4080   47.3130 C   0  0  0  0  0  0  0  0  0  0  0  0
   59.7650   26.8860   47.0030 C   0  0  0  0  0  0  0  0  0  0  0  0
   59.7650   27.3770   45.7480 N   0  0  0  0  0  0  0  0  0  0  0  0
   58.5010   27.1850   45.3140 C   0  0  0  0  0  0  0  0  0  0  0  0
   58.0400   27.6060   43.9470 C   0  0  0  0  0  0  0  0  0  0  0  0
   57.0750   28.7020   44.0430 N   0  0  0  0  0  0  0  0  0  0  0  0
   57.4280   30.0900   44.2100 C   0  0  0  0  0  0  0  0  0  0  0  0
   57.7710   30.5590   45.4870 C   0  0  0  0  0  0  0  0  0  0  0  0
   58.1180   31.8970   45.6860 C   0  0  0  0  0  0  0  0  0  0  0  0
   58.1190   32.7980   44.6040 C   0  0  0  0  0  0  0  0  0  0  0  0
   58.4600   34.1500   44.7510 O   0  0  0  0  0  0  0  0  0  0  0  0
   59.2580   34.6680   45.8100 C   0  0  0  0  0  0  0  0  0  0  0  0
   57.7660   32.3340   43.3330 C   0  0  0  0  0  0  0  0  0  0  0  0
   57.4200   30.9950   43.1330 C   0  0  0  0  0  0  0  0  0  0  0  0
   54.4487   23.4405   46.5213 H   0  0  0  0  0  0  0  0  0  0  0  0
   54.3064   24.6688   45.2184 H   0  0  0  0  0  0  0  0  0  0  0  0
   55.6830   23.5147   45.2184 H   0  0  0  0  0  0  0  0  0  0  0  0
   58.2121   25.9556   48.2698 H   0  0  0  0  0  0  0  0  0  0  0  0
   60.6341   26.8697   47.6771 H   0  0  0  0  0  0  0  0  0  0  0  0
   58.9082   27.9394   43.3596 H   0  0  0  0  0  0  0  0  0  0  0  0
   57.5551   26.7488   43.4570 H   0  0  0  0  0  0  0  0  0  0  0  0
   56.0610   28.4490   44.0230 H   0  0  0  0  0  0  0  0  0  0  0  0
   57.7666   29.8653   46.3407 H   0  0  0  0  0  0  0  0  0  0  0  0
   58.3916   32.2483   46.6918 H   0  0  0  0  0  0  0  0  0  0  0  0
   58.8164   34.3814   46.7758 H   0  0  0  0  0  0  0  0  0  0  0  0
   60.2761   34.2581   45.7362 H   0  0  0  0  0  0  0  0  0  0  0  0
   59.2981   35.7648   45.7362 H   0  0  0  0  0  0  0  0  0  0  0  0
   57.7606   33.0304   42.4816 H   0  0  0  0  0  0  0  0  0  0  0  0
   57.1398   30.6467   42.1279 H   0  0  0  0  0  0  0  0  0  0  0  0
  1  2  1  0
  2  3  1  0
  3  4  2  0
  3  5  1  0
  5  6  1  0
  6  7  2  0
  7  8  1  0
  8  9  2  0
  9 10  1  0
 10 11  1  0
 11 12  1  0
 12 13  2  0
 13 14  1  0
 14 15  2  0
 15 16  1  0
 16 17  1  0
 15 18  1  0
 18 19  2  0
  9  5  1  0
 19 12  1  0
  1 20  1  0
  1 21  1  0
  1 22  1  0
  6 23  1  0
  7 24  1  0
 10 25  1  0
 10 26  1  0
 11 27  1  0
 13 28  1  0
 14 29  1  0
 17 30  1  0
 17 31  1  0
 17 32  1  0
 18 33  1  0
 19 34  1  0
M  CHG  1   2  -1
M  END
>  <UniqueID>  (91) 
85

>  <SMILES>  (91) 
C[N-]C(=O)n1ccnc1CNc1ccc(OC)cc1

>  <Energy>  (91) 
64.71290991344183

>  <Genealogy>  (91) 
C[N-]C(=O)n1ccnc1CNc1ccc(OC)cc1 (protonated)
C[N-]C(=O)n1ccnc1CNc1ccc(OC)cc1 (3D coordinates assigned)
C[N-]C(=O)n1ccnc1CNc1ccc(OC)cc1 (optimized conformer: 64.71290991344183 kcal/mol)

>  <smiles>  (91) 
CNC(=O)n1ccnc1CNc1ccc(OC)cc1

>  <score_type>  (91) 
oracle

>  <origin>  (91) 
adg

>  <m_score__min__energy>  (91) 
-7.3799999999999999

>  <m_primary>  (91) 
energy

$$$$
91:0
     RDKit          3D

 54 57  0  0  0  0  0  0  0  0999 V2000
   54.0270   24.1220   45.2460 C   0  0  0  0  0  0  0  0  0  0  0  0
   55.4820   24.4510   45.4040 C   0  0  0  0  0  0  0  0  0  0  0  0
   56.4660   23.5010   45.0890 C   0  0  0  0  0  0  0  0  0  0  0  0
   57.8250   23.7960   45.2800 C   0  0  0  0  0  0  0  0  0  0  0  0
   58.8750   22.7930   44.9040 C   0  0  0  0  0  0  0  0  0  0  0  0
   58.1970   25.0590   45.7670 C   0  0  0  0  0  0  0  0  0  0  0  0
   57.2220   26.0120   46.0950 C   0  0  0  0  0  0  0  0  0  0  0  0
   57.6210   27.3380   46.6830 C   0  0  0  0  0  0  0  0  0  0  0  0
   58.7490   27.8990   45.9380 N   0  0  0  0  0  0  0  0  0  0  0  0
   59.9280   28.3050   46.4400 C   0  0  0  0  0  0  0  0  0  0  0  0
   60.7480   28.7410   45.4640 N   0  0  0  0  0  0  0  0  0  0  0  0
   60.0950   28.6130   44.3180 N   0  0  0  0  0  0  0  0  0  0  0  0
   58.8870   28.0930   44.6090 C   0  0  0  0  0  0  0  0  0  0  0  0
   57.8230   27.8550   43.5820 C   0  0  0  0  0  0  0  0  0  0  0  0
   57.0690   29.0810   43.3470 N   0  0  0  0  0  0  0  0  0  0  0  0
   56.5850   29.9250   44.3980 C   0  0  0  0  0  0  0  0  0  0  0  0
   55.4560   29.7000   44.9130 O   0  0  0  0  0  0  0  0  0  0  0  0
   57.4050   31.0630   44.8760 C   0  0  0  0  0  0  0  0  0  0  0  0
   58.0830   30.9890   46.1060 C   0  0  0  0  0  0  0  0  0  0  0  0
   58.8710   32.0570   46.5450 C   0  0  0  0  0  0  0  0  0  0  0  0
   58.9870   33.2190   45.7750 C   0  0  0  0  0  0  0  0  0  0  0  0
   59.8040   34.2590   46.2420 O   0  0  0  0  0  0  0  0  0  0  0  0
   60.9740   34.0960   46.9970 C   0  0  0  0  0  0  0  0  0  0  0  0
   60.9060   34.2510   48.3880 C   0  0  0  0  0  0  0  0  0  0  0  0
   62.0570   34.1160   49.1730 C   0  0  0  0  0  0  0  0  0  0  0  0
   63.2870   33.8350   48.5690 C   0  0  0  0  0  0  0  0  0  0  0  0
   63.3680   33.6980   47.1790 C   0  0  0  0  0  0  0  0  0  0  0  0
   62.2190   33.8310   46.3940 C   0  0  0  0  0  0  0  0  0  0  0  0
   58.3250   33.2920   44.5370 C   0  0  0  0  0  0  0  0  0  0  0  0
   57.5360   32.2250   44.0940 C   0  0  0  0  0  0  0  0  0  0  0  0
   55.8640   25.6960   45.9260 C   0  0  0  0  0  0  0  0  0  0  0  0
   53.5648   24.0175   46.2387 H   0  0  0  0  0  0  0  0  0  0  0  0
   53.5265   24.9297   44.6917 H   0  0  0  0  0  0  0  0  0  0  0  0
   53.9227   23.1776   44.6917 H   0  0  0  0  0  0  0  0  0  0  0  0
   56.1704   22.5194   44.6901 H   0  0  0  0  0  0  0  0  0  0  0  0
   59.3197   22.3682   45.8161 H   0  0  0  0  0  0  0  0  0  0  0  0
   58.4173   21.9881   44.3101 H   0  0  0  0  0  0  0  0  0  0  0  0
   59.6581   23.2871   44.3101 H   0  0  0  0  0  0  0  0  0  0  0  0
   59.2622   25.3031   45.8924 H   0  0  0  0  0  0  0  0  0  0  0  0
   56.7686   28.0312   46.6293 H   0  0  0  0  0  0  0  0  0  0  0  0
   57.9189   27.1920   47.7318 H   0  0  0  0  0  0  0  0  0  0  0  0
   60.1892   28.2840   47.5083 H   0  0  0  0  0  0  0  0  0  0  0  0
   58.2917   27.5303   42.6413 H   0  0  0  0  0  0  0  0  0  0  0  0
   57.1379   27.0759   43.9477 H   0  0  0  0  0  0  0  0  0  0  0  0
   57.9927   30.0852   46.7264 H   0  0  0  0  0  0  0  0  0  0  0  0
   59.4044   31.9829   47.5042 H   0  0  0  0  0  0  0  0  0  0  0  0
   59.9421   34.4802   48.8660 H   0  0  0  0  0  0  0  0  0  0  0  0
   61.9943   34.2309   50.2652 H   0  0  0  0  0  0  0  0  0  0  0  0
   64.1902   33.7218   49.1866 H   0  0  0  0  0  0  0  0  0  0  0  0
   64.3368   33.4854   46.7034 H   0  0  0  0  0  0  0  0  0  0  0  0
   62.2874   33.7283   45.3009 H   0  0  0  0  0  0  0  0  0  0  0  0
   58.4279   34.1924   43.9136 H   0  0  0  0  0  0  0  0  0  0  0  0
   57.0147   32.2951   43.1279 H   0  0  0  0  0  0  0  0  0  0  0  0
   55.0940   26.4303   46.2051 H   0  0  0  0  0  0  0  0  0  0  0  0
  1  2  1  0
  2  3  2  0
  3  4  1  0
  4  5  1  0
  4  6  2  0
  6  7  1  0
  7  8  1  0
  8  9  1  0
  9 10  1  0
 10 11  2  0
 11 12  1  0
 12 13  2  0
 13 14  1  0
 14 15  1  0
 15 16  1  0
 16 17  2  0
 16 18  1  0
 18 19  2  0
 19 20  1  0
 20 21  2  0
 21 22  1  0
 22 23  1  0
 23 24  2  0
 24 25  1  0
 25 26  2  0
 26 27  1  0
 27 28  2  0
 21 29  1  0
 29 30  2  0
  7 31  2  0
 31  2  1  0
 13  9  1  0
 30 18  1  0
 28 23  1  0
  1 32  1  0
  1 33  1  0
  1 34  1  0
  3 35  1  0
  5 36  1  0
  5 37  1  0
  5 38  1  0
  6 39  1  0
  8 40  1  0
  8 41  1  0
 10 42  1  0
 14 43  1  0
 14 44  1  0
 19 45  1  0
 20 46  1  0
 24 47  1  0
 25 48  1  0
 26 49  1  0
 27 50  1  0
 28 51  1  0
 29 52  1  0
 30 53  1  0
 31 54  1  0
M  CHG  1  15  -1
M  END
>  <UniqueID>  (92) 
86

>  <SMILES>  (92) 
Cc1cc(C)cc(Cn2cnnc2C[N-]C(=O)c2ccc(Oc3ccccc3)cc2)c1

>  <Energy>  (92) 
94.07599243656492

>  <Genealogy>  (92) 
Cc1cc(C)cc(Cn2cnnc2C[N-]C(=O)c2ccc(Oc3ccccc3)cc2)c1 (protonated)
Cc1cc(C)cc(Cn2cnnc2C[N-]C(=O)c2ccc(Oc3ccccc3)cc2)c1 (3D coordinates assigned)
Cc1cc(C)cc(Cn2cnnc2C[N-]C(=O)c2ccc(Oc3ccccc3)cc2)c1 (optimized conformer: 94.07599243656492 kcal/mol)

>  <smiles>  (92) 
Cc1cc(C)cc(Cn2cnnc2CNC(=O)c2ccc(Oc3ccccc3)cc2)c1

>  <score_type>  (92) 
oracle

>  <origin>  (92) 
adg

>  <m_score__min__energy>  (92) 
-10.390000000000001

>  <m_primary>  (92) 
energy

$$$$
92:0
     RDKit          3D

 44 46  0  0  0  0  0  0  0  0999 V2000
   59.9660   28.3710   45.4480 C   0  0  0  0  0  0  0  0  0  0  0  0
   58.8710   27.3560   45.6460 C   0  0  0  0  0  0  0  0  0  0  0  0
   59.2240   25.9970   45.7170 C   0  0  0  0  0  0  0  0  0  0  0  0
   58.2540   25.0190   45.9410 C   0  0  0  0  0  0  0  0  0  0  0  0
   56.9190   25.3820   46.0940 C   0  0  0  0  0  0  0  0  0  0  0  0
   56.5440   26.7240   46.0100 C   0  0  0  0  0  0  0  0  0  0  0  0
   57.5030   27.7270   45.7700 C   0  0  0  0  0  0  0  0  0  0  0  0
   57.0350   29.1320   45.6540 C   0  0  0  0  0  0  0  0  0  0  0  0
   57.5820   30.0300   46.3510 O   0  0  0  0  0  0  0  0  0  0  0  0
   55.9380   29.4710   44.7980 N   0  0  0  0  0  0  0  0  0  0  0  0
   56.0630   29.6470   43.3570 C   0  0  0  0  0  0  0  0  0  0  0  0
   56.7210   30.9560   43.0500 C   0  0  0  0  0  0  0  0  0  0  0  0
   56.8380   31.3270   41.8500 O   0  0  0  0  0  0  0  0  0  0  0  0
   57.2210   31.7730   44.1180 N   0  0  0  0  0  0  0  0  0  0  0  0
   57.8240   33.0880   43.9000 C   0  0  0  0  0  0  0  0  0  0  0  0
   58.0970   33.7900   45.2350 C   0  0  2  0  0  0  0  0  0  0  0  0
   59.4280   34.5700   45.2190 C   0  0  0  0  0  0  0  0  0  0  0  0
   59.7430   35.0360   46.5330 O   0  0  0  0  0  0  0  0  0  0  0  0
   59.5010   34.2410   47.6580 C   0  0  0  0  0  0  0  0  0  0  0  0
   60.0510   34.5710   48.9000 C   0  0  0  0  0  0  0  0  0  0  0  0
   59.8200   33.7430   50.0050 C   0  0  0  0  0  0  0  0  0  0  0  0
   59.0380   32.5900   49.8670 C   0  0  0  0  0  0  0  0  0  0  0  0
   58.4750   32.2670   48.6270 C   0  0  0  0  0  0  0  0  0  0  0  0
   58.6940   33.1020   47.5260 C   0  0  0  0  0  0  0  0  0  0  0  0
   58.1170   32.8170   46.2850 O   0  0  0  0  0  0  0  0  0  0  0  0
   60.3326   28.7108   46.4279 H   0  0  0  0  0  0  0  0  0  0  0  0
   60.7931   27.9131   44.8858 H   0  0  0  0  0  0  0  0  0  0  0  0
   59.5720   29.2305   44.8858 H   0  0  0  0  0  0  0  0  0  0  0  0
   60.2764   25.7013   45.5946 H   0  0  0  0  0  0  0  0  0  0  0  0
   58.5449   23.9596   45.9967 H   0  0  0  0  0  0  0  0  0  0  0  0
   56.1581   24.6100   46.2814 H   0  0  0  0  0  0  0  0  0  0  0  0
   55.4867   27.0014   46.1327 H   0  0  0  0  0  0  0  0  0  0  0  0
   56.6707   28.8291   42.9426 H   0  0  0  0  0  0  0  0  0  0  0  0
   55.0597   29.6358   42.9062 H   0  0  0  0  0  0  0  0  0  0  0  0
   57.0720   31.4590   45.1030 H   0  0  0  0  0  0  0  0  0  0  0  0
   58.7727   32.9642   43.3571 H   0  0  0  0  0  0  0  0  0  0  0  0
   57.1252   33.7035   43.3145 H   0  0  0  0  0  0  0  0  0  0  0  0
   57.2912   34.5191   45.4056 H   0  0  0  0  0  0  0  0  0  0  0  0
   60.2326   33.9084   44.8655 H   0  0  0  0  0  0  0  0  0  0  0  0
   59.3294   35.4343   44.5458 H   0  0  0  0  0  0  0  0  0  0  0  0
   60.6633   35.4783   49.0088 H   0  0  0  0  0  0  0  0  0  0  0  0
   60.2536   33.9987   50.9831 H   0  0  0  0  0  0  0  0  0  0  0  0
   58.8657   31.9366   50.7349 H   0  0  0  0  0  0  0  0  0  0  0  0
   57.8625   31.3598   48.5185 H   0  0  0  0  0  0  0  0  0  0  0  0
  1  2  1  0
  2  3  2  0
  3  4  1  0
  4  5  2  0
  5  6  1  0
  6  7  2  0
  7  8  1  0
  8  9  2  0
  8 10  1  0
 10 11  1  0
 11 12  1  0
 12 13  2  0
 12 14  1  0
 14 15  1  0
 15 16  1  0
 16 17  1  0
 17 18  1  0
 18 19  1  0
 19 20  2  0
 20 21  1  0
 21 22  2  0
 22 23  1  0
 23 24  2  0
 24 25  1  0
  7  2  1  0
 25 16  1  0
 24 19  1  0
  1 26  1  0
  1 27  1  0
  1 28  1  0
  3 29  1  0
  4 30  1  0
  5 31  1  0
  6 32  1  0
 11 33  1  0
 11 34  1  0
 14 35  1  0
 15 36  1  0
 15 37  1  0
 16 38  1  1
 17 39  1  0
 17 40  1  0
 20 41  1  0
 21 42  1  0
 22 43  1  0
 23 44  1  0
M  CHG  1  10  -1
M  END
>  <UniqueID>  (93) 
87

>  <SMILES>  (93) 
Cc1ccccc1C(=O)[N-]CC(=O)NC[C@@H]1COc2ccccc2O1

>  <Energy>  (93) 
45.42239539965817

>  <Genealogy>  (93) 
Cc1ccccc1C(=O)[N-]CC(=O)NCC1COc2ccccc2O1 (protonated)
Cc1ccccc1C(=O)[N-]CC(=O)NC[C@@H]1COc2ccccc2O1 (chirality)
Cc1ccccc1C(=O)[N-]CC(=O)NC[C@@H]1COc2ccccc2O1 (3D coordinates assigned)
Cc1ccccc1C(=O)[N-]CC(=O)NC[C@@H]1COc2ccccc2O1 (nonaromatic ring conformer: 45.42239539965817 kcal/mol)

>  <smiles>  (93) 
Cc1ccccc1C(=O)NCC(=O)NCC1COc2ccccc2O1

>  <score_type>  (93) 
oracle

>  <origin>  (93) 
adg

>  <m_score__min__energy>  (93) 
-10.640000000000001

>  <m_primary>  (93) 
energy

$$$$
93:0
     RDKit          3D

 53 55  0  0  0  0  0  0  0  0999 V2000
   66.5560   33.2190   50.4390 C   0  0  0  0  0  0  0  0  0  0  0  0
   65.8560   31.9050   50.5110 C   0  0  0  0  0  0  0  0  0  0  0  0
   66.5110   30.8650   50.7960 O   0  0  0  0  0  0  0  0  0  0  0  0
   64.4890   31.8360   50.2220 O   0  0  0  0  0  0  0  0  0  0  0  0
   63.5280   32.7340   50.7660 C   0  0  0  0  0  0  0  0  0  0  0  0
   63.2670   33.8610   49.8170 C   0  0  0  0  0  0  0  0  0  0  0  0
   62.9330   34.9900   50.2660 O   0  0  0  0  0  0  0  0  0  0  0  0
   63.3950   33.6380   48.4070 N   0  0  0  0  0  0  0  0  0  0  0  0
   62.4170   32.9650   47.5490 C   0  0  1  0  0  0  0  0  0  0  0  0
   62.4230   31.4450   47.7800 C   0  0  0  0  0  0  0  0  0  0  0  0
   61.5110   30.7220   46.7700 C   0  0  0  0  0  0  0  0  0  0  0  0
   60.2500   31.5380   46.3780 C   0  0  1  0  0  0  0  0  0  0  0  0
   59.1330   30.6350   46.0740 N   0  0  0  0  0  0  0  0  0  0  0  0
   58.1560   30.8400   45.1660 C   0  0  0  0  0  0  0  0  0  0  0  0
   57.3260   29.7360   45.1570 C   0  0  0  0  0  0  0  0  0  0  0  0
   56.2850   29.4900   44.1470 C   0  0  0  0  0  0  0  0  0  0  0  0
   56.6040   29.4690   42.7560 N   0  0  0  0  0  0  0  0  0  0  0  0
   55.0870   29.3580   44.5110 O   0  0  0  0  0  0  0  0  0  0  0  0
   57.8690   28.8940   46.1300 C   0  0  0  0  0  0  0  0  0  0  0  0
   57.4210   27.7440   46.5520 N   0  0  0  0  0  0  0  0  0  0  0  0
   57.1390   26.5750   45.7740 C   0  0  0  0  0  0  0  0  0  0  0  0
   56.0950   25.7270   46.1640 C   0  0  0  0  0  0  0  0  0  0  0  0
   55.7680   24.6080   45.3900 C   0  0  0  0  0  0  0  0  0  0  0  0
   56.4670   24.3470   44.2090 C   0  0  0  0  0  0  0  0  0  0  0  0
   56.1440   23.2660   43.4560 F   0  0  0  0  0  0  0  0  0  0  0  0
   57.4850   25.2090   43.7950 C   0  0  0  0  0  0  0  0  0  0  0  0
   57.8130   26.3280   44.5660 C   0  0  0  0  0  0  0  0  0  0  0  0
   58.9710   29.4580   46.6560 N   0  0  0  0  0  0  0  0  0  0  0  0
   59.8630   32.5650   47.4690 C   0  0  2  0  0  0  0  0  0  0  0  0
   58.6280   33.2800   47.1050 C   0  0  0  0  0  0  0  0  0  0  0  0
   57.6580   33.8400   46.8210 N   0  0  0  0  0  0  0  0  0  0  0  0
   61.0050   33.5810   47.7110 C   0  0  0  0  0  0  0  0  0  0  0  0
   66.7517   33.5864   51.4572 H   0  0  0  0  0  0  0  0  0  0  0  0
   67.5091   33.0979   49.9033 H   0  0  0  0  0  0  0  0  0  0  0  0
   65.9237   33.9424   49.9033 H   0  0  0  0  0  0  0  0  0  0  0  0
   62.5891   32.1913   50.9503 H   0  0  0  0  0  0  0  0  0  0  0  0
   63.9194   33.1458   51.7079 H   0  0  0  0  0  0  0  0  0  0  0  0
   62.7156   33.1286   46.5030 H   0  0  0  0  0  0  0  0  0  0  0  0
   63.4508   31.0695   47.6676 H   0  0  0  0  0  0  0  0  0  0  0  0
   62.0449   31.2462   48.7937 H   0  0  0  0  0  0  0  0  0  0  0  0
   62.0925   30.5206   45.8582 H   0  0  0  0  0  0  0  0  0  0  0  0
   61.1606   29.7987   47.2545 H   0  0  0  0  0  0  0  0  0  0  0  0
   60.4897   32.1139   45.4720 H   0  0  0  0  0  0  0  0  0  0  0  0
   58.0401   31.7359   44.5384 H   0  0  0  0  0  0  0  0  0  0  0  0
   55.8650   29.2550   42.0500 H   0  0  0  0  0  0  0  0  0  0  0  0
   57.5620   29.7190   42.4260 H   0  0  0  0  0  0  0  0  0  0  0  0
   55.5295   25.9415   47.0828 H   0  0  0  0  0  0  0  0  0  0  0  0
   54.9605   23.9338   45.7116 H   0  0  0  0  0  0  0  0  0  0  0  0
   58.0295   25.0071   42.8608 H   0  0  0  0  0  0  0  0  0  0  0  0
   58.6005   27.0168   44.2263 H   0  0  0  0  0  0  0  0  0  0  0  0
   59.6882   32.0055   48.3998 H   0  0  0  0  0  0  0  0  0  0  0  0
   60.8984   34.4046   46.9896 H   0  0  0  0  0  0  0  0  0  0  0  0
   60.9179   33.9277   48.7513 H   0  0  0  0  0  0  0  0  0  0  0  0
  1  2  1  0
  2  3  2  0
  2  4  1  0
  4  5  1  0
  5  6  1  0
  6  7  2  0
  6  8  1  0
  8  9  1  0
  9 10  1  0
 10 11  1  0
 11 12  1  0
 12 13  1  0
 13 14  1  0
 14 15  2  0
 15 16  1  0
 16 17  1  0
 16 18  2  0
 15 19  1  0
 19 20  2  3
 20 21  1  0
 21 22  2  0
 22 23  1  0
 23 24  2  0
 24 25  1  0
 24 26  1  0
 26 27  2  0
 19 28  1  0
 12 29  1  0
 29 30  1  0
 30 31  3  0
 29 32  1  0
 32  9  1  0
 28 13  1  0
 27 21  1  0
  1 33  1  0
  1 34  1  0
  1 35  1  0
  5 36  1  0
  5 37  1  0
  9 38  1  6
 10 39  1  0
 10 40  1  0
 11 41  1  0
 11 42  1  0
 12 43  1  6
 14 44  1  0
 17 45  1  0
 17 46  1  0
 22 47  1  0
 23 48  1  0
 26 49  1  0
 27 50  1  0
 29 51  1  1
 32 52  1  0
 32 53  1  0
M  CHG  2   8  -1  28  -1
M  END
>  <UniqueID>  (94) 
88

>  <SMILES>  (94) 
CC(=O)OCC(=O)[N-][C@H]1CC[C@@H](n2cc(C(N)=O)c(=Nc3ccc(F)cc3)[n-]2)C(C#N)C1

>  <Energy>  (94) 
96.17288271715518

>  <Genealogy>  (94) 
CC(=O)OCC(=O)[N-]C1CCC(n2cc(C(N)=O)c(=Nc3ccc(F)cc3)[n-]2)C(C#N)C1 (protonated)
CC(=O)OCC(=O)[N-][C@H]1CC[C@@H](n2cc(C(N)=O)c(=Nc3ccc(F)cc3)[n-]2)C(C#N)C1 (chirality)
CC(=O)OCC(=O)[N-][C@H]1CC[C@@H](n2cc(C(N)=O)c(=Nc3ccc(F)cc3)[n-]2)C(C#N)C1 (3D coordinates assigned)
CC(=O)OCC(=O)[N-][C@H]1CC[C@@H](n2cc(C(N)=O)c(=Nc3ccc(F)cc3)[n-]2)C(C#N)C1 (nonaromatic ring conformer: 96.17288271715518 kcal/mol)

>  <smiles>  (94) 
CC(=O)OCC(=O)NC1CCC(n2cc(C(N)=O)c(=Nc3ccc(F)cc3)[nH]2)C(C#N)C1

>  <score_type>  (94) 
oracle

>  <origin>  (94) 
adg

>  <m_score__min__energy>  (94) 
-10.550000000000001

>  <m_primary>  (94) 
energy

$$$$
94:0
     RDKit          3D

 46 48  0  0  1  0  0  0  0  0999 V2000
   62.6890   33.5310   46.6910 C   0  0  0  0  0  0  0  0  0  0  0  0
   61.8280   33.5370   47.8670 N   0  0  0  0  0  0  0  0  0  0  0  0
   62.4700   33.7050   49.1550 C   0  0  0  0  0  0  0  0  0  0  0  0
   60.4170   33.3880   47.7910 C   0  0  0  0  0  0  0  0  0  0  0  0
   59.7320   33.4030   48.8550 O   0  0  0  0  0  0  0  0  0  0  0  0
   59.6860   33.2140   46.5520 C   0  0  0  0  0  0  0  0  0  0  0  0
   59.5070   34.2470   45.6560 C   0  0  0  0  0  0  0  0  0  0  0  0
   58.8130   34.0740   44.4870 C   0  0  0  0  0  0  0  0  0  0  0  0
   58.2920   32.8170   44.2400 C   0  0  0  0  0  0  0  0  0  0  0  0
   58.4670   31.7620   45.1440 C   0  0  0  0  0  0  0  0  0  0  0  0
   57.9190   30.4340   44.8890 C   0  0  0  0  0  0  0  0  0  0  0  0
   57.3910   29.5990   45.8510 C   0  0  0  0  0  0  0  0  0  0  0  0
   56.9880   28.4420   45.1970 C   0  0  0  0  0  0  0  0  0  0  0  0
   56.4460   27.4070   45.7220 N   0  0  0  0  0  0  0  0  0  0  0  0
   56.9710   26.0870   45.6270 C   0  0  0  0  0  0  0  0  0  0  0  0
   57.2380   25.3040   46.7370 C   0  0  0  0  0  0  0  0  0  0  0  0
   57.7540   24.0110   46.5860 C   0  0  0  0  0  0  0  0  0  0  0  0
   58.0060   23.4910   45.3180 C   0  0  0  0  0  0  0  0  0  0  0  0
   58.6530   21.8690   45.1150 S   0  0  0  0  0  0  0  0  0  0  0  0
   60.3640   21.9730   45.2520 N   0  0  0  0  0  0  0  0  0  0  0  0
   58.2080   21.2970   43.8260 O   0  0  0  0  0  0  0  0  0  0  0  0
   58.1890   20.9970   46.2730 O   0  0  0  0  0  0  0  0  0  0  0  0
   57.7330   24.2890   44.2180 C   0  0  0  0  0  0  0  0  0  0  0  0
   57.2250   25.5640   44.3560 C   0  0  0  0  0  0  0  0  0  0  0  0
   57.2660   28.5860   43.8890 N   0  0  0  0  0  0  0  0  0  0  0  0
   57.8150   29.7660   43.7260 N   0  0  0  0  0  0  0  0  0  0  0  0
   59.1660   31.9380   46.3190 C   0  0  0  0  0  0  0  0  0  0  0  0
   63.7424   33.5237   47.0078 H   0  0  0  0  0  0  0  0  0  0  0  0
   62.4810   32.6343   46.0888 H   0  0  0  0  0  0  0  0  0  0  0  0
   62.4935   34.4305   46.0888 H   0  0  0  0  0  0  0  0  0  0  0  0
   61.7406   33.5141   49.9559 H   0  0  0  0  0  0  0  0  0  0  0  0
   63.3058   32.9953   49.2434 H   0  0  0  0  0  0  0  0  0  0  0  0
   62.8510   34.7331   49.2434 H   0  0  0  0  0  0  0  0  0  0  0  0
   59.9322   35.2352   45.8855 H   0  0  0  0  0  0  0  0  0  0  0  0
   58.6760   34.9008   43.7746 H   0  0  0  0  0  0  0  0  0  0  0  0
   57.7273   32.6419   43.3124 H   0  0  0  0  0  0  0  0  0  0  0  0
   57.3056   29.8086   46.9275 H   0  0  0  0  0  0  0  0  0  0  0  0
   57.0435   25.7003   47.7445 H   0  0  0  0  0  0  0  0  0  0  0  0
   57.9624   23.4001   47.4767 H   0  0  0  0  0  0  0  0  0  0  0  0
   60.8060   21.0440   45.3480 H   0  0  0  0  0  0  0  0  0  0  0  0
   60.7740   22.5920   44.5400 H   0  0  0  0  0  0  0  0  0  0  0  0
   57.9264   23.8955   43.2092 H   0  0  0  0  0  0  0  0  0  0  0  0
   57.0190   26.1714   43.4624 H   0  0  0  0  0  0  0  0  0  0  0  0
   57.0860   27.8940   43.1290 H   0  0  0  0  0  0  0  0  0  0  0  0
   58.1440   30.1700   42.8060 H   0  0  0  0  0  0  0  0  0  0  0  0
   59.3072   31.1162   47.0364 H   0  0  0  0  0  0  0  0  0  0  0  0
  1  2  1  0
  2  3  1  0
  2  4  1  0
  4  5  2  0
  4  6  1  0
  6  7  2  0
  7  8  1  0
  8  9  2  0
  9 10  1  0
 10 11  1  0
 11 12  2  0
 12 13  1  0
 13 14  2  0
 14 15  1  0
 15 16  2  0
 16 17  1  0
 17 18  2  0
 18 19  1  0
 19 20  1  0
 19 21  2  0
 19 22  2  0
 18 23  1  0
 23 24  2  0
 13 25  1  0
 25 26  1  0
 10 27  2  0
 27  6  1  0
 26 11  1  0
 24 15  1  0
  1 28  1  0
  1 29  1  0
  1 30  1  0
  3 31  1  0
  3 32  1  0
  3 33  1  0
  7 34  1  0
  8 35  1  0
  9 36  1  0
 12 37  1  0
 16 38  1  0
 17 39  1  0
 20 40  1  0
 20 41  1  0
 23 42  1  0
 24 43  1  0
 25 44  1  0
 26 45  1  0
 27 46  1  0
M  END
>  <smiles>  (95) 
CN(C)C(=O)c1cccc(-c2cc(=Nc3ccc(S(N)(=O)=O)cc3)[nH][nH]2)c1

>  <score_type>  (95) 
oracle

>  <origin>  (95) 
adg

>  <m_score__min__energy>  (95) 
-9.4100000000000001

>  <m_primary>  (95) 
energy

$$$$
