0:0
     RDKit          3D

 48 50  0  0  0  0  0  0  0  0999 V2000
   56.5543   33.4183   45.1442 H   0  0  0  0  0  0  0  0  0  0  0  0
   57.4600   33.8200   45.6220 C   0  0  0  0  0  0  0  0  0  0  0  0
   57.7160   33.6600   46.9470 N   0  0  0  0  0  0  0  0  0  0  0  0
   58.8840   34.2410   47.2970 C   0  0  0  0  0  0  0  0  0  0  0  0
   59.3700   34.2490   48.5030 N   0  0  0  0  0  0  0  0  0  0  0  0
   60.6020   33.6400   48.9280 C   0  0  0  0  0  0  0  0  0  0  0  0
   61.3360   34.2170   49.7770 O   0  0  0  0  0  0  0  0  0  0  0  0
   61.0200   32.3120   48.3010 C   0  0  0  0  0  0  0  0  0  0  0  0
   59.8220   31.7080   47.6730 N   0  0  0  0  0  0  0  0  0  0  0  0
   58.8890   32.1170   47.8990 H   0  0  0  0  0  0  0  0  0  0  0  0
   59.8340   30.5600   46.8010 C   0  0  0  0  0  0  0  0  0  0  0  0
   60.8580   29.8300   46.7190 O   0  0  0  0  0  0  0  0  0  0  0  0
   58.6430   30.2070   46.0030 C   0  0  0  0  0  0  0  0  0  0  0  0
   57.6310   29.3260   46.3490 C   0  0  0  0  0  0  0  0  0  0  0  0
   57.5551   28.7290   47.2698 H   0  0  0  0  0  0  0  0  0  0  0  0
   56.7400   29.3540   45.2990 C   0  0  0  0  0  0  0  0  0  0  0  0
   55.5670   28.6110   45.2370 O   0  0  0  0  0  0  0  0  0  0  0  0
   57.1490   30.2030   44.3360 N   0  0  0  0  0  0  0  0  0  0  0  0
   56.4590   30.4960   43.0730 C   0  0  0  0  0  0  0  0  0  0  0  0
   55.4667   30.9115   43.3023 H   0  0  0  0  0  0  0  0  0  0  0  0
   56.2600   29.2130   42.2620 C   0  0  0  0  0  0  0  0  0  0  0  0
   56.1281   28.3628   42.9473 H   0  0  0  0  0  0  0  0  0  0  0  0
   55.3669   29.3148   41.6280 H   0  0  0  0  0  0  0  0  0  0  0  0
   57.1420   29.0395   41.6280 H   0  0  0  0  0  0  0  0  0  0  0  0
   57.2360   31.5430   42.2670 C   0  0  0  0  0  0  0  0  0  0  0  0
   57.7468   32.2314   42.9563 H   0  0  0  0  0  0  0  0  0  0  0  0
   57.9806   31.0393   41.6331 H   0  0  0  0  0  0  0  0  0  0  0  0
   56.5381   32.1097   41.6331 H   0  0  0  0  0  0  0  0  0  0  0  0
   58.3170   30.7310   44.7620 C   0  0  0  0  0  0  0  0  0  0  0  0
   58.9188   31.4661   44.2075 H   0  0  0  0  0  0  0  0  0  0  0  0
   62.0850   32.6280   47.2140 C   0  0  0  0  0  0  0  0  0  0  0  0
   62.3452   31.6942   46.6941 H   0  0  0  0  0  0  0  0  0  0  0  0
   61.6492   33.3680   46.5267 H   0  0  0  0  0  0  0  0  0  0  0  0
   63.3720   33.2400   47.8030 C   0  0  0  0  0  0  0  0  0  0  0  0
   64.1968   33.0613   47.0974 H   0  0  0  0  0  0  0  0  0  0  0  0
   63.1788   34.3119   47.9571 H   0  0  0  0  0  0  0  0  0  0  0  0
   63.7650   32.6490   49.1730 C   0  0  0  0  0  0  0  0  0  0  0  0
   64.8599   32.5519   49.2147 H   0  0  0  0  0  0  0  0  0  0  0  0
   63.3903   33.3299   49.9515 H   0  0  0  0  0  0  0  0  0  0  0  0
   63.1400   31.2730   49.4170 C   0  0  0  0  0  0  0  0  0  0  0  0
   63.4963   30.5788   48.6417 H   0  0  0  0  0  0  0  0  0  0  0  0
   63.4399   30.9373   50.4207 H   0  0  0  0  0  0  0  0  0  0  0  0
   61.5990   31.3210   49.3720 C   0  0  0  0  0  0  0  0  0  0  0  0
   61.2284   30.3107   49.1440 H   0  0  0  0  0  0  0  0  0  0  0  0
   61.2640   31.6845   50.3547 H   0  0  0  0  0  0  0  0  0  0  0  0
   59.6410   34.9700   45.9880 S   0  0  0  0  0  0  0  0  0  0  0  0
   58.4250   34.5280   44.9130 C   0  0  0  0  0  0  0  0  0  0  0  0
   58.3977   34.7584   43.8378 H   0  0  0  0  0  0  0  0  0  0  0  0
  1  2  1  0
  2  3  1  0
  3  4  1  0
  4  5  2  0
  5  6  1  0
  6  7  2  0
  6  8  1  0
  8  9  1  0
  9 10  1  0
  9 11  1  0
 11 12  2  0
 11 13  1  0
 13 14  1  0
 14 15  1  0
 14 16  2  0
 16 17  1  0
 16 18  1  0
 18 19  1  0
 19 20  1  0
 19 21  1  0
 21 22  1  0
 21 23  1  0
 21 24  1  0
 19 25  1  0
 25 26  1  0
 25 27  1  0
 25 28  1  0
 18 29  1  0
 29 30  1  0
  8 31  1  0
 31 32  1  0
 31 33  1  0
 31 34  1  0
 34 35  1  0
 34 36  1  0
 34 37  1  0
 37 38  1  0
 37 39  1  0
 37 40  1  0
 40 41  1  0
 40 42  1  0
 40 43  1  0
 43 44  1  0
 43 45  1  0
  4 46  1  0
 46 47  1  0
 47 48  1  0
 47  2  2  0
 43  8  1  0
 29 13  2  0
M  CHG  2   3  -1  17  -1
M  END
>  <UniqueID>  (1) 
1

>  <SMILES>  (1) 
CC(C)n1cc(C(=O)NC2(C(=O)/N=c3\[n-]ccs3)CCCCC2)cc1[O-]

>  <Energy>  (1) 
111.50048957801009

>  <Genealogy>  (1) 
CC(C)n1cc(C(=O)NC2(C(=O)N=c3[n-]ccs3)CCCCC2)cc1[O-] (protonated)
CC(C)n1cc(C(=O)NC2(C(=O)/N=c3\[n-]ccs3)CCCCC2)cc1[O-] (cis-trans isomerization)
CC(C)n1cc(C(=O)NC2(C(=O)/N=c3\[n-]ccs3)CCCCC2)cc1[O-] (3D coordinates assigned)
CC(C)n1cc(C(=O)NC2(C(=O)/N=c3\[n-]ccs3)CCCCC2)cc1[O-] (nonaromatic ring conformer: 111.50048957801009 kcal/mol)

>  <smiles>  (1) 
CC(C)n1cc(C(=O)NC2(C(=O)N=c3[nH]ccs3)CCCCC2)cc1O

>  <score_type>  (1) 
oracle

>  <origin>  (1) 
adg

>  <m_score__min__energy>  (1) 
-11.890000000000001

>  <m_primary>  (1) 
energy

$$$$
1:0
     RDKit          3D

 45 47  0  0  0  0  0  0  0  0999 V2000
   56.5970   30.0680   42.6130 N   0  0  0  0  0  0  0  0  0  0  0  0
   56.2120   30.5050   43.9170 C   0  0  0  0  0  0  0  0  0  0  0  0
   55.1950   30.0010   44.4660 O   0  0  0  0  0  0  0  0  0  0  0  0
   56.9900   31.5350   44.6230 C   0  0  0  0  0  0  0  0  0  0  0  0
   58.3530   31.5170   44.8400 C   0  0  0  0  0  0  0  0  0  0  0  0
   58.5890   32.6850   45.5340 C   0  0  0  0  0  0  0  0  0  0  0  0
   59.9200   33.1620   46.0390 C   0  0  0  0  0  0  0  0  0  0  0  0
   60.4770   32.3350   47.2200 C   0  0  2  0  0  0  0  0  0  0  0  0
   61.9950   32.0980   47.1170 C   0  0  0  0  0  0  0  0  0  0  0  0
   62.5510   31.2400   48.2770 C   0  0  0  0  0  0  0  0  0  0  0  0
   61.4770   30.7340   49.2530 C   0  0  0  0  0  0  0  0  0  0  0  0
   60.3080   30.2130   48.5220 N   0  0  0  0  0  0  0  0  0  0  0  0
   59.6210   29.0050   48.9270 C   0  0  0  0  0  0  0  0  0  0  0  0
   58.8820   29.0260   49.9500 O   0  0  0  0  0  0  0  0  0  0  0  0
   59.7460   27.7060   48.1730 C   0  0  0  0  0  0  0  0  0  0  0  0
   58.9750   27.7290   46.8750 C   0  0  0  0  0  0  0  0  0  0  0  0
   59.6460   27.9530   45.6600 C   0  0  0  0  0  0  0  0  0  0  0  0
   58.9420   27.9470   44.4530 C   0  0  0  0  0  0  0  0  0  0  0  0
   57.5660   27.7070   44.4440 C   0  0  0  0  0  0  0  0  0  0  0  0
   56.8910   27.4630   45.6450 C   0  0  0  0  0  0  0  0  0  0  0  0
   55.5240   27.2180   45.6340 O   0  0  0  0  0  0  0  0  0  0  0  0
   57.5930   27.4650   46.8560 C   0  0  0  0  0  0  0  0  0  0  0  0
   59.7450   30.9920   47.4060 C   0  0  0  0  0  0  0  0  0  0  0  0
   57.4330   33.3530   45.7150 N   0  0  0  0  0  0  0  0  0  0  0  0
   56.4580   32.6510   45.1580 N   0  0  0  0  0  0  0  0  0  0  0  0
   57.4260   30.4820   42.1310 H   0  0  0  0  0  0  0  0  0  0  0  0
   56.0440   29.3320   42.1190 H   0  0  0  0  0  0  0  0  0  0  0  0
   59.0800   30.7511   44.5318 H   0  0  0  0  0  0  0  0  0  0  0  0
   60.6423   33.1124   45.2108 H   0  0  0  0  0  0  0  0  0  0  0  0
   59.7711   34.1868   46.4101 H   0  0  0  0  0  0  0  0  0  0  0  0
   60.2882   32.9508   48.1117 H   0  0  0  0  0  0  0  0  0  0  0  0
   62.2062   31.5838   46.1678 H   0  0  0  0  0  0  0  0  0  0  0  0
   62.4864   33.0808   47.1689 H   0  0  0  0  0  0  0  0  0  0  0  0
   63.0650   30.3680   47.8463 H   0  0  0  0  0  0  0  0  0  0  0  0
   63.2261   31.8876   48.8557 H   0  0  0  0  0  0  0  0  0  0  0  0
   61.9024   29.9305   49.8722 H   0  0  0  0  0  0  0  0  0  0  0  0
   61.1517   31.5735   49.8850 H   0  0  0  0  0  0  0  0  0  0  0  0
   60.8082   27.5244   47.9520 H   0  0  0  0  0  0  0  0  0  0  0  0
   59.3282   26.9063   48.8022 H   0  0  0  0  0  0  0  0  0  0  0  0
   60.7310   28.1339   45.6596 H   0  0  0  0  0  0  0  0  0  0  0  0
   59.4728   28.1318   43.5074 H   0  0  0  0  0  0  0  0  0  0  0  0
   57.0132   27.7098   43.4930 H   0  0  0  0  0  0  0  0  0  0  0  0
   57.0619   27.2593   47.7971 H   0  0  0  0  0  0  0  0  0  0  0  0
   59.8366   30.4052   46.4801 H   0  0  0  0  0  0  0  0  0  0  0  0
   58.6907   31.2058   47.6355 H   0  0  0  0  0  0  0  0  0  0  0  0
  1  2  1  0
  2  3  2  0
  2  4  1  0
  4  5  2  0
  5  6  1  0
  6  7  1  0
  7  8  1  0
  8  9  1  0
  9 10  1  0
 10 11  1  0
 11 12  1  0
 12 13  1  0
 13 14  2  0
 13 15  1  0
 15 16  1  0
 16 17  2  0
 17 18  1  0
 18 19  2  0
 19 20  1  0
 20 21  1  0
 20 22  2  0
 12 23  1  0
  6 24  2  0
 24 25  1  0
 25  4  1  0
 23  8  1  0
 22 16  1  0
  1 26  1  0
  1 27  1  0
  5 28  1  0
  7 29  1  0
  7 30  1  0
  8 31  1  1
  9 32  1  0
  9 33  1  0
 10 34  1  0
 10 35  1  0
 11 36  1  0
 11 37  1  0
 15 38  1  0
 15 39  1  0
 17 40  1  0
 18 41  1  0
 19 42  1  0
 22 43  1  0
 23 44  1  0
 23 45  1  0
M  CHG  2  21  -1  25  -1
M  END
>  <UniqueID>  (2) 
2

>  <SMILES>  (2) 
NC(=O)c1cc(C[C@@H]2CCCN(C(=O)Cc3cccc([O-])c3)C2)n[n-]1

>  <Energy>  (2) 
74.11903781093088

>  <Genealogy>  (2) 
NC(=O)c1cc(CC2CCCN(C(=O)Cc3cccc([O-])c3)C2)n[n-]1 (protonated)
NC(=O)c1cc(C[C@@H]2CCCN(C(=O)Cc3cccc([O-])c3)C2)n[n-]1 (chirality)
NC(=O)c1cc(C[C@@H]2CCCN(C(=O)Cc3cccc([O-])c3)C2)n[n-]1 (3D coordinates assigned)
NC(=O)c1cc(C[C@@H]2CCCN(C(=O)Cc3cccc([O-])c3)C2)n[n-]1 (nonaromatic ring conformer: 74.11903781093088 kcal/mol)

>  <smiles>  (2) 
NC(=O)c1cc(CC2CCCN(C(=O)Cc3cccc(O)c3)C2)n[nH]1

>  <score_type>  (2) 
oracle

>  <origin>  (2) 
adg

>  <m_score__min__energy>  (2) 
-13.630000000000001

>  <m_primary>  (2) 
energy

$$$$
2:0
     RDKit          3D

 69 73  0  0  0  0  0  0  0  0999 V2000
   60.8280   33.5290   52.5600 C   0  0  0  0  0  0  0  0  0  0  0  0
   59.4630   33.0020   52.7380 N   0  0  0  0  0  0  0  0  0  0  0  0
   58.5560   33.3760   51.6470 C   0  0  0  0  0  0  0  0  0  0  0  0
   58.9410   32.7420   50.3040 C   0  0  0  0  0  0  0  0  0  0  0  0
   59.4620   31.3610   50.3960 N   0  0  0  0  0  0  0  0  0  0  0  0
   59.7640   30.6360   49.1600 C   0  0  0  0  0  0  0  0  0  0  0  0
   58.9660   29.5470   48.7290 C   0  0  0  0  0  0  0  0  0  0  0  0
   59.2450   28.8670   47.5380 C   0  0  0  0  0  0  0  0  0  0  0  0
   60.3330   29.2470   46.7410 C   0  0  0  0  0  0  0  0  0  0  0  0
   60.6100   28.5500   45.4660 C   0  0  0  0  0  0  0  0  0  0  0  0
   61.2520   29.1440   44.5580 O   0  0  0  0  0  0  0  0  0  0  0  0
   60.2190   27.1850   45.2610 N   0  0  0  0  0  0  0  0  0  0  0  0
   59.0710   26.5620   45.8540 C   0  0  0  0  0  0  0  0  0  0  0  0
   59.2340   25.4890   46.7490 C   0  0  0  0  0  0  0  0  0  0  0  0
   58.1240   24.8650   47.3190 C   0  0  0  0  0  0  0  0  0  0  0  0
   56.8390   25.2930   46.9930 C   0  0  0  0  0  0  0  0  0  0  0  0
   56.6530   26.3620   46.1120 C   0  0  0  0  0  0  0  0  0  0  0  0
   55.3490   26.7540   45.8070 O   0  0  0  0  0  0  0  0  0  0  0  0
   57.7680   27.0230   45.5530 C   0  0  0  0  0  0  0  0  0  0  0  0
   57.5360   28.0880   44.6140 N   0  0  0  0  0  0  0  0  0  0  0  0
   56.7820   29.2890   44.8240 C   0  0  0  0  0  0  0  0  0  0  0  0
   55.5650   29.1860   45.1270 O   0  0  0  0  0  0  0  0  0  0  0  0
   57.4000   30.6350   44.7670 C   0  0  0  0  0  0  0  0  0  0  0  0
   57.5540   31.2780   43.5280 C   0  0  0  0  0  0  0  0  0  0  0  0
   58.0980   32.5620   43.4570 C   0  0  0  0  0  0  0  0  0  0  0  0
   58.4890   33.2190   44.6240 C   0  0  0  0  0  0  0  0  0  0  0  0
   58.3280   32.5990   45.8730 C   0  0  0  0  0  0  0  0  0  0  0  0
   58.7490   33.2450   47.0850 N   0  0  0  0  0  0  0  0  0  0  0  0
   59.7060   34.3100   47.1640 C   0  0  0  0  0  0  0  0  0  0  0  0
   59.3240   35.4880   46.9340 O   0  0  0  0  0  0  0  0  0  0  0  0
   61.1290   34.0580   47.4930 C   0  0  0  0  0  0  0  0  0  0  0  0
   62.0280   33.6660   46.4830 C   0  0  0  0  0  0  0  0  0  0  0  0
   63.3720   33.4200   46.7930 C   0  0  0  0  0  0  0  0  0  0  0  0
   63.8260   33.5540   48.1100 C   0  0  0  0  0  0  0  0  0  0  0  0
   62.9360   33.9310   49.1210 C   0  0  0  0  0  0  0  0  0  0  0  0
   61.5940   34.1810   48.8150 C   0  0  0  0  0  0  0  0  0  0  0  0
   57.8000   31.3030   45.9380 C   0  0  0  0  0  0  0  0  0  0  0  0
   61.1320   30.3230   47.1510 C   0  0  0  0  0  0  0  0  0  0  0  0
   60.8550   31.0060   48.3370 C   0  0  0  0  0  0  0  0  0  0  0  0
   59.8640   30.7620   51.6900 C   0  0  0  0  0  0  0  0  0  0  0  0
   59.4310   31.5490   52.9340 C   0  0  0  0  0  0  0  0  0  0  0  0
   61.2844   33.7052   53.5452 H   0  0  0  0  0  0  0  0  0  0  0  0
   61.4326   32.7997   52.0010 H   0  0  0  0  0  0  0  0  0  0  0  0
   60.7857   34.4754   52.0010 H   0  0  0  0  0  0  0  0  0  0  0  0
   57.5387   33.0504   51.9096 H   0  0  0  0  0  0  0  0  0  0  0  0
   58.6191   34.4675   51.5259 H   0  0  0  0  0  0  0  0  0  0  0  0
   58.0469   32.7283   49.6634 H   0  0  0  0  0  0  0  0  0  0  0  0
   59.7585   33.3545   49.8959 H   0  0  0  0  0  0  0  0  0  0  0  0
   58.1101   29.2298   49.3429 H   0  0  0  0  0  0  0  0  0  0  0  0
   58.6056   28.0283   47.2254 H   0  0  0  0  0  0  0  0  0  0  0  0
   60.2457   25.1388   47.0017 H   0  0  0  0  0  0  0  0  0  0  0  0
   58.2636   24.0343   48.0265 H   0  0  0  0  0  0  0  0  0  0  0  0
   55.9661   24.7870   47.4312 H   0  0  0  0  0  0  0  0  0  0  0  0
   55.1410   27.5750   45.2520 H   0  0  0  0  0  0  0  0  0  0  0  0
   57.2434   30.7657   42.6055 H   0  0  0  0  0  0  0  0  0  0  0  0
   58.2182   33.0554   42.4812 H   0  0  0  0  0  0  0  0  0  0  0  0
   58.9253   34.2271   44.5651 H   0  0  0  0  0  0  0  0  0  0  0  0
   61.6743   33.5525   45.4476 H   0  0  0  0  0  0  0  0  0  0  0  0
   64.0722   33.1208   45.9992 H   0  0  0  0  0  0  0  0  0  0  0  0
   64.8824   33.3629   48.3500 H   0  0  0  0  0  0  0  0  0  0  0  0
   63.2914   34.0310   50.1572 H   0  0  0  0  0  0  0  0  0  0  0  0
   60.8975   34.4758   49.6137 H   0  0  0  0  0  0  0  0  0  0  0  0
   57.6975   30.8039   46.9129 H   0  0  0  0  0  0  0  0  0  0  0  0
   61.9867   30.6329   46.5317 H   0  0  0  0  0  0  0  0  0  0  0  0
   61.4966   31.8474   48.6376 H   0  0  0  0  0  0  0  0  0  0  0  0
   59.4222   29.7565   51.7520 H   0  0  0  0  0  0  0  0  0  0  0  0
   60.9640   30.7583   51.6973 H   0  0  0  0  0  0  0  0  0  0  0  0
   58.4039   31.2538   53.1945 H   0  0  0  0  0  0  0  0  0  0  0  0
   60.1451   31.3114   53.7363 H   0  0  0  0  0  0  0  0  0  0  0  0
  1  2  1  0
  2  3  1  0
  3  4  1  0
  4  5  1  0
  5  6  1  0
  6  7  2  0
  7  8  1  0
  8  9  2  0
  9 10  1  0
 10 11  2  0
 10 12  1  0
 12 13  1  0
 13 14  2  0
 14 15  1  0
 15 16  2  0
 16 17  1  0
 17 18  1  0
 17 19  2  0
 19 20  1  0
 20 21  1  0
 21 22  2  0
 21 23  1  0
 23 24  2  0
 24 25  1  0
 25 26  2  0
 26 27  1  0
 27 28  1  0
 28 29  1  0
 29 30  2  0
 29 31  1  0
 31 32  2  0
 32 33  1  0
 33 34  2  0
 34 35  1  0
 35 36  2  0
 27 37  2  0
  9 38  1  0
 38 39  2  0
  5 40  1  0
 40 41  1  0
 41  2  1  0
 39  6  1  0
 19 13  1  0
 37 23  1  0
 36 31  1  0
  1 42  1  0
  1 43  1  0
  1 44  1  0
  3 45  1  0
  3 46  1  0
  4 47  1  0
  4 48  1  0
  7 49  1  0
  8 50  1  0
 14 51  1  0
 15 52  1  0
 16 53  1  0
 18 54  1  0
 24 55  1  0
 25 56  1  0
 26 57  1  0
 32 58  1  0
 33 59  1  0
 34 60  1  0
 35 61  1  0
 36 62  1  0
 37 63  1  0
 38 64  1  0
 39 65  1  0
 40 66  1  0
 40 67  1  0
 41 68  1  0
 41 69  1  0
M  CHG  3  12  -1  20  -1  28  -1
M  END
>  <UniqueID>  (3) 
3

>  <SMILES>  (3) 
CN1CCN(c2ccc(C(=O)[N-]c3cccc(O)c3[N-]C(=O)c3cccc([N-]C(=O)c4ccccc4)c3)cc2)CC1

>  <Energy>  (3) 
109.09066798477319

>  <Genealogy>  (3) 
CN1CCN(c2ccc(C(=O)[N-]c3cccc(O)c3[N-]C(=O)c3cccc([N-]C(=O)c4ccccc4)c3)cc2)CC1 (protonated)
CN1CCN(c2ccc(C(=O)[N-]c3cccc(O)c3[N-]C(=O)c3cccc([N-]C(=O)c4ccccc4)c3)cc2)CC1 (3D coordinates assigned)
CN1CCN(c2ccc(C(=O)[N-]c3cccc(O)c3[N-]C(=O)c3cccc([N-]C(=O)c4ccccc4)c3)cc2)CC1 (nonaromatic ring conformer: 109.09066798477319 kcal/mol)

>  <smiles>  (3) 
CN1CCN(c2ccc(C(=O)Nc3cccc(O)c3NC(=O)c3cccc(NC(=O)c4ccccc4)c3)cc2)CC1

>  <score_type>  (3) 
oracle

>  <origin>  (3) 
adg

>  <m_score__min__energy>  (3) 
-15.359999999999999

>  <m_primary>  (3) 
energy

$$$$
3:0
     RDKit          3D

 41 43  0  0  0  0  0  0  0  0999 V2000
   60.1590   26.3060   47.2650 C   0  0  0  0  0  0  0  0  0  0  0  0
   59.1280   26.1930   46.4220 C   0  0  0  0  0  0  0  0  0  0  0  0
   58.8850   25.0920   45.6210 C   0  0  0  0  0  0  0  0  0  0  0  0
   57.7310   25.3800   44.9190 C   0  0  0  0  0  0  0  0  0  0  0  0
   57.1030   24.4960   43.8910 C   0  0  0  0  0  0  0  0  0  0  0  0
   57.2720   26.6060   45.2360 N   0  0  0  0  0  0  0  0  0  0  0  0
   58.1180   27.1190   46.1580 C   0  0  0  0  0  0  0  0  0  0  0  0
   57.9630   28.3200   46.7470 C   0  0  0  0  0  0  0  0  0  0  0  0
   57.4840   29.5230   46.0400 C   0  0  0  0  0  0  0  0  0  0  0  0
   56.3940   29.6450   45.1840 C   0  0  0  0  0  0  0  0  0  0  0  0
   55.4980   28.6270   44.8860 O   0  0  0  0  0  0  0  0  0  0  0  0
   56.3210   30.8730   44.6170 N   0  0  0  0  0  0  0  0  0  0  0  0
   57.3940   31.5240   45.1080 C   0  0  0  0  0  0  0  0  0  0  0  0
   57.7840   32.8270   44.8080 C   0  0  0  0  0  0  0  0  0  0  0  0
   58.9620   33.3180   45.3980 C   0  0  0  0  0  0  0  0  0  0  0  0
   59.7240   32.5040   46.2710 C   0  0  0  0  0  0  0  0  0  0  0  0
   61.2120   33.1110   46.9880 S   0  0  0  0  0  0  0  0  0  0  0  0
   60.8560   34.0720   48.0860 O   0  0  0  0  0  0  0  0  0  0  0  0
   62.0270   33.8400   45.9540 O   0  0  0  0  0  0  0  0  0  0  0  0
   62.1320   31.7950   47.6650 N   0  0  0  0  0  0  0  0  0  0  0  0
   62.4130   31.9900   49.0920 C   0  0  0  0  0  0  0  0  0  0  0  0
   63.7270   32.7390   49.3150 C   0  0  0  0  0  0  0  0  0  0  0  0
   63.8640   33.7620   48.3670 O   0  0  0  0  0  0  0  0  0  0  0  0
   59.2960   31.1930   46.5650 C   0  0  0  0  0  0  0  0  0  0  0  0
   58.1280   30.7350   45.9590 C   0  0  0  0  0  0  0  0  0  0  0  0
   60.2793   27.2184   47.8675 H   0  0  0  0  0  0  0  0  0  0  0  0
   60.8872   25.4866   47.3563 H   0  0  0  0  0  0  0  0  0  0  0  0
   59.4879   24.1742   45.5563 H   0  0  0  0  0  0  0  0  0  0  0  0
   56.5357   23.6974   44.3914 H   0  0  0  0  0  0  0  0  0  0  0  0
   56.4233   25.0901   43.2624 H   0  0  0  0  0  0  0  0  0  0  0  0
   57.8877   24.0498   43.2624 H   0  0  0  0  0  0  0  0  0  0  0  0
   56.3990   27.0380   44.8600 H   0  0  0  0  0  0  0  0  0  0  0  0
   58.2074   28.4091   47.8158 H   0  0  0  0  0  0  0  0  0  0  0  0
   57.1875   33.4540   44.1289 H   0  0  0  0  0  0  0  0  0  0  0  0
   59.2947   34.3435   45.1795 H   0  0  0  0  0  0  0  0  0  0  0  0
   61.5925   32.5693   49.5405 H   0  0  0  0  0  0  0  0  0  0  0  0
   62.5004   30.9992   49.5617 H   0  0  0  0  0  0  0  0  0  0  0  0
   63.7303   33.1755   50.3247 H   0  0  0  0  0  0  0  0  0  0  0  0
   64.5656   32.0350   49.2094 H   0  0  0  0  0  0  0  0  0  0  0  0
   63.0140   33.7800   47.8560 H   0  0  0  0  0  0  0  0  0  0  0  0
   59.8670   30.5512   47.2521 H   0  0  0  0  0  0  0  0  0  0  0  0
  1  2  2  0
  2  3  1  0
  3  4  2  0
  4  5  1  0
  4  6  1  0
  6  7  1  0
  7  8  2  3
  8  9  1  0
  9 10  2  0
 10 11  1  0
 10 12  1  0
 12 13  1  0
 13 14  2  0
 14 15  1  0
 15 16  2  0
 16 17  1  0
 17 18  2  0
 17 19  2  0
 17 20  1  0
 20 21  1  0
 21 22  1  0
 22 23  1  0
 16 24  1  0
 24 25  2  0
  7  2  1  0
 25  9  1  0
 25 13  1  0
  1 26  1  0
  1 27  1  0
  3 28  1  0
  5 29  1  0
  5 30  1  0
  5 31  1  0
  6 32  1  0
  8 33  1  0
 14 34  1  0
 15 35  1  0
 21 36  1  0
 21 37  1  0
 22 38  1  0
 22 39  1  0
 23 40  1  0
 24 41  1  0
M  CHG  3  11  -1  12  -1  20  -1
M  END
>  <UniqueID>  (4) 
4

>  <SMILES>  (4) 
C=c1cc(C)[nH]c1=Cc1c([O-])[n-]c2ccc(S(=O)(=O)[N-]CCO)cc12

>  <Energy>  (4) 
104.94107185709836

>  <Genealogy>  (4) 
C=c1cc(C)[nH]c1=Cc1c([O-])[n-]c2ccc(S(=O)(=O)[N-]CCO)cc12 (protonated)
C=c1cc(C)[nH]c1=Cc1c([O-])[n-]c2ccc(S(=O)(=O)[N-]CCO)cc12 (3D coordinates assigned)
C=c1cc(C)[nH]c1=Cc1c([O-])[n-]c2ccc(S(=O)(=O)[N-]CCO)cc12 (optimized conformer: 104.94107185709836 kcal/mol)

>  <smiles>  (4) 
C=c1cc(C)[nH]c1=Cc1c(O)[nH]c2ccc(S(=O)(=O)NCCO)cc12

>  <score_type>  (4) 
oracle

>  <origin>  (4) 
adg

>  <m_score__min__energy>  (4) 
-12.15

>  <m_primary>  (4) 
energy

$$$$
4:0
     RDKit          3D

 61 63  0  0  0  0  0  0  0  0999 V2000
   56.9670   30.7790   43.1420 C   0  0  0  0  0  0  0  0  0  0  0  0
   55.8870   29.7790   43.5350 C   0  0  0  0  0  0  0  0  0  0  0  0
   56.3270   28.9650   44.6210 O   0  0  0  0  0  0  0  0  0  0  0  0
   57.6010   28.3890   44.6900 C   0  0  0  0  0  0  0  0  0  0  0  0
   57.9110   27.4500   43.9070 O   0  0  0  0  0  0  0  0  0  0  0  0
   58.6050   28.8960   45.6590 C   0  0  0  0  0  0  0  0  0  0  0  0
   59.5090   29.8800   45.2210 C   0  0  0  0  0  0  0  0  0  0  0  0
   60.4570   30.4150   46.0880 C   0  0  0  0  0  0  0  0  0  0  0  0
   60.5140   29.9900   47.4110 C   0  0  0  0  0  0  0  0  0  0  0  0
   59.6170   29.0210   47.8900 C   0  0  0  0  0  0  0  0  0  0  0  0
   59.7020   28.5650   49.2510 N   0  0  0  0  0  0  0  0  0  0  0  0
   60.6050   29.0420   50.2610 C   0  0  0  0  0  0  0  0  0  0  0  0
   61.5370   28.2840   50.6370 O   0  0  0  0  0  0  0  0  0  0  0  0
   60.4390   30.4060   50.8950 C   0  0  0  0  0  0  0  0  0  0  0  0
   59.4420   31.2470   50.1810 N   0  0  1  0  0  0  0  0  0  0  0  0
   58.1710   31.3340   50.9280 C   0  0  0  0  0  0  0  0  0  0  0  0
   59.9870   32.5730   49.9710 C   0  0  0  0  0  0  0  0  0  0  0  0
   59.6630   33.5230   50.7380 O   0  0  0  0  0  0  0  0  0  0  0  0
   61.0620   32.8000   48.9800 C   0  0  0  0  0  0  0  0  0  0  0  0
   62.3810   32.4640   49.3290 C   0  0  0  0  0  0  0  0  0  0  0  0
   63.4180   32.6150   48.4070 C   0  0  0  0  0  0  0  0  0  0  0  0
   63.1540   33.1080   47.1290 C   0  0  0  0  0  0  0  0  0  0  0  0
   61.8510   33.4610   46.7730 C   0  0  0  0  0  0  0  0  0  0  0  0
   60.7960   33.3180   47.6920 C   0  0  0  0  0  0  0  0  0  0  0  0
   59.4850   33.7860   47.3370 N   0  0  0  0  0  0  0  0  0  0  0  0
   58.3260   32.8960   47.4220 C   0  0  0  0  0  0  0  0  0  0  0  0
   57.7740   32.6590   46.0100 C   0  0  0  0  0  0  0  0  0  0  0  0
   57.5280   33.8890   45.3460 O   0  0  0  0  0  0  0  0  0  0  0  0
   58.7400   34.6020   45.1700 C   0  0  0  0  0  0  0  0  0  0  0  0
   59.3360   34.9930   46.5260 C   0  0  0  0  0  0  0  0  0  0  0  0
   58.6840   28.4280   47.0010 C   0  0  0  0  0  0  0  0  0  0  0  0
   57.7760   27.3220   47.4940 C   0  0  0  0  0  0  0  0  0  0  0  0
   57.4232   31.2015   44.0494 H   0  0  0  0  0  0  0  0  0  0  0  0
   57.7390   30.2698   42.5464 H   0  0  0  0  0  0  0  0  0  0  0  0
   56.5186   31.5878   42.5464 H   0  0  0  0  0  0  0  0  0  0  0  0
   54.9811   30.3253   43.8366 H   0  0  0  0  0  0  0  0  0  0  0  0
   55.6718   29.1322   42.6717 H   0  0  0  0  0  0  0  0  0  0  0  0
   59.4663   30.2314   44.1795 H   0  0  0  0  0  0  0  0  0  0  0  0
   61.1634   31.1764   45.7258 H   0  0  0  0  0  0  0  0  0  0  0  0
   61.2684   30.4166   48.0884 H   0  0  0  0  0  0  0  0  0  0  0  0
   60.1084   30.2736   51.9358 H   0  0  0  0  0  0  0  0  0  0  0  0
   61.4100   30.9202   50.8420 H   0  0  0  0  0  0  0  0  0  0  0  0
   59.2350   30.8170   49.2480 H   0  0  0  0  0  0  0  0  0  0  0  0
   58.3788   31.3198   52.0081 H   0  0  0  0  0  0  0  0  0  0  0  0
   57.6551   32.2696   50.6661 H   0  0  0  0  0  0  0  0  0  0  0  0
   57.5324   30.4775   50.6661 H   0  0  0  0  0  0  0  0  0  0  0  0
   62.5979   32.0791   50.3364 H   0  0  0  0  0  0  0  0  0  0  0  0
   64.4463   32.3445   48.6889 H   0  0  0  0  0  0  0  0  0  0  0  0
   63.9721   33.2186   46.4021 H   0  0  0  0  0  0  0  0  0  0  0  0
   61.6479   33.8540   45.7659 H   0  0  0  0  0  0  0  0  0  0  0  0
   58.6297   31.9362   47.8652 H   0  0  0  0  0  0  0  0  0  0  0  0
   57.5501   33.3551   48.0523 H   0  0  0  0  0  0  0  0  0  0  0  0
   58.5064   32.0778   45.4305 H   0  0  0  0  0  0  0  0  0  0  0  0
   56.8244   32.1100   46.0930 H   0  0  0  0  0  0  0  0  0  0  0  0
   59.4575   33.9677   44.6289 H   0  0  0  0  0  0  0  0  0  0  0  0
   58.5335   35.5172   44.5957 H   0  0  0  0  0  0  0  0  0  0  0  0
   60.3195   35.4626   46.3767 H   0  0  0  0  0  0  0  0  0  0  0  0
   58.6728   35.7077   47.0353 H   0  0  0  0  0  0  0  0  0  0  0  0
   57.7704   27.3152   48.5940 H   0  0  0  0  0  0  0  0  0  0  0  0
   56.7547   27.4934   47.1232 H   0  0  0  0  0  0  0  0  0  0  0  0
   58.1430   26.3536   47.1232 H   0  0  0  0  0  0  0  0  0  0  0  0
  1  2  1  0
  2  3  1  0
  3  4  1  0
  4  5  2  0
  4  6  1  0
  6  7  2  0
  7  8  1  0
  8  9  2  0
  9 10  1  0
 10 11  1  0
 11 12  1  0
 12 13  2  0
 12 14  1  0
 14 15  1  0
 15 16  1  0
 15 17  1  0
 17 18  2  0
 17 19  1  0
 19 20  2  0
 20 21  1  0
 21 22  2  0
 22 23  1  0
 23 24  2  0
 24 25  1  0
 25 26  1  0
 26 27  1  0
 27 28  1  0
 28 29  1  0
 29 30  1  0
 10 31  2  0
 31 32  1  0
 31  6  1  0
 24 19  1  0
 30 25  1  0
  1 33  1  0
  1 34  1  0
  1 35  1  0
  2 36  1  0
  2 37  1  0
  7 38  1  0
  8 39  1  0
  9 40  1  0
 14 41  1  0
 14 42  1  0
 15 43  1  6
 16 44  1  0
 16 45  1  0
 16 46  1  0
 20 47  1  0
 21 48  1  0
 22 49  1  0
 23 50  1  0
 26 51  1  0
 26 52  1  0
 27 53  1  0
 27 54  1  0
 29 55  1  0
 29 56  1  0
 30 57  1  0
 30 58  1  0
 32 59  1  0
 32 60  1  0
 32 61  1  0
M  CHG  2  11  -1  15   1
M  END
>  <UniqueID>  (5) 
5

>  <SMILES>  (5) 
CCOC(=O)c1cccc([N-]C(=O)C[N@@H+](C)C(=O)c2ccccc2N2CCOCC2)c1C

>  <Energy>  (5) 
85.31816939902401

>  <Genealogy>  (5) 
CCOC(=O)c1cccc([N-]C(=O)C[NH+](C)C(=O)c2ccccc2N2CCOCC2)c1C (protonated)
CCOC(=O)c1cccc([N-]C(=O)C[N@@H+](C)C(=O)c2ccccc2N2CCOCC2)c1C (chirality)
CCOC(=O)c1cccc([N-]C(=O)C[N@@H+](C)C(=O)c2ccccc2N2CCOCC2)c1C (3D coordinates assigned)
CCOC(=O)c1cccc([N-]C(=O)C[N@@H+](C)C(=O)c2ccccc2N2CCOCC2)c1C (nonaromatic ring conformer: 85.31816939902401 kcal/mol)

>  <smiles>  (5) 
CCOC(=O)c1cccc(NC(=O)CN(C)C(=O)c2ccccc2N2CCOCC2)c1C

>  <score_type>  (5) 
oracle

>  <origin>  (5) 
adg

>  <m_score__min__energy>  (5) 
-7.8600000000000003

>  <m_primary>  (5) 
energy

$$$$
5:0
     RDKit          3D

 55 58  0  0  0  0  0  0  0  0999 V2000
   58.0650   32.2790   49.4890 O   0  0  0  0  0  0  0  0  0  0  0  0
   58.9030   32.7760   48.6900 C   0  0  0  0  0  0  0  0  0  0  0  0
   58.5970   33.3400   47.3800 C   0  0  0  0  0  0  0  0  0  0  0  0
   57.3880   33.4470   46.6950 C   0  0  0  0  0  0  0  0  0  0  0  0
   57.3980   34.0680   45.4330 C   0  0  0  0  0  0  0  0  0  0  0  0
   58.6030   34.5690   44.8910 C   0  0  0  0  0  0  0  0  0  0  0  0
   59.8080   34.4530   45.6060 C   0  0  0  0  0  0  0  0  0  0  0  0
   59.7730   33.8290   46.8510 C   0  0  0  0  0  0  0  0  0  0  0  0
   60.8320   33.5770   47.8220 C   0  0  0  0  0  0  0  0  0  0  0  0
   62.0360   33.9290   47.7020 O   0  0  0  0  0  0  0  0  0  0  0  0
   60.3030   32.8930   48.9610 N   0  0  0  0  0  0  0  0  0  0  0  0
   60.9430   32.7650   50.2670 C   0  0  0  0  0  0  0  0  0  0  0  0
   60.1740   31.7690   51.1400 C   0  0  0  0  0  0  0  0  0  0  0  0
   60.5900   30.3220   50.8230 C   0  0  0  0  0  0  0  0  0  0  0  0
   59.7180   29.6940   49.8180 N   0  0  0  0  0  0  0  0  0  0  0  0
   60.4770   28.9580   48.8010 C   0  0  0  0  0  0  0  0  0  0  0  0
   59.6010   28.7130   47.6030 C   0  0  0  0  0  0  0  0  0  0  0  0
   59.3940   29.7290   46.6580 C   0  0  0  0  0  0  0  0  0  0  0  0
   58.5500   29.5110   45.5660 C   0  0  0  0  0  0  0  0  0  0  0  0
   57.9020   28.2830   45.4150 C   0  0  0  0  0  0  0  0  0  0  0  0
   58.0870   27.2610   46.3520 C   0  0  0  0  0  0  0  0  0  0  0  0
   57.4110   26.0470   46.1480 O   0  0  0  0  0  0  0  0  0  0  0  0
   57.7580   25.0520   45.1840 C   0  0  0  0  0  0  0  0  0  0  0  0
   56.6330   24.8480   44.1650 C   0  0  0  0  0  0  0  0  0  0  0  0
   55.4390   24.3060   44.8160 N   0  0  0  0  0  0  0  0  0  0  0  0
   54.9750   23.0440   44.7420 C   0  0  0  0  0  0  0  0  0  0  0  0
   55.6110   22.0170   44.0520 O   0  0  0  0  0  0  0  0  0  0  0  0
   53.7890   22.9120   45.4370 C   0  0  0  0  0  0  0  0  0  0  0  0
   53.5080   24.1620   45.9580 C   0  0  0  0  0  0  0  0  0  0  0  0
   54.5390   24.9860   45.5510 C   0  0  0  0  0  0  0  0  0  0  0  0
   54.6400   26.3400   45.8500 O   0  0  0  0  0  0  0  0  0  0  0  0
   58.9340   27.4860   47.4570 C   0  0  0  0  0  0  0  0  0  0  0  0
   56.4547   33.0578   47.1280 H   0  0  0  0  0  0  0  0  0  0  0  0
   56.4615   34.1643   44.8641 H   0  0  0  0  0  0  0  0  0  0  0  0
   58.5982   35.0529   43.9032 H   0  0  0  0  0  0  0  0  0  0  0  0
   60.7505   34.8434   45.1945 H   0  0  0  0  0  0  0  0  0  0  0  0
   61.9748   32.4083   50.1322 H   0  0  0  0  0  0  0  0  0  0  0  0
   60.9458   33.7473   50.7621 H   0  0  0  0  0  0  0  0  0  0  0  0
   60.3856   31.9804   52.1986 H   0  0  0  0  0  0  0  0  0  0  0  0
   59.0993   31.8781   50.9325 H   0  0  0  0  0  0  0  0  0  0  0  0
   61.6218   30.3268   50.4417 H   0  0  0  0  0  0  0  0  0  0  0  0
   60.5055   29.7382   51.7515 H   0  0  0  0  0  0  0  0  0  0  0  0
   59.1400   30.4310   49.3480 H   0  0  0  0  0  0  0  0  0  0  0  0
   61.3545   29.5487   48.4992 H   0  0  0  0  0  0  0  0  0  0  0  0
   60.8091   27.9950   49.2161 H   0  0  0  0  0  0  0  0  0  0  0  0
   59.8974   30.6998   46.7770 H   0  0  0  0  0  0  0  0  0  0  0  0
   58.3956   30.3081   44.8238 H   0  0  0  0  0  0  0  0  0  0  0  0
   57.2404   28.1181   44.5518 H   0  0  0  0  0  0  0  0  0  0  0  0
   58.6684   25.3687   44.6540 H   0  0  0  0  0  0  0  0  0  0  0  0
   57.9254   24.1012   45.7113 H   0  0  0  0  0  0  0  0  0  0  0  0
   56.3850   25.8146   43.7022 H   0  0  0  0  0  0  0  0  0  0  0  0
   56.9734   24.1353   43.3994 H   0  0  0  0  0  0  0  0  0  0  0  0
   53.1890   21.9974   45.5528 H   0  0  0  0  0  0  0  0  0  0  0  0
   52.6396   24.4429   46.5720 H   0  0  0  0  0  0  0  0  0  0  0  0
   59.0730   26.6954   48.2091 H   0  0  0  0  0  0  0  0  0  0  0  0
  1  2  2  0
  2  3  1  0
  3  4  2  0
  4  5  1  0
  5  6  2  0
  6  7  1  0
  7  8  2  0
  8  9  1  0
  9 10  2  0
  9 11  1  0
 11 12  1  0
 12 13  1  0
 13 14  1  0
 14 15  1  0
 15 16  1  0
 16 17  1  0
 17 18  2  0
 18 19  1  0
 19 20  2  0
 20 21  1  0
 21 22  1  0
 22 23  1  0
 23 24  1  0
 24 25  1  0
 25 26  1  0
 26 27  1  0
 26 28  2  0
 28 29  1  0
 29 30  2  0
 30 31  1  0
 21 32  2  0
 11  2  1  0
 32 17  1  0
  8  3  1  0
 30 25  1  0
  4 33  1  0
  5 34  1  0
  6 35  1  0
  7 36  1  0
 12 37  1  0
 12 38  1  0
 13 39  1  0
 13 40  1  0
 14 41  1  0
 14 42  1  0
 15 43  1  0
 16 44  1  0
 16 45  1  0
 18 46  1  0
 19 47  1  0
 20 48  1  0
 23 49  1  0
 23 50  1  0
 24 51  1  0
 24 52  1  0
 28 53  1  0
 29 54  1  0
 32 55  1  0
M  CHG  2  27  -1  31  -1
M  END
>  <UniqueID>  (6) 
6

>  <SMILES>  (6) 
O=C1c2ccccc2C(=O)N1CCCNCc1cccc(OCCn2c([O-])ccc2[O-])c1

>  <Energy>  (6) 
110.97411905702853

>  <Genealogy>  (6) 
O=C1c2ccccc2C(=O)N1CCCNCc1cccc(OCCn2c([O-])ccc2[O-])c1 (protonated)
O=C1c2ccccc2C(=O)N1CCCNCc1cccc(OCCn2c([O-])ccc2[O-])c1 (3D coordinates assigned)
O=C1c2ccccc2C(=O)N1CCCNCc1cccc(OCCn2c([O-])ccc2[O-])c1 (nonaromatic ring conformer: 110.97411905702853 kcal/mol)

>  <smiles>  (6) 
O=C1c2ccccc2C(=O)N1CCCNCc1cccc(OCCn2c(O)ccc2O)c1

>  <score_type>  (6) 
oracle

>  <origin>  (6) 
adg

>  <m_score__min__energy>  (6) 
-13.41

>  <m_primary>  (6) 
energy

$$$$
6:0
     RDKit          3D

 45 47  0  0  0  0  0  0  0  0999 V2000
   57.5199   23.2985   43.8287 H   0  0  0  0  0  0  0  0  0  0  0  0
   57.5050   24.1340   44.5440 C   0  0  0  0  0  0  0  0  0  0  0  0
   57.3419   25.1614   44.1864 H   0  0  0  0  0  0  0  0  0  0  0  0
   57.6850   23.9010   45.8470 C   0  0  0  0  0  0  0  0  0  0  0  0
   57.8469   22.8682   46.1892 H   0  0  0  0  0  0  0  0  0  0  0  0
   57.6720   25.0140   46.8580 C   0  0  0  0  0  0  0  0  0  0  0  0
   56.8757   24.8251   47.5930 H   0  0  0  0  0  0  0  0  0  0  0  0
   58.6513   25.0498   47.3576 H   0  0  0  0  0  0  0  0  0  0  0  0
   57.4260   26.3150   46.1990 N   0  0  0  0  0  0  0  0  0  0  0  0
   56.1400   26.7260   45.9780 C   0  0  0  0  0  0  0  0  0  0  0  0
   55.1630   26.0300   46.3690 O   0  0  0  0  0  0  0  0  0  0  0  0
   55.8970   27.8730   45.3070 N   0  0  0  0  0  0  0  0  0  0  0  0
   56.8860   28.6840   44.8590 C   0  0  0  0  0  0  0  0  0  0  0  0
   56.5210   29.6680   44.0260 C   0  0  0  0  0  0  0  0  0  0  0  0
   57.2774   30.3601   43.6275 H   0  0  0  0  0  0  0  0  0  0  0  0
   55.4650   29.7837   43.7407 H   0  0  0  0  0  0  0  0  0  0  0  0
   58.2400   28.3670   45.1820 C   0  0  0  0  0  0  0  0  0  0  0  0
   59.3010   29.1940   44.9630 C   0  0  0  0  0  0  0  0  0  0  0  0
   59.9375   28.9666   44.0951 H   0  0  0  0  0  0  0  0  0  0  0  0
   59.6780   30.3640   45.7770 C   0  0  0  0  0  0  0  0  0  0  0  0
   60.8450   30.4890   46.3700 O   0  0  0  0  0  0  0  0  0  0  0  0
   60.8610   31.6180   47.0500 C   0  0  0  0  0  0  0  0  0  0  0  0
   62.0060   32.0630   47.8040 N   0  0  0  0  0  0  0  0  0  0  0  0
   63.0850   32.7730   47.1030 C   0  0  0  0  0  0  0  0  0  0  0  0
   63.8579   32.0516   46.7993 H   0  0  0  0  0  0  0  0  0  0  0  0
   62.6696   33.2727   46.2154 H   0  0  0  0  0  0  0  0  0  0  0  0
   63.7090   33.8260   48.0250 C   0  0  0  0  0  0  0  0  0  0  0  0
   64.5725   34.2744   47.5119 H   0  0  0  0  0  0  0  0  0  0  0  0
   62.9321   34.5724   48.2471 H   0  0  0  0  0  0  0  0  0  0  0  0
   64.1860   33.2390   49.3710 C   0  0  0  0  0  0  0  0  0  0  0  0
   65.2846   33.1864   49.3569 H   0  0  0  0  0  0  0  0  0  0  0  0
   63.8073   33.9021   50.1628 H   0  0  0  0  0  0  0  0  0  0  0  0
   63.6370   31.8340   49.6620 C   0  0  0  0  0  0  0  0  0  0  0  0
   64.2487   31.0946   49.1242 H   0  0  0  0  0  0  0  0  0  0  0  0
   63.6805   31.6690   50.7487 H   0  0  0  0  0  0  0  0  0  0  0  0
   62.1780   31.6880   49.2170 C   0  0  0  0  0  0  0  0  0  0  0  0
   61.8666   30.6414   49.3497 H   0  0  0  0  0  0  0  0  0  0  0  0
   61.5606   32.3604   49.8307 H   0  0  0  0  0  0  0  0  0  0  0  0
   59.6380   32.2670   46.9100 C   0  0  0  0  0  0  0  0  0  0  0  0
   59.2240   33.5410   47.4350 C   0  0  0  0  0  0  0  0  0  0  0  0
   58.8920   34.5670   47.8570 N   0  0  0  0  0  0  0  0  0  0  0  0
   58.8860   31.4500   46.1000 C   0  0  0  0  0  0  0  0  0  0  0  0
   57.5720   31.6680   45.7020 O   0  0  0  0  0  0  0  0  0  0  0  0
   58.4740   27.1050   45.7940 C   0  0  0  0  0  0  0  0  0  0  0  0
   59.6600   26.7200   46.0010 O   0  0  0  0  0  0  0  0  0  0  0  0
  1  2  1  0
  2  3  1  0
  2  4  2  0
  4  5  1  0
  4  6  1  0
  6  7  1  0
  6  8  1  0
  6  9  1  0
  9 10  1  0
 10 11  2  0
 10 12  1  0
 12 13  1  0
 13 14  2  0
 14 15  1  0
 14 16  1  0
 13 17  1  0
 17 18  2  0
 18 19  1  0
 18 20  1  0
 20 21  1  0
 21 22  1  0
 22 23  1  0
 23 24  1  0
 24 25  1  0
 24 26  1  0
 24 27  1  0
 27 28  1  0
 27 29  1  0
 27 30  1  0
 30 31  1  0
 30 32  1  0
 30 33  1  0
 33 34  1  0
 33 35  1  0
 33 36  1  0
 36 37  1  0
 36 38  1  0
 22 39  2  0
 39 40  1  0
 40 41  3  0
 39 42  1  0
 42 43  1  0
 17 44  1  0
 44 45  2  0
 44  9  1  0
 42 20  2  0
 36 23  1  0
M  CHG  2  12  -1  43  -1
M  END
>  <UniqueID>  (7) 
7

>  <SMILES>  (7) 
C=CCn1c(=O)[n-]c(=C)/c(=C\c2oc(N3CCCCC3)c(C#N)c2[O-])c1=O

>  <Energy>  (7) 
101.23134102744015

>  <Genealogy>  (7) 
C=CCn1c(=O)[n-]c(=C)c(=Cc2oc(N3CCCCC3)c(C#N)c2[O-])c1=O (protonated)
C=CCn1c(=O)[n-]c(=C)/c(=C\c2oc(N3CCCCC3)c(C#N)c2[O-])c1=O (cis-trans isomerization)
C=CCn1c(=O)[n-]c(=C)/c(=C\c2oc(N3CCCCC3)c(C#N)c2[O-])c1=O (3D coordinates assigned)
C=CCn1c(=O)[n-]c(=C)/c(=C\c2oc(N3CCCCC3)c(C#N)c2[O-])c1=O (nonaromatic ring conformer: 101.23134102744015 kcal/mol)

>  <smiles>  (7) 
C=CCn1c(=O)[nH]c(=C)c(=Cc2oc(N3CCCCC3)c(C#N)c2O)c1=O

>  <score_type>  (7) 
oracle

>  <origin>  (7) 
adg

>  <m_score__min__energy>  (7) 
-10.69

>  <m_primary>  (7) 
energy

$$$$
7:0
     RDKit          3D

 35 37  0  0  0  0  0  0  0  0999 V2000
   57.7680   30.0630   43.8620 C   0  0  0  0  0  0  0  0  0  0  0  0
   57.9790   29.7110   45.1410 C   0  0  0  0  0  0  0  0  0  0  0  0
   57.9370   28.4170   45.6900 C   0  0  0  0  0  0  0  0  0  0  0  0
   57.5400   27.2420   45.1620 C   0  0  0  0  0  0  0  0  0  0  0  0
   57.3220   25.9920   45.9170 C   0  0  0  0  0  0  0  0  0  0  0  0
   56.0280   25.5920   46.2990 C   0  0  0  0  0  0  0  0  0  0  0  0
   54.9070   26.3810   46.0360 O   0  0  0  0  0  0  0  0  0  0  0  0
   55.8560   24.4130   46.9510 N   0  0  0  0  0  0  0  0  0  0  0  0
   56.9070   23.6030   47.2350 C   0  0  0  0  0  0  0  0  0  0  0  0
   56.7170   22.5190   47.8450 O   0  0  0  0  0  0  0  0  0  0  0  0
   58.1610   23.9580   46.8580 N   0  0  0  0  0  0  0  0  0  0  0  0
   58.3920   25.1230   46.2010 C   0  0  0  0  0  0  0  0  0  0  0  0
   59.5670   25.4120   45.8490 O   0  0  0  0  0  0  0  0  0  0  0  0
   58.4000   28.5340   46.9910 C   0  0  0  0  0  0  0  0  0  0  0  0
   58.6520   29.8720   47.2090 C   0  0  0  0  0  0  0  0  0  0  0  0
   59.1730   30.4430   48.4920 C   0  0  0  0  0  0  0  0  0  0  0  0
   58.3970   30.5870   46.0910 N   0  0  0  0  0  0  0  0  0  0  0  0
   58.5810   32.0060   45.9470 C   0  0  0  0  0  0  0  0  0  0  0  0
   59.8060   32.5980   46.2790 C   0  0  0  0  0  0  0  0  0  0  0  0
   59.9750   33.9760   46.1380 C   0  0  0  0  0  0  0  0  0  0  0  0
   58.9140   34.7510   45.6670 C   0  0  0  0  0  0  0  0  0  0  0  0
   57.7300   34.1630   45.3530 N   0  0  0  0  0  0  0  0  0  0  0  0
   57.5380   32.8230   45.4810 C   0  0  0  0  0  0  0  0  0  0  0  0
   56.3030   32.2730   45.1590 O   0  0  0  0  0  0  0  0  0  0  0  0
   57.8321   31.1201   43.5647 H   0  0  0  0  0  0  0  0  0  0  0  0
   57.5311   29.2941   43.1119 H   0  0  0  0  0  0  0  0  0  0  0  0
   57.3635   27.2119   44.0767 H   0  0  0  0  0  0  0  0  0  0  0  0
   54.2750   26.6940   46.7620 H   0  0  0  0  0  0  0  0  0  0  0  0
   58.5398   27.7154   47.7123 H   0  0  0  0  0  0  0  0  0  0  0  0
   58.7018   29.9266   49.3413 H   0  0  0  0  0  0  0  0  0  0  0  0
   60.2634   30.3055   48.5385 H   0  0  0  0  0  0  0  0  0  0  0  0
   58.9364   31.5163   48.5385 H   0  0  0  0  0  0  0  0  0  0  0  0
   60.6345   31.9771   46.6507 H   0  0  0  0  0  0  0  0  0  0  0  0
   60.9351   34.4469   46.3956 H   0  0  0  0  0  0  0  0  0  0  0  0
   59.0364   35.8379   45.5500 H   0  0  0  0  0  0  0  0  0  0  0  0
  1  2  2  0
  2  3  1  0
  3  4  2  3
  4  5  1  0
  5  6  2  0
  6  7  1  0
  6  8  1  0
  8  9  1  0
  9 10  2  0
  9 11  1  0
 11 12  1  0
 12 13  2  0
  3 14  1  0
 14 15  2  0
 15 16  1  0
 15 17  1  0
 17 18  1  0
 18 19  2  0
 19 20  1  0
 20 21  2  0
 21 22  1  0
 22 23  2  0
 23 24  1  0
 17  2  1  0
 23 18  1  0
 12  5  1  0
  1 25  1  0
  1 26  1  0
  4 27  1  0
  7 28  1  0
 14 29  1  0
 16 30  1  0
 16 31  1  0
 16 32  1  0
 19 33  1  0
 20 34  1  0
 21 35  1  0
M  CHG  3   8  -1  11  -1  24  -1
M  END
>  <UniqueID>  (8) 
8

>  <SMILES>  (8) 
C=c1c(=Cc2c(O)[n-]c(=O)[n-]c2=O)cc(C)n1-c1cccnc1[O-]

>  <Energy>  (8) 
88.31375197443516

>  <Genealogy>  (8) 
C=c1c(=Cc2c(O)[n-]c(=O)[n-]c2=O)cc(C)n1-c1cccnc1[O-] (protonated)
C=c1c(=Cc2c(O)[n-]c(=O)[n-]c2=O)cc(C)n1-c1cccnc1[O-] (3D coordinates assigned)
C=c1c(=Cc2c(O)[n-]c(=O)[n-]c2=O)cc(C)n1-c1cccnc1[O-] (optimized conformer: 88.31375197443516 kcal/mol)

>  <smiles>  (8) 
C=c1c(=Cc2c(O)[nH]c(=O)[nH]c2=O)cc(C)n1-c1cccnc1O

>  <score_type>  (8) 
oracle

>  <origin>  (8) 
adg

>  <m_score__min__energy>  (8) 
-14.16

>  <m_primary>  (8) 
energy

$$$$
8:0
     RDKit          3D

 67 70  0  0  0  0  0  0  0  0999 V2000
   56.0530   29.2170   53.0800 C   0  0  0  0  0  0  0  0  0  0  0  0
   55.9180   30.3200   52.0280 C   0  0  0  0  0  0  0  0  0  0  0  0
   57.1470   30.4630   51.3160 O   0  0  0  0  0  0  0  0  0  0  0  0
   57.9770   31.6000   51.2980 C   0  0  0  0  0  0  0  0  0  0  0  0
   58.0240   32.5320   52.3590 C   0  0  0  0  0  0  0  0  0  0  0  0
   58.9410   33.5820   52.3330 C   0  0  0  0  0  0  0  0  0  0  0  0
   59.8030   33.7340   51.2440 C   0  0  0  0  0  0  0  0  0  0  0  0
   59.7260   32.8510   50.1590 C   0  0  0  0  0  0  0  0  0  0  0  0
   58.8210   31.7850   50.1900 C   0  0  0  0  0  0  0  0  0  0  0  0
   58.7420   30.8820   49.0820 N   0  0  0  0  0  0  0  0  0  0  0  0
   59.7380   29.4740   48.9930 S   0  0  0  0  0  0  0  0  0  0  0  0
   60.8130   29.6680   47.9700 O   0  0  0  0  0  0  0  0  0  0  0  0
   58.8850   28.3000   48.6130 O   0  0  0  0  0  0  0  0  0  0  0  0
   60.4880   29.2220   50.5610 C   0  0  0  0  0  0  0  0  0  0  0  0
   59.7660   28.5690   51.5690 C   0  0  0  0  0  0  0  0  0  0  0  0
   60.3240   28.3960   52.8370 C   0  0  0  0  0  0  0  0  0  0  0  0
   61.6140   28.8520   53.1010 C   0  0  0  0  0  0  0  0  0  0  0  0
   62.3710   29.4980   52.1000 C   0  0  0  0  0  0  0  0  0  0  0  0
   63.7390   30.0050   52.4120 C   0  0  0  0  0  0  0  0  0  0  0  0
   64.2840   29.6790   53.5070 O   0  0  0  0  0  0  0  0  0  0  0  0
   64.4450   30.9130   51.5530 N   0  0  0  0  0  0  0  0  0  0  0  0
   63.9010   32.1030   50.9450 C   0  0  0  0  0  0  0  0  0  0  0  0
   63.9490   33.3120   51.6480 C   0  0  0  0  0  0  0  0  0  0  0  0
   63.4820   34.4900   51.0560 C   0  0  0  0  0  0  0  0  0  0  0  0
   62.9800   34.4700   49.7540 C   0  0  0  0  0  0  0  0  0  0  0  0
   62.9410   33.2690   49.0370 C   0  0  0  0  0  0  0  0  0  0  0  0
   62.3960   33.2270   47.3680 S   0  0  0  0  0  0  0  0  0  0  0  0
   63.4010   33.8890   46.4690 O   0  0  0  0  0  0  0  0  0  0  0  0
   62.2370   31.7860   46.9810 O   0  0  0  0  0  0  0  0  0  0  0  0
   60.8830   34.0760   47.2610 N   0  0  0  0  0  0  0  0  0  0  0  0
   59.7670   33.6290   46.7500 C   0  0  0  0  0  0  0  0  0  0  0  0
   58.8220   34.4950   45.9440 C   0  0  0  0  0  0  0  0  0  0  0  0
   58.8200   34.1160   44.4520 C   0  0  0  0  0  0  0  0  0  0  0  0
   57.8880   32.9450   44.0710 C   0  0  0  0  0  0  0  0  0  0  0  0
   58.2310   31.6180   44.7730 C   0  0  0  0  0  0  0  0  0  0  0  0
   58.2390   31.6460   46.3280 C   0  0  0  0  0  0  0  0  0  0  0  0
   59.4620   32.2310   46.8890 N   0  0  0  0  0  0  0  0  0  0  0  0
   63.4120   32.0900   49.6270 C   0  0  0  0  0  0  0  0  0  0  0  0
   61.7780   29.7040   50.8350 C   0  0  0  0  0  0  0  0  0  0  0  0
   55.9987   29.6604   54.0852 H   0  0  0  0  0  0  0  0  0  0  0  0
   55.2372   28.4897   52.9555 H   0  0  0  0  0  0  0  0  0  0  0  0
   57.0202   28.7080   52.9555 H   0  0  0  0  0  0  0  0  0  0  0  0
   55.1162   30.0558   51.3228 H   0  0  0  0  0  0  0  0  0  0  0  0
   55.6750   31.2697   52.5270 H   0  0  0  0  0  0  0  0  0  0  0  0
   57.3340   32.4287   53.2094 H   0  0  0  0  0  0  0  0  0  0  0  0
   58.9859   34.2923   53.1717 H   0  0  0  0  0  0  0  0  0  0  0  0
   60.5430   34.5479   51.2385 H   0  0  0  0  0  0  0  0  0  0  0  0
   60.3765   32.9959   49.2838 H   0  0  0  0  0  0  0  0  0  0  0  0
   58.7544   28.1908   51.3601 H   0  0  0  0  0  0  0  0  0  0  0  0
   59.7444   27.8990   53.6289 H   0  0  0  0  0  0  0  0  0  0  0  0
   62.0476   28.7068   54.1015 H   0  0  0  0  0  0  0  0  0  0  0  0
   64.3555   33.3360   52.6699 H   0  0  0  0  0  0  0  0  0  0  0  0
   63.5105   35.4350   51.6183 H   0  0  0  0  0  0  0  0  0  0  0  0
   62.6148   35.3987   49.2912 H   0  0  0  0  0  0  0  0  0  0  0  0
   57.8036   34.3745   46.3420 H   0  0  0  0  0  0  0  0  0  0  0  0
   59.1625   35.5376   46.0284 H   0  0  0  0  0  0  0  0  0  0  0  0
   58.5077   35.0002   43.8770 H   0  0  0  0  0  0  0  0  0  0  0  0
   59.8417   33.7796   44.2217 H   0  0  0  0  0  0  0  0  0  0  0  0
   56.8576   33.2217   44.3387 H   0  0  0  0  0  0  0  0  0  0  0  0
   58.0141   32.7760   42.9914 H   0  0  0  0  0  0  0  0  0  0  0  0
   57.4911   30.8688   44.4546 H   0  0  0  0  0  0  0  0  0  0  0  0
   59.2651   31.3872   44.4773 H   0  0  0  0  0  0  0  0  0  0  0  0
   57.3784   32.2388   46.6715 H   0  0  0  0  0  0  0  0  0  0  0  0
   58.1868   30.6032   46.6741 H   0  0  0  0  0  0  0  0  0  0  0  0
   60.1070   31.6090   47.4420 H   0  0  0  0  0  0  0  0  0  0  0  0
   63.3994   31.1494   49.0568 H   0  0  0  0  0  0  0  0  0  0  0  0
   62.3326   30.2478   50.0561 H   0  0  0  0  0  0  0  0  0  0  0  0
  1  2  1  0
  2  3  1  0
  3  4  1  0
  4  5  2  0
  5  6  1  0
  6  7  2  0
  7  8  1  0
  8  9  2  0
  9 10  1  0
 10 11  1  0
 11 12  2  0
 11 13  2  0
 11 14  1  0
 14 15  2  0
 15 16  1  0
 16 17  2  0
 17 18  1  0
 18 19  1  0
 19 20  2  0
 19 21  1  0
 21 22  1  0
 22 23  2  0
 23 24  1  0
 24 25  2  0
 25 26  1  0
 26 27  1  0
 27 28  2  0
 27 29  2  0
 27 30  1  0
 30 31  2  3
 31 32  1  0
 32 33  1  0
 33 34  1  0
 34 35  1  0
 35 36  1  0
 36 37  1  0
 26 38  2  0
 18 39  2  0
  9  4  1  0
 39 14  1  0
 38 22  1  0
 37 31  1  0
  1 40  1  0
  1 41  1  0
  1 42  1  0
  2 43  1  0
  2 44  1  0
  5 45  1  0
  6 46  1  0
  7 47  1  0
  8 48  1  0
 15 49  1  0
 16 50  1  0
 17 51  1  0
 23 52  1  0
 24 53  1  0
 25 54  1  0
 32 55  1  0
 32 56  1  0
 33 57  1  0
 33 58  1  0
 34 59  1  0
 34 60  1  0
 35 61  1  0
 35 62  1  0
 36 63  1  0
 36 64  1  0
 37 65  1  0
 38 66  1  0
 39 67  1  0
M  CHG  2  10  -1  21  -1
M  END
>  <UniqueID>  (9) 
9

>  <SMILES>  (9) 
CCOc1ccccc1[N-]S(=O)(=O)c1cccc(C(=O)[N-]c2cccc(S(=O)(=O)N=C3CCCCCN3)c2)c1

>  <Energy>  (9) 
94.95342233421215

>  <Genealogy>  (9) 
CCOc1ccccc1[N-]S(=O)(=O)c1cccc(C(=O)[N-]c2cccc(S(=O)(=O)N=C3CCCCCN3)c2)c1 (protonated)
CCOc1ccccc1[N-]S(=O)(=O)c1cccc(C(=O)[N-]c2cccc(S(=O)(=O)N=C3CCCCCN3)c2)c1 (3D coordinates assigned)
CCOc1ccccc1[N-]S(=O)(=O)c1cccc(C(=O)[N-]c2cccc(S(=O)(=O)N=C3CCCCCN3)c2)c1 (nonaromatic ring conformer: 94.95342233421215 kcal/mol)

>  <smiles>  (9) 
CCOc1ccccc1NS(=O)(=O)c1cccc(C(=O)Nc2cccc(S(=O)(=O)N=C3CCCCCN3)c2)c1

>  <score_type>  (9) 
oracle

>  <origin>  (9) 
adg

>  <m_score__min__energy>  (9) 
-12.09

>  <m_primary>  (9) 
energy

$$$$
9:0
     RDKit          3D

 32 33  0  0  0  0  0  0  0  0999 V2000
   57.3750   31.5210   43.7950 C   0  0  0  0  0  0  0  0  0  0  0  0
   56.9320   29.9140   44.4150 S   0  0  0  0  0  0  0  0  0  0  0  0
   57.0800   28.9040   43.3130 O   0  0  0  0  0  0  0  0  0  0  0  0
   55.5080   29.9490   44.8930 O   0  0  0  0  0  0  0  0  0  0  0  0
   57.9860   29.5090   45.7310 N   0  0  0  0  0  0  0  0  0  0  0  0
   58.1380   28.2000   46.2940 C   0  0  0  0  0  0  0  0  0  0  0  0
   59.2040   27.8730   47.1510 C   0  0  0  0  0  0  0  0  0  0  0  0
   59.3050   26.5870   47.6880 C   0  0  0  0  0  0  0  0  0  0  0  0
   58.3520   25.6160   47.3700 C   0  0  0  0  0  0  0  0  0  0  0  0
   57.2930   25.9240   46.5030 C   0  0  0  0  0  0  0  0  0  0  0  0
   56.2920   24.8930   46.1660 C   0  0  0  0  0  0  0  0  0  0  0  0
   54.9460   25.1050   45.9590 C   0  0  0  0  0  0  0  0  0  0  0  0
   54.3080   26.3400   45.9680 O   0  0  0  0  0  0  0  0  0  0  0  0
   54.3070   23.9390   45.7410 N   0  0  0  0  0  0  0  0  0  0  0  0
   55.3000   23.0270   45.8330 C   0  0  0  0  0  0  0  0  0  0  0  0
   55.0960   21.7900   45.7200 O   0  0  0  0  0  0  0  0  0  0  0  0
   56.5170   23.5640   46.0790 N   0  0  0  0  0  0  0  0  0  0  0  0
   57.7450   22.8300   46.3960 C   0  0  0  0  0  0  0  0  0  0  0  0
   58.7140   22.9320   45.2620 C   0  0  0  0  0  0  0  0  0  0  0  0
   60.0870   22.6040   45.4640 N   0  0  0  0  0  0  0  0  0  0  0  0
   58.3100   23.2700   44.1170 O   0  0  0  0  0  0  0  0  0  0  0  0
   57.1850   27.2210   45.9810 C   0  0  0  0  0  0  0  0  0  0  0  0
   57.5624   32.2008   44.6392 H   0  0  0  0  0  0  0  0  0  0  0  0
   58.2841   31.4394   43.1812 H   0  0  0  0  0  0  0  0  0  0  0  0
   56.5524   31.9167   43.1812 H   0  0  0  0  0  0  0  0  0  0  0  0
   59.9606   28.6319   47.3993 H   0  0  0  0  0  0  0  0  0  0  0  0
   60.1372   26.3383   48.3630 H   0  0  0  0  0  0  0  0  0  0  0  0
   58.4323   24.6070   47.8007 H   0  0  0  0  0  0  0  0  0  0  0  0
   58.1998   23.2566   47.3022 H   0  0  0  0  0  0  0  0  0  0  0  0
   57.4977   21.7713   46.5631 H   0  0  0  0  0  0  0  0  0  0  0  0
   60.7630   22.6160   44.6690 H   0  0  0  0  0  0  0  0  0  0  0  0
   56.3435   27.4728   45.3189 H   0  0  0  0  0  0  0  0  0  0  0  0
  1  2  1  0
  2  3  2  0
  2  4  2  0
  2  5  1  0
  5  6  1  0
  6  7  2  0
  7  8  1  0
  8  9  2  0
  9 10  1  0
 10 11  1  0
 11 12  2  0
 12 13  1  0
 12 14  1  0
 14 15  1  0
 15 16  2  0
 15 17  1  0
 17 18  1  0
 18 19  1  0
 19 20  1  0
 19 21  2  0
 10 22  2  0
 22  6  1  0
 17 11  1  0
  1 23  1  0
  1 24  1  0
  1 25  1  0
  7 26  1  0
  8 27  1  0
  9 28  1  0
 18 29  1  0
 18 30  1  0
 20 31  1  0
 22 32  1  0
M  CHG  4   5  -1  13  -1  14  -1  20  -1
M  END
>  <UniqueID>  (10) 
10

>  <SMILES>  (10) 
CS(=O)(=O)[N-]c1cccc(-c2c([O-])[n-]c(=O)n2CC([NH-])=O)c1

>  <Energy>  (10) 
66.56500491023611

>  <Genealogy>  (10) 
CS(=O)(=O)[N-]c1cccc(-c2c([O-])[n-]c(=O)n2CC([NH-])=O)c1 (protonated)
CS(=O)(=O)[N-]c1cccc(-c2c([O-])[n-]c(=O)n2CC([NH-])=O)c1 (3D coordinates assigned)
CS(=O)(=O)[N-]c1cccc(-c2c([O-])[n-]c(=O)n2CC([NH-])=O)c1 (optimized conformer: 66.56500491023611 kcal/mol)

>  <smiles>  (10) 
CS(=O)(=O)Nc1cccc(-c2c(O)[nH]c(=O)n2CC(N)=O)c1

>  <score_type>  (10) 
oracle

>  <origin>  (10) 
adg

>  <m_score__min__energy>  (10) 
-15.359999999999999

>  <m_primary>  (10) 
energy

$$$$
10:0
     RDKit          3D

 59 62  0  0  0  0  0  0  0  0999 V2000
   60.6920   28.9560   45.7460 C   0  0  0  0  0  0  0  0  0  0  0  0
   60.1700   29.7020   46.9380 C   0  0  0  0  0  0  0  0  0  0  0  0
   60.9270   29.6980   48.0700 N   0  0  0  0  0  0  0  0  0  0  0  0
   60.5590   30.3260   49.2180 C   0  0  0  0  0  0  0  0  0  0  0  0
   61.5100   30.3120   50.3510 C   0  0  0  0  0  0  0  0  0  0  0  0
   62.9150   30.4420   50.1160 N   0  0  0  0  0  0  0  0  0  0  0  0
   61.0940   30.2270   51.5380 O   0  0  0  0  0  0  0  0  0  0  0  0
   59.3140   30.9890   49.2700 C   0  0  0  0  0  0  0  0  0  0  0  0
   58.8080   31.5690   50.4810 N   0  0  0  0  0  0  0  0  0  0  0  0
   58.5220   31.0200   48.1160 C   0  0  0  0  0  0  0  0  0  0  0  0
   58.9360   30.3930   46.9290 C   0  0  0  0  0  0  0  0  0  0  0  0
   58.0640   30.4940   45.7270 C   0  0  0  0  0  0  0  0  0  0  0  0
   57.0330   29.7780   45.6170 O   0  0  0  0  0  0  0  0  0  0  0  0
   58.4280   31.3810   44.6630 N   0  0  0  0  0  0  0  0  0  0  0  0
   57.7630   32.6510   44.3860 C   0  0  0  0  0  0  0  0  0  0  0  0
   57.7570   33.5470   45.6000 C   0  0  0  0  0  0  0  0  0  0  0  0
   56.6530   33.8330   46.1410 O   0  0  0  0  0  0  0  0  0  0  0  0
   58.9870   34.0850   46.1480 N   0  0  0  0  0  0  0  0  0  0  0  0
   60.2650   34.0010   45.4090 C   0  0  0  0  0  0  0  0  0  0  0  0
   61.4770   34.0570   46.3620 C   0  0  0  0  0  0  0  0  0  0  0  0
   61.1170   33.3810   47.6970 C   0  0  0  0  0  0  0  0  0  0  0  0
   62.2860   33.1900   48.5800 N   0  0  0  0  0  0  0  0  0  0  0  0
   62.2780   33.9000   49.8780 C   0  0  0  0  0  0  0  0  0  0  0  0
   63.6310   33.9850   50.5490 C   0  0  0  0  0  0  0  0  0  0  0  0
   63.8000   34.8550   51.6380 C   0  0  0  0  0  0  0  0  0  0  0  0
   65.0330   34.9390   52.2890 C   0  0  0  0  0  0  0  0  0  0  0  0
   66.1010   34.1390   51.8730 C   0  0  0  0  0  0  0  0  0  0  0  0
   65.9380   33.2530   50.8050 C   0  0  0  0  0  0  0  0  0  0  0  0
   64.7090   33.1770   50.1390 C   0  0  0  0  0  0  0  0  0  0  0  0
   64.5770   32.3120   49.0120 N   0  0  0  0  0  0  0  0  0  0  0  0
   63.3930   32.3280   48.2180 C   0  0  0  0  0  0  0  0  0  0  0  0
   63.3420   31.6020   47.1910 O   0  0  0  0  0  0  0  0  0  0  0  0
   59.9760   34.1310   48.4220 C   0  0  0  0  0  0  0  0  0  0  0  0
   58.9850   34.7870   47.4440 C   0  0  0  0  0  0  0  0  0  0  0  0
   61.2921   28.0984   46.0841 H   0  0  0  0  0  0  0  0  0  0  0  0
   59.8475   28.5963   45.1398 H   0  0  0  0  0  0  0  0  0  0  0  0
   61.3192   29.6262   45.1398 H   0  0  0  0  0  0  0  0  0  0  0  0
   63.2960   30.4900   49.1450 H   0  0  0  0  0  0  0  0  0  0  0  0
   63.5780   30.5000   50.9210 H   0  0  0  0  0  0  0  0  0  0  0  0
   59.2700   31.4170   51.4030 H   0  0  0  0  0  0  0  0  0  0  0  0
   57.8750   32.0370   50.4940 H   0  0  0  0  0  0  0  0  0  0  0  0
   57.5561   31.5459   48.1392 H   0  0  0  0  0  0  0  0  0  0  0  0
   58.2925   33.1610   43.5677 H   0  0  0  0  0  0  0  0  0  0  0  0
   56.7201   32.4412   44.1061 H   0  0  0  0  0  0  0  0  0  0  0  0
   60.2931   33.0534   44.8511 H   0  0  0  0  0  0  0  0  0  0  0  0
   60.3245   34.8611   44.7259 H   0  0  0  0  0  0  0  0  0  0  0  0
   62.3276   33.5315   45.9034 H   0  0  0  0  0  0  0  0  0  0  0  0
   61.7482   35.1070   46.5461 H   0  0  0  0  0  0  0  0  0  0  0  0
   60.7534   32.3740   47.4446 H   0  0  0  0  0  0  0  0  0  0  0  0
   61.9125   34.9236   49.7086 H   0  0  0  0  0  0  0  0  0  0  0  0
   61.6286   33.3202   50.5504 H   0  0  0  0  0  0  0  0  0  0  0  0
   62.9572   35.4735   51.9802 H   0  0  0  0  0  0  0  0  0  0  0  0
   65.1637   35.6357   53.1302 H   0  0  0  0  0  0  0  0  0  0  0  0
   67.0711   34.2070   52.3871 H   0  0  0  0  0  0  0  0  0  0  0  0
   66.7758   32.6149   50.4873 H   0  0  0  0  0  0  0  0  0  0  0  0
   59.4278   33.4148   49.0518 H   0  0  0  0  0  0  0  0  0  0  0  0
   60.4320   34.9321   49.0222 H   0  0  0  0  0  0  0  0  0  0  0  0
   57.9735   34.7469   47.8744 H   0  0  0  0  0  0  0  0  0  0  0  0
   59.2900   35.8311   47.2801 H   0  0  0  0  0  0  0  0  0  0  0  0
  1  2  1  0
  2  3  2  0
  3  4  1  0
  4  5  1  0
  5  6  1  0
  5  7  2  0
  4  8  2  0
  8  9  1  0
  8 10  1  0
 10 11  2  0
 11 12  1  0
 12 13  2  0
 12 14  1  0
 14 15  1  0
 15 16  1  0
 16 17  2  0
 16 18  1  0
 18 19  1  0
 19 20  1  0
 20 21  1  0
 21 22  1  0
 22 23  1  0
 23 24  1  0
 24 25  2  0
 25 26  1  0
 26 27  2  0
 27 28  1  0
 28 29  2  0
 29 30  1  0
 30 31  1  0
 31 32  2  0
 21 33  1  0
 33 34  1  0
 11  2  1  0
 34 18  1  0
 31 22  1  0
 29 24  1  0
  1 35  1  0
  1 36  1  0
  1 37  1  0
  6 38  1  0
  6 39  1  0
  9 40  1  0
  9 41  1  0
 10 42  1  0
 15 43  1  0
 15 44  1  0
 19 45  1  0
 19 46  1  0
 20 47  1  0
 20 48  1  0
 21 49  1  0
 23 50  1  0
 23 51  1  0
 25 52  1  0
 26 53  1  0
 27 54  1  0
 28 55  1  0
 33 56  1  0
 33 57  1  0
 34 58  1  0
 34 59  1  0
M  CHG  2  14  -1  30  -1
M  END
>  <UniqueID>  (11) 
11

>  <SMILES>  (11) 
Cc1nc(C(N)=O)c(N)cc1C(=O)[N-]CC(=O)N1CCC(N2Cc3ccccc3[N-]C2=O)CC1

>  <Energy>  (11) 
76.27277565499668

>  <Genealogy>  (11) 
Cc1nc(C(N)=O)c(N)cc1C(=O)[N-]CC(=O)N1CCC(N2Cc3ccccc3[N-]C2=O)CC1 (protonated)
Cc1nc(C(N)=O)c(N)cc1C(=O)[N-]CC(=O)N1CCC(N2Cc3ccccc3[N-]C2=O)CC1 (3D coordinates assigned)
Cc1nc(C(N)=O)c(N)cc1C(=O)[N-]CC(=O)N1CCC(N2Cc3ccccc3[N-]C2=O)CC1 (nonaromatic ring conformer: 76.27277565499668 kcal/mol)

>  <smiles>  (11) 
Cc1nc(C(N)=O)c(N)cc1C(=O)NCC(=O)N1CCC(N2Cc3ccccc3NC2=O)CC1

>  <score_type>  (11) 
oracle

>  <origin>  (11) 
adg

>  <m_score__min__energy>  (11) 
-11.59

>  <m_primary>  (11) 
energy

$$$$
11:0
     RDKit          3D

 40 41  0  0  0  0  0  0  0  0999 V2000
   60.7140   26.6420   49.7550 C   0  0  0  0  0  0  0  0  0  0  0  0
   60.0530   27.0330   48.4230 C   0  0  0  0  0  0  0  0  0  0  0  0
   60.4830   28.3480   47.8820 N   0  0  2  0  0  0  0  0  0  0  0  0
   60.1250   29.5010   48.7480 C   0  0  0  0  0  0  0  0  0  0  0  0
   59.8400   30.7520   47.9470 C   0  0  0  0  0  0  0  0  0  0  0  0
   58.5240   31.2230   47.8200 C   0  0  0  0  0  0  0  0  0  0  0  0
   58.2530   32.3650   47.0620 C   0  0  0  0  0  0  0  0  0  0  0  0
   59.2940   33.0530   46.4250 C   0  0  0  0  0  0  0  0  0  0  0  0
   58.9500   34.4790   45.4530 S   0  0  0  0  0  0  0  0  0  0  0  0
   57.1980   34.5900   45.1700 C   0  0  0  0  0  0  0  0  0  0  0  0
   59.6670   34.3830   44.1360 O   0  0  0  0  0  0  0  0  0  0  0  0
   59.4220   35.7110   46.1710 O   0  0  0  0  0  0  0  0  0  0  0  0
   60.6090   32.5810   46.5430 C   0  0  0  0  0  0  0  0  0  0  0  0
   60.8810   31.4390   47.3010 C   0  0  0  0  0  0  0  0  0  0  0  0
   59.9970   28.5350   46.5270 C   0  0  0  0  0  0  0  0  0  0  0  0
   60.7840   28.9320   45.6210 O   0  0  0  0  0  0  0  0  0  0  0  0
   58.5650   28.3220   46.1950 C   0  0  0  0  0  0  0  0  0  0  0  0
   57.8310   29.2950   45.5000 C   0  0  0  0  0  0  0  0  0  0  0  0
   56.4860   29.0440   45.2180 C   0  0  0  0  0  0  0  0  0  0  0  0
   55.8010   29.8970   44.5960 O   0  0  0  0  0  0  0  0  0  0  0  0
   55.9160   27.8790   45.6170 N   0  0  0  0  0  0  0  0  0  0  0  0
   56.6360   26.9450   46.2890 C   0  0  0  0  0  0  0  0  0  0  0  0
   56.0910   25.8710   46.6510 O   0  0  0  0  0  0  0  0  0  0  0  0
   57.9450   27.1700   46.5730 N   0  0  0  0  0  0  0  0  0  0  0  0
   60.0983   27.0062   50.5907 H   0  0  0  0  0  0  0  0  0  0  0  0
   60.8010   25.5470   49.8136 H   0  0  0  0  0  0  0  0  0  0  0  0
   61.7155   27.0931   49.8136 H   0  0  0  0  0  0  0  0  0  0  0  0
   60.2962   26.2599   47.6793 H   0  0  0  0  0  0  0  0  0  0  0  0
   58.9744   27.1155   48.6225 H   0  0  0  0  0  0  0  0  0  0  0  0
   61.5290   28.3300   47.8360 H   0  0  0  0  0  0  0  0  0  0  0  0
   59.2285   29.2415   49.3302 H   0  0  0  0  0  0  0  0  0  0  0  0
   60.9830   29.7090   49.4042 H   0  0  0  0  0  0  0  0  0  0  0  0
   57.7016   30.6903   48.3199 H   0  0  0  0  0  0  0  0  0  0  0  0
   57.2182   32.7253   46.9650 H   0  0  0  0  0  0  0  0  0  0  0  0
   56.6720   34.6233   46.1355 H   0  0  0  0  0  0  0  0  0  0  0  0
   56.9759   35.5040   44.5997 H   0  0  0  0  0  0  0  0  0  0  0  0
   56.8623   33.7113   44.5997 H   0  0  0  0  0  0  0  0  0  0  0  0
   61.4293   33.1114   46.0372 H   0  0  0  0  0  0  0  0  0  0  0  0
   61.9155   31.0763   47.3922 H   0  0  0  0  0  0  0  0  0  0  0  0
   58.3048   30.2360   45.1837 H   0  0  0  0  0  0  0  0  0  0  0  0
  1  2  1  0
  2  3  1  0
  3  4  1  0
  4  5  1  0
  5  6  2  0
  6  7  1  0
  7  8  2  0
  8  9  1  0
  9 10  1  0
  9 11  2  0
  9 12  2  0
  8 13  1  0
 13 14  2  0
  3 15  1  0
 15 16  2  0
 15 17  1  0
 17 18  2  0
 18 19  1  0
 19 20  2  0
 19 21  1  0
 21 22  1  0
 22 23  2  0
 22 24  1  0
 14  5  1  0
 24 17  1  0
  1 25  1  0
  1 26  1  0
  1 27  1  0
  2 28  1  0
  2 29  1  0
  3 30  1  6
  4 31  1  0
  4 32  1  0
  6 33  1  0
  7 34  1  0
 10 35  1  0
 10 36  1  0
 10 37  1  0
 13 38  1  0
 14 39  1  0
 18 40  1  0
M  CHG  3   3   1  21  -1  24  -1
M  END
>  <UniqueID>  (12) 
12

>  <SMILES>  (12) 
CC[N@H+](Cc1ccc(S(C)(=O)=O)cc1)C(=O)c1cc(=O)[n-]c(=O)[n-]1

>  <Energy>  (12) 
43.49020368589168

>  <Genealogy>  (12) 
CC[NH+](Cc1ccc(S(C)(=O)=O)cc1)C(=O)c1cc(=O)[n-]c(=O)[n-]1 (protonated)
CC[N@H+](Cc1ccc(S(C)(=O)=O)cc1)C(=O)c1cc(=O)[n-]c(=O)[n-]1 (chirality)
CC[N@H+](Cc1ccc(S(C)(=O)=O)cc1)C(=O)c1cc(=O)[n-]c(=O)[n-]1 (3D coordinates assigned)
CC[N@H+](Cc1ccc(S(C)(=O)=O)cc1)C(=O)c1cc(=O)[n-]c(=O)[n-]1 (optimized conformer: 43.49020368589168 kcal/mol)

>  <smiles>  (12) 
CCN(Cc1ccc(S(C)(=O)=O)cc1)C(=O)c1cc(=O)[nH]c(=O)[nH]1

>  <score_type>  (12) 
oracle

>  <origin>  (12) 
adg

>  <m_score__min__energy>  (12) 
-10.34

>  <m_primary>  (12) 
energy

$$$$
12:0
     RDKit          3D

 52 54  0  0  1  0  0  0  0  0999 V2000
   60.4630   32.0600   47.8580 O   0  0  0  0  0  0  0  0  0  0  0  0
   60.2950   33.2760   47.6120 C   0  0  0  0  0  0  0  0  0  0  0  0
   60.6560   33.9890   46.3990 C   0  0  0  0  0  0  0  0  0  0  0  0
   59.8080   35.2110   46.2100 C   0  0  0  0  0  0  0  0  0  0  0  0
   58.5990   34.8620   45.3810 C   0  0  0  0  0  0  0  0  0  0  0  0
   57.7850   33.7630   45.9590 C   0  0  0  0  0  0  0  0  0  0  0  0
   57.0640   32.8460   45.0650 C   0  0  0  0  0  0  0  0  0  0  0  0
   57.8600   31.7940   44.3710 C   0  0  0  0  0  0  0  0  0  0  0  0
   57.2660   30.4700   44.3380 C   0  0  0  0  0  0  0  0  0  0  0  0
   57.8810   29.3290   43.8250 O   0  0  0  0  0  0  0  0  0  0  0  0
   56.0630   30.2790   44.8140 N   0  0  0  0  0  0  0  0  0  0  0  0
   55.5180   29.0380   44.8290 O   0  0  0  0  0  0  0  0  0  0  0  0
   59.6700   34.0350   48.6700 N   0  0  0  0  0  0  0  0  0  0  0  0
   59.2710   33.4750   49.8930 C   0  0  0  0  0  0  0  0  0  0  0  0
   59.4890   33.7080   51.1860 C   0  0  0  0  0  0  0  0  0  0  0  0
   58.9110   32.9290   52.1110 C   0  0  0  0  0  0  0  0  0  0  0  0
   59.0160   33.0150   53.4890 N   0  0  0  0  0  0  0  0  0  0  0  0
   58.3690   32.1510   54.2820 C   0  0  0  0  0  0  0  0  0  0  0  0
   57.5820   31.1530   53.8570 N   0  0  0  0  0  0  0  0  0  0  0  0
   57.4440   31.0230   52.5190 C   0  0  0  0  0  0  0  0  0  0  0  0
   56.7160   30.1040   51.9770 N   0  0  0  0  0  0  0  0  0  0  0  0
   55.3290   30.0920   52.2910 C   0  0  0  0  0  0  0  0  0  0  0  0
   54.9380   29.2180   53.3000 C   0  0  0  0  0  0  0  0  0  0  0  0
   53.6170   29.1130   53.6990 C   0  0  0  0  0  0  0  0  0  0  0  0
   52.6850   29.9110   53.0580 C   0  0  0  0  0  0  0  0  0  0  0  0
   53.0840   30.7730   52.0580 C   0  0  0  0  0  0  0  0  0  0  0  0
   51.7530   31.8550   51.2030 Br  0  0  0  0  0  0  0  0  0  0  0  0
   54.4020   30.8830   51.6560 C   0  0  0  0  0  0  0  0  0  0  0  0
   58.1120   31.9150   51.6800 C   0  0  0  0  0  0  0  0  0  0  0  0
   58.1600   32.0430   49.8920 S   0  0  0  0  0  0  0  0  0  0  0  0
   61.7115   34.2921   46.4627 H   0  0  0  0  0  0  0  0  0  0  0  0
   60.4935   33.3188   45.5420 H   0  0  0  0  0  0  0  0  0  0  0  0
   59.4832   35.5869   47.1914 H   0  0  0  0  0  0  0  0  0  0  0  0
   60.3935   35.9867   45.6948 H   0  0  0  0  0  0  0  0  0  0  0  0
   57.9653   35.7570   45.2946 H   0  0  0  0  0  0  0  0  0  0  0  0
   58.9648   34.5155   44.4032 H   0  0  0  0  0  0  0  0  0  0  0  0
   58.4646   33.1478   46.5670 H   0  0  0  0  0  0  0  0  0  0  0  0
   56.9792   34.2914   46.4896 H   0  0  0  0  0  0  0  0  0  0  0  0
   56.2964   32.3359   45.6655 H   0  0  0  0  0  0  0  0  0  0  0  0
   56.6805   33.4862   44.2568 H   0  0  0  0  0  0  0  0  0  0  0  0
   58.0162   32.1196   43.3320 H   0  0  0  0  0  0  0  0  0  0  0  0
   58.7882   31.6902   44.9522 H   0  0  0  0  0  0  0  0  0  0  0  0
   58.1210   29.2990   42.8370 H   0  0  0  0  0  0  0  0  0  0  0  0
   55.8960   28.2160   44.3970 H   0  0  0  0  0  0  0  0  0  0  0  0
   59.5250   35.0710   48.4650 H   0  0  0  0  0  0  0  0  0  0  0  0
   60.1419   34.5379   51.4941 H   0  0  0  0  0  0  0  0  0  0  0  0
   58.4935   32.2700   55.3684 H   0  0  0  0  0  0  0  0  0  0  0  0
   57.0830   30.4870   54.4630 H   0  0  0  0  0  0  0  0  0  0  0  0
   55.6981   28.5944   53.7933 H   0  0  0  0  0  0  0  0  0  0  0  0
   53.3178   28.4190   54.4983 H   0  0  0  0  0  0  0  0  0  0  0  0
   51.6249   29.8575   53.3466 H   0  0  0  0  0  0  0  0  0  0  0  0
   54.6980   31.5785   50.8568 H   0  0  0  0  0  0  0  0  0  0  0  0
  1  2  2  0
  2  3  1  0
  3  4  1  0
  4  5  1  0
  5  6  1  0
  6  7  1  0
  7  8  1  0
  8  9  1  0
  9 10  1  0
  9 11  2  0
 11 12  1  0
  2 13  1  0
 13 14  1  0
 14 15  2  0
 15 16  1  0
 16 17  1  0
 17 18  2  0
 18 19  1  0
 19 20  1  0
 20 21  2  0
 21 22  1  0
 22 23  2  0
 23 24  1  0
 24 25  2  0
 25 26  1  0
 26 27  1  0
 26 28  2  0
 20 29  1  0
 29 30  1  0
 30 14  1  0
 29 16  2  0
 28 22  1  0
  3 31  1  0
  3 32  1  0
  4 33  1  0
  4 34  1  0
  5 35  1  0
  5 36  1  0
  6 37  1  0
  6 38  1  0
  7 39  1  0
  7 40  1  0
  8 41  1  0
  8 42  1  0
 10 43  1  0
 12 44  1  0
 13 45  1  0
 15 46  1  0
 18 47  1  0
 19 48  1  0
 23 49  1  0
 24 50  1  0
 25 51  1  0
 28 52  1  0
M  END
>  <smiles>  (13) 
O=C(CCCCCCC(O)=NO)Nc1cc2nc[nH]c(=Nc3cccc(Br)c3)c2s1

>  <score_type>  (13) 
oracle

>  <origin>  (13) 
adg

>  <m_score__min__energy>  (13) 
-9.5099999999999998

>  <m_primary>  (13) 
energy

$$$$
13:0
     RDKit          3D

 29 29  0  0  0  0  0  0  0  0999 V2000
   56.3190   25.1490   47.1630 O   0  0  0  0  0  0  0  0  0  0  0  0
   56.3240   26.1740   46.4320 C   0  0  0  0  0  0  0  0  0  0  0  0
   55.1220   26.7150   45.9960 O   0  0  0  0  0  0  0  0  0  0  0  0
   57.6170   26.8410   46.0790 C   0  0  0  0  0  0  0  0  0  0  0  0
   57.4130   28.3560   45.9280 C   0  0  0  0  0  0  0  0  0  0  0  0
   56.7720   28.7020   44.6490 N   0  0  0  0  0  0  0  0  0  0  0  0
   56.4430   30.1340   44.5400 C   0  0  0  0  0  0  0  0  0  0  0  0
   57.6210   30.9040   43.9390 C   0  0  0  0  0  0  0  0  0  0  0  0
   58.0150   32.0750   44.8010 C   0  0  0  0  0  0  0  0  0  0  0  0
   58.2670   33.3290   44.2230 C   0  0  0  0  0  0  0  0  0  0  0  0
   58.6770   34.4020   45.0210 C   0  0  0  0  0  0  0  0  0  0  0  0
   58.8450   34.2320   46.3990 C   0  0  0  0  0  0  0  0  0  0  0  0
   59.2540   35.3100   47.1810 O   0  0  0  0  0  0  0  0  0  0  0  0
   58.6010   32.9800   46.9790 C   0  0  0  0  0  0  0  0  0  0  0  0
   58.1920   31.9050   46.1850 C   0  0  0  0  0  0  0  0  0  0  0  0
   58.3520   26.6516   46.8752 H   0  0  0  0  0  0  0  0  0  0  0  0
   57.9808   26.4326   45.1246 H   0  0  0  0  0  0  0  0  0  0  0  0
   56.7770   28.7124   46.7517 H   0  0  0  0  0  0  0  0  0  0  0  0
   58.4025   28.8359   45.9525 H   0  0  0  0  0  0  0  0  0  0  0  0
   55.9050   28.1280   44.5240 H   0  0  0  0  0  0  0  0  0  0  0  0
   55.5616   30.2559   43.8932 H   0  0  0  0  0  0  0  0  0  0  0  0
   56.2306   30.5303   45.5439 H   0  0  0  0  0  0  0  0  0  0  0  0
   58.4809   30.2246   43.8449 H   0  0  0  0  0  0  0  0  0  0  0  0
   57.3149   31.2885   42.9549 H   0  0  0  0  0  0  0  0  0  0  0  0
   58.1417   33.4683   43.1391 H   0  0  0  0  0  0  0  0  0  0  0  0
   58.8681   35.3836   44.5629 H   0  0  0  0  0  0  0  0  0  0  0  0
   58.6000   36.0200   47.4870 H   0  0  0  0  0  0  0  0  0  0  0  0
   58.7318   32.8428   48.0626 H   0  0  0  0  0  0  0  0  0  0  0  0
   58.0080   30.9227   46.6447 H   0  0  0  0  0  0  0  0  0  0  0  0
  1  2  2  0
  2  3  1  0
  2  4  1  0
  4  5  1  0
  5  6  1  0
  6  7  1  0
  7  8  1  0
  8  9  1  0
  9 10  2  0
 10 11  1  0
 11 12  2  0
 12 13  1  0
 12 14  1  0
 14 15  2  0
 15  9  1  0
  4 16  1  0
  4 17  1  0
  5 18  1  0
  5 19  1  0
  6 20  1  0
  7 21  1  0
  7 22  1  0
  8 23  1  0
  8 24  1  0
 10 25  1  0
 11 26  1  0
 13 27  1  0
 14 28  1  0
 15 29  1  0
M  CHG  1   3  -1
M  END
>  <UniqueID>  (14) 
13

>  <SMILES>  (14) 
O=C([O-])CCNCCc1ccc(O)cc1

>  <Energy>  (14) 
22.415331340631926

>  <Genealogy>  (14) 
O=C([O-])CCNCCc1ccc(O)cc1 (protonated)
O=C([O-])CCNCCc1ccc(O)cc1 (3D coordinates assigned)
O=C([O-])CCNCCc1ccc(O)cc1 (optimized conformer: 22.415331340631926 kcal/mol)

>  <smiles>  (14) 
O=C(O)CCNCCc1ccc(O)cc1

>  <score_type>  (14) 
oracle

>  <origin>  (14) 
adg

>  <m_score__min__energy>  (14) 
-8.5600000000000005

>  <m_primary>  (14) 
energy

$$$$
14:0
     RDKit          3D

 39 40  0  0  0  0  0  0  0  0999 V2000
   56.2920   22.4160   42.6240 C   0  0  0  0  0  0  0  0  0  0  0  0
   56.6500   22.1060   44.0790 C   0  0  0  0  0  0  0  0  0  0  0  0
   57.9530   22.7880   44.5170 C   0  0  0  0  0  0  0  0  0  0  0  0
   57.6960   24.1030   45.1960 C   0  0  0  0  0  0  0  0  0  0  0  0
   56.3980   24.6180   45.2960 C   0  0  0  0  0  0  0  0  0  0  0  0
   56.2150   25.8420   45.9440 C   0  0  0  0  0  0  0  0  0  0  0  0
   55.0590   26.3310   46.0470 O   0  0  0  0  0  0  0  0  0  0  0  0
   57.2840   26.5050   46.4620 N   0  0  0  0  0  0  0  0  0  0  0  0
   58.5390   25.9850   46.3600 C   0  0  0  0  0  0  0  0  0  0  0  0
   59.9460   26.8730   47.0230 S   0  0  0  0  0  0  0  0  0  0  0  0
   60.1680   27.9540   45.5620 C   0  0  0  0  0  0  0  0  0  0  0  0
   58.8810   28.6760   45.1910 C   0  0  0  0  0  0  0  0  0  0  0  0
   58.1230   28.3050   44.0490 C   0  0  0  0  0  0  0  0  0  0  0  0
   58.4770   27.1140   43.1940 C   0  0  0  0  0  0  0  0  0  0  0  0
   56.9900   29.0550   43.7120 C   0  0  0  0  0  0  0  0  0  0  0  0
   56.6210   30.1330   44.5100 C   0  0  0  0  0  0  0  0  0  0  0  0
   55.6080   30.8190   44.2120 O   0  0  0  0  0  0  0  0  0  0  0  0
   57.3270   30.4420   45.5880 O   0  0  0  0  0  0  0  0  0  0  0  0
   58.4130   29.7720   45.9650 C   0  0  0  0  0  0  0  0  0  0  0  0
   59.1050   30.2290   47.2170 C   0  0  0  0  0  0  0  0  0  0  0  0
   58.7320   24.7910   45.7420 N   0  0  0  0  0  0  0  0  0  0  0  0
   55.4607   23.1358   42.5963 H   0  0  0  0  0  0  0  0  0  0  0  0
   57.1669   22.8465   42.1148 H   0  0  0  0  0  0  0  0  0  0  0  0
   55.9910   21.4885   42.1148 H   0  0  0  0  0  0  0  0  0  0  0  0
   55.8326   22.4561   44.7266 H   0  0  0  0  0  0  0  0  0  0  0  0
   56.7940   21.0189   44.1655 H   0  0  0  0  0  0  0  0  0  0  0  0
   58.4841   22.1248   45.2156 H   0  0  0  0  0  0  0  0  0  0  0  0
   58.5560   22.9809   43.6174 H   0  0  0  0  0  0  0  0  0  0  0  0
   55.5418   24.0713   44.8740 H   0  0  0  0  0  0  0  0  0  0  0  0
   57.1440   27.4240   46.9390 H   0  0  0  0  0  0  0  0  0  0  0  0
   60.9432   28.7014   45.7868 H   0  0  0  0  0  0  0  0  0  0  0  0
   60.4623   27.3219   44.7112 H   0  0  0  0  0  0  0  0  0  0  0  0
   58.7306   26.2609   43.8405 H   0  0  0  0  0  0  0  0  0  0  0  0
   57.6184   26.8503   42.5590 H   0  0  0  0  0  0  0  0  0  0  0  0
   59.3402   27.3621   42.5590 H   0  0  0  0  0  0  0  0  0  0  0  0
   56.3964   28.7940   42.8235 H   0  0  0  0  0  0  0  0  0  0  0  0
   58.5525   29.8641   48.0954 H   0  0  0  0  0  0  0  0  0  0  0  0
   60.1297   29.8294   47.2363 H   0  0  0  0  0  0  0  0  0  0  0  0
   59.1398   31.3283   47.2363 H   0  0  0  0  0  0  0  0  0  0  0  0
  1  2  1  0
  2  3  1  0
  3  4  1  0
  4  5  2  0
  5  6  1  0
  6  7  2  0
  6  8  1  0
  8  9  1  0
  9 10  1  0
 10 11  1  0
 11 12  1  0
 12 13  1  0
 13 14  1  0
 13 15  2  0
 15 16  1  0
 16 17  2  0
 16 18  1  0
 18 19  1  0
 19 20  1  0
  9 21  2  0
 21  4  1  0
 19 12  2  0
  1 22  1  0
  1 23  1  0
  1 24  1  0
  2 25  1  0
  2 26  1  0
  3 27  1  0
  3 28  1  0
  5 29  1  0
  8 30  1  0
 11 31  1  0
 11 32  1  0
 14 33  1  0
 14 34  1  0
 14 35  1  0
 15 36  1  0
 20 37  1  0
 20 38  1  0
 20 39  1  0
M  END
>  <UniqueID>  (15) 
14

>  <SMILES>  (15) 
CCCc1cc(=O)[nH]c(SCc2c(C)cc(=O)oc2C)n1

>  <Energy>  (15) 
32.18904054545907

>  <Genealogy>  (15) 
CCCc1cc(=O)[nH]c(SCc2c(C)cc(=O)oc2C)n1 (3D coordinates assigned)
CCCc1cc(=O)[nH]c(SCc2c(C)cc(=O)oc2C)n1 (optimized conformer: 32.18904054545907 kcal/mol)

>  <smiles>  (15) 
CCCc1cc(=O)[nH]c(SCc2c(C)cc(=O)oc2C)n1

>  <score_type>  (15) 
oracle

>  <origin>  (15) 
adg

>  <m_score__min__energy>  (15) 
-7.5700000000000003

>  <m_primary>  (15) 
energy

$$$$
15:0
     RDKit          3D

 54 57  0  0  0  0  0  0  0  0999 V2000
   53.2010   30.5000   55.1620 O   0  0  0  0  0  0  0  0  0  0  0  0
   53.5660   30.2630   53.9800 C   0  0  0  0  0  0  0  0  0  0  0  0
   52.7690   30.7880   52.8440 C   0  0  0  0  0  0  0  0  0  0  0  0
   53.0580   30.3680   51.5310 C   0  0  0  0  0  0  0  0  0  0  0  0
   52.3460   30.8860   50.4480 C   0  0  0  0  0  0  0  0  0  0  0  0
   51.3370   31.8280   50.6560 C   0  0  0  0  0  0  0  0  0  0  0  0
   50.6360   32.3410   49.5710 O   0  0  0  0  0  0  0  0  0  0  0  0
   51.0400   32.2580   51.9540 C   0  0  0  0  0  0  0  0  0  0  0  0
   50.0370   33.1990   52.1590 O   0  0  0  0  0  0  0  0  0  0  0  0
   51.7500   31.7430   53.0470 C   0  0  0  0  0  0  0  0  0  0  0  0
   51.4280   32.1760   54.3290 O   0  0  0  0  0  0  0  0  0  0  0  0
   54.8010   29.4890   53.7610 C   0  0  0  0  0  0  0  0  0  0  0  0
   55.9600   29.9190   53.1430 C   0  0  0  0  0  0  0  0  0  0  0  0
   56.1540   31.2030   52.3910 C   0  0  0  0  0  0  0  0  0  0  0  0
   57.5240   31.8140   52.7540 C   0  0  0  0  0  0  0  0  0  0  0  0
   58.4710   31.9180   51.6180 N   0  0  0  0  0  0  0  0  0  0  0  0
   59.8380   32.3300   52.0150 C   0  0  0  0  0  0  0  0  0  0  0  0
   60.7050   32.6100   50.8110 C   0  0  0  0  0  0  0  0  0  0  0  0
   61.6290   31.6530   50.3600 C   0  0  0  0  0  0  0  0  0  0  0  0
   62.4370   31.9210   49.2520 C   0  0  0  0  0  0  0  0  0  0  0  0
   62.3300   33.1470   48.5860 C   0  0  0  0  0  0  0  0  0  0  0  0
   63.3530   33.4840   47.2020 Cl  0  0  0  0  0  0  0  0  0  0  0  0
   61.4040   34.0990   49.0220 C   0  0  0  0  0  0  0  0  0  0  0  0
   60.5880   33.8310   50.1250 C   0  0  0  0  0  0  0  0  0  0  0  0
   58.4840   30.7000   50.7820 C   0  0  0  0  0  0  0  0  0  0  0  0
   58.5370   31.0720   49.3280 C   0  0  0  0  0  0  0  0  0  0  0  0
   58.1500   32.3480   48.8930 C   0  0  0  0  0  0  0  0  0  0  0  0
   58.1960   32.6510   47.5290 C   0  0  0  0  0  0  0  0  0  0  0  0
   57.8530   33.7950   47.1260 O   0  0  0  0  0  0  0  0  0  0  0  0
   58.6240   31.6810   46.6160 C   0  0  0  0  0  0  0  0  0  0  0  0
   58.6780   31.9620   45.2560 O   0  0  0  0  0  0  0  0  0  0  0  0
   59.0010   30.4200   47.0860 C   0  0  0  0  0  0  0  0  0  0  0  0
   58.9480   30.1450   48.4180 N   0  0  0  0  0  0  0  0  0  0  0  0
   56.8160   28.8320   53.1220 C   0  0  0  0  0  0  0  0  0  0  0  0
   56.2490   27.7590   53.7150 N   0  0  0  0  0  0  0  0  0  0  0  0
   55.0240   28.1710   54.0960 C   0  0  0  0  0  0  0  0  0  0  0  0
   54.1150   27.3470   54.7480 O   0  0  0  0  0  0  0  0  0  0  0  0
   53.8512   29.6258   51.3577 H   0  0  0  0  0  0  0  0  0  0  0  0
   52.5808   30.5508   49.4270 H   0  0  0  0  0  0  0  0  0  0  0  0
   56.1172   31.0032   51.3099 H   0  0  0  0  0  0  0  0  0  0  0  0
   55.3556   31.9094   52.6624 H   0  0  0  0  0  0  0  0  0  0  0  0
   57.3544   32.8247   53.1536 H   0  0  0  0  0  0  0  0  0  0  0  0
   57.9859   31.1343   53.4853 H   0  0  0  0  0  0  0  0  0  0  0  0
   59.7726   33.2413   52.6276 H   0  0  0  0  0  0  0  0  0  0  0  0
   60.2943   31.5065   52.5839 H   0  0  0  0  0  0  0  0  0  0  0  0
   61.7169   30.6884   50.8814 H   0  0  0  0  0  0  0  0  0  0  0  0
   63.1581   31.1673   48.9028 H   0  0  0  0  0  0  0  0  0  0  0  0
   61.3172   35.0612   48.4960 H   0  0  0  0  0  0  0  0  0  0  0  0
   59.8521   34.5781   50.4570 H   0  0  0  0  0  0  0  0  0  0  0  0
   59.3669   30.0946   51.0350 H   0  0  0  0  0  0  0  0  0  0  0  0
   57.5671   30.1230   50.9726 H   0  0  0  0  0  0  0  0  0  0  0  0
   57.8134   33.1033   49.6184 H   0  0  0  0  0  0  0  0  0  0  0  0
   59.3409   29.6490   46.3788 H   0  0  0  0  0  0  0  0  0  0  0  0
   57.8238   28.8406   52.6812 H   0  0  0  0  0  0  0  0  0  0  0  0
  1  2  2  0
  2  3  1  0
  3  4  2  0
  4  5  1  0
  5  6  2  0
  6  7  1  0
  6  8  1  0
  8  9  1  0
  8 10  2  0
 10 11  1  0
  2 12  1  0
 12 13  1  0
 13 14  1  0
 14 15  1  0
 15 16  1  0
 16 17  1  0
 17 18  1  0
 18 19  2  0
 19 20  1  0
 20 21  2  0
 21 22  1  0
 21 23  1  0
 23 24  2  0
 16 25  1  0
 25 26  1  0
 26 27  2  0
 27 28  1  0
 28 29  2  0
 28 30  1  0
 30 31  1  0
 30 32  2  0
 32 33  1  0
 13 34  2  0
 34 35  1  0
 35 36  1  0
 36 37  1  0
 10  3  1  0
 36 12  2  0
 24 18  1  0
 33 26  1  0
  4 38  1  0
  5 39  1  0
 14 40  1  0
 14 41  1  0
 15 42  1  0
 15 43  1  0
 17 44  1  0
 17 45  1  0
 19 46  1  0
 20 47  1  0
 23 48  1  0
 24 49  1  0
 25 50  1  0
 25 51  1  0
 27 52  1  0
 32 53  1  0
 34 54  1  0
M  CHG  7   7  -1   9  -1  11  -1  31  -1  33  -1  35  -1  37  -1
M  END
>  <UniqueID>  (16) 
15

>  <SMILES>  (16) 
O=C(c1ccc([O-])c([O-])c1[O-])c1c(CCN(Cc2ccc(Cl)cc2)Cc2cc(=O)c([O-])c[n-]2)c[n-]c1[O-]

>  <Energy>  (16) 
91.10572413495966

>  <Genealogy>  (16) 
O=C(c1ccc([O-])c([O-])c1[O-])c1c(CCN(Cc2ccc(Cl)cc2)Cc2cc(=O)c([O-])c[n-]2)c[n-]c1[O-] (protonated)
O=C(c1ccc([O-])c([O-])c1[O-])c1c(CCN(Cc2ccc(Cl)cc2)Cc2cc(=O)c([O-])c[n-]2)c[n-]c1[O-] (3D coordinates assigned)
O=C(c1ccc([O-])c([O-])c1[O-])c1c(CCN(Cc2ccc(Cl)cc2)Cc2cc(=O)c([O-])c[n-]2)c[n-]c1[O-] (optimized conformer: 91.10572413495966 kcal/mol)

>  <smiles>  (16) 
O=C(c1ccc(O)c(O)c1O)c1c(CCN(Cc2ccc(Cl)cc2)Cc2cc(=O)c(O)c[nH]2)c[nH]c1O

>  <score_type>  (16) 
oracle

>  <origin>  (16) 
adg

>  <m_score__min__energy>  (16) 
-22.710000000000001

>  <m_primary>  (16) 
energy

$$$$
16:0
     RDKit          3D

 52 54  0  0  0  0  0  0  0  0999 V2000
   58.9450   29.5380   49.6880 C   0  0  0  0  0  0  0  0  0  0  0  0
   59.4120   28.7830   48.4780 C   0  0  0  0  0  0  0  0  0  0  0  0
   60.2940   27.7010   48.6170 C   0  0  0  0  0  0  0  0  0  0  0  0
   60.7060   26.9800   47.4930 C   0  0  0  0  0  0  0  0  0  0  0  0
   60.2310   27.3260   46.2250 C   0  0  0  0  0  0  0  0  0  0  0  0
   59.3210   28.3840   46.0750 C   0  0  0  0  0  0  0  0  0  0  0  0
   58.8170   28.7630   44.7130 C   0  0  0  0  0  0  0  0  0  0  0  0
   57.4660   28.2370   44.5360 N   0  0  0  0  0  0  0  0  0  0  0  0
   56.3950   29.5140   44.0500 S   0  0  0  0  0  0  0  0  0  0  0  0
   56.0020   29.3400   42.6070 O   0  0  0  0  0  0  0  0  0  0  0  0
   55.1520   29.4640   44.8920 O   0  0  0  0  0  0  0  0  0  0  0  0
   57.1880   31.0690   44.2810 C   0  0  0  0  0  0  0  0  0  0  0  0
   57.6520   31.8040   43.1800 C   0  0  0  0  0  0  0  0  0  0  0  0
   58.3320   33.0100   43.3750 C   0  0  0  0  0  0  0  0  0  0  0  0
   58.5730   33.4840   44.6730 C   0  0  0  0  0  0  0  0  0  0  0  0
   59.3050   34.7550   44.8570 C   0  0  0  0  0  0  0  0  0  0  0  0
   59.5650   35.3250   46.0440 C   0  0  0  0  0  0  0  0  0  0  0  0
   60.3100   34.6840   47.1450 C   0  0  0  0  0  0  0  0  0  0  0  0
   59.7770   34.6290   48.2860 O   0  0  0  0  0  0  0  0  0  0  0  0
   61.6540   34.2130   46.9560 N   0  0  0  0  0  0  0  0  0  0  0  0
   62.2730   33.2420   47.8180 C   0  0  0  0  0  0  0  0  0  0  0  0
   63.6060   33.4230   48.2330 C   0  0  0  0  0  0  0  0  0  0  0  0
   64.1990   32.5300   49.1280 C   0  0  0  0  0  0  0  0  0  0  0  0
   63.4680   31.4510   49.6240 C   0  0  0  0  0  0  0  0  0  0  0  0
   62.1470   31.2560   49.2210 C   0  0  0  0  0  0  0  0  0  0  0  0
   61.5360   32.1440   48.3200 C   0  0  0  0  0  0  0  0  0  0  0  0
   60.1870   31.8960   47.9040 N   0  0  0  0  0  0  0  0  0  0  0  0
   58.0700   32.7660   45.7720 C   0  0  0  0  0  0  0  0  0  0  0  0
   57.3980   31.5580   45.5760 C   0  0  0  0  0  0  0  0  0  0  0  0
   58.9190   29.1140   47.2050 C   0  0  0  0  0  0  0  0  0  0  0  0
   59.2708   29.0113   50.5971 H   0  0  0  0  0  0  0  0  0  0  0  0
   59.3748   30.5505   49.6769 H   0  0  0  0  0  0  0  0  0  0  0  0
   57.8471   29.6056   49.6769 H   0  0  0  0  0  0  0  0  0  0  0  0
   60.6626   27.4191   49.6143 H   0  0  0  0  0  0  0  0  0  0  0  0
   61.4054   26.1386   47.6065 H   0  0  0  0  0  0  0  0  0  0  0  0
   60.5717   26.7669   45.3410 H   0  0  0  0  0  0  0  0  0  0  0  0
   58.8002   29.8588   44.6190 H   0  0  0  0  0  0  0  0  0  0  0  0
   59.4807   28.3418   43.9435 H   0  0  0  0  0  0  0  0  0  0  0  0
   57.4803   31.4303   42.1598 H   0  0  0  0  0  0  0  0  0  0  0  0
   58.6794   33.5895   42.5070 H   0  0  0  0  0  0  0  0  0  0  0  0
   59.6631   35.2718   43.9544 H   0  0  0  0  0  0  0  0  0  0  0  0
   59.1947   36.3476   46.2087 H   0  0  0  0  0  0  0  0  0  0  0  0
   62.2020   34.5880   46.1490 H   0  0  0  0  0  0  0  0  0  0  0  0
   64.1856   34.2754   47.8489 H   0  0  0  0  0  0  0  0  0  0  0  0
   65.2429   32.6777   49.4418 H   0  0  0  0  0  0  0  0  0  0  0  0
   63.9340   30.7523   50.3344 H   0  0  0  0  0  0  0  0  0  0  0  0
   61.5786   30.3993   49.6121 H   0  0  0  0  0  0  0  0  0  0  0  0
   59.9750   31.1240   47.2320 H   0  0  0  0  0  0  0  0  0  0  0  0
   59.3940   32.5040   48.2050 H   0  0  0  0  0  0  0  0  0  0  0  0
   58.2065   33.1577   46.7908 H   0  0  0  0  0  0  0  0  0  0  0  0
   57.0320   30.9880   46.4427 H   0  0  0  0  0  0  0  0  0  0  0  0
   58.2135   29.9504   47.0927 H   0  0  0  0  0  0  0  0  0  0  0  0
  1  2  1  0
  2  3  2  0
  3  4  1  0
  4  5  2  0
  5  6  1  0
  6  7  1  0
  7  8  1  0
  8  9  1  0
  9 10  2  0
  9 11  2  0
  9 12  1  0
 12 13  2  0
 13 14  1  0
 14 15  2  0
 15 16  1  0
 16 17  2  3
 17 18  1  0
 18 19  2  0
 18 20  1  0
 20 21  1  0
 21 22  2  0
 22 23  1  0
 23 24  2  0
 24 25  1  0
 25 26  2  0
 26 27  1  0
 15 28  1  0
 28 29  2  0
  6 30  2  0
 30  2  1  0
 29 12  1  0
 26 21  1  0
  1 31  1  0
  1 32  1  0
  1 33  1  0
  3 34  1  0
  4 35  1  0
  5 36  1  0
  7 37  1  0
  7 38  1  0
 13 39  1  0
 14 40  1  0
 16 41  1  0
 17 42  1  0
 20 43  1  0
 22 44  1  0
 23 45  1  0
 24 46  1  0
 25 47  1  0
 27 48  1  0
 27 49  1  0
 28 50  1  0
 29 51  1  0
 30 52  1  0
M  CHG  1   8  -1
M  END
>  <UniqueID>  (17) 
16

>  <SMILES>  (17) 
Cc1cccc(C[N-]S(=O)(=O)c2ccc(C=CC(=O)Nc3ccccc3N)cc2)c1

>  <Energy>  (17) 
59.68093049427233

>  <Genealogy>  (17) 
Cc1cccc(C[N-]S(=O)(=O)c2ccc(C=CC(=O)Nc3ccccc3N)cc2)c1 (protonated)
Cc1cccc(C[N-]S(=O)(=O)c2ccc(C=CC(=O)Nc3ccccc3N)cc2)c1 (3D coordinates assigned)
Cc1cccc(C[N-]S(=O)(=O)c2ccc(C=CC(=O)Nc3ccccc3N)cc2)c1 (optimized conformer: 59.68093049427233 kcal/mol)

>  <smiles>  (17) 
Cc1cccc(CNS(=O)(=O)c2ccc(C=CC(=O)Nc3ccccc3N)cc2)c1

>  <score_type>  (17) 
oracle

>  <origin>  (17) 
adg

>  <m_score__min__energy>  (17) 
-10.74

>  <m_primary>  (17) 
energy

$$$$
17:0
     RDKit          3D

 39 41  0  0  0  0  0  0  0  0999 V2000
   54.3780   26.7150   45.1640 H   0  0  0  0  0  0  0  0  0  0  0  0
   54.8290   26.6930   46.0710 O   0  0  0  0  0  0  0  0  0  0  0  0
   55.8160   25.7520   46.3540 C   0  0  0  0  0  0  0  0  0  0  0  0
   55.4600   24.4910   46.7170 N   0  0  0  0  0  0  0  0  0  0  0  0
   56.3970   23.5520   47.0030 C   0  0  0  0  0  0  0  0  0  0  0  0
   55.9380   22.0470   47.4320 S   0  0  0  0  0  0  0  0  0  0  0  0
   57.7160   23.8670   46.9450 N   0  0  0  0  0  0  0  0  0  0  0  0
   58.1250   25.1130   46.5900 C   0  0  0  0  0  0  0  0  0  0  0  0
   59.3570   25.3780   46.5800 O   0  0  0  0  0  0  0  0  0  0  0  0
   57.1730   26.0960   46.2580 C   0  0  0  0  0  0  0  0  0  0  0  0
   57.5630   27.4750   45.8900 C   0  0  0  0  0  0  0  0  0  0  0  0
   57.0783   27.9382   45.0179 H   0  0  0  0  0  0  0  0  0  0  0  0
   58.4810   28.1940   46.5670 C   0  0  0  0  0  0  0  0  0  0  0  0
   58.5780   28.2950   47.9470 C   0  0  0  0  0  0  0  0  0  0  0  0
   57.9136   27.8279   48.6889 H   0  0  0  0  0  0  0  0  0  0  0  0
   59.6710   29.0960   48.2070 C   0  0  0  0  0  0  0  0  0  0  0  0
   60.1030   29.5020   49.5850 C   0  0  0  0  0  0  0  0  0  0  0  0
   59.5144   28.9488   50.3317 H   0  0  0  0  0  0  0  0  0  0  0  0
   61.1708   29.2730   49.7169 H   0  0  0  0  0  0  0  0  0  0  0  0
   59.9406   30.5819   49.7169 H   0  0  0  0  0  0  0  0  0  0  0  0
   60.2560   29.4990   47.0530 N   0  0  0  0  0  0  0  0  0  0  0  0
   61.4120   30.4070   46.9600 C   0  0  0  0  0  0  0  0  0  0  0  0
   62.0220   30.3093   47.8701 H   0  0  0  0  0  0  0  0  0  0  0  0
   62.0038   30.1364   46.0731 H   0  0  0  0  0  0  0  0  0  0  0  0
   60.9570   31.8350   46.8210 C   0  0  0  0  0  0  0  0  0  0  0  0
   61.8310   32.8920   47.1260 C   0  0  0  0  0  0  0  0  0  0  0  0
   62.8497   32.6752   47.4798 H   0  0  0  0  0  0  0  0  0  0  0  0
   61.4120   34.2180   46.9820 C   0  0  0  0  0  0  0  0  0  0  0  0
   62.1021   35.0408   47.2202 H   0  0  0  0  0  0  0  0  0  0  0  0
   60.1180   34.5000   46.5360 C   0  0  0  0  0  0  0  0  0  0  0  0
   59.7910   35.5441   46.4225 H   0  0  0  0  0  0  0  0  0  0  0  0
   59.2390   33.4560   46.2340 C   0  0  0  0  0  0  0  0  0  0  0  0
   57.4720   33.8420   45.6230 Br  0  0  0  0  0  0  0  0  0  0  0  0
   59.6550   32.1280   46.3780 C   0  0  0  0  0  0  0  0  0  0  0  0
   58.9597   31.3085   46.1434 H   0  0  0  0  0  0  0  0  0  0  0  0
   59.5330   28.9490   46.0400 C   0  0  0  0  0  0  0  0  0  0  0  0
   59.7920   29.1260   44.7330 C   0  0  0  0  0  0  0  0  0  0  0  0
   60.6484   29.7415   44.4204 H   0  0  0  0  0  0  0  0  0  0  0  0
   59.1475   28.6553   43.9759 H   0  0  0  0  0  0  0  0  0  0  0  0
  1  2  1  0
  2  3  1  0
  3  4  1  0
  4  5  1  0
  5  6  2  0
  5  7  1  0
  7  8  1  0
  8  9  2  0
  8 10  1  0
 10 11  1  0
 11 12  1  0
 11 13  2  0
 13 14  1  0
 14 15  1  0
 14 16  2  0
 16 17  1  0
 17 18  1  0
 17 19  1  0
 17 20  1  0
 16 21  1  0
 21 22  1  0
 22 23  1  0
 22 24  1  0
 22 25  1  0
 25 26  2  0
 26 27  1  0
 26 28  1  0
 28 29  1  0
 28 30  2  0
 30 31  1  0
 30 32  1  0
 32 33  1  0
 32 34  2  0
 34 35  1  0
 21 36  1  0
 36 37  2  0
 37 38  1  0
 37 39  1  0
 10  3  2  0
 36 13  1  0
 34 25  1  0
M  CHG  2   4  -1   7  -1
M  END
>  <UniqueID>  (18) 
17

>  <SMILES>  (18) 
C=c1/c(=C/c2c(O)[n-]c(=S)[n-]c2=O)cc(C)n1Cc1cccc(Br)c1

>  <Energy>  (18) 
78.61636786406035

>  <Genealogy>  (18) 
C=c1c(=Cc2c(O)[n-]c(=S)[n-]c2=O)cc(C)n1Cc1cccc(Br)c1 (protonated)
C=c1/c(=C/c2c(O)[n-]c(=S)[n-]c2=O)cc(C)n1Cc1cccc(Br)c1 (cis-trans isomerization)
C=c1/c(=C/c2c(O)[n-]c(=S)[n-]c2=O)cc(C)n1Cc1cccc(Br)c1 (3D coordinates assigned)
C=c1/c(=C/c2c(O)[n-]c(=S)[n-]c2=O)cc(C)n1Cc1cccc(Br)c1 (optimized conformer: 78.61636786406035 kcal/mol)

>  <smiles>  (18) 
C=c1c(=Cc2c(O)[nH]c(=S)[nH]c2=O)cc(C)n1Cc1cccc(Br)c1

>  <score_type>  (18) 
oracle

>  <origin>  (18) 
adg

>  <m_score__min__energy>  (18) 
-12.85

>  <m_primary>  (18) 
energy

$$$$
18:0
     RDKit          3D

 39 40  0  0  0  0  0  0  0  0999 V2000
   58.2810   33.0000   43.5410 C   0  0  0  0  0  0  0  0  0  0  0  0
   57.2510   32.3030   44.8730 S   0  0  0  0  0  0  0  0  0  0  0  0
   56.6690   30.8540   43.9250 C   0  0  0  0  0  0  0  0  0  0  0  0
   56.3180   29.7310   44.8460 C   0  0  0  0  0  0  0  0  0  0  0  0
   55.1510   29.2550   44.8280 O   0  0  0  0  0  0  0  0  0  0  0  0
   57.2850   29.2700   45.7960 N   0  0  0  0  0  0  0  0  0  0  0  0
   57.8190   27.9410   45.9010 C   0  0  0  0  0  0  0  0  0  0  0  0
   59.2040   27.7170   45.9880 C   0  0  0  0  0  0  0  0  0  0  0  0
   59.7020   26.4190   46.1030 C   0  0  0  0  0  0  0  0  0  0  0  0
   58.8290   25.3340   46.1490 C   0  0  0  0  0  0  0  0  0  0  0  0
   57.4430   25.5350   46.0970 C   0  0  0  0  0  0  0  0  0  0  0  0
   56.3800   24.1210   46.1520 S   0  0  0  0  0  0  0  0  0  0  0  0
   55.7180   24.0910   47.5030 O   0  0  0  0  0  0  0  0  0  0  0  0
   55.3020   24.2260   45.1090 O   0  0  0  0  0  0  0  0  0  0  0  0
   57.3100   22.6530   45.9360 N   0  0  0  0  0  0  0  0  0  0  0  0
   58.0540   22.6490   44.6640 C   0  0  0  0  0  0  0  0  0  0  0  0
   57.1400   22.3780   43.4450 C   0  0  0  0  0  0  0  0  0  0  0  0
   55.8770   21.8400   43.7950 O   0  0  0  0  0  0  0  0  0  0  0  0
   56.0340   20.8300   44.7650 C   0  0  0  0  0  0  0  0  0  0  0  0
   56.4780   21.4410   46.1060 C   0  0  0  0  0  0  0  0  0  0  0  0
   56.9340   26.8450   45.9720 C   0  0  0  0  0  0  0  0  0  0  0  0
   55.5530   27.0470   45.9040 O   0  0  0  0  0  0  0  0  0  0  0  0
   59.1160   33.5651   43.9808 H   0  0  0  0  0  0  0  0  0  0  0  0
   58.6777   32.1840   42.9191 H   0  0  0  0  0  0  0  0  0  0  0  0
   57.6710   33.6717   42.9191 H   0  0  0  0  0  0  0  0  0  0  0  0
   55.7792   31.1361   43.3430 H   0  0  0  0  0  0  0  0  0  0  0  0
   57.4739   30.5232   43.2521 H   0  0  0  0  0  0  0  0  0  0  0  0
   59.8987   28.5696   45.9653 H   0  0  0  0  0  0  0  0  0  0  0  0
   60.7878   26.2514   46.1576 H   0  0  0  0  0  0  0  0  0  0  0  0
   59.2304   24.3128   46.2266 H   0  0  0  0  0  0  0  0  0  0  0  0
   58.5351   23.6296   44.5334 H   0  0  0  0  0  0  0  0  0  0  0  0
   58.7960   21.8384   44.7128 H   0  0  0  0  0  0  0  0  0  0  0  0
   56.9789   23.3270   42.9126 H   0  0  0  0  0  0  0  0  0  0  0  0
   57.6484   21.6300   42.8189 H   0  0  0  0  0  0  0  0  0  0  0  0
   55.0757   20.3081   44.9037 H   0  0  0  0  0  0  0  0  0  0  0  0
   56.8029   20.1218   44.4227 H   0  0  0  0  0  0  0  0  0  0  0  0
   55.5814   21.7084   46.6845 H   0  0  0  0  0  0  0  0  0  0  0  0
   57.0899   20.6893   46.6262 H   0  0  0  0  0  0  0  0  0  0  0  0
   55.1330   27.9680   45.9270 H   0  0  0  0  0  0  0  0  0  0  0  0
  1  2  1  0
  2  3  1  0
  3  4  1  0
  4  5  2  0
  4  6  1  0
  6  7  1  0
  7  8  2  0
  8  9  1  0
  9 10  2  0
 10 11  1  0
 11 12  1  0
 12 13  2  0
 12 14  2  0
 12 15  1  0
 15 16  1  0
 16 17  1  0
 17 18  1  0
 18 19  1  0
 19 20  1  0
 11 21  2  0
 21 22  1  0
 21  7  1  0
 20 15  1  0
  1 23  1  0
  1 24  1  0
  1 25  1  0
  3 26  1  0
  3 27  1  0
  8 28  1  0
  9 29  1  0
 10 30  1  0
 16 31  1  0
 16 32  1  0
 17 33  1  0
 17 34  1  0
 19 35  1  0
 19 36  1  0
 20 37  1  0
 20 38  1  0
 22 39  1  0
M  CHG  1   6  -1
M  END
>  <UniqueID>  (19) 
18

>  <SMILES>  (19) 
CSCC(=O)[N-]c1cccc(S(=O)(=O)N2CCOCC2)c1O

>  <Energy>  (19) 
48.917506688258264

>  <Genealogy>  (19) 
CSCC(=O)[N-]c1cccc(S(=O)(=O)N2CCOCC2)c1O (protonated)
CSCC(=O)[N-]c1cccc(S(=O)(=O)N2CCOCC2)c1O (3D coordinates assigned)
CSCC(=O)[N-]c1cccc(S(=O)(=O)N2CCOCC2)c1O (nonaromatic ring conformer: 48.917506688258264 kcal/mol)

>  <smiles>  (19) 
CSCC(=O)Nc1cccc(S(=O)(=O)N2CCOCC2)c1O

>  <score_type>  (19) 
oracle

>  <origin>  (19) 
adg

>  <m_score__min__energy>  (19) 
-10.68

>  <m_primary>  (19) 
energy

$$$$
19:0
     RDKit          3D

 53 55  0  0  0  0  0  0  0  0999 V2000
   63.8050   33.5110   48.5760 C   0  0  0  0  0  0  0  0  0  0  0  0
   62.7460   32.5460   48.2520 C   0  0  0  0  0  0  0  0  0  0  0  0
   62.8730   31.7420   47.1410 C   0  0  0  0  0  0  0  0  0  0  0  0
   61.8740   30.8170   46.8170 C   0  0  0  0  0  0  0  0  0  0  0  0
   60.7360   30.6540   47.5610 C   0  0  0  0  0  0  0  0  0  0  0  0
   59.6610   29.7450   47.3330 C   0  0  0  0  0  0  0  0  0  0  0  0
   58.9780   29.3620   48.3740 O   0  0  0  0  0  0  0  0  0  0  0  0
   59.1630   29.1340   46.0840 C   0  0  0  0  0  0  0  0  0  0  0  0
   57.6730   29.7530   45.4030 S   0  0  0  0  0  0  0  0  0  0  0  0
   57.7040   31.3810   44.7670 C   0  0  0  0  0  0  0  0  0  0  0  0
   57.4060   31.5230   43.1240 S   0  0  0  0  0  0  0  0  0  0  0  0
   57.9440   32.5980   45.4380 N   0  0  0  0  0  0  0  0  0  0  0  0
   57.9040   33.8390   44.6580 C   0  0  0  0  0  0  0  0  0  0  0  0
   59.2750   34.4750   44.8530 C   0  0  0  0  0  0  0  0  0  0  0  0
   59.4570   34.8340   46.3170 C   0  0  0  0  0  0  0  0  0  0  0  0
   58.3650   34.2220   47.1590 C   0  0  0  0  0  0  0  0  0  0  0  0
   58.2480   32.7450   46.8380 C   0  0  0  0  0  0  0  0  0  0  0  0
   60.6420   31.4910   48.6860 C   0  0  0  0  0  0  0  0  0  0  0  0
   61.6220   32.4000   49.0080 C   0  0  0  0  0  0  0  0  0  0  0  0
   61.4610   33.2630   50.2300 C   0  0  0  0  0  0  0  0  0  0  0  0
   59.7940   33.9980   50.1040 S   0  0  0  0  0  0  0  0  0  0  0  0
   58.7250   33.0720   51.1940 C   0  0  0  0  0  0  0  0  0  0  0  0
   58.4770   31.7790   50.8280 N   0  0  0  0  0  0  0  0  0  0  0  0
   57.6850   31.0040   51.5880 C   0  0  0  0  0  0  0  0  0  0  0  0
   57.4470   29.7990   51.2570 O   0  0  0  0  0  0  0  0  0  0  0  0
   57.1520   31.5670   52.7270 C   0  0  0  0  0  0  0  0  0  0  0  0
   56.2740   30.6680   53.5520 C   0  0  0  0  0  0  0  0  0  0  0  0
   57.4030   32.8390   53.0780 N   0  0  0  0  0  0  0  0  0  0  0  0
   58.1910   33.5950   52.3110 N   0  0  0  0  0  0  0  0  0  0  0  0
   63.9003   33.5978   49.6684 H   0  0  0  0  0  0  0  0  0  0  0  0
   64.7588   33.1651   48.1511 H   0  0  0  0  0  0  0  0  0  0  0  0
   63.5490   34.4928   48.1511 H   0  0  0  0  0  0  0  0  0  0  0  0
   63.7657   31.8275   46.5040 H   0  0  0  0  0  0  0  0  0  0  0  0
   62.0093   30.1913   45.9224 H   0  0  0  0  0  0  0  0  0  0  0  0
   59.9474   29.2595   45.3231 H   0  0  0  0  0  0  0  0  0  0  0  0
   58.9280   28.0957   46.3608 H   0  0  0  0  0  0  0  0  0  0  0  0
   57.7272   33.6211   43.5944 H   0  0  0  0  0  0  0  0  0  0  0  0
   57.0909   34.5044   44.9838 H   0  0  0  0  0  0  0  0  0  0  0  0
   60.0569   33.7635   44.5490 H   0  0  0  0  0  0  0  0  0  0  0  0
   59.3508   35.3840   44.2381 H   0  0  0  0  0  0  0  0  0  0  0  0
   60.4316   34.4582   46.6619 H   0  0  0  0  0  0  0  0  0  0  0  0
   59.4099   35.9282   46.4200 H   0  0  0  0  0  0  0  0  0  0  0  0
   58.6092   34.3476   48.2242 H   0  0  0  0  0  0  0  0  0  0  0  0
   57.4097   34.7217   46.9407 H   0  0  0  0  0  0  0  0  0  0  0  0
   59.1989   32.2407   47.0650 H   0  0  0  0  0  0  0  0  0  0  0  0
   57.4491   32.2925   47.4439 H   0  0  0  0  0  0  0  0  0  0  0  0
   59.7541   31.4163   49.3310 H   0  0  0  0  0  0  0  0  0  0  0  0
   61.5432   32.6542   51.1424 H   0  0  0  0  0  0  0  0  0  0  0  0
   62.2413   34.0364   50.2851 H   0  0  0  0  0  0  0  0  0  0  0  0
   56.4575   30.8559   54.6202 H   0  0  0  0  0  0  0  0  0  0  0  0
   55.2185   30.8727   53.3198 H   0  0  0  0  0  0  0  0  0  0  0  0
   56.5035   29.6176   53.3198 H   0  0  0  0  0  0  0  0  0  0  0  0
   58.4070   34.5910   52.5530 H   0  0  0  0  0  0  0  0  0  0  0  0
  1  2  1  0
  2  3  2  0
  3  4  1  0
  4  5  2  0
  5  6  1  0
  6  7  2  0
  6  8  1  0
  8  9  1  0
  9 10  1  0
 10 11  2  0
 10 12  1  0
 12 13  1  0
 13 14  1  0
 14 15  1  0
 15 16  1  0
 16 17  1  0
  5 18  1  0
 18 19  2  0
 19 20  1  0
 20 21  1  0
 21 22  1  0
 22 23  2  0
 23 24  1  0
 24 25  2  0
 24 26  1  0
 26 27  1  0
 26 28  2  0
 28 29  1  0
 19  2  1  0
 29 22  1  0
 17 12  1  0
  1 30  1  0
  1 31  1  0
  1 32  1  0
  3 33  1  0
  4 34  1  0
  8 35  1  0
  8 36  1  0
 13 37  1  0
 13 38  1  0
 14 39  1  0
 14 40  1  0
 15 41  1  0
 15 42  1  0
 16 43  1  0
 16 44  1  0
 17 45  1  0
 17 46  1  0
 18 47  1  0
 20 48  1  0
 20 49  1  0
 27 50  1  0
 27 51  1  0
 27 52  1  0
 29 53  1  0
M  END
>  <smiles>  (20) 
Cc1ccc(C(=O)CSC(=S)N2CCCCC2)cc1CSc1nc(=O)c(C)n[nH]1

>  <score_type>  (20) 
oracle

>  <origin>  (20) 
adg

>  <m_score__min__energy>  (20) 
-10.279999999999999

>  <m_primary>  (20) 
energy

$$$$
20:0
     RDKit          3D

 46 48  0  0  0  0  0  0  0  0999 V2000
   56.5150   29.9030   42.6490 C   0  0  0  0  0  0  0  0  0  0  0  0
   57.1890   30.9540   43.3320 O   0  0  0  0  0  0  0  0  0  0  0  0
   57.3760   30.9570   44.7190 C   0  0  0  0  0  0  0  0  0  0  0  0
   57.0330   29.9500   45.4000 O   0  0  0  0  0  0  0  0  0  0  0  0
   57.9540   32.1070   45.3680 N   0  0  0  0  0  0  0  0  0  0  0  0
   58.5030   33.2020   44.5650 C   0  0  0  0  0  0  0  0  0  0  0  0
   58.2530   34.5440   45.2580 C   0  0  0  0  0  0  0  0  0  0  0  0
   58.6570   34.5310   46.6760 N   0  0  0  0  0  0  0  0  0  0  0  0
   60.0070   35.0420   46.9960 C   0  0  0  0  0  0  0  0  0  0  0  0
   60.9550   33.9910   47.5320 C   0  0  0  0  0  0  0  0  0  0  0  0
   61.8240   33.3260   46.6550 C   0  0  0  0  0  0  0  0  0  0  0  0
   62.6760   32.3300   47.1300 C   0  0  0  0  0  0  0  0  0  0  0  0
   62.6310   31.9790   48.4780 C   0  0  0  0  0  0  0  0  0  0  0  0
   61.7640   32.6040   49.3200 N   0  0  0  0  0  0  0  0  0  0  0  0
   60.9390   33.6060   48.8900 C   0  0  0  0  0  0  0  0  0  0  0  0
   60.0350   34.2200   49.7700 O   0  0  0  0  0  0  0  0  0  0  0  0
   59.2750   33.5690   50.7530 C   0  0  0  0  0  0  0  0  0  0  0  0
   58.7220   32.3180   50.4470 C   0  0  0  0  0  0  0  0  0  0  0  0
   57.9370   31.6420   51.3860 C   0  0  0  0  0  0  0  0  0  0  0  0
   57.6870   32.2180   52.6350 C   0  0  0  0  0  0  0  0  0  0  0  0
   58.2190   33.4730   52.9440 C   0  0  0  0  0  0  0  0  0  0  0  0
   59.0060   34.1510   52.0080 C   0  0  0  0  0  0  0  0  0  0  0  0
   58.1590   33.3910   47.4680 C   0  0  0  0  0  0  0  0  0  0  0  0
   58.3650   32.0380   46.7740 C   0  0  0  0  0  0  0  0  0  0  0  0
   56.0727   29.2132   43.3829 H   0  0  0  0  0  0  0  0  0  0  0  0
   55.7197   30.3265   42.0181 H   0  0  0  0  0  0  0  0  0  0  0  0
   57.2317   29.3569   42.0181 H   0  0  0  0  0  0  0  0  0  0  0  0
   59.5858   33.0537   44.4406 H   0  0  0  0  0  0  0  0  0  0  0  0
   58.0090   33.2085   43.5822 H   0  0  0  0  0  0  0  0  0  0  0  0
   58.8265   35.3234   44.7349 H   0  0  0  0  0  0  0  0  0  0  0  0
   57.1719   34.7435   45.2202 H   0  0  0  0  0  0  0  0  0  0  0  0
   60.4428   35.4645   46.0786 H   0  0  0  0  0  0  0  0  0  0  0  0
   59.8820   35.7914   47.7915 H   0  0  0  0  0  0  0  0  0  0  0  0
   61.8334   33.5914   45.5875 H   0  0  0  0  0  0  0  0  0  0  0  0
   63.3766   31.8263   46.4478 H   0  0  0  0  0  0  0  0  0  0  0  0
   63.2987   31.1940   48.8626 H   0  0  0  0  0  0  0  0  0  0  0  0
   61.7180   32.2740   50.3090 H   0  0  0  0  0  0  0  0  0  0  0  0
   58.9068   31.8651   49.4617 H   0  0  0  0  0  0  0  0  0  0  0  0
   57.5156   30.6557   51.1417 H   0  0  0  0  0  0  0  0  0  0  0  0
   57.0719   31.6838   53.3742 H   0  0  0  0  0  0  0  0  0  0  0  0
   58.0182   33.9281   53.9251 H   0  0  0  0  0  0  0  0  0  0  0  0
   59.4165   35.1419   52.2520 H   0  0  0  0  0  0  0  0  0  0  0  0
   58.6910   33.3749   48.4307 H   0  0  0  0  0  0  0  0  0  0  0  0
   57.0756   33.5308   47.5974 H   0  0  0  0  0  0  0  0  0  0  0  0
   59.4291   31.7642   46.8258 H   0  0  0  0  0  0  0  0  0  0  0  0
   57.7503   31.2821   47.2847 H   0  0  0  0  0  0  0  0  0  0  0  0
  1  2  1  0
  2  3  1  0
  3  4  2  0
  3  5  1  0
  5  6  1  0
  6  7  1  0
  7  8  1  0
  8  9  1  0
  9 10  1  0
 10 11  2  0
 11 12  1  0
 12 13  2  0
 13 14  1  0
 14 15  2  0
 15 16  1  0
 16 17  1  0
 17 18  2  0
 18 19  1  0
 19 20  2  0
 20 21  1  0
 21 22  2  0
  8 23  1  0
 23 24  1  0
 24  5  1  0
 15 10  1  0
 22 17  1  0
  1 25  1  0
  1 26  1  0
  1 27  1  0
  6 28  1  0
  6 29  1  0
  7 30  1  0
  7 31  1  0
  9 32  1  0
  9 33  1  0
 11 34  1  0
 12 35  1  0
 13 36  1  0
 14 37  1  0
 18 38  1  0
 19 39  1  0
 20 40  1  0
 21 41  1  0
 22 42  1  0
 23 43  1  0
 23 44  1  0
 24 45  1  0
 24 46  1  0
M  CHG  1  14   1
M  END
>  <UniqueID>  (21) 
19

>  <SMILES>  (21) 
COC(=O)N1CCN(Cc2ccc[nH+]c2Oc2ccccc2)CC1

>  <Energy>  (21) 
58.98030596482139

>  <Genealogy>  (21) 
COC(=O)N1CCN(Cc2ccc[nH+]c2Oc2ccccc2)CC1 (protonated)
COC(=O)N1CCN(Cc2ccc[nH+]c2Oc2ccccc2)CC1 (3D coordinates assigned)
COC(=O)N1CCN(Cc2ccc[nH+]c2Oc2ccccc2)CC1 (nonaromatic ring conformer: 58.98030596482139 kcal/mol)

>  <smiles>  (21) 
COC(=O)N1CCN(Cc2cccnc2Oc2ccccc2)CC1

>  <score_type>  (21) 
oracle

>  <origin>  (21) 
adg

>  <m_score__min__energy>  (21) 
-5.4900000000000002

>  <m_primary>  (21) 
energy

$$$$
21:0
     RDKit          3D

 45 47  0  0  0  0  0  0  0  0999 V2000
   59.3250   34.0500   48.3570 C   0  0  0  0  0  0  0  0  0  0  0  0
   58.8840   33.8080   46.9840 N   0  0  0  0  0  0  0  0  0  0  0  0
   58.2630   32.6660   46.5760 C   0  0  0  0  0  0  0  0  0  0  0  0
   57.9840   32.6300   45.2130 C   0  0  0  0  0  0  0  0  0  0  0  0
   57.3310   31.2500   44.3470 S   0  0  0  0  0  0  0  0  0  0  0  0
   55.9150   31.0070   44.7860 O   0  0  0  0  0  0  0  0  0  0  0  0
   57.3440   31.5240   42.8690 O   0  0  0  0  0  0  0  0  0  0  0  0
   58.2970   29.8450   44.6840 N   0  0  0  0  0  0  0  0  0  0  0  0
   57.8790   28.7150   43.8500 C   0  0  0  0  0  0  0  0  0  0  0  0
   57.4630   27.5520   44.7520 C   0  0  0  0  0  0  0  0  0  0  0  0
   58.6050   27.1040   45.6220 C   0  0  0  0  0  0  0  0  0  0  0  0
   59.8380   27.7260   45.6810 C   0  0  0  0  0  0  0  0  0  0  0  0
   60.5750   27.0470   46.6310 C   0  0  0  0  0  0  0  0  0  0  0  0
   59.7630   26.0450   47.1220 C   0  0  0  0  0  0  0  0  0  0  0  0
   58.5620   26.0820   46.5100 N   0  0  0  0  0  0  0  0  0  0  0  0
   57.4390   25.1870   46.8070 C   0  0  0  0  0  0  0  0  0  0  0  0
   57.0530   24.3960   45.5770 C   0  0  0  0  0  0  0  0  0  0  0  0
   58.0510   23.6120   44.9690 C   0  0  0  0  0  0  0  0  0  0  0  0
   57.7500   22.7720   43.8970 C   0  0  0  0  0  0  0  0  0  0  0  0
   56.4440   22.6890   43.4200 C   0  0  0  0  0  0  0  0  0  0  0  0
   55.4380   23.4570   44.0080 C   0  0  0  0  0  0  0  0  0  0  0  0
   55.7230   24.3260   45.0770 C   0  0  0  0  0  0  0  0  0  0  0  0
   54.6090   25.1310   45.6240 C   0  0  0  0  0  0  0  0  0  0  0  0
   54.7950   26.3410   45.9210 O   0  0  0  0  0  0  0  0  0  0  0  0
   53.3780   24.5510   45.9020 O   0  0  0  0  0  0  0  0  0  0  0  0
   58.5400   34.0500   44.4930 S   0  0  0  0  0  0  0  0  0  0  0  0
   59.1060   34.6600   45.9530 C   0  0  0  0  0  0  0  0  0  0  0  0
   59.6830   35.7720   46.0780 O   0  0  0  0  0  0  0  0  0  0  0  0
   58.5819   33.6422   49.0581 H   0  0  0  0  0  0  0  0  0  0  0  0
   60.2945   33.5575   48.5229 H   0  0  0  0  0  0  0  0  0  0  0  0
   59.4304   35.1323   48.5229 H   0  0  0  0  0  0  0  0  0  0  0  0
   58.0052   31.8460   47.2624 H   0  0  0  0  0  0  0  0  0  0  0  0
   57.0278   29.0163   43.2218 H   0  0  0  0  0  0  0  0  0  0  0  0
   58.7135   28.4027   43.2050 H   0  0  0  0  0  0  0  0  0  0  0  0
   56.6291   27.8750   45.3925 H   0  0  0  0  0  0  0  0  0  0  0  0
   57.1582   26.7085   44.1151 H   0  0  0  0  0  0  0  0  0  0  0  0
   60.1674   28.5918   45.0877 H   0  0  0  0  0  0  0  0  0  0  0  0
   61.6092   27.2630   46.9372 H   0  0  0  0  0  0  0  0  0  0  0  0
   60.0530   25.3221   47.8987 H   0  0  0  0  0  0  0  0  0  0  0  0
   57.7320   24.4917   47.6074 H   0  0  0  0  0  0  0  0  0  0  0  0
   56.5772   25.7912   47.1266 H   0  0  0  0  0  0  0  0  0  0  0  0
   59.0836   23.6624   45.3447 H   0  0  0  0  0  0  0  0  0  0  0  0
   58.5452   22.1742   43.4276 H   0  0  0  0  0  0  0  0  0  0  0  0
   56.2058   22.0189   42.5808 H   0  0  0  0  0  0  0  0  0  0  0  0
   54.4076   23.3818   43.6303 H   0  0  0  0  0  0  0  0  0  0  0  0
  1  2  1  0
  2  3  1  0
  3  4  2  0
  4  5  1  0
  5  6  2  0
  5  7  2  0
  5  8  1  0
  8  9  1  0
  9 10  1  0
 10 11  1  0
 11 12  2  0
 12 13  1  0
 13 14  2  0
 14 15  1  0
 15 16  1  0
 16 17  1  0
 17 18  2  0
 18 19  1  0
 19 20  2  0
 20 21  1  0
 21 22  2  0
 22 23  1  0
 23 24  2  0
 23 25  1  0
  4 26  1  0
 26 27  1  0
 27 28  2  0
 27  2  1  0
 15 11  1  0
 22 17  1  0
  1 29  1  0
  1 30  1  0
  1 31  1  0
  3 32  1  0
  9 33  1  0
  9 34  1  0
 10 35  1  0
 10 36  1  0
 12 37  1  0
 13 38  1  0
 14 39  1  0
 16 40  1  0
 16 41  1  0
 18 42  1  0
 19 43  1  0
 20 44  1  0
 21 45  1  0
M  CHG  2   8  -1  25  -1
M  END
>  <UniqueID>  (22) 
20

>  <SMILES>  (22) 
Cn1cc(S(=O)(=O)[N-]CCc2cccn2Cc2ccccc2C(=O)[O-])sc1=O

>  <Energy>  (22) 
102.70621989450098

>  <Genealogy>  (22) 
Cn1cc(S(=O)(=O)[N-]CCc2cccn2Cc2ccccc2C(=O)[O-])sc1=O (protonated)
Cn1cc(S(=O)(=O)[N-]CCc2cccn2Cc2ccccc2C(=O)[O-])sc1=O (3D coordinates assigned)
Cn1cc(S(=O)(=O)[N-]CCc2cccn2Cc2ccccc2C(=O)[O-])sc1=O (optimized conformer: 102.70621989450098 kcal/mol)

>  <smiles>  (22) 
Cn1cc(S(=O)(=O)NCCc2cccn2Cc2ccccc2C(=O)O)sc1=O

>  <score_type>  (22) 
oracle

>  <origin>  (22) 
adg

>  <m_score__min__energy>  (22) 
-12.470000000000001

>  <m_primary>  (22) 
energy

$$$$
22:0
     RDKit          3D

 55 57  0  0  0  0  0  0  0  0999 V2000
   55.1460   26.6990   45.9670 N   0  0  0  0  0  0  0  0  0  0  0  0
   56.3690   26.0440   46.2820 C   0  0  0  0  0  0  0  0  0  0  0  0
   56.3780   25.1110   47.1290 O   0  0  0  0  0  0  0  0  0  0  0  0
   57.6260   26.4210   45.5650 C   0  0  0  0  0  0  0  0  0  0  0  0
   58.3640   27.4600   46.3580 C   0  0  0  0  0  0  0  0  0  0  0  0
   58.5000   27.3260   47.7490 C   0  0  0  0  0  0  0  0  0  0  0  0
   59.3060   28.2140   48.4650 C   0  0  0  0  0  0  0  0  0  0  0  0
   60.0090   29.2230   47.7950 C   0  0  0  0  0  0  0  0  0  0  0  0
   61.1750   30.2620   48.6810 S   0  0  0  0  0  0  0  0  0  0  0  0
   61.3810   31.5010   47.3420 C   0  0  0  0  0  0  0  0  0  0  0  0
   61.9800   32.8260   47.8380 C   0  0  0  0  0  0  0  0  0  0  0  0
   61.0170   33.9380   47.7130 N   0  0  0  0  0  0  0  0  0  0  0  0
   60.8330   34.3240   46.3010 C   0  0  0  0  0  0  0  0  0  0  0  0
   59.6340   35.2660   46.1540 C   0  0  0  0  0  0  0  0  0  0  0  0
   58.3550   34.6220   46.5530 N   0  0  0  0  0  0  0  0  0  0  0  0
   57.5490   34.2380   45.3720 C   0  0  0  0  0  0  0  0  0  0  0  0
   58.3360   33.3570   44.3820 C   0  0  0  0  0  0  0  0  0  0  0  0
   57.6140   32.0940   43.9780 C   0  0  0  0  0  0  0  0  0  0  0  0
   57.3910   31.8100   42.6190 C   0  0  0  0  0  0  0  0  0  0  0  0
   56.7320   30.6370   42.2420 C   0  0  0  0  0  0  0  0  0  0  0  0
   56.3030   29.7300   43.2160 C   0  0  0  0  0  0  0  0  0  0  0  0
   56.5410   29.9920   44.5680 C   0  0  0  0  0  0  0  0  0  0  0  0
   57.2010   31.1640   44.9490 C   0  0  0  0  0  0  0  0  0  0  0  0
   58.5460   33.4790   47.4810 C   0  0  0  0  0  0  0  0  0  0  0  0
   59.7390   33.6900   48.4290 C   0  0  0  0  0  0  0  0  0  0  0  0
   59.8290   29.3960   46.4170 C   0  0  0  0  0  0  0  0  0  0  0  0
   59.0150   28.5170   45.7010 C   0  0  0  0  0  0  0  0  0  0  0  0
   54.5370   27.0910   46.7200 H   0  0  0  0  0  0  0  0  0  0  0  0
   58.2613   25.5308   45.4466 H   0  0  0  0  0  0  0  0  0  0  0  0
   57.3743   26.8273   44.5742 H   0  0  0  0  0  0  0  0  0  0  0  0
   57.9701   26.5192   48.2765 H   0  0  0  0  0  0  0  0  0  0  0  0
   59.3888   28.1206   49.5579 H   0  0  0  0  0  0  0  0  0  0  0  0
   62.0475   31.0804   46.5746 H   0  0  0  0  0  0  0  0  0  0  0  0
   60.3808   31.7215   46.9407 H   0  0  0  0  0  0  0  0  0  0  0  0
   62.2633   32.7162   48.8952 H   0  0  0  0  0  0  0  0  0  0  0  0
   62.8582   33.0600   47.2184 H   0  0  0  0  0  0  0  0  0  0  0  0
   61.7399   34.8340   45.9441 H   0  0  0  0  0  0  0  0  0  0  0  0
   60.6483   33.4177   45.7057 H   0  0  0  0  0  0  0  0  0  0  0  0
   59.7983   36.1487   46.7894 H   0  0  0  0  0  0  0  0  0  0  0  0
   59.5532   35.5428   45.0925 H   0  0  0  0  0  0  0  0  0  0  0  0
   56.6647   33.6805   45.7144 H   0  0  0  0  0  0  0  0  0  0  0  0
   57.2658   35.1615   44.8457 H   0  0  0  0  0  0  0  0  0  0  0  0
   58.5344   33.9474   43.4753 H   0  0  0  0  0  0  0  0  0  0  0  0
   59.2584   33.0468   44.8948 H   0  0  0  0  0  0  0  0  0  0  0  0
   57.7371   32.5149   41.8487 H   0  0  0  0  0  0  0  0  0  0  0  0
   56.5504   30.4268   41.1777 H   0  0  0  0  0  0  0  0  0  0  0  0
   55.7782   28.8103   42.9181 H   0  0  0  0  0  0  0  0  0  0  0  0
   56.2086   29.2752   45.3333 H   0  0  0  0  0  0  0  0  0  0  0  0
   57.3983   31.3598   46.0133 H   0  0  0  0  0  0  0  0  0  0  0  0
   57.6335   33.3555   48.0827 H   0  0  0  0  0  0  0  0  0  0  0  0
   58.7517   32.5842   46.8751 H   0  0  0  0  0  0  0  0  0  0  0  0
   59.5252   34.5556   49.0732 H   0  0  0  0  0  0  0  0  0  0  0  0
   59.8634   32.7643   49.0100 H   0  0  0  0  0  0  0  0  0  0  0  0
   60.3302   30.2263   45.8979 H   0  0  0  0  0  0  0  0  0  0  0  0
   58.8827   28.6526   44.6174 H   0  0  0  0  0  0  0  0  0  0  0  0
  1  2  1  0
  2  3  2  0
  2  4  1  0
  4  5  1  0
  5  6  2  0
  6  7  1  0
  7  8  2  0
  8  9  1  0
  9 10  1  0
 10 11  1  0
 11 12  1  0
 12 13  1  0
 13 14  1  0
 14 15  1  0
 15 16  1  0
 16 17  1  0
 17 18  1  0
 18 19  2  0
 19 20  1  0
 20 21  2  0
 21 22  1  0
 22 23  2  0
 15 24  1  0
 24 25  1  0
  8 26  1  0
 26 27  2  0
 27  5  1  0
 25 12  1  0
 23 18  1  0
  1 28  1  0
  4 29  1  0
  4 30  1  0
  6 31  1  0
  7 32  1  0
 10 33  1  0
 10 34  1  0
 11 35  1  0
 11 36  1  0
 13 37  1  0
 13 38  1  0
 14 39  1  0
 14 40  1  0
 16 41  1  0
 16 42  1  0
 17 43  1  0
 17 44  1  0
 19 45  1  0
 20 46  1  0
 21 47  1  0
 22 48  1  0
 23 49  1  0
 24 50  1  0
 24 51  1  0
 25 52  1  0
 25 53  1  0
 26 54  1  0
 27 55  1  0
M  CHG  1   1  -1
M  END
>  <UniqueID>  (23) 
21

>  <SMILES>  (23) 
[NH-]C(=O)Cc1ccc(SCCN2CCN(CCc3ccccc3)CC2)cc1

>  <Energy>  (23) 
59.973922253697914

>  <Genealogy>  (23) 
[NH-]C(=O)Cc1ccc(SCCN2CCN(CCc3ccccc3)CC2)cc1 (protonated)
[NH-]C(=O)Cc1ccc(SCCN2CCN(CCc3ccccc3)CC2)cc1 (3D coordinates assigned)
[NH-]C(=O)Cc1ccc(SCCN2CCN(CCc3ccccc3)CC2)cc1 (nonaromatic ring conformer: 59.973922253697914 kcal/mol)

>  <smiles>  (23) 
NC(=O)Cc1ccc(SCCN2CCN(CCc3ccccc3)CC2)cc1

>  <score_type>  (23) 
oracle

>  <origin>  (23) 
adg

>  <m_score__min__energy>  (23) 
-12.380000000000001

>  <m_primary>  (23) 
energy

$$$$
23:0
     RDKit          3D

 62 66  0  0  0  0  0  0  0  0999 V2000
   55.1580   29.3530   44.9010 N   0  0  0  0  0  0  0  0  0  0  0  0
   56.1980   29.4940   43.9380 C   0  0  0  0  0  0  0  0  0  0  0  0
   55.8880   29.7720   42.7480 O   0  0  0  0  0  0  0  0  0  0  0  0
   57.6290   29.3400   44.3180 C   0  0  0  0  0  0  0  0  0  0  0  0
   58.3470   28.2330   43.8250 C   0  0  0  0  0  0  0  0  0  0  0  0
   59.6930   28.0530   44.1450 C   0  0  0  0  0  0  0  0  0  0  0  0
   60.3430   28.9680   44.9690 C   0  0  0  0  0  0  0  0  0  0  0  0
   59.6490   30.0640   45.4810 C   0  0  0  0  0  0  0  0  0  0  0  0
   58.2970   30.2780   45.1500 C   0  0  0  0  0  0  0  0  0  0  0  0
   57.5680   31.3720   45.7300 N   0  0  0  0  0  0  0  0  0  0  0  0
   58.1190   32.5290   46.3740 C   0  0  0  0  0  0  0  0  0  0  0  0
   57.4880   33.6180   46.3590 O   0  0  0  0  0  0  0  0  0  0  0  0
   59.3910   32.3980   47.1200 C   0  0  0  0  0  0  0  0  0  0  0  0
   60.5290   33.1380   46.8070 C   0  0  0  0  0  0  0  0  0  0  0  0
   61.4900   32.7330   47.7020 C   0  0  0  0  0  0  0  0  0  0  0  0
   62.8150   33.1400   47.8400 C   0  0  0  0  0  0  0  0  0  0  0  0
   63.5830   32.5640   48.8680 C   0  0  0  0  0  0  0  0  0  0  0  0
   64.9540   32.9630   49.0110 N   0  0  0  0  0  0  0  0  0  0  0  0
   65.8280   32.5920   50.0840 C   0  0  0  0  0  0  0  0  0  0  0  0
   65.8850   31.3790   50.4210 O   0  0  0  0  0  0  0  0  0  0  0  0
   66.7010   33.5800   50.7640 C   0  0  0  0  0  0  0  0  0  0  0  0
   66.1670   34.4380   51.7430 C   0  0  0  0  0  0  0  0  0  0  0  0
   66.9870   35.3580   52.4010 C   0  0  0  0  0  0  0  0  0  0  0  0
   68.3490   35.4230   52.1000 C   0  0  0  0  0  0  0  0  0  0  0  0
   68.8950   34.5680   51.1380 C   0  0  0  0  0  0  0  0  0  0  0  0
   68.0770   33.6470   50.4760 C   0  0  0  0  0  0  0  0  0  0  0  0
   63.0080   31.5750   49.7070 C   0  0  0  0  0  0  0  0  0  0  0  0
   61.6680   31.1850   49.5400 C   0  0  0  0  0  0  0  0  0  0  0  0
   60.9270   31.7910   48.5200 C   0  0  0  0  0  0  0  0  0  0  0  0
   59.6350   31.5730   48.1820 N   0  0  0  0  0  0  0  0  0  0  0  0
   58.7320   30.6240   48.8490 C   0  0  0  0  0  0  0  0  0  0  0  0
   59.0830   29.2030   48.4820 C   0  0  0  0  0  0  0  0  0  0  0  0
   60.2600   28.6170   48.9700 C   0  0  0  0  0  0  0  0  0  0  0  0
   60.5870   27.3030   48.6310 C   0  0  0  0  0  0  0  0  0  0  0  0
   59.7430   26.5590   47.8040 C   0  0  0  0  0  0  0  0  0  0  0  0
   58.5490   27.1190   47.3140 C   0  0  0  0  0  0  0  0  0  0  0  0
   57.6420   26.3510   46.4250 C   0  0  0  0  0  0  0  0  0  0  0  0
   56.4390   26.9240   45.9020 N   0  0  0  0  0  0  0  0  0  0  0  0
   57.9350   25.1670   46.1060 O   0  0  0  0  0  0  0  0  0  0  0  0
   58.2310   28.4480   47.6590 C   0  0  0  0  0  0  0  0  0  0  0  0
   55.2060   28.6280   45.6500 H   0  0  0  0  0  0  0  0  0  0  0  0
   57.8399   27.5009   43.1793 H   0  0  0  0  0  0  0  0  0  0  0  0
   60.2414   27.1871   43.7458 H   0  0  0  0  0  0  0  0  0  0  0  0
   61.4054   28.8262   45.2165 H   0  0  0  0  0  0  0  0  0  0  0  0
   60.1633   30.7690   46.1507 H   0  0  0  0  0  0  0  0  0  0  0  0
   60.6360   33.8890   46.0105 H   0  0  0  0  0  0  0  0  0  0  0  0
   63.2488   33.8912   47.1636 H   0  0  0  0  0  0  0  0  0  0  0  0
   65.0969   34.3840   51.9919 H   0  0  0  0  0  0  0  0  0  0  0  0
   66.5590   36.0323   53.1574 H   0  0  0  0  0  0  0  0  0  0  0  0
   68.9928   36.1475   52.6202 H   0  0  0  0  0  0  0  0  0  0  0  0
   69.9681   34.6197   50.9018 H   0  0  0  0  0  0  0  0  0  0  0  0
   68.5118   32.9706   49.7254 H   0  0  0  0  0  0  0  0  0  0  0  0
   63.6167   31.1089   50.4958 H   0  0  0  0  0  0  0  0  0  0  0  0
   61.2148   30.4246   50.1930 H   0  0  0  0  0  0  0  0  0  0  0  0
   58.8198   30.7474   49.9385 H   0  0  0  0  0  0  0  0  0  0  0  0
   57.7016   30.8285   48.5226 H   0  0  0  0  0  0  0  0  0  0  0  0
   60.9291   29.1960   49.6235 H   0  0  0  0  0  0  0  0  0  0  0  0
   61.5131   26.8519   49.0168 H   0  0  0  0  0  0  0  0  0  0  0  0
   60.0136   25.5276   47.5337 H   0  0  0  0  0  0  0  0  0  0  0  0
   56.2140   27.9340   46.0110 H   0  0  0  0  0  0  0  0  0  0  0  0
   55.7940   26.3380   45.3290 H   0  0  0  0  0  0  0  0  0  0  0  0
   57.3031   28.9001   47.2787 H   0  0  0  0  0  0  0  0  0  0  0  0
  1  2  1  0
  2  3  2  0
  2  4  1  0
  4  5  2  0
  5  6  1  0
  6  7  2  0
  7  8  1  0
  8  9  2  0
  9 10  1  0
 10 11  1  0
 11 12  2  0
 11 13  1  0
 13 14  2  0
 14 15  1  0
 15 16  2  0
 16 17  1  0
 17 18  1  0
 18 19  1  0
 19 20  2  0
 19 21  1  0
 21 22  2  0
 22 23  1  0
 23 24  2  0
 24 25  1  0
 25 26  2  0
 17 27  2  0
 27 28  1  0
 28 29  2  0
 29 30  1  0
 30 31  1  0
 31 32  1  0
 32 33  2  0
 33 34  1  0
 34 35  2  0
 35 36  1  0
 36 37  1  0
 37 38  1  0
 37 39  2  0
 36 40  2  0
  9  4  1  0
 30 13  1  0
 40 32  1  0
 29 15  1  0
 26 21  1  0
  1 41  1  0
  5 42  1  0
  6 43  1  0
  7 44  1  0
  8 45  1  0
 14 46  1  0
 16 47  1  0
 22 48  1  0
 23 49  1  0
 24 50  1  0
 25 51  1  0
 26 52  1  0
 27 53  1  0
 28 54  1  0
 31 55  1  0
 31 56  1  0
 33 57  1  0
 34 58  1  0
 35 59  1  0
 38 60  1  0
 38 61  1  0
 40 62  1  0
M  CHG  3   1  -1  10  -1  18  -1
M  END
>  <UniqueID>  (24) 
22

>  <SMILES>  (24) 
[NH-]C(=O)c1ccccc1[N-]C(=O)c1cc2cc([N-]C(=O)c3ccccc3)ccc2n1Cc1cccc(C(N)=O)c1

>  <Energy>  (24) 
118.48435894020142

>  <Genealogy>  (24) 
[NH-]C(=O)c1ccccc1[N-]C(=O)c1cc2cc([N-]C(=O)c3ccccc3)ccc2n1Cc1cccc(C(N)=O)c1 (protonated)
[NH-]C(=O)c1ccccc1[N-]C(=O)c1cc2cc([N-]C(=O)c3ccccc3)ccc2n1Cc1cccc(C(N)=O)c1 (3D coordinates assigned)
[NH-]C(=O)c1ccccc1[N-]C(=O)c1cc2cc([N-]C(=O)c3ccccc3)ccc2n1Cc1cccc(C(N)=O)c1 (optimized conformer: 118.48435894020142 kcal/mol)

>  <smiles>  (24) 
NC(=O)c1cccc(Cn2c(C(=O)Nc3ccccc3C(N)=O)cc3cc(NC(=O)c4ccccc4)ccc32)c1

>  <score_type>  (24) 
oracle

>  <origin>  (24) 
adg

>  <m_score__min__energy>  (24) 
-15.220000000000001

>  <m_primary>  (24) 
energy

$$$$
24:0
     RDKit          3D

 50 52  0  0  0  0  0  0  0  0999 V2000
   55.0510   28.2330   53.1810 C   0  0  0  0  0  0  0  0  0  0  0  0
   54.1340   29.3100   52.6630 C   0  0  0  0  0  0  0  0  0  0  0  0
   52.7870   28.9930   52.4250 C   0  0  0  0  0  0  0  0  0  0  0  0
   51.9040   29.9540   51.9300 C   0  0  0  0  0  0  0  0  0  0  0  0
   52.3510   31.2550   51.6520 C   0  0  0  0  0  0  0  0  0  0  0  0
   51.4170   32.2770   51.1290 C   0  0  0  0  0  0  0  0  0  0  0  0
   51.2630   32.4290   49.8880 O   0  0  0  0  0  0  0  0  0  0  0  0
   50.6950   33.0840   52.0000 O   0  0  0  0  0  0  0  0  0  0  0  0
   53.7000   31.5740   51.8740 C   0  0  0  0  0  0  0  0  0  0  0  0
   54.6000   30.6140   52.3680 C   0  0  0  0  0  0  0  0  0  0  0  0
   56.2930   31.0770   52.6160 S   0  0  0  0  0  0  0  0  0  0  0  0
   56.5620   32.4110   51.9790 O   0  0  0  0  0  0  0  0  0  0  0  0
   56.5640   31.1680   54.0920 O   0  0  0  0  0  0  0  0  0  0  0  0
   57.3250   29.8890   51.8900 N   0  0  0  0  0  0  0  0  0  0  0  0
   58.3020   30.1510   50.8750 C   0  0  0  0  0  0  0  0  0  0  0  0
   59.4580   29.3640   50.8380 C   0  0  0  0  0  0  0  0  0  0  0  0
   60.4400   29.5920   49.8700 C   0  0  0  0  0  0  0  0  0  0  0  0
   60.2710   30.6100   48.9270 C   0  0  0  0  0  0  0  0  0  0  0  0
   59.1150   31.4000   48.9460 C   0  0  0  0  0  0  0  0  0  0  0  0
   58.8940   32.7010   47.7770 S   0  0  0  0  0  0  0  0  0  0  0  0
   59.2750   32.2190   46.4050 O   0  0  0  0  0  0  0  0  0  0  0  0
   57.4400   33.0870   47.7630 O   0  0  0  0  0  0  0  0  0  0  0  0
   59.8820   34.0710   48.2430 N   0  0  0  0  0  0  0  0  0  0  0  0
   60.6790   33.7760   49.4700 C   0  0  0  0  0  0  0  0  0  0  0  0
   62.2020   33.8000   49.2520 C   0  0  0  0  0  0  0  0  0  0  0  0
   62.5730   33.0560   47.9710 C   0  0  0  0  0  0  0  0  0  0  0  0
   61.8590   33.6410   46.7400 C   0  0  0  0  0  0  0  0  0  0  0  0
   60.6830   34.5690   47.1030 C   0  0  0  0  0  0  0  0  0  0  0  0
   58.1330   31.1730   49.9210 C   0  0  0  0  0  0  0  0  0  0  0  0
   55.0430   28.2424   54.2809 H   0  0  0  0  0  0  0  0  0  0  0  0
   54.7060   27.2528   52.8202 H   0  0  0  0  0  0  0  0  0  0  0  0
   56.0737   28.4173   52.8202 H   0  0  0  0  0  0  0  0  0  0  0  0
   52.4234   27.9755   52.6310 H   0  0  0  0  0  0  0  0  0  0  0  0
   50.8504   29.6898   51.7566 H   0  0  0  0  0  0  0  0  0  0  0  0
   54.0583   32.5913   51.6579 H   0  0  0  0  0  0  0  0  0  0  0  0
   59.5951   28.5600   51.5761 H   0  0  0  0  0  0  0  0  0  0  0  0
   61.3468   28.9697   49.8501 H   0  0  0  0  0  0  0  0  0  0  0  0
   61.0473   30.7907   48.1689 H   0  0  0  0  0  0  0  0  0  0  0  0
   59.2050   34.8320   48.4830 H   0  0  0  0  0  0  0  0  0  0  0  0
   60.4277   34.5267   50.2337 H   0  0  0  0  0  0  0  0  0  0  0  0
   60.4192   32.7524   49.7779 H   0  0  0  0  0  0  0  0  0  0  0  0
   62.5398   34.8440   49.1745 H   0  0  0  0  0  0  0  0  0  0  0  0
   62.6902   33.3045   50.1041 H   0  0  0  0  0  0  0  0  0  0  0  0
   63.6601   33.1290   47.8196 H   0  0  0  0  0  0  0  0  0  0  0  0
   62.2574   32.0081   48.0820 H   0  0  0  0  0  0  0  0  0  0  0  0
   62.5898   34.2164   46.1528 H   0  0  0  0  0  0  0  0  0  0  0  0
   61.4444   32.7959   46.1708 H   0  0  0  0  0  0  0  0  0  0  0  0
   61.0856   35.5589   47.3638 H   0  0  0  0  0  0  0  0  0  0  0  0
   60.0173   34.6129   46.2284 H   0  0  0  0  0  0  0  0  0  0  0  0
   57.2267   31.7960   49.9407 H   0  0  0  0  0  0  0  0  0  0  0  0
  1  2  1  0
  2  3  2  0
  3  4  1  0
  4  5  2  0
  5  6  1  0
  6  7  2  0
  6  8  1  0
  5  9  1  0
  9 10  2  0
 10 11  1  0
 11 12  2  0
 11 13  2  0
 11 14  1  0
 14 15  1  0
 15 16  2  0
 16 17  1  0
 17 18  2  0
 18 19  1  0
 19 20  1  0
 20 21  2  0
 20 22  2  0
 20 23  1  0
 23 24  1  0
 24 25  1  0
 25 26  1  0
 26 27  1  0
 27 28  1  0
 19 29  2  0
 10  2  1  0
 29 15  1  0
 28 23  1  0
  1 30  1  0
  1 31  1  0
  1 32  1  0
  3 33  1  0
  4 34  1  0
  9 35  1  0
 16 36  1  0
 17 37  1  0
 18 38  1  0
 23 39  1  0
 24 40  1  0
 24 41  1  0
 25 42  1  0
 25 43  1  0
 26 44  1  0
 26 45  1  0
 27 46  1  0
 27 47  1  0
 28 48  1  0
 28 49  1  0
 29 50  1  0
M  CHG  3   8  -1  14  -1  23   1
M  END
>  <UniqueID>  (25) 
23

>  <SMILES>  (25) 
Cc1ccc(C(=O)[O-])cc1S(=O)(=O)[N-]c1cccc(S(=O)(=O)[NH+]2CCCCC2)c1

>  <Energy>  (25) 
63.96955541402142

>  <Genealogy>  (25) 
Cc1ccc(C(=O)[O-])cc1S(=O)(=O)[N-]c1cccc(S(=O)(=O)[NH+]2CCCCC2)c1 (protonated)
Cc1ccc(C(=O)[O-])cc1S(=O)(=O)[N-]c1cccc(S(=O)(=O)[NH+]2CCCCC2)c1 (3D coordinates assigned)
Cc1ccc(C(=O)[O-])cc1S(=O)(=O)[N-]c1cccc(S(=O)(=O)[NH+]2CCCCC2)c1 (nonaromatic ring conformer: 63.96955541402142 kcal/mol)

>  <smiles>  (25) 
Cc1ccc(C(=O)O)cc1S(=O)(=O)Nc1cccc(S(=O)(=O)N2CCCCC2)c1

>  <score_type>  (25) 
oracle

>  <origin>  (25) 
adg

>  <m_score__min__energy>  (25) 
-13

>  <m_primary>  (25) 
energy

$$$$
25:0
     RDKit          3D

 67 71  0  0  0  0  0  0  0  0999 V2000
   61.9020   33.8150   46.2820 O   0  0  0  0  0  0  0  0  0  0  0  0
   60.7910   33.9060   46.9060 C   0  0  0  0  0  0  0  0  0  0  0  0
   60.8690   33.7540   48.3150 N   0  0  0  0  0  0  0  0  0  0  0  0
   62.1700   33.5210   48.8600 C   0  0  0  0  0  0  0  0  0  0  0  0
   63.0030   32.5210   48.4020 C   0  0  0  0  0  0  0  0  0  0  0  0
   64.2420   32.3840   49.0050 C   0  0  0  0  0  0  0  0  0  0  0  0
   64.6520   33.2210   50.0420 C   0  0  0  0  0  0  0  0  0  0  0  0
   65.8580   33.1000   50.6400 F   0  0  0  0  0  0  0  0  0  0  0  0
   63.7960   34.2000   50.4640 C   0  0  0  0  0  0  0  0  0  0  0  0
   62.5510   34.3740   49.8950 C   0  0  0  0  0  0  0  0  0  0  0  0
   59.5880   34.1420   46.1980 N   0  0  0  0  0  0  0  0  0  0  0  0
   58.2840   34.2610   46.8150 C   0  0  0  0  0  0  0  0  0  0  0  0
   57.3970   33.1850   46.2090 C   0  0  0  0  0  0  0  0  0  0  0  0
   57.9940   32.5410   45.1030 N   0  0  0  0  0  0  0  0  0  0  0  0
   57.3880   31.3940   44.5490 C   0  0  0  0  0  0  0  0  0  0  0  0
   57.6930   30.1750   45.3080 C   0  0  0  0  0  0  0  0  0  0  0  0
   57.1900   28.9600   44.8300 C   0  0  0  0  0  0  0  0  0  0  0  0
   57.4050   27.7700   45.4830 C   0  0  0  0  0  0  0  0  0  0  0  0
   58.1360   27.7180   46.6510 C   0  0  0  0  0  0  0  0  0  0  0  0
   58.6390   28.9070   47.1340 C   0  0  0  0  0  0  0  0  0  0  0  0
   59.5860   28.8410   48.6470 S   0  0  0  0  0  0  0  0  0  0  0  0
   58.9560   30.0600   49.7710 C   0  0  0  0  0  0  0  0  0  0  0  0
   57.9040   29.8040   50.5650 N   0  0  0  0  0  0  0  0  0  0  0  0
   57.3990   30.7110   51.4340 C   0  0  0  0  0  0  0  0  0  0  0  0
   56.2990   30.3980   52.2420 N   0  0  0  0  0  0  0  0  0  0  0  0
   55.0750   31.1610   52.3330 C   0  0  0  0  0  0  0  0  0  0  0  0
   53.9120   30.2860   51.9080 C   0  0  0  0  0  0  0  0  0  0  0  0
   54.0180   28.9510   52.4130 N   0  0  0  0  0  0  0  0  0  0  0  0
   54.9590   28.8330   53.5060 C   0  0  0  0  0  0  0  0  0  0  0  0
   56.3640   29.1940   53.0850 C   0  0  0  0  0  0  0  0  0  0  0  0
   58.0340   31.9350   51.4640 C   0  0  0  0  0  0  0  0  0  0  0  0
   59.1320   32.2170   50.6430 C   0  0  0  0  0  0  0  0  0  0  0  0
   59.7060   33.3260   50.6700 O   0  0  0  0  0  0  0  0  0  0  0  0
   59.5670   31.2570   49.8080 N   0  0  0  0  0  0  0  0  0  0  0  0
   58.4170   30.1110   46.4670 C   0  0  0  0  0  0  0  0  0  0  0  0
   58.9650   31.2070   47.0040 F   0  0  0  0  0  0  0  0  0  0  0  0
   58.5300   33.4440   44.1100 C   0  0  0  0  0  0  0  0  0  0  0  0
   59.6350   34.2800   44.7460 C   0  0  0  0  0  0  0  0  0  0  0  0
   60.0060   33.8160   48.8950 H   0  0  0  0  0  0  0  0  0  0  0  0
   62.6928   31.8540   47.5841 H   0  0  0  0  0  0  0  0  0  0  0  0
   64.9218   31.5927   48.6561 H   0  0  0  0  0  0  0  0  0  0  0  0
   64.1086   34.8679   51.2802 H   0  0  0  0  0  0  0  0  0  0  0  0
   61.8755   35.1665   50.2494 H   0  0  0  0  0  0  0  0  0  0  0  0
   58.3668   34.1125   47.9018 H   0  0  0  0  0  0  0  0  0  0  0  0
   57.8596   35.2604   46.6387 H   0  0  0  0  0  0  0  0  0  0  0  0
   57.1823   32.4310   46.9807 H   0  0  0  0  0  0  0  0  0  0  0  0
   56.4799   33.6755   45.8506 H   0  0  0  0  0  0  0  0  0  0  0  0
   56.2978   31.5405   44.5400 H   0  0  0  0  0  0  0  0  0  0  0  0
   57.7869   31.2633   43.5322 H   0  0  0  0  0  0  0  0  0  0  0  0
   56.6025   28.9572   43.9000 H   0  0  0  0  0  0  0  0  0  0  0  0
   56.9863   26.8421   45.0663 H   0  0  0  0  0  0  0  0  0  0  0  0
   58.3105   26.7670   47.1756 H   0  0  0  0  0  0  0  0  0  0  0  0
   54.9251   31.4945   53.3705 H   0  0  0  0  0  0  0  0  0  0  0  0
   55.1368   32.0404   51.6751 H   0  0  0  0  0  0  0  0  0  0  0  0
   52.9792   30.7322   52.2832 H   0  0  0  0  0  0  0  0  0  0  0  0
   53.9198   30.2297   50.8095 H   0  0  0  0  0  0  0  0  0  0  0  0
   54.1750   28.2330   51.6720 H   0  0  0  0  0  0  0  0  0  0  0  0
   54.6472   29.5072   54.3173 H   0  0  0  0  0  0  0  0  0  0  0  0
   54.9630   27.7846   53.8390 H   0  0  0  0  0  0  0  0  0  0  0  0
   56.9786   29.3957   53.9747 H   0  0  0  0  0  0  0  0  0  0  0  0
   56.8168   28.3630   52.5244 H   0  0  0  0  0  0  0  0  0  0  0  0
   57.6674   32.7110   52.1521 H   0  0  0  0  0  0  0  0  0  0  0  0
   60.3890   31.4430   49.1830 H   0  0  0  0  0  0  0  0  0  0  0  0
   58.9419   32.8660   43.2696 H   0  0  0  0  0  0  0  0  0  0  0  0
   57.7322   34.1033   43.7373 H   0  0  0  0  0  0  0  0  0  0  0  0
   60.6121   33.9338   44.3780 H   0  0  0  0  0  0  0  0  0  0  0  0
   59.4901   35.3368   44.4775 H   0  0  0  0  0  0  0  0  0  0  0  0
  1  2  2  0
  2  3  1  0
  3  4  1  0
  4  5  2  0
  5  6  1  0
  6  7  2  0
  7  8  1  0
  7  9  1  0
  9 10  2  0
  2 11  1  0
 11 12  1  0
 12 13  1  0
 13 14  1  0
 14 15  1  0
 15 16  1  0
 16 17  2  0
 17 18  1  0
 18 19  2  0
 19 20  1  0
 20 21  1  0
 21 22  1  0
 22 23  2  0
 23 24  1  0
 24 25  1  0
 25 26  1  0
 26 27  1  0
 27 28  1  0
 28 29  1  0
 29 30  1  0
 24 31  2  0
 31 32  1  0
 32 33  2  0
 32 34  1  0
 20 35  2  0
 35 36  1  0
 14 37  1  0
 37 38  1  0
 10  4  1  0
 38 11  1  0
 35 16  1  0
 34 22  1  0
 30 25  1  0
  3 39  1  0
  5 40  1  0
  6 41  1  0
  9 42  1  0
 10 43  1  0
 12 44  1  0
 12 45  1  0
 13 46  1  0
 13 47  1  0
 15 48  1  0
 15 49  1  0
 17 50  1  0
 18 51  1  0
 19 52  1  0
 26 53  1  0
 26 54  1  0
 27 55  1  0
 27 56  1  0
 28 57  1  0
 29 58  1  0
 29 59  1  0
 30 60  1  0
 30 61  1  0
 31 62  1  0
 34 63  1  0
 37 64  1  0
 37 65  1  0
 38 66  1  0
 38 67  1  0
M  END
>  <smiles>  (26) 
O=C(Nc1ccc(F)cc1)N1CCN(Cc2cccc(Sc3nc(N4CCNCC4)cc(=O)[nH]3)c2F)CC1

>  <score_type>  (26) 
oracle

>  <origin>  (26) 
adg

>  <m_score__min__energy>  (26) 
-9.6699999999999999

>  <m_primary>  (26) 
energy

$$$$
26:0
     RDKit          3D

 48 50  0  0  0  0  0  0  0  0999 V2000
   55.1510   29.3170   44.8620 N   0  0  0  0  0  0  0  0  0  0  0  0
   56.7880   29.5520   44.3630 S   0  0  0  0  0  0  0  0  0  0  0  0
   56.8540   29.5830   42.8620 O   0  0  0  0  0  0  0  0  0  0  0  0
   57.2930   30.8640   44.8950 O   0  0  0  0  0  0  0  0  0  0  0  0
   57.7850   28.2360   44.9770 C   0  0  0  0  0  0  0  0  0  0  0  0
   57.6060   26.9320   44.4970 C   0  0  0  0  0  0  0  0  0  0  0  0
   58.3770   25.8850   45.0100 C   0  0  0  0  0  0  0  0  0  0  0  0
   59.3340   26.1360   45.9970 C   0  0  0  0  0  0  0  0  0  0  0  0
   59.5390   27.4380   46.4700 C   0  0  0  0  0  0  0  0  0  0  0  0
   60.5150   27.6540   47.4980 N   0  0  0  0  0  0  0  0  0  0  0  0
   60.2910   27.5520   48.9080 C   0  0  0  0  0  0  0  0  0  0  0  0
   60.3830   26.4240   49.4600 O   0  0  0  0  0  0  0  0  0  0  0  0
   59.9660   28.7170   49.6790 N   0  0  0  0  0  0  0  0  0  0  0  0
   60.7320   29.9260   49.7760 C   0  0  0  0  0  0  0  0  0  0  0  0
   61.9980   29.8700   50.3730 C   0  0  0  0  0  0  0  0  0  0  0  0
   62.7720   31.0270   50.4990 C   0  0  0  0  0  0  0  0  0  0  0  0
   62.2790   32.2530   50.0460 C   0  0  0  0  0  0  0  0  0  0  0  0
   61.0020   32.3290   49.4750 C   0  0  0  0  0  0  0  0  0  0  0  0
   60.3680   33.8680   48.8960 S   0  0  0  0  0  0  0  0  0  0  0  0
   61.4770   34.8800   48.8060 O   0  0  0  0  0  0  0  0  0  0  0  0
   59.3430   34.3660   49.8770 O   0  0  0  0  0  0  0  0  0  0  0  0
   59.6280   33.6480   47.3320 N   0  0  0  0  0  0  0  0  0  0  0  0
   60.1830   34.6270   46.3730 C   0  0  0  0  0  0  0  0  0  0  0  0
   59.3440   34.7350   45.0800 C   0  0  0  0  0  0  0  0  0  0  0  0
   58.4120   33.5330   44.9120 C   0  0  0  0  0  0  0  0  0  0  0  0
   57.4820   33.3830   46.1270 C   0  0  0  0  0  0  0  0  0  0  0  0
   58.1670   33.7900   47.4460 C   0  0  0  0  0  0  0  0  0  0  0  0
   60.2290   31.1670   49.3440 C   0  0  0  0  0  0  0  0  0  0  0  0
   58.7390   28.4850   45.9740 C   0  0  0  0  0  0  0  0  0  0  0  0
   55.1650   28.6100   45.6320 H   0  0  0  0  0  0  0  0  0  0  0  0
   56.8580   26.7319   43.7157 H   0  0  0  0  0  0  0  0  0  0  0  0
   58.2301   24.8610   44.6359 H   0  0  0  0  0  0  0  0  0  0  0  0
   59.9297   25.3060   46.4047 H   0  0  0  0  0  0  0  0  0  0  0  0
   62.3852   28.9099   50.7448 H   0  0  0  0  0  0  0  0  0  0  0  0
   63.7712   30.9720   50.9557 H   0  0  0  0  0  0  0  0  0  0  0  0
   62.8944   33.1601   50.1378 H   0  0  0  0  0  0  0  0  0  0  0  0
   60.2138   35.6147   46.8563 H   0  0  0  0  0  0  0  0  0  0  0  0
   61.1882   34.2819   46.0895 H   0  0  0  0  0  0  0  0  0  0  0  0
   58.7391   35.6527   45.1225 H   0  0  0  0  0  0  0  0  0  0  0  0
   60.0334   34.7586   44.2232 H   0  0  0  0  0  0  0  0  0  0  0  0
   57.8022   33.6743   44.0075 H   0  0  0  0  0  0  0  0  0  0  0  0
   59.0249   32.6237   44.8254 H   0  0  0  0  0  0  0  0  0  0  0  0
   56.5986   34.0209   45.9764 H   0  0  0  0  0  0  0  0  0  0  0  0
   57.2043   32.3217   46.2073 H   0  0  0  0  0  0  0  0  0  0  0  0
   57.9216   34.8379   47.6733 H   0  0  0  0  0  0  0  0  0  0  0  0
   57.8070   33.1335   48.2518 H   0  0  0  0  0  0  0  0  0  0  0  0
   59.2238   31.2257   48.9011 H   0  0  0  0  0  0  0  0  0  0  0  0
   58.8630   29.5035   46.3706 H   0  0  0  0  0  0  0  0  0  0  0  0
  1  2  1  0
  2  3  2  0
  2  4  2  0
  2  5  1  0
  5  6  2  0
  6  7  1  0
  7  8  2  0
  8  9  1  0
  9 10  1  0
 10 11  1  0
 11 12  2  0
 11 13  1  0
 13 14  1  0
 14 15  2  0
 15 16  1  0
 16 17  2  0
 17 18  1  0
 18 19  1  0
 19 20  2  0
 19 21  2  0
 19 22  1  0
 22 23  1  0
 23 24  1  0
 24 25  1  0
 25 26  1  0
 26 27  1  0
 18 28  2  0
  9 29  2  0
 29  5  1  0
 28 14  1  0
 27 22  1  0
  1 30  1  0
  6 31  1  0
  7 32  1  0
  8 33  1  0
 15 34  1  0
 16 35  1  0
 17 36  1  0
 23 37  1  0
 23 38  1  0
 24 39  1  0
 24 40  1  0
 25 41  1  0
 25 42  1  0
 26 43  1  0
 26 44  1  0
 27 45  1  0
 27 46  1  0
 28 47  1  0
 29 48  1  0
M  CHG  3   1  -1  10  -1  13  -1
M  END
>  <UniqueID>  (27) 
24

>  <SMILES>  (27) 
[NH-]S(=O)(=O)c1cccc([N-]C(=O)[N-]c2cccc(S(=O)(=O)N3CCCCC3)c2)c1

>  <Energy>  (27) 
58.002721262760154

>  <Genealogy>  (27) 
[NH-]S(=O)(=O)c1cccc([N-]C(=O)[N-]c2cccc(S(=O)(=O)N3CCCCC3)c2)c1 (protonated)
[NH-]S(=O)(=O)c1cccc([N-]C(=O)[N-]c2cccc(S(=O)(=O)N3CCCCC3)c2)c1 (3D coordinates assigned)
[NH-]S(=O)(=O)c1cccc([N-]C(=O)[N-]c2cccc(S(=O)(=O)N3CCCCC3)c2)c1 (nonaromatic ring conformer: 58.002721262760154 kcal/mol)

>  <smiles>  (27) 
NS(=O)(=O)c1cccc(NC(=O)Nc2cccc(S(=O)(=O)N3CCCCC3)c2)c1

>  <score_type>  (27) 
oracle

>  <origin>  (27) 
adg

>  <m_score__min__energy>  (27) 
-15.300000000000001

>  <m_primary>  (27) 
energy

$$$$
27:0
     RDKit          3D

 43 45  0  0  0  0  0  0  0  0999 V2000
   58.9390   28.0850   45.8390 O   0  0  0  0  0  0  0  0  0  0  0  0
   57.8030   27.6550   45.5000 C   0  0  0  0  0  0  0  0  0  0  0  0
   56.8930   28.5020   44.7750 N   0  0  0  0  0  0  0  0  0  0  0  0
   57.2040   29.8420   44.3610 C   0  0  0  0  0  0  0  0  0  0  0  0
   57.0260   30.2050   43.0180 C   0  0  0  0  0  0  0  0  0  0  0  0
   57.3270   31.5000   42.5900 C   0  0  0  0  0  0  0  0  0  0  0  0
   57.8260   32.4400   43.4950 C   0  0  0  0  0  0  0  0  0  0  0  0
   58.0450   32.0810   44.8320 C   0  0  0  0  0  0  0  0  0  0  0  0
   58.6690   33.2710   45.9730 S   0  0  0  0  0  0  0  0  0  0  0  0
   58.5490   34.6490   45.3840 O   0  0  0  0  0  0  0  0  0  0  0  0
   57.8460   33.2170   47.2310 O   0  0  0  0  0  0  0  0  0  0  0  0
   60.3380   32.9180   46.3480 N   0  0  0  0  0  0  0  0  0  0  0  0
   61.0040   34.1340   46.8630 C   0  0  0  0  0  0  0  0  0  0  0  0
   62.3610   33.8290   47.5370 C   0  0  0  0  0  0  0  0  0  0  0  0
   62.8830   32.4430   47.1480 C   0  0  0  0  0  0  0  0  0  0  0  0
   61.8610   31.3500   47.5050 C   0  0  0  0  0  0  0  0  0  0  0  0
   60.4060   31.8240   47.3300 C   0  0  0  0  0  0  0  0  0  0  0  0
   57.7380   30.7830   45.2620 C   0  0  0  0  0  0  0  0  0  0  0  0
   57.4300   26.2670   45.8560 C   0  0  0  0  0  0  0  0  0  0  0  0
   58.4380   25.3020   46.0100 C   0  0  0  0  0  0  0  0  0  0  0  0
   58.1100   23.9870   46.3370 C   0  0  0  0  0  0  0  0  0  0  0  0
   56.7710   23.6420   46.5220 C   0  0  0  0  0  0  0  0  0  0  0  0
   55.8030   24.5870   46.3960 N   0  0  0  0  0  0  0  0  0  0  0  0
   56.0920   25.8790   46.0770 C   0  0  0  0  0  0  0  0  0  0  0  0
   55.1540   26.7170   46.0140 O   0  0  0  0  0  0  0  0  0  0  0  0
   55.9290   28.1530   44.5760 H   0  0  0  0  0  0  0  0  0  0  0  0
   56.6470   29.4653   42.2974 H   0  0  0  0  0  0  0  0  0  0  0  0
   57.1708   31.7804   41.5379 H   0  0  0  0  0  0  0  0  0  0  0  0
   58.0474   33.4634   43.1578 H   0  0  0  0  0  0  0  0  0  0  0  0
   61.1749   34.8242   46.0237 H   0  0  0  0  0  0  0  0  0  0  0  0
   60.3458   34.5766   47.6251 H   0  0  0  0  0  0  0  0  0  0  0  0
   63.0937   34.5875   47.2242 H   0  0  0  0  0  0  0  0  0  0  0  0
   62.2167   33.8495   48.6273 H   0  0  0  0  0  0  0  0  0  0  0  0
   63.0706   32.4202   46.0644 H   0  0  0  0  0  0  0  0  0  0  0  0
   63.8124   32.2494   47.7037 H   0  0  0  0  0  0  0  0  0  0  0  0
   62.0303   30.4816   46.8514 H   0  0  0  0  0  0  0  0  0  0  0  0
   62.0036   31.0920   48.5648 H   0  0  0  0  0  0  0  0  0  0  0  0
   59.7904   30.9828   46.9788 H   0  0  0  0  0  0  0  0  0  0  0  0
   60.0305   32.1888   48.2974 H   0  0  0  0  0  0  0  0  0  0  0  0
   57.9152   30.4977   46.3095 H   0  0  0  0  0  0  0  0  0  0  0  0
   59.4920   25.5849   45.8719 H   0  0  0  0  0  0  0  0  0  0  0  0
   58.8993   23.2289   46.4480 H   0  0  0  0  0  0  0  0  0  0  0  0
   56.4990   22.6053   46.7698 H   0  0  0  0  0  0  0  0  0  0  0  0
  1  2  2  0
  2  3  1  0
  3  4  1  0
  4  5  2  0
  5  6  1  0
  6  7  2  0
  7  8  1  0
  8  9  1  0
  9 10  2  0
  9 11  2  0
  9 12  1  0
 12 13  1  0
 13 14  1  0
 14 15  1  0
 15 16  1  0
 16 17  1  0
  8 18  2  0
  2 19  1  0
 19 20  2  0
 20 21  1  0
 21 22  2  0
 22 23  1  0
 23 24  1  0
 24 25  2  0
 18  4  1  0
 24 19  1  0
 17 12  1  0
  3 26  1  0
  5 27  1  0
  6 28  1  0
  7 29  1  0
 13 30  1  0
 13 31  1  0
 14 32  1  0
 14 33  1  0
 15 34  1  0
 15 35  1  0
 16 36  1  0
 16 37  1  0
 17 38  1  0
 17 39  1  0
 18 40  1  0
 20 41  1  0
 21 42  1  0
 22 43  1  0
M  CHG  1  23  -1
M  END
>  <UniqueID>  (28) 
25

>  <SMILES>  (28) 
O=C(Nc1cccc(S(=O)(=O)N2CCCCC2)c1)c1ccc[n-]c1=O

>  <Energy>  (28) 
56.664292711758186

>  <Genealogy>  (28) 
O=C(Nc1cccc(S(=O)(=O)N2CCCCC2)c1)c1ccc[n-]c1=O (protonated)
O=C(Nc1cccc(S(=O)(=O)N2CCCCC2)c1)c1ccc[n-]c1=O (3D coordinates assigned)
O=C(Nc1cccc(S(=O)(=O)N2CCCCC2)c1)c1ccc[n-]c1=O (nonaromatic ring conformer: 56.664292711758186 kcal/mol)

>  <smiles>  (28) 
O=C(Nc1cccc(S(=O)(=O)N2CCCCC2)c1)c1ccc[nH]c1=O

>  <score_type>  (28) 
oracle

>  <origin>  (28) 
adg

>  <m_score__min__energy>  (28) 
-11.16

>  <m_primary>  (28) 
energy

$$$$
28:0
     RDKit          3D

 57 59  0  0  0  0  0  0  0  0999 V2000
   60.9100   26.9250   50.3610 C   0  0  0  0  0  0  0  0  0  0  0  0
   60.3780   26.7520   48.9480 C   0  0  0  0  0  0  0  0  0  0  0  0
   59.4920   27.8240   48.6390 O   0  0  0  0  0  0  0  0  0  0  0  0
   59.8850   29.1630   48.4870 C   0  0  0  0  0  0  0  0  0  0  0  0
   60.7780   29.5710   47.4760 C   0  0  0  0  0  0  0  0  0  0  0  0
   61.1400   30.9140   47.3550 C   0  0  0  0  0  0  0  0  0  0  0  0
   60.6280   31.8670   48.2400 C   0  0  0  0  0  0  0  0  0  0  0  0
   61.0650   33.5640   48.0570 S   0  0  0  0  0  0  0  0  0  0  0  0
   62.4020   33.6480   47.3740 O   0  0  0  0  0  0  0  0  0  0  0  0
   61.1770   34.2100   49.4110 O   0  0  0  0  0  0  0  0  0  0  0  0
   59.8620   34.3920   47.0960 N   0  0  0  0  0  0  0  0  0  0  0  0
   60.1490   34.2020   45.6560 C   0  0  0  0  0  0  0  0  0  0  0  0
   58.9220   34.5130   44.7920 C   0  0  0  0  0  0  0  0  0  0  0  0
   57.7430   33.5650   45.1260 C   0  0  0  0  0  0  0  0  0  0  0  0
   57.6370   32.4430   44.1220 C   0  0  0  0  0  0  0  0  0  0  0  0
   57.7220   32.6990   42.8890 O   0  0  0  0  0  0  0  0  0  0  0  0
   57.4560   31.0910   44.5660 N   0  0  0  0  0  0  0  0  0  0  0  0
   57.4510   29.9560   43.6450 C   0  0  0  0  0  0  0  0  0  0  0  0
   57.6030   28.6770   44.4130 C   0  0  0  0  0  0  0  0  0  0  0  0
   58.0390   27.5040   43.7790 C   0  0  0  0  0  0  0  0  0  0  0  0
   58.2010   26.3380   44.5320 C   0  0  0  0  0  0  0  0  0  0  0  0
   57.9350   26.3540   45.9020 C   0  0  0  0  0  0  0  0  0  0  0  0
   57.5130   27.5420   46.5040 C   0  0  0  0  0  0  0  0  0  0  0  0
   57.3620   28.6670   45.7540 N   0  0  0  0  0  0  0  0  0  0  0  0
   57.8440   32.9870   46.5550 C   0  0  0  0  0  0  0  0  0  0  0  0
   58.4910   34.0010   47.5100 C   0  0  0  0  0  0  0  0  0  0  0  0
   59.7370   31.4690   49.2460 C   0  0  0  0  0  0  0  0  0  0  0  0
   59.3620   30.1170   49.3760 C   0  0  0  0  0  0  0  0  0  0  0  0
   58.4710   29.6820   50.3700 O   0  0  0  0  0  0  0  0  0  0  0  0
   58.3470   30.2770   51.6580 C   0  0  0  0  0  0  0  0  0  0  0  0
   60.1214   26.6685   51.0837 H   0  0  0  0  0  0  0  0  0  0  0  0
   61.7746   26.2617   50.5110 H   0  0  0  0  0  0  0  0  0  0  0  0
   61.2191   27.9700   50.5110 H   0  0  0  0  0  0  0  0  0  0  0  0
   61.2176   26.7540   48.2374 H   0  0  0  0  0  0  0  0  0  0  0  0
   59.8373   25.7969   48.8744 H   0  0  0  0  0  0  0  0  0  0  0  0
   61.1919   28.8277   46.7787 H   0  0  0  0  0  0  0  0  0  0  0  0
   61.8323   31.2239   46.5584 H   0  0  0  0  0  0  0  0  0  0  0  0
   60.9708   34.8724   45.3640 H   0  0  0  0  0  0  0  0  0  0  0  0
   60.4258   33.1495   45.4956 H   0  0  0  0  0  0  0  0  0  0  0  0
   58.6093   35.5517   44.9745 H   0  0  0  0  0  0  0  0  0  0  0  0
   59.1952   34.3684   43.7363 H   0  0  0  0  0  0  0  0  0  0  0  0
   56.8297   34.1757   45.0725 H   0  0  0  0  0  0  0  0  0  0  0  0
   57.4040   30.8910   45.5900 H   0  0  0  0  0  0  0  0  0  0  0  0
   56.5003   29.9389   43.0919 H   0  0  0  0  0  0  0  0  0  0  0  0
   58.2889   30.0574   42.9396 H   0  0  0  0  0  0  0  0  0  0  0  0
   58.2513   27.5021   42.6997 H   0  0  0  0  0  0  0  0  0  0  0  0
   58.5373   25.4101   44.0463 H   0  0  0  0  0  0  0  0  0  0  0  0
   58.0564   25.4401   46.5020 H   0  0  0  0  0  0  0  0  0  0  0  0
   57.3030   27.5678   47.5835 H   0  0  0  0  0  0  0  0  0  0  0  0
   56.8344   32.7437   46.9176 H   0  0  0  0  0  0  0  0  0  0  0  0
   58.4691   32.0824   46.5256 H   0  0  0  0  0  0  0  0  0  0  0  0
   57.8631   34.9036   47.5413 H   0  0  0  0  0  0  0  0  0  0  0  0
   58.5686   33.5215   48.4970 H   0  0  0  0  0  0  0  0  0  0  0  0
   59.3272   32.2180   49.9396 H   0  0  0  0  0  0  0  0  0  0  0  0
   58.5064   29.5120   52.4322 H   0  0  0  0  0  0  0  0  0  0  0  0
   59.0987   31.0725   51.7683 H   0  0  0  0  0  0  0  0  0  0  0  0
   57.3401   30.7060   51.7683 H   0  0  0  0  0  0  0  0  0  0  0  0
  1  2  1  0
  2  3  1  0
  3  4  1  0
  4  5  2  0
  5  6  1  0
  6  7  2  0
  7  8  1  0
  8  9  2  0
  8 10  2  0
  8 11  1  0
 11 12  1  0
 12 13  1  0
 13 14  1  0
 14 15  1  0
 15 16  2  0
 15 17  1  0
 17 18  1  0
 18 19  1  0
 19 20  2  0
 20 21  1  0
 21 22  2  0
 22 23  1  0
 23 24  2  0
 14 25  1  0
 25 26  1  0
  7 27  1  0
 27 28  2  0
 28 29  1  0
 29 30  1  0
 28  4  1  0
 26 11  1  0
 24 19  1  0
  1 31  1  0
  1 32  1  0
  1 33  1  0
  2 34  1  0
  2 35  1  0
  5 36  1  0
  6 37  1  0
 12 38  1  0
 12 39  1  0
 13 40  1  0
 13 41  1  0
 14 42  1  0
 17 43  1  0
 18 44  1  0
 18 45  1  0
 20 46  1  0
 21 47  1  0
 22 48  1  0
 23 49  1  0
 25 50  1  0
 25 51  1  0
 26 52  1  0
 26 53  1  0
 27 54  1  0
 30 55  1  0
 30 56  1  0
 30 57  1  0
M  END
>  <UniqueID>  (29) 
26

>  <SMILES>  (29) 
CCOc1ccc(S(=O)(=O)N2CCC(C(=O)NCc3ccccn3)CC2)cc1OC

>  <Energy>  (29) 
57.55871222159845

>  <Genealogy>  (29) 
CCOc1ccc(S(=O)(=O)N2CCC(C(=O)NCc3ccccn3)CC2)cc1OC (3D coordinates assigned)
CCOc1ccc(S(=O)(=O)N2CCC(C(=O)NCc3ccccn3)CC2)cc1OC (nonaromatic ring conformer: 57.55871222159845 kcal/mol)

>  <smiles>  (29) 
CCOc1ccc(S(=O)(=O)N2CCC(C(=O)NCc3ccccn3)CC2)cc1OC

>  <score_type>  (29) 
oracle

>  <origin>  (29) 
adg

>  <m_score__min__energy>  (29) 
-8.8800000000000008

>  <m_primary>  (29) 
energy

$$$$
29:0
     RDKit          3D

 85 90  0  0  0  0  0  0  0  0999 V2000
   59.8710   26.9660   48.1400 O   0  0  0  0  0  0  0  0  0  0  0  0
   59.5800   28.1860   48.2800 C   0  0  0  0  0  0  0  0  0  0  0  0
   60.0250   28.8600   49.3730 N   0  0  0  0  0  0  0  0  0  0  0  0
   59.7410   30.1850   49.5590 C   0  0  0  0  0  0  0  0  0  0  0  0
   60.3790   30.9870   51.0470 S   0  0  0  0  0  0  0  0  0  0  0  0
   60.6660   29.4240   51.9530 C   0  0  0  0  0  0  0  0  0  0  0  0
   62.0940   29.3800   52.5150 C   0  0  0  0  0  0  0  0  0  0  0  0
   62.8320   30.6200   52.1820 N   0  0  0  0  0  0  0  0  0  0  0  0
   63.4420   31.2830   53.3600 C   0  0  0  0  0  0  0  0  0  0  0  0
   64.7280   30.5860   53.8320 C   0  0  0  0  0  0  0  0  0  0  0  0
   65.6920   30.4350   52.7330 N   0  0  0  0  0  0  0  0  0  0  0  0
   65.0800   29.6930   51.6230 C   0  0  0  0  0  0  0  0  0  0  0  0
   63.8250   30.4130   51.1090 C   0  0  0  0  0  0  0  0  0  0  0  0
   58.9670   30.8570   48.6390 N   0  0  0  0  0  0  0  0  0  0  0  0
   58.5700   32.2650   48.8140 C   0  0  0  0  0  0  0  0  0  0  0  0
   58.5950   33.0620   47.5170 C   0  0  0  0  0  0  0  0  0  0  0  0
   57.3960   33.4380   46.8740 C   0  0  0  0  0  0  0  0  0  0  0  0
   57.4270   34.1930   45.6980 C   0  0  0  0  0  0  0  0  0  0  0  0
   58.6480   34.5650   45.1340 C   0  0  0  0  0  0  0  0  0  0  0  0
   59.8420   34.1810   45.7440 C   0  0  0  0  0  0  0  0  0  0  0  0
   59.8300   33.4210   46.9220 C   0  0  0  0  0  0  0  0  0  0  0  0
   61.1200   33.0040   47.5080 C   0  0  0  0  0  0  0  0  0  0  0  0
   61.9040   32.0340   46.8660 C   0  0  0  0  0  0  0  0  0  0  0  0
   63.1130   31.6220   47.4350 C   0  0  0  0  0  0  0  0  0  0  0  0
   63.5470   32.1740   48.6440 C   0  0  0  0  0  0  0  0  0  0  0  0
   62.7750   33.1450   49.2900 C   0  0  0  0  0  0  0  0  0  0  0  0
   63.3160   33.8350   50.8220 S   0  0  0  0  0  0  0  0  0  0  0  0
   63.3710   35.3300   50.6950 O   0  0  0  0  0  0  0  0  0  0  0  0
   62.3070   33.4960   51.8880 O   0  0  0  0  0  0  0  0  0  0  0  0
   64.8830   33.2250   51.2960 N   0  0  0  0  0  0  0  0  0  0  0  0
   65.3920   33.9630   52.4690 C   0  0  0  0  0  0  0  0  0  0  0  0
   66.8870   33.6630   52.6990 C   0  0  0  0  0  0  0  0  0  0  0  0
   67.2820   32.5020   51.9930 O   0  0  0  0  0  0  0  0  0  0  0  0
   67.1930   32.7250   50.5960 C   0  0  0  0  0  0  0  0  0  0  0  0
   65.8330   33.3240   50.1770 C   0  0  0  0  0  0  0  0  0  0  0  0
   61.5630   33.5660   48.7160 C   0  0  0  0  0  0  0  0  0  0  0  0
   58.5170   30.2010   47.5290 C   0  0  0  0  0  0  0  0  0  0  0  0
   58.8140   28.8500   47.3170 C   0  0  0  0  0  0  0  0  0  0  0  0
   58.3140   28.1470   46.0760 C   0  0  0  0  0  0  0  0  0  0  0  0
   57.7930   29.1230   45.0420 C   0  0  0  0  0  0  0  0  0  0  0  0
   58.6620   30.0760   44.4740 C   0  0  0  0  0  0  0  0  0  0  0  0
   58.1780   31.0170   43.5580 C   0  0  0  0  0  0  0  0  0  0  0  0
   56.8200   31.0450   43.2290 C   0  0  0  0  0  0  0  0  0  0  0  0
   55.9470   30.1070   43.7860 C   0  0  0  0  0  0  0  0  0  0  0  0
   56.4240   29.1480   44.6890 C   0  0  0  0  0  0  0  0  0  0  0  0
   55.5280   28.2410   45.2420 O   0  0  0  0  0  0  0  0  0  0  0  0
   60.5880   28.3520   50.0890 H   0  0  0  0  0  0  0  0  0  0  0  0
   59.9482   29.3503   52.7833 H   0  0  0  0  0  0  0  0  0  0  0  0
   60.5320   28.5816   51.2585 H   0  0  0  0  0  0  0  0  0  0  0  0
   62.0473   29.2715   53.6086 H   0  0  0  0  0  0  0  0  0  0  0  0
   62.6220   28.5258   52.0660 H   0  0  0  0  0  0  0  0  0  0  0  0
   63.6826   32.3228   53.0935 H   0  0  0  0  0  0  0  0  0  0  0  0
   62.7148   31.2325   54.1838 H   0  0  0  0  0  0  0  0  0  0  0  0
   65.1876   31.1864   54.6309 H   0  0  0  0  0  0  0  0  0  0  0  0
   64.4629   29.5836   54.1994 H   0  0  0  0  0  0  0  0  0  0  0  0
   65.9660   31.3880   52.3950 H   0  0  0  0  0  0  0  0  0  0  0  0
   65.8076   29.6074   50.8025 H   0  0  0  0  0  0  0  0  0  0  0  0
   64.7898   28.6955   51.9846 H   0  0  0  0  0  0  0  0  0  0  0  0
   64.1181   31.3919   50.7017 H   0  0  0  0  0  0  0  0  0  0  0  0
   63.3637   29.7836   50.3337 H   0  0  0  0  0  0  0  0  0  0  0  0
   57.5484   32.2920   49.2210 H   0  0  0  0  0  0  0  0  0  0  0  0
   59.2993   32.7275   49.4954 H   0  0  0  0  0  0  0  0  0  0  0  0
   56.4292   33.1344   47.3019 H   0  0  0  0  0  0  0  0  0  0  0  0
   56.4857   34.4949   45.2155 H   0  0  0  0  0  0  0  0  0  0  0  0
   58.6687   35.1604   44.2093 H   0  0  0  0  0  0  0  0  0  0  0  0
   60.8022   34.4773   45.2966 H   0  0  0  0  0  0  0  0  0  0  0  0
   61.5674   31.5971   45.9142 H   0  0  0  0  0  0  0  0  0  0  0  0
   63.7251   30.8606   46.9294 H   0  0  0  0  0  0  0  0  0  0  0  0
   64.4977   31.8439   49.0881 H   0  0  0  0  0  0  0  0  0  0  0  0
   65.2627   35.0422   52.2999 H   0  0  0  0  0  0  0  0  0  0  0  0
   64.8279   33.6441   53.3579 H   0  0  0  0  0  0  0  0  0  0  0  0
   67.4842   34.5181   52.3494 H   0  0  0  0  0  0  0  0  0  0  0  0
   67.0511   33.4945   53.7736 H   0  0  0  0  0  0  0  0  0  0  0  0
   67.9913   33.4208   50.2985 H   0  0  0  0  0  0  0  0  0  0  0  0
   67.2971   31.7511   50.0953 H   0  0  0  0  0  0  0  0  0  0  0  0
   65.9674   34.3810   49.9036 H   0  0  0  0  0  0  0  0  0  0  0  0
   65.4394   32.7670   49.3140 H   0  0  0  0  0  0  0  0  0  0  0  0
   60.9594   34.3385   49.2150 H   0  0  0  0  0  0  0  0  0  0  0  0
   57.9107   30.7438   46.7889 H   0  0  0  0  0  0  0  0  0  0  0  0
   59.1418   27.5717   45.6359 H   0  0  0  0  0  0  0  0  0  0  0  0
   57.4836   27.4882   46.3700 H   0  0  0  0  0  0  0  0  0  0  0  0
   59.7263   30.0803   44.7520 H   0  0  0  0  0  0  0  0  0  0  0  0
   58.8689   31.7371   43.0954 H   0  0  0  0  0  0  0  0  0  0  0  0
   56.4385   31.8054   42.5317 H   0  0  0  0  0  0  0  0  0  0  0  0
   54.8811   30.1216   43.5145 H   0  0  0  0  0  0  0  0  0  0  0  0
  1  2  2  0
  2  3  1  0
  3  4  2  0
  4  5  1  0
  5  6  1  0
  6  7  1  0
  7  8  1  0
  8  9  1  0
  9 10  1  0
 10 11  1  0
 11 12  1  0
 12 13  1  0
  4 14  1  0
 14 15  1  0
 15 16  1  0
 16 17  2  0
 17 18  1  0
 18 19  2  0
 19 20  1  0
 20 21  2  0
 21 22  1  0
 22 23  2  0
 23 24  1  0
 24 25  2  0
 25 26  1  0
 26 27  1  0
 27 28  2  0
 27 29  2  0
 27 30  1  0
 30 31  1  0
 31 32  1  0
 32 33  1  0
 33 34  1  0
 34 35  1  0
 26 36  2  0
 14 37  1  0
 37 38  2  0
 38 39  1  0
 39 40  1  0
 40 41  2  0
 41 42  1  0
 42 43  2  0
 43 44  1  0
 44 45  2  0
 45 46  1  0
 38  2  1  0
 45 40  1  0
 13  8  1  0
 21 16  1  0
 36 22  1  0
 35 30  1  0
  3 47  1  0
  6 48  1  0
  6 49  1  0
  7 50  1  0
  7 51  1  0
  9 52  1  0
  9 53  1  0
 10 54  1  0
 10 55  1  0
 11 56  1  0
 12 57  1  0
 12 58  1  0
 13 59  1  0
 13 60  1  0
 15 61  1  0
 15 62  1  0
 17 63  1  0
 18 64  1  0
 19 65  1  0
 20 66  1  0
 23 67  1  0
 24 68  1  0
 25 69  1  0
 31 70  1  0
 31 71  1  0
 32 72  1  0
 32 73  1  0
 34 74  1  0
 34 75  1  0
 35 76  1  0
 35 77  1  0
 36 78  1  0
 37 79  1  0
 39 80  1  0
 39 81  1  0
 41 82  1  0
 42 83  1  0
 43 84  1  0
 44 85  1  0
M  CHG  2   3   1  46  -1
M  END
>  <UniqueID>  (30) 
27

>  <SMILES>  (30) 
O=c1[nH+]c(SCCN2CCNCC2)n(Cc2ccccc2-c2cccc(S(=O)(=O)N3CCOCC3)c2)cc1Cc1ccccc1[O-]

>  <Energy>  (30) 
111.56365744792144

>  <Genealogy>  (30) 
O=c1[nH+]c(SCCN2CCNCC2)n(Cc2ccccc2-c2cccc(S(=O)(=O)N3CCOCC3)c2)cc1Cc1ccccc1[O-] (protonated)
O=c1[nH+]c(SCCN2CCNCC2)n(Cc2ccccc2-c2cccc(S(=O)(=O)N3CCOCC3)c2)cc1Cc1ccccc1[O-] (3D coordinates assigned)
O=c1[nH+]c(SCCN2CCNCC2)n(Cc2ccccc2-c2cccc(S(=O)(=O)N3CCOCC3)c2)cc1Cc1ccccc1[O-] (nonaromatic ring conformer: 111.56365744792144 kcal/mol)

>  <smiles>  (30) 
O=c1nc(SCCN2CCNCC2)n(Cc2ccccc2-c2cccc(S(=O)(=O)N3CCOCC3)c2)cc1Cc1ccccc1O

>  <score_type>  (30) 
oracle

>  <origin>  (30) 
adg

>  <m_score__min__energy>  (30) 
-14.77

>  <m_primary>  (30) 
energy

$$$$
30:0
     RDKit          3D

 25 26  0  0  0  0  0  0  0  0999 V2000
   58.5330   30.2120   50.5870 C   0  0  0  0  0  0  0  0  0  0  0  0
   58.3990   29.3650   52.1930 S   0  0  0  0  0  0  0  0  0  0  0  0
   56.6900   29.8520   52.4420 C   0  0  0  0  0  0  0  0  0  0  0  0
   55.7730   28.9420   52.9770 C   0  0  0  0  0  0  0  0  0  0  0  0
   54.4390   29.3180   53.1670 C   0  0  0  0  0  0  0  0  0  0  0  0
   54.0150   30.6130   52.8280 C   0  0  0  0  0  0  0  0  0  0  0  0
   52.5730   31.0060   52.9980 C   0  0  0  0  0  0  0  0  0  0  0  0
   51.9140   31.1310   51.6600 C   0  0  0  0  0  0  0  0  0  0  0  0
   52.1130   30.2790   50.6380 N   0  0  0  0  0  0  0  0  0  0  0  0
   51.3850   30.8170   49.6330 C   0  0  0  0  0  0  0  0  0  0  0  0
   51.2950   30.1420   48.1500 S   0  0  0  0  0  0  0  0  0  0  0  0
   50.7490   31.9650   49.9540 N   0  0  0  0  0  0  0  0  0  0  0  0
   51.0990   32.1520   51.2360 C   0  0  0  0  0  0  0  0  0  0  0  0
   50.6870   33.2360   52.0000 O   0  0  0  0  0  0  0  0  0  0  0  0
   54.9360   31.5180   52.2760 C   0  0  0  0  0  0  0  0  0  0  0  0
   56.2700   31.1390   52.0860 C   0  0  0  0  0  0  0  0  0  0  0  0
   58.7029   31.2862   50.7520 H   0  0  0  0  0  0  0  0  0  0  0  0
   59.3756   29.7904   50.0193 H   0  0  0  0  0  0  0  0  0  0  0  0
   57.6014   30.0711   50.0193 H   0  0  0  0  0  0  0  0  0  0  0  0
   56.1013   27.9280   53.2491 H   0  0  0  0  0  0  0  0  0  0  0  0
   53.7200   28.5970   53.5832 H   0  0  0  0  0  0  0  0  0  0  0  0
   52.0535   30.2375   53.5893 H   0  0  0  0  0  0  0  0  0  0  0  0
   52.5221   31.9746   53.5169 H   0  0  0  0  0  0  0  0  0  0  0  0
   54.6078   32.5287   51.9918 H   0  0  0  0  0  0  0  0  0  0  0  0
   56.9886   31.8528   51.6568 H   0  0  0  0  0  0  0  0  0  0  0  0
  1  2  1  0
  2  3  1  0
  3  4  2  0
  4  5  1  0
  5  6  2  0
  6  7  1  0
  7  8  1  0
  8  9  1  0
  9 10  1  0
 10 11  2  0
 10 12  1  0
 12 13  1  0
 13 14  1  0
  6 15  1  0
 15 16  2  0
 16  3  1  0
 13  8  2  0
  1 17  1  0
  1 18  1  0
  1 19  1  0
  4 20  1  0
  5 21  1  0
  7 22  1  0
  7 23  1  0
 15 24  1  0
 16 25  1  0
M  CHG  3   9  -1  12  -1  14  -1
M  END
>  <UniqueID>  (31) 
28

>  <SMILES>  (31) 
CSc1ccc(Cc2[n-]c(=S)[n-]c2[O-])cc1

>  <Energy>  (31) 
48.16856014144784

>  <Genealogy>  (31) 
CSc1ccc(Cc2[n-]c(=S)[n-]c2[O-])cc1 (protonated)
CSc1ccc(Cc2[n-]c(=S)[n-]c2[O-])cc1 (3D coordinates assigned)
CSc1ccc(Cc2[n-]c(=S)[n-]c2[O-])cc1 (optimized conformer: 48.16856014144784 kcal/mol)

>  <smiles>  (31) 
CSc1ccc(Cc2[nH]c(=S)[nH]c2O)cc1

>  <score_type>  (31) 
oracle

>  <origin>  (31) 
adg

>  <m_score__min__energy>  (31) 
-14.640000000000001

>  <m_primary>  (31) 
energy

$$$$
31:0
     RDKit          3D

 40 42  0  0  0  0  0  0  0  0999 V2000
   58.4222   32.6072   44.1530 H   0  0  0  0  0  0  0  0  0  0  0  0
   58.8370   33.3250   44.8760 C   0  0  0  0  0  0  0  0  0  0  0  0
   58.6743   34.4037   44.7352 H   0  0  0  0  0  0  0  0  0  0  0  0
   59.5410   32.8850   45.9290 C   0  0  0  0  0  0  0  0  0  0  0  0
   60.0180   33.8310   46.7730 N   0  0  0  0  0  0  0  0  0  0  0  0
   60.5610   33.5330   47.9750 C   0  0  0  0  0  0  0  0  0  0  0  0
   60.9940   34.4740   48.6940 O   0  0  0  0  0  0  0  0  0  0  0  0
   60.6100   32.2360   48.4070 N   0  0  0  0  0  0  0  0  0  0  0  0
   61.1140   31.9140   49.7600 C   0  0  0  0  0  0  0  0  0  0  0  0
   61.3429   30.8395   49.8144 H   0  0  0  0  0  0  0  0  0  0  0  0
   62.0211   32.5062   49.9510 H   0  0  0  0  0  0  0  0  0  0  0  0
   60.0800   32.2550   50.8070 C   0  0  0  0  0  0  0  0  0  0  0  0
   58.8960   31.5000   50.8790 C   0  0  0  0  0  0  0  0  0  0  0  0
   58.7304   30.6814   50.1631 H   0  0  0  0  0  0  0  0  0  0  0  0
   57.9200   31.7770   51.8540 C   0  0  0  0  0  0  0  0  0  0  0  0
   56.6780   30.9760   51.9280 C   0  0  0  0  0  0  0  0  0  0  0  0
   56.6970   29.7400   51.6830 O   0  0  0  0  0  0  0  0  0  0  0  0
   55.4730   31.5770   52.2680 O   0  0  0  0  0  0  0  0  0  0  0  0
   58.1420   32.8250   52.7610 C   0  0  0  0  0  0  0  0  0  0  0  0
   57.3883   33.0513   53.5296 H   0  0  0  0  0  0  0  0  0  0  0  0
   59.3130   33.5820   52.6940 C   0  0  0  0  0  0  0  0  0  0  0  0
   59.4755   34.4017   53.4093 H   0  0  0  0  0  0  0  0  0  0  0  0
   60.2800   33.3050   51.7240 C   0  0  0  0  0  0  0  0  0  0  0  0
   61.4340   34.0810   51.6820 O   0  0  0  0  0  0  0  0  0  0  0  0
   60.1750   31.2270   47.5810 C   0  0  0  0  0  0  0  0  0  0  0  0
   60.2380   30.0290   47.9820 O   0  0  0  0  0  0  0  0  0  0  0  0
   59.6990   31.5090   46.2720 C   0  0  0  0  0  0  0  0  0  0  0  0
   59.4480   30.4650   45.4310 C   0  0  0  0  0  0  0  0  0  0  0  0
   60.1552   30.3151   44.6019 H   0  0  0  0  0  0  0  0  0  0  0  0
   58.3190   29.5150   45.5240 C   0  0  0  0  0  0  0  0  0  0  0  0
   58.5280   28.2500   46.0950 C   0  0  0  0  0  0  0  0  0  0  0  0
   59.5172   27.9883   46.4988 H   0  0  0  0  0  0  0  0  0  0  0  0
   57.4850   27.3210   46.1530 C   0  0  0  0  0  0  0  0  0  0  0  0
   57.6508   26.3380   46.6179 H   0  0  0  0  0  0  0  0  0  0  0  0
   56.2310   27.6390   45.6210 C   0  0  0  0  0  0  0  0  0  0  0  0
   55.1980   26.7110   45.6840 O   0  0  0  0  0  0  0  0  0  0  0  0
   56.0220   28.8870   45.0230 C   0  0  0  0  0  0  0  0  0  0  0  0
   54.7820   29.2040   44.4820 O   0  0  0  0  0  0  0  0  0  0  0  0
   57.0650   29.8180   44.9640 C   0  0  0  0  0  0  0  0  0  0  0  0
   56.9034   30.7912   44.4774 H   0  0  0  0  0  0  0  0  0  0  0  0
  1  2  1  0
  2  3  1  0
  2  4  2  0
  4  5  1  0
  5  6  1  0
  6  7  2  0
  6  8  1  0
  8  9  1  0
  9 10  1  0
  9 11  1  0
  9 12  1  0
 12 13  2  0
 13 14  1  0
 13 15  1  0
 15 16  1  0
 16 17  2  0
 16 18  1  0
 15 19  2  0
 19 20  1  0
 19 21  1  0
 21 22  1  0
 21 23  2  0
 23 24  1  0
  8 25  1  0
 25 26  2  0
 25 27  1  0
 27 28  2  0
 28 29  1  0
 28 30  1  0
 30 31  2  0
 31 32  1  0
 31 33  1  0
 33 34  1  0
 33 35  2  0
 35 36  1  0
 35 37  1  0
 37 38  1  0
 37 39  2  0
 39 40  1  0
 27  4  1  0
 39 30  1  0
 23 12  1  0
M  CHG  5   5  -1  18  -1  24  -1  36  -1  38  -1
M  END
>  <UniqueID>  (32) 
29

>  <SMILES>  (32) 
C=c1[n-]c(=O)n(Cc2cc(C(=O)[O-])ccc2[O-])c(=O)/c1=C/c1ccc([O-])c([O-])c1

>  <Energy>  (32) 
71.8603170130287

>  <Genealogy>  (32) 
C=c1[n-]c(=O)n(Cc2cc(C(=O)[O-])ccc2[O-])c(=O)c1=Cc1ccc([O-])c([O-])c1 (protonated)
C=c1[n-]c(=O)n(Cc2cc(C(=O)[O-])ccc2[O-])c(=O)/c1=C/c1ccc([O-])c([O-])c1 (cis-trans isomerization)
C=c1[n-]c(=O)n(Cc2cc(C(=O)[O-])ccc2[O-])c(=O)/c1=C/c1ccc([O-])c([O-])c1 (3D coordinates assigned)
C=c1[n-]c(=O)n(Cc2cc(C(=O)[O-])ccc2[O-])c(=O)/c1=C/c1ccc([O-])c([O-])c1 (optimized conformer: 71.8603170130287 kcal/mol)

>  <smiles>  (32) 
C=c1[nH]c(=O)n(Cc2cc(C(=O)O)ccc2O)c(=O)c1=Cc1ccc(O)c(O)c1

>  <score_type>  (32) 
oracle

>  <origin>  (32) 
adg

>  <m_score__min__energy>  (32) 
-18.579999999999998

>  <m_primary>  (32) 
energy

$$$$
32:0
     RDKit          3D

 40 42  0  0  0  0  0  0  0  0999 V2000
   58.0310   28.6430   47.1360 O   0  0  0  0  0  0  0  0  0  0  0  0
   57.4860   28.7580   46.0040 C   0  0  0  0  0  0  0  0  0  0  0  0
   56.6610   27.6940   45.5020 N   0  0  0  0  0  0  0  0  0  0  0  0
   56.7510   26.3310   45.9620 C   0  0  0  0  0  0  0  0  0  0  0  0
   57.9790   25.7630   46.3340 C   0  0  0  0  0  0  0  0  0  0  0  0
   58.0360   24.4670   46.7370 N   0  0  0  0  0  0  0  0  0  0  0  0
   56.9180   23.6980   46.7810 C   0  0  0  0  0  0  0  0  0  0  0  0
   56.9930   22.5020   47.1610 O   0  0  0  0  0  0  0  0  0  0  0  0
   55.7200   24.2200   46.4110 N   0  0  0  0  0  0  0  0  0  0  0  0
   55.6130   25.5100   45.9990 C   0  0  0  0  0  0  0  0  0  0  0  0
   54.4860   25.9590   45.6620 O   0  0  0  0  0  0  0  0  0  0  0  0
   57.6660   30.0110   45.2300 C   0  0  0  0  0  0  0  0  0  0  0  0
   57.1990   30.1170   43.9080 C   0  0  0  0  0  0  0  0  0  0  0  0
   57.3810   31.2990   43.1870 C   0  0  0  0  0  0  0  0  0  0  0  0
   58.0370   32.3830   43.7690 C   0  0  0  0  0  0  0  0  0  0  0  0
   58.5260   32.2910   45.0790 C   0  0  0  0  0  0  0  0  0  0  0  0
   59.3810   33.6550   45.8060 S   0  0  0  0  0  0  0  0  0  0  0  0
   58.4350   34.4160   46.6930 O   0  0  0  0  0  0  0  0  0  0  0  0
   59.8480   34.5830   44.7200 O   0  0  0  0  0  0  0  0  0  0  0  0
   60.7600   33.1260   46.7440 N   0  0  0  0  0  0  0  0  0  0  0  0
   60.4730   33.1480   48.1960 C   0  0  0  0  0  0  0  0  0  0  0  0
   61.1560   34.3350   48.9010 C   0  0  0  0  0  0  0  0  0  0  0  0
   62.5680   34.3430   48.7480 O   0  0  0  0  0  0  0  0  0  0  0  0
   63.0130   33.8280   47.4970 C   0  0  0  0  0  0  0  0  0  0  0  0
   61.9600   33.9020   46.3790 C   0  0  0  0  0  0  0  0  0  0  0  0
   58.3340   31.1070   45.8060 C   0  0  0  0  0  0  0  0  0  0  0  0
   55.8900   27.9410   44.8420 H   0  0  0  0  0  0  0  0  0  0  0  0
   58.8969   26.3681   46.2992 H   0  0  0  0  0  0  0  0  0  0  0  0
   56.6872   29.2638   43.4389 H   0  0  0  0  0  0  0  0  0  0  0  0
   57.0054   31.3752   42.1559 H   0  0  0  0  0  0  0  0  0  0  0  0
   58.1711   33.3135   43.1979 H   0  0  0  0  0  0  0  0  0  0  0  0
   59.3855   33.2261   48.3420 H   0  0  0  0  0  0  0  0  0  0  0  0
   60.8675   32.2195   48.6345 H   0  0  0  0  0  0  0  0  0  0  0  0
   60.7541   35.2688   48.4808 H   0  0  0  0  0  0  0  0  0  0  0  0
   60.9456   34.2398   49.9765 H   0  0  0  0  0  0  0  0  0  0  0  0
   63.8949   34.4040   47.1800 H   0  0  0  0  0  0  0  0  0  0  0  0
   63.2363   32.7623   47.6533 H   0  0  0  0  0  0  0  0  0  0  0  0
   61.6762   34.9526   46.2187 H   0  0  0  0  0  0  0  0  0  0  0  0
   62.3894   33.4792   45.4588 H   0  0  0  0  0  0  0  0  0  0  0  0
   58.7097   31.0346   46.8373 H   0  0  0  0  0  0  0  0  0  0  0  0
  1  2  2  0
  2  3  1  0
  3  4  1  0
  4  5  2  0
  5  6  1  0
  6  7  1  0
  7  8  2  0
  7  9  1  0
  9 10  1  0
 10 11  2  0
  2 12  1  0
 12 13  2  0
 13 14  1  0
 14 15  2  0
 15 16  1  0
 16 17  1  0
 17 18  2  0
 17 19  2  0
 17 20  1  0
 20 21  1  0
 21 22  1  0
 22 23  1  0
 23 24  1  0
 24 25  1  0
 16 26  2  0
 10  4  1  0
 26 12  1  0
 25 20  1  0
  3 27  1  0
  5 28  1  0
 13 29  1  0
 14 30  1  0
 15 31  1  0
 21 32  1  0
 21 33  1  0
 22 34  1  0
 22 35  1  0
 24 36  1  0
 24 37  1  0
 25 38  1  0
 25 39  1  0
 26 40  1  0
M  CHG  2   6  -1   9  -1
M  END
>  <UniqueID>  (33) 
30

>  <SMILES>  (33) 
O=C(Nc1c[n-]c(=O)[n-]c1=O)c1cccc(S(=O)(=O)N2CCOCC2)c1

>  <Energy>  (33) 
60.868135803167206

>  <Genealogy>  (33) 
O=C(Nc1c[n-]c(=O)[n-]c1=O)c1cccc(S(=O)(=O)N2CCOCC2)c1 (protonated)
O=C(Nc1c[n-]c(=O)[n-]c1=O)c1cccc(S(=O)(=O)N2CCOCC2)c1 (3D coordinates assigned)
O=C(Nc1c[n-]c(=O)[n-]c1=O)c1cccc(S(=O)(=O)N2CCOCC2)c1 (nonaromatic ring conformer: 60.868135803167206 kcal/mol)

>  <smiles>  (33) 
O=C(Nc1c[nH]c(=O)[nH]c1=O)c1cccc(S(=O)(=O)N2CCOCC2)c1

>  <score_type>  (33) 
oracle

>  <origin>  (33) 
adg

>  <m_score__min__energy>  (33) 
-12.26

>  <m_primary>  (33) 
energy

$$$$
33:0
     RDKit          3D

 52 54  0  0  0  0  0  0  0  0999 V2000
   59.9380   34.2110   49.8220 C   0  0  0  0  0  0  0  0  0  0  0  0
   60.1430   34.1060   48.4160 O   0  0  0  0  0  0  0  0  0  0  0  0
   59.3790   33.3040   47.5520 C   0  0  0  0  0  0  0  0  0  0  0  0
   58.3700   33.8510   46.7360 C   0  0  0  0  0  0  0  0  0  0  0  0
   57.6210   33.0330   45.8870 C   0  0  0  0  0  0  0  0  0  0  0  0
   57.8750   31.6590   45.8230 C   0  0  0  0  0  0  0  0  0  0  0  0
   57.0980   30.8420   44.9370 N   0  0  0  0  0  0  0  0  0  0  0  0
   56.6240   29.5180   45.2210 C   0  0  0  0  0  0  0  0  0  0  0  0
   55.4710   29.1880   44.8400 O   0  0  0  0  0  0  0  0  0  0  0  0
   57.4840   28.5000   45.9130 C   0  0  0  0  0  0  0  0  0  0  0  0
   57.3230   27.1980   45.2780 N   0  0  0  0  0  0  0  0  0  0  0  0
   56.2860   26.2660   45.6060 C   0  0  0  0  0  0  0  0  0  0  0  0
   55.2220   26.6710   46.1540 O   0  0  0  0  0  0  0  0  0  0  0  0
   56.4620   24.8300   45.2860 C   0  0  0  0  0  0  0  0  0  0  0  0
   57.6650   24.3940   44.6970 C   0  0  0  0  0  0  0  0  0  0  0  0
   57.8540   23.0440   44.3900 C   0  0  0  0  0  0  0  0  0  0  0  0
   56.8530   22.1130   44.6700 C   0  0  0  0  0  0  0  0  0  0  0  0
   55.6560   22.5300   45.2550 C   0  0  0  0  0  0  0  0  0  0  0  0
   55.4470   23.8840   45.5560 C   0  0  0  0  0  0  0  0  0  0  0  0
   54.2250   24.2870   46.1010 O   0  0  0  0  0  0  0  0  0  0  0  0
   58.8510   31.1010   46.6620 C   0  0  0  0  0  0  0  0  0  0  0  0
   59.6210   31.9150   47.5060 C   0  0  0  0  0  0  0  0  0  0  0  0
   60.8420   31.1540   48.5380 S   0  0  0  0  0  0  0  0  0  0  0  0
   60.7620   29.6650   48.3390 O   0  0  0  0  0  0  0  0  0  0  0  0
   60.5890   31.4720   49.9870 O   0  0  0  0  0  0  0  0  0  0  0  0
   62.4370   31.7230   48.1030 N   0  0  0  0  0  0  0  0  0  0  0  0
   62.3480   32.6270   46.9400 C   0  0  0  0  0  0  0  0  0  0  0  0
   63.6420   33.4450   46.7980 C   0  0  0  0  0  0  0  0  0  0  0  0
   63.9740   34.2320   47.9360 O   0  0  0  0  0  0  0  0  0  0  0  0
   63.2720   33.8630   49.1130 C   0  0  0  0  0  0  0  0  0  0  0  0
   63.1230   32.3410   49.2620 C   0  0  0  0  0  0  0  0  0  0  0  0
   60.7962   33.7715   50.3515 H   0  0  0  0  0  0  0  0  0  0  0  0
   59.8392   35.2707   50.1000 H   0  0  0  0  0  0  0  0  0  0  0  0
   59.0203   33.6719   50.1000 H   0  0  0  0  0  0  0  0  0  0  0  0
   58.1699   34.9322   46.7675 H   0  0  0  0  0  0  0  0  0  0  0  0
   56.8268   33.4718   45.2651 H   0  0  0  0  0  0  0  0  0  0  0  0
   58.5378   28.8090   45.8487 H   0  0  0  0  0  0  0  0  0  0  0  0
   57.1805   28.4276   46.9678 H   0  0  0  0  0  0  0  0  0  0  0  0
   58.4608   25.1210   44.4773 H   0  0  0  0  0  0  0  0  0  0  0  0
   58.7952   22.7140   43.9260 H   0  0  0  0  0  0  0  0  0  0  0  0
   57.0071   21.0507   44.4298 H   0  0  0  0  0  0  0  0  0  0  0  0
   54.8720   21.7923   45.4813 H   0  0  0  0  0  0  0  0  0  0  0  0
   54.0500   25.2490   46.3690 H   0  0  0  0  0  0  0  0  0  0  0  0
   59.0143   30.0132   46.6580 H   0  0  0  0  0  0  0  0  0  0  0  0
   62.1939   32.0310   46.0284 H   0  0  0  0  0  0  0  0  0  0  0  0
   61.5038   33.3166   47.0874 H   0  0  0  0  0  0  0  0  0  0  0  0
   64.4706   32.7462   46.6107 H   0  0  0  0  0  0  0  0  0  0  0  0
   63.4757   34.1496   45.9699 H   0  0  0  0  0  0  0  0  0  0  0  0
   63.8193   34.2501   49.9851 H   0  0  0  0  0  0  0  0  0  0  0  0
   62.2609   34.2907   49.0446 H   0  0  0  0  0  0  0  0  0  0  0  0
   64.1244   31.8960   49.3579 H   0  0  0  0  0  0  0  0  0  0  0  0
   62.5093   32.1505   50.1548 H   0  0  0  0  0  0  0  0  0  0  0  0
  1  2  1  0
  2  3  1  0
  3  4  2  0
  4  5  1  0
  5  6  2  0
  6  7  1  0
  7  8  1  0
  8  9  2  0
  8 10  1  0
 10 11  1  0
 11 12  1  0
 12 13  2  0
 12 14  1  0
 14 15  2  0
 15 16  1  0
 16 17  2  0
 17 18  1  0
 18 19  2  0
 19 20  1  0
  6 21  1  0
 21 22  2  0
 22 23  1  0
 23 24  2  0
 23 25  2  0
 23 26  1  0
 26 27  1  0
 27 28  1  0
 28 29  1  0
 29 30  1  0
 30 31  1  0
 22  3  1  0
 31 26  1  0
 19 14  1  0
  1 32  1  0
  1 33  1  0
  1 34  1  0
  4 35  1  0
  5 36  1  0
 10 37  1  0
 10 38  1  0
 15 39  1  0
 16 40  1  0
 17 41  1  0
 18 42  1  0
 20 43  1  0
 21 44  1  0
 27 45  1  0
 27 46  1  0
 28 47  1  0
 28 48  1  0
 30 49  1  0
 30 50  1  0
 31 51  1  0
 31 52  1  0
M  CHG  2   7  -1  11  -1
M  END
>  <UniqueID>  (34) 
31

>  <SMILES>  (34) 
COc1ccc([N-]C(=O)C[N-]C(=O)c2ccccc2O)cc1S(=O)(=O)N1CCOCC1

>  <Energy>  (34) 
67.71144659343551

>  <Genealogy>  (34) 
COc1ccc([N-]C(=O)C[N-]C(=O)c2ccccc2O)cc1S(=O)(=O)N1CCOCC1 (protonated)
COc1ccc([N-]C(=O)C[N-]C(=O)c2ccccc2O)cc1S(=O)(=O)N1CCOCC1 (3D coordinates assigned)
COc1ccc([N-]C(=O)C[N-]C(=O)c2ccccc2O)cc1S(=O)(=O)N1CCOCC1 (nonaromatic ring conformer: 67.71144659343551 kcal/mol)

>  <smiles>  (34) 
COc1ccc(NC(=O)CNC(=O)c2ccccc2O)cc1S(=O)(=O)N1CCOCC1

>  <score_type>  (34) 
oracle

>  <origin>  (34) 
adg

>  <m_score__min__energy>  (34) 
-12.66

>  <m_primary>  (34) 
energy

$$$$
34:0
     RDKit          3D

 55 58  0  0  0  0  0  0  0  0999 V2000
   63.2830   33.4980   46.7460 C   0  0  0  0  0  0  0  0  0  0  0  0
   62.1000   33.7220   47.7020 C   0  0  0  0  0  0  0  0  0  0  0  0
   62.6430   34.1940   49.0620 C   0  0  0  0  0  0  0  0  0  0  0  0
   61.2150   32.4510   47.8750 C   0  0  1  0  0  0  0  0  0  0  0  0
   61.4940   31.7380   49.2370 C   0  0  0  0  0  0  0  0  0  0  0  0
   60.2540   31.7280   49.9280 O   0  0  0  0  0  0  0  0  0  0  0  0
   59.2890   32.3230   49.1570 C   0  0  0  0  0  0  0  0  0  0  0  0
   58.0830   32.4030   49.5110 O   0  0  0  0  0  0  0  0  0  0  0  0
   59.7810   32.7770   47.9080 N   0  0  0  0  0  0  0  0  0  0  0  0
   58.9570   32.9480   46.7390 C   0  0  0  0  0  0  0  0  0  0  0  0
   58.9600   34.1520   46.0270 C   0  0  0  0  0  0  0  0  0  0  0  0
   58.1480   34.2620   44.8990 C   0  0  0  0  0  0  0  0  0  0  0  0
   57.3890   33.2070   44.5050 N   0  0  0  0  0  0  0  0  0  0  0  0
   57.4110   32.0310   45.1840 C   0  0  0  0  0  0  0  0  0  0  0  0
   56.6810   31.0190   44.8200 N   0  0  0  0  0  0  0  0  0  0  0  0
   56.8530   30.1510   43.6840 C   0  0  0  0  0  0  0  0  0  0  0  0
   56.3160   30.4860   42.5940 O   0  0  0  0  0  0  0  0  0  0  0  0
   57.5560   28.8170   43.7600 C   0  0  0  0  0  0  0  0  0  0  0  0
   58.1930   28.6000   45.1120 C   0  0  0  0  0  0  0  0  0  0  0  0
   57.6040   27.7420   46.0520 C   0  0  0  0  0  0  0  0  0  0  0  0
   58.1980   27.5470   47.3030 C   0  0  0  0  0  0  0  0  0  0  0  0
   59.4050   28.1890   47.6290 C   0  0  0  0  0  0  0  0  0  0  0  0
   60.0320   27.9600   48.9530 C   0  0  0  0  0  0  0  0  0  0  0  0
   60.6040   26.7140   49.2680 C   0  0  0  0  0  0  0  0  0  0  0  0
   61.1850   26.4990   50.5210 C   0  0  0  0  0  0  0  0  0  0  0  0
   61.1990   27.5220   51.4720 C   0  0  0  0  0  0  0  0  0  0  0  0
   60.6290   28.7660   51.1740 C   0  0  0  0  0  0  0  0  0  0  0  0
   60.6410   29.7950   52.1140 O   0  0  0  0  0  0  0  0  0  0  0  0
   60.0460   28.9820   49.9200 C   0  0  0  0  0  0  0  0  0  0  0  0
   60.0060   29.0360   46.6790 C   0  0  0  0  0  0  0  0  0  0  0  0
   61.1590   29.6980   46.9660 F   0  0  0  0  0  0  0  0  0  0  0  0
   59.4050   29.2350   45.4320 C   0  0  0  0  0  0  0  0  0  0  0  0
   58.1860   31.9180   46.2950 N   0  0  0  0  0  0  0  0  0  0  0  0
   64.1988   33.3246   47.3302 H   0  0  0  0  0  0  0  0  0  0  0  0
   63.0812   32.6221   46.1119 H   0  0  0  0  0  0  0  0  0  0  0  0
   63.4154   34.3870   46.1119 H   0  0  0  0  0  0  0  0  0  0  0  0
   61.4479   34.4916   47.2633 H   0  0  0  0  0  0  0  0  0  0  0  0
   62.0805   33.7051   49.8711 H   0  0  0  0  0  0  0  0  0  0  0  0
   63.7076   33.9293   49.1436 H   0  0  0  0  0  0  0  0  0  0  0  0
   62.5291   35.2850   49.1436 H   0  0  0  0  0  0  0  0  0  0  0  0
   61.4659   31.8130   47.0148 H   0  0  0  0  0  0  0  0  0  0  0  0
   61.8460   30.7099   49.0664 H   0  0  0  0  0  0  0  0  0  0  0  0
   62.2750   32.2558   49.8131 H   0  0  0  0  0  0  0  0  0  0  0  0
   59.5896   34.9941   46.3502 H   0  0  0  0  0  0  0  0  0  0  0  0
   58.1221   35.2023   44.3288 H   0  0  0  0  0  0  0  0  0  0  0  0
   56.8236   28.0167   43.5780 H   0  0  0  0  0  0  0  0  0  0  0  0
   58.3505   28.8032   42.9994 H   0  0  0  0  0  0  0  0  0  0  0  0
   56.6687   27.2190   45.8037 H   0  0  0  0  0  0  0  0  0  0  0  0
   57.7164   26.8855   48.0381 H   0  0  0  0  0  0  0  0  0  0  0  0
   60.5940   25.9040   48.5238 H   0  0  0  0  0  0  0  0  0  0  0  0
   61.6320   25.5224   50.7586 H   0  0  0  0  0  0  0  0  0  0  0  0
   61.6585   27.3502   52.4566 H   0  0  0  0  0  0  0  0  0  0  0  0
   60.5240   30.7630   51.8410 H   0  0  0  0  0  0  0  0  0  0  0  0
   59.5952   29.9584   49.6886 H   0  0  0  0  0  0  0  0  0  0  0  0
   59.8856   29.8949   44.6947 H   0  0  0  0  0  0  0  0  0  0  0  0
  1  2  1  0
  2  3  1  0
  2  4  1  0
  4  5  1  0
  5  6  1  0
  6  7  1  0
  7  8  2  0
  7  9  1  0
  9 10  1  0
 10 11  1  0
 11 12  2  0
 12 13  1  0
 13 14  1  0
 14 15  2  3
 15 16  1  0
 16 17  2  0
 16 18  1  0
 18 19  1  0
 19 20  2  0
 20 21  1  0
 21 22  2  0
 22 23  1  0
 23 24  2  0
 24 25  1  0
 25 26  2  0
 26 27  1  0
 27 28  1  0
 27 29  2  0
 22 30  1  0
 30 31  1  0
 30 32  2  0
 14 33  1  0
  9  4  1  0
 33 10  2  0
 32 19  1  0
 29 23  1  0
  1 34  1  0
  1 35  1  0
  1 36  1  0
  2 37  1  0
  3 38  1  0
  3 39  1  0
  3 40  1  0
  4 41  1  6
  5 42  1  0
  5 43  1  0
 11 44  1  0
 12 45  1  0
 18 46  1  0
 18 47  1  0
 20 48  1  0
 21 49  1  0
 24 50  1  0
 25 51  1  0
 26 52  1  0
 28 53  1  0
 29 54  1  0
 32 55  1  0
M  CHG  1  13  -1
M  END
>  <UniqueID>  (35) 
32

>  <SMILES>  (35) 
CC(C)[C@H]1COC(=O)N1c1cc[n-]c(=NC(=O)Cc2ccc(-c3cccc(O)c3)c(F)c2)n1

>  <Energy>  (35) 
85.82951936682504

>  <Genealogy>  (35) 
CC(C)C1COC(=O)N1c1cc[n-]c(=NC(=O)Cc2ccc(-c3cccc(O)c3)c(F)c2)n1 (protonated)
CC(C)[C@H]1COC(=O)N1c1cc[n-]c(=NC(=O)Cc2ccc(-c3cccc(O)c3)c(F)c2)n1 (chirality)
CC(C)[C@H]1COC(=O)N1c1cc[n-]c(=NC(=O)Cc2ccc(-c3cccc(O)c3)c(F)c2)n1 (3D coordinates assigned)
CC(C)[C@H]1COC(=O)N1c1cc[n-]c(=NC(=O)Cc2ccc(-c3cccc(O)c3)c(F)c2)n1 (nonaromatic ring conformer: 85.82951936682504 kcal/mol)

>  <smiles>  (35) 
CC(C)C1COC(=O)N1c1cc[nH]c(=NC(=O)Cc2ccc(-c3cccc(O)c3)c(F)c2)n1

>  <score_type>  (35) 
oracle

>  <origin>  (35) 
adg

>  <m_score__min__energy>  (35) 
-11.34

>  <m_primary>  (35) 
energy

$$$$
35:0
     RDKit          3D

 54 56  0  0  0  0  0  0  0  0999 V2000
   59.8600   29.2650   44.5500 C   0  0  0  0  0  0  0  0  0  0  0  0
   59.8180   28.6780   45.9330 C   0  0  0  0  0  0  0  0  0  0  0  0
   60.3980   29.3700   47.0090 C   0  0  0  0  0  0  0  0  0  0  0  0
   60.3470   28.8400   48.3000 C   0  0  0  0  0  0  0  0  0  0  0  0
   59.7140   27.6180   48.5270 C   0  0  0  0  0  0  0  0  0  0  0  0
   59.1400   26.9160   47.4640 C   0  0  0  0  0  0  0  0  0  0  0  0
   59.1890   27.4370   46.1560 C   0  0  0  0  0  0  0  0  0  0  0  0
   58.6370   26.7520   45.0570 O   0  0  0  0  0  0  0  0  0  0  0  0
   57.4570   25.9510   45.0870 C   0  0  0  0  0  0  0  0  0  0  0  0
   56.3350   26.6940   45.7390 C   0  0  0  0  0  0  0  0  0  0  0  0
   55.7110   26.1750   46.7040 O   0  0  0  0  0  0  0  0  0  0  0  0
   55.9670   27.9850   45.2480 N   0  0  0  0  0  0  0  0  0  0  0  0
   56.7280   29.1880   45.5520 C   0  0  0  0  0  0  0  0  0  0  0  0
   56.4950   30.2130   44.4820 C   0  0  0  0  0  0  0  0  0  0  0  0
   56.4110   29.8370   43.2840 O   0  0  0  0  0  0  0  0  0  0  0  0
   56.3050   31.6010   44.7890 N   0  0  0  0  0  0  0  0  0  0  0  0
   57.3240   32.5220   45.1980 C   0  0  0  0  0  0  0  0  0  0  0  0
   57.5820   33.6980   44.4760 C   0  0  0  0  0  0  0  0  0  0  0  0
   58.5650   34.5870   44.9120 C   0  0  0  0  0  0  0  0  0  0  0  0
   59.2930   34.3160   46.0730 C   0  0  0  0  0  0  0  0  0  0  0  0
   59.0330   33.1530   46.8110 C   0  0  0  0  0  0  0  0  0  0  0  0
   59.9700   32.7950   48.2650 S   0  0  0  0  0  0  0  0  0  0  0  0
   60.0500   34.0310   49.1180 O   0  0  0  0  0  0  0  0  0  0  0  0
   59.2670   31.7290   49.0580 O   0  0  0  0  0  0  0  0  0  0  0  0
   61.5870   32.2590   47.8720 N   0  0  0  0  0  0  0  0  0  0  0  0
   62.2430   33.2200   46.9640 C   0  0  0  0  0  0  0  0  0  0  0  0
   63.7710   33.0650   47.0230 C   0  0  0  0  0  0  0  0  0  0  0  0
   64.3270   33.2950   48.3130 O   0  0  0  0  0  0  0  0  0  0  0  0
   63.4090   33.0890   49.3780 C   0  0  0  0  0  0  0  0  0  0  0  0
   62.3800   31.9790   49.0900 C   0  0  0  0  0  0  0  0  0  0  0  0
   58.0330   32.2700   46.3800 C   0  0  0  0  0  0  0  0  0  0  0  0
   59.9384   30.3601   44.6187 H   0  0  0  0  0  0  0  0  0  0  0  0
   60.7320   28.8682   44.0096 H   0  0  0  0  0  0  0  0  0  0  0  0
   58.9403   28.9964   44.0096 H   0  0  0  0  0  0  0  0  0  0  0  0
   60.8954   30.3353   46.8336 H   0  0  0  0  0  0  0  0  0  0  0  0
   60.8058   29.3860   49.1375 H   0  0  0  0  0  0  0  0  0  0  0  0
   59.6666   27.2058   49.5457 H   0  0  0  0  0  0  0  0  0  0  0  0
   58.6467   25.9505   47.6496 H   0  0  0  0  0  0  0  0  0  0  0  0
   57.1693   25.6919   44.0574 H   0  0  0  0  0  0  0  0  0  0  0  0
   57.6619   25.0379   45.6652 H   0  0  0  0  0  0  0  0  0  0  0  0
   56.4034   29.5913   46.5226 H   0  0  0  0  0  0  0  0  0  0  0  0
   57.7992   28.9419   45.5959 H   0  0  0  0  0  0  0  0  0  0  0  0
   57.0077   33.9191   43.5642 H   0  0  0  0  0  0  0  0  0  0  0  0
   58.7674   35.5043   44.3396 H   0  0  0  0  0  0  0  0  0  0  0  0
   60.0718   35.0166   46.4087 H   0  0  0  0  0  0  0  0  0  0  0  0
   61.9006   33.0363   45.9349 H   0  0  0  0  0  0  0  0  0  0  0  0
   61.9781   34.2407   47.2772 H   0  0  0  0  0  0  0  0  0  0  0  0
   64.0270   32.0409   46.7136 H   0  0  0  0  0  0  0  0  0  0  0  0
   64.1943   33.8281   46.3534 H   0  0  0  0  0  0  0  0  0  0  0  0
   63.9762   32.8139   50.2794 H   0  0  0  0  0  0  0  0  0  0  0  0
   62.8485   34.0262   49.5107 H   0  0  0  0  0  0  0  0  0  0  0  0
   62.9137   31.0267   48.9549 H   0  0  0  0  0  0  0  0  0  0  0  0
   61.6865   31.9297   49.9425 H   0  0  0  0  0  0  0  0  0  0  0  0
   57.8034   31.3731   46.9739 H   0  0  0  0  0  0  0  0  0  0  0  0
  1  2  1  0
  2  3  2  0
  3  4  1  0
  4  5  2  0
  5  6  1  0
  6  7  2  0
  7  8  1  0
  8  9  1  0
  9 10  1  0
 10 11  2  0
 10 12  1  0
 12 13  1  0
 13 14  1  0
 14 15  2  0
 14 16  1  0
 16 17  1  0
 17 18  2  0
 18 19  1  0
 19 20  2  0
 20 21  1  0
 21 22  1  0
 22 23  2  0
 22 24  2  0
 22 25  1  0
 25 26  1  0
 26 27  1  0
 27 28  1  0
 28 29  1  0
 29 30  1  0
 21 31  2  0
  7  2  1  0
 31 17  1  0
 30 25  1  0
  1 32  1  0
  1 33  1  0
  1 34  1  0
  3 35  1  0
  4 36  1  0
  5 37  1  0
  6 38  1  0
  9 39  1  0
  9 40  1  0
 13 41  1  0
 13 42  1  0
 18 43  1  0
 19 44  1  0
 20 45  1  0
 26 46  1  0
 26 47  1  0
 27 48  1  0
 27 49  1  0
 29 50  1  0
 29 51  1  0
 30 52  1  0
 30 53  1  0
 31 54  1  0
M  CHG  2  12  -1  16  -1
M  END
>  <UniqueID>  (36) 
33

>  <SMILES>  (36) 
Cc1ccccc1OCC(=O)[N-]CC(=O)[N-]c1cccc(S(=O)(=O)N2CCOCC2)c1

>  <Energy>  (36) 
63.98329019356407

>  <Genealogy>  (36) 
Cc1ccccc1OCC(=O)[N-]CC(=O)[N-]c1cccc(S(=O)(=O)N2CCOCC2)c1 (protonated)
Cc1ccccc1OCC(=O)[N-]CC(=O)[N-]c1cccc(S(=O)(=O)N2CCOCC2)c1 (3D coordinates assigned)
Cc1ccccc1OCC(=O)[N-]CC(=O)[N-]c1cccc(S(=O)(=O)N2CCOCC2)c1 (nonaromatic ring conformer: 63.98329019356407 kcal/mol)

>  <smiles>  (36) 
Cc1ccccc1OCC(=O)NCC(=O)Nc1cccc(S(=O)(=O)N2CCOCC2)c1

>  <score_type>  (36) 
oracle

>  <origin>  (36) 
adg

>  <m_score__min__energy>  (36) 
-12.83

>  <m_primary>  (36) 
energy

$$$$
36:0
     RDKit          3D

 55 58  0  0  0  0  0  0  0  0999 V2000
   64.6630   32.6240   46.8740 H   0  0  0  0  0  0  0  0  0  0  0  0
   64.0960   32.9570   47.6440 O   0  0  0  0  0  0  0  0  0  0  0  0
   63.9370   32.2130   48.8120 C   0  0  0  0  0  0  0  0  0  0  0  0
   64.9760   32.1580   49.7500 C   0  0  0  0  0  0  0  0  0  0  0  0
   65.9216   32.6824   49.5481 H   0  0  0  0  0  0  0  0  0  0  0  0
   64.8210   31.4430   50.9390 C   0  0  0  0  0  0  0  0  0  0  0  0
   65.6435   31.4073   51.6685 H   0  0  0  0  0  0  0  0  0  0  0  0
   63.6160   30.7680   51.2070 C   0  0  0  0  0  0  0  0  0  0  0  0
   63.4110   30.0380   52.3880 O   0  0  0  0  0  0  0  0  0  0  0  0
   62.4680   28.9810   52.5260 C   0  0  0  0  0  0  0  0  0  0  0  0
   62.2920   28.7837   53.5938 H   0  0  0  0  0  0  0  0  0  0  0  0
   61.5214   29.2691   52.0455 H   0  0  0  0  0  0  0  0  0  0  0  0
   62.8618   28.0732   52.0455 H   0  0  0  0  0  0  0  0  0  0  0  0
   62.5800   30.8190   50.2680 C   0  0  0  0  0  0  0  0  0  0  0  0
   61.6351   30.2949   50.4744 H   0  0  0  0  0  0  0  0  0  0  0  0
   62.7290   31.5300   49.0650 C   0  0  0  0  0  0  0  0  0  0  0  0
   61.6150   31.5540   48.0860 C   0  0  0  0  0  0  0  0  0  0  0  0
   60.8150   30.4170   47.8940 C   0  0  0  0  0  0  0  0  0  0  0  0
   61.0077   29.5029   48.4747 H   0  0  0  0  0  0  0  0  0  0  0  0
   59.7670   30.4490   46.9580 C   0  0  0  0  0  0  0  0  0  0  0  0
   58.8960   29.2700   46.7180 C   0  0  0  0  0  0  0  0  0  0  0  0
   59.2640   27.9840   47.1530 C   0  0  0  0  0  0  0  0  0  0  0  0
   60.2194   27.8381   47.6782 H   0  0  0  0  0  0  0  0  0  0  0  0
   58.4250   26.8900   46.9230 C   0  0  0  0  0  0  0  0  0  0  0  0
   58.7220   25.8903   47.2729 H   0  0  0  0  0  0  0  0  0  0  0  0
   57.2070   27.0590   46.2490 C   0  0  0  0  0  0  0  0  0  0  0  0
   56.3400   25.8910   46.0130 C   0  0  0  0  0  0  0  0  0  0  0  0
   55.0910   26.0480   45.9900 O   0  0  0  0  0  0  0  0  0  0  0  0
   56.8780   24.5740   45.8440 N   0  0  0  0  0  0  0  0  0  0  0  0
   57.0990   23.6350   46.9360 C   0  0  0  0  0  0  0  0  0  0  0  0
   56.9765   24.1553   47.8974 H   0  0  0  0  0  0  0  0  0  0  0  0
   56.3694   22.8146   46.8675 H   0  0  0  0  0  0  0  0  0  0  0  0
   58.1179   23.2262   46.8675 H   0  0  0  0  0  0  0  0  0  0  0  0
   56.8150   28.3460   45.8440 C   0  0  0  0  0  0  0  0  0  0  0  0
   55.5840   28.5520   45.2330 O   0  0  0  0  0  0  0  0  0  0  0  0
   57.6580   29.4390   46.0720 C   0  0  0  0  0  0  0  0  0  0  0  0
   57.3492   30.4420   45.7423 H   0  0  0  0  0  0  0  0  0  0  0  0
   59.5630   31.5820   46.2330 N   0  0  0  0  0  0  0  0  0  0  0  0
   60.3320   32.6970   46.3780 C   0  0  0  0  0  0  0  0  0  0  0  0
   60.1020   33.7660   45.6730 N   0  0  0  0  0  0  0  0  0  0  0  0
   58.8960   34.0490   44.9440 C   0  0  0  0  0  0  0  0  0  0  0  0
   58.5720   35.2510   44.7580 O   0  0  0  0  0  0  0  0  0  0  0  0
   58.0420   32.9880   44.3720 C   0  0  0  0  0  0  0  0  0  0  0  0
   57.0180   32.4540   45.0550 C   0  0  0  0  0  0  0  0  0  0  0  0
   56.7682   32.8306   46.0579 H   0  0  0  0  0  0  0  0  0  0  0  0
   56.2680   31.4160   44.4880 O   0  0  0  0  0  0  0  0  0  0  0  0
   56.7130   30.7170   43.3250 C   0  0  0  0  0  0  0  0  0  0  0  0
   57.4230   29.9307   43.6209 H   0  0  0  0  0  0  0  0  0  0  0  0
   55.8471   30.2638   42.8202 H   0  0  0  0  0  0  0  0  0  0  0  0
   57.4030   31.6900   42.3680 C   0  0  0  0  0  0  0  0  0  0  0  0
   57.9382   31.1223   41.5926 H   0  0  0  0  0  0  0  0  0  0  0  0
   56.6468   32.3358   41.8978 H   0  0  0  0  0  0  0  0  0  0  0  0
   58.3320   32.4990   43.0900 O   0  0  0  0  0  0  0  0  0  0  0  0
   61.3660   32.7020   47.3170 C   0  0  0  0  0  0  0  0  0  0  0  0
   61.9831   33.6023   47.4536 H   0  0  0  0  0  0  0  0  0  0  0  0
  1  2  1  0
  2  3  1  0
  3  4  2  0
  4  5  1  0
  4  6  1  0
  6  7  1  0
  6  8  2  0
  8  9  1  0
  9 10  1  0
 10 11  1  0
 10 12  1  0
 10 13  1  0
  8 14  1  0
 14 15  1  0
 14 16  2  0
 16 17  1  0
 17 18  1  0
 18 19  1  0
 18 20  2  0
 20 21  1  0
 21 22  2  0
 22 23  1  0
 22 24  1  0
 24 25  1  0
 24 26  2  0
 26 27  1  0
 27 28  2  0
 27 29  1  0
 29 30  1  0
 30 31  1  0
 30 32  1  0
 30 33  1  0
 26 34  1  0
 34 35  1  0
 34 36  2  0
 36 37  1  0
 20 38  1  0
 38 39  1  0
 39 40  2  0
 40 41  1  0
 41 42  2  0
 41 43  1  0
 43 44  2  0
 44 45  1  0
 44 46  1  0
 46 47  1  0
 47 48  1  0
 47 49  1  0
 47 50  1  0
 50 51  1  0
 50 52  1  0
 50 53  1  0
 39 54  1  0
 54 55  1  0
 16  3  1  0
 54 17  2  0
 36 21  1  0
 53 43  1  0
M  CHG  3  29  -1  35  -1  38  -1
M  END
>  <UniqueID>  (37) 
34

>  <SMILES>  (37) 
C[N-]C(=O)c1ccc(-c2cc(-c3cc(OC)ccc3O)c/c(=N/C(=O)C3=COCCO3)[n-]2)cc1[O-]

>  <Energy>  (37) 
79.13549905016572

>  <Genealogy>  (37) 
C[N-]C(=O)c1ccc(-c2cc(-c3cc(OC)ccc3O)cc(=NC(=O)C3=COCCO3)[n-]2)cc1[O-] (protonated)
C[N-]C(=O)c1ccc(-c2cc(-c3cc(OC)ccc3O)c/c(=N/C(=O)C3=COCCO3)[n-]2)cc1[O-] (cis-trans isomerization)
C[N-]C(=O)c1ccc(-c2cc(-c3cc(OC)ccc3O)c/c(=N/C(=O)C3=COCCO3)[n-]2)cc1[O-] (3D coordinates assigned)
C[N-]C(=O)c1ccc(-c2cc(-c3cc(OC)ccc3O)c/c(=N/C(=O)C3=COCCO3)[n-]2)cc1[O-] (nonaromatic ring conformer: 79.13549905016572 kcal/mol)

>  <smiles>  (37) 
CNC(=O)c1ccc(-c2cc(-c3cc(OC)ccc3O)cc(=NC(=O)C3=COCCO3)[nH]2)cc1O

>  <score_type>  (37) 
oracle

>  <origin>  (37) 
adg

>  <m_score__min__energy>  (37) 
-14.93

>  <m_primary>  (37) 
energy

$$$$
37:0
     RDKit          3D

 43 45  0  0  0  0  0  0  0  0999 V2000
   59.4750   33.8350   53.6280 C   0  0  0  0  0  0  0  0  0  0  0  0
   60.1070   32.2610   52.9690 S   0  0  0  0  0  0  0  0  0  0  0  0
   59.6640   32.6540   51.2760 C   0  0  0  0  0  0  0  0  0  0  0  0
   58.8160   31.8040   50.5580 C   0  0  0  0  0  0  0  0  0  0  0  0
   58.4610   32.1150   49.2420 C   0  0  0  0  0  0  0  0  0  0  0  0
   58.9420   33.2880   48.6380 C   0  0  0  0  0  0  0  0  0  0  0  0
   58.5400   33.6490   47.2330 C   0  0  0  0  0  0  0  0  0  0  0  0
   59.5160   33.1020   46.2560 N   0  0  0  0  0  0  0  0  0  0  0  0
   58.8690   32.8640   44.9470 C   0  0  0  0  0  0  0  0  0  0  0  0
   57.9940   31.6390   45.0120 C   0  0  0  0  0  0  0  0  0  0  0  0
   58.2790   30.6220   45.9370 C   0  0  0  0  0  0  0  0  0  0  0  0
   57.4600   29.4920   46.0160 C   0  0  0  0  0  0  0  0  0  0  0  0
   56.3540   29.3670   45.1700 C   0  0  0  0  0  0  0  0  0  0  0  0
   55.5400   28.2430   45.2500 O   0  0  0  0  0  0  0  0  0  0  0  0
   56.0660   30.3730   44.2430 C   0  0  0  0  0  0  0  0  0  0  0  0
   56.8820   31.5070   44.1620 C   0  0  0  0  0  0  0  0  0  0  0  0
   60.6890   33.9930   46.0950 C   0  0  0  0  0  0  0  0  0  0  0  0
   61.9000   33.4120   46.7590 C   0  0  0  0  0  0  0  0  0  0  0  0
   63.1860   33.8890   46.6640 C   0  0  0  0  0  0  0  0  0  0  0  0
   63.9920   33.1110   47.4060 N   0  0  0  0  0  0  0  0  0  0  0  0
   63.1660   32.1780   47.9240 C   0  0  0  0  0  0  0  0  0  0  0  0
   61.8780   32.3250   47.5500 N   0  0  0  0  0  0  0  0  0  0  0  0
   59.8050   34.1300   49.3600 C   0  0  0  0  0  0  0  0  0  0  0  0
   60.1590   33.8170   50.6740 C   0  0  0  0  0  0  0  0  0  0  0  0
   59.4876   33.8036   54.7275 H   0  0  0  0  0  0  0  0  0  0  0  0
   60.1111   34.6611   53.2774 H   0  0  0  0  0  0  0  0  0  0  0  0
   58.4442   33.9918   53.2774 H   0  0  0  0  0  0  0  0  0  0  0  0
   58.4278   30.8893   51.0297 H   0  0  0  0  0  0  0  0  0  0  0  0
   57.8025   31.4384   48.6776 H   0  0  0  0  0  0  0  0  0  0  0  0
   57.5444   33.2313   47.0227 H   0  0  0  0  0  0  0  0  0  0  0  0
   58.5189   34.7448   47.1394 H   0  0  0  0  0  0  0  0  0  0  0  0
   58.2533   33.7363   44.6825 H   0  0  0  0  0  0  0  0  0  0  0  0
   59.6476   32.7080   44.1858 H   0  0  0  0  0  0  0  0  0  0  0  0
   59.1502   30.7148   46.6021 H   0  0  0  0  0  0  0  0  0  0  0  0
   57.6861   28.6998   46.7450 H   0  0  0  0  0  0  0  0  0  0  0  0
   55.1968   30.2731   43.5763 H   0  0  0  0  0  0  0  0  0  0  0  0
   56.6528   32.2969   43.4316 H   0  0  0  0  0  0  0  0  0  0  0  0
   60.8955   34.1256   45.0227 H   0  0  0  0  0  0  0  0  0  0  0  0
   60.4613   34.9605   46.5662 H   0  0  0  0  0  0  0  0  0  0  0  0
   63.5029   34.7637   46.0771 H   0  0  0  0  0  0  0  0  0  0  0  0
   63.5107   31.3726   48.5892 H   0  0  0  0  0  0  0  0  0  0  0  0
   60.2035   35.0400   48.8877 H   0  0  0  0  0  0  0  0  0  0  0  0
   60.8276   34.4850   51.2368 H   0  0  0  0  0  0  0  0  0  0  0  0
  1  2  1  0
  2  3  1  0
  3  4  2  0
  4  5  1  0
  5  6  2  0
  6  7  1  0
  7  8  1  0
  8  9  1  0
  9 10  1  0
 10 11  2  0
 11 12  1  0
 12 13  2  0
 13 14  1  0
 13 15  1  0
 15 16  2  0
  8 17  1  0
 17 18  1  0
 18 19  2  0
 19 20  1  0
 20 21  1  0
 21 22  2  0
  6 23  1  0
 23 24  2  0
 24  3  1  0
 16 10  1  0
 22 18  1  0
  1 25  1  0
  1 26  1  0
  1 27  1  0
  4 28  1  0
  5 29  1  0
  7 30  1  0
  7 31  1  0
  9 32  1  0
  9 33  1  0
 11 34  1  0
 12 35  1  0
 15 36  1  0
 16 37  1  0
 17 38  1  0
 17 39  1  0
 19 40  1  0
 21 41  1  0
 23 42  1  0
 24 43  1  0
M  CHG  2  14  -1  20  -1
M  END
>  <UniqueID>  (38) 
35

>  <SMILES>  (38) 
CSc1ccc(CN(Cc2ccc([O-])cc2)Cc2c[n-]cn2)cc1

>  <Energy>  (38) 
67.87746005613526

>  <Genealogy>  (38) 
CSc1ccc(CN(Cc2ccc([O-])cc2)Cc2c[n-]cn2)cc1 (protonated)
CSc1ccc(CN(Cc2ccc([O-])cc2)Cc2c[n-]cn2)cc1 (3D coordinates assigned)
CSc1ccc(CN(Cc2ccc([O-])cc2)Cc2c[n-]cn2)cc1 (optimized conformer: 67.87746005613526 kcal/mol)

>  <smiles>  (38) 
CSc1ccc(CN(Cc2ccc(O)cc2)Cc2c[nH]cn2)cc1

>  <score_type>  (38) 
oracle

>  <origin>  (38) 
adg

>  <m_score__min__energy>  (38) 
-10.82

>  <m_primary>  (38) 
energy

$$$$
38:0
     RDKit          3D

 29 30  0  0  0  0  0  0  0  0999 V2000
   59.3110   34.3260   45.3330 C   0  0  0  0  0  0  0  0  0  0  0  0
   57.7360   33.5220   45.5390 S   0  0  0  0  0  0  0  0  0  0  0  0
   56.6530   34.3240   44.8720 O   0  0  0  0  0  0  0  0  0  0  0  0
   57.4260   33.4260   47.0050 O   0  0  0  0  0  0  0  0  0  0  0  0
   57.7940   31.9210   44.8700 N   0  0  0  0  0  0  0  0  0  0  0  0
   58.2710   30.7640   45.5880 C   0  0  0  0  0  0  0  0  0  0  0  0
   59.4740   30.8220   46.3140 C   0  0  0  0  0  0  0  0  0  0  0  0
   59.9280   29.7160   47.0280 C   0  0  0  0  0  0  0  0  0  0  0  0
   59.1940   28.5340   47.0350 C   0  0  0  0  0  0  0  0  0  0  0  0
   57.9850   28.4380   46.3260 C   0  0  0  0  0  0  0  0  0  0  0  0
   57.2460   27.1490   46.3420 C   0  0  0  0  0  0  0  0  0  0  0  0
   57.8870   25.9520   46.6950 C   0  0  0  0  0  0  0  0  0  0  0  0
   57.1480   24.7680   46.6820 C   0  0  0  0  0  0  0  0  0  0  0  0
   57.6930   23.6780   46.9970 O   0  0  0  0  0  0  0  0  0  0  0  0
   55.8370   24.7900   46.3290 N   0  0  0  0  0  0  0  0  0  0  0  0
   55.2270   25.9540   45.9880 C   0  0  0  0  0  0  0  0  0  0  0  0
   54.0120   25.9570   45.6640 O   0  0  0  0  0  0  0  0  0  0  0  0
   55.9300   27.1180   45.9940 N   0  0  0  0  0  0  0  0  0  0  0  0
   57.5170   29.5630   45.6020 C   0  0  0  0  0  0  0  0  0  0  0  0
   56.2580   29.5000   44.8920 C   0  0  0  0  0  0  0  0  0  0  0  0
   55.2500   29.4490   44.3230 N   0  0  0  0  0  0  0  0  0  0  0  0
   59.7423   34.5461   46.3207 H   0  0  0  0  0  0  0  0  0  0  0  0
   59.9903   33.6644   44.7755 H   0  0  0  0  0  0  0  0  0  0  0  0
   59.1736   35.2643   44.7755 H   0  0  0  0  0  0  0  0  0  0  0  0
   57.5340   31.8400   43.8620 H   0  0  0  0  0  0  0  0  0  0  0  0
   60.0628   31.7512   46.3179 H   0  0  0  0  0  0  0  0  0  0  0  0
   60.8719   29.7771   47.5895 H   0  0  0  0  0  0  0  0  0  0  0  0
   59.5639   27.6664   47.6011 H   0  0  0  0  0  0  0  0  0  0  0  0
   58.9504   25.9467   46.9763 H   0  0  0  0  0  0  0  0  0  0  0  0
  1  2  1  0
  2  3  2  0
  2  4  2  0
  2  5  1  0
  5  6  1  0
  6  7  2  0
  7  8  1  0
  8  9  2  0
  9 10  1  0
 10 11  1  0
 11 12  2  0
 12 13  1  0
 13 14  2  0
 13 15  1  0
 15 16  1  0
 16 17  2  0
 16 18  1  0
 10 19  2  0
 19 20  1  0
 20 21  3  0
 19  6  1  0
 18 11  1  0
  1 22  1  0
  1 23  1  0
  1 24  1  0
  5 25  1  0
  7 26  1  0
  8 27  1  0
  9 28  1  0
 12 29  1  0
M  CHG  2  15  -1  18  -1
M  END
>  <UniqueID>  (39) 
36

>  <SMILES>  (39) 
CS(=O)(=O)Nc1cccc(-c2cc(=O)[n-]c(=O)[n-]2)c1C#N

>  <Energy>  (39) 
38.15566198164235

>  <Genealogy>  (39) 
CS(=O)(=O)Nc1cccc(-c2cc(=O)[n-]c(=O)[n-]2)c1C#N (protonated)
CS(=O)(=O)Nc1cccc(-c2cc(=O)[n-]c(=O)[n-]2)c1C#N (3D coordinates assigned)
CS(=O)(=O)Nc1cccc(-c2cc(=O)[n-]c(=O)[n-]2)c1C#N (optimized conformer: 38.15566198164235 kcal/mol)

>  <smiles>  (39) 
CS(=O)(=O)Nc1cccc(-c2cc(=O)[nH]c(=O)[nH]2)c1C#N

>  <score_type>  (39) 
oracle

>  <origin>  (39) 
adg

>  <m_score__min__energy>  (39) 
-11.56

>  <m_primary>  (39) 
energy

$$$$
39:0
     RDKit          3D

 45 47  0  0  0  0  0  0  0  0999 V2000
   55.1540   30.2950   44.4970 O   0  0  0  0  0  0  0  0  0  0  0  0
   56.0620   29.4200   44.4970 C   0  0  0  0  0  0  0  0  0  0  0  0
   57.2900   29.6280   43.6750 C   0  0  0  0  0  0  0  0  0  0  0  0
   57.1640   31.2140   42.7880 S   0  0  0  0  0  0  0  0  0  0  0  0
   57.7440   32.1660   44.1870 C   0  0  0  0  0  0  0  0  0  0  0  0
   58.2050   33.4290   44.0030 N   0  0  0  0  0  0  0  0  0  0  0  0
   58.6670   34.1660   45.0440 C   0  0  0  0  0  0  0  0  0  0  0  0
   59.0910   35.3330   44.8300 O   0  0  0  0  0  0  0  0  0  0  0  0
   58.6670   33.6270   46.3440 C   0  0  0  0  0  0  0  0  0  0  0  0
   59.2200   34.4020   47.5190 C   0  0  0  0  0  0  0  0  0  0  0  0
   60.6880   34.1190   47.6940 C   0  0  0  0  0  0  0  0  0  0  0  0
   61.4860   33.7880   46.5860 C   0  0  0  0  0  0  0  0  0  0  0  0
   62.8420   33.4940   46.7550 C   0  0  0  0  0  0  0  0  0  0  0  0
   63.4110   33.5200   48.0310 C   0  0  0  0  0  0  0  0  0  0  0  0
   62.6250   33.8420   49.1400 C   0  0  0  0  0  0  0  0  0  0  0  0
   61.2690   34.1380   48.9750 C   0  0  0  0  0  0  0  0  0  0  0  0
   58.1850   32.3160   46.5060 C   0  0  0  0  0  0  0  0  0  0  0  0
   58.1650   31.7170   47.7620 O   0  0  0  0  0  0  0  0  0  0  0  0
   57.7360   31.6200   45.4280 N   0  0  0  0  0  0  0  0  0  0  0  0
   55.9050   28.2080   45.2440 N   0  0  0  0  0  0  0  0  0  0  0  0
   56.9720   27.2280   45.4280 C   0  0  0  0  0  0  0  0  0  0  0  0
   57.8360   27.5910   46.6420 C   0  0  1  0  0  0  0  0  0  0  0  0
   59.1220   26.7870   46.6800 C   0  0  0  0  0  0  0  0  0  0  0  0
   60.0570   27.7030   47.4080 C   0  0  0  0  0  0  0  0  0  0  0  0
   59.4600   29.0830   47.1760 C   0  0  0  0  0  0  0  0  0  0  0  0
   58.1750   28.9580   46.6090 O   0  0  0  0  0  0  0  0  0  0  0  0
   58.1725   29.6439   44.3314 H   0  0  0  0  0  0  0  0  0  0  0  0
   57.3887   28.8079   42.9485 H   0  0  0  0  0  0  0  0  0  0  0  0
   59.0775   35.4783   47.3419 H   0  0  0  0  0  0  0  0  0  0  0  0
   58.6873   34.0936   48.4307 H   0  0  0  0  0  0  0  0  0  0  0  0
   61.0413   33.7601   45.5803 H   0  0  0  0  0  0  0  0  0  0  0  0
   63.4622   33.2418   45.8822 H   0  0  0  0  0  0  0  0  0  0  0  0
   64.4780   33.2869   48.1622 H   0  0  0  0  0  0  0  0  0  0  0  0
   63.0737   33.8626   50.1441 H   0  0  0  0  0  0  0  0  0  0  0  0
   60.6528   34.3871   49.8515 H   0  0  0  0  0  0  0  0  0  0  0  0
   58.0590   30.7140   47.8610 H   0  0  0  0  0  0  0  0  0  0  0  0
   56.5269   26.2345   45.5854 H   0  0  0  0  0  0  0  0  0  0  0  0
   57.6072   27.2230   44.5299 H   0  0  0  0  0  0  0  0  0  0  0  0
   57.2408   27.3600   47.5377 H   0  0  0  0  0  0  0  0  0  0  0  0
   58.9843   25.8429   47.2274 H   0  0  0  0  0  0  0  0  0  0  0  0
   59.4842   26.4927   45.6839 H   0  0  0  0  0  0  0  0  0  0  0  0
   60.0856   27.4629   48.4811 H   0  0  0  0  0  0  0  0  0  0  0  0
   61.0956   27.6220   47.0547 H   0  0  0  0  0  0  0  0  0  0  0  0
   59.3855   29.6148   48.1360 H   0  0  0  0  0  0  0  0  0  0  0  0
   60.1070   29.6479   46.4888 H   0  0  0  0  0  0  0  0  0  0  0  0
  1  2  2  0
  2  3  1  0
  3  4  1  0
  4  5  1  0
  5  6  2  0
  6  7  1  0
  7  8  2  0
  7  9  1  0
  9 10  1  0
 10 11  1  0
 11 12  2  0
 12 13  1  0
 13 14  2  0
 14 15  1  0
 15 16  2  0
  9 17  2  0
 17 18  1  0
 17 19  1  0
  2 20  1  0
 20 21  1  0
 21 22  1  0
 22 23  1  0
 23 24  1  0
 24 25  1  0
 25 26  1  0
 19  5  1  0
 26 22  1  0
 16 11  1  0
  3 27  1  0
  3 28  1  0
 10 29  1  0
 10 30  1  0
 12 31  1  0
 13 32  1  0
 14 33  1  0
 15 34  1  0
 16 35  1  0
 18 36  1  0
 21 37  1  0
 21 38  1  0
 22 39  1  1
 23 40  1  0
 23 41  1  0
 24 42  1  0
 24 43  1  0
 25 44  1  0
 25 45  1  0
M  CHG  2  19  -1  20  -1
M  END
>  <UniqueID>  (40) 
37

>  <SMILES>  (40) 
O=C(CSc1nc(=O)c(Cc2ccccc2)c(O)[n-]1)[N-]C[C@H]1CCCO1

>  <Energy>  (40) 
37.92650169475124

>  <Genealogy>  (40) 
O=C(CSc1nc(=O)c(Cc2ccccc2)c(O)[n-]1)[N-]CC1CCCO1 (protonated)
O=C(CSc1nc(=O)c(Cc2ccccc2)c(O)[n-]1)[N-]C[C@H]1CCCO1 (chirality)
O=C(CSc1nc(=O)c(Cc2ccccc2)c(O)[n-]1)[N-]C[C@H]1CCCO1 (3D coordinates assigned)
O=C(CSc1nc(=O)c(Cc2ccccc2)c(O)[n-]1)[N-]C[C@H]1CCCO1 (nonaromatic ring conformer: 37.92650169475124 kcal/mol)

>  <smiles>  (40) 
O=C(CSc1nc(=O)c(Cc2ccccc2)c(O)[nH]1)NCC1CCCO1

>  <score_type>  (40) 
oracle

>  <origin>  (40) 
adg

>  <m_score__min__energy>  (40) 
-12.300000000000001

>  <m_primary>  (40) 
energy

$$$$
40:0
     RDKit          3D

 65 69  0  0  0  0  0  0  0  0999 V2000
   60.5510   24.6790   46.0700 H   0  0  0  0  0  0  0  0  0  0  0  0
   59.9380   23.9170   45.8910 O   0  0  0  0  0  0  0  0  0  0  0  0
   58.6820   24.4650   45.5890 C   0  0  0  0  0  0  0  0  0  0  0  0
   58.0134   23.6652   45.2377 H   0  0  0  0  0  0  0  0  0  0  0  0
   58.8063   25.2276   44.8061 H   0  0  0  0  0  0  0  0  0  0  0  0
   58.0690   25.1260   46.8320 C   0  0  1  0  0  0  0  0  0  0  0  0
   58.7553   24.9900   47.6809 H   0  0  0  0  0  0  0  0  0  0  0  0
   57.8990   26.5710   46.5920 N   0  0  0  0  0  0  0  0  0  0  0  0
   56.9720   27.1410   45.7800 C   0  0  0  0  0  0  0  0  0  0  0  0
   56.1639   26.5916   45.2748 H   0  0  0  0  0  0  0  0  0  0  0  0
   57.1800   28.5110   45.6720 C   0  0  0  0  0  0  0  0  0  0  0  0
   56.3750   29.4680   44.8810 C   0  0  0  0  0  0  0  0  0  0  0  0
   55.1240   29.3230   44.8370 O   0  0  0  0  0  0  0  0  0  0  0  0
   56.9980   30.5840   44.1250 C   0  0  0  0  0  0  0  0  0  0  0  0
   57.0320   30.5760   42.7240 C   0  0  0  0  0  0  0  0  0  0  0  0
   56.6058   29.7295   42.1657 H   0  0  0  0  0  0  0  0  0  0  0  0
   57.6080   31.6450   42.0420 C   0  0  0  0  0  0  0  0  0  0  0  0
   57.6122   31.6541   40.9420 H   0  0  0  0  0  0  0  0  0  0  0  0
   58.1650   32.6770   42.7290 N   0  0  0  0  0  0  0  0  0  0  0  0
   58.6010   33.4570   42.1830 H   0  0  0  0  0  0  0  0  0  0  0  0
   58.2090   32.7030   44.0920 C   0  0  0  0  0  0  0  0  0  0  0  0
   58.8080   33.7100   44.6700 N   0  0  0  0  0  0  0  0  0  0  0  0
   58.7850   34.1420   46.0430 C   0  0  0  0  0  0  0  0  0  0  0  0
   57.7310   34.5930   46.5670 O   0  0  0  0  0  0  0  0  0  0  0  0
   59.9870   33.9400   46.8740 C   0  0  0  0  0  0  0  0  0  0  0  0
   59.8640   33.9050   48.2290 N   0  0  0  0  0  0  0  0  0  0  0  0
   60.9380   33.7620   49.0500 C   0  0  0  0  0  0  0  0  0  0  0  0
   60.7930   33.7276   50.1399 H   0  0  0  0  0  0  0  0  0  0  0  0
   62.2310   33.6580   48.5140 C   0  0  0  0  0  0  0  0  0  0  0  0
   63.3770   33.5740   49.3820 N   0  0  0  0  0  0  0  0  0  0  0  0
   64.5170   32.7380   48.9550 C   0  0  0  0  0  0  0  0  0  0  0  0
   64.1577   31.7092   48.8053 H   0  0  0  0  0  0  0  0  0  0  0  0
   64.9137   33.1798   48.0291 H   0  0  0  0  0  0  0  0  0  0  0  0
   65.6670   32.7080   49.9700 C   0  0  0  0  0  0  0  0  0  0  0  0
   66.3892   31.9316   49.6774 H   0  0  0  0  0  0  0  0  0  0  0  0
   66.1575   33.6925   49.9844 H   0  0  0  0  0  0  0  0  0  0  0  0
   65.0440   32.3470   51.5990 S   0  0  0  0  0  0  0  0  0  0  0  0
   66.0660   32.7250   52.6330 O   0  0  0  0  0  0  0  0  0  0  0  0
   64.7340   30.8810   51.7140 O   0  0  0  0  0  0  0  0  0  0  0  0
   63.5530   33.2970   51.8330 C   0  0  0  0  0  0  0  0  0  0  0  0
   62.6901   32.6159   51.8724 H   0  0  0  0  0  0  0  0  0  0  0  0
   63.6290   33.8599   52.7750 H   0  0  0  0  0  0  0  0  0  0  0  0
   63.3690   34.2800   50.6760 C   0  0  0  0  0  0  0  0  0  0  0  0
   62.4082   34.8021   50.7959 H   0  0  0  0  0  0  0  0  0  0  0  0
   64.2007   34.9998   50.6897 H   0  0  0  0  0  0  0  0  0  0  0  0
   62.3810   33.6840   47.1170 C   0  0  0  0  0  0  0  0  0  0  0  0
   63.6120   33.6320   46.5500 F   0  0  0  0  0  0  0  0  0  0  0  0
   61.2600   33.8160   46.2960 C   0  0  0  0  0  0  0  0  0  0  0  0
   61.3736   33.8228   45.2019 H   0  0  0  0  0  0  0  0  0  0  0  0
   57.5990   31.6510   44.8140 C   0  0  0  0  0  0  0  0  0  0  0  0
   57.5950   31.6680   45.9139 H   0  0  0  0  0  0  0  0  0  0  0  0
   58.2920   28.7790   46.4490 C   0  0  0  0  0  0  0  0  0  0  0  0
   58.9840   29.9720   46.6680 C   0  0  0  0  0  0  0  0  0  0  0  0
   58.6333   30.9182   46.2301 H   0  0  0  0  0  0  0  0  0  0  0  0
   60.1400   29.9290   47.4630 C   0  0  0  0  0  0  0  0  0  0  0  0
   60.6987   30.8548   47.6652 H   0  0  0  0  0  0  0  0  0  0  0  0
   60.5890   28.7100   48.0030 C   0  0  0  0  0  0  0  0  0  0  0  0
   61.4994   28.6903   48.6200 H   0  0  0  0  0  0  0  0  0  0  0  0
   59.8860   27.5170   47.7620 C   0  0  0  0  0  0  0  0  0  0  0  0
   60.3640   26.3530   48.2620 F   0  0  0  0  0  0  0  0  0  0  0  0
   58.7180   27.5800   46.9810 C   0  0  0  0  0  0  0  0  0  0  0  0
   56.7410   24.4580   47.2240 C   0  0  0  0  0  0  0  0  0  0  0  0
   56.6605   24.4175   48.3203 H   0  0  0  0  0  0  0  0  0  0  0  0
   55.9026   25.0416   46.8161 H   0  0  0  0  0  0  0  0  0  0  0  0
   56.7097   23.4369   46.8161 H   0  0  0  0  0  0  0  0  0  0  0  0
  1  2  1  0
  2  3  1  0
  3  4  1  0
  3  5  1  0
  3  6  1  0
  6  7  1  1
  6  8  1  0
  8  9  1  0
  9 10  1  0
  9 11  2  0
 11 12  1  0
 12 13  2  0
 12 14  1  0
 14 15  1  0
 15 16  1  0
 15 17  2  0
 17 18  1  0
 17 19  1  0
 19 20  1  0
 19 21  1  0
 21 22  2  0
 22 23  1  0
 23 24  2  0
 23 25  1  0
 25 26  2  0
 26 27  1  0
 27 28  1  0
 27 29  2  0
 29 30  1  0
 30 31  1  0
 31 32  1  0
 31 33  1  0
 31 34  1  0
 34 35  1  0
 34 36  1  0
 34 37  1  0
 37 38  2  0
 37 39  2  0
 37 40  1  0
 40 41  1  0
 40 42  1  0
 40 43  1  0
 43 44  1  0
 43 45  1  0
 29 46  1  0
 46 47  1  0
 46 48  2  0
 48 49  1  0
 21 50  1  0
 50 51  1  0
 11 52  1  0
 52 53  2  0
 53 54  1  0
 53 55  1  0
 55 56  1  0
 55 57  2  0
 57 58  1  0
 57 59  1  0
 59 60  1  0
 59 61  2  0
  6 62  1  0
 62 63  1  0
 62 64  1  0
 62 65  1  0
 61  8  1  0
 50 14  2  0
 61 52  1  0
 48 25  1  0
 43 30  1  0
M  END
>  <UniqueID>  (41) 
38

>  <SMILES>  (41) 
C[C@@H](CO)n1cc(C(=O)c2cc[nH]/c(=N/C(=O)c3cc(F)c(N4CCS(=O)(=O)CC4)cn3)c2)c2cccc(F)c21

>  <Energy>  (41) 
118.11348200188914

>  <Genealogy>  (41) 
C[C@@H](CO)n1cc(C(=O)c2cc[nH]c(=NC(=O)c3cc(F)c(N4CCS(=O)(=O)CC4)cn3)c2)c2cccc(F)c21 (chirality)
C[C@@H](CO)n1cc(C(=O)c2cc[nH]/c(=N/C(=O)c3cc(F)c(N4CCS(=O)(=O)CC4)cn3)c2)c2cccc(F)c21 (cis-trans isomerization)
C[C@@H](CO)n1cc(C(=O)c2cc[nH]/c(=N/C(=O)c3cc(F)c(N4CCS(=O)(=O)CC4)cn3)c2)c2cccc(F)c21 (3D coordinates assigned)
C[C@@H](CO)n1cc(C(=O)c2cc[nH]/c(=N/C(=O)c3cc(F)c(N4CCS(=O)(=O)CC4)cn3)c2)c2cccc(F)c21 (nonaromatic ring conformer: 118.11348200188914 kcal/mol)

>  <smiles>  (41) 
CC(CO)n1cc(C(=O)c2cc[nH]c(=NC(=O)c3cc(F)c(N4CCS(=O)(=O)CC4)cn3)c2)c2cccc(F)c21

>  <score_type>  (41) 
oracle

>  <origin>  (41) 
adg

>  <m_score__min__energy>  (41) 
-10.43

>  <m_primary>  (41) 
energy

$$$$
41:0
     RDKit          3D

 52 54  0  0  0  0  0  0  0  0999 V2000
   59.5620   35.7010   46.7400 N   0  0  0  0  0  0  0  0  0  0  0  0
   58.9070   34.5870   46.1270 C   0  0  0  0  0  0  0  0  0  0  0  0
   58.0200   33.7930   46.8680 C   0  0  0  0  0  0  0  0  0  0  0  0
   57.3920   32.6960   46.2710 C   0  0  0  0  0  0  0  0  0  0  0  0
   57.6530   32.3760   44.9310 C   0  0  0  0  0  0  0  0  0  0  0  0
   56.9570   30.9340   44.1940 S   0  0  0  0  0  0  0  0  0  0  0  0
   57.1410   31.0250   42.7060 O   0  0  0  0  0  0  0  0  0  0  0  0
   55.4880   30.8380   44.4970 O   0  0  0  0  0  0  0  0  0  0  0  0
   57.7590   29.5100   44.7820 N   0  0  0  0  0  0  0  0  0  0  0  0
   59.1580   29.4250   45.0820 C   0  0  0  0  0  0  0  0  0  0  0  0
   59.9330   28.9050   44.2380 O   0  0  0  0  0  0  0  0  0  0  0  0
   59.7170   29.9560   46.3360 C   0  0  0  0  0  0  0  0  0  0  0  0
   59.7270   29.1750   47.4950 C   0  0  0  0  0  0  0  0  0  0  0  0
   60.1900   29.7060   48.6990 C   0  0  0  0  0  0  0  0  0  0  0  0
   60.6500   31.0360   48.7720 C   0  0  0  0  0  0  0  0  0  0  0  0
   61.1680   31.5590   50.0110 N   0  0  0  0  0  0  0  0  0  0  0  0
   61.9540   30.7470   50.9460 C   0  0  0  0  0  0  0  0  0  0  0  0
   63.0450   31.5820   51.6670 C   0  0  0  0  0  0  0  0  0  0  0  0
   63.8660   32.4280   50.7730 N   0  0  0  0  0  0  0  0  0  0  0  0
   63.4310   33.8320   50.6970 C   0  0  0  0  0  0  0  0  0  0  0  0
   63.3360   34.2040   49.2240 C   0  0  0  0  0  0  0  0  0  0  0  0
   64.1410   33.1420   48.5090 C   0  0  0  0  0  0  0  0  0  0  0  0
   64.0160   31.9240   49.4020 C   0  0  0  0  0  0  0  0  0  0  0  0
   60.6480   31.8280   47.5950 C   0  0  0  0  0  0  0  0  0  0  0  0
   61.0340   33.2120   47.6250 N   0  0  0  0  0  0  0  0  0  0  0  0
   61.5830   33.7300   46.6290 O   0  0  0  0  0  0  0  0  0  0  0  0
   60.6050   34.0290   48.6440 O   0  0  0  0  0  0  0  0  0  0  0  0
   60.2070   31.2670   46.3840 C   0  0  0  0  0  0  0  0  0  0  0  0
   58.5290   33.1770   44.1880 C   0  0  0  0  0  0  0  0  0  0  0  0
   59.1540   34.2780   44.7830 C   0  0  0  0  0  0  0  0  0  0  0  0
   59.1110   36.6430   46.7540 H   0  0  0  0  0  0  0  0  0  0  0  0
   60.5070   35.5960   47.1690 H   0  0  0  0  0  0  0  0  0  0  0  0
   57.8178   34.0340   47.9220 H   0  0  0  0  0  0  0  0  0  0  0  0
   56.6906   32.0816   46.8545 H   0  0  0  0  0  0  0  0  0  0  0  0
   59.3678   28.1360   47.4576 H   0  0  0  0  0  0  0  0  0  0  0  0
   60.1961   29.0788   49.6026 H   0  0  0  0  0  0  0  0  0  0  0  0
   60.9870   32.5600   50.2440 H   0  0  0  0  0  0  0  0  0  0  0  0
   61.2773   30.3198   51.7007 H   0  0  0  0  0  0  0  0  0  0  0  0
   62.4571   29.9568   50.3693 H   0  0  0  0  0  0  0  0  0  0  0  0
   62.5483   32.2369   52.3980 H   0  0  0  0  0  0  0  0  0  0  0  0
   63.7333   30.8602   52.1310 H   0  0  0  0  0  0  0  0  0  0  0  0
   62.4481   33.9469   51.1773 H   0  0  0  0  0  0  0  0  0  0  0  0
   64.1461   34.4872   51.2161 H   0  0  0  0  0  0  0  0  0  0  0  0
   62.2890   34.1902   48.8869 H   0  0  0  0  0  0  0  0  0  0  0  0
   63.7134   35.2178   49.0249 H   0  0  0  0  0  0  0  0  0  0  0  0
   63.7233   32.9401   47.5116 H   0  0  0  0  0  0  0  0  0  0  0  0
   65.1867   33.4417   48.3457 H   0  0  0  0  0  0  0  0  0  0  0  0
   63.1344   31.3316   49.1160 H   0  0  0  0  0  0  0  0  0  0  0  0
   64.8968   31.2714   49.3115 H   0  0  0  0  0  0  0  0  0  0  0  0
   60.2473   31.8655   45.4620 H   0  0  0  0  0  0  0  0  0  0  0  0
   58.7264   32.9395   43.1323 H   0  0  0  0  0  0  0  0  0  0  0  0
   59.8414   34.9029   44.1940 H   0  0  0  0  0  0  0  0  0  0  0  0
  1  2  1  0
  2  3  2  0
  3  4  1  0
  4  5  2  0
  5  6  1  0
  6  7  2  0
  6  8  2  0
  6  9  1  0
  9 10  1  0
 10 11  2  0
 10 12  1  0
 12 13  2  0
 13 14  1  0
 14 15  2  0
 15 16  1  0
 16 17  1  0
 17 18  1  0
 18 19  1  0
 19 20  1  0
 20 21  1  0
 21 22  1  0
 22 23  1  0
 15 24  1  0
 24 25  1  0
 25 26  2  0
 25 27  1  0
 24 28  2  0
  5 29  1  0
 29 30  2  0
 30  2  1  0
 28 12  1  0
 23 19  1  0
  1 31  1  0
  1 32  1  0
  3 33  1  0
  4 34  1  0
 13 35  1  0
 14 36  1  0
 16 37  1  0
 17 38  1  0
 17 39  1  0
 18 40  1  0
 18 41  1  0
 20 42  1  0
 20 43  1  0
 21 44  1  0
 21 45  1  0
 22 46  1  0
 22 47  1  0
 23 48  1  0
 23 49  1  0
 28 50  1  0
 29 51  1  0
 30 52  1  0
M  CHG  3   9  -1  25   1  27  -1
M  END
>  <UniqueID>  (42) 
39

>  <SMILES>  (42) 
Nc1ccc(S(=O)(=O)[N-]C(=O)c2ccc(NCCN3CCCC3)c([N+](=O)[O-])c2)cc1

>  <Energy>  (42) 
66.55859331006226

>  <Genealogy>  (42) 
Nc1ccc(S(=O)(=O)[N-]C(=O)c2ccc(NCCN3CCCC3)c([N+](=O)[O-])c2)cc1 (protonated)
Nc1ccc(S(=O)(=O)[N-]C(=O)c2ccc(NCCN3CCCC3)c([N+](=O)[O-])c2)cc1 (3D coordinates assigned)
Nc1ccc(S(=O)(=O)[N-]C(=O)c2ccc(NCCN3CCCC3)c([N+](=O)[O-])c2)cc1 (nonaromatic ring conformer: 66.55859331006226 kcal/mol)

>  <smiles>  (42) 
Nc1ccc(S(=O)(=O)NC(=O)c2ccc(NCCN3CCCC3)c([N+](=O)[O-])c2)cc1

>  <score_type>  (42) 
oracle

>  <origin>  (42) 
adg

>  <m_score__min__energy>  (42) 
-11.07

>  <m_primary>  (42) 
energy

$$$$
42:0
     RDKit          3D

 65 70  0  0  0  0  0  0  0  0999 V2000
   49.3083   31.6387   54.5258 H   0  0  0  0  0  0  0  0  0  0  0  0
   50.2060   31.5600   53.8950 C   0  0  0  0  0  0  0  0  0  0  0  0
   51.3010   30.8090   54.3290 C   0  0  0  0  0  0  0  0  0  0  0  0
   51.2637   30.2964   55.3016 H   0  0  0  0  0  0  0  0  0  0  0  0
   52.4450   30.7070   53.5300 C   0  0  0  0  0  0  0  0  0  0  0  0
   53.3087   30.1238   53.8819 H   0  0  0  0  0  0  0  0  0  0  0  0
   52.4950   31.3460   52.2810 C   0  0  0  0  0  0  0  0  0  0  0  0
   53.7400   31.2620   51.4410 C   0  0  0  0  0  0  0  0  0  0  0  0
   53.9552   32.2479   51.0032 H   0  0  0  0  0  0  0  0  0  0  0  0
   53.5915   30.5295   50.6339 H   0  0  0  0  0  0  0  0  0  0  0  0
   54.8620   30.8450   52.2810 N   0  0  0  0  0  0  0  0  0  0  0  0
   56.1030   30.8470   51.8990 C   0  0  0  0  0  0  0  0  0  0  0  0
   56.8670   29.7250   51.9960 N   0  0  0  0  0  0  0  0  0  0  0  0
   58.1660   29.7440   51.6050 C   0  0  0  0  0  0  0  0  0  0  0  0
   58.8880   28.6710   51.7310 N   0  0  0  0  0  0  0  0  0  0  0  0
   60.1600   28.4340   51.0480 C   0  0  0  0  0  0  0  0  0  0  0  0
   60.4221   27.3691   51.1337 H   0  0  0  0  0  0  0  0  0  0  0  0
   60.9337   29.0586   51.5183 H   0  0  0  0  0  0  0  0  0  0  0  0
   60.0630   28.8030   49.5890 C   0  0  0  0  0  0  0  0  0  0  0  0
   61.1440   29.4300   48.9500 C   0  0  0  0  0  0  0  0  0  0  0  0
   62.0607   29.6527   49.5157 H   0  0  0  0  0  0  0  0  0  0  0  0
   61.0600   29.7720   47.5990 C   0  0  0  0  0  0  0  0  0  0  0  0
   61.9104   30.2628   47.1030 H   0  0  0  0  0  0  0  0  0  0  0  0
   59.8980   29.4920   46.8760 C   0  0  0  0  0  0  0  0  0  0  0  0
   59.8396   29.7625   45.8114 H   0  0  0  0  0  0  0  0  0  0  0  0
   58.8070   28.8700   47.4950 C   0  0  0  0  0  0  0  0  0  0  0  0
   57.6440   28.5860   46.6990 N   0  0  0  0  0  0  0  0  0  0  0  0
   57.3020   27.3650   46.0320 C   0  0  0  0  0  0  0  0  0  0  0  0
   56.4850   26.5530   46.5400 O   0  0  0  0  0  0  0  0  0  0  0  0
   57.8520   27.1020   44.6650 C   0  0  0  0  0  0  0  0  0  0  0  0
   57.5342   26.0505   44.6067 H   0  0  0  0  0  0  0  0  0  0  0  0
   57.8040   28.3110   43.7400 C   0  0  0  0  0  0  0  0  0  0  0  0
   57.5977   28.1756   42.6680 H   0  0  0  0  0  0  0  0  0  0  0  0
   57.2467   29.2593   43.7274 H   0  0  0  0  0  0  0  0  0  0  0  0
   59.1310   27.8510   44.3230 C   0  0  0  0  0  0  0  0  0  0  0  0
   59.8847   27.3834   43.6724 H   0  0  0  0  0  0  0  0  0  0  0  0
   59.9312   28.3296   44.9066 H   0  0  0  0  0  0  0  0  0  0  0  0
   58.9050   28.5040   48.8520 C   0  0  0  0  0  0  0  0  0  0  0  0
   58.0686   27.9803   49.3380 H   0  0  0  0  0  0  0  0  0  0  0  0
   58.6990   30.8910   51.1040 N   0  0  0  0  0  0  0  0  0  0  0  0
   57.9440   32.0140   51.0050 C   0  0  0  0  0  0  0  0  0  0  0  0
   58.4790   33.1030   50.5420 N   0  0  0  0  0  0  0  0  0  0  0  0
   59.5850   33.1500   49.5810 C   0  0  0  0  0  0  0  0  0  0  0  0
   60.5170   32.9785   50.1396 H   0  0  0  0  0  0  0  0  0  0  0  0
   59.3670   32.0760   48.4880 C   0  0  0  0  0  0  0  0  0  0  0  0
   60.2702   31.4617   48.3583 H   0  0  0  0  0  0  0  0  0  0  0  0
   58.5559   31.3765   48.7387 H   0  0  0  0  0  0  0  0  0  0  0  0
   59.0840   32.8600   47.2640 C   0  0  0  0  0  0  0  0  0  0  0  0
   58.7210   32.3590   46.0120 C   0  0  0  0  0  0  0  0  0  0  0  0
   58.5950   31.2773   45.8571 H   0  0  0  0  0  0  0  0  0  0  0  0
   58.5200   33.2590   44.9560 C   0  0  0  0  0  0  0  0  0  0  0  0
   58.2256   32.8848   43.9644 H   0  0  0  0  0  0  0  0  0  0  0  0
   58.6940   34.6390   45.1620 C   0  0  0  0  0  0  0  0  0  0  0  0
   58.5435   35.3414   44.3289 H   0  0  0  0  0  0  0  0  0  0  0  0
   59.0590   35.1220   46.4270 C   0  0  0  0  0  0  0  0  0  0  0  0
   59.1962   36.2001   46.5971 H   0  0  0  0  0  0  0  0  0  0  0  0
   59.2450   34.2080   47.4670 C   0  0  0  0  0  0  0  0  0  0  0  0
   59.6380   34.5200   48.8600 C   0  0  0  0  0  0  0  0  0  0  0  0
   60.6537   34.9409   48.8946 H   0  0  0  0  0  0  0  0  0  0  0  0
   58.9820   35.2694   49.3269 H   0  0  0  0  0  0  0  0  0  0  0  0
   56.6450   31.9880   51.4080 N   0  0  0  0  0  0  0  0  0  0  0  0
   51.3910   32.1120   51.8540 C   0  0  0  0  0  0  0  0  0  0  0  0
   51.4230   32.7810   50.6330 O   0  0  0  0  0  0  0  0  0  0  0  0
   50.2510   32.2110   52.6600 C   0  0  0  0  0  0  0  0  0  0  0  0
   49.3884   32.8029   52.3200 H   0  0  0  0  0  0  0  0  0  0  0  0
  1  2  1  0
  2  3  2  0
  3  4  1  0
  3  5  1  0
  5  6  1  0
  5  7  2  0
  7  8  1  0
  8  9  1  0
  8 10  1  0
  8 11  1  0
 11 12  2  3
 12 13  1  0
 13 14  1  0
 14 15  2  0
 15 16  1  0
 16 17  1  0
 16 18  1  0
 16 19  1  0
 19 20  2  0
 20 21  1  0
 20 22  1  0
 22 23  1  0
 22 24  2  0
 24 25  1  0
 24 26  1  0
 26 27  1  0
 27 28  1  0
 28 29  2  0
 28 30  1  0
 30 31  1  0
 30 32  1  0
 32 33  1  0
 32 34  1  0
 32 35  1  0
 35 36  1  0
 35 37  1  0
 26 38  2  0
 38 39  1  0
 14 40  1  0
 40 41  1  0
 41 42  2  0
 42 43  1  0
 43 44  1  0
 43 45  1  0
 45 46  1  0
 45 47  1  0
 45 48  1  0
 48 49  2  0
 49 50  1  0
 49 51  1  0
 51 52  1  0
 51 53  2  0
 53 54  1  0
 53 55  1  0
 55 56  1  0
 55 57  2  0
 57 58  1  0
 58 59  1  0
 58 60  1  0
 41 61  1  0
  7 62  1  0
 62 63  1  0
 62 64  2  0
 64 65  1  0
 64  2  1  0
 61 12  1  0
 38 19  1  0
 58 43  1  0
 35 30  1  0
 57 48  1  0
M  CHG  5  13  -1  27  -1  40  -1  61  -1  63  -1
M  END
>  <UniqueID>  (43) 
40

>  <SMILES>  (43) 
O=C([N-]c1cccc(C/N=c2/[n-]c(=NCc3ccccc3[O-])[n-]/c(=N\C3Cc4ccccc4C3)[n-]2)c1)C1CC1

>  <Energy>  (43) 
345.209822470972

>  <Genealogy>  (43) 
O=C([N-]c1cccc(CN=c2[n-]c(=NCc3ccccc3[O-])[n-]c(=NC3Cc4ccccc4C3)[n-]2)c1)C1CC1 (protonated)
O=C([N-]c1cccc(C/N=c2/[n-]c(=NCc3ccccc3[O-])[n-]/c(=N\C3Cc4ccccc4C3)[n-]2)c1)C1CC1 (cis-trans isomerization)
O=C([N-]c1cccc(C/N=c2/[n-]c(=NCc3ccccc3[O-])[n-]/c(=N\C3Cc4ccccc4C3)[n-]2)c1)C1CC1 (3D coordinates assigned)
O=C([N-]c1cccc(C/N=c2/[n-]c(=NCc3ccccc3[O-])[n-]/c(=N\C3Cc4ccccc4C3)[n-]2)c1)C1CC1 (nonaromatic ring conformer: 345.209822470972 kcal/mol)

>  <smiles>  (43) 
O=C(Nc1cccc(CN=c2[nH]c(=NCc3ccccc3O)[nH]c(=NC3Cc4ccccc4C3)[nH]2)c1)C1CC1

>  <score_type>  (43) 
oracle

>  <origin>  (43) 
adg

>  <m_score__min__energy>  (43) 
-17.59

>  <m_primary>  (43) 
energy

$$$$
43:0
     RDKit          3D

 24 25  0  0  0  0  0  0  0  0999 V2000
   56.1620   30.9690   44.4370 O   0  0  0  0  0  0  0  0  0  0  0  0
   57.1940   30.2980   44.7130 C   0  0  0  0  0  0  0  0  0  0  0  0
   58.5630   30.8930   44.5010 C   0  0  0  0  0  0  0  0  0  0  0  0
   58.7260   32.2070   45.2110 C   0  0  0  0  0  0  0  0  0  0  0  0
   58.4420   33.4160   44.5560 C   0  0  0  0  0  0  0  0  0  0  0  0
   58.6320   34.6220   45.2320 C   0  0  0  0  0  0  0  0  0  0  0  0
   59.1070   34.6150   46.5450 C   0  0  0  0  0  0  0  0  0  0  0  0
   59.3890   33.3960   47.1630 C   0  0  0  0  0  0  0  0  0  0  0  0
   59.1990   32.2300   46.4890 N   0  0  0  0  0  0  0  0  0  0  0  0
   57.0350   28.9120   45.1870 C   0  0  0  0  0  0  0  0  0  0  0  0
   58.0540   28.0690   45.6020 C   0  0  0  0  0  0  0  0  0  0  0  0
   57.4550   26.8790   45.9470 C   0  0  0  0  0  0  0  0  0  0  0  0
   56.1090   27.0600   45.7230 C   0  0  0  0  0  0  0  0  0  0  0  0
   55.1370   26.0930   45.9440 O   0  0  0  0  0  0  0  0  0  0  0  0
   55.8370   28.2950   45.2580 N   0  0  0  0  0  0  0  0  0  0  0  0
   59.3181   30.1890   44.8807 H   0  0  0  0  0  0  0  0  0  0  0  0
   58.6902   31.0730   43.4233 H   0  0  0  0  0  0  0  0  0  0  0  0
   58.0732   33.4126   43.5197 H   0  0  0  0  0  0  0  0  0  0  0  0
   58.4081   35.5757   44.7317 H   0  0  0  0  0  0  0  0  0  0  0  0
   59.2574   35.5605   47.0866 H   0  0  0  0  0  0  0  0  0  0  0  0
   59.7654   33.3781   48.1964 H   0  0  0  0  0  0  0  0  0  0  0  0
   59.1276   28.3043   45.6467 H   0  0  0  0  0  0  0  0  0  0  0  0
   57.9494   25.9714   46.3237 H   0  0  0  0  0  0  0  0  0  0  0  0
   54.2550   26.3370   46.3780 H   0  0  0  0  0  0  0  0  0  0  0  0
  1  2  2  0
  2  3  1  0
  3  4  1  0
  4  5  2  0
  5  6  1  0
  6  7  2  0
  7  8  1  0
  8  9  2  0
  2 10  1  0
 10 11  2  0
 11 12  1  0
 12 13  2  0
 13 14  1  0
 13 15  1  0
  9  4  1  0
 15 10  1  0
  3 16  1  0
  3 17  1  0
  5 18  1  0
  6 19  1  0
  7 20  1  0
  8 21  1  0
 11 22  1  0
 12 23  1  0
 14 24  1  0
M  CHG  1  15  -1
M  END
>  <UniqueID>  (44) 
41

>  <SMILES>  (44) 
O=C(Cc1ccccn1)c1ccc(O)[n-]1

>  <Energy>  (44) 
48.59975679136921

>  <Genealogy>  (44) 
O=C(Cc1ccccn1)c1ccc(O)[n-]1 (protonated)
O=C(Cc1ccccn1)c1ccc(O)[n-]1 (3D coordinates assigned)
O=C(Cc1ccccn1)c1ccc(O)[n-]1 (optimized conformer: 48.59975679136921 kcal/mol)

>  <smiles>  (44) 
O=C(Cc1ccccn1)c1ccc(O)[nH]1

>  <score_type>  (44) 
oracle

>  <origin>  (44) 
adg

>  <m_score__min__energy>  (44) 
-9.0700000000000003

>  <m_primary>  (44) 
energy

$$$$
44:0
     RDKit          3D

 37 38  0  0  0  0  0  0  0  0999 V2000
   64.8034   32.5558   47.3840 H   0  0  0  0  0  0  0  0  0  0  0  0
   63.7400   32.7430   47.1740 C   0  0  0  0  0  0  0  0  0  0  0  0
   62.4660   31.7150   47.5560 S   0  0  0  0  0  0  0  0  0  0  0  0
   61.2470   32.6950   46.9330 C   0  0  0  0  0  0  0  0  0  0  0  0
   59.8030   32.3790   46.9320 C   0  0  0  0  0  0  0  0  0  0  0  0
   59.3660   31.1340   47.2760 C   0  0  0  0  0  0  0  0  0  0  0  0
   58.8590   30.1970   46.2430 C   0  0  0  0  0  0  0  0  0  0  0  0
   59.7560   29.4570   45.4550 C   0  0  0  0  0  0  0  0  0  0  0  0
   60.8398   29.5705   45.6052 H   0  0  0  0  0  0  0  0  0  0  0  0
   59.2770   28.5780   44.4820 C   0  0  0  0  0  0  0  0  0  0  0  0
   59.9840   28.0046   43.8644 H   0  0  0  0  0  0  0  0  0  0  0  0
   57.9010   28.4250   44.2910 C   0  0  0  0  0  0  0  0  0  0  0  0
   57.5273   27.7326   43.5223 H   0  0  0  0  0  0  0  0  0  0  0  0
   56.9960   29.1520   45.0770 C   0  0  0  0  0  0  0  0  0  0  0  0
   55.5880   28.9950   44.8810 N   0  0  0  0  0  0  0  0  0  0  0  0
   55.1500   28.0470   44.8820 H   0  0  0  0  0  0  0  0  0  0  0  0
   54.9730   29.8260   44.7330 H   0  0  0  0  0  0  0  0  0  0  0  0
   57.4780   30.0340   46.0530 C   0  0  0  0  0  0  0  0  0  0  0  0
   56.7699   30.6021   46.6741 H   0  0  0  0  0  0  0  0  0  0  0  0
   59.4680   30.5770   48.6820 C   0  0  0  0  0  0  0  0  0  0  0  0
   60.5236   30.3705   48.9121 H   0  0  0  0  0  0  0  0  0  0  0  0
   58.8752   29.6521   48.7381 H   0  0  0  0  0  0  0  0  0  0  0  0
   58.9190   31.5720   49.7020 C   0  0  0  0  0  0  0  0  0  0  0  0
   59.1218   31.2044   50.7187 H   0  0  0  0  0  0  0  0  0  0  0  0
   59.4062   32.5481   49.5610 H   0  0  0  0  0  0  0  0  0  0  0  0
   57.8335   31.6803   49.5610 H   0  0  0  0  0  0  0  0  0  0  0  0
   58.7210   33.6630   46.3500 S   0  0  0  0  0  0  0  0  0  0  0  0
   57.2920   33.3680   46.7050 O   0  0  0  0  0  0  0  0  0  0  0  0
   59.0990   34.9710   46.9880 O   0  0  0  0  0  0  0  0  0  0  0  0
   58.8940   33.8420   44.5870 C   0  0  0  0  0  0  0  0  0  0  0  0
   59.6433   34.6173   44.3689 H   0  0  0  0  0  0  0  0  0  0  0  0
   59.2186   32.8855   44.1514 H   0  0  0  0  0  0  0  0  0  0  0  0
   57.9270   34.1338   44.1514 H   0  0  0  0  0  0  0  0  0  0  0  0
   61.8290   33.8430   46.4090 C   0  0  0  0  0  0  0  0  0  0  0  0
   61.2531   34.6502   45.9328 H   0  0  0  0  0  0  0  0  0  0  0  0
   63.2210   33.8690   46.5480 C   0  0  0  0  0  0  0  0  0  0  0  0
   63.8456   34.7027   46.1947 H   0  0  0  0  0  0  0  0  0  0  0  0
  1  2  1  0
  2  3  1  0
  3  4  1  0
  4  5  1  0
  5  6  2  0
  6  7  1  0
  7  8  2  0
  8  9  1  0
  8 10  1  0
 10 11  1  0
 10 12  2  0
 12 13  1  0
 12 14  1  0
 14 15  1  0
 15 16  1  0
 15 17  1  0
 14 18  2  0
 18 19  1  0
  6 20  1  0
 20 21  1  0
 20 22  1  0
 20 23  1  0
 23 24  1  0
 23 25  1  0
 23 26  1  0
  5 27  1  0
 27 28  2  0
 27 29  2  0
 27 30  1  0
 30 31  1  0
 30 32  1  0
 30 33  1  0
  4 34  2  0
 34 35  1  0
 34 36  1  0
 36 37  1  0
 36  2  2  0
 18  7  1  0
M  END
>  <UniqueID>  (45) 
42

>  <SMILES>  (45) 
CC/C(=C(/c1cccs1)S(C)(=O)=O)c1cccc(N)c1

>  <Energy>  (45) 
71.62263787623131

>  <Genealogy>  (45) 
CC/C(=C(/c1cccs1)S(C)(=O)=O)c1cccc(N)c1 (cis-trans isomerization)
CC/C(=C(/c1cccs1)S(C)(=O)=O)c1cccc(N)c1 (3D coordinates assigned)
CC/C(=C(/c1cccs1)S(C)(=O)=O)c1cccc(N)c1 (optimized conformer: 71.62263787623131 kcal/mol)

>  <smiles>  (45) 
CCC(=C(c1cccs1)S(C)(=O)=O)c1cccc(N)c1

>  <score_type>  (45) 
oracle

>  <origin>  (45) 
adg

>  <m_score__min__energy>  (45) 
-8.25

>  <m_primary>  (45) 
energy

$$$$
45:0
     RDKit          3D

 58 61  0  0  0  0  0  0  0  0999 V2000
   60.6840   28.5210   49.9730 C   0  0  0  0  0  0  0  0  0  0  0  0
   59.7220   29.6670   50.1150 C   0  0  0  0  0  0  0  0  0  0  0  0
   58.6800   29.5270   50.9790 N   0  0  0  0  0  0  0  0  0  0  0  0
   57.7520   30.4990   51.1800 C   0  0  0  0  0  0  0  0  0  0  0  0
   56.6770   30.2710   52.1150 N   0  0  0  0  0  0  0  0  0  0  0  0
   56.8680   29.3390   53.2290 C   0  0  0  0  0  0  0  0  0  0  0  0
   55.5400   28.6580   53.5610 C   0  0  0  0  0  0  0  0  0  0  0  0
   54.5320   29.6250   53.7900 O   0  0  0  0  0  0  0  0  0  0  0  0
   54.2710   30.3390   52.5970 C   0  0  0  0  0  0  0  0  0  0  0  0
   55.5000   31.1440   52.1540 C   0  0  0  0  0  0  0  0  0  0  0  0
   57.8660   31.7080   50.4780 C   0  0  0  0  0  0  0  0  0  0  0  0
   58.9330   31.8960   49.6010 C   0  0  0  0  0  0  0  0  0  0  0  0
   59.8830   30.8820   49.4110 C   0  0  0  0  0  0  0  0  0  0  0  0
   61.2350   31.1480   48.3050 S   0  0  0  0  0  0  0  0  0  0  0  0
   62.5130   30.8610   49.0420 O   0  0  0  0  0  0  0  0  0  0  0  0
   61.2590   32.5700   47.8240 O   0  0  0  0  0  0  0  0  0  0  0  0
   61.0480   30.0910   46.9430 N   0  0  0  0  0  0  0  0  0  0  0  0
   59.8860   29.3170   46.6290 C   0  0  0  0  0  0  0  0  0  0  0  0
   59.7130   28.0010   47.0940 C   0  0  0  0  0  0  0  0  0  0  0  0
   58.5390   27.2980   46.7960 C   0  0  0  0  0  0  0  0  0  0  0  0
   57.5410   27.8970   46.0240 C   0  0  0  0  0  0  0  0  0  0  0  0
   57.7200   29.1940   45.5250 C   0  0  0  0  0  0  0  0  0  0  0  0
   56.4740   29.9470   44.5290 S   0  0  0  0  0  0  0  0  0  0  0  0
   56.7540   29.6930   43.0720 O   0  0  0  0  0  0  0  0  0  0  0  0
   55.1450   29.3280   44.8660 O   0  0  0  0  0  0  0  0  0  0  0  0
   56.3870   31.6590   44.8350 N   0  0  0  0  0  0  0  0  0  0  0  0
   57.5090   32.3740   44.2160 C   0  0  0  0  0  0  0  0  0  0  0  0
   58.1690   33.3100   45.1990 C   0  0  0  0  0  0  0  0  0  0  0  0
   59.0430   34.3110   44.7430 C   0  0  0  0  0  0  0  0  0  0  0  0
   59.6580   35.1750   45.6510 C   0  0  0  0  0  0  0  0  0  0  0  0
   59.3960   35.0520   47.0150 C   0  0  0  0  0  0  0  0  0  0  0  0
   58.5170   34.0690   47.4760 C   0  0  0  0  0  0  0  0  0  0  0  0
   57.8990   33.2050   46.5750 C   0  0  0  0  0  0  0  0  0  0  0  0
   58.8990   29.8940   45.8210 C   0  0  0  0  0  0  0  0  0  0  0  0
   60.9817   28.1664   50.9708 H   0  0  0  0  0  0  0  0  0  0  0  0
   60.1993   27.7015   49.4221 H   0  0  0  0  0  0  0  0  0  0  0  0
   61.5751   28.8564   49.4221 H   0  0  0  0  0  0  0  0  0  0  0  0
   57.6094   28.5773   52.9461 H   0  0  0  0  0  0  0  0  0  0  0  0
   57.2258   29.8914   54.1104 H   0  0  0  0  0  0  0  0  0  0  0  0
   55.2416   28.0161   52.7190 H   0  0  0  0  0  0  0  0  0  0  0  0
   55.6673   28.0536   54.4712 H   0  0  0  0  0  0  0  0  0  0  0  0
   54.0033   29.6262   51.8031 H   0  0  0  0  0  0  0  0  0  0  0  0
   53.4435   31.0394   52.7833 H   0  0  0  0  0  0  0  0  0  0  0  0
   55.3215   31.5615   51.1521 H   0  0  0  0  0  0  0  0  0  0  0  0
   55.6768   31.9607   52.8694 H   0  0  0  0  0  0  0  0  0  0  0  0
   57.1183   32.5025   50.6186 H   0  0  0  0  0  0  0  0  0  0  0  0
   59.0305   32.8457   49.0545 H   0  0  0  0  0  0  0  0  0  0  0  0
   60.5018   27.5227   47.6932 H   0  0  0  0  0  0  0  0  0  0  0  0
   58.4027   26.2727   47.1704 H   0  0  0  0  0  0  0  0  0  0  0  0
   56.6121   27.3491   45.8072 H   0  0  0  0  0  0  0  0  0  0  0  0
   58.2508   31.6418   43.8643 H   0  0  0  0  0  0  0  0  0  0  0  0
   57.1218   32.9684   43.3753 H   0  0  0  0  0  0  0  0  0  0  0  0
   59.2435   34.4144   43.6664 H   0  0  0  0  0  0  0  0  0  0  0  0
   60.3484   35.9519   45.2908 H   0  0  0  0  0  0  0  0  0  0  0  0
   59.8830   35.7311   47.7303 H   0  0  0  0  0  0  0  0  0  0  0  0
   58.3124   33.9771   48.5529 H   0  0  0  0  0  0  0  0  0  0  0  0
   57.1987   32.4394   46.9404 H   0  0  0  0  0  0  0  0  0  0  0  0
   59.0494   30.9051   45.4147 H   0  0  0  0  0  0  0  0  0  0  0  0
  1  2  1  0
  2  3  2  0
  3  4  1  0
  4  5  1  0
  5  6  1  0
  6  7  1  0
  7  8  1  0
  8  9  1  0
  9 10  1  0
  4 11  2  0
 11 12  1  0
 12 13  2  0
 13 14  1  0
 14 15  2  0
 14 16  2  0
 14 17  1  0
 17 18  1  0
 18 19  2  0
 19 20  1  0
 20 21  2  0
 21 22  1  0
 22 23  1  0
 23 24  2  0
 23 25  2  0
 23 26  1  0
 26 27  1  0
 27 28  1  0
 28 29  2  0
 29 30  1  0
 30 31  2  0
 31 32  1  0
 32 33  2  0
 22 34  2  0
 13  2  1  0
 34 18  1  0
 10  5  1  0
 33 28  1  0
  1 35  1  0
  1 36  1  0
  1 37  1  0
  6 38  1  0
  6 39  1  0
  7 40  1  0
  7 41  1  0
  9 42  1  0
  9 43  1  0
 10 44  1  0
 10 45  1  0
 11 46  1  0
 12 47  1  0
 19 48  1  0
 20 49  1  0
 21 50  1  0
 27 51  1  0
 27 52  1  0
 29 53  1  0
 30 54  1  0
 31 55  1  0
 32 56  1  0
 33 57  1  0
 34 58  1  0
M  CHG  2  17  -1  26  -1
M  END
>  <UniqueID>  (46) 
43

>  <SMILES>  (46) 
Cc1nc(N2CCOCC2)ccc1S(=O)(=O)[N-]c1cccc(S(=O)(=O)[N-]Cc2ccccc2)c1

>  <Energy>  (46) 
71.2008628541052

>  <Genealogy>  (46) 
Cc1nc(N2CCOCC2)ccc1S(=O)(=O)[N-]c1cccc(S(=O)(=O)[N-]Cc2ccccc2)c1 (protonated)
Cc1nc(N2CCOCC2)ccc1S(=O)(=O)[N-]c1cccc(S(=O)(=O)[N-]Cc2ccccc2)c1 (3D coordinates assigned)
Cc1nc(N2CCOCC2)ccc1S(=O)(=O)[N-]c1cccc(S(=O)(=O)[N-]Cc2ccccc2)c1 (nonaromatic ring conformer: 71.2008628541052 kcal/mol)

>  <smiles>  (46) 
Cc1nc(N2CCOCC2)ccc1S(=O)(=O)Nc1cccc(S(=O)(=O)NCc2ccccc2)c1

>  <score_type>  (46) 
oracle

>  <origin>  (46) 
adg

>  <m_score__min__energy>  (46) 
-12.57

>  <m_primary>  (46) 
energy

$$$$
46:0
     RDKit          3D

 42 44  0  0  0  0  0  0  0  0999 V2000
   56.8480   33.5880   46.0890 O   0  0  0  0  0  0  0  0  0  0  0  0
   57.5990   33.0490   45.2320 C   0  0  0  0  0  0  0  0  0  0  0  0
   58.5060   33.8580   44.4720 N   0  0  0  0  0  0  0  0  0  0  0  0
   59.2770   34.9580   45.0390 C   0  0  0  0  0  0  0  0  0  0  0  0
   59.9020   34.5400   46.3410 C   0  0  0  0  0  0  0  0  0  0  0  0
   61.1120   33.8290   46.3650 C   0  0  0  0  0  0  0  0  0  0  0  0
   61.6850   33.4710   47.5860 C   0  0  0  0  0  0  0  0  0  0  0  0
   61.0470   33.8300   48.7750 C   0  0  0  0  0  0  0  0  0  0  0  0
   59.8780   34.5240   48.7360 N   0  0  0  0  0  0  0  0  0  0  0  0
   59.2990   34.8850   47.5590 C   0  0  0  0  0  0  0  0  0  0  0  0
   57.5450   31.5850   45.0120 C   0  0  0  0  0  0  0  0  0  0  0  0
   58.4230   30.7250   45.6950 C   0  0  0  0  0  0  0  0  0  0  0  0
   58.3670   29.3430   45.4900 C   0  0  0  0  0  0  0  0  0  0  0  0
   57.4270   28.7910   44.6010 C   0  0  0  0  0  0  0  0  0  0  0  0
   57.3350   27.3720   44.3730 N   0  0  0  0  0  0  0  0  0  0  0  0
   56.9890   26.2130   45.6170 S   0  0  0  0  0  0  0  0  0  0  0  0
   55.5380   26.3160   45.9960 O   0  0  0  0  0  0  0  0  0  0  0  0
   57.8320   26.5150   46.8250 O   0  0  0  0  0  0  0  0  0  0  0  0
   57.3720   24.5890   45.0540 C   0  0  0  0  0  0  0  0  0  0  0  0
   58.4520   23.8820   45.6020 C   0  0  0  0  0  0  0  0  0  0  0  0
   58.7430   22.5890   45.1580 C   0  0  0  0  0  0  0  0  0  0  0  0
   57.9590   21.9980   44.1610 C   0  0  0  0  0  0  0  0  0  0  0  0
   56.8850   22.7010   43.6080 C   0  0  0  0  0  0  0  0  0  0  0  0
   56.5930   23.9950   44.0510 C   0  0  0  0  0  0  0  0  0  0  0  0
   56.5570   29.6500   43.9140 C   0  0  0  0  0  0  0  0  0  0  0  0
   56.6130   31.0310   44.1170 C   0  0  0  0  0  0  0  0  0  0  0  0
   60.0690   35.2480   44.3328 H   0  0  0  0  0  0  0  0  0  0  0  0
   58.6049   35.8094   45.2216 H   0  0  0  0  0  0  0  0  0  0  0  0
   61.6080   33.5543   45.4224 H   0  0  0  0  0  0  0  0  0  0  0  0
   62.6313   32.9107   47.6116 H   0  0  0  0  0  0  0  0  0  0  0  0
   61.4897   33.5517   49.7428 H   0  0  0  0  0  0  0  0  0  0  0  0
   58.3548   35.4493   47.5629 H   0  0  0  0  0  0  0  0  0  0  0  0
   59.1601   31.1429   46.3965 H   0  0  0  0  0  0  0  0  0  0  0  0
   59.0631   28.6826   46.0279 H   0  0  0  0  0  0  0  0  0  0  0  0
   57.4030   27.0100   43.3970 H   0  0  0  0  0  0  0  0  0  0  0  0
   59.0717   24.3462   46.3833 H   0  0  0  0  0  0  0  0  0  0  0  0
   59.5887   22.0358   45.5925 H   0  0  0  0  0  0  0  0  0  0  0  0
   58.1879   20.9801   43.8124 H   0  0  0  0  0  0  0  0  0  0  0  0
   56.2691   22.2363   42.8240 H   0  0  0  0  0  0  0  0  0  0  0  0
   55.7500   24.5482   43.6114 H   0  0  0  0  0  0  0  0  0  0  0  0
   55.8235   29.2324   43.2086 H   0  0  0  0  0  0  0  0  0  0  0  0
   55.9219   31.6907   43.5719 H   0  0  0  0  0  0  0  0  0  0  0  0
  1  2  2  0
  2  3  1  0
  3  4  1  0
  4  5  1  0
  5  6  2  0
  6  7  1  0
  7  8  2  0
  8  9  1  0
  9 10  2  0
  2 11  1  0
 11 12  2  0
 12 13  1  0
 13 14  2  0
 14 15  1  0
 15 16  1  0
 16 17  2  0
 16 18  2  0
 16 19  1  0
 19 20  2  0
 20 21  1  0
 21 22  2  0
 22 23  1  0
 23 24  2  0
 14 25  1  0
 25 26  2  0
 10  5  1  0
 26 11  1  0
 24 19  1  0
  4 27  1  0
  4 28  1  0
  6 29  1  0
  7 30  1  0
  8 31  1  0
 10 32  1  0
 12 33  1  0
 13 34  1  0
 15 35  1  0
 20 36  1  0
 21 37  1  0
 22 38  1  0
 23 39  1  0
 24 40  1  0
 25 41  1  0
 26 42  1  0
M  CHG  1   3  -1
M  END
>  <UniqueID>  (47) 
44

>  <SMILES>  (47) 
O=C([N-]Cc1cccnc1)c1ccc(NS(=O)(=O)c2ccccc2)cc1

>  <Energy>  (47) 
46.67664500485437

>  <Genealogy>  (47) 
O=C([N-]Cc1cccnc1)c1ccc(NS(=O)(=O)c2ccccc2)cc1 (protonated)
O=C([N-]Cc1cccnc1)c1ccc(NS(=O)(=O)c2ccccc2)cc1 (3D coordinates assigned)
O=C([N-]Cc1cccnc1)c1ccc(NS(=O)(=O)c2ccccc2)cc1 (optimized conformer: 46.67664500485437 kcal/mol)

>  <smiles>  (47) 
O=C(NCc1cccnc1)c1ccc(NS(=O)(=O)c2ccccc2)cc1

>  <score_type>  (47) 
oracle

>  <origin>  (47) 
adg

>  <m_score__min__energy>  (47) 
-10.789999999999999

>  <m_primary>  (47) 
energy

$$$$
47:0
     RDKit          3D

 31 32  0  0  0  0  0  0  0  0999 V2000
   60.7710   28.7610   45.0470 C   0  0  0  0  0  0  0  0  0  0  0  0
   59.9650   28.7180   46.1120 C   0  0  0  0  0  0  0  0  0  0  0  0
   60.4000   29.3630   47.3970 C   0  0  0  0  0  0  0  0  0  0  0  0
   58.6200   28.0960   46.0110 C   0  0  0  0  0  0  0  0  0  0  0  0
   57.5120   28.8570   45.5950 C   0  0  0  0  0  0  0  0  0  0  0  0
   57.6620   30.1990   45.2590 O   0  0  0  0  0  0  0  0  0  0  0  0
   56.2480   28.2670   45.5000 C   0  0  0  0  0  0  0  0  0  0  0  0
   55.1560   29.0290   45.0970 O   0  0  0  0  0  0  0  0  0  0  0  0
   56.0770   26.9110   45.7990 C   0  0  0  0  0  0  0  0  0  0  0  0
   54.8120   26.3430   45.6810 O   0  0  0  0  0  0  0  0  0  0  0  0
   57.1760   26.1310   46.2000 C   0  0  0  0  0  0  0  0  0  0  0  0
   56.9880   24.6950   46.5140 C   0  0  0  0  0  0  0  0  0  0  0  0
   56.4600   24.3810   47.6150 O   0  0  0  0  0  0  0  0  0  0  0  0
   57.3950   23.6210   45.5710 C   0  0  0  0  0  0  0  0  0  0  0  0
   58.7260   23.1680   45.5490 C   0  0  0  0  0  0  0  0  0  0  0  0
   59.1140   22.1530   44.6690 C   0  0  0  0  0  0  0  0  0  0  0  0
   58.1780   21.5740   43.8090 C   0  0  0  0  0  0  0  0  0  0  0  0
   56.8500   22.0060   43.8290 C   0  0  0  0  0  0  0  0  0  0  0  0
   55.9180   21.4240   42.9790 O   0  0  0  0  0  0  0  0  0  0  0  0
   56.4570   23.0210   44.7070 C   0  0  0  0  0  0  0  0  0  0  0  0
   58.4440   26.7330   46.3240 C   0  0  0  0  0  0  0  0  0  0  0  0
   59.5230   25.9850   46.7910 O   0  0  0  0  0  0  0  0  0  0  0  0
   60.4598   28.2911   44.1024 H   0  0  0  0  0  0  0  0  0  0  0  0
   61.7457   29.2663   45.1150 H   0  0  0  0  0  0  0  0  0  0  0  0
   60.0101   28.7849   48.2478 H   0  0  0  0  0  0  0  0  0  0  0  0
   61.4988   29.3860   47.4421 H   0  0  0  0  0  0  0  0  0  0  0  0
   60.0096   30.3904   47.4421 H   0  0  0  0  0  0  0  0  0  0  0  0
   59.4667   23.6150   46.2284 H   0  0  0  0  0  0  0  0  0  0  0  0
   60.1589   21.8097   44.6540 H   0  0  0  0  0  0  0  0  0  0  0  0
   58.4869   20.7777   43.1159 H   0  0  0  0  0  0  0  0  0  0  0  0
   55.4086   23.3534   44.7234 H   0  0  0  0  0  0  0  0  0  0  0  0
  1  2  2  0
  2  3  1  0
  2  4  1  0
  4  5  2  0
  5  6  1  0
  5  7  1  0
  7  8  1  0
  7  9  2  0
  9 10  1  0
  9 11  1  0
 11 12  1  0
 12 13  2  0
 12 14  1  0
 14 15  2  0
 15 16  1  0
 16 17  2  0
 17 18  1  0
 18 19  1  0
 18 20  2  0
 11 21  2  0
 21 22  1  0
 21  4  1  0
 20 14  1  0
  1 23  1  0
  1 24  1  0
  3 25  1  0
  3 26  1  0
  3 27  1  0
 15 28  1  0
 16 29  1  0
 17 30  1  0
 20 31  1  0
M  CHG  5   6  -1   8  -1  10  -1  19  -1  22  -1
M  END
>  <UniqueID>  (48) 
45

>  <SMILES>  (48) 
C=C(C)c1c([O-])c([O-])c([O-])c(C(=O)c2cccc([O-])c2)c1[O-]

>  <Energy>  (48) 
46.2925757072168

>  <Genealogy>  (48) 
C=C(C)c1c([O-])c([O-])c([O-])c(C(=O)c2cccc([O-])c2)c1[O-] (protonated)
C=C(C)c1c([O-])c([O-])c([O-])c(C(=O)c2cccc([O-])c2)c1[O-] (3D coordinates assigned)
C=C(C)c1c([O-])c([O-])c([O-])c(C(=O)c2cccc([O-])c2)c1[O-] (optimized conformer: 46.2925757072168 kcal/mol)

>  <smiles>  (48) 
C=C(C)c1c(O)c(O)c(O)c(C(=O)c2cccc(O)c2)c1O

>  <score_type>  (48) 
oracle

>  <origin>  (48) 
adg

>  <m_score__min__energy>  (48) 
-17.899999999999999

>  <m_primary>  (48) 
energy

$$$$
48:0
     RDKit          3D

 34 35  0  0  0  0  0  0  0  0999 V2000
   59.3990   30.8670   54.8310 C   0  0  0  0  0  0  0  0  0  0  0  0
   59.0630   32.0650   53.9880 C   0  0  0  0  0  0  0  0  0  0  0  0
   59.5310   33.3370   54.3570 C   0  0  0  0  0  0  0  0  0  0  0  0
   59.2230   34.4560   53.5810 C   0  0  0  0  0  0  0  0  0  0  0  0
   58.4540   34.3140   52.4240 C   0  0  0  0  0  0  0  0  0  0  0  0
   57.9800   33.0560   52.0490 C   0  0  0  0  0  0  0  0  0  0  0  0
   58.2570   31.9270   52.8380 C   0  0  0  0  0  0  0  0  0  0  0  0
   57.7970   30.6250   52.4450 N   0  0  0  0  0  0  0  0  0  0  0  0
   56.4310   30.2050   52.3170 C   0  0  0  0  0  0  0  0  0  0  0  0
   56.1800   28.9720   52.2640 O   0  0  0  0  0  0  0  0  0  0  0  0
   55.2890   31.1830   52.3290 C   0  0  0  0  0  0  0  0  0  0  0  0
   54.0760   30.5600   52.8540 N   0  0  0  0  0  0  0  0  0  0  0  0
   52.7310   30.9470   52.5470 C   0  0  0  0  0  0  0  0  0  0  0  0
   51.9960   31.3740   53.4760 O   0  0  0  0  0  0  0  0  0  0  0  0
   52.1780   30.8580   51.1790 C   0  0  0  0  0  0  0  0  0  0  0  0
   52.4550   29.7360   50.3800 C   0  0  0  0  0  0  0  0  0  0  0  0
   51.9190   29.6360   49.0940 C   0  0  0  0  0  0  0  0  0  0  0  0
   51.0930   30.6460   48.5980 C   0  0  0  0  0  0  0  0  0  0  0  0
   50.7950   31.7590   49.3910 C   0  0  0  0  0  0  0  0  0  0  0  0
   49.9660   32.7570   48.8930 O   0  0  0  0  0  0  0  0  0  0  0  0
   51.3300   31.8670   50.6820 C   0  0  0  0  0  0  0  0  0  0  0  0
   51.0290   32.9820   51.4580 O   0  0  0  0  0  0  0  0  0  0  0  0
   59.3239   31.1348   55.8952 H   0  0  0  0  0  0  0  0  0  0  0  0
   58.6947   30.0521   54.6074 H   0  0  0  0  0  0  0  0  0  0  0  0
   60.4243   30.5372   54.6074 H   0  0  0  0  0  0  0  0  0  0  0  0
   60.1440   33.4522   55.2631 H   0  0  0  0  0  0  0  0  0  0  0  0
   59.5862   35.4500   53.8811 H   0  0  0  0  0  0  0  0  0  0  0  0
   58.2216   35.1948   51.8074 H   0  0  0  0  0  0  0  0  0  0  0  0
   57.3857   32.9477   51.1297 H   0  0  0  0  0  0  0  0  0  0  0  0
   55.5564   32.0415   52.9626 H   0  0  0  0  0  0  0  0  0  0  0  0
   55.0971   31.5127   51.2973 H   0  0  0  0  0  0  0  0  0  0  0  0
   53.0973   28.9322   50.7692 H   0  0  0  0  0  0  0  0  0  0  0  0
   52.1484   28.7592   48.4706 H   0  0  0  0  0  0  0  0  0  0  0  0
   50.6763   30.5666   47.5831 H   0  0  0  0  0  0  0  0  0  0  0  0
  1  2  1  0
  2  3  2  0
  3  4  1  0
  4  5  2  0
  5  6  1  0
  6  7  2  0
  7  8  1  0
  8  9  1  0
  9 10  2  0
  9 11  1  0
 11 12  1  0
 12 13  1  0
 13 14  2  0
 13 15  1  0
 15 16  2  0
 16 17  1  0
 17 18  2  0
 18 19  1  0
 19 20  1  0
 19 21  2  0
 21 22  1  0
  7  2  1  0
 21 15  1  0
  1 23  1  0
  1 24  1  0
  1 25  1  0
  3 26  1  0
  4 27  1  0
  5 28  1  0
  6 29  1  0
 11 30  1  0
 11 31  1  0
 16 32  1  0
 17 33  1  0
 18 34  1  0
M  CHG  4   8  -1  12  -1  20  -1  22  -1
M  END
>  <UniqueID>  (49) 
46

>  <SMILES>  (49) 
Cc1ccccc1[N-]C(=O)C[N-]C(=O)c1cccc([O-])c1[O-]

>  <Energy>  (49) 
44.42869841045527

>  <Genealogy>  (49) 
Cc1ccccc1[N-]C(=O)C[N-]C(=O)c1cccc([O-])c1[O-] (protonated)
Cc1ccccc1[N-]C(=O)C[N-]C(=O)c1cccc([O-])c1[O-] (3D coordinates assigned)
Cc1ccccc1[N-]C(=O)C[N-]C(=O)c1cccc([O-])c1[O-] (optimized conformer: 44.42869841045527 kcal/mol)

>  <smiles>  (49) 
Cc1ccccc1NC(=O)CNC(=O)c1cccc(O)c1O

>  <score_type>  (49) 
oracle

>  <origin>  (49) 
adg

>  <m_score__min__energy>  (49) 
-16.949999999999999

>  <m_primary>  (49) 
energy

$$$$
49:0
     RDKit          3D

 39 40  0  0  0  0  0  0  0  0999 V2000
   56.2700   29.6940   43.2450 C   0  0  0  0  0  0  0  0  0  0  0  0
   56.4700   30.2480   44.5420 O   0  0  0  0  0  0  0  0  0  0  0  0
   57.2340   31.3950   44.8040 C   0  0  0  0  0  0  0  0  0  0  0  0
   57.7680   31.5590   46.0880 C   0  0  0  0  0  0  0  0  0  0  0  0
   58.5370   32.6830   46.3980 C   0  0  0  0  0  0  0  0  0  0  0  0
   58.7770   33.6680   45.4280 C   0  0  0  0  0  0  0  0  0  0  0  0
   59.6580   34.8440   45.7440 C   0  0  0  0  0  0  0  0  0  0  0  0
   60.5990   34.4830   46.8510 C   0  0  0  0  0  0  0  0  0  0  0  0
   60.3810   34.9110   48.0170 O   0  0  0  0  0  0  0  0  0  0  0  0
   61.7090   33.6140   46.5930 N   0  0  0  0  0  0  0  0  0  0  0  0
   62.4990   33.0450   47.6480 C   0  0  0  0  0  0  0  0  0  0  0  0
   63.7470   33.6010   47.9210 C   0  0  0  0  0  0  0  0  0  0  0  0
   64.5240   33.0930   48.9510 C   0  0  0  0  0  0  0  0  0  0  0  0
   64.0450   32.0350   49.7240 C   0  0  0  0  0  0  0  0  0  0  0  0
   64.7710   31.5960   50.6570 O   0  0  0  0  0  0  0  0  0  0  0  0
   62.8120   31.4810   49.4670 N   0  0  0  0  0  0  0  0  0  0  0  0
   62.3290   30.3720   50.3120 C   0  0  0  0  0  0  0  0  0  0  0  0
   62.0590   31.9250   48.3960 C   0  0  0  0  0  0  0  0  0  0  0  0
   60.7740   31.2230   48.0030 C   0  0  0  0  0  0  0  0  0  0  0  0
   58.2530   33.5010   44.1360 C   0  0  0  0  0  0  0  0  0  0  0  0
   57.4830   32.3760   43.8260 C   0  0  0  0  0  0  0  0  0  0  0  0
   55.8979   28.6632   43.3400 H   0  0  0  0  0  0  0  0  0  0  0  0
   55.5341   30.3005   42.6967 H   0  0  0  0  0  0  0  0  0  0  0  0
   57.2236   29.6905   42.6967 H   0  0  0  0  0  0  0  0  0  0  0  0
   57.5804   30.7967   46.8585 H   0  0  0  0  0  0  0  0  0  0  0  0
   58.9569   32.7966   47.4083 H   0  0  0  0  0  0  0  0  0  0  0  0
   60.2345   35.1206   44.8489 H   0  0  0  0  0  0  0  0  0  0  0  0
   59.0342   35.6942   46.0572 H   0  0  0  0  0  0  0  0  0  0  0  0
   62.0400   33.5010   45.6080 H   0  0  0  0  0  0  0  0  0  0  0  0
   64.1164   34.4441   47.3187 H   0  0  0  0  0  0  0  0  0  0  0  0
   65.5151   33.5229   49.1580 H   0  0  0  0  0  0  0  0  0  0  0  0
   62.4461   30.6409   51.3722 H   0  0  0  0  0  0  0  0  0  0  0  0
   61.2670   30.1828   50.0969 H   0  0  0  0  0  0  0  0  0  0  0  0
   62.9138   29.4655   50.0969 H   0  0  0  0  0  0  0  0  0  0  0  0
   60.2273   30.9243   48.9096 H   0  0  0  0  0  0  0  0  0  0  0  0
   60.1506   31.9059   47.4071 H   0  0  0  0  0  0  0  0  0  0  0  0
   61.0118   30.3295   47.4071 H   0  0  0  0  0  0  0  0  0  0  0  0
   58.4494   34.2593   43.3637 H   0  0  0  0  0  0  0  0  0  0  0  0
   57.0700   32.2571   42.8134 H   0  0  0  0  0  0  0  0  0  0  0  0
  1  2  1  0
  2  3  1  0
  3  4  2  0
  4  5  1  0
  5  6  2  0
  6  7  1  0
  7  8  1  0
  8  9  2  0
  8 10  1  0
 10 11  1  0
 11 12  1  0
 12 13  2  0
 13 14  1  0
 14 15  2  0
 14 16  1  0
 16 17  1  0
 16 18  1  0
 18 19  1  0
  6 20  1  0
 20 21  2  0
 21  3  1  0
 18 11  2  0
  1 22  1  0
  1 23  1  0
  1 24  1  0
  4 25  1  0
  5 26  1  0
  7 27  1  0
  7 28  1  0
 10 29  1  0
 12 30  1  0
 13 31  1  0
 17 32  1  0
 17 33  1  0
 17 34  1  0
 19 35  1  0
 19 36  1  0
 19 37  1  0
 20 38  1  0
 21 39  1  0
M  END
>  <UniqueID>  (50) 
47

>  <SMILES>  (50) 
COc1ccc(CC(=O)Nc2ccc(=O)n(C)c2C)cc1

>  <Energy>  (50) 
47.079504978657106

>  <Genealogy>  (50) 
COc1ccc(CC(=O)Nc2ccc(=O)n(C)c2C)cc1 (3D coordinates assigned)
COc1ccc(CC(=O)Nc2ccc(=O)n(C)c2C)cc1 (optimized conformer: 47.079504978657106 kcal/mol)

>  <smiles>  (50) 
COc1ccc(CC(=O)Nc2ccc(=O)n(C)c2C)cc1

>  <score_type>  (50) 
oracle

>  <origin>  (50) 
adg

>  <m_score__min__energy>  (50) 
-6.79

>  <m_primary>  (50) 
energy

$$$$
50:0
     RDKit          3D

 76 81  0  0  0  0  0  0  0  0999 V2000
   59.0113   33.9117   43.9727 H   0  0  0  0  0  0  0  0  0  0  0  0
   58.3370   33.0520   44.1000 C   0  0  0  0  0  0  0  0  0  0  0  0
   57.7910   32.0320   42.8800 S   0  0  0  0  0  0  0  0  0  0  0  0
   56.8810   31.0800   43.9280 C   0  0  0  0  0  0  0  0  0  0  0  0
   56.0690   29.8930   43.5130 C   0  0  0  0  0  0  0  0  0  0  0  0
   55.2046   30.2301   42.9220 H   0  0  0  0  0  0  0  0  0  0  0  0
   56.6924   29.2200   42.9060 H   0  0  0  0  0  0  0  0  0  0  0  0
   55.5980   29.1780   44.6980 N   0  0  0  0  0  0  0  0  0  0  0  0
   56.2290   28.1990   45.2730 C   0  0  0  0  0  0  0  0  0  0  0  0
   55.5420   27.0860   45.6330 N   0  0  0  0  0  0  0  0  0  0  0  0
   56.1810   26.0460   46.2340 C   0  0  0  0  0  0  0  0  0  0  0  0
   55.5280   24.9810   46.6000 N   0  0  0  0  0  0  0  0  0  0  0  0
   56.1100   23.6450   46.7240 C   0  0  0  0  0  0  0  0  0  0  0  0
   57.0559   23.7141   47.2812 H   0  0  0  0  0  0  0  0  0  0  0  0
   55.3976   22.9984   47.2573 H   0  0  0  0  0  0  0  0  0  0  0  0
   56.3790   23.0500   45.3660 C   0  0  0  0  0  0  0  0  0  0  0  0
   57.3630   22.0570   45.2040 C   0  0  0  0  0  0  0  0  0  0  0  0
   57.9372   21.7063   46.0742 H   0  0  0  0  0  0  0  0  0  0  0  0
   57.6120   21.5160   43.9410 C   0  0  0  0  0  0  0  0  0  0  0  0
   58.3825   20.7406   43.8187 H   0  0  0  0  0  0  0  0  0  0  0  0
   56.8850   21.9570   42.8320 C   0  0  0  0  0  0  0  0  0  0  0  0
   57.0827   21.5268   41.8391 H   0  0  0  0  0  0  0  0  0  0  0  0
   55.9070   22.9440   42.9830 C   0  0  0  0  0  0  0  0  0  0  0  0
   55.3359   23.2901   42.1089 H   0  0  0  0  0  0  0  0  0  0  0  0
   55.6540   23.4920   44.2450 C   0  0  0  0  0  0  0  0  0  0  0  0
   54.8858   24.2708   44.3608 H   0  0  0  0  0  0  0  0  0  0  0  0
   57.5180   26.1160   46.4500 N   0  0  0  0  0  0  0  0  0  0  0  0
   58.2160   27.2220   46.0880 C   0  0  0  0  0  0  0  0  0  0  0  0
   59.5020   27.2550   46.2780 N   0  0  0  0  0  0  0  0  0  0  0  0
   60.1990   28.2700   47.0740 C   0  0  1  0  0  0  0  0  0  0  0  0
   61.1150   27.8288   47.4938 H   0  0  0  0  0  0  0  0  0  0  0  0
   60.6010   29.4310   46.2080 C   0  0  0  0  0  0  0  0  0  0  0  0
   60.2360   29.4700   45.0050 O   0  0  0  0  0  0  0  0  0  0  0  0
   61.4590   30.4430   46.7360 N   0  0  0  0  0  0  0  0  0  0  0  0
   61.1300   31.8610   46.7570 C   0  0  0  0  0  0  0  0  0  0  0  0
   61.2587   32.2859   45.7505 H   0  0  0  0  0  0  0  0  0  0  0  0
   60.0851   31.9989   47.0721 H   0  0  0  0  0  0  0  0  0  0  0  0
   62.0490   32.5530   47.7180 C   0  0  0  0  0  0  0  0  0  0  0  0
   63.2850   31.9800   48.0510 C   0  0  0  0  0  0  0  0  0  0  0  0
   63.6070   31.0485   47.5626 H   0  0  0  0  0  0  0  0  0  0  0  0
   64.1100   32.5900   49.0030 C   0  0  0  0  0  0  0  0  0  0  0  0
   65.0820   32.1410   49.2553 H   0  0  0  0  0  0  0  0  0  0  0  0
   63.7020   33.7670   49.6330 C   0  0  0  0  0  0  0  0  0  0  0  0
   64.3531   34.2455   50.3794 H   0  0  0  0  0  0  0  0  0  0  0  0
   62.4650   34.3380   49.3150 C   0  0  0  0  0  0  0  0  0  0  0  0
   62.1418   35.2634   49.8142 H   0  0  0  0  0  0  0  0  0  0  0  0
   61.6390   33.7320   48.3620 C   0  0  0  0  0  0  0  0  0  0  0  0
   60.6651   34.1805   48.1163 H   0  0  0  0  0  0  0  0  0  0  0  0
   59.3080   28.7300   48.2400 C   0  0  0  0  0  0  0  0  0  0  0  0
   58.5373   29.4085   47.8454 H   0  0  0  0  0  0  0  0  0  0  0  0
   58.8695   27.8289   48.6936 H   0  0  0  0  0  0  0  0  0  0  0  0
   60.0730   29.4490   49.3180 C   0  0  0  0  0  0  0  0  0  0  0  0
   61.1440   28.9500   50.0550 C   0  0  0  0  0  0  0  0  0  0  0  0
   61.5905   27.9542   49.9173 H   0  0  0  0  0  0  0  0  0  0  0  0
   61.5580   29.8620   50.9640 N   0  0  0  0  0  0  0  0  0  0  0  0
   62.3380   29.7530   51.6510 H   0  0  0  0  0  0  0  0  0  0  0  0
   60.7550   30.9290   50.8120 C   0  0  0  0  0  0  0  0  0  0  0  0
   60.7930   32.1240   51.5340 C   0  0  0  0  0  0  0  0  0  0  0  0
   61.5393   32.2853   52.3258 H   0  0  0  0  0  0  0  0  0  0  0  0
   59.8460   33.1150   51.2160 C   0  0  0  0  0  0  0  0  0  0  0  0
   59.8521   34.0719   51.7585 H   0  0  0  0  0  0  0  0  0  0  0  0
   58.8870   32.8870   50.2030 C   0  0  0  0  0  0  0  0  0  0  0  0
   58.1487   33.6668   49.9645 H   0  0  0  0  0  0  0  0  0  0  0  0
   58.8700   31.6690   49.4970 C   0  0  0  0  0  0  0  0  0  0  0  0
   58.1226   31.4784   48.7127 H   0  0  0  0  0  0  0  0  0  0  0  0
   59.8300   30.7120   49.8230 C   0  0  0  0  0  0  0  0  0  0  0  0
   57.5670   28.2670   45.5100 N   0  0  0  0  0  0  0  0  0  0  0  0
   56.9810   31.5150   45.2040 N   0  0  0  0  0  0  0  0  0  0  0  0
   57.7830   32.6140   45.3010 C   0  0  0  0  0  0  0  0  0  0  0  0
   58.0960   33.2530   46.6190 C   0  0  0  0  0  0  0  0  0  0  0  0
   58.6835   32.5517   47.2298 H   0  0  0  0  0  0  0  0  0  0  0  0
   57.1512   33.5010   47.1248 H   0  0  0  0  0  0  0  0  0  0  0  0
   58.8970   34.5360   46.4200 C   0  0  0  0  0  0  0  0  0  0  0  0
   59.1612   34.9591   47.4004 H   0  0  0  0  0  0  0  0  0  0  0  0
   59.8156   34.3114   45.8581 H   0  0  0  0  0  0  0  0  0  0  0  0
   58.2918   35.2626   45.8581 H   0  0  0  0  0  0  0  0  0  0  0  0
  1  2  1  0
  2  3  1  0
  3  4  1  0
  4  5  1  0
  5  6  1  0
  5  7  1  0
  5  8  1  0
  8  9  2  3
  9 10  1  0
 10 11  1  0
 11 12  2  3
 12 13  1  0
 13 14  1  0
 13 15  1  0
 13 16  1  0
 16 17  2  0
 17 18  1  0
 17 19  1  0
 19 20  1  0
 19 21  2  0
 21 22  1  0
 21 23  1  0
 23 24  1  0
 23 25  2  0
 25 26  1  0
 11 27  1  0
 27 28  1  0
 28 29  2  0
 29 30  1  0
 30 31  1  1
 30 32  1  0
 32 33  2  0
 32 34  1  0
 34 35  1  0
 35 36  1  0
 35 37  1  0
 35 38  1  0
 38 39  2  0
 39 40  1  0
 39 41  1  0
 41 42  1  0
 41 43  2  0
 43 44  1  0
 43 45  1  0
 45 46  1  0
 45 47  2  0
 47 48  1  0
 30 49  1  0
 49 50  1  0
 49 51  1  0
 49 52  1  0
 52 53  2  0
 53 54  1  0
 53 55  1  0
 55 56  1  0
 55 57  1  0
 57 58  2  0
 58 59  1  0
 58 60  1  0
 60 61  1  0
 60 62  2  0
 62 63  1  0
 62 64  1  0
 64 65  1  0
 64 66  2  0
 28 67  1  0
  4 68  2  0
 68 69  1  0
 69 70  1  0
 70 71  1  0
 70 72  1  0
 70 73  1  0
 73 74  1  0
 73 75  1  0
 73 76  1  0
 69  2  2  0
 67  9  1  0
 25 16  1  0
 47 38  1  0
 66 52  1  0
 66 57  1  0
M  CHG  4  10  -1  27  -1  34  -1  67  -1
M  END
>  <UniqueID>  (51) 
48

>  <SMILES>  (51) 
CCc1csc(CN=c2[n-]c(=NCc3ccccc3)[n-]/c(=N/[C@H](Cc3c[nH]c4ccccc34)C(=O)[N-]Cc3ccccc3)[n-]2)n1

>  <Energy>  (51) 
128.0576410849718

>  <Genealogy>  (51) 
CCc1csc(CN=c2[n-]c(=NCc3ccccc3)[n-]c(=NC(Cc3c[nH]c4ccccc34)C(=O)[N-]Cc3ccccc3)[n-]2)n1 (protonated)
CCc1csc(CN=c2[n-]c(=NCc3ccccc3)[n-]c(=N[C@H](Cc3c[nH]c4ccccc34)C(=O)[N-]Cc3ccccc3)[n-]2)n1 (chirality)
CCc1csc(CN=c2[n-]c(=NCc3ccccc3)[n-]/c(=N/[C@H](Cc3c[nH]c4ccccc34)C(=O)[N-]Cc3ccccc3)[n-]2)n1 (cis-trans isomerization)
CCc1csc(CN=c2[n-]c(=NCc3ccccc3)[n-]/c(=N/[C@H](Cc3c[nH]c4ccccc34)C(=O)[N-]Cc3ccccc3)[n-]2)n1 (3D coordinates assigned)
CCc1csc(CN=c2[n-]c(=NCc3ccccc3)[n-]/c(=N/[C@H](Cc3c[nH]c4ccccc34)C(=O)[N-]Cc3ccccc3)[n-]2)n1 (optimized conformer: 128.0576410849718 kcal/mol)

>  <smiles>  (51) 
CCc1csc(CN=c2[nH]c(=NCc3ccccc3)[nH]c(=NC(Cc3c[nH]c4ccccc34)C(=O)NCc3ccccc3)[nH]2)n1

>  <score_type>  (51) 
oracle

>  <origin>  (51) 
adg

>  <m_score__min__energy>  (51) 
-17.300000000000001

>  <m_primary>  (51) 
energy

$$$$
51:0
     RDKit          3D

 43 45  0  0  0  0  0  0  0  0999 V2000
   59.7040   29.3590   49.6450 C   0  0  0  0  0  0  0  0  0  0  0  0
   59.1910   28.3920   48.7350 O   0  0  0  0  0  0  0  0  0  0  0  0
   59.2410   28.5140   47.3390 C   0  0  0  0  0  0  0  0  0  0  0  0
   60.3490   28.0810   46.5830 C   0  0  0  0  0  0  0  0  0  0  0  0
   60.3390   28.2000   45.1910 C   0  0  0  0  0  0  0  0  0  0  0  0
   59.2300   28.7420   44.5410 C   0  0  0  0  0  0  0  0  0  0  0  0
   58.1260   29.1820   45.2810 C   0  0  0  0  0  0  0  0  0  0  0  0
   56.7030   29.7940   44.4370 S   0  0  0  0  0  0  0  0  0  0  0  0
   56.8760   29.7000   42.9450 O   0  0  0  0  0  0  0  0  0  0  0  0
   55.5140   28.9660   44.8360 O   0  0  0  0  0  0  0  0  0  0  0  0
   56.4120   31.4510   44.8690 N   0  0  0  0  0  0  0  0  0  0  0  0
   57.4200   32.4040   45.2390 C   0  0  0  0  0  0  0  0  0  0  0  0
   57.5120   33.6010   44.5180 C   0  0  0  0  0  0  0  0  0  0  0  0
   58.4580   34.5670   44.8690 C   0  0  0  0  0  0  0  0  0  0  0  0
   59.3160   34.3490   45.9510 C   0  0  0  0  0  0  0  0  0  0  0  0
   59.2560   33.1460   46.6720 C   0  0  0  0  0  0  0  0  0  0  0  0
   60.1090   32.9610   47.8180 N   0  0  0  0  0  0  0  0  0  0  0  0
   61.5040   33.3000   47.8440 C   0  0  0  0  0  0  0  0  0  0  0  0
   61.9510   34.1970   47.0790 O   0  0  0  0  0  0  0  0  0  0  0  0
   62.3750   32.6390   48.7730 N   0  0  0  0  0  0  0  0  0  0  0  0
   63.8100   32.7070   48.6930 C   0  0  0  0  0  0  0  0  0  0  0  0
   64.3630   33.2070   47.6760 O   0  0  0  0  0  0  0  0  0  0  0  0
   64.6650   32.1720   49.7710 C   0  0  0  0  0  0  0  0  0  0  0  0
   65.9610   32.6230   50.0420 C   0  0  0  0  0  0  0  0  0  0  0  0
   66.4680   31.6740   51.3140 S   0  0  0  0  0  0  0  0  0  0  0  0
   65.1050   30.7530   51.4940 N   0  0  0  0  0  0  0  0  0  0  0  0
   64.2310   31.1540   50.5750 N   0  0  0  0  0  0  0  0  0  0  0  0
   58.3030   32.1790   46.3080 C   0  0  0  0  0  0  0  0  0  0  0  0
   58.1430   29.0770   46.6790 C   0  0  0  0  0  0  0  0  0  0  0  0
   59.5254   29.0224   50.6769 H   0  0  0  0  0  0  0  0  0  0  0  0
   60.7849   29.4800   49.4806 H   0  0  0  0  0  0  0  0  0  0  0  0
   59.1981   30.3218   49.4806 H   0  0  0  0  0  0  0  0  0  0  0  0
   61.2239   27.6483   47.0903 H   0  0  0  0  0  0  0  0  0  0  0  0
   61.2082   27.8653   44.6058 H   0  0  0  0  0  0  0  0  0  0  0  0
   59.2230   28.8239   43.4441 H   0  0  0  0  0  0  0  0  0  0  0  0
   56.8351   33.7817   43.6700 H   0  0  0  0  0  0  0  0  0  0  0  0
   58.5280   35.5014   44.2927 H   0  0  0  0  0  0  0  0  0  0  0  0
   60.0417   35.1239   46.2388 H   0  0  0  0  0  0  0  0  0  0  0  0
   59.6930   32.5430   48.6810 H   0  0  0  0  0  0  0  0  0  0  0  0
   61.9340   32.0220   49.4910 H   0  0  0  0  0  0  0  0  0  0  0  0
   66.5185   33.4222   49.5316 H   0  0  0  0  0  0  0  0  0  0  0  0
   58.2480   31.2336   46.8677 H   0  0  0  0  0  0  0  0  0  0  0  0
   57.2847   29.4408   47.2628 H   0  0  0  0  0  0  0  0  0  0  0  0
  1  2  1  0
  2  3  1  0
  3  4  2  0
  4  5  1  0
  5  6  2  0
  6  7  1  0
  7  8  1  0
  8  9  2  0
  8 10  2  0
  8 11  1  0
 11 12  1  0
 12 13  2  0
 13 14  1  0
 14 15  2  0
 15 16  1  0
 16 17  1  0
 17 18  1  0
 18 19  2  0
 18 20  1  0
 20 21  1  0
 21 22  2  0
 21 23  1  0
 23 24  2  0
 24 25  1  0
 25 26  1  0
 26 27  2  0
 16 28  2  0
  7 29  2  0
 29  3  1  0
 28 12  1  0
 27 23  1  0
  1 30  1  0
  1 31  1  0
  1 32  1  0
  4 33  1  0
  5 34  1  0
  6 35  1  0
 13 36  1  0
 14 37  1  0
 15 38  1  0
 17 39  1  0
 20 40  1  0
 24 41  1  0
 28 42  1  0
 29 43  1  0
M  CHG  1  11  -1
M  END
>  <UniqueID>  (52) 
49

>  <SMILES>  (52) 
COc1cccc(S(=O)(=O)[N-]c2cccc(NC(=O)NC(=O)c3csnn3)c2)c1

>  <Energy>  (52) 
86.6362130469088

>  <Genealogy>  (52) 
COc1cccc(S(=O)(=O)[N-]c2cccc(NC(=O)NC(=O)c3csnn3)c2)c1 (protonated)
COc1cccc(S(=O)(=O)[N-]c2cccc(NC(=O)NC(=O)c3csnn3)c2)c1 (3D coordinates assigned)
COc1cccc(S(=O)(=O)[N-]c2cccc(NC(=O)NC(=O)c3csnn3)c2)c1 (optimized conformer: 86.6362130469088 kcal/mol)

>  <smiles>  (52) 
COc1cccc(S(=O)(=O)Nc2cccc(NC(=O)NC(=O)c3csnn3)c2)c1

>  <score_type>  (52) 
oracle

>  <origin>  (52) 
adg

>  <m_score__min__energy>  (52) 
-10.27

>  <m_primary>  (52) 
energy

$$$$
52:0
     RDKit          3D

 56 59  0  0  0  0  0  0  0  0999 V2000
   55.6160   29.7170   46.0020 H   0  0  0  0  0  0  0  0  0  0  0  0
   55.6440   29.5950   44.9960 O   0  0  0  0  0  0  0  0  0  0  0  0
   56.4030   30.4320   44.1790 C   0  0  0  0  0  0  0  0  0  0  0  0
   56.2730   30.3640   42.7840 C   0  0  0  0  0  0  0  0  0  0  0  0
   55.5700   29.6481   42.3331 H   0  0  0  0  0  0  0  0  0  0  0  0
   57.0330   31.2020   41.9660 C   0  0  0  0  0  0  0  0  0  0  0  0
   56.9285   31.1455   40.8724 H   0  0  0  0  0  0  0  0  0  0  0  0
   57.9260   32.1120   42.5360 C   0  0  0  0  0  0  0  0  0  0  0  0
   58.5235   32.7725   41.8905 H   0  0  0  0  0  0  0  0  0  0  0  0
   58.0620   32.1850   43.9260 C   0  0  0  0  0  0  0  0  0  0  0  0
   58.7682   32.9019   44.3703 H   0  0  0  0  0  0  0  0  0  0  0  0
   57.2990   31.3450   44.7590 C   0  0  0  0  0  0  0  0  0  0  0  0
   57.4090   31.3930   46.1880 N   0  0  0  0  0  0  0  0  0  0  0  0
   58.7280   32.0930   47.0700 S   0  0  0  0  0  0  0  0  0  0  0  0
   58.3340   33.4760   47.5070 O   0  0  0  0  0  0  0  0  0  0  0  0
   59.9440   32.1550   46.1910 O   0  0  0  0  0  0  0  0  0  0  0  0
   59.0860   31.0920   48.4830 C   0  0  0  0  0  0  0  0  0  0  0  0
   58.9740   31.6590   49.7620 C   0  0  0  0  0  0  0  0  0  0  0  0
   58.6616   32.7088   49.8642 H   0  0  0  0  0  0  0  0  0  0  0  0
   59.2540   30.9080   50.9090 C   0  0  0  0  0  0  0  0  0  0  0  0
   59.1480   31.5450   52.1900 N   0  0  0  0  0  0  0  0  0  0  0  0
   59.1950   32.9540   52.4480 C   0  0  0  0  0  0  0  0  0  0  0  0
   58.2100   33.5440   52.9700 O   0  0  0  0  0  0  0  0  0  0  0  0
   60.3910   33.7100   52.0420 C   0  0  0  0  0  0  0  0  0  0  0  0
   60.3772   34.8069   52.1237 H   0  0  0  0  0  0  0  0  0  0  0  0
   61.4950   33.1120   51.5770 C   0  0  0  0  0  0  0  0  0  0  0  0
   62.1526   32.5868   52.2853 H   0  0  0  0  0  0  0  0  0  0  0  0
   61.8610   33.1330   50.1450 C   0  0  0  0  0  0  0  0  0  0  0  0
   61.1760   34.0220   49.3020 C   0  0  0  0  0  0  0  0  0  0  0  0
   60.3996   34.6802   49.7191 H   0  0  0  0  0  0  0  0  0  0  0  0
   61.4720   34.0780   47.9370 C   0  0  0  0  0  0  0  0  0  0  0  0
   60.9202   34.7689   47.2827 H   0  0  0  0  0  0  0  0  0  0  0  0
   62.4670   33.2580   47.4040 C   0  0  0  0  0  0  0  0  0  0  0  0
   62.6920   33.2955   46.3279 H   0  0  0  0  0  0  0  0  0  0  0  0
   63.1780   32.3890   48.2360 C   0  0  0  0  0  0  0  0  0  0  0  0
   63.9688   31.7521   47.8130 H   0  0  0  0  0  0  0  0  0  0  0  0
   62.8900   32.3240   49.6050 C   0  0  0  0  0  0  0  0  0  0  0  0
   63.9020   31.2900   50.6100 Cl  0  0  0  0  0  0  0  0  0  0  0  0
   59.6870   29.5790   50.7720 C   0  0  0  0  0  0  0  0  0  0  0  0
   59.9425   28.9904   51.6655 H   0  0  0  0  0  0  0  0  0  0  0  0
   59.7940   29.0030   49.5050 C   0  0  0  0  0  0  0  0  0  0  0  0
   60.1231   27.9579   49.4075 H   0  0  0  0  0  0  0  0  0  0  0  0
   59.4860   29.7440   48.3560 C   0  0  0  0  0  0  0  0  0  0  0  0
   59.5890   29.1150   47.0730 N   0  0  0  0  0  0  0  0  0  0  0  0
   60.7020   29.3460   46.1700 C   0  0  0  0  0  0  0  0  0  0  0  0
   60.9507   30.4169   46.1323 H   0  0  0  0  0  0  0  0  0  0  0  0
   61.6097   28.8177   46.4972 H   0  0  0  0  0  0  0  0  0  0  0  0
   60.2260   28.8610   44.8050 C   0  0  0  0  0  0  0  0  0  0  0  0
   59.9701   29.7165   44.1627 H   0  0  0  0  0  0  0  0  0  0  0  0
   61.0070   28.2868   44.2851 H   0  0  0  0  0  0  0  0  0  0  0  0
   58.9880   28.0090   45.0730 C   0  0  0  0  0  0  0  0  0  0  0  0
   58.2279   28.1829   44.2971 H   0  0  0  0  0  0  0  0  0  0  0  0
   59.2246   26.9348   45.0593 H   0  0  0  0  0  0  0  0  0  0  0  0
   58.4680   28.4510   46.4330 C   0  0  0  0  0  0  0  0  0  0  0  0
   57.6239   29.1465   46.3156 H   0  0  0  0  0  0  0  0  0  0  0  0
   58.0998   27.6019   47.0276 H   0  0  0  0  0  0  0  0  0  0  0  0
  1  2  1  0
  2  3  1  0
  3  4  2  0
  4  5  1  0
  4  6  1  0
  6  7  1  0
  6  8  2  0
  8  9  1  0
  8 10  1  0
 10 11  1  0
 10 12  2  0
 12 13  1  0
 13 14  1  0
 14 15  2  0
 14 16  2  0
 14 17  1  0
 17 18  2  0
 18 19  1  0
 18 20  1  0
 20 21  1  0
 21 22  1  0
 22 23  2  0
 22 24  1  0
 24 25  1  0
 24 26  2  0
 26 27  1  0
 26 28  1  0
 28 29  2  0
 29 30  1  0
 29 31  1  0
 31 32  1  0
 31 33  2  0
 33 34  1  0
 33 35  1  0
 35 36  1  0
 35 37  2  0
 37 38  1  0
 20 39  2  0
 39 40  1  0
 39 41  1  0
 41 42  1  0
 41 43  2  0
 43 44  1  0
 44 45  1  0
 45 46  1  0
 45 47  1  0
 45 48  1  0
 48 49  1  0
 48 50  1  0
 48 51  1  0
 51 52  1  0
 51 53  1  0
 51 54  1  0
 54 55  1  0
 54 56  1  0
 12  3  1  0
 43 17  1  0
 54 44  1  0
 37 28  1  0
M  CHG  2  13  -1  21  -1
M  END
>  <UniqueID>  (53) 
50

>  <SMILES>  (53) 
O=C(/C=C/c1ccccc1Cl)[N-]c1ccc(N2CCCC2)c(S(=O)(=O)[N-]c2ccccc2O)c1

>  <Energy>  (53) 
78.25125889373562

>  <Genealogy>  (53) 
O=C(C=Cc1ccccc1Cl)[N-]c1ccc(N2CCCC2)c(S(=O)(=O)[N-]c2ccccc2O)c1 (protonated)
O=C(/C=C/c1ccccc1Cl)[N-]c1ccc(N2CCCC2)c(S(=O)(=O)[N-]c2ccccc2O)c1 (cis-trans isomerization)
O=C(/C=C/c1ccccc1Cl)[N-]c1ccc(N2CCCC2)c(S(=O)(=O)[N-]c2ccccc2O)c1 (3D coordinates assigned)
O=C(/C=C/c1ccccc1Cl)[N-]c1ccc(N2CCCC2)c(S(=O)(=O)[N-]c2ccccc2O)c1 (nonaromatic ring conformer: 78.25125889373562 kcal/mol)

>  <smiles>  (53) 
O=C(C=Cc1ccccc1Cl)Nc1ccc(N2CCCC2)c(S(=O)(=O)Nc2ccccc2O)c1

>  <score_type>  (53) 
oracle

>  <origin>  (53) 
adg

>  <m_score__min__energy>  (53) 
-12.84

>  <m_primary>  (53) 
energy

$$$$
53:0
     RDKit          3D

 65 69  0  0  0  0  0  0  0  0999 V2000
   58.5350   33.6310   52.0140 C   0  0  0  0  0  0  0  0  0  0  0  0
   58.7600   32.8290   50.8590 O   0  0  0  0  0  0  0  0  0  0  0  0
   59.8370   31.9410   50.7100 C   0  0  0  0  0  0  0  0  0  0  0  0
   60.8230   31.9100   51.7050 C   0  0  0  0  0  0  0  0  0  0  0  0
   61.8970   31.0210   51.6090 C   0  0  0  0  0  0  0  0  0  0  0  0
   61.9980   30.1580   50.5130 C   0  0  0  0  0  0  0  0  0  0  0  0
   61.0410   30.1980   49.4940 C   0  0  0  0  0  0  0  0  0  0  0  0
   61.1600   29.3350   48.3960 O   0  0  0  0  0  0  0  0  0  0  0  0
   60.0460   28.7530   47.7850 C   0  0  0  0  0  0  0  0  0  0  0  0
   59.6590   27.4940   48.1230 N   0  0  0  0  0  0  0  0  0  0  0  0
   58.5580   26.9530   47.5970 N   0  0  0  0  0  0  0  0  0  0  0  0
   57.8070   27.6380   46.6950 C   0  0  0  0  0  0  0  0  0  0  0  0
   56.6380   27.1080   46.1550 C   0  0  0  0  0  0  0  0  0  0  0  0
   56.2280   25.9660   46.4980 O   0  0  0  0  0  0  0  0  0  0  0  0
   55.9310   27.8360   45.2560 N   0  0  0  0  0  0  0  0  0  0  0  0
   56.3500   29.0630   44.8440 C   0  0  0  0  0  0  0  0  0  0  0  0
   55.6530   29.6950   44.0040 O   0  0  0  0  0  0  0  0  0  0  0  0
   57.5180   29.5990   45.3290 N   0  0  0  0  0  0  0  0  0  0  0  0
   58.0370   30.8740   44.8000 C   0  0  0  0  0  0  0  0  0  0  0  0
   56.9860   31.9880   44.8830 C   0  0  0  0  0  0  0  0  0  0  0  0
   57.5660   33.3160   44.3600 C   0  0  0  0  0  0  0  0  0  0  0  0
   57.9140   34.2460   45.4590 N   0  0  0  0  0  0  0  0  0  0  0  0
   57.9140   33.5860   46.7860 C   0  0  0  0  0  0  0  0  0  0  0  0
   59.2830   32.9820   47.1290 C   0  0  0  0  0  0  0  0  0  0  0  0
   60.3500   34.0080   47.1540 N   0  0  0  0  0  0  0  0  0  0  0  0
   61.7140   33.4610   46.9390 C   0  0  0  0  0  0  0  0  0  0  0  0
   62.5790   33.4420   48.1870 C   0  0  0  0  0  0  0  0  0  0  0  0
   63.7390   32.6480   48.2320 C   0  0  0  0  0  0  0  0  0  0  0  0
   64.5310   32.6180   49.3870 C   0  0  0  0  0  0  0  0  0  0  0  0
   64.1760   33.3870   50.5000 C   0  0  0  0  0  0  0  0  0  0  0  0
   63.0420   34.1990   50.4550 C   0  0  0  0  0  0  0  0  0  0  0  0
   62.2560   34.2400   49.3010 C   0  0  0  0  0  0  0  0  0  0  0  0
   60.0400   35.2430   46.3990 C   0  0  0  0  0  0  0  0  0  0  0  0
   59.1870   34.9530   45.1530 C   0  0  0  0  0  0  0  0  0  0  0  0
   58.2210   28.9130   46.2880 C   0  0  0  0  0  0  0  0  0  0  0  0
   59.3330   29.4470   46.8600 N   0  0  0  0  0  0  0  0  0  0  0  0
   59.9560   31.0860   49.6000 C   0  0  0  0  0  0  0  0  0  0  0  0
   58.7043   33.0276   52.9180 H   0  0  0  0  0  0  0  0  0  0  0  0
   59.2282   34.4851   52.0081 H   0  0  0  0  0  0  0  0  0  0  0  0
   57.4987   33.9998   52.0081 H   0  0  0  0  0  0  0  0  0  0  0  0
   60.7513   32.5896   52.5670 H   0  0  0  0  0  0  0  0  0  0  0  0
   62.6643   30.9999   52.3969 H   0  0  0  0  0  0  0  0  0  0  0  0
   62.8334   29.4450   50.4523 H   0  0  0  0  0  0  0  0  0  0  0  0
   58.9194   31.1710   45.3858 H   0  0  0  0  0  0  0  0  0  0  0  0
   58.3000   30.7266   43.7421 H   0  0  0  0  0  0  0  0  0  0  0  0
   56.1136   31.7090   44.2738 H   0  0  0  0  0  0  0  0  0  0  0  0
   56.6880   32.1189   45.9338 H   0  0  0  0  0  0  0  0  0  0  0  0
   58.4738   33.1009   43.7771 H   0  0  0  0  0  0  0  0  0  0  0  0
   56.7969   33.7993   43.7395 H   0  0  0  0  0  0  0  0  0  0  0  0
   57.6523   34.3302   47.5526 H   0  0  0  0  0  0  0  0  0  0  0  0
   57.1795   32.7677   46.7580 H   0  0  0  0  0  0  0  0  0  0  0  0
   59.2237   32.5068   48.1193 H   0  0  0  0  0  0  0  0  0  0  0  0
   59.5356   32.2473   46.3503 H   0  0  0  0  0  0  0  0  0  0  0  0
   61.6180   32.4293   46.5696 H   0  0  0  0  0  0  0  0  0  0  0  0
   62.2122   34.1261   46.2183 H   0  0  0  0  0  0  0  0  0  0  0  0
   64.0257   32.0477   47.3560 H   0  0  0  0  0  0  0  0  0  0  0  0
   65.4329   31.9891   49.4187 H   0  0  0  0  0  0  0  0  0  0  0  0
   64.7910   33.3517   51.4113 H   0  0  0  0  0  0  0  0  0  0  0  0
   62.7668   34.8074   51.3291 H   0  0  0  0  0  0  0  0  0  0  0  0
   61.3777   34.9011   49.2623 H   0  0  0  0  0  0  0  0  0  0  0  0
   59.4885   35.9323   47.0553 H   0  0  0  0  0  0  0  0  0  0  0  0
   60.9897   35.6875   46.0667 H   0  0  0  0  0  0  0  0  0  0  0  0
   58.9462   35.9091   44.6652 H   0  0  0  0  0  0  0  0  0  0  0  0
   59.7775   34.2911   44.5025 H   0  0  0  0  0  0  0  0  0  0  0  0
   59.1935   31.1121   48.8076 H   0  0  0  0  0  0  0  0  0  0  0  0
  1  2  1  0
  2  3  1  0
  3  4  2  0
  4  5  1  0
  5  6  2  0
  6  7  1  0
  7  8  1  0
  8  9  1  0
  9 10  2  0
 10 11  1  0
 11 12  2  0
 12 13  1  0
 13 14  2  0
 13 15  1  0
 15 16  1  0
 16 17  2  0
 16 18  1  0
 18 19  1  0
 19 20  1  0
 20 21  1  0
 21 22  1  0
 22 23  1  0
 23 24  1  0
 24 25  1  0
 25 26  1  0
 26 27  1  0
 27 28  2  0
 28 29  1  0
 29 30  2  0
 30 31  1  0
 31 32  2  0
 25 33  1  0
 33 34  1  0
 18 35  1  0
 35 36  2  0
  7 37  2  0
 37  3  1  0
 36  9  1  0
 35 12  1  0
 34 22  1  0
 32 27  1  0
  1 38  1  0
  1 39  1  0
  1 40  1  0
  4 41  1  0
  5 42  1  0
  6 43  1  0
 19 44  1  0
 19 45  1  0
 20 46  1  0
 20 47  1  0
 21 48  1  0
 21 49  1  0
 23 50  1  0
 23 51  1  0
 24 52  1  0
 24 53  1  0
 26 54  1  0
 26 55  1  0
 28 56  1  0
 29 57  1  0
 30 58  1  0
 31 59  1  0
 32 60  1  0
 33 61  1  0
 33 62  1  0
 34 63  1  0
 34 64  1  0
 37 65  1  0
M  CHG  1  15  -1
M  END
>  <UniqueID>  (54) 
51

>  <SMILES>  (54) 
COc1cccc(Oc2nnc3c(=O)[n-]c(=O)n(CCCN4CCN(Cc5ccccc5)CC4)c3n2)c1

>  <Energy>  (54) 
94.46162803519947

>  <Genealogy>  (54) 
COc1cccc(Oc2nnc3c(=O)[n-]c(=O)n(CCCN4CCN(Cc5ccccc5)CC4)c3n2)c1 (protonated)
COc1cccc(Oc2nnc3c(=O)[n-]c(=O)n(CCCN4CCN(Cc5ccccc5)CC4)c3n2)c1 (3D coordinates assigned)
COc1cccc(Oc2nnc3c(=O)[n-]c(=O)n(CCCN4CCN(Cc5ccccc5)CC4)c3n2)c1 (nonaromatic ring conformer: 94.46162803519947 kcal/mol)

>  <smiles>  (54) 
COc1cccc(Oc2nnc3c(=O)[nH]c(=O)n(CCCN4CCN(Cc5ccccc5)CC4)c3n2)c1

>  <score_type>  (54) 
oracle

>  <origin>  (54) 
adg

>  <m_score__min__energy>  (54) 
-10.74

>  <m_primary>  (54) 
energy

$$$$
54:0
     RDKit          3D

 52 55  0  0  0  0  0  0  0  0999 V2000
   59.5500   33.7980   50.5850 C   0  0  0  0  0  0  0  0  0  0  0  0
   60.6770   32.9470   50.7690 O   0  0  0  0  0  0  0  0  0  0  0  0
   61.5180   32.5040   49.7350 C   0  0  0  0  0  0  0  0  0  0  0  0
   62.8640   32.9120   49.6420 C   0  0  0  0  0  0  0  0  0  0  0  0
   63.6710   32.4450   48.6020 C   0  0  0  0  0  0  0  0  0  0  0  0
   63.1460   31.5780   47.6420 C   0  0  0  0  0  0  0  0  0  0  0  0
   61.8120   31.1700   47.7230 C   0  0  0  0  0  0  0  0  0  0  0  0
   60.9950   31.6200   48.7770 C   0  0  0  0  0  0  0  0  0  0  0  0
   59.6140   31.2440   48.8590 N   0  0  0  0  0  0  0  0  0  0  0  0
   59.1020   29.9990   49.3460 C   0  0  0  0  0  0  0  0  0  0  0  0
   58.2030   29.9950   50.2290 O   0  0  0  0  0  0  0  0  0  0  0  0
   59.6090   28.7140   48.8060 C   0  0  0  0  0  0  0  0  0  0  0  0
   60.4940   27.8510   49.4500 C   0  0  0  0  0  0  0  0  0  0  0  0
   61.0690   28.0240   50.8230 C   0  0  0  0  0  0  0  0  0  0  0  0
   60.8130   26.8200   48.6470 N   0  0  0  0  0  0  0  0  0  0  0  0
   60.1480   26.9940   47.4920 C   0  0  0  0  0  0  0  0  0  0  0  0
   60.2380   26.0360   46.3440 C   0  0  0  0  0  0  0  0  0  0  0  0
   59.3860   28.1580   47.5430 C   0  0  0  0  0  0  0  0  0  0  0  0
   58.4970   28.6530   46.4710 C   0  0  0  0  0  0  0  0  0  0  0  0
   57.3600   28.1370   46.3030 O   0  0  0  0  0  0  0  0  0  0  0  0
   58.9560   29.6650   45.5690 N   0  0  0  0  0  0  0  0  0  0  0  0
   58.2340   30.8670   45.2840 C   0  0  0  0  0  0  0  0  0  0  0  0
   57.0200   30.9610   44.6100 C   0  0  0  0  0  0  0  0  0  0  0  0
   56.2080   29.8460   44.1020 C   0  0  0  0  0  0  0  0  0  0  0  0
   55.1390   29.3350   44.8930 N   0  0  0  0  0  0  0  0  0  0  0  0
   56.4460   29.3420   42.9730 O   0  0  0  0  0  0  0  0  0  0  0  0
   56.6770   32.2300   44.4850 O   0  0  0  0  0  0  0  0  0  0  0  0
   57.6250   32.9590   45.0280 C   0  0  0  0  0  0  0  0  0  0  0  0
   57.6940   34.3490   45.0940 C   0  0  0  0  0  0  0  0  0  0  0  0
   58.8400   34.9250   45.6710 C   0  0  0  0  0  0  0  0  0  0  0  0
   59.8860   34.1080   46.1530 C   0  0  0  0  0  0  0  0  0  0  0  0
   59.7880   32.7070   46.0800 C   0  0  0  0  0  0  0  0  0  0  0  0
   58.6250   32.1650   45.5330 C   0  0  0  0  0  0  0  0  0  0  0  0
   59.1529   34.0978   51.5660 H   0  0  0  0  0  0  0  0  0  0  0  0
   59.8545   34.6935   50.0234 H   0  0  0  0  0  0  0  0  0  0  0  0
   58.7721   33.2600   50.0234 H   0  0  0  0  0  0  0  0  0  0  0  0
   63.2806   33.6010   50.3915 H   0  0  0  0  0  0  0  0  0  0  0  0
   64.7227   32.7611   48.5392 H   0  0  0  0  0  0  0  0  0  0  0  0
   63.7828   31.2159   46.8214 H   0  0  0  0  0  0  0  0  0  0  0  0
   61.3987   30.4943   46.9598 H   0  0  0  0  0  0  0  0  0  0  0  0
   60.2998   27.7926   51.5745 H   0  0  0  0  0  0  0  0  0  0  0  0
   61.9234   27.3432   50.9512 H   0  0  0  0  0  0  0  0  0  0  0  0
   61.4059   29.0633   50.9512 H   0  0  0  0  0  0  0  0  0  0  0  0
   61.4600   26.0330   48.8770 H   0  0  0  0  0  0  0  0  0  0  0  0
   60.3344   25.0102   46.7292 H   0  0  0  0  0  0  0  0  0  0  0  0
   59.3287   26.1132   45.7299 H   0  0  0  0  0  0  0  0  0  0  0  0
   61.1171   26.2812   45.7299 H   0  0  0  0  0  0  0  0  0  0  0  0
   55.3190   28.6370   45.6500 H   0  0  0  0  0  0  0  0  0  0  0  0
   56.8776   34.9764   44.7069 H   0  0  0  0  0  0  0  0  0  0  0  0
   58.9220   36.0193   45.7473 H   0  0  0  0  0  0  0  0  0  0  0  0
   60.7839   34.5707   46.5887 H   0  0  0  0  0  0  0  0  0  0  0  0
   60.6010   32.0605   46.4420 H   0  0  0  0  0  0  0  0  0  0  0  0
  1  2  1  0
  2  3  1  0
  3  4  2  0
  4  5  1  0
  5  6  2  0
  6  7  1  0
  7  8  2  0
  8  9  1  0
  9 10  1  0
 10 11  2  0
 10 12  1  0
 12 13  2  0
 13 14  1  0
 13 15  1  0
 15 16  1  0
 16 17  1  0
 16 18  2  0
 18 19  1  0
 19 20  2  0
 19 21  1  0
 21 22  1  0
 22 23  2  0
 23 24  1  0
 24 25  1  0
 24 26  2  0
 23 27  1  0
 27 28  1  0
 28 29  2  0
 29 30  1  0
 30 31  2  0
 31 32  1  0
 32 33  2  0
  8  3  1  0
 18 12  1  0
 33 22  1  0
 33 28  1  0
  1 34  1  0
  1 35  1  0
  1 36  1  0
  4 37  1  0
  5 38  1  0
  6 39  1  0
  7 40  1  0
 14 41  1  0
 14 42  1  0
 14 43  1  0
 15 44  1  0
 17 45  1  0
 17 46  1  0
 17 47  1  0
 25 48  1  0
 29 49  1  0
 30 50  1  0
 31 51  1  0
 32 52  1  0
M  CHG  3   9  -1  21  -1  25  -1
M  END
>  <UniqueID>  (55) 
52

>  <SMILES>  (55) 
COc1ccccc1[N-]C(=O)c1c(C)[nH]c(C)c1C(=O)[N-]c1c(C([NH-])=O)oc2ccccc12

>  <Energy>  (55) 
124.05953039687422

>  <Genealogy>  (55) 
COc1ccccc1[N-]C(=O)c1c(C)[nH]c(C)c1C(=O)[N-]c1c(C([NH-])=O)oc2ccccc12 (protonated)
COc1ccccc1[N-]C(=O)c1c(C)[nH]c(C)c1C(=O)[N-]c1c(C([NH-])=O)oc2ccccc12 (3D coordinates assigned)
COc1ccccc1[N-]C(=O)c1c(C)[nH]c(C)c1C(=O)[N-]c1c(C([NH-])=O)oc2ccccc12 (optimized conformer: 124.05953039687422 kcal/mol)

>  <smiles>  (55) 
COc1ccccc1NC(=O)c1c(C)[nH]c(C)c1C(=O)Nc1c(C(N)=O)oc2ccccc12

>  <score_type>  (55) 
oracle

>  <origin>  (55) 
adg

>  <m_score__min__energy>  (55) 
-13.960000000000001

>  <m_primary>  (55) 
energy

$$$$
55:0
     RDKit          3D

 61 64  0  0  0  0  0  0  0  0999 V2000
   54.7720   26.7170   45.1800 H   0  0  0  0  0  0  0  0  0  0  0  0
   55.1470   26.5370   46.1390 N   0  0  0  0  0  0  0  0  0  0  0  0
   56.8720   26.6770   46.0630 S   0  0  0  0  0  0  0  0  0  0  0  0
   57.4030   27.2900   47.3320 O   0  0  0  0  0  0  0  0  0  0  0  0
   57.4630   25.3060   45.8980 O   0  0  0  0  0  0  0  0  0  0  0  0
   57.3240   27.6450   44.7210 O   0  0  0  0  0  0  0  0  0  0  0  0
   57.5370   29.0300   44.7690 C   0  0  0  0  0  0  0  0  0  0  0  0
   58.7650   29.6000   45.1560 C   0  0  0  0  0  0  0  0  0  0  0  0
   59.6103   28.9492   45.4242 H   0  0  0  0  0  0  0  0  0  0  0  0
   58.9150   30.9890   45.2010 C   0  0  0  0  0  0  0  0  0  0  0  0
   59.8773   31.4275   45.5039 H   0  0  0  0  0  0  0  0  0  0  0  0
   57.8450   31.8220   44.8620 C   0  0  0  0  0  0  0  0  0  0  0  0
   58.0310   33.6040   44.9540 S   0  0  0  0  0  0  0  0  0  0  0  0
   58.5130   33.5470   46.6800 C   0  0  0  0  0  0  0  0  0  0  0  0
   59.5490   34.3570   47.1540 C   0  0  0  0  0  0  0  0  0  0  0  0
   60.0546   35.0576   46.4732 H   0  0  0  0  0  0  0  0  0  0  0  0
   59.9320   34.2790   48.4570 N   0  0  0  0  0  0  0  0  0  0  0  0
   59.3280   33.4420   49.3460 C   0  0  0  0  0  0  0  0  0  0  0  0
   59.7820   33.4080   50.5680 N   0  0  0  0  0  0  0  0  0  0  0  0
   59.0180   33.4340   51.7830 C   0  0  0  0  0  0  0  0  0  0  0  0
   58.1560   34.3330   51.9750 O   0  0  0  0  0  0  0  0  0  0  0  0
   59.3250   32.4650   52.8530 C   0  0  0  0  0  0  0  0  0  0  0  0
   59.9020   32.9440   54.0420 C   0  0  0  0  0  0  0  0  0  0  0  0
   60.0671   34.0238   54.1718 H   0  0  0  0  0  0  0  0  0  0  0  0
   60.2670   32.0610   55.0590 C   0  0  0  0  0  0  0  0  0  0  0  0
   60.7044   32.4476   55.9913 H   0  0  0  0  0  0  0  0  0  0  0  0
   60.0780   30.6890   54.8950 C   0  0  0  0  0  0  0  0  0  0  0  0
   60.3651   29.9956   55.6992 H   0  0  0  0  0  0  0  0  0  0  0  0
   59.5260   30.1940   53.7140 C   0  0  0  0  0  0  0  0  0  0  0  0
   59.3945   29.1094   53.5864 H   0  0  0  0  0  0  0  0  0  0  0  0
   59.1360   31.0690   52.6850 C   0  0  0  0  0  0  0  0  0  0  0  0
   58.6260   30.4910   51.4260 C   0  0  0  0  0  0  0  0  0  0  0  0
   57.3810   30.3990   51.2330 O   0  0  0  0  0  0  0  0  0  0  0  0
   59.5420   30.0300   50.4240 N   0  0  0  0  0  0  0  0  0  0  0  0
   60.5690   30.0870   50.6150 H   0  0  0  0  0  0  0  0  0  0  0  0
   59.0690   29.5760   49.1160 C   0  0  0  0  0  0  0  0  0  0  0  0
   58.6992   28.5439   49.2055 H   0  0  0  0  0  0  0  0  0  0  0  0
   58.2631   30.2462   48.7825 H   0  0  0  0  0  0  0  0  0  0  0  0
   60.1960   29.6160   48.0820 C   0  0  0  0  0  0  0  0  0  0  0  0
   60.3408   28.6082   47.6656 H   0  0  0  0  0  0  0  0  0  0  0  0
   59.9207   30.3209   47.2837 H   0  0  0  0  0  0  0  0  0  0  0  0
   61.4150   30.0550   48.6850 O   0  0  0  0  0  0  0  0  0  0  0  0
   62.0170   31.3080   48.4900 C   0  0  0  0  0  0  0  0  0  0  0  0
   62.1160   31.9200   47.2230 C   0  0  0  0  0  0  0  0  0  0  0  0
   61.7051   31.4149   46.3364 H   0  0  0  0  0  0  0  0  0  0  0  0
   62.7340   33.1650   47.0910 C   0  0  0  0  0  0  0  0  0  0  0  0
   62.8106   33.6372   46.1005 H   0  0  0  0  0  0  0  0  0  0  0  0
   63.2550   33.8120   48.2130 C   0  0  0  0  0  0  0  0  0  0  0  0
   63.7442   34.7913   48.1056 H   0  0  0  0  0  0  0  0  0  0  0  0
   63.1550   33.2160   49.4710 C   0  0  0  0  0  0  0  0  0  0  0  0
   63.5632   33.7271   50.3554 H   0  0  0  0  0  0  0  0  0  0  0  0
   62.5360   31.9690   49.6080 C   0  0  0  0  0  0  0  0  0  0  0  0
   62.4569   31.5050   50.6022 H   0  0  0  0  0  0  0  0  0  0  0  0
   58.2780   32.6120   48.8960 C   0  0  0  0  0  0  0  0  0  0  0  0
   57.7816   31.9207   49.5929 H   0  0  0  0  0  0  0  0  0  0  0  0
   57.8740   32.6740   47.5620 C   0  0  0  0  0  0  0  0  0  0  0  0
   57.0524   32.0353   47.2055 H   0  0  0  0  0  0  0  0  0  0  0  0
   56.6280   31.2610   44.4650 C   0  0  0  0  0  0  0  0  0  0  0  0
   55.7890   31.9142   44.1832 H   0  0  0  0  0  0  0  0  0  0  0  0
   56.4740   29.8730   44.4250 C   0  0  0  0  0  0  0  0  0  0  0  0
   55.5099   29.4394   44.1208 H   0  0  0  0  0  0  0  0  0  0  0  0
  1  2  1  0
  2  3  1  0
  3  4  2  0
  3  5  2  0
  3  6  1  0
  6  7  1  0
  7  8  2  0
  8  9  1  0
  8 10  1  0
 10 11  1  0
 10 12  2  0
 12 13  1  0
 13 14  1  0
 14 15  2  0
 15 16  1  0
 15 17  1  0
 17 18  1  0
 18 19  2  0
 19 20  1  0
 20 21  2  0
 20 22  1  0
 22 23  2  0
 23 24  1  0
 23 25  1  0
 25 26  1  0
 25 27  2  0
 27 28  1  0
 27 29  1  0
 29 30  1  0
 29 31  2  0
 31 32  1  0
 32 33  2  0
 32 34  1  0
 34 35  1  0
 34 36  1  0
 36 37  1  0
 36 38  1  0
 36 39  1  0
 39 40  1  0
 39 41  1  0
 39 42  1  0
 42 43  1  0
 43 44  2  0
 44 45  1  0
 44 46  1  0
 46 47  1  0
 46 48  2  0
 48 49  1  0
 48 50  1  0
 50 51  1  0
 50 52  2  0
 52 53  1  0
 18 54  1  0
 54 55  1  0
 54 56  2  0
 56 57  1  0
 12 58  1  0
 58 59  1  0
 58 60  2  0
 60 61  1  0
 60  7  1  0
 56 14  1  0
 31 22  1  0
 52 43  1  0
M  CHG  2   2  -1  17  -1
M  END
>  <UniqueID>  (56) 
53

>  <SMILES>  (56) 
[NH-]S(=O)(=O)Oc1ccc(Sc2cc/c(=N\C(=O)c3ccccc3C(=O)NCCOc3ccccc3)[n-]c2)cc1

>  <Energy>  (56) 
75.03778035538693

>  <Genealogy>  (56) 
[NH-]S(=O)(=O)Oc1ccc(Sc2ccc(=NC(=O)c3ccccc3C(=O)NCCOc3ccccc3)[n-]c2)cc1 (protonated)
[NH-]S(=O)(=O)Oc1ccc(Sc2cc/c(=N\C(=O)c3ccccc3C(=O)NCCOc3ccccc3)[n-]c2)cc1 (cis-trans isomerization)
[NH-]S(=O)(=O)Oc1ccc(Sc2cc/c(=N\C(=O)c3ccccc3C(=O)NCCOc3ccccc3)[n-]c2)cc1 (3D coordinates assigned)
[NH-]S(=O)(=O)Oc1ccc(Sc2cc/c(=N\C(=O)c3ccccc3C(=O)NCCOc3ccccc3)[n-]c2)cc1 (optimized conformer: 75.03778035538693 kcal/mol)

>  <smiles>  (56) 
NS(=O)(=O)Oc1ccc(Sc2ccc(=NC(=O)c3ccccc3C(=O)NCCOc3ccccc3)[nH]c2)cc1

>  <score_type>  (56) 
oracle

>  <origin>  (56) 
adg

>  <m_score__min__energy>  (56) 
-14.26

>  <m_primary>  (56) 
energy

$$$$
56:0
     RDKit          3D

 64 66  0  0  0  0  0  0  0  0999 V2000
   57.6440   32.6230   40.7520 C   0  0  0  0  0  0  0  0  0  0  0  0
   57.3800   31.9190   42.0440 C   0  0  0  0  0  0  0  0  0  0  0  0
   56.7630   30.8200   42.0370 O   0  0  0  0  0  0  0  0  0  0  0  0
   57.7890   32.5180   43.2810 N   0  0  0  0  0  0  0  0  0  0  0  0
   57.4290   31.9730   44.5960 C   0  0  2  0  0  0  0  0  0  0  0  0
   58.1250   32.7690   45.7010 C   0  0  0  0  0  0  0  0  0  0  0  0
   57.7940   30.5020   44.6800 C   0  0  0  0  0  0  0  0  0  0  0  0
   59.1310   30.0780   44.5790 C   0  0  0  0  0  0  0  0  0  0  0  0
   59.4530   28.7190   44.6480 C   0  0  0  0  0  0  0  0  0  0  0  0
   58.4440   27.7580   44.8270 C   0  0  0  0  0  0  0  0  0  0  0  0
   58.7150   26.3830   44.8820 O   0  0  0  0  0  0  0  0  0  0  0  0
   58.2370   25.5050   45.8990 C   0  0  0  0  0  0  0  0  0  0  0  0
   58.2730   26.2350   47.2410 C   0  0  0  0  0  0  0  0  0  0  0  0
   59.6870   26.7060   47.6650 C   0  0  0  0  0  0  0  0  0  0  0  0
   59.8400   28.1510   47.9590 N   0  0  0  0  0  0  0  0  0  0  0  0
   60.6050   28.4590   49.1750 C   0  0  0  0  0  0  0  0  0  0  0  0
   61.0270   29.9310   49.1590 C   0  0  0  0  0  0  0  0  0  0  0  0
   59.8910   30.8140   48.8410 N   0  0  0  0  0  0  0  0  0  0  0  0
   59.9460   32.2060   49.2200 C   0  0  0  0  0  0  0  0  0  0  0  0
   58.8890   32.8900   49.2640 O   0  0  0  0  0  0  0  0  0  0  0  0
   61.2230   32.8520   49.5820 C   0  0  0  0  0  0  0  0  0  0  0  0
   61.5170   33.0300   50.9410 C   0  0  0  0  0  0  0  0  0  0  0  0
   62.7330   33.5880   51.3360 C   0  0  0  0  0  0  0  0  0  0  0  0
   63.6650   33.9800   50.3770 C   0  0  0  0  0  0  0  0  0  0  0  0
   63.3820   33.8230   49.0180 C   0  0  0  0  0  0  0  0  0  0  0  0
   62.1540   33.2710   48.5970 C   0  0  0  0  0  0  0  0  0  0  0  0
   61.8580   33.1180   47.1180 C   0  0  0  0  0  0  0  0  0  0  0  0
   62.9210   33.5970   46.3760 F   0  0  0  0  0  0  0  0  0  0  0  0
   61.6570   31.7820   46.8120 F   0  0  0  0  0  0  0  0  0  0  0  0
   60.7200   33.8150   46.7500 F   0  0  0  0  0  0  0  0  0  0  0  0
   58.9440   30.4140   47.7880 C   0  0  0  0  0  0  0  0  0  0  0  0
   58.5950   28.9310   47.9070 C   0  0  0  0  0  0  0  0  0  0  0  0
   57.1180   28.1810   44.9510 C   0  0  0  0  0  0  0  0  0  0  0  0
   56.7920   29.5390   44.8780 C   0  0  0  0  0  0  0  0  0  0  0  0
   58.0235   33.6350   40.9567 H   0  0  0  0  0  0  0  0  0  0  0  0
   58.3924   32.0607   40.1743 H   0  0  0  0  0  0  0  0  0  0  0  0
   56.7104   32.6914   40.1743 H   0  0  0  0  0  0  0  0  0  0  0  0
   58.2240   33.4670   43.2330 H   0  0  0  0  0  0  0  0  0  0  0  0
   56.3411   32.0625   44.7322 H   0  0  0  0  0  0  0  0  0  0  0  0
   57.7986   32.3958   46.6829 H   0  0  0  0  0  0  0  0  0  0  0  0
   59.2146   32.6507   45.6074 H   0  0  0  0  0  0  0  0  0  0  0  0
   57.8623   33.8331   45.6074 H   0  0  0  0  0  0  0  0  0  0  0  0
   59.9303   30.8217   44.4446 H   0  0  0  0  0  0  0  0  0  0  0  0
   60.5024   28.4006   44.5616 H   0  0  0  0  0  0  0  0  0  0  0  0
   57.2042   25.2031   45.6706 H   0  0  0  0  0  0  0  0  0  0  0  0
   58.8723   24.6082   45.9457 H   0  0  0  0  0  0  0  0  0  0  0  0
   57.6206   27.1180   47.1720 H   0  0  0  0  0  0  0  0  0  0  0  0
   57.9352   25.5170   48.0028 H   0  0  0  0  0  0  0  0  0  0  0  0
   59.9677   26.1486   48.5708 H   0  0  0  0  0  0  0  0  0  0  0  0
   60.3318   26.5151   46.7945 H   0  0  0  0  0  0  0  0  0  0  0  0
   59.9793   28.2674   50.0592 H   0  0  0  0  0  0  0  0  0  0  0  0
   61.5016   27.8229   49.2127 H   0  0  0  0  0  0  0  0  0  0  0  0
   61.4230   30.2003   50.1493 H   0  0  0  0  0  0  0  0  0  0  0  0
   61.7946   30.0620   48.3820 H   0  0  0  0  0  0  0  0  0  0  0  0
   60.7829   32.7272   51.7022 H   0  0  0  0  0  0  0  0  0  0  0  0
   62.9563   33.7187   52.4051 H   0  0  0  0  0  0  0  0  0  0  0  0
   64.6258   34.4141   50.6908 H   0  0  0  0  0  0  0  0  0  0  0  0
   64.1247   34.1331   48.2682 H   0  0  0  0  0  0  0  0  0  0  0  0
   58.0244   31.0098   47.8847 H   0  0  0  0  0  0  0  0  0  0  0  0
   59.4120   30.5886   46.8080 H   0  0  0  0  0  0  0  0  0  0  0  0
   58.0142   28.7610   48.8256 H   0  0  0  0  0  0  0  0  0  0  0  0
   57.9957   28.6186   47.0391 H   0  0  0  0  0  0  0  0  0  0  0  0
   56.3222   27.4380   45.1077 H   0  0  0  0  0  0  0  0  0  0  0  0
   55.7429   29.8548   44.9764 H   0  0  0  0  0  0  0  0  0  0  0  0
  1  2  1  0
  2  3  2  0
  2  4  1  0
  4  5  1  0
  5  6  1  0
  5  7  1  0
  7  8  2  0
  8  9  1  0
  9 10  2  0
 10 11  1  0
 11 12  1  0
 12 13  1  0
 13 14  1  0
 14 15  1  0
 15 16  1  0
 16 17  1  0
 17 18  1  0
 18 19  1  0
 19 20  2  0
 19 21  1  0
 21 22  2  0
 22 23  1  0
 23 24  2  0
 24 25  1  0
 25 26  2  0
 26 27  1  0
 27 28  1  0
 27 29  1  0
 27 30  1  0
 18 31  1  0
 31 32  1  0
 10 33  1  0
 33 34  2  0
 34  7  1  0
 32 15  1  0
 26 21  1  0
  1 35  1  0
  1 36  1  0
  1 37  1  0
  4 38  1  0
  5 39  1  1
  6 40  1  0
  6 41  1  0
  6 42  1  0
  8 43  1  0
  9 44  1  0
 12 45  1  0
 12 46  1  0
 13 47  1  0
 13 48  1  0
 14 49  1  0
 14 50  1  0
 16 51  1  0
 16 52  1  0
 17 53  1  0
 17 54  1  0
 22 55  1  0
 23 56  1  0
 24 57  1  0
 25 58  1  0
 31 59  1  0
 31 60  1  0
 32 61  1  0
 32 62  1  0
 33 63  1  0
 34 64  1  0
M  END
>  <UniqueID>  (57) 
54

>  <SMILES>  (57) 
CC(=O)N[C@H](C)c1ccc(OCCCN2CCN(C(=O)c3ccccc3C(F)(F)F)CC2)cc1

>  <Energy>  (57) 
75.38704611787534

>  <Genealogy>  (57) 
CC(=O)N[C@H](C)c1ccc(OCCCN2CCN(C(=O)c3ccccc3C(F)(F)F)CC2)cc1 (chirality)
CC(=O)N[C@H](C)c1ccc(OCCCN2CCN(C(=O)c3ccccc3C(F)(F)F)CC2)cc1 (3D coordinates assigned)
CC(=O)N[C@H](C)c1ccc(OCCCN2CCN(C(=O)c3ccccc3C(F)(F)F)CC2)cc1 (nonaromatic ring conformer: 75.38704611787534 kcal/mol)

>  <smiles>  (57) 
CC(=O)NC(C)c1ccc(OCCCN2CCN(C(=O)c3ccccc3C(F)(F)F)CC2)cc1

>  <score_type>  (57) 
oracle

>  <origin>  (57) 
adg

>  <m_score__min__energy>  (57) 
-8.8200000000000003

>  <m_primary>  (57) 
energy

$$$$
57:0
     RDKit          3D

 40 42  0  0  0  0  0  0  0  0999 V2000
   55.1450   29.3420   45.0700 O   0  0  0  0  0  0  0  0  0  0  0  0
   56.3290   29.5700   44.7070 C   0  0  0  0  0  0  0  0  0  0  0  0
   57.3410   28.4570   44.7810 C   0  0  0  0  0  0  0  0  0  0  0  0
   57.5760   27.8710   46.4960 S   0  0  0  0  0  0  0  0  0  0  0  0
   56.5230   26.4340   46.3080 C   0  0  0  0  0  0  0  0  0  0  0  0
   56.9480   25.1700   46.4860 N   0  0  0  0  0  0  0  0  0  0  0  0
   55.8260   24.4670   46.2430 C   0  0  0  0  0  0  0  0  0  0  0  0
   54.7810   25.2600   45.9380 N   0  0  0  0  0  0  0  0  0  0  0  0
   55.2220   26.5050   45.9790 N   0  0  0  0  0  0  0  0  0  0  0  0
   56.6810   30.9010   44.3030 N   0  0  0  0  0  0  0  0  0  0  0  0
   57.4410   31.8440   45.0670 C   0  0  0  0  0  0  0  0  0  0  0  0
   57.1650   33.2100   44.9330 C   0  0  0  0  0  0  0  0  0  0  0  0
   57.8990   34.1520   45.6580 C   0  0  0  0  0  0  0  0  0  0  0  0
   58.9260   33.7350   46.5100 C   0  0  0  0  0  0  0  0  0  0  0  0
   59.2300   32.3730   46.6310 C   0  0  0  0  0  0  0  0  0  0  0  0
   60.5570   31.8630   47.6710 S   0  0  0  0  0  0  0  0  0  0  0  0
   59.9760   31.1450   48.8570 O   0  0  0  0  0  0  0  0  0  0  0  0
   61.4450   30.9060   46.9260 O   0  0  0  0  0  0  0  0  0  0  0  0
   61.4570   33.2650   48.2140 N   0  0  0  0  0  0  0  0  0  0  0  0
   62.3060   33.8380   47.1540 C   0  0  0  0  0  0  0  0  0  0  0  0
   63.6430   33.0960   47.0120 C   0  0  0  0  0  0  0  0  0  0  0  0
   64.3220   33.0430   48.2490 O   0  0  0  0  0  0  0  0  0  0  0  0
   63.5550   32.3060   49.1760 C   0  0  0  0  0  0  0  0  0  0  0  0
   62.2120   32.9990   49.4520 C   0  0  0  0  0  0  0  0  0  0  0  0
   58.4970   31.4300   45.8940 C   0  0  0  0  0  0  0  0  0  0  0  0
   56.9932   27.6171   44.1617 H   0  0  0  0  0  0  0  0  0  0  0  0
   58.3037   28.8437   44.4155 H   0  0  0  0  0  0  0  0  0  0  0  0
   55.7691   23.3694   46.2884 H   0  0  0  0  0  0  0  0  0  0  0  0
   56.3665   33.5431   44.2537 H   0  0  0  0  0  0  0  0  0  0  0  0
   57.6686   35.2230   45.5584 H   0  0  0  0  0  0  0  0  0  0  0  0
   59.4965   34.4780   47.0865 H   0  0  0  0  0  0  0  0  0  0  0  0
   61.7656   33.7791   46.1977 H   0  0  0  0  0  0  0  0  0  0  0  0
   62.5274   34.8802   47.4273 H   0  0  0  0  0  0  0  0  0  0  0  0
   63.4510   32.0710   46.6620 H   0  0  0  0  0  0  0  0  0  0  0  0
   64.2708   33.6369   46.2886 H   0  0  0  0  0  0  0  0  0  0  0  0
   63.3649   31.3021   48.7684 H   0  0  0  0  0  0  0  0  0  0  0  0
   64.1155   32.2383   50.1201 H   0  0  0  0  0  0  0  0  0  0  0  0
   61.6068   32.3516   50.1037 H   0  0  0  0  0  0  0  0  0  0  0  0
   62.4236   33.9657   49.9324 H   0  0  0  0  0  0  0  0  0  0  0  0
   58.7511   30.3621   45.9647 H   0  0  0  0  0  0  0  0  0  0  0  0
  1  2  2  0
  2  3  1  0
  3  4  1  0
  4  5  1  0
  5  6  1  0
  6  7  2  0
  7  8  1  0
  8  9  1  0
  2 10  1  0
 10 11  1  0
 11 12  2  0
 12 13  1  0
 13 14  2  0
 14 15  1  0
 15 16  1  0
 16 17  2  0
 16 18  2  0
 16 19  1  0
 19 20  1  0
 20 21  1  0
 21 22  1  0
 22 23  1  0
 23 24  1  0
 15 25  2  0
  9  5  2  0
 25 11  1  0
 24 19  1  0
  3 26  1  0
  3 27  1  0
  7 28  1  0
 12 29  1  0
 13 30  1  0
 14 31  1  0
 20 32  1  0
 20 33  1  0
 21 34  1  0
 21 35  1  0
 23 36  1  0
 23 37  1  0
 24 38  1  0
 24 39  1  0
 25 40  1  0
M  CHG  2   8  -1  10  -1
M  END
>  <UniqueID>  (58) 
55

>  <SMILES>  (58) 
O=C(CSc1nc[n-]n1)[N-]c1cccc(S(=O)(=O)N2CCOCC2)c1

>  <Energy>  (58) 
78.47498719849571

>  <Genealogy>  (58) 
O=C(CSc1nc[n-]n1)[N-]c1cccc(S(=O)(=O)N2CCOCC2)c1 (protonated)
O=C(CSc1nc[n-]n1)[N-]c1cccc(S(=O)(=O)N2CCOCC2)c1 (3D coordinates assigned)
O=C(CSc1nc[n-]n1)[N-]c1cccc(S(=O)(=O)N2CCOCC2)c1 (nonaromatic ring conformer: 78.47498719849571 kcal/mol)

>  <smiles>  (58) 
O=C(CSc1nc[nH]n1)Nc1cccc(S(=O)(=O)N2CCOCC2)c1

>  <score_type>  (58) 
oracle

>  <origin>  (58) 
adg

>  <m_score__min__energy>  (58) 
-12.24

>  <m_primary>  (58) 
energy

$$$$
58:0
     RDKit          3D

 32 33  0  0  0  0  0  0  0  0999 V2000
   57.3380   33.5790   44.9830 O   0  0  0  0  0  0  0  0  0  0  0  0
   58.5130   33.3610   45.3840 C   0  0  0  0  0  0  0  0  0  0  0  0
   59.4470   34.5170   45.5700 C   0  0  0  0  0  0  0  0  0  0  0  0
   60.4120   34.2270   46.6870 C   0  0  0  0  0  0  0  0  0  0  0  0
   60.0180   34.3900   48.0260 C   0  0  0  0  0  0  0  0  0  0  0  0
   60.9280   34.1500   49.0610 C   0  0  0  0  0  0  0  0  0  0  0  0
   62.2360   33.7570   48.7680 C   0  0  0  0  0  0  0  0  0  0  0  0
   62.6390   33.6040   47.4380 C   0  0  0  0  0  0  0  0  0  0  0  0
   61.7320   33.8420   46.3990 C   0  0  0  0  0  0  0  0  0  0  0  0
   58.9450   32.0290   45.7070 N   0  0  0  0  0  0  0  0  0  0  0  0
   58.1150   30.8640   45.5970 C   0  0  0  0  0  0  0  0  0  0  0  0
   56.9360   30.9590   45.1590 O   0  0  0  0  0  0  0  0  0  0  0  0
   58.6510   29.5790   45.9510 N   0  0  0  0  0  0  0  0  0  0  0  0
   57.8580   28.3860   46.0840 C   0  0  0  0  0  0  0  0  0  0  0  0
   56.6130   28.2540   45.4500 C   0  0  0  0  0  0  0  0  0  0  0  0
   55.8750   27.1250   45.6180 N   0  0  0  0  0  0  0  0  0  0  0  0
   56.3200   26.1130   46.4100 C   0  0  0  0  0  0  0  0  0  0  0  0
   55.6280   25.0730   46.5570 O   0  0  0  0  0  0  0  0  0  0  0  0
   57.5120   26.2250   47.0490 N   0  0  0  0  0  0  0  0  0  0  0  0
   58.2840   27.3340   46.9100 C   0  0  0  0  0  0  0  0  0  0  0  0
   59.3830   27.4030   47.5200 O   0  0  0  0  0  0  0  0  0  0  0  0
   60.0080   34.6850   44.6389 H   0  0  0  0  0  0  0  0  0  0  0  0
   58.8633   35.4146   45.8222 H   0  0  0  0  0  0  0  0  0  0  0  0
   58.9913   34.7072   48.2609 H   0  0  0  0  0  0  0  0  0  0  0  0
   60.6128   34.2710   50.1079 H   0  0  0  0  0  0  0  0  0  0  0  0
   62.9491   33.5678   49.5839 H   0  0  0  0  0  0  0  0  0  0  0  0
   63.6697   33.2963   47.2080 H   0  0  0  0  0  0  0  0  0  0  0  0
   62.0538   33.7272   45.3534 H   0  0  0  0  0  0  0  0  0  0  0  0
   59.9220   31.9020   46.0560 H   0  0  0  0  0  0  0  0  0  0  0  0
   59.6880   29.4990   46.0490 H   0  0  0  0  0  0  0  0  0  0  0  0
   56.2329   29.0675   44.8146 H   0  0  0  0  0  0  0  0  0  0  0  0
   54.9510   27.0430   45.1360 H   0  0  0  0  0  0  0  0  0  0  0  0
  1  2  2  0
  2  3  1  0
  3  4  1  0
  4  5  2  0
  5  6  1  0
  6  7  2  0
  7  8  1  0
  8  9  2  0
  2 10  1  0
 10 11  1  0
 11 12  2  0
 11 13  1  0
 13 14  1  0
 14 15  2  0
 15 16  1  0
 16 17  1  0
 17 18  2  0
 17 19  1  0
 19 20  1  0
 20 21  2  0
  9  4  1  0
 20 14  1  0
  3 22  1  0
  3 23  1  0
  5 24  1  0
  6 25  1  0
  7 26  1  0
  8 27  1  0
  9 28  1  0
 10 29  1  0
 13 30  1  0
 15 31  1  0
 16 32  1  0
M  CHG  1  19  -1
M  END
>  <UniqueID>  (59) 
56

>  <SMILES>  (59) 
O=C(Cc1ccccc1)NC(=O)Nc1c[nH]c(=O)[n-]c1=O

>  <Energy>  (59) 
34.91592778589601

>  <Genealogy>  (59) 
O=C(Cc1ccccc1)NC(=O)Nc1c[nH]c(=O)[n-]c1=O (protonated)
O=C(Cc1ccccc1)NC(=O)Nc1c[nH]c(=O)[n-]c1=O (3D coordinates assigned)
O=C(Cc1ccccc1)NC(=O)Nc1c[nH]c(=O)[n-]c1=O (optimized conformer: 34.91592778589601 kcal/mol)

>  <smiles>  (59) 
O=C(Cc1ccccc1)NC(=O)Nc1c[nH]c(=O)[nH]c1=O

>  <score_type>  (59) 
oracle

>  <origin>  (59) 
adg

>  <m_score__min__energy>  (59) 
-9.3599999999999994

>  <m_primary>  (59) 
energy

$$$$
59:0
     RDKit          3D

 42 44  0  0  0  0  0  0  0  0999 V2000
   57.8130   31.8310   42.4200 O   0  0  0  0  0  0  0  0  0  0  0  0
   57.5510   31.1140   43.4240 C   0  0  0  0  0  0  0  0  0  0  0  0
   56.7520   29.8570   43.1960 C   0  0  0  0  0  0  0  0  0  0  0  0
   55.9010   29.3280   44.7260 S   0  0  0  0  0  0  0  0  0  0  0  0
   56.9700   27.9160   45.0430 C   0  0  0  0  0  0  0  0  0  0  0  0
   58.3190   27.9770   44.6760 C   0  0  0  0  0  0  0  0  0  0  0  0
   59.1550   26.8960   44.9570 C   0  0  0  0  0  0  0  0  0  0  0  0
   58.6370   25.7640   45.5840 C   0  0  0  0  0  0  0  0  0  0  0  0
   57.2810   25.7260   45.9170 C   0  0  0  0  0  0  0  0  0  0  0  0
   56.4740   26.7880   45.6380 N   0  0  0  0  0  0  0  0  0  0  0  0
   55.1410   26.7160   45.9700 O   0  0  0  0  0  0  0  0  0  0  0  0
   57.9680   31.5820   44.7750 C   0  0  0  0  0  0  0  0  0  0  0  0
   58.5750   30.6740   45.6610 C   0  0  0  0  0  0  0  0  0  0  0  0
   59.0140   31.0900   46.9190 C   0  0  0  0  0  0  0  0  0  0  0  0
   58.8420   32.4140   47.3300 C   0  0  0  0  0  0  0  0  0  0  0  0
   59.2550   32.7730   48.6570 N   0  0  0  0  0  0  0  0  0  0  0  0
   60.1560   33.8350   48.9970 C   0  0  0  0  0  0  0  0  0  0  0  0
   59.7120   35.0130   49.0360 O   0  0  0  0  0  0  0  0  0  0  0  0
   61.5870   33.5920   49.2920 C   0  0  0  0  0  0  0  0  0  0  0  0
   62.1200   33.8570   50.5670 C   0  0  0  0  0  0  0  0  0  0  0  0
   63.4730   33.6280   50.8290 C   0  0  0  0  0  0  0  0  0  0  0  0
   64.3060   33.1210   49.8280 C   0  0  0  0  0  0  0  0  0  0  0  0
   66.1560   32.8090   50.1890 Br  0  0  0  0  0  0  0  0  0  0  0  0
   63.7830   32.8360   48.5640 C   0  0  0  0  0  0  0  0  0  0  0  0
   62.4290   33.0640   48.2980 C   0  0  0  0  0  0  0  0  0  0  0  0
   58.2720   33.3470   46.4370 C   0  0  0  0  0  0  0  0  0  0  0  0
   58.1850   34.7070   46.7400 O   0  0  0  0  0  0  0  0  0  0  0  0
   57.8100   32.9190   45.1880 C   0  0  0  0  0  0  0  0  0  0  0  0
   56.0011   30.0459   42.4147 H   0  0  0  0  0  0  0  0  0  0  0  0
   57.4411   29.0575   42.8863 H   0  0  0  0  0  0  0  0  0  0  0  0
   58.7167   28.8693   44.1705 H   0  0  0  0  0  0  0  0  0  0  0  0
   60.2199   26.9369   44.6845 H   0  0  0  0  0  0  0  0  0  0  0  0
   59.2896   24.9090   45.8143 H   0  0  0  0  0  0  0  0  0  0  0  0
   56.8625   24.8344   46.4069 H   0  0  0  0  0  0  0  0  0  0  0  0
   58.7053   29.6243   45.3592 H   0  0  0  0  0  0  0  0  0  0  0  0
   59.4997   30.3688   47.5928 H   0  0  0  0  0  0  0  0  0  0  0  0
   61.4675   34.2468   51.3622 H   0  0  0  0  0  0  0  0  0  0  0  0
   63.8836   33.8473   51.8256 H   0  0  0  0  0  0  0  0  0  0  0  0
   64.4370   32.4318   47.7772 H   0  0  0  0  0  0  0  0  0  0  0  0
   62.0203   32.8286   47.3043 H   0  0  0  0  0  0  0  0  0  0  0  0
   58.5650   35.1070   47.5870 H   0  0  0  0  0  0  0  0  0  0  0  0
   57.3156   33.6379   44.5181 H   0  0  0  0  0  0  0  0  0  0  0  0
  1  2  2  0
  2  3  1  0
  3  4  1  0
  4  5  1  0
  5  6  2  0
  6  7  1  0
  7  8  2  0
  8  9  1  0
  9 10  2  0
 10 11  1  0
  2 12  1  0
 12 13  2  0
 13 14  1  0
 14 15  2  0
 15 16  1  0
 16 17  1  0
 17 18  2  0
 17 19  1  0
 19 20  2  0
 20 21  1  0
 21 22  2  0
 22 23  1  0
 22 24  1  0
 24 25  2  0
 15 26  1  0
 26 27  1  0
 26 28  2  0
 10  5  1  0
 28 12  1  0
 25 19  1  0
  3 29  1  0
  3 30  1  0
  6 31  1  0
  7 32  1  0
  8 33  1  0
  9 34  1  0
 13 35  1  0
 14 36  1  0
 20 37  1  0
 21 38  1  0
 24 39  1  0
 25 40  1  0
 27 41  1  0
 28 42  1  0
M  CHG  3  10   1  11  -1  16  -1
M  END
>  <UniqueID>  (60) 
57

>  <SMILES>  (60) 
O=C(CSc1cccc[n+]1[O-])c1ccc([N-]C(=O)c2ccc(Br)cc2)c(O)c1

>  <Energy>  (60) 
51.65234567152341

>  <Genealogy>  (60) 
O=C(CSc1cccc[n+]1[O-])c1ccc([N-]C(=O)c2ccc(Br)cc2)c(O)c1 (protonated)
O=C(CSc1cccc[n+]1[O-])c1ccc([N-]C(=O)c2ccc(Br)cc2)c(O)c1 (3D coordinates assigned)
O=C(CSc1cccc[n+]1[O-])c1ccc([N-]C(=O)c2ccc(Br)cc2)c(O)c1 (optimized conformer: 51.65234567152341 kcal/mol)

>  <smiles>  (60) 
O=C(CSc1cccc[n+]1[O-])c1ccc(NC(=O)c2ccc(Br)cc2)c(O)c1

>  <score_type>  (60) 
oracle

>  <origin>  (60) 
adg

>  <m_score__min__energy>  (60) 
-10.91

>  <m_primary>  (60) 
energy

$$$$
60:0
     RDKit          3D

 55 59  0  0  1  0  0  0  0  0999 V2000
   55.2760   29.7140   43.3810 C   0  0  0  0  0  0  0  0  0  0  0  0
   56.4680   29.5060   44.2500 C   0  0  0  0  0  0  0  0  0  0  0  0
   57.0220   30.4510   45.0670 N   0  0  0  0  0  0  0  0  0  0  0  0
   58.0860   29.9020   45.6950 C   0  0  0  0  0  0  0  0  0  0  0  0
   58.9690   30.4380   46.6070 C   0  0  0  0  0  0  0  0  0  0  0  0
   59.9950   29.6610   47.1100 C   0  0  0  0  0  0  0  0  0  0  0  0
   60.9160   30.2360   48.0820 C   0  0  0  0  0  0  0  0  0  0  0  0
   60.8330   30.0590   49.4350 C   0  0  0  0  0  0  0  0  0  0  0  0
   61.9200   30.7760   49.9410 C   0  0  0  0  0  0  0  0  0  0  0  0
   62.1720   30.8480   51.1590 N   0  0  0  0  0  0  0  0  0  0  0  0
   61.5430   31.4470   52.2380 C   0  0  0  0  0  0  0  0  0  0  0  0
   62.1370   31.9120   53.2760 O   0  0  0  0  0  0  0  0  0  0  0  0
   60.0610   31.5200   52.1450 C   0  0  0  0  0  0  0  0  0  0  0  0
   59.4360   30.2930   52.4060 C   0  0  0  0  0  0  0  0  0  0  0  0
   58.0740   30.1280   52.3680 C   0  0  0  0  0  0  0  0  0  0  0  0
   57.3000   31.2230   52.0590 C   0  0  0  0  0  0  0  0  0  0  0  0
   55.8750   31.0660   52.0130 C   0  0  0  0  0  0  0  0  0  0  0  0
   54.7340   30.9360   51.9790 N   0  0  0  0  0  0  0  0  0  0  0  0
   57.9050   32.4260   51.8030 C   0  0  0  0  0  0  0  0  0  0  0  0
   59.2980   32.5750   51.8470 C   0  0  0  0  0  0  0  0  0  0  0  0
   62.6190   31.3520   48.9640 N   0  0  0  0  0  0  0  0  0  0  0  0
   63.7620   32.1640   48.9910 C   0  0  0  0  0  0  0  0  0  0  0  0
   64.9110   31.9550   49.3640 O   0  0  0  0  0  0  0  0  0  0  0  0
   63.6130   33.5950   48.4730 C   0  0  0  0  0  0  0  0  0  0  0  0
   62.2140   33.8430   48.1080 C   0  0  0  0  0  0  0  0  0  0  0  0
   61.1960   34.0980   48.9970 C   0  0  0  0  0  0  0  0  0  0  0  0
   59.9400   34.2970   48.5040 C   0  0  0  0  0  0  0  0  0  0  0  0
   59.6130   34.2600   47.1610 C   0  0  0  0  0  0  0  0  0  0  0  0
   58.3300   34.4670   46.7200 F   0  0  0  0  0  0  0  0  0  0  0  0
   60.6330   34.0050   46.2710 C   0  0  0  0  0  0  0  0  0  0  0  0
   61.9050   33.8010   46.7440 C   0  0  0  0  0  0  0  0  0  0  0  0
   61.9840   31.0050   47.8420 N   0  0  0  0  0  0  0  0  0  0  0  0
   60.1140   28.3410   46.6790 C   0  0  0  0  0  0  0  0  0  0  0  0
   59.2150   27.8320   45.7650 C   0  0  0  0  0  0  0  0  0  0  0  0
   58.1860   28.5820   45.2510 C   0  0  0  0  0  0  0  0  0  0  0  0
   57.1830   28.3740   44.3700 N   0  0  0  0  0  0  0  0  0  0  0  0
   54.3867   29.8692   44.0095 H   0  0  0  0  0  0  0  0  0  0  0  0
   55.4350   30.5980   42.7459 H   0  0  0  0  0  0  0  0  0  0  0  0
   55.1262   28.8284   42.7459 H   0  0  0  0  0  0  0  0  0  0  0  0
   58.8574   31.4823   46.9340 H   0  0  0  0  0  0  0  0  0  0  0  0
   60.0822   29.4838   49.9967 H   0  0  0  0  0  0  0  0  0  0  0  0
   60.0644   29.4244   52.6520 H   0  0  0  0  0  0  0  0  0  0  0  0
   57.6153   29.1505   52.5781 H   0  0  0  0  0  0  0  0  0  0  0  0
   57.2808   33.2976   51.5565 H   0  0  0  0  0  0  0  0  0  0  0  0
   59.7586   33.5518   51.6380 H   0  0  0  0  0  0  0  0  0  0  0  0
   63.9173   34.3023   49.2586 H   0  0  0  0  0  0  0  0  0  0  0  0
   64.2512   33.7313   47.5875 H   0  0  0  0  0  0  0  0  0  0  0  0
   61.3900   34.1404   50.0789 H   0  0  0  0  0  0  0  0  0  0  0  0
   59.1329   34.5006   49.2231 H   0  0  0  0  0  0  0  0  0  0  0  0
   60.4297   33.9652   45.1907 H   0  0  0  0  0  0  0  0  0  0  0  0
   62.7114   33.5969   46.0242 H   0  0  0  0  0  0  0  0  0  0  0  0
   62.2270   31.2680   46.8550 H   0  0  0  0  0  0  0  0  0  0  0  0
   60.9238   27.7058   47.0672 H   0  0  0  0  0  0  0  0  0  0  0  0
   59.3263   26.7882   45.4362 H   0  0  0  0  0  0  0  0  0  0  0  0
   57.0000   27.4610   43.8660 H   0  0  0  0  0  0  0  0  0  0  0  0
  1  2  1  0
  2  3  2  0
  3  4  1  0
  4  5  2  0
  5  6  1  0
  6  7  1  0
  7  8  2  0
  8  9  1  0
  9 10  2  0
 10 11  1  0
 11 12  2  0
 11 13  1  0
 13 14  2  0
 14 15  1  0
 15 16  2  0
 16 17  1  0
 17 18  3  0
 16 19  1  0
 19 20  2  0
  9 21  1  0
 21 22  1  0
 22 23  2  0
 22 24  1  0
 24 25  1  0
 25 26  2  0
 26 27  1  0
 27 28  2  0
 28 29  1  0
 28 30  1  0
 30 31  2  0
 21 32  1  0
  6 33  2  0
 33 34  1  0
 34 35  2  0
 35 36  1  0
 36  2  1  0
 35  4  1  0
 32  7  1  0
 20 13  1  0
 31 25  1  0
  1 37  1  0
  1 38  1  0
  1 39  1  0
  5 40  1  0
  8 41  1  0
 14 42  1  0
 15 43  1  0
 19 44  1  0
 20 45  1  0
 24 46  1  0
 24 47  1  0
 26 48  1  0
 27 49  1  0
 30 50  1  0
 31 51  1  0
 32 52  1  0
 33 53  1  0
 34 54  1  0
 36 55  1  0
M  END
>  <smiles>  (61) 
Cc1nc2cc(-c3cc(=NC(=O)c4ccc(C#N)cc4)n(C(=O)Cc4ccc(F)cc4)[nH]3)ccc2[nH]1

>  <score_type>  (61) 
oracle

>  <origin>  (61) 
adg

>  <m_score__min__energy>  (61) 
-10.56

>  <m_primary>  (61) 
energy

$$$$
61:0
     RDKit          3D

 41 44  0  0  0  0  0  0  0  0999 V2000
   58.3630   21.9300   44.9160 C   0  0  0  0  0  0  0  0  0  0  0  0
   57.2820   22.1440   46.3110 S   0  0  0  0  0  0  0  0  0  0  0  0
   57.4000   20.9470   47.2120 O   0  0  0  0  0  0  0  0  0  0  0  0
   55.8680   22.2800   45.8200 O   0  0  0  0  0  0  0  0  0  0  0  0
   57.7490   23.5760   47.1690 N   0  0  0  0  0  0  0  0  0  0  0  0
   57.7790   24.9010   46.6210 C   0  0  0  0  0  0  0  0  0  0  0  0
   58.9860   25.5860   46.4030 C   0  0  0  0  0  0  0  0  0  0  0  0
   58.9870   26.8810   45.8650 C   0  0  0  0  0  0  0  0  0  0  0  0
   60.2030   27.5340   45.6220 C   0  0  0  0  0  0  0  0  0  0  0  0
   60.2190   28.8100   45.0660 C   0  0  0  0  0  0  0  0  0  0  0  0
   59.0230   29.4610   44.7680 C   0  0  0  0  0  0  0  0  0  0  0  0
   57.7850   28.8470   45.0240 C   0  0  0  0  0  0  0  0  0  0  0  0
   56.5590   29.6330   44.7500 C   0  0  0  0  0  0  0  0  0  0  0  0
   55.4250   29.0990   44.8920 O   0  0  0  0  0  0  0  0  0  0  0  0
   56.6790   31.0180   44.3870 N   0  0  0  0  0  0  0  0  0  0  0  0
   57.3830   31.9200   45.0060 C   0  0  0  0  0  0  0  0  0  0  0  0
   57.7610   31.8150   46.3100 N   0  0  0  0  0  0  0  0  0  0  0  0
   58.4480   32.9500   46.4990 C   0  0  0  0  0  0  0  0  0  0  0  0
   59.0750   33.3830   47.6660 C   0  0  0  0  0  0  0  0  0  0  0  0
   59.7410   34.6230   47.6280 C   0  0  0  0  0  0  0  0  0  0  0  0
   59.7620   35.3870   46.4380 C   0  0  0  0  0  0  0  0  0  0  0  0
   59.1160   34.9170   45.2790 C   0  0  0  0  0  0  0  0  0  0  0  0
   58.4680   33.6860   45.3540 C   0  0  0  0  0  0  0  0  0  0  0  0
   57.7940   33.0530   44.3820 N   0  0  0  0  0  0  0  0  0  0  0  0
   57.7600   27.5280   45.5540 C   0  0  0  0  0  0  0  0  0  0  0  0
   56.5590   26.8140   45.7490 C   0  0  0  0  0  0  0  0  0  0  0  0
   56.5700   25.5180   46.2830 C   0  0  0  0  0  0  0  0  0  0  0  0
   55.3700   24.8320   46.4770 O   0  0  0  0  0  0  0  0  0  0  0  0
   59.3843   21.7278   45.2711 H   0  0  0  0  0  0  0  0  0  0  0  0
   58.0124   21.0838   44.3068 H   0  0  0  0  0  0  0  0  0  0  0  0
   58.3612   22.8459   44.3068 H   0  0  0  0  0  0  0  0  0  0  0  0
   59.9403   25.1015   46.6570 H   0  0  0  0  0  0  0  0  0  0  0  0
   61.1508   27.0350   45.8722 H   0  0  0  0  0  0  0  0  0  0  0  0
   61.1790   29.3064   44.8610 H   0  0  0  0  0  0  0  0  0  0  0  0
   59.0485   30.4683   44.3268 H   0  0  0  0  0  0  0  0  0  0  0  0
   59.0504   32.7776   48.5841 H   0  0  0  0  0  0  0  0  0  0  0  0
   60.2477   34.9996   48.5288 H   0  0  0  0  0  0  0  0  0  0  0  0
   60.2861   36.3539   46.4180 H   0  0  0  0  0  0  0  0  0  0  0  0
   59.1226   35.5011   44.3469 H   0  0  0  0  0  0  0  0  0  0  0  0
   55.6005   27.2808   45.4782 H   0  0  0  0  0  0  0  0  0  0  0  0
   55.3540   23.8640   46.7740 H   0  0  0  0  0  0  0  0  0  0  0  0
  1  2  1  0
  2  3  2  0
  2  4  2  0
  2  5  1  0
  5  6  1  0
  6  7  2  0
  7  8  1  0
  8  9  2  0
  9 10  1  0
 10 11  2  0
 11 12  1  0
 12 13  1  0
 13 14  2  0
 13 15  1  0
 15 16  2  3
 16 17  1  0
 17 18  1  0
 18 19  2  0
 19 20  1  0
 20 21  2  0
 21 22  1  0
 22 23  2  0
 23 24  1  0
 12 25  2  0
 25 26  1  0
 26 27  2  0
 27 28  1  0
 27  6  1  0
 25  8  1  0
 24 16  1  0
 23 18  1  0
  1 29  1  0
  1 30  1  0
  1 31  1  0
  7 32  1  0
  9 33  1  0
 10 34  1  0
 11 35  1  0
 19 36  1  0
 20 37  1  0
 21 38  1  0
 22 39  1  0
 26 40  1  0
 28 41  1  0
M  CHG  3   5  -1  17  -1  24  -1
M  END
>  <UniqueID>  (62) 
58

>  <SMILES>  (62) 
CS(=O)(=O)[N-]c1cc2cccc(C(=O)N=c3[n-]c4ccccc4[n-]3)c2cc1O

>  <Energy>  (62) 
92.03201256229852

>  <Genealogy>  (62) 
CS(=O)(=O)[N-]c1cc2cccc(C(=O)N=c3[n-]c4ccccc4[n-]3)c2cc1O (protonated)
CS(=O)(=O)[N-]c1cc2cccc(C(=O)N=c3[n-]c4ccccc4[n-]3)c2cc1O (3D coordinates assigned)
CS(=O)(=O)[N-]c1cc2cccc(C(=O)N=c3[n-]c4ccccc4[n-]3)c2cc1O (optimized conformer: 92.03201256229852 kcal/mol)

>  <smiles>  (62) 
CS(=O)(=O)Nc1cc2cccc(C(=O)N=c3[nH]c4ccccc4[nH]3)c2cc1O

>  <score_type>  (62) 
oracle

>  <origin>  (62) 
adg

>  <m_score__min__energy>  (62) 
-13.17

>  <m_primary>  (62) 
energy

$$$$
62:0
     RDKit          3D

 40 42  0  0  0  0  0  0  0  0999 V2000
   59.4980   31.7990   49.3440 O   0  0  0  0  0  0  0  0  0  0  0  0
   59.2450   30.8900   48.5080 C   0  0  0  0  0  0  0  0  0  0  0  0
   58.5400   31.2110   47.3020 N   0  0  0  0  0  0  0  0  0  0  0  0
   59.1680   31.2530   45.9860 C   0  0  0  0  0  0  0  0  0  0  0  0
   58.1490   30.9780   44.9140 C   0  0  0  0  0  0  0  0  0  0  0  0
   58.3030   31.5180   43.6260 C   0  0  0  0  0  0  0  0  0  0  0  0
   57.3630   31.2400   42.6290 C   0  0  0  0  0  0  0  0  0  0  0  0
   56.2660   30.4210   42.9090 C   0  0  0  0  0  0  0  0  0  0  0  0
   56.1070   29.8720   44.1890 C   0  0  0  0  0  0  0  0  0  0  0  0
   55.0200   29.0500   44.4780 O   0  0  0  0  0  0  0  0  0  0  0  0
   57.0480   30.1510   45.1870 C   0  0  0  0  0  0  0  0  0  0  0  0
   59.6710   29.4960   48.7740 C   0  0  0  0  0  0  0  0  0  0  0  0
   60.3330   29.1670   49.9700 C   0  0  0  0  0  0  0  0  0  0  0  0
   60.7370   27.8520   50.2170 C   0  0  0  0  0  0  0  0  0  0  0  0
   60.4840   26.8510   49.2780 C   0  0  0  0  0  0  0  0  0  0  0  0
   59.8150   27.1560   48.0830 C   0  0  0  0  0  0  0  0  0  0  0  0
   59.5730   26.0820   47.0570 C   0  0  0  0  0  0  0  0  0  0  0  0
   58.1150   26.0410   46.6740 C   0  0  0  0  0  0  0  0  0  0  0  0
   57.5430   27.1030   45.9590 C   0  0  0  0  0  0  0  0  0  0  0  0
   56.2230   27.0810   45.6430 N   0  0  0  0  0  0  0  0  0  0  0  0
   55.4330   26.0420   46.0140 C   0  0  0  0  0  0  0  0  0  0  0  0
   54.2130   26.0400   45.7100 O   0  0  0  0  0  0  0  0  0  0  0  0
   55.9590   25.0050   46.7160 N   0  0  0  0  0  0  0  0  0  0  0  0
   57.2730   24.9820   47.0560 C   0  0  0  0  0  0  0  0  0  0  0  0
   57.7240   24.0050   47.7130 O   0  0  0  0  0  0  0  0  0  0  0  0
   59.4180   28.4800   47.8330 C   0  0  0  0  0  0  0  0  0  0  0  0
   59.6057   32.2491   45.8241 H   0  0  0  0  0  0  0  0  0  0  0  0
   59.9539   30.4848   45.9391 H   0  0  0  0  0  0  0  0  0  0  0  0
   59.1662   32.1618   43.4012 H   0  0  0  0  0  0  0  0  0  0  0  0
   57.4872   31.6666   41.6227 H   0  0  0  0  0  0  0  0  0  0  0  0
   55.5260   30.2067   42.1238 H   0  0  0  0  0  0  0  0  0  0  0  0
   55.1440   28.1420   44.9080 H   0  0  0  0  0  0  0  0  0  0  0  0
   56.9240   29.7196   46.1913 H   0  0  0  0  0  0  0  0  0  0  0  0
   60.5343   29.9497   50.7162 H   0  0  0  0  0  0  0  0  0  0  0  0
   61.2562   27.6052   51.1548 H   0  0  0  0  0  0  0  0  0  0  0  0
   60.8103   25.8192   49.4755 H   0  0  0  0  0  0  0  0  0  0  0  0
   60.1772   26.2926   46.1622 H   0  0  0  0  0  0  0  0  0  0  0  0
   59.8575   25.1092   47.4843 H   0  0  0  0  0  0  0  0  0  0  0  0
   58.1658   27.9566   45.6532 H   0  0  0  0  0  0  0  0  0  0  0  0
   58.9040   28.7255   46.8920 H   0  0  0  0  0  0  0  0  0  0  0  0
  1  2  2  0
  2  3  1  0
  3  4  1  0
  4  5  1  0
  5  6  2  0
  6  7  1  0
  7  8  2  0
  8  9  1  0
  9 10  1  0
  9 11  2  0
  2 12  1  0
 12 13  2  0
 13 14  1  0
 14 15  2  0
 15 16  1  0
 16 17  1  0
 17 18  1  0
 18 19  2  0
 19 20  1  0
 20 21  1  0
 21 22  2  0
 21 23  1  0
 23 24  1  0
 24 25  2  0
 16 26  2  0
 11  5  1  0
 26 12  1  0
 24 18  1  0
  4 27  1  0
  4 28  1  0
  6 29  1  0
  7 30  1  0
  8 31  1  0
 10 32  1  0
 11 33  1  0
 13 34  1  0
 14 35  1  0
 15 36  1  0
 17 37  1  0
 17 38  1  0
 19 39  1  0
 26 40  1  0
M  CHG  3   3  -1  20  -1  23  -1
M  END
>  <UniqueID>  (63) 
59

>  <SMILES>  (63) 
O=C([N-]Cc1cccc(O)c1)c1cccc(Cc2c[n-]c(=O)[n-]c2=O)c1

>  <Energy>  (63) 
41.660350269668236

>  <Genealogy>  (63) 
O=C([N-]Cc1cccc(O)c1)c1cccc(Cc2c[n-]c(=O)[n-]c2=O)c1 (protonated)
O=C([N-]Cc1cccc(O)c1)c1cccc(Cc2c[n-]c(=O)[n-]c2=O)c1 (3D coordinates assigned)
O=C([N-]Cc1cccc(O)c1)c1cccc(Cc2c[n-]c(=O)[n-]c2=O)c1 (optimized conformer: 41.660350269668236 kcal/mol)

>  <smiles>  (63) 
O=C(NCc1cccc(O)c1)c1cccc(Cc2c[nH]c(=O)[nH]c2=O)c1

>  <score_type>  (63) 
oracle

>  <origin>  (63) 
adg

>  <m_score__min__energy>  (63) 
-13.470000000000001

>  <m_primary>  (63) 
energy

$$$$
63:0
     RDKit          3D

 52 54  0  0  0  0  0  0  0  0999 V2000
   55.5380   28.9660   44.8690 N   0  0  0  0  0  0  0  0  0  0  0  0
   56.8540   29.5250   43.8980 S   0  0  0  0  0  0  0  0  0  0  0  0
   56.3520   29.8880   42.5280 O   0  0  0  0  0  0  0  0  0  0  0  0
   57.8770   28.4320   43.7620 O   0  0  0  0  0  0  0  0  0  0  0  0
   57.5810   30.9360   44.6570 C   0  0  0  0  0  0  0  0  0  0  0  0
   58.7440   30.7990   45.4270 C   0  0  0  0  0  0  0  0  0  0  0  0
   59.3300   31.9200   46.0220 C   0  0  0  0  0  0  0  0  0  0  0  0
   58.7660   33.1930   45.8450 C   0  0  0  0  0  0  0  0  0  0  0  0
   59.3750   34.3920   46.5220 C   0  0  0  0  0  0  0  0  0  0  0  0
   60.3570   33.9510   47.6100 C   0  0  0  0  0  0  0  0  0  0  0  0
   61.6660   33.6540   47.0210 N   0  0  0  0  0  0  0  0  0  0  0  0
   62.4480   32.4040   47.9420 S   0  0  0  0  0  0  0  0  0  0  0  0
   63.1600   33.0020   49.1230 O   0  0  0  0  0  0  0  0  0  0  0  0
   63.4630   31.7130   47.0740 O   0  0  0  0  0  0  0  0  0  0  0  0
   61.2540   31.2260   48.4870 C   0  0  0  0  0  0  0  0  0  0  0  0
   60.4260   31.5250   49.5750 C   0  0  0  0  0  0  0  0  0  0  0  0
   59.5150   30.5760   50.0460 C   0  0  0  0  0  0  0  0  0  0  0  0
   59.4390   29.3190   49.4410 C   0  0  0  0  0  0  0  0  0  0  0  0
   60.2760   28.9990   48.3610 C   0  0  0  0  0  0  0  0  0  0  0  0
   60.2090   27.6650   47.7260 C   0  0  0  0  0  0  0  0  0  0  0  0
   61.0820   26.8040   48.0190 O   0  0  0  0  0  0  0  0  0  0  0  0
   59.1620   27.3250   46.7970 N   0  0  0  0  0  0  0  0  0  0  0  0
   57.8190   27.9000   46.9200 C   0  0  0  0  0  0  0  0  0  0  0  0
   56.7750   26.8420   46.5500 C   0  0  0  0  0  0  0  0  0  0  0  0
   57.0590   26.2820   45.2820 O   0  0  0  0  0  0  0  0  0  0  0  0
   58.2790   25.5650   45.3360 C   0  0  0  0  0  0  0  0  0  0  0  0
   59.4540   26.5080   45.6160 C   0  0  0  0  0  0  0  0  0  0  0  0
   61.1710   29.9660   47.8750 C   0  0  0  0  0  0  0  0  0  0  0  0
   57.5980   33.3270   45.0790 C   0  0  0  0  0  0  0  0  0  0  0  0
   57.0140   32.2060   44.4820 C   0  0  0  0  0  0  0  0  0  0  0  0
   55.6160   27.9260   44.9200 H   0  0  0  0  0  0  0  0  0  0  0  0
   59.1972   29.8060   45.5636 H   0  0  0  0  0  0  0  0  0  0  0  0
   60.2379   31.8038   46.6321 H   0  0  0  0  0  0  0  0  0  0  0  0
   59.9099   34.9969   45.7750 H   0  0  0  0  0  0  0  0  0  0  0  0
   58.5727   34.9849   46.9855 H   0  0  0  0  0  0  0  0  0  0  0  0
   60.4661   34.7579   48.3496 H   0  0  0  0  0  0  0  0  0  0  0  0
   59.9689   33.0444   48.0974 H   0  0  0  0  0  0  0  0  0  0  0  0
   61.5120   33.2620   46.0620 H   0  0  0  0  0  0  0  0  0  0  0  0
   60.4926   32.5097   50.0606 H   0  0  0  0  0  0  0  0  0  0  0  0
   58.8573   30.8187   50.8936 H   0  0  0  0  0  0  0  0  0  0  0  0
   58.7188   28.5757   49.8134 H   0  0  0  0  0  0  0  0  0  0  0  0
   57.6550   28.2303   47.9563 H   0  0  0  0  0  0  0  0  0  0  0  0
   57.7251   28.7609   46.2417 H   0  0  0  0  0  0  0  0  0  0  0  0
   56.7848   26.0444   47.3075 H   0  0  0  0  0  0  0  0  0  0  0  0
   55.7849   27.3198   46.5122 H   0  0  0  0  0  0  0  0  0  0  0  0
   58.2205   24.8141   46.1377 H   0  0  0  0  0  0  0  0  0  0  0  0
   58.4435   25.0765   44.3642 H   0  0  0  0  0  0  0  0  0  0  0  0
   60.3630   25.9156   45.7970 H   0  0  0  0  0  0  0  0  0  0  0  0
   59.6080   27.1654   44.7476 H   0  0  0  0  0  0  0  0  0  0  0  0
   61.8102   29.7345   47.0102 H   0  0  0  0  0  0  0  0  0  0  0  0
   57.1399   34.3184   44.9477 H   0  0  0  0  0  0  0  0  0  0  0  0
   56.1057   32.3210   43.8723 H   0  0  0  0  0  0  0  0  0  0  0  0
  1  2  1  0
  2  3  2  0
  2  4  2  0
  2  5  1  0
  5  6  2  0
  6  7  1  0
  7  8  2  0
  8  9  1  0
  9 10  1  0
 10 11  1  0
 11 12  1  0
 12 13  2  0
 12 14  2  0
 12 15  1  0
 15 16  2  0
 16 17  1  0
 17 18  2  0
 18 19  1  0
 19 20  1  0
 20 21  2  0
 20 22  1  0
 22 23  1  0
 23 24  1  0
 24 25  1  0
 25 26  1  0
 26 27  1  0
 19 28  2  0
  8 29  1  0
 29 30  2  0
 30  5  1  0
 28 15  1  0
 27 22  1  0
  1 31  1  0
  6 32  1  0
  7 33  1  0
  9 34  1  0
  9 35  1  0
 10 36  1  0
 10 37  1  0
 11 38  1  0
 16 39  1  0
 17 40  1  0
 18 41  1  0
 23 42  1  0
 23 43  1  0
 24 44  1  0
 24 45  1  0
 26 46  1  0
 26 47  1  0
 27 48  1  0
 27 49  1  0
 28 50  1  0
 29 51  1  0
 30 52  1  0
M  CHG  1   1  -1
M  END
>  <UniqueID>  (64) 
60

>  <SMILES>  (64) 
[NH-]S(=O)(=O)c1ccc(CCNS(=O)(=O)c2cccc(C(=O)N3CCOCC3)c2)cc1

>  <Energy>  (64) 
53.9915760383094

>  <Genealogy>  (64) 
[NH-]S(=O)(=O)c1ccc(CCNS(=O)(=O)c2cccc(C(=O)N3CCOCC3)c2)cc1 (protonated)
[NH-]S(=O)(=O)c1ccc(CCNS(=O)(=O)c2cccc(C(=O)N3CCOCC3)c2)cc1 (3D coordinates assigned)
[NH-]S(=O)(=O)c1ccc(CCNS(=O)(=O)c2cccc(C(=O)N3CCOCC3)c2)cc1 (nonaromatic ring conformer: 53.9915760383094 kcal/mol)

>  <smiles>  (64) 
NS(=O)(=O)c1ccc(CCNS(=O)(=O)c2cccc(C(=O)N3CCOCC3)c2)cc1

>  <score_type>  (64) 
oracle

>  <origin>  (64) 
adg

>  <m_score__min__energy>  (64) 
-12.75

>  <m_primary>  (64) 
energy

$$$$
64:0
     RDKit          3D

 52 54  0  0  1  0  0  0  0  0999 V2000
   63.1690   33.5880   50.5080 C   0  0  0  0  0  0  0  0  0  0  0  0
   62.8920   33.6480   49.0590 C   0  0  0  0  0  0  0  0  0  0  0  0
   63.9450   33.3990   48.1950 C   0  0  0  0  0  0  0  0  0  0  0  0
   63.6540   33.4670   46.8440 C   0  0  0  0  0  0  0  0  0  0  0  0
   62.3870   33.7680   46.3730 C   0  0  0  0  0  0  0  0  0  0  0  0
   61.3450   34.0150   47.2450 C   0  0  0  0  0  0  0  0  0  0  0  0
   60.0550   34.3460   46.6840 C   0  0  0  0  0  0  0  0  0  0  0  0
   60.0040   35.3880   45.9740 O   0  0  0  0  0  0  0  0  0  0  0  0
   58.8630   33.5960   46.8720 N   0  0  0  0  0  0  0  0  0  0  0  0
   57.5910   33.9130   46.3290 C   0  0  0  0  0  0  0  0  0  0  0  0
   57.3470   33.7200   44.8930 C   0  0  0  0  0  0  0  0  0  0  0  0
   57.9240   32.6110   44.2440 N   0  0  0  0  0  0  0  0  0  0  0  0
   57.5290   31.4190   44.2700 C   0  0  0  0  0  0  0  0  0  0  0  0
   56.7480   30.9930   43.1860 C   0  0  0  0  0  0  0  0  0  0  0  0
   56.2940   29.7000   43.1350 C   0  0  0  0  0  0  0  0  0  0  0  0
   56.6260   28.8880   44.1450 N   0  0  0  0  0  0  0  0  0  0  0  0
   57.3930   29.3090   45.2100 C   0  0  0  0  0  0  0  0  0  0  0  0
   57.6290   28.3320   46.1510 O   0  0  0  0  0  0  0  0  0  0  0  0
   58.8450   27.7800   46.5150 C   0  0  0  0  0  0  0  0  0  0  0  0
   59.6150   28.6630   47.4450 C   0  0  0  0  0  0  0  0  0  0  0  0
   59.5990   28.4470   48.8240 C   0  0  0  0  0  0  0  0  0  0  0  0
   60.3440   29.2920   49.6470 C   0  0  0  0  0  0  0  0  0  0  0  0
   61.0770   30.3150   49.1080 C   0  0  0  0  0  0  0  0  0  0  0  0
   61.8010   31.1390   49.8960 F   0  0  0  0  0  0  0  0  0  0  0  0
   61.1120   30.5520   47.7510 C   0  0  0  0  0  0  0  0  0  0  0  0
   60.3730   29.7160   46.9220 C   0  0  0  0  0  0  0  0  0  0  0  0
   57.8460   30.5710   45.2780 N   0  0  0  0  0  0  0  0  0  0  0  0
   61.6230   33.9490   48.5930 C   0  0  0  0  0  0  0  0  0  0  0  0
   60.5010   34.2070   49.5440 C   0  0  0  0  0  0  0  0  0  0  0  0
   62.2431   33.7886   51.0669 H   0  0  0  0  0  0  0  0  0  0  0  0
   63.5450   32.5876   50.7683 H   0  0  0  0  0  0  0  0  0  0  0  0
   63.9253   34.3432   50.7683 H   0  0  0  0  0  0  0  0  0  0  0  0
   64.9545   33.1609   48.5615 H   0  0  0  0  0  0  0  0  0  0  0  0
   64.4579   33.2751   46.1181 H   0  0  0  0  0  0  0  0  0  0  0  0
   62.2080   33.8110   45.2885 H   0  0  0  0  0  0  0  0  0  0  0  0
   58.9930   32.7230   47.4830 H   0  0  0  0  0  0  0  0  0  0  0  0
   56.8527   33.2977   46.8641 H   0  0  0  0  0  0  0  0  0  0  0  0
   57.5204   35.0031   46.4580 H   0  0  0  0  0  0  0  0  0  0  0  0
   56.2580   33.6408   44.7592 H   0  0  0  0  0  0  0  0  0  0  0  0
   57.8391   34.5848   44.4239 H   0  0  0  0  0  0  0  0  0  0  0  0
   56.4997   31.6957   42.3770 H   0  0  0  0  0  0  0  0  0  0  0  0
   55.6797   29.3438   42.2949 H   0  0  0  0  0  0  0  0  0  0  0  0
   56.2710   27.9000   44.0960 H   0  0  0  0  0  0  0  0  0  0  0  0
   58.6610   26.8168   47.0133 H   0  0  0  0  0  0  0  0  0  0  0  0
   59.4431   27.6522   45.6007 H   0  0  0  0  0  0  0  0  0  0  0  0
   59.0090   27.6245   49.2545 H   0  0  0  0  0  0  0  0  0  0  0  0
   60.3425   29.1353   50.7358 H   0  0  0  0  0  0  0  0  0  0  0  0
   61.7073   31.3786   47.3359 H   0  0  0  0  0  0  0  0  0  0  0  0
   60.3845   29.8855   45.8352 H   0  0  0  0  0  0  0  0  0  0  0  0
   60.8692   34.1223   50.5771 H   0  0  0  0  0  0  0  0  0  0  0  0
   60.1049   35.2197   49.3777 H   0  0  0  0  0  0  0  0  0  0  0  0
   59.7024   33.4691   49.3777 H   0  0  0  0  0  0  0  0  0  0  0  0
  1  2  1  0
  2  3  2  0
  3  4  1  0
  4  5  2  0
  5  6  1  0
  6  7  1  0
  7  8  2  0
  7  9  1  0
  9 10  1  0
 10 11  1  0
 11 12  1  0
 12 13  2  0
 13 14  1  0
 14 15  2  0
 15 16  1  0
 16 17  1  0
 17 18  1  0
 18 19  1  0
 19 20  1  0
 20 21  2  0
 21 22  1  0
 22 23  2  0
 23 24  1  0
 23 25  1  0
 25 26  2  0
 17 27  2  0
  6 28  2  0
 28 29  1  0
 28  2  1  0
 27 13  1  0
 26 20  1  0
  1 30  1  0
  1 31  1  0
  1 32  1  0
  3 33  1  0
  4 34  1  0
  5 35  1  0
  9 36  1  0
 10 37  1  0
 10 38  1  0
 11 39  1  0
 11 40  1  0
 14 41  1  0
 15 42  1  0
 16 43  1  0
 19 44  1  0
 19 45  1  0
 21 46  1  0
 22 47  1  0
 25 48  1  0
 26 49  1  0
 29 50  1  0
 29 51  1  0
 29 52  1  0
M  END
>  <smiles>  (65) 
Cc1cccc(C(=O)NCCN=c2cc[nH]c(OCc3ccc(F)cc3)n2)c1C

>  <score_type>  (65) 
oracle

>  <origin>  (65) 
adg

>  <m_score__min__energy>  (65) 
-8.4800000000000004

>  <m_primary>  (65) 
energy

$$$$
65:0
     RDKit          3D

 38 40  0  0  0  0  0  0  0  0999 V2000
   63.6830   31.8560   47.0440 N   0  0  0  0  0  0  0  0  0  0  0  0
   63.1250   33.4900   47.0520 S   0  0  0  0  0  0  0  0  0  0  0  0
   63.7060   34.2160   48.2330 O   0  0  0  0  0  0  0  0  0  0  0  0
   63.5770   34.1780   45.7950 O   0  0  0  0  0  0  0  0  0  0  0  0
   61.3670   33.5110   47.1510 C   0  0  0  0  0  0  0  0  0  0  0  0
   60.6270   34.4780   46.4580 C   0  0  0  0  0  0  0  0  0  0  0  0
   59.2330   34.5010   46.5590 C   0  0  0  0  0  0  0  0  0  0  0  0
   58.5710   33.5590   47.3520 C   0  0  0  0  0  0  0  0  0  0  0  0
   59.3010   32.5770   48.0380 C   0  0  0  0  0  0  0  0  0  0  0  0
   58.5950   31.6000   48.9400 C   0  0  0  0  0  0  0  0  0  0  0  0
   59.3630   29.9410   48.8540 S   0  0  0  0  0  0  0  0  0  0  0  0
   58.4770   29.4350   47.3810 C   0  0  0  0  0  0  0  0  0  0  0  0
   58.1950   28.1230   47.1750 N   0  0  0  0  0  0  0  0  0  0  0  0
   57.4790   27.7140   46.0910 C   0  0  0  0  0  0  0  0  0  0  0  0
   57.1750   26.2720   45.9140 C   0  0  0  0  0  0  0  0  0  0  0  0
   58.2200   25.3390   45.7690 C   0  0  0  0  0  0  0  0  0  0  0  0
   57.9410   23.9820   45.5840 C   0  0  0  0  0  0  0  0  0  0  0  0
   56.6190   23.5400   45.5350 C   0  0  0  0  0  0  0  0  0  0  0  0
   55.5720   24.4530   45.6710 C   0  0  0  0  0  0  0  0  0  0  0  0
   55.8410   25.8130   45.8600 C   0  0  0  0  0  0  0  0  0  0  0  0
   54.7750   26.6950   46.0110 O   0  0  0  0  0  0  0  0  0  0  0  0
   57.0310   28.6740   45.1690 C   0  0  0  0  0  0  0  0  0  0  0  0
   57.3350   30.0170   45.3980 C   0  0  0  0  0  0  0  0  0  0  0  0
   56.9490   30.9010   44.5900 O   0  0  0  0  0  0  0  0  0  0  0  0
   58.0490   30.3720   46.4960 N   0  0  0  0  0  0  0  0  0  0  0  0
   60.7010   32.5540   47.9270 C   0  0  0  0  0  0  0  0  0  0  0  0
   64.5650   31.8380   46.4840 H   0  0  0  0  0  0  0  0  0  0  0  0
   61.1442   35.2209   45.8330 H   0  0  0  0  0  0  0  0  0  0  0  0
   58.6557   35.2619   46.0134 H   0  0  0  0  0  0  0  0  0  0  0  0
   57.4748   33.5879   47.4383 H   0  0  0  0  0  0  0  0  0  0  0  0
   58.6479   31.9661   49.9760 H   0  0  0  0  0  0  0  0  0  0  0  0
   57.5491   31.5160   48.6098 H   0  0  0  0  0  0  0  0  0  0  0  0
   59.2649   25.6813   45.8016 H   0  0  0  0  0  0  0  0  0  0  0  0
   58.7653   23.2615   45.4769 H   0  0  0  0  0  0  0  0  0  0  0  0
   56.4015   22.4716   45.3891 H   0  0  0  0  0  0  0  0  0  0  0  0
   54.5305   24.1016   45.6294 H   0  0  0  0  0  0  0  0  0  0  0  0
   56.4517   28.3734   44.2835 H   0  0  0  0  0  0  0  0  0  0  0  0
   61.2781   31.7793   48.4530 H   0  0  0  0  0  0  0  0  0  0  0  0
  1  2  1  0
  2  3  2  0
  2  4  2  0
  2  5  1  0
  5  6  2  0
  6  7  1  0
  7  8  2  0
  8  9  1  0
  9 10  1  0
 10 11  1  0
 11 12  1  0
 12 13  2  0
 13 14  1  0
 14 15  1  0
 15 16  2  0
 16 17  1  0
 17 18  2  0
 18 19  1  0
 19 20  2  0
 20 21  1  0
 14 22  2  0
 22 23  1  0
 23 24  2  0
 23 25  1  0
  9 26  2  0
 26  5  1  0
 25 12  1  0
 20 15  1  0
  1 27  1  0
  6 28  1  0
  7 29  1  0
  8 30  1  0
 10 31  1  0
 10 32  1  0
 16 33  1  0
 17 34  1  0
 18 35  1  0
 19 36  1  0
 22 37  1  0
 26 38  1  0
M  CHG  3   1  -1  21  -1  25  -1
M  END
>  <UniqueID>  (66) 
61

>  <SMILES>  (66) 
[NH-]S(=O)(=O)c1cccc(CSc2nc(-c3ccccc3[O-])cc(=O)[n-]2)c1

>  <Energy>  (66) 
40.94562513030107

>  <Genealogy>  (66) 
[NH-]S(=O)(=O)c1cccc(CSc2nc(-c3ccccc3[O-])cc(=O)[n-]2)c1 (protonated)
[NH-]S(=O)(=O)c1cccc(CSc2nc(-c3ccccc3[O-])cc(=O)[n-]2)c1 (3D coordinates assigned)
[NH-]S(=O)(=O)c1cccc(CSc2nc(-c3ccccc3[O-])cc(=O)[n-]2)c1 (optimized conformer: 40.94562513030107 kcal/mol)

>  <smiles>  (66) 
NS(=O)(=O)c1cccc(CSc2nc(-c3ccccc3O)cc(=O)[nH]2)c1

>  <score_type>  (66) 
oracle

>  <origin>  (66) 
adg

>  <m_score__min__energy>  (66) 
-14.779999999999999

>  <m_primary>  (66) 
energy

$$$$
66:0
     RDKit          3D

 51 52  0  0  0  0  0  0  0  0999 V2000
   61.7340   28.9070   44.4320 N   0  0  0  0  0  0  0  0  0  0  0  0
   60.3680   28.8130   44.8530 C   0  0  0  0  0  0  0  0  0  0  0  0
   59.4040   28.2380   43.9720 N   0  0  0  0  0  0  0  0  0  0  0  0
   59.9810   29.2400   46.0210 N   0  0  0  0  0  0  0  0  0  0  0  0
   60.2370   28.5690   47.2930 C   0  0  0  0  0  0  0  0  0  0  0  0
   58.9230   28.0730   47.9000 C   0  0  0  0  0  0  0  0  0  0  0  0
   58.3600   26.8610   47.1320 C   0  0  0  0  0  0  0  0  0  0  0  0
   57.4770   27.2190   45.9190 C   0  0  2  0  0  0  0  0  0  0  0  0
   57.0680   28.6210   45.9660 N   0  0  0  0  0  0  0  0  0  0  0  0
   56.8030   29.4090   44.8030 C   0  0  0  0  0  0  0  0  0  0  0  0
   56.7070   28.8400   43.6830 O   0  0  0  0  0  0  0  0  0  0  0  0
   56.6960   30.7990   44.9070 O   0  0  0  0  0  0  0  0  0  0  0  0
   57.4900   31.6960   44.1360 C   0  0  0  0  0  0  0  0  0  0  0  0
   58.0510   32.7660   45.0330 C   0  0  0  0  0  0  0  0  0  0  0  0
   58.0270   32.5970   46.4270 C   0  0  0  0  0  0  0  0  0  0  0  0
   58.6210   33.5470   47.2620 C   0  0  0  0  0  0  0  0  0  0  0  0
   59.2490   34.6680   46.7130 C   0  0  0  0  0  0  0  0  0  0  0  0
   59.2840   34.8390   45.3270 C   0  0  0  0  0  0  0  0  0  0  0  0
   58.6930   33.8900   44.4870 C   0  0  0  0  0  0  0  0  0  0  0  0
   56.2960   26.2810   45.7350 C   0  0  0  0  0  0  0  0  0  0  0  0
   55.1430   26.7180   45.9970 O   0  0  0  0  0  0  0  0  0  0  0  0
   56.4220   24.9470   45.2110 N   0  0  0  0  0  0  0  0  0  0  0  0
   57.4980   24.6610   44.2510 C   0  0  0  0  0  0  0  0  0  0  0  0
   56.9500   23.9600   43.0020 C   0  0  0  0  0  0  0  0  0  0  0  0
   56.1270   22.7670   43.3900 C   0  0  0  0  0  0  0  0  0  0  0  0
   56.0430   21.7770   42.6160 O   0  0  0  0  0  0  0  0  0  0  0  0
   55.3700   22.7870   44.6010 N   0  0  0  0  0  0  0  0  0  0  0  0
   55.4530   23.9110   45.4750 C   0  0  0  0  0  0  0  0  0  0  0  0
   54.6700   23.9830   46.4550 O   0  0  0  0  0  0  0  0  0  0  0  0
   62.4810   29.3080   45.0410 H   0  0  0  0  0  0  0  0  0  0  0  0
   62.0110   28.5650   43.4850 H   0  0  0  0  0  0  0  0  0  0  0  0
   59.6900   27.8740   43.0370 H   0  0  0  0  0  0  0  0  0  0  0  0
   58.4030   28.1600   44.2610 H   0  0  0  0  0  0  0  0  0  0  0  0
   60.9060   27.7123   47.1242 H   0  0  0  0  0  0  0  0  0  0  0  0
   60.7080   29.2808   47.9870 H   0  0  0  0  0  0  0  0  0  0  0  0
   59.1015   27.7807   48.9453 H   0  0  0  0  0  0  0  0  0  0  0  0
   58.1879   28.8889   47.8380 H   0  0  0  0  0  0  0  0  0  0  0  0
   59.2079   26.2593   46.7727 H   0  0  0  0  0  0  0  0  0  0  0  0
   57.7129   26.3197   47.8379 H   0  0  0  0  0  0  0  0  0  0  0  0
   58.0996   27.0777   45.0232 H   0  0  0  0  0  0  0  0  0  0  0  0
   58.3155   31.1426   43.6646 H   0  0  0  0  0  0  0  0  0  0  0  0
   56.8676   32.1597   43.3565 H   0  0  0  0  0  0  0  0  0  0  0  0
   57.5386   31.7132   46.8633 H   0  0  0  0  0  0  0  0  0  0  0  0
   58.5942   33.4121   48.3534 H   0  0  0  0  0  0  0  0  0  0  0  0
   59.7155   35.4153   47.3717 H   0  0  0  0  0  0  0  0  0  0  0  0
   59.7776   35.7222   44.8954 H   0  0  0  0  0  0  0  0  0  0  0  0
   58.7309   34.0239   43.3958 H   0  0  0  0  0  0  0  0  0  0  0  0
   57.9743   25.6066   43.9527 H   0  0  0  0  0  0  0  0  0  0  0  0
   58.2293   23.9956   44.7331 H   0  0  0  0  0  0  0  0  0  0  0  0
   56.3225   24.6648   42.4368 H   0  0  0  0  0  0  0  0  0  0  0  0
   57.7944   23.6244   42.3820 H   0  0  0  0  0  0  0  0  0  0  0  0
  1  2  1  0
  2  3  1  0
  2  4  2  3
  4  5  1  0
  5  6  1  0
  6  7  1  0
  7  8  1  0
  8  9  1  0
  9 10  1  0
 10 11  2  0
 10 12  1  0
 12 13  1  0
 13 14  1  0
 14 15  2  0
 15 16  1  0
 16 17  2  0
 17 18  1  0
 18 19  2  0
  8 20  1  0
 20 21  2  0
 20 22  1  0
 22 23  1  0
 23 24  1  0
 24 25  1  0
 25 26  2  0
 25 27  1  0
 27 28  1  0
 28 29  2  0
 19 14  1  0
 28 22  1  0
  1 30  1  0
  1 31  1  0
  3 32  1  0
  3 33  1  0
  5 34  1  0
  5 35  1  0
  6 36  1  0
  6 37  1  0
  7 38  1  0
  7 39  1  0
  8 40  1  6
 13 41  1  0
 13 42  1  0
 15 43  1  0
 16 44  1  0
 17 45  1  0
 18 46  1  0
 19 47  1  0
 23 48  1  0
 23 49  1  0
 24 50  1  0
 24 51  1  0
M  CHG  2   9  -1  27  -1
M  END
>  <UniqueID>  (67) 
62

>  <SMILES>  (67) 
NC(N)=NCCC[C@H]([N-]C(=O)OCc1ccccc1)C(=O)N1CCC(=O)[N-]C1=O

>  <Energy>  (67) 
43.40245624345234

>  <Genealogy>  (67) 
NC(N)=NCCCC([N-]C(=O)OCc1ccccc1)C(=O)N1CCC(=O)[N-]C1=O (protonated)
NC(N)=NCCC[C@H]([N-]C(=O)OCc1ccccc1)C(=O)N1CCC(=O)[N-]C1=O (chirality)
NC(N)=NCCC[C@H]([N-]C(=O)OCc1ccccc1)C(=O)N1CCC(=O)[N-]C1=O (3D coordinates assigned)
NC(N)=NCCC[C@H]([N-]C(=O)OCc1ccccc1)C(=O)N1CCC(=O)[N-]C1=O (nonaromatic ring conformer: 43.40245624345234 kcal/mol)

>  <smiles>  (67) 
NC(N)=NCCCC(NC(=O)OCc1ccccc1)C(=O)N1CCC(=O)NC1=O

>  <score_type>  (67) 
oracle

>  <origin>  (67) 
adg

>  <m_score__min__energy>  (67) 
-12.49

>  <m_primary>  (67) 
energy

$$$$
67:0
     RDKit          3D

 48 51  0  0  0  0  0  0  0  0999 V2000
   60.1770   27.1180   45.9970 C   0  0  0  0  0  0  0  0  0  0  0  0
   59.9030   28.1170   46.8400 C   0  0  0  0  0  0  0  0  0  0  0  0
   58.4890   28.4980   47.1810 C   0  0  0  0  0  0  0  0  0  0  0  0
   58.0330   29.6180   46.3330 N   0  0  0  0  0  0  0  0  0  0  0  0
   57.0840   29.4190   45.3620 C   0  0  0  0  0  0  0  0  0  0  0  0
   56.5730   28.2820   45.1790 O   0  0  0  0  0  0  0  0  0  0  0  0
   56.6790   30.4490   44.5790 N   0  0  0  0  0  0  0  0  0  0  0  0
   57.1930   31.6930   44.7260 C   0  0  0  0  0  0  0  0  0  0  0  0
   58.1660   31.9370   45.6930 C   0  0  0  0  0  0  0  0  0  0  0  0
   58.8380   33.5600   45.8920 S   0  0  0  0  0  0  0  0  0  0  0  0
   57.7270   34.5670   45.9730 O   0  0  0  0  0  0  0  0  0  0  0  0
   59.6920   33.9050   44.7060 O   0  0  0  0  0  0  0  0  0  0  0  0
   59.7520   33.6400   47.3680 N   0  0  0  0  0  0  0  0  0  0  0  0
   59.1220   33.6910   48.6850 C   0  0  0  0  0  0  0  0  0  0  0  0
   60.2740   33.6130   49.7140 C   0  0  0  0  0  0  0  0  0  0  0  0
   61.4890   33.4960   48.8620 C   0  0  0  0  0  0  0  0  0  0  0  0
   62.8150   33.3820   49.2800 C   0  0  0  0  0  0  0  0  0  0  0  0
   63.8280   33.2720   48.3040 C   0  0  0  0  0  0  0  0  0  0  0  0
   65.1830   33.1640   48.6500 O   0  0  0  0  0  0  0  0  0  0  0  0
   65.6730   32.6370   49.8540 C   0  0  0  0  0  0  0  0  0  0  0  0
   66.7990   33.2320   50.4400 C   0  0  0  0  0  0  0  0  0  0  0  0
   67.3280   32.7250   51.6300 C   0  0  0  0  0  0  0  0  0  0  0  0
   66.7440   31.6080   52.2350 C   0  0  0  0  0  0  0  0  0  0  0  0
   65.6350   30.9950   51.6470 C   0  0  0  0  0  0  0  0  0  0  0  0
   65.1020   31.5020   50.4580 C   0  0  0  0  0  0  0  0  0  0  0  0
   63.4830   33.3140   46.9390 C   0  0  0  0  0  0  0  0  0  0  0  0
   62.1400   33.4310   46.5430 C   0  0  0  0  0  0  0  0  0  0  0  0
   61.1570   33.5150   47.5340 C   0  0  0  0  0  0  0  0  0  0  0  0
   58.5870   30.8650   46.4940 C   0  0  0  0  0  0  0  0  0  0  0  0
   59.4840   31.0530   47.3620 O   0  0  0  0  0  0  0  0  0  0  0  0
   61.2221   26.8631   45.7674 H   0  0  0  0  0  0  0  0  0  0  0  0
   59.3575   26.5501   45.5323 H   0  0  0  0  0  0  0  0  0  0  0  0
   60.7333   28.6756   47.2967 H   0  0  0  0  0  0  0  0  0  0  0  0
   57.8319   27.6309   47.0186 H   0  0  0  0  0  0  0  0  0  0  0  0
   58.4509   28.8126   48.2344 H   0  0  0  0  0  0  0  0  0  0  0  0
   56.8419   32.5121   44.0811 H   0  0  0  0  0  0  0  0  0  0  0  0
   58.5651   34.6319   48.8058 H   0  0  0  0  0  0  0  0  0  0  0  0
   58.4055   32.8674   48.8202 H   0  0  0  0  0  0  0  0  0  0  0  0
   60.3124   34.5223   50.3318 H   0  0  0  0  0  0  0  0  0  0  0  0
   60.1629   32.7778   50.4211 H   0  0  0  0  0  0  0  0  0  0  0  0
   63.0663   33.3779   50.3509 H   0  0  0  0  0  0  0  0  0  0  0  0
   67.2690   34.1032   49.9602 H   0  0  0  0  0  0  0  0  0  0  0  0
   68.2040   33.2048   52.0908 H   0  0  0  0  0  0  0  0  0  0  0  0
   67.1578   31.2119   53.1741 H   0  0  0  0  0  0  0  0  0  0  0  0
   65.1804   30.1121   52.1201 H   0  0  0  0  0  0  0  0  0  0  0  0
   64.2336   31.0120   49.9935 H   0  0  0  0  0  0  0  0  0  0  0  0
   64.2727   33.2546   46.1756 H   0  0  0  0  0  0  0  0  0  0  0  0
   61.8680   33.4560   45.4775 H   0  0  0  0  0  0  0  0  0  0  0  0
  1  2  2  0
  2  3  1  0
  3  4  1  0
  4  5  1  0
  5  6  2  0
  5  7  1  0
  7  8  1  0
  8  9  2  0
  9 10  1  0
 10 11  2  0
 10 12  2  0
 10 13  1  0
 13 14  1  0
 14 15  1  0
 15 16  1  0
 16 17  2  0
 17 18  1  0
 18 19  1  0
 19 20  1  0
 20 21  2  0
 21 22  1  0
 22 23  2  0
 23 24  1  0
 24 25  2  0
 18 26  2  0
 26 27  1  0
 27 28  2  0
  9 29  1  0
 29 30  2  0
 29  4  1  0
 28 13  1  0
 28 16  1  0
 25 20  1  0
  1 31  1  0
  1 32  1  0
  2 33  1  0
  3 34  1  0
  3 35  1  0
  8 36  1  0
 14 37  1  0
 14 38  1  0
 15 39  1  0
 15 40  1  0
 17 41  1  0
 21 42  1  0
 22 43  1  0
 23 44  1  0
 24 45  1  0
 25 46  1  0
 26 47  1  0
 27 48  1  0
M  CHG  1   7  -1
M  END
>  <UniqueID>  (68) 
63

>  <SMILES>  (68) 
C=CCn1c(=O)[n-]cc(S(=O)(=O)N2CCc3cc(Oc4ccccc4)ccc32)c1=O

>  <Energy>  (68) 
78.17682044278595

>  <Genealogy>  (68) 
C=CCn1c(=O)[n-]cc(S(=O)(=O)N2CCc3cc(Oc4ccccc4)ccc32)c1=O (protonated)
C=CCn1c(=O)[n-]cc(S(=O)(=O)N2CCc3cc(Oc4ccccc4)ccc32)c1=O (3D coordinates assigned)
C=CCn1c(=O)[n-]cc(S(=O)(=O)N2CCc3cc(Oc4ccccc4)ccc32)c1=O (nonaromatic ring conformer: 78.17682044278595 kcal/mol)

>  <smiles>  (68) 
C=CCn1c(=O)[nH]cc(S(=O)(=O)N2CCc3cc(Oc4ccccc4)ccc32)c1=O

>  <score_type>  (68) 
oracle

>  <origin>  (68) 
adg

>  <m_score__min__energy>  (68) 
-10.74

>  <m_primary>  (68) 
energy

$$$$
68:0
     RDKit          3D

 49 52  0  0  0  0  0  0  0  0999 V2000
   53.5940   30.1230   54.5460 O   0  0  0  0  0  0  0  0  0  0  0  0
   53.7770   29.8800   53.3210 C   0  0  0  0  0  0  0  0  0  0  0  0
   54.7860   29.0000   52.9250 O   0  0  0  0  0  0  0  0  0  0  0  0
   55.8130   28.5480   53.8040 C   0  0  0  0  0  0  0  0  0  0  0  0
   57.1750   28.5820   53.0780 C   0  0  1  0  0  0  0  0  0  0  0  0
   57.5510   29.9190   52.4430 C   0  0  0  0  0  0  0  0  0  0  0  0
   56.8640   31.0690   52.6620 C   0  0  0  0  0  0  0  0  0  0  0  0
   57.2820   32.4150   52.1200 C   0  0  1  0  0  0  0  0  0  0  0  0
   57.8130   33.1690   53.1810 O   0  0  0  0  0  0  0  0  0  0  0  0
   58.3050   32.2970   50.9680 C   0  0  1  0  0  0  0  0  0  0  0  0
   58.8880   33.5460   50.6970 O   0  0  0  0  0  0  0  0  0  0  0  0
   59.4020   31.2820   51.3160 C   0  0  1  0  0  0  0  0  0  0  0  0
   60.0880   31.6980   52.4730 O   0  0  0  0  0  0  0  0  0  0  0  0
   58.7680   29.8870   51.5230 C   0  0  1  0  0  0  0  0  0  0  0  0
   59.8070   28.9010   52.0180 C   0  0  0  0  0  0  0  0  0  0  0  0
   60.8000   28.6430   51.2860 O   0  0  0  0  0  0  0  0  0  0  0  0
   59.6600   28.2360   53.3410 C   0  0  0  0  0  0  0  0  0  0  0  0
   58.3660   28.1190   53.9100 C   0  0  0  0  0  0  0  0  0  0  0  0
   58.2290   27.5200   55.1780 C   0  0  0  0  0  0  0  0  0  0  0  0
   59.3480   27.0530   55.8670 C   0  0  0  0  0  0  0  0  0  0  0  0
   60.6220   27.1660   55.3110 C   0  0  0  0  0  0  0  0  0  0  0  0
   61.7170   26.6890   56.0310 O   0  0  0  0  0  0  0  0  0  0  0  0
   60.7840   27.7580   54.0490 C   0  0  0  0  0  0  0  0  0  0  0  0
   62.0610   27.8850   53.5160 O   0  0  0  0  0  0  0  0  0  0  0  0
   52.9270   30.5270   52.2990 C   0  0  0  0  0  0  0  0  0  0  0  0
   52.8430   30.0030   50.9950 C   0  0  0  0  0  0  0  0  0  0  0  0
   52.0240   30.6130   50.0390 C   0  0  0  0  0  0  0  0  0  0  0  0
   51.2860   31.7540   50.3710 C   0  0  0  0  0  0  0  0  0  0  0  0
   50.4760   32.3550   49.4140 O   0  0  0  0  0  0  0  0  0  0  0  0
   51.3660   32.2860   51.6620 C   0  0  0  0  0  0  0  0  0  0  0  0
   50.6360   33.4220   51.9960 O   0  0  0  0  0  0  0  0  0  0  0  0
   52.1790   31.6740   52.6230 C   0  0  0  0  0  0  0  0  0  0  0  0
   55.8531   29.2035   54.6864 H   0  0  0  0  0  0  0  0  0  0  0  0
   55.5944   27.5167   54.1181 H   0  0  0  0  0  0  0  0  0  0  0  0
   56.9820   27.8504   52.2795 H   0  0  0  0  0  0  0  0  0  0  0  0
   55.9488   31.0174   53.2701 H   0  0  0  0  0  0  0  0  0  0  0  0
   56.3992   32.9142   51.6940 H   0  0  0  0  0  0  0  0  0  0  0  0
   58.7500   33.3900   52.9400 H   0  0  0  0  0  0  0  0  0  0  0  0
   57.7681   31.9481   50.0736 H   0  0  0  0  0  0  0  0  0  0  0  0
   59.1080   33.9570   51.5730 H   0  0  0  0  0  0  0  0  0  0  0  0
   60.1252   31.2199   50.4894 H   0  0  0  0  0  0  0  0  0  0  0  0
   59.8670   32.6570   52.6150 H   0  0  0  0  0  0  0  0  0  0  0  0
   58.4005   29.5510   50.5421 H   0  0  0  0  0  0  0  0  0  0  0  0
   57.2305   27.4198   55.6285 H   0  0  0  0  0  0  0  0  0  0  0  0
   59.2246   26.5914   56.8578 H   0  0  0  0  0  0  0  0  0  0  0  0
   62.6640   26.7490   55.6740 H   0  0  0  0  0  0  0  0  0  0  0  0
   53.4247   29.1089   50.7264 H   0  0  0  0  0  0  0  0  0  0  0  0
   51.9602   30.1944   49.0238 H   0  0  0  0  0  0  0  0  0  0  0  0
   52.2336   32.0926   53.6388 H   0  0  0  0  0  0  0  0  0  0  0  0
  1  2  2  0
  2  3  1  0
  3  4  1  0
  4  5  1  0
  5  6  1  0
  6  7  2  0
  7  8  1  0
  8  9  1  0
  8 10  1  0
 10 11  1  0
 10 12  1  0
 12 13  1  0
 12 14  1  0
 14 15  1  0
 15 16  2  0
 15 17  1  0
 17 18  2  0
 18 19  1  0
 19 20  2  0
 20 21  1  0
 21 22  1  0
 21 23  2  0
 23 24  1  0
  2 25  1  0
 25 26  2  0
 26 27  1  0
 27 28  2  0
 28 29  1  0
 28 30  1  0
 30 31  1  0
 30 32  2  0
 18  5  1  0
 32 25  1  0
 14  6  1  0
 23 17  1  0
  4 33  1  0
  4 34  1  0
  5 35  1  6
  7 36  1  0
  8 37  1  6
  9 38  1  0
 10 39  1  6
 11 40  1  0
 12 41  1  6
 13 42  1  0
 14 43  1  6
 19 44  1  0
 20 45  1  0
 22 46  1  0
 26 47  1  0
 27 48  1  0
 32 49  1  0
M  CHG  3  24  -1  29  -1  31  -1
M  END
>  <UniqueID>  (69) 
64

>  <SMILES>  (69) 
O=C(OC[C@H]1C2=C[C@@H](O)C(O)C(O)C2C(=O)c2c1ccc(O)c2[O-])c1ccc([O-])c([O-])c1

>  <Energy>  (69) 
68.43832231540252

>  <Genealogy>  (69) 
O=C(OCC1C2=CC(O)C(O)C(O)C2C(=O)c2c1ccc(O)c2[O-])c1ccc([O-])c([O-])c1 (protonated)
O=C(OC[C@H]1C2=C[C@@H](O)C(O)C(O)C2C(=O)c2c1ccc(O)c2[O-])c1ccc([O-])c([O-])c1 (chirality)
O=C(OC[C@H]1C2=C[C@@H](O)C(O)C(O)C2C(=O)c2c1ccc(O)c2[O-])c1ccc([O-])c([O-])c1 (3D coordinates assigned)
O=C(OC[C@H]1C2=C[C@@H](O)C(O)C(O)C2C(=O)c2c1ccc(O)c2[O-])c1ccc([O-])c([O-])c1 (nonaromatic ring conformer: 68.43832231540252 kcal/mol)

>  <smiles>  (69) 
O=C(OCC1C2=CC(O)C(O)C(O)C2C(=O)c2c1ccc(O)c2O)c1ccc(O)c(O)c1

>  <score_type>  (69) 
oracle

>  <origin>  (69) 
adg

>  <m_score__min__energy>  (69) 
-15.77

>  <m_primary>  (69) 
energy

$$$$
69:0
     RDKit          3D

 50 53  0  0  0  0  0  0  0  0999 V2000
   60.2520   34.0760   50.3750 H   0  0  0  0  0  0  0  0  0  0  0  0
   59.4930   34.2690   49.7320 O   0  0  0  0  0  0  0  0  0  0  0  0
   59.6880   34.2650   48.3510 C   0  0  0  0  0  0  0  0  0  0  0  0
   58.5840   34.2880   47.4850 C   0  0  0  0  0  0  0  0  0  0  0  0
   57.5646   34.3164   47.8973 H   0  0  0  0  0  0  0  0  0  0  0  0
   58.7750   34.2750   46.1000 C   0  0  0  0  0  0  0  0  0  0  0  0
   57.9066   34.2837   45.4249 H   0  0  0  0  0  0  0  0  0  0  0  0
   60.0680   34.2510   45.5740 C   0  0  0  0  0  0  0  0  0  0  0  0
   60.2173   34.2502   44.4842 H   0  0  0  0  0  0  0  0  0  0  0  0
   61.1740   34.2280   46.4300 C   0  0  0  0  0  0  0  0  0  0  0  0
   62.1910   34.2138   46.0110 H   0  0  0  0  0  0  0  0  0  0  0  0
   60.9910   34.2230   47.8210 C   0  0  0  0  0  0  0  0  0  0  0  0
   62.1580   34.1500   48.7200 C   0  0  0  0  0  0  0  0  0  0  0  0
   63.2670   34.5930   48.3200 O   0  0  0  0  0  0  0  0  0  0  0  0
   62.0550   33.6410   50.0580 N   0  0  0  0  0  0  0  0  0  0  0  0
   62.0000   32.2290   50.4360 C   0  0  0  0  0  0  0  0  0  0  0  0
   61.5161   32.1401   51.4198 H   0  0  0  0  0  0  0  0  0  0  0  0
   63.0279   31.8389   50.4709 H   0  0  0  0  0  0  0  0  0  0  0  0
   61.2190   31.4220   49.4300 C   0  0  0  0  0  0  0  0  0  0  0  0
   59.8370   31.2270   49.5930 C   0  0  0  0  0  0  0  0  0  0  0  0
   59.3302   31.6191   50.4871 H   0  0  0  0  0  0  0  0  0  0  0  0
   59.1040   30.5370   48.6240 C   0  0  0  0  0  0  0  0  0  0  0  0
   58.0206   30.3971   48.7533 H   0  0  0  0  0  0  0  0  0  0  0  0
   59.7440   30.0220   47.4870 C   0  0  0  0  0  0  0  0  0  0  0  0
   58.9870   29.3280   46.4820 N   0  0  0  0  0  0  0  0  0  0  0  0
   58.4100   29.8940   45.4000 C   0  0  0  0  0  0  0  0  0  0  0  0
   58.4490   31.3560   45.0750 C   0  0  0  0  0  0  0  0  0  0  0  0
   58.4645   31.9387   46.0079 H   0  0  0  0  0  0  0  0  0  0  0  0
   59.3534   31.5774   44.4893 H   0  0  0  0  0  0  0  0  0  0  0  0
   57.5577   31.6253   44.4893 H   0  0  0  0  0  0  0  0  0  0  0  0
   57.7580   28.9390   44.6450 C   0  0  0  0  0  0  0  0  0  0  0  0
   57.1953   29.1086   43.7151 H   0  0  0  0  0  0  0  0  0  0  0  0
   57.9510   27.7200   45.2890 C   0  0  0  0  0  0  0  0  0  0  0  0
   57.5030   26.5080   44.8960 C   0  0  0  0  0  0  0  0  0  0  0  0
   57.5509   26.2805   43.8208 H   0  0  0  0  0  0  0  0  0  0  0  0
   56.9530   25.4580   45.7840 C   0  0  0  0  0  0  0  0  0  0  0  0
   57.6120   24.3740   46.2320 N   0  0  0  0  0  0  0  0  0  0  0  0
   56.6850   23.7180   46.9610 C   0  0  0  0  0  0  0  0  0  0  0  0
   56.9310   22.6370   47.5560 O   0  0  0  0  0  0  0  0  0  0  0  0
   55.4730   24.3100   47.0000 N   0  0  0  0  0  0  0  0  0  0  0  0
   55.6590   25.4070   46.2480 C   0  0  0  0  0  0  0  0  0  0  0  0
   54.6630   26.3410   45.9880 O   0  0  0  0  0  0  0  0  0  0  0  0
   58.7180   28.0000   46.4280 C   0  0  0  0  0  0  0  0  0  0  0  0
   59.1090   27.1230   47.3660 C   0  0  0  0  0  0  0  0  0  0  0  0
   59.7126   27.4638   48.2201 H   0  0  0  0  0  0  0  0  0  0  0  0
   58.8258   26.0635   47.2805 H   0  0  0  0  0  0  0  0  0  0  0  0
   61.1270   30.1870   47.3390 C   0  0  0  0  0  0  0  0  0  0  0  0
   61.6372   29.7698   46.4583 H   0  0  0  0  0  0  0  0  0  0  0  0
   61.8610   30.8790   48.3050 C   0  0  0  0  0  0  0  0  0  0  0  0
   62.9477   30.9994   48.1841 H   0  0  0  0  0  0  0  0  0  0  0  0
  1  2  1  0
  2  3  1  0
  3  4  2  0
  4  5  1  0
  4  6  1  0
  6  7  1  0
  6  8  2  0
  8  9  1  0
  8 10  1  0
 10 11  1  0
 10 12  2  0
 12 13  1  0
 13 14  2  0
 13 15  1  0
 15 16  1  0
 16 17  1  0
 16 18  1  0
 16 19  1  0
 19 20  2  0
 20 21  1  0
 20 22  1  0
 22 23  1  0
 22 24  2  0
 24 25  1  0
 25 26  1  0
 26 27  1  0
 27 28  1  0
 27 29  1  0
 27 30  1  0
 26 31  2  0
 31 32  1  0
 31 33  1  0
 33 34  2  0
 34 35  1  0
 34 36  1  0
 36 37  1  0
 37 38  1  0
 38 39  2  0
 38 40  1  0
 40 41  1  0
 41 42  1  0
 33 43  1  0
 43 44  2  0
 44 45  1  0
 44 46  1  0
 24 47  1  0
 47 48  1  0
 47 49  2  0
 49 50  1  0
 12  3  1  0
 49 19  1  0
 43 25  1  0
 41 36  2  0
M  CHG  4  15  -1  37  -1  40  -1  42  -1
M  END
>  <UniqueID>  (70) 
65

>  <SMILES>  (70) 
C=c1/c(=C/c2[n-]c(=O)[n-]c2[O-])cc(C)n1-c1ccc(C[N-]C(=O)c2ccccc2O)cc1

>  <Energy>  (70) 
123.97277628740912

>  <Genealogy>  (70) 
C=c1c(=Cc2[n-]c(=O)[n-]c2[O-])cc(C)n1-c1ccc(C[N-]C(=O)c2ccccc2O)cc1 (protonated)
C=c1/c(=C/c2[n-]c(=O)[n-]c2[O-])cc(C)n1-c1ccc(C[N-]C(=O)c2ccccc2O)cc1 (cis-trans isomerization)
C=c1/c(=C/c2[n-]c(=O)[n-]c2[O-])cc(C)n1-c1ccc(C[N-]C(=O)c2ccccc2O)cc1 (3D coordinates assigned)
C=c1/c(=C/c2[n-]c(=O)[n-]c2[O-])cc(C)n1-c1ccc(C[N-]C(=O)c2ccccc2O)cc1 (optimized conformer: 123.97277628740912 kcal/mol)

>  <smiles>  (70) 
C=c1c(=Cc2[nH]c(=O)[nH]c2O)cc(C)n1-c1ccc(CNC(=O)c2ccccc2O)cc1

>  <score_type>  (70) 
oracle

>  <origin>  (70) 
adg

>  <m_score__min__energy>  (70) 
-16.620000000000001

>  <m_primary>  (70) 
energy

$$$$
70:0
     RDKit          3D

 44 46  0  0  0  0  0  0  0  0999 V2000
   60.5630   26.6740   47.4480 O   0  0  0  0  0  0  0  0  0  0  0  0
   59.6600   26.4270   46.6030 C   0  0  0  0  0  0  0  0  0  0  0  0
   59.5800   25.0740   45.9810 C   0  0  0  0  0  0  0  0  0  0  0  0
   58.6090   24.1720   46.2000 C   0  0  0  0  0  0  0  0  0  0  0  0
   57.5690   23.8150   45.2180 C   0  0  0  0  0  0  0  0  0  0  0  0
   57.8920   22.8700   44.2320 C   0  0  0  0  0  0  0  0  0  0  0  0
   56.9720   22.5420   43.2350 C   0  0  0  0  0  0  0  0  0  0  0  0
   55.7180   23.1520   43.2160 C   0  0  0  0  0  0  0  0  0  0  0  0
   55.3760   24.0810   44.2010 C   0  0  0  0  0  0  0  0  0  0  0  0
   56.2820   24.4160   45.2250 C   0  0  0  0  0  0  0  0  0  0  0  0
   55.8900   25.3650   46.2400 N   0  0  0  0  0  0  0  0  0  0  0  0
   55.1070   26.2950   45.9600 O   0  0  0  0  0  0  0  0  0  0  0  0
   56.2680   25.2000   47.5540 O   0  0  0  0  0  0  0  0  0  0  0  0
   58.7090   27.4640   46.2620 N   0  0  0  0  0  0  0  0  0  0  0  0
   57.8510   27.3400   45.0730 C   0  0  0  0  0  0  0  0  0  0  0  0
   57.1260   28.6540   44.7740 C   0  0  0  0  0  0  0  0  0  0  0  0
   58.0610   29.7680   44.9800 N   0  0  0  0  0  0  0  0  0  0  0  0
   57.3900   31.2460   44.3350 S   0  0  0  0  0  0  0  0  0  0  0  0
   55.8990   31.2370   44.5320 O   0  0  0  0  0  0  0  0  0  0  0  0
   57.6710   31.3370   42.8600 O   0  0  0  0  0  0  0  0  0  0  0  0
   58.0610   32.6600   45.1390 C   0  0  0  0  0  0  0  0  0  0  0  0
   58.8990   33.6050   44.5620 C   0  0  0  0  0  0  0  0  0  0  0  0
   59.3090   34.5930   45.4660 C   0  0  0  0  0  0  0  0  0  0  0  0
   58.8000   34.4220   46.7500 C   0  0  0  0  0  0  0  0  0  0  0  0
   57.8370   33.0390   46.7620 S   0  0  0  0  0  0  0  0  0  0  0  0
   58.3990   29.9380   46.4100 C   0  0  0  0  0  0  0  0  0  0  0  0
   58.4990   28.6000   47.1750 C   0  0  0  0  0  0  0  0  0  0  0  0
   60.3832   24.7910   45.2847 H   0  0  0  0  0  0  0  0  0  0  0  0
   58.5885   23.6663   47.1766 H   0  0  0  0  0  0  0  0  0  0  0  0
   58.8786   22.3837   44.2450 H   0  0  0  0  0  0  0  0  0  0  0  0
   57.2359   21.8026   42.4645 H   0  0  0  0  0  0  0  0  0  0  0  0
   54.9972   22.9010   42.4239 H   0  0  0  0  0  0  0  0  0  0  0  0
   54.3849   24.5576   44.1764 H   0  0  0  0  0  0  0  0  0  0  0  0
   58.4739   27.0690   44.2078 H   0  0  0  0  0  0  0  0  0  0  0  0
   57.0972   26.5627   45.2671 H   0  0  0  0  0  0  0  0  0  0  0  0
   56.7752   28.6537   43.7314 H   0  0  0  0  0  0  0  0  0  0  0  0
   56.2603   28.7640   45.4436 H   0  0  0  0  0  0  0  0  0  0  0  0
   59.2081   33.5802   43.5066 H   0  0  0  0  0  0  0  0  0  0  0  0
   59.9712   35.4260   45.1873 H   0  0  0  0  0  0  0  0  0  0  0  0
   58.9935   35.0784   47.6112 H   0  0  0  0  0  0  0  0  0  0  0  0
   59.3675   30.4546   46.4813 H   0  0  0  0  0  0  0  0  0  0  0  0
   57.5862   30.5182   46.8712 H   0  0  0  0  0  0  0  0  0  0  0  0
   59.3438   28.6535   47.8774 H   0  0  0  0  0  0  0  0  0  0  0  0
   57.5510   28.4393   47.7093 H   0  0  0  0  0  0  0  0  0  0  0  0
  1  2  2  0
  2  3  1  0
  3  4  2  3
  4  5  1  0
  5  6  2  0
  6  7  1  0
  7  8  2  0
  8  9  1  0
  9 10  2  0
 10 11  1  0
 11 12  2  0
 11 13  1  0
  2 14  1  0
 14 15  1  0
 15 16  1  0
 16 17  1  0
 17 18  1  0
 18 19  2  0
 18 20  2  0
 18 21  1  0
 21 22  2  0
 22 23  1  0
 23 24  2  0
 24 25  1  0
 17 26  1  0
 26 27  1  0
 10  5  1  0
 27 14  1  0
 25 21  1  0
  3 28  1  0
  4 29  1  0
  6 30  1  0
  7 31  1  0
  8 32  1  0
  9 33  1  0
 15 34  1  0
 15 35  1  0
 16 36  1  0
 16 37  1  0
 22 38  1  0
 23 39  1  0
 24 40  1  0
 26 41  1  0
 26 42  1  0
 27 43  1  0
 27 44  1  0
M  CHG  2  11   1  13  -1
M  END
>  <UniqueID>  (71) 
66

>  <SMILES>  (71) 
O=C(C=Cc1ccccc1[N+](=O)[O-])N1CCN(S(=O)(=O)c2cccs2)CC1

>  <Energy>  (71) 
90.32843071835156

>  <Genealogy>  (71) 
O=C(C=Cc1ccccc1[N+](=O)[O-])N1CCN(S(=O)(=O)c2cccs2)CC1 (3D coordinates assigned)
O=C(C=Cc1ccccc1[N+](=O)[O-])N1CCN(S(=O)(=O)c2cccs2)CC1 (nonaromatic ring conformer: 90.32843071835156 kcal/mol)

>  <smiles>  (71) 
O=C(C=Cc1ccccc1[N+](=O)[O-])N1CCN(S(=O)(=O)c2cccs2)CC1

>  <score_type>  (71) 
oracle

>  <origin>  (71) 
adg

>  <m_score__min__energy>  (71) 
-10

>  <m_primary>  (71) 
energy

$$$$
71:0
     RDKit          3D

 61 65  0  0  1  0  0  0  0  0999 V2000
   57.4590   29.0940   52.9320 C   0  0  0  0  0  0  0  0  0  0  0  0
   56.8930   30.0660   52.0030 N   0  0  0  0  0  0  0  0  0  0  0  0
   56.4600   31.2010   52.8250 C   0  0  0  0  0  0  0  0  0  0  0  0
   57.6870   32.0160   53.1980 C   0  0  0  0  0  0  0  0  0  0  0  0
   58.0810   32.8210   51.9820 C   0  0  0  0  0  0  0  0  0  0  0  0
   59.5190   33.2310   52.0020 C   0  0  0  0  0  0  0  0  0  0  0  0
   59.9850   33.6060   50.6730 N   0  0  0  0  0  0  0  0  0  0  0  0
   60.7290   32.7940   49.9740 C   0  0  0  0  0  0  0  0  0  0  0  0
   60.1840   31.8060   49.2360 N   0  0  0  0  0  0  0  0  0  0  0  0
   61.0590   31.0290   48.5820 C   0  0  0  0  0  0  0  0  0  0  0  0
   60.5360   29.9450   47.7160 C   0  0  0  0  0  0  0  0  0  0  0  0
   59.4740   29.1180   48.0240 C   0  0  0  0  0  0  0  0  0  0  0  0
   59.3720   28.2760   46.9240 C   0  0  0  0  0  0  0  0  0  0  0  0
   58.4710   27.3690   46.8610 N   0  0  0  0  0  0  0  0  0  0  0  0
   57.4180   27.2800   45.9480 C   0  0  0  0  0  0  0  0  0  0  0  0
   56.3010   26.8420   46.3300 O   0  0  0  0  0  0  0  0  0  0  0  0
   57.5020   27.6830   44.5080 C   0  0  0  0  0  0  0  0  0  0  0  0
   57.4670   29.1770   44.4270 C   0  0  0  0  0  0  0  0  0  0  0  0
   58.6420   29.8820   44.1570 C   0  0  0  0  0  0  0  0  0  0  0  0
   58.5180   31.2700   44.0670 C   0  0  0  0  0  0  0  0  0  0  0  0
   57.3000   31.8940   44.2370 C   0  0  0  0  0  0  0  0  0  0  0  0
   56.1770   31.1600   44.5020 C   0  0  0  0  0  0  0  0  0  0  0  0
   56.2480   29.7680   44.6010 C   0  0  0  0  0  0  0  0  0  0  0  0
   55.1360   28.9870   44.8690 O   0  0  0  0  0  0  0  0  0  0  0  0
   60.3040   28.5650   46.0100 N   0  0  0  0  0  0  0  0  0  0  0  0
   60.9860   29.5830   46.5330 N   0  0  0  0  0  0  0  0  0  0  0  0
   62.3910   31.1710   48.6200 N   0  0  0  0  0  0  0  0  0  0  0  0
   63.0000   32.1570   49.3510 C   0  0  0  0  0  0  0  0  0  0  0  0
   64.3090   32.4190   49.4760 C   0  0  0  0  0  0  0  0  0  0  0  0
   64.6810   33.4560   50.2520 C   0  0  0  0  0  0  0  0  0  0  0  0
   63.0840   34.1720   50.9000 S   0  0  0  0  0  0  0  0  0  0  0  0
   62.1210   32.9780   50.0390 C   0  0  0  0  0  0  0  0  0  0  0  0
   57.8310   31.9760   50.7400 C   0  0  0  0  0  0  0  0  0  0  0  0
   57.8920   30.4860   51.0490 C   0  0  0  0  0  0  0  0  0  0  0  0
   57.2689   29.4204   53.9651 H   0  0  0  0  0  0  0  0  0  0  0  0
   56.9913   28.1124   52.7657 H   0  0  0  0  0  0  0  0  0  0  0  0
   58.5436   29.0163   52.7657 H   0  0  0  0  0  0  0  0  0  0  0  0
   55.7573   31.8265   52.2548 H   0  0  0  0  0  0  0  0  0  0  0  0
   55.9545   30.8402   53.7329 H   0  0  0  0  0  0  0  0  0  0  0  0
   57.4507   32.6899   54.0347 H   0  0  0  0  0  0  0  0  0  0  0  0
   58.5104   31.3573   53.5114 H   0  0  0  0  0  0  0  0  0  0  0  0
   57.4754   33.7393   51.9789 H   0  0  0  0  0  0  0  0  0  0  0  0
   59.6364   34.0908   52.6779 H   0  0  0  0  0  0  0  0  0  0  0  0
   60.1174   32.3759   52.3495 H   0  0  0  0  0  0  0  0  0  0  0  0
   58.8521   29.1245   48.9313 H   0  0  0  0  0  0  0  0  0  0  0  0
   58.4411   27.3103   44.0731 H   0  0  0  0  0  0  0  0  0  0  0  0
   56.6562   27.2566   43.9487 H   0  0  0  0  0  0  0  0  0  0  0  0
   59.6083   29.3738   44.0231 H   0  0  0  0  0  0  0  0  0  0  0  0
   59.4101   31.8781   43.8562 H   0  0  0  0  0  0  0  0  0  0  0  0
   57.2313   32.9891   44.1589 H   0  0  0  0  0  0  0  0  0  0  0  0
   55.2113   31.6688   44.6381 H   0  0  0  0  0  0  0  0  0  0  0  0
   55.1450   27.9940   44.9780 H   0  0  0  0  0  0  0  0  0  0  0  0
   60.3950   28.0550   45.1220 H   0  0  0  0  0  0  0  0  0  0  0  0
   61.7850   30.0190   46.0170 H   0  0  0  0  0  0  0  0  0  0  0  0
   62.9800   30.5050   48.0780 H   0  0  0  0  0  0  0  0  0  0  0  0
   65.0597   31.8035   48.9586 H   0  0  0  0  0  0  0  0  0  0  0  0
   65.7036   33.8047   50.4586 H   0  0  0  0  0  0  0  0  0  0  0  0
   56.8348   32.2164   50.3402 H   0  0  0  0  0  0  0  0  0  0  0  0
   58.6172   32.2057   50.0058 H   0  0  0  0  0  0  0  0  0  0  0  0
   57.7400   29.9276   50.1136 H   0  0  0  0  0  0  0  0  0  0  0  0
   58.8774   30.2824   51.4935 H   0  0  0  0  0  0  0  0  0  0  0  0
  1  2  1  0
  2  3  1  0
  3  4  1  0
  4  5  1  0
  5  6  1  0
  6  7  1  0
  7  8  2  0
  8  9  1  0
  9 10  2  0
 10 11  1  0
 11 12  2  0
 12 13  1  0
 13 14  2  0
 14 15  1  0
 15 16  2  0
 15 17  1  0
 17 18  1  0
 18 19  2  0
 19 20  1  0
 20 21  2  0
 21 22  1  0
 22 23  2  0
 23 24  1  0
 13 25  1  0
 25 26  1  0
 10 27  1  0
 27 28  1  0
 28 29  1  0
 29 30  2  0
 30 31  1  0
 31 32  1  0
  5 33  1  0
 33 34  1  0
 34  2  1  0
 32  8  1  0
 26 11  1  0
 32 28  2  0
 23 18  1  0
  1 35  1  0
  1 36  1  0
  1 37  1  0
  3 38  1  0
  3 39  1  0
  4 40  1  0
  4 41  1  0
  5 42  1  0
  6 43  1  0
  6 44  1  0
 12 45  1  0
 17 46  1  0
 17 47  1  0
 19 48  1  0
 20 49  1  0
 21 50  1  0
 22 51  1  0
 24 52  1  0
 25 53  1  0
 26 54  1  0
 27 55  1  0
 29 56  1  0
 30 57  1  0
 33 58  1  0
 33 59  1  0
 34 60  1  0
 34 61  1  0
M  END
>  <smiles>  (72) 
CN1CCC(CN=c2nc(-c3cc(=NC(=O)Cc4ccccc4O)[nH][nH]3)[nH]c3ccsc23)CC1

>  <score_type>  (72) 
oracle

>  <origin>  (72) 
adg

>  <m_score__min__energy>  (72) 
-11.289999999999999

>  <m_primary>  (72) 
energy

$$$$
72:0
     RDKit          3D

 48 51  0  0  0  0  0  0  0  0999 V2000
   54.4210   28.2240   53.2510 C   0  0  0  0  0  0  0  0  0  0  0  0
   54.7570   29.4750   52.8940 C   0  0  0  0  0  0  0  0  0  0  0  0
   53.9180   30.4560   52.3380 C   0  0  0  0  0  0  0  0  0  0  0  0
   52.5860   30.4780   52.1500 C   0  0  0  0  0  0  0  0  0  0  0  0
   51.9090   30.8810   50.9090 C   0  0  0  0  0  0  0  0  0  0  0  0
   51.7900   30.1040   49.8170 N   0  0  0  0  0  0  0  0  0  0  0  0
   51.0150   30.8420   48.9920 C   0  0  0  0  0  0  0  0  0  0  0  0
   50.6920   30.4560   47.8390 O   0  0  0  0  0  0  0  0  0  0  0  0
   50.6150   32.0260   49.5030 N   0  0  0  0  0  0  0  0  0  0  0  0
   51.1810   32.0290   50.7210 C   0  0  0  0  0  0  0  0  0  0  0  0
   51.0350   33.0600   51.6410 O   0  0  0  0  0  0  0  0  0  0  0  0
   54.7410   31.5150   51.9950 C   0  0  0  0  0  0  0  0  0  0  0  0
   56.0160   31.1830   52.4030 C   0  0  0  0  0  0  0  0  0  0  0  0
   57.2350   32.0180   52.1450 C   0  0  0  0  0  0  0  0  0  0  0  0
   56.0280   29.9470   52.9460 N   0  0  0  0  0  0  0  0  0  0  0  0
   57.2080   29.2370   53.3600 C   0  0  0  0  0  0  0  0  0  0  0  0
   57.3700   28.8620   54.7030 C   0  0  0  0  0  0  0  0  0  0  0  0
   58.5610   28.2700   55.1290 C   0  0  0  0  0  0  0  0  0  0  0  0
   59.5960   28.0240   54.2140 C   0  0  0  0  0  0  0  0  0  0  0  0
   60.9000   27.5000   54.6620 C   0  0  0  0  0  0  0  0  0  0  0  0
   60.9640   26.3110   55.0790 O   0  0  0  0  0  0  0  0  0  0  0  0
   62.1060   28.2880   54.4800 N   0  0  1  0  0  0  0  0  0  0  0  0
   63.2500   27.7830   55.2570 C   0  0  0  0  0  0  0  0  0  0  0  0
   63.9900   26.7790   54.3760 C   0  0  0  0  0  0  0  0  0  0  0  0
   63.5110   27.0540   52.9590 C   0  0  1  0  0  0  0  0  0  0  0  0
   62.8560   25.9430   52.4510 F   0  0  0  0  0  0  0  0  0  0  0  0
   62.5400   28.2210   53.0790 C   0  0  0  0  0  0  0  0  0  0  0  0
   59.4120   28.3550   52.8610 C   0  0  0  0  0  0  0  0  0  0  0  0
   58.2320   28.9730   52.4410 C   0  0  0  0  0  0  0  0  0  0  0  0
   55.1795   27.5514   53.6781 H   0  0  0  0  0  0  0  0  0  0  0  0
   53.3875   27.8724   53.1162 H   0  0  0  0  0  0  0  0  0  0  0  0
   51.9517   30.1692   52.9940 H   0  0  0  0  0  0  0  0  0  0  0  0
   54.4360   32.4447   51.4925 H   0  0  0  0  0  0  0  0  0  0  0  0
   57.6802   32.3229   53.1036 H   0  0  0  0  0  0  0  0  0  0  0  0
   57.9670   31.4307   51.5711 H   0  0  0  0  0  0  0  0  0  0  0  0
   56.9519   32.9127   51.5711 H   0  0  0  0  0  0  0  0  0  0  0  0
   56.5560   29.0350   55.4224 H   0  0  0  0  0  0  0  0  0  0  0  0
   58.6883   27.9953   56.1865 H   0  0  0  0  0  0  0  0  0  0  0  0
   61.9220   29.2870   54.7410 H   0  0  0  0  0  0  0  0  0  0  0  0
   63.9193   28.6139   55.5247 H   0  0  0  0  0  0  0  0  0  0  0  0
   62.9085   27.3066   56.1878 H   0  0  0  0  0  0  0  0  0  0  0  0
   65.0771   26.9296   54.4507 H   0  0  0  0  0  0  0  0  0  0  0  0
   63.7892   25.7414   54.6812 H   0  0  0  0  0  0  0  0  0  0  0  0
   64.3474   27.2812   52.2816 H   0  0  0  0  0  0  0  0  0  0  0  0
   63.0414   29.1581   52.7954 H   0  0  0  0  0  0  0  0  0  0  0  0
   61.6774   28.0791   52.4113 H   0  0  0  0  0  0  0  0  0  0  0  0
   60.2008   28.1264   52.1292 H   0  0  0  0  0  0  0  0  0  0  0  0
   58.1062   29.2535   51.3848 H   0  0  0  0  0  0  0  0  0  0  0  0
  1  2  2  0
  2  3  1  0
  3  4  2  3
  4  5  1  0
  5  6  1  0
  6  7  1  0
  7  8  2  0
  7  9  1  0
  9 10  1  0
 10 11  1  0
  3 12  1  0
 12 13  2  0
 13 14  1  0
 13 15  1  0
 15 16  1  0
 16 17  2  0
 17 18  1  0
 18 19  2  0
 19 20  1  0
 20 21  2  0
 20 22  1  0
 22 23  1  0
 23 24  1  0
 24 25  1  0
 25 26  1  0
 25 27  1  0
 19 28  1  0
 28 29  2  0
 15  2  1  0
 29 16  1  0
 10  5  2  0
 27 22  1  0
  1 30  1  0
  1 31  1  0
  4 32  1  0
 12 33  1  0
 14 34  1  0
 14 35  1  0
 14 36  1  0
 17 37  1  0
 18 38  1  0
 22 39  1  1
 23 40  1  0
 23 41  1  0
 24 42  1  0
 24 43  1  0
 25 44  1  6
 27 45  1  0
 27 46  1  0
 28 47  1  0
 29 48  1  0
M  CHG  4   6  -1   9  -1  11  -1  22   1
M  END
>  <UniqueID>  (73) 
67

>  <SMILES>  (73) 
C=c1c(=Cc2[n-]c(=O)[n-]c2[O-])cc(C)n1-c1ccc(C(=O)[N@H+]2CC[C@@H](F)C2)cc1

>  <Energy>  (73) 
138.153382725532

>  <Genealogy>  (73) 
C=c1c(=Cc2[n-]c(=O)[n-]c2[O-])cc(C)n1-c1ccc(C(=O)[NH+]2CCC(F)C2)cc1 (protonated)
C=c1c(=Cc2[n-]c(=O)[n-]c2[O-])cc(C)n1-c1ccc(C(=O)[N@H+]2CC[C@@H](F)C2)cc1 (chirality)
C=c1c(=Cc2[n-]c(=O)[n-]c2[O-])cc(C)n1-c1ccc(C(=O)[N@H+]2CC[C@@H](F)C2)cc1 (3D coordinates assigned)
C=c1c(=Cc2[n-]c(=O)[n-]c2[O-])cc(C)n1-c1ccc(C(=O)[N@H+]2CC[C@@H](F)C2)cc1 (nonaromatic ring conformer: 138.153382725532 kcal/mol)

>  <smiles>  (73) 
C=c1c(=Cc2[nH]c(=O)[nH]c2O)cc(C)n1-c1ccc(C(=O)N2CCC(F)C2)cc1

>  <score_type>  (73) 
oracle

>  <origin>  (73) 
adg

>  <m_score__min__energy>  (73) 
-14.43

>  <m_primary>  (73) 
energy

$$$$
73:0
     RDKit          3D

 48 51  0  0  0  0  0  0  0  0999 V2000
   54.0070   26.3180   46.4160 H   0  0  0  0  0  0  0  0  0  0  0  0
   54.9250   26.6640   46.1700 O   0  0  0  0  0  0  0  0  0  0  0  0
   56.0850   25.9020   46.3100 C   0  0  0  0  0  0  0  0  0  0  0  0
   56.0320   24.7700   47.0590 N   0  0  0  0  0  0  0  0  0  0  0  0
   57.1320   23.9980   47.2530 C   0  0  0  0  0  0  0  0  0  0  0  0
   57.0510   22.9540   47.9500 O   0  0  0  0  0  0  0  0  0  0  0  0
   58.3190   24.3550   46.7020 N   0  0  0  0  0  0  0  0  0  0  0  0
   58.4310   25.4740   45.9410 C   0  0  0  0  0  0  0  0  0  0  0  0
   59.5500   25.7760   45.4470 O   0  0  0  0  0  0  0  0  0  0  0  0
   57.3030   26.2770   45.7030 C   0  0  0  0  0  0  0  0  0  0  0  0
   57.4260   27.5040   44.8940 C   0  0  0  0  0  0  0  0  0  0  0  0
   57.0108   27.4785   43.8757 H   0  0  0  0  0  0  0  0  0  0  0  0
   58.0030   28.6530   45.2950 C   0  0  0  0  0  0  0  0  0  0  0  0
   57.7330   29.8720   44.6940 C   0  0  0  0  0  0  0  0  0  0  0  0
   57.0136   30.0563   43.8825 H   0  0  0  0  0  0  0  0  0  0  0  0
   58.5370   30.8100   45.3060 C   0  0  0  0  0  0  0  0  0  0  0  0
   58.5690   32.2650   44.9510 C   0  0  0  0  0  0  0  0  0  0  0  0
   58.5822   32.8668   45.8717 H   0  0  0  0  0  0  0  0  0  0  0  0
   59.4721   32.4785   44.3603 H   0  0  0  0  0  0  0  0  0  0  0  0
   57.6762   32.5180   44.3603 H   0  0  0  0  0  0  0  0  0  0  0  0
   59.2720   30.2330   46.2820 N   0  0  0  0  0  0  0  0  0  0  0  0
   60.2130   30.9120   47.1330 C   0  0  0  0  0  0  0  0  0  0  0  0
   61.5660   30.9870   46.7730 C   0  0  0  0  0  0  0  0  0  0  0  0
   61.9087   30.5298   45.8330 H   0  0  0  0  0  0  0  0  0  0  0  0
   62.4810   31.6400   47.6030 C   0  0  0  0  0  0  0  0  0  0  0  0
   63.5392   31.6979   47.3084 H   0  0  0  0  0  0  0  0  0  0  0  0
   62.0610   32.2240   48.8120 C   0  0  0  0  0  0  0  0  0  0  0  0
   63.0340   32.9210   49.6890 C   0  0  0  0  0  0  0  0  0  0  0  0
   64.3000   32.6210   49.6090 N   0  0  0  0  0  0  0  0  0  0  0  0
   65.3400   33.2680   50.4110 C   0  0  0  0  0  0  0  0  0  0  0  0
   66.1516   32.5485   50.5942 H   0  0  0  0  0  0  0  0  0  0  0  0
   65.7143   34.1416   49.8572 H   0  0  0  0  0  0  0  0  0  0  0  0
   64.7840   33.7470   51.7550 C   0  0  0  0  0  0  0  0  0  0  0  0
   64.5175   32.8777   52.3742 H   0  0  0  0  0  0  0  0  0  0  0  0
   65.5444   34.3453   52.2783 H   0  0  0  0  0  0  0  0  0  0  0  0
   63.5400   34.5990   51.5070 C   0  0  0  0  0  0  0  0  0  0  0  0
   63.0733   34.8519   52.4705 H   0  0  0  0  0  0  0  0  0  0  0  0
   63.8314   35.5202   50.9812 H   0  0  0  0  0  0  0  0  0  0  0  0
   62.5850   33.8590   50.6860 N   0  0  0  0  0  0  0  0  0  0  0  0
   61.5720   33.9250   50.9250 H   0  0  0  0  0  0  0  0  0  0  0  0
   60.7000   32.1520   49.1630 C   0  0  0  0  0  0  0  0  0  0  0  0
   60.3527   32.6126   50.0996 H   0  0  0  0  0  0  0  0  0  0  0  0
   59.7870   31.5000   48.3310 C   0  0  0  0  0  0  0  0  0  0  0  0
   58.7265   31.4479   48.6184 H   0  0  0  0  0  0  0  0  0  0  0  0
   58.9470   28.9140   46.3040 C   0  0  0  0  0  0  0  0  0  0  0  0
   59.4080   28.0600   47.2340 C   0  0  0  0  0  0  0  0  0  0  0  0
   60.1520   28.3979   47.9704 H   0  0  0  0  0  0  0  0  0  0  0  0
   59.0412   27.0232   47.2587 H   0  0  0  0  0  0  0  0  0  0  0  0
  1  2  1  0
  2  3  1  0
  3  4  1  0
  4  5  1  0
  5  6  2  0
  5  7  1  0
  7  8  1  0
  8  9  2  0
  8 10  1  0
 10 11  1  0
 11 12  1  0
 11 13  2  0
 13 14  1  0
 14 15  1  0
 14 16  2  0
 16 17  1  0
 17 18  1  0
 17 19  1  0
 17 20  1  0
 16 21  1  0
 21 22  1  0
 22 23  2  0
 23 24  1  0
 23 25  1  0
 25 26  1  0
 25 27  2  0
 27 28  1  0
 28 29  2  0
 29 30  1  0
 30 31  1  0
 30 32  1  0
 30 33  1  0
 33 34  1  0
 33 35  1  0
 33 36  1  0
 36 37  1  0
 36 38  1  0
 36 39  1  0
 39 40  1  0
 27 41  1  0
 41 42  1  0
 41 43  2  0
 43 44  1  0
 21 45  1  0
 45 46  2  0
 46 47  1  0
 46 48  1  0
 10  3  2  0
 45 13  1  0
 43 22  1  0
 39 28  1  0
M  CHG  2   4  -1   7  -1
M  END
>  <UniqueID>  (74) 
68

>  <SMILES>  (74) 
C=c1/c(=C\c2c(O)[n-]c(=O)[n-]c2=O)cc(C)n1-c1ccc(C2=NCCCN2)cc1

>  <Energy>  (74) 
101.95340613041068

>  <Genealogy>  (74) 
C=c1c(=Cc2c(O)[n-]c(=O)[n-]c2=O)cc(C)n1-c1ccc(C2=NCCCN2)cc1 (protonated)
C=c1/c(=C\c2c(O)[n-]c(=O)[n-]c2=O)cc(C)n1-c1ccc(C2=NCCCN2)cc1 (cis-trans isomerization)
C=c1/c(=C\c2c(O)[n-]c(=O)[n-]c2=O)cc(C)n1-c1ccc(C2=NCCCN2)cc1 (3D coordinates assigned)
C=c1/c(=C\c2c(O)[n-]c(=O)[n-]c2=O)cc(C)n1-c1ccc(C2=NCCCN2)cc1 (nonaromatic ring conformer: 101.95340613041068 kcal/mol)

>  <smiles>  (74) 
C=c1c(=Cc2c(O)[nH]c(=O)[nH]c2=O)cc(C)n1-c1ccc(C2=NCCCN2)cc1

>  <score_type>  (74) 
oracle

>  <origin>  (74) 
adg

>  <m_score__min__energy>  (74) 
-13.15

>  <m_primary>  (74) 
energy

$$$$
74:0
     RDKit          3D

 35 37  0  0  1  0  0  0  0  0999 V2000
   56.9970   34.4180   45.2160 C   0  0  0  0  0  0  0  0  0  0  0  0
   58.1800   33.8430   45.9180 C   0  0  0  0  0  0  0  0  0  0  0  0
   58.8710   34.6210   46.7660 N   0  0  0  0  0  0  0  0  0  0  0  0
   59.9510   34.2180   47.4530 C   0  0  0  0  0  0  0  0  0  0  0  0
   60.5920   34.9600   48.2470 O   0  0  0  0  0  0  0  0  0  0  0  0
   60.3840   32.9250   47.2830 C   0  0  0  0  0  0  0  0  0  0  0  0
   59.6880   32.1130   46.4170 C   0  0  0  0  0  0  0  0  0  0  0  0
   58.5750   32.5300   45.7090 C   0  0  0  0  0  0  0  0  0  0  0  0
   57.8410   31.6650   44.7940 C   0  0  0  0  0  0  0  0  0  0  0  0
   57.7340   31.9630   43.4530 C   0  0  0  0  0  0  0  0  0  0  0  0
   57.0210   31.1100   42.6060 C   0  0  0  0  0  0  0  0  0  0  0  0
   56.4280   29.9910   43.0620 N   0  0  0  0  0  0  0  0  0  0  0  0
   56.5480   29.7240   44.3750 C   0  0  0  0  0  0  0  0  0  0  0  0
   56.0040   28.6640   44.8910 N   0  0  0  0  0  0  0  0  0  0  0  0
   56.8570   27.6740   45.4030 C   0  0  0  0  0  0  0  0  0  0  0  0
   58.2330   27.7280   45.3380 C   0  0  0  0  0  0  0  0  0  0  0  0
   59.0250   26.7350   45.8540 C   0  0  0  0  0  0  0  0  0  0  0  0
   58.4650   25.6300   46.4640 C   0  0  0  0  0  0  0  0  0  0  0  0
   57.0880   25.5770   46.5280 C   0  0  0  0  0  0  0  0  0  0  0  0
   56.2680   26.5660   46.0160 C   0  0  0  0  0  0  0  0  0  0  0  0
   57.2250   30.5270   45.1970 N   0  0  0  0  0  0  0  0  0  0  0  0
   56.2669   34.7729   45.9583 H   0  0  0  0  0  0  0  0  0  0  0  0
   57.3183   35.2605   44.5859 H   0  0  0  0  0  0  0  0  0  0  0  0
   56.5330   33.6449   44.5859 H   0  0  0  0  0  0  0  0  0  0  0  0
   58.5580   35.6230   46.9150 H   0  0  0  0  0  0  0  0  0  0  0  0
   61.2641   32.5488   47.8251 H   0  0  0  0  0  0  0  0  0  0  0  0
   60.0348   31.0781   46.2805 H   0  0  0  0  0  0  0  0  0  0  0  0
   58.2085   32.8699   43.0501 H   0  0  0  0  0  0  0  0  0  0  0  0
   56.9423   31.3599   41.5377 H   0  0  0  0  0  0  0  0  0  0  0  0
   55.8940   29.3560   42.4170 H   0  0  0  0  0  0  0  0  0  0  0  0
   58.7103   28.5947   44.8572 H   0  0  0  0  0  0  0  0  0  0  0  0
   60.1193   26.8195   45.7812 H   0  0  0  0  0  0  0  0  0  0  0  0
   59.0900   24.8266   46.8810 H   0  0  0  0  0  0  0  0  0  0  0  0
   56.6196   24.7060   47.0096 H   0  0  0  0  0  0  0  0  0  0  0  0
   55.1738   26.4816   46.0901 H   0  0  0  0  0  0  0  0  0  0  0  0
  1  2  1  0
  2  3  1  0
  3  4  1  0
  4  5  2  0
  4  6  1  0
  6  7  2  0
  7  8  1  0
  8  9  1  0
  9 10  1  0
 10 11  2  0
 11 12  1  0
 12 13  1  0
 13 14  2  0
 14 15  1  0
 15 16  2  0
 16 17  1  0
 17 18  2  0
 18 19  1  0
 19 20  2  0
 13 21  1  0
  8  2  2  0
 21  9  2  0
 20 15  1  0
  1 22  1  0
  1 23  1  0
  1 24  1  0
  3 25  1  0
  6 26  1  0
  7 27  1  0
 10 28  1  0
 11 29  1  0
 12 30  1  0
 16 31  1  0
 17 32  1  0
 18 33  1  0
 19 34  1  0
 20 35  1  0
M  END
>  <smiles>  (75) 
Cc1[nH]c(=O)ccc1-c1cc[nH]c(=Nc2ccccc2)n1

>  <score_type>  (75) 
oracle

>  <origin>  (75) 
adg

>  <m_score__min__energy>  (75) 
-7.5899999999999999

>  <m_primary>  (75) 
energy

$$$$
75:0
     RDKit          3D

 45 47  0  0  1  0  0  0  0  0999 V2000
   57.7770   31.9810   42.3840 C   0  0  0  0  0  0  0  0  0  0  0  0
   58.4900   31.3900   43.5220 N   0  0  0  0  0  0  0  0  0  0  0  0
   57.5790   30.1390   44.2540 S   0  0  0  0  0  0  0  0  0  0  0  0
   57.2790   29.1290   43.1730 O   0  0  0  0  0  0  0  0  0  0  0  0
   56.2770   30.6400   44.7980 O   0  0  0  0  0  0  0  0  0  0  0  0
   58.4540   29.3470   45.5670 C   0  0  0  0  0  0  0  0  0  0  0  0
   57.9820   28.1700   46.1110 C   0  0  0  0  0  0  0  0  0  0  0  0
   58.6940   27.5810   47.1360 C   0  0  0  0  0  0  0  0  0  0  0  0
   59.8510   28.1880   47.5800 C   0  0  0  0  0  0  0  0  0  0  0  0
   60.3160   29.3730   47.0240 C   0  0  0  0  0  0  0  0  0  0  0  0
   61.5200   29.9060   47.5630 N   0  0  0  0  0  0  0  0  0  0  0  0
   61.7140   31.1650   47.7380 C   0  0  0  0  0  0  0  0  0  0  0  0
   60.6680   31.9850   47.8930 N   0  0  0  0  0  0  0  0  0  0  0  0
   60.9000   33.2990   48.0750 C   0  0  0  0  0  0  0  0  0  0  0  0
   59.7840   34.2740   48.2550 C   0  0  0  0  0  0  0  0  0  0  0  0
   58.8580   34.2120   47.0880 C   0  0  0  0  0  0  0  0  0  0  0  0
   59.2360   34.9250   45.9450 C   0  0  0  0  0  0  0  0  0  0  0  0
   58.4010   34.8820   44.8610 C   0  0  0  0  0  0  0  0  0  0  0  0
   57.2100   34.1770   44.8360 C   0  0  0  0  0  0  0  0  0  0  0  0
   56.8570   33.4740   45.9920 C   0  0  0  0  0  0  0  0  0  0  0  0
   57.6810   33.4990   47.1000 C   0  0  0  0  0  0  0  0  0  0  0  0
   62.2200   33.7430   48.0940 C   0  0  0  0  0  0  0  0  0  0  0  0
   63.2900   32.8900   47.9330 C   0  0  0  0  0  0  0  0  0  0  0  0
   64.4810   33.3440   47.9580 N   0  0  0  0  0  0  0  0  0  0  0  0
   62.9970   31.5830   47.7550 N   0  0  0  0  0  0  0  0  0  0  0  0
   59.6120   29.9670   46.0020 C   0  0  0  0  0  0  0  0  0  0  0  0
   56.9795   32.6420   42.7542 H   0  0  0  0  0  0  0  0  0  0  0  0
   58.4816   32.5635   41.7723 H   0  0  0  0  0  0  0  0  0  0  0  0
   57.3353   31.1805   41.7723 H   0  0  0  0  0  0  0  0  0  0  0  0
   58.6690   32.1320   44.2080 H   0  0  0  0  0  0  0  0  0  0  0  0
   57.0562   27.7101   45.7350 H   0  0  0  0  0  0  0  0  0  0  0  0
   58.3448   26.6427   47.5918 H   0  0  0  0  0  0  0  0  0  0  0  0
   60.4207   27.7206   48.3967 H   0  0  0  0  0  0  0  0  0  0  0  0
   59.6920   31.6130   47.8720 H   0  0  0  0  0  0  0  0  0  0  0  0
   59.2300   34.0278   49.1729 H   0  0  0  0  0  0  0  0  0  0  0  0
   60.2008   35.2891   48.3311 H   0  0  0  0  0  0  0  0  0  0  0  0
   60.1728   35.5009   45.9183 H   0  0  0  0  0  0  0  0  0  0  0  0
   58.6931   35.4393   43.9587 H   0  0  0  0  0  0  0  0  0  0  0  0
   56.5675   34.1701   43.9432 H   0  0  0  0  0  0  0  0  0  0  0  0
   55.9196   32.8990   46.0190 H   0  0  0  0  0  0  0  0  0  0  0  0
   57.3928   32.9419   48.0037 H   0  0  0  0  0  0  0  0  0  0  0  0
   62.4157   34.8151   48.2432 H   0  0  0  0  0  0  0  0  0  0  0  0
   65.2530   32.7300   47.6210 H   0  0  0  0  0  0  0  0  0  0  0  0
   63.8080   30.9350   47.6330 H   0  0  0  0  0  0  0  0  0  0  0  0
   59.9589   30.9055   45.5450 H   0  0  0  0  0  0  0  0  0  0  0  0
  1  2  1  0
  2  3  1  0
  3  4  2  0
  3  5  2  0
  3  6  1  0
  6  7  2  0
  7  8  1  0
  8  9  2  0
  9 10  1  0
 10 11  1  0
 11 12  2  0
 12 13  1  0
 13 14  1  0
 14 15  1  0
 15 16  1  0
 16 17  2  0
 17 18  1  0
 18 19  2  0
 19 20  1  0
 20 21  2  0
 14 22  2  0
 22 23  1  0
 23 24  2  3
 23 25  1  0
 10 26  2  0
 26  6  1  0
 25 12  1  0
 21 16  1  0
  1 27  1  0
  1 28  1  0
  1 29  1  0
  2 30  1  0
  7 31  1  0
  8 32  1  0
  9 33  1  0
 13 34  1  0
 15 35  1  0
 15 36  1  0
 17 37  1  0
 18 38  1  0
 19 39  1  0
 20 40  1  0
 21 41  1  0
 22 42  1  0
 24 43  1  0
 25 44  1  0
 26 45  1  0
M  END
>  <smiles>  (76) 
CNS(=O)(=O)c1cccc(N=c2[nH]c(Cc3ccccc3)cc(=N)[nH]2)c1

>  <score_type>  (76) 
oracle

>  <origin>  (76) 
adg

>  <m_score__min__energy>  (76) 
-9.1199999999999992

>  <m_primary>  (76) 
energy

$$$$
76:0
     RDKit          3D

 43 46  0  0  0  0  0  0  0  0999 V2000
   59.7550   27.1900   47.4390 H   0  0  0  0  0  0  0  0  0  0  0  0
   59.2440   26.6280   46.7700 O   0  0  0  0  0  0  0  0  0  0  0  0
   58.0130   27.0530   46.2830 C   0  0  0  0  0  0  0  0  0  0  0  0
   57.7390   28.3220   45.9350 N   0  0  0  0  0  0  0  0  0  0  0  0
   56.4490   28.2580   45.5390 C   0  0  0  0  0  0  0  0  0  0  0  0
   55.8030   29.3150   45.1420 N   0  0  0  0  0  0  0  0  0  0  0  0
   56.0940   30.1600   44.0160 C   0  0  0  0  0  0  0  0  0  0  0  0
   55.5190   29.9120   42.9220 O   0  0  0  0  0  0  0  0  0  0  0  0
   57.0570   31.3180   44.0950 C   0  0  0  0  0  0  0  0  0  0  0  0
   57.8245   31.1991   43.3160 H   0  0  0  0  0  0  0  0  0  0  0  0
   56.4912   32.2496   43.9464 H   0  0  0  0  0  0  0  0  0  0  0  0
   57.7120   31.3800   45.4040 N   0  0  0  0  0  0  0  0  0  0  0  0
   57.7200   30.5010   45.9690 H   0  0  0  0  0  0  0  0  0  0  0  0
   58.3010   32.5730   45.9620 C   0  0  0  0  0  0  0  0  0  0  0  0
   58.4780   32.7310   47.3530 C   0  0  0  0  0  0  0  0  0  0  0  0
   58.1613   31.9310   48.0383 H   0  0  0  0  0  0  0  0  0  0  0  0
   59.0530   33.8970   47.8660 C   0  0  0  0  0  0  0  0  0  0  0  0
   59.1876   34.0105   48.9518 H   0  0  0  0  0  0  0  0  0  0  0  0
   59.4570   34.9180   47.0040 C   0  0  0  0  0  0  0  0  0  0  0  0
   59.9091   35.8347   47.4105 H   0  0  0  0  0  0  0  0  0  0  0  0
   59.2870   34.7750   45.6260 C   0  0  0  0  0  0  0  0  0  0  0  0
   59.6062   35.5802   44.9480 H   0  0  0  0  0  0  0  0  0  0  0  0
   58.7120   33.6110   45.1040 C   0  0  0  0  0  0  0  0  0  0  0  0
   58.5580   33.4990   43.7600 F   0  0  0  0  0  0  0  0  0  0  0  0
   55.9020   27.0230   45.6270 N   0  0  0  0  0  0  0  0  0  0  0  0
   56.9080   26.2610   46.0890 C   0  0  0  0  0  0  0  0  0  0  0  0
   56.7750   24.8060   46.4110 C   0  0  0  0  0  0  0  0  0  0  0  0
   57.6277   24.4902   47.0301 H   0  0  0  0  0  0  0  0  0  0  0  0
   55.8357   24.6412   46.9592 H   0  0  0  0  0  0  0  0  0  0  0  0
   56.7550   24.0030   45.1470 C   0  0  0  0  0  0  0  0  0  0  0  0
   56.7620   24.5040   43.8460 C   0  0  0  0  0  0  0  0  0  0  0  0
   56.8539   25.5686   43.5850 H   0  0  0  0  0  0  0  0  0  0  0  0
   56.6400   23.4980   42.9490 N   0  0  0  0  0  0  0  0  0  0  0  0
   56.6080   23.5830   41.9080 H   0  0  0  0  0  0  0  0  0  0  0  0
   56.5400   22.3760   43.6780 C   0  0  0  0  0  0  0  0  0  0  0  0
   56.3750   21.1200   43.1930 N   0  0  0  0  0  0  0  0  0  0  0  0
   56.2660   20.0780   44.0710 C   0  0  0  0  0  0  0  0  0  0  0  0
   56.1361   19.0544   43.6899 H   0  0  0  0  0  0  0  0  0  0  0  0
   56.3190   20.3060   45.4650 C   0  0  0  0  0  0  0  0  0  0  0  0
   56.2282   19.4627   46.1654 H   0  0  0  0  0  0  0  0  0  0  0  0
   56.4880   21.6130   45.9540 C   0  0  0  0  0  0  0  0  0  0  0  0
   56.5308   21.8183   47.0338 H   0  0  0  0  0  0  0  0  0  0  0  0
   56.5990   22.6370   45.0180 C   0  0  0  0  0  0  0  0  0  0  0  0
  1  2  1  0
  2  3  1  0
  3  4  1  0
  4  5  1  0
  5  6  2  0
  6  7  1  0
  7  8  2  0
  7  9  1  0
  9 10  1  0
  9 11  1  0
  9 12  1  0
 12 13  1  0
 12 14  1  0
 14 15  2  0
 15 16  1  0
 15 17  1  0
 17 18  1  0
 17 19  2  0
 19 20  1  0
 19 21  1  0
 21 22  1  0
 21 23  2  0
 23 24  1  0
  5 25  1  0
 25 26  1  0
 26 27  1  0
 27 28  1  0
 27 29  1  0
 27 30  1  0
 30 31  2  0
 31 32  1  0
 31 33  1  0
 33 34  1  0
 33 35  1  0
 35 36  2  0
 36 37  1  0
 37 38  1  0
 37 39  2  0
 39 40  1  0
 39 41  1  0
 41 42  1  0
 41 43  2  0
 26  3  2  0
 43 30  1  0
 23 14  1  0
 43 35  1  0
M  CHG  2   4  -1  25  -1
M  END
>  <UniqueID>  (77) 
69

>  <SMILES>  (77) 
O=C(CNc1ccccc1F)/N=c1/[n-]c(O)c(Cc2c[nH]c3ncccc23)[n-]1

>  <Energy>  (77) 
112.02930339464326

>  <Genealogy>  (77) 
O=C(CNc1ccccc1F)N=c1[n-]c(O)c(Cc2c[nH]c3ncccc23)[n-]1 (protonated)
O=C(CNc1ccccc1F)/N=c1/[n-]c(O)c(Cc2c[nH]c3ncccc23)[n-]1 (cis-trans isomerization)
O=C(CNc1ccccc1F)/N=c1/[n-]c(O)c(Cc2c[nH]c3ncccc23)[n-]1 (3D coordinates assigned)
O=C(CNc1ccccc1F)/N=c1/[n-]c(O)c(Cc2c[nH]c3ncccc23)[n-]1 (optimized conformer: 112.02930339464326 kcal/mol)

>  <smiles>  (77) 
O=C(CNc1ccccc1F)N=c1[nH]c(O)c(Cc2c[nH]c3ncccc23)[nH]1

>  <score_type>  (77) 
oracle

>  <origin>  (77) 
adg

>  <m_score__min__energy>  (77) 
-11.57

>  <m_primary>  (77) 
energy

$$$$
77:0
     RDKit          3D

 40 43  0  0  0  0  0  0  0  0999 V2000
   55.1550   28.1720   44.8230 H   0  0  0  0  0  0  0  0  0  0  0  0
   55.1710   29.1590   44.4830 N   0  0  0  0  0  0  0  0  0  0  0  0
   56.2440   29.8740   44.5550 C   0  0  0  0  0  0  0  0  0  0  0  0
   57.0570   29.8670   45.6300 N   0  0  0  0  0  0  0  0  0  0  0  0
   58.1130   30.7090   45.4590 C   0  0  0  0  0  0  0  0  0  0  0  0
   59.1490   30.8600   46.4950 C   0  0  0  0  0  0  0  0  0  0  0  0
   59.5820   29.9160   47.4370 C   0  0  0  0  0  0  0  0  0  0  0  0
   59.1450   28.4750   47.5410 C   0  0  0  0  0  0  0  0  0  0  0  0
   59.9230   27.9049   48.0700 H   0  0  0  0  0  0  0  0  0  0  0  0
   58.1911   28.4471   48.0882 H   0  0  0  0  0  0  0  0  0  0  0  0
   58.9290   27.8700   46.2190 N   0  0  0  0  0  0  0  0  0  0  0  0
   58.0820   28.3020   45.7770 H   0  0  0  0  0  0  0  0  0  0  0  0
   58.7330   26.4180   46.3070 C   0  0  0  0  0  0  0  0  0  0  0  0
   59.3372   25.9192   45.5349 H   0  0  0  0  0  0  0  0  0  0  0  0
   59.0447   26.0661   47.3015 H   0  0  0  0  0  0  0  0  0  0  0  0
   57.2890   26.0950   46.0950 C   0  0  0  0  0  0  0  0  0  0  0  0
   56.2940   26.9990   46.1800 N   0  0  0  0  0  0  0  0  0  0  0  0
   55.1450   26.3680   45.9920 N   0  0  0  0  0  0  0  0  0  0  0  0
   55.4080   25.0590   45.8090 C   0  0  0  0  0  0  0  0  0  0  0  0
   54.3680   24.0320   45.5110 C   0  0  0  0  0  0  0  0  0  0  0  0
   53.9649   23.6340   46.4539 H   0  0  0  0  0  0  0  0  0  0  0  0
   53.5550   24.4914   44.9297 H   0  0  0  0  0  0  0  0  0  0  0  0
   54.8171   23.2133   44.9297 H   0  0  0  0  0  0  0  0  0  0  0  0
   56.7670   24.8400   45.8620 C   0  0  0  0  0  0  0  0  0  0  0  0
   57.3078   23.8892   45.7459 H   0  0  0  0  0  0  0  0  0  0  0  0
   60.6100   30.4130   48.1650 N   0  0  0  0  0  0  0  0  0  0  0  0
   61.1500   29.9180   48.9090 H   0  0  0  0  0  0  0  0  0  0  0  0
   60.8330   31.6530   47.6980 C   0  0  0  0  0  0  0  0  0  0  0  0
   61.8080   32.5520   48.1290 C   0  0  0  0  0  0  0  0  0  0  0  0
   62.4991   32.2923   48.9444 H   0  0  0  0  0  0  0  0  0  0  0  0
   61.8790   33.8020   47.4870 C   0  0  0  0  0  0  0  0  0  0  0  0
   62.6352   34.5358   47.8027 H   0  0  0  0  0  0  0  0  0  0  0  0
   60.9870   34.1210   46.4410 C   0  0  0  0  0  0  0  0  0  0  0  0
   61.0508   35.1026   45.9487 H   0  0  0  0  0  0  0  0  0  0  0  0
   60.0170   33.1920   46.0240 C   0  0  0  0  0  0  0  0  0  0  0  0
   59.3173   33.4296   45.2092 H   0  0  0  0  0  0  0  0  0  0  0  0
   59.9700   31.9580   46.6770 C   0  0  0  0  0  0  0  0  0  0  0  0
   58.1430   31.3740   44.2330 C   0  0  0  0  0  0  0  0  0  0  0  0
   58.9160   32.0837   43.9032 H   0  0  0  0  0  0  0  0  0  0  0  0
   56.7920   30.9030   43.3450 S   0  0  0  0  0  0  0  0  0  0  0  0
  1  2  1  0
  2  3  2  0
  3  4  1  0
  4  5  1  0
  5  6  1  0
  6  7  2  0
  7  8  1  0
  8  9  1  0
  8 10  1  0
  8 11  1  0
 11 12  1  0
 11 13  1  0
 13 14  1  0
 13 15  1  0
 13 16  1  0
 16 17  2  0
 17 18  1  0
 18 19  1  0
 19 20  1  0
 20 21  1  0
 20 22  1  0
 20 23  1  0
 19 24  2  0
 24 25  1  0
  7 26  1  0
 26 27  1  0
 26 28  1  0
 28 29  2  0
 29 30  1  0
 29 31  1  0
 31 32  1  0
 31 33  2  0
 33 34  1  0
 33 35  1  0
 35 36  1  0
 35 37  2  0
  5 38  2  0
 38 39  1  0
 38 40  1  0
 40  3  1  0
 37  6  1  0
 24 16  1  0
 37 28  1  0
M  CHG  2   4  -1  18  -1
M  END
>  <UniqueID>  (78) 
70

>  <SMILES>  (78) 
[H]/N=c1/[n-]c(-c2c(CNCc3cc(C)[n-]n3)[nH]c3ccccc23)cs1

>  <Energy>  (78) 
136.65667486262444

>  <Genealogy>  (78) 
Cc1cc(CNCc2[nH]c3ccccc3c2-c2csc(=N)[n-]2)n[n-]1 (protonated)
[H]/N=c1/[n-]c(-c2c(CNCc3cc(C)[n-]n3)[nH]c3ccccc23)cs1 (cis-trans isomerization)
[H]/N=c1/[n-]c(-c2c(CNCc3cc(C)[n-]n3)[nH]c3ccccc23)cs1 (3D coordinates assigned)
[H]/N=c1/[n-]c(-c2c(CNCc3cc(C)[n-]n3)[nH]c3ccccc23)cs1 (optimized conformer: 136.65667486262444 kcal/mol)

>  <smiles>  (78) 
Cc1cc(CNCc2[nH]c3ccccc3c2-c2csc(=N)[nH]2)n[nH]1

>  <score_type>  (78) 
oracle

>  <origin>  (78) 
adg

>  <m_score__min__energy>  (78) 
-13.15

>  <m_primary>  (78) 
energy

$$$$
78:0
     RDKit          3D

 45 47  0  0  1  0  0  0  0  0999 V2000
   65.0990   32.8340   49.5030 C   0  0  0  0  0  0  0  0  0  0  0  0
   63.7530   33.2800   49.0550 C   0  0  0  0  0  0  0  0  0  0  0  0
   63.3190   33.2140   47.7570 C   0  0  0  0  0  0  0  0  0  0  0  0
   62.0600   33.6390   47.3790 C   0  0  0  0  0  0  0  0  0  0  0  0
   61.2280   34.1410   48.3500 C   0  0  0  0  0  0  0  0  0  0  0  0
   59.8520   34.6310   48.0950 C   0  0  0  0  0  0  0  0  0  0  0  0
   59.2570   33.9270   46.9940 N   0  0  0  0  0  0  0  0  0  0  0  0
   59.1740   34.4210   45.6660 C   0  0  0  0  0  0  0  0  0  0  0  0
   59.6170   35.5410   45.3070 O   0  0  0  0  0  0  0  0  0  0  0  0
   58.5620   33.6240   44.6640 N   0  0  0  0  0  0  0  0  0  0  0  0
   58.2250   32.4020   44.8630 C   0  0  0  0  0  0  0  0  0  0  0  0
   56.9840   31.9440   44.4890 C   0  0  0  0  0  0  0  0  0  0  0  0
   56.7010   30.6210   44.7490 C   0  0  0  0  0  0  0  0  0  0  0  0
   55.5960   29.8810   44.5140 N   0  0  0  0  0  0  0  0  0  0  0  0
   55.8450   28.6750   44.9590 N   0  0  0  0  0  0  0  0  0  0  0  0
   57.0950   28.5970   45.4860 C   0  0  0  0  0  0  0  0  0  0  0  0
   57.5560   27.5180   45.9840 N   0  0  0  0  0  0  0  0  0  0  0  0
   57.4940   26.2850   45.2530 C   0  0  0  0  0  0  0  0  0  0  0  0
   56.3960   25.4800   46.0000 C   0  0  0  0  0  0  0  0  0  0  0  0
   55.3790   26.3930   46.2720 O   0  0  0  0  0  0  0  0  0  0  0  0
   57.6640   29.8380   45.3620 C   0  0  0  0  0  0  0  0  0  0  0  0
   58.8920   30.3110   45.7270 C   0  0  0  0  0  0  0  0  0  0  0  0
   59.1520   31.6130   45.4630 N   0  0  0  0  0  0  0  0  0  0  0  0
   61.6670   34.2110   49.6720 C   0  0  0  0  0  0  0  0  0  0  0  0
   62.9210   33.7890   50.0580 C   0  0  0  0  0  0  0  0  0  0  0  0
   65.1343   32.8223   50.6024 H   0  0  0  0  0  0  0  0  0  0  0  0
   65.2967   31.8223   49.1190 H   0  0  0  0  0  0  0  0  0  0  0  0
   65.8617   33.5275   49.1190 H   0  0  0  0  0  0  0  0  0  0  0  0
   63.9958   32.8090   46.9902 H   0  0  0  0  0  0  0  0  0  0  0  0
   61.7331   33.5772   46.3305 H   0  0  0  0  0  0  0  0  0  0  0  0
   59.2406   34.4747   48.9960 H   0  0  0  0  0  0  0  0  0  0  0  0
   59.8989   35.7013   47.8457 H   0  0  0  0  0  0  0  0  0  0  0  0
   58.8540   32.9640   47.2050 H   0  0  0  0  0  0  0  0  0  0  0  0
   56.2499   32.6042   44.0039 H   0  0  0  0  0  0  0  0  0  0  0  0
   54.7190   30.2550   44.0520 H   0  0  0  0  0  0  0  0  0  0  0  0
   55.1450   27.8930   44.8990 H   0  0  0  0  0  0  0  0  0  0  0  0
   57.2085   26.4621   44.2055 H   0  0  0  0  0  0  0  0  0  0  0  0
   58.4598   25.7599   45.2129 H   0  0  0  0  0  0  0  0  0  0  0  0
   56.0196   24.6643   45.3652 H   0  0  0  0  0  0  0  0  0  0  0  0
   56.7851   25.0194   46.9200 H   0  0  0  0  0  0  0  0  0  0  0  0
   55.6520   27.0940   46.9040 H   0  0  0  0  0  0  0  0  0  0  0  0
   59.6362   29.6633   46.2135 H   0  0  0  0  0  0  0  0  0  0  0  0
   60.0960   32.0270   45.7270 H   0  0  0  0  0  0  0  0  0  0  0  0
   60.9871   34.6181   50.4349 H   0  0  0  0  0  0  0  0  0  0  0  0
   63.2520   33.8495   51.1053 H   0  0  0  0  0  0  0  0  0  0  0  0
  1  2  1  0
  2  3  2  0
  3  4  1  0
  4  5  2  0
  5  6  1  0
  6  7  1  0
  7  8  1  0
  8  9  2  0
  8 10  1  0
 10 11  2  0
 11 12  1  0
 12 13  2  0
 13 14  1  0
 14 15  1  0
 15 16  1  0
 16 17  2  0
 17 18  1  0
 18 19  1  0
 19 20  1  0
 16 21  1  0
 21 22  2  0
 22 23  1  0
  5 24  1  0
 24 25  2  0
 25  2  1  0
 23 11  1  0
 21 13  1  0
  1 26  1  0
  1 27  1  0
  1 28  1  0
  3 29  1  0
  4 30  1  0
  6 31  1  0
  6 32  1  0
  7 33  1  0
 12 34  1  0
 14 35  1  0
 15 36  1  0
 18 37  1  0
 18 38  1  0
 19 39  1  0
 19 40  1  0
 20 41  1  0
 22 42  1  0
 23 43  1  0
 24 44  1  0
 25 45  1  0
M  END
>  <smiles>  (79) 
Cc1ccc(CNC(=O)N=c2cc3[nH][nH]c(=NCCO)c3c[nH]2)cc1

>  <score_type>  (79) 
oracle

>  <origin>  (79) 
adg

>  <m_score__min__energy>  (79) 
-9.1199999999999992

>  <m_primary>  (79) 
energy

$$$$
79:0
     RDKit          3D

 55 58  0  0  0  0  0  0  0  0999 V2000
   55.1420   26.6240   46.0000 O   0  0  0  0  0  0  0  0  0  0  0  0
   56.1940   25.9330   46.1040 C   0  0  0  0  0  0  0  0  0  0  0  0
   57.1670   25.9060   44.9660 C   0  0  0  0  0  0  0  0  0  0  0  0
   58.0820   27.0970   45.0450 C   0  0  0  0  0  0  0  0  0  0  0  0
   59.3140   26.9980   45.7130 C   0  0  0  0  0  0  0  0  0  0  0  0
   60.1370   28.1210   45.8400 C   0  0  0  0  0  0  0  0  0  0  0  0
   59.7390   29.3470   45.3010 C   0  0  0  0  0  0  0  0  0  0  0  0
   58.5250   29.4530   44.6030 C   0  0  0  0  0  0  0  0  0  0  0  0
   58.0890   30.7050   44.0580 N   0  0  0  0  0  0  0  0  0  0  0  0
   57.0360   31.5280   44.5780 C   0  0  0  0  0  0  0  0  0  0  0  0
   55.8550   31.0870   44.5470 O   0  0  0  0  0  0  0  0  0  0  0  0
   57.2810   32.9550   45.0010 C   0  0  0  0  0  0  0  0  0  0  0  0
   58.4710   33.0700   45.9220 C   0  0  0  0  0  0  0  0  0  0  0  0
   58.5940   32.2360   47.0430 C   0  0  0  0  0  0  0  0  0  0  0  0
   59.6920   32.3530   47.8990 C   0  0  0  0  0  0  0  0  0  0  0  0
   60.6890   33.3080   47.6460 C   0  0  0  0  0  0  0  0  0  0  0  0
   61.8400   33.4270   48.4980 N   0  0  0  0  0  0  0  0  0  0  0  0
   63.1840   33.1930   48.0570 C   0  0  0  0  0  0  0  0  0  0  0  0
   63.4050   32.6460   46.9410 O   0  0  0  0  0  0  0  0  0  0  0  0
   64.2730   33.5830   48.9050 N   0  0  0  0  0  0  0  0  0  0  0  0
   65.0190   32.7300   49.7860 C   0  0  0  0  0  0  0  0  0  0  0  0
   66.3610   33.0400   50.0440 C   0  0  0  0  0  0  0  0  0  0  0  0
   67.1160   32.2470   50.9150 C   0  0  0  0  0  0  0  0  0  0  0  0
   66.5300   31.1430   51.5460 C   0  0  0  0  0  0  0  0  0  0  0  0
   65.1880   30.8390   51.3120 C   0  0  0  0  0  0  0  0  0  0  0  0
   64.4280   31.6310   50.4440 C   0  0  0  0  0  0  0  0  0  0  0  0
   60.5850   34.1160   46.5060 C   0  0  0  0  0  0  0  0  0  0  0  0
   59.4820   34.0050   45.6560 C   0  0  0  0  0  0  0  0  0  0  0  0
   57.6860   28.3340   44.5070 C   0  0  0  0  0  0  0  0  0  0  0  0
   56.4580   25.1550   47.2760 N   0  0  0  0  0  0  0  0  0  0  0  0
   56.1500   23.9040   47.4550 C   0  0  0  0  0  0  0  0  0  0  0  0
   57.0240   22.9680   47.8870 N   0  0  0  0  0  0  0  0  0  0  0  0
   56.2820   21.8470   47.9420 C   0  0  0  0  0  0  0  0  0  0  0  0
   54.9940   22.1320   47.5480 C   0  0  0  0  0  0  0  0  0  0  0  0
   54.9030   23.4370   47.2370 N   0  0  0  0  0  0  0  0  0  0  0  0
   57.7640   24.9836   45.0186 H   0  0  0  0  0  0  0  0  0  0  0  0
   56.6134   25.9376   44.0160 H   0  0  0  0  0  0  0  0  0  0  0  0
   59.6319   26.0342   46.1373 H   0  0  0  0  0  0  0  0  0  0  0  0
   61.0999   28.0391   46.3654 H   0  0  0  0  0  0  0  0  0  0  0  0
   60.3793   30.2330   45.4239 H   0  0  0  0  0  0  0  0  0  0  0  0
   57.4642   33.5657   44.1046 H   0  0  0  0  0  0  0  0  0  0  0  0
   56.3923   33.3078   45.5448 H   0  0  0  0  0  0  0  0  0  0  0  0
   57.8192   31.4832   47.2500 H   0  0  0  0  0  0  0  0  0  0  0  0
   59.7755   31.6935   48.7754 H   0  0  0  0  0  0  0  0  0  0  0  0
   61.6870   33.6040   49.5180 H   0  0  0  0  0  0  0  0  0  0  0  0
   66.8237   33.9121   49.5588 H   0  0  0  0  0  0  0  0  0  0  0  0
   68.1717   32.4913   51.1044 H   0  0  0  0  0  0  0  0  0  0  0  0
   67.1264   30.5161   52.2252 H   0  0  0  0  0  0  0  0  0  0  0  0
   64.7264   29.9743   51.8113 H   0  0  0  0  0  0  0  0  0  0  0  0
   63.3669   31.3960   50.2743 H   0  0  0  0  0  0  0  0  0  0  0  0
   61.3781   34.8435   46.2786 H   0  0  0  0  0  0  0  0  0  0  0  0
   59.4059   34.6553   44.7721 H   0  0  0  0  0  0  0  0  0  0  0  0
   56.7104   28.4245   44.0069 H   0  0  0  0  0  0  0  0  0  0  0  0
   56.6474   20.8572   48.2532 H   0  0  0  0  0  0  0  0  0  0  0  0
   54.1690   21.4062   47.4958 H   0  0  0  0  0  0  0  0  0  0  0  0
  1  2  2  0
  2  3  1  0
  3  4  1  0
  4  5  2  0
  5  6  1  0
  6  7  2  0
  7  8  1  0
  8  9  1  0
  9 10  1  0
 10 11  2  0
 10 12  1  0
 12 13  1  0
 13 14  2  0
 14 15  1  0
 15 16  2  0
 16 17  1  0
 17 18  1  0
 18 19  2  0
 18 20  1  0
 20 21  1  0
 21 22  2  0
 22 23  1  0
 23 24  2  0
 24 25  1  0
 25 26  2  0
 16 27  1  0
 27 28  2  0
  8 29  2  0
  2 30  1  0
 30 31  2  3
 31 32  1  0
 32 33  1  0
 33 34  2  0
 34 35  1  0
 29  4  1  0
 35 31  1  0
 28 13  1  0
 26 21  1  0
  3 36  1  0
  3 37  1  0
  5 38  1  0
  6 39  1  0
  7 40  1  0
 12 41  1  0
 12 42  1  0
 14 43  1  0
 15 44  1  0
 17 45  1  0
 22 46  1  0
 23 47  1  0
 24 48  1  0
 25 49  1  0
 26 50  1  0
 27 51  1  0
 28 52  1  0
 29 53  1  0
 33 54  1  0
 34 55  1  0
M  CHG  4   9  -1  20  -1  32  -1  35  -1
M  END
>  <UniqueID>  (80) 
71

>  <SMILES>  (80) 
O=C(Cc1cccc([N-]C(=O)Cc2ccc(NC(=O)[N-]c3ccccc3)cc2)c1)N=c1[n-]cc[n-]1

>  <Energy>  (80) 
98.71965675365156

>  <Genealogy>  (80) 
O=C(Cc1cccc([N-]C(=O)Cc2ccc(NC(=O)[N-]c3ccccc3)cc2)c1)N=c1[n-]cc[n-]1 (protonated)
O=C(Cc1cccc([N-]C(=O)Cc2ccc(NC(=O)[N-]c3ccccc3)cc2)c1)N=c1[n-]cc[n-]1 (3D coordinates assigned)
O=C(Cc1cccc([N-]C(=O)Cc2ccc(NC(=O)[N-]c3ccccc3)cc2)c1)N=c1[n-]cc[n-]1 (optimized conformer: 98.71965675365156 kcal/mol)

>  <smiles>  (80) 
O=C(Cc1cccc(NC(=O)Cc2ccc(NC(=O)Nc3ccccc3)cc2)c1)N=c1[nH]cc[nH]1

>  <score_type>  (80) 
oracle

>  <origin>  (80) 
adg

>  <m_score__min__energy>  (80) 
-15.050000000000001

>  <m_primary>  (80) 
energy

$$$$
80:0
     RDKit          3D

 49 52  0  0  0  0  0  0  0  0999 V2000
   54.0510   26.3380   46.3650 H   0  0  0  0  0  0  0  0  0  0  0  0
   54.4870   25.7140   45.6990 O   0  0  0  0  0  0  0  0  0  0  0  0
   54.2370   24.3410   45.6740 C   0  0  0  0  0  0  0  0  0  0  0  0
   52.9470   23.9170   45.6550 N   0  0  0  0  0  0  0  0  0  0  0  0
   52.6390   22.5960   45.6350 C   0  0  0  0  0  0  0  0  0  0  0  0
   51.4340   22.2330   45.6230 O   0  0  0  0  0  0  0  0  0  0  0  0
   53.6270   21.6680   45.6230 N   0  0  0  0  0  0  0  0  0  0  0  0
   54.9330   22.0330   45.6380 C   0  0  0  0  0  0  0  0  0  0  0  0
   55.8230   21.1410   45.5970 O   0  0  0  0  0  0  0  0  0  0  0  0
   55.2820   23.3960   45.6810 C   0  0  0  0  0  0  0  0  0  0  0  0
   56.6970   23.8250   45.6650 C   0  0  0  0  0  0  0  0  0  0  0  0
   57.4456   23.1788   46.1466 H   0  0  0  0  0  0  0  0  0  0  0  0
   57.1130   24.9690   45.0890 C   0  0  0  0  0  0  0  0  0  0  0  0
   57.4200   25.1440   43.7450 C   0  0  0  0  0  0  0  0  0  0  0  0
   57.3605   24.3832   42.9528 H   0  0  0  0  0  0  0  0  0  0  0  0
   57.8140   26.4580   43.5980 C   0  0  0  0  0  0  0  0  0  0  0  0
   58.1950   27.0870   42.2920 C   0  0  0  0  0  0  0  0  0  0  0  0
   58.7564   28.0138   42.4814 H   0  0  0  0  0  0  0  0  0  0  0  0
   58.8223   26.3891   41.7181 H   0  0  0  0  0  0  0  0  0  0  0  0
   57.2859   27.3197   41.7181 H   0  0  0  0  0  0  0  0  0  0  0  0
   57.7560   27.1040   44.7850 N   0  0  0  0  0  0  0  0  0  0  0  0
   58.0590   28.4930   45.0030 C   0  0  0  0  0  0  0  0  0  0  0  0
   59.2360   28.8640   45.6670 C   0  0  0  0  0  0  0  0  0  0  0  0
   59.9343   28.0900   46.0180 H   0  0  0  0  0  0  0  0  0  0  0  0
   59.5260   30.2140   45.8850 C   0  0  0  0  0  0  0  0  0  0  0  0
   60.4549   30.4978   46.4013 H   0  0  0  0  0  0  0  0  0  0  0  0
   58.6370   31.2100   45.4480 C   0  0  0  0  0  0  0  0  0  0  0  0
   58.9210   32.6010   45.6800 N   0  0  0  0  0  0  0  0  0  0  0  0
   59.7600   33.0050   46.8120 C   0  0  0  0  0  0  0  0  0  0  0  0
   59.1342   33.1143   47.7100 H   0  0  0  0  0  0  0  0  0  0  0  0
   60.5282   32.2376   46.9878 H   0  0  0  0  0  0  0  0  0  0  0  0
   60.4410   34.3420   46.5000 C   0  0  0  0  0  0  0  0  0  0  0  0
   60.9507   34.7055   47.4045 H   0  0  0  0  0  0  0  0  0  0  0  0
   61.1642   34.1849   45.6862 H   0  0  0  0  0  0  0  0  0  0  0  0
   59.4960   35.3080   46.0820 O   0  0  0  0  0  0  0  0  0  0  0  0
   58.9050   34.9070   44.8590 C   0  0  0  0  0  0  0  0  0  0  0  0
   58.2431   35.7080   44.4981 H   0  0  0  0  0  0  0  0  0  0  0  0
   59.7032   34.7127   44.1275 H   0  0  0  0  0  0  0  0  0  0  0  0
   58.0880   33.6270   45.0470 C   0  0  0  0  0  0  0  0  0  0  0  0
   57.2183   33.8384   45.6865 H   0  0  0  0  0  0  0  0  0  0  0  0
   57.7447   33.2653   44.0665 H   0  0  0  0  0  0  0  0  0  0  0  0
   57.4630   30.8350   44.7750 C   0  0  0  0  0  0  0  0  0  0  0  0
   56.7646   31.6078   44.4214 H   0  0  0  0  0  0  0  0  0  0  0  0
   57.1770   29.4850   44.5520 C   0  0  0  0  0  0  0  0  0  0  0  0
   56.2568   29.2001   44.0209 H   0  0  0  0  0  0  0  0  0  0  0  0
   57.3350   26.2030   45.7080 C   0  0  0  0  0  0  0  0  0  0  0  0
   57.1280   26.4920   47.0030 C   0  0  0  0  0  0  0  0  0  0  0  0
   57.3389   27.5031   47.3814 H   0  0  0  0  0  0  0  0  0  0  0  0
   56.7475   25.7176   47.6853 H   0  0  0  0  0  0  0  0  0  0  0  0
  1  2  1  0
  2  3  1  0
  3  4  1  0
  4  5  1  0
  5  6  2  0
  5  7  1  0
  7  8  1  0
  8  9  2  0
  8 10  1  0
 10 11  1  0
 11 12  1  0
 11 13  2  0
 13 14  1  0
 14 15  1  0
 14 16  2  0
 16 17  1  0
 17 18  1  0
 17 19  1  0
 17 20  1  0
 16 21  1  0
 21 22  1  0
 22 23  2  0
 23 24  1  0
 23 25  1  0
 25 26  1  0
 25 27  2  0
 27 28  1  0
 28 29  1  0
 29 30  1  0
 29 31  1  0
 29 32  1  0
 32 33  1  0
 32 34  1  0
 32 35  1  0
 35 36  1  0
 36 37  1  0
 36 38  1  0
 36 39  1  0
 39 40  1  0
 39 41  1  0
 27 42  1  0
 42 43  1  0
 42 44  2  0
 44 45  1  0
 21 46  1  0
 46 47  2  0
 47 48  1  0
 47 49  1  0
 10  3  2  0
 46 13  1  0
 44 22  1  0
 39 28  1  0
M  CHG  2   4  -1   7  -1
M  END
>  <UniqueID>  (81) 
72

>  <SMILES>  (81) 
C=c1/c(=C/c2c(O)[n-]c(=O)[n-]c2=O)cc(C)n1-c1ccc(N2CCOCC2)cc1

>  <Energy>  (81) 
103.24788593525261

>  <Genealogy>  (81) 
C=c1c(=Cc2c(O)[n-]c(=O)[n-]c2=O)cc(C)n1-c1ccc(N2CCOCC2)cc1 (protonated)
C=c1/c(=C/c2c(O)[n-]c(=O)[n-]c2=O)cc(C)n1-c1ccc(N2CCOCC2)cc1 (cis-trans isomerization)
C=c1/c(=C/c2c(O)[n-]c(=O)[n-]c2=O)cc(C)n1-c1ccc(N2CCOCC2)cc1 (3D coordinates assigned)
C=c1/c(=C/c2c(O)[n-]c(=O)[n-]c2=O)cc(C)n1-c1ccc(N2CCOCC2)cc1 (nonaromatic ring conformer: 103.24788593525261 kcal/mol)

>  <smiles>  (81) 
C=c1c(=Cc2c(O)[nH]c(=O)[nH]c2=O)cc(C)n1-c1ccc(N2CCOCC2)cc1

>  <score_type>  (81) 
oracle

>  <origin>  (81) 
adg

>  <m_score__min__energy>  (81) 
-12.609999999999999

>  <m_primary>  (81) 
energy

$$$$
81:0
     RDKit          3D

 48 51  0  0  0  0  0  0  0  0999 V2000
   57.6560   30.4050   42.0450 H   0  0  0  0  0  0  0  0  0  0  0  0
   57.4760   31.3950   42.1380 O   0  0  0  0  0  0  0  0  0  0  0  0
   57.7050   32.0810   43.3270 C   0  0  0  0  0  0  0  0  0  0  0  0
   58.5460   33.2060   43.3610 C   0  0  0  0  0  0  0  0  0  0  0  0
   59.0339   33.5543   42.4387 H   0  0  0  0  0  0  0  0  0  0  0  0
   58.7650   33.8860   44.5680 C   0  0  0  0  0  0  0  0  0  0  0  0
   59.4156   34.7728   44.5857 H   0  0  0  0  0  0  0  0  0  0  0  0
   58.1580   33.4410   45.7550 C   0  0  0  0  0  0  0  0  0  0  0  0
   58.4060   34.1560   47.0670 C   0  0  0  0  0  0  0  0  0  0  0  0
   57.4578   34.5788   47.4306 H   0  0  0  0  0  0  0  0  0  0  0  0
   59.1445   34.9531   46.8963 H   0  0  0  0  0  0  0  0  0  0  0  0
   58.9550   33.2080   48.1080 C   0  0  0  0  0  0  0  0  0  0  0  0
   58.6110   31.5800   48.1850 S   0  0  0  0  0  0  0  0  0  0  0  0
   59.5000   31.3540   49.5860 C   0  0  0  0  0  0  0  0  0  0  0  0
   59.5170   30.2350   50.2220 N   0  0  0  0  0  0  0  0  0  0  0  0
   60.5650   29.2610   50.3430 C   0  0  0  0  0  0  0  0  0  0  0  0
   61.5460   29.4870   51.1010 O   0  0  0  0  0  0  0  0  0  0  0  0
   60.6920   28.3230   49.2920 N   0  0  0  0  0  0  0  0  0  0  0  0
   60.4200   28.6690   47.9110 C   0  0  0  0  0  0  0  0  0  0  0  0
   61.1060   29.7630   47.3580 C   0  0  0  0  0  0  0  0  0  0  0  0
   61.9399   30.2225   47.9088 H   0  0  0  0  0  0  0  0  0  0  0  0
   60.7320   30.2700   46.1090 C   0  0  0  0  0  0  0  0  0  0  0  0
   61.2828   31.1180   45.6760 H   0  0  0  0  0  0  0  0  0  0  0  0
   59.6580   29.7030   45.4050 C   0  0  0  0  0  0  0  0  0  0  0  0
   59.3455   30.1314   44.4412 H   0  0  0  0  0  0  0  0  0  0  0  0
   58.9830   28.5910   45.9290 C   0  0  0  0  0  0  0  0  0  0  0  0
   58.1242   28.1650   45.3895 H   0  0  0  0  0  0  0  0  0  0  0  0
   59.4040   28.0190   47.1460 C   0  0  0  0  0  0  0  0  0  0  0  0
   58.8440   26.7590   47.5920 N   0  0  0  0  0  0  0  0  0  0  0  0
   59.0390   26.4060   48.5540 H   0  0  0  0  0  0  0  0  0  0  0  0
   57.8900   25.9900   46.8390 C   0  0  0  0  0  0  0  0  0  0  0  0
   58.1610   24.6560   46.4890 C   0  0  0  0  0  0  0  0  0  0  0  0
   59.1469   24.2164   46.7003 H   0  0  0  0  0  0  0  0  0  0  0  0
   57.1620   23.8890   45.8670 C   0  0  0  0  0  0  0  0  0  0  0  0
   57.3701   22.8481   45.5786 H   0  0  0  0  0  0  0  0  0  0  0  0
   55.8930   24.4490   45.6110 C   0  0  0  0  0  0  0  0  0  0  0  0
   55.1202   23.8470   45.1107 H   0  0  0  0  0  0  0  0  0  0  0  0
   55.6120   25.7660   45.9900 C   0  0  0  0  0  0  0  0  0  0  0  0
   54.3560   26.3230   45.7400 O   0  0  0  0  0  0  0  0  0  0  0  0
   56.6090   26.5320   46.6170 C   0  0  0  0  0  0  0  0  0  0  0  0
   56.3879   27.5611   46.9364 H   0  0  0  0  0  0  0  0  0  0  0  0
   60.0270   32.5270   50.0610 N   0  0  0  0  0  0  0  0  0  0  0  0
   59.7220   33.5710   49.2410 C   0  0  0  0  0  0  0  0  0  0  0  0
   60.0430   34.6039   49.4413 H   0  0  0  0  0  0  0  0  0  0  0  0
   57.3320   32.3070   45.7110 C   0  0  0  0  0  0  0  0  0  0  0  0
   56.8680   31.9380   46.6375 H   0  0  0  0  0  0  0  0  0  0  0  0
   57.0900   31.6380   44.5030 C   0  0  0  0  0  0  0  0  0  0  0  0
   56.0330   30.2200   44.4760 Cl  0  0  0  0  0  0  0  0  0  0  0  0
  1  2  1  0
  2  3  1  0
  3  4  2  0
  4  5  1  0
  4  6  1  0
  6  7  1  0
  6  8  2  0
  8  9  1  0
  9 10  1  0
  9 11  1  0
  9 12  1  0
 12 13  1  0
 13 14  1  0
 14 15  2  0
 15 16  1  0
 16 17  2  0
 16 18  1  0
 18 19  1  0
 19 20  2  0
 20 21  1  0
 20 22  1  0
 22 23  1  0
 22 24  2  0
 24 25  1  0
 24 26  1  0
 26 27  1  0
 26 28  2  0
 28 29  1  0
 29 30  1  0
 29 31  1  0
 31 32  2  0
 32 33  1  0
 32 34  1  0
 34 35  1  0
 34 36  2  0
 36 37  1  0
 36 38  1  0
 38 39  1  0
 38 40  2  0
 40 41  1  0
 14 42  1  0
 42 43  1  0
 43 44  1  0
  8 45  1  0
 45 46  1  0
 45 47  2  0
 47 48  1  0
 47  3  1  0
 43 12  2  0
 28 19  1  0
 40 31  1  0
M  CHG  3  18  -1  39  -1  42  -1
M  END
>  <UniqueID>  (82) 
73

>  <SMILES>  (82) 
O=C(/N=c1\[n-]cc(Cc2ccc(O)c(Cl)c2)s1)[N-]c1ccccc1Nc1cccc([O-])c1

>  <Energy>  (82) 
108.69981899619582

>  <Genealogy>  (82) 
O=C(N=c1[n-]cc(Cc2ccc(O)c(Cl)c2)s1)[N-]c1ccccc1Nc1cccc([O-])c1 (protonated)
O=C(/N=c1\[n-]cc(Cc2ccc(O)c(Cl)c2)s1)[N-]c1ccccc1Nc1cccc([O-])c1 (cis-trans isomerization)
O=C(/N=c1\[n-]cc(Cc2ccc(O)c(Cl)c2)s1)[N-]c1ccccc1Nc1cccc([O-])c1 (3D coordinates assigned)
O=C(/N=c1\[n-]cc(Cc2ccc(O)c(Cl)c2)s1)[N-]c1ccccc1Nc1cccc([O-])c1 (optimized conformer: 108.69981899619582 kcal/mol)

>  <smiles>  (82) 
O=C(N=c1[nH]cc(Cc2ccc(O)c(Cl)c2)s1)Nc1ccccc1Nc1cccc(O)c1

>  <score_type>  (82) 
oracle

>  <origin>  (82) 
adg

>  <m_score__min__energy>  (82) 
-14.73

>  <m_primary>  (82) 
energy

$$$$
82:0
     RDKit          3D

 48 50  0  0  0  0  0  0  0  0999 V2000
   64.9780   33.0850   49.3150 C   0  0  0  0  0  0  0  0  0  0  0  0
   63.5310   32.9410   48.9690 C   0  0  0  0  0  0  0  0  0  0  0  0
   62.6800   33.5960   49.6280 O   0  0  0  0  0  0  0  0  0  0  0  0
   63.1340   32.1470   47.8380 N   0  0  0  0  0  0  0  0  0  0  0  0
   61.7660   31.8890   47.4650 C   0  0  0  0  0  0  0  0  0  0  0  0
   61.1910   30.6510   47.7910 C   0  0  0  0  0  0  0  0  0  0  0  0
   59.8760   30.3580   47.4170 C   0  0  0  0  0  0  0  0  0  0  0  0
   59.1080   31.3050   46.7270 C   0  0  0  0  0  0  0  0  0  0  0  0
   57.7760   30.9500   46.3280 N   0  0  0  0  0  0  0  0  0  0  0  0
   57.3090   30.4670   44.7290 S   0  0  0  0  0  0  0  0  0  0  0  0
   55.8830   30.8770   44.4780 O   0  0  0  0  0  0  0  0  0  0  0  0
   58.1920   31.1560   43.7280 O   0  0  0  0  0  0  0  0  0  0  0  0
   57.5050   28.7250   44.5650 C   0  0  0  0  0  0  0  0  0  0  0  0
   58.0050   28.1670   43.3790 C   0  0  0  0  0  0  0  0  0  0  0  0
   58.1410   26.7800   43.2600 C   0  0  0  0  0  0  0  0  0  0  0  0
   57.7730   25.9470   44.3200 C   0  0  0  0  0  0  0  0  0  0  0  0
   57.2550   26.4960   45.5030 C   0  0  0  0  0  0  0  0  0  0  0  0
   56.8490   25.6060   46.6090 C   0  0  0  0  0  0  0  0  0  0  0  0
   57.6880   25.3290   47.5090 O   0  0  0  0  0  0  0  0  0  0  0  0
   55.5410   25.0120   46.6760 N   0  0  0  0  0  0  0  0  0  0  0  0
   54.8190   24.4030   45.5600 C   0  0  0  0  0  0  0  0  0  0  0  0
   55.7060   23.4570   44.8050 C   0  0  0  0  0  0  0  0  0  0  0  0
   55.6250   23.3630   43.4100 C   0  0  0  0  0  0  0  0  0  0  0  0
   56.4450   22.4550   42.7360 C   0  0  0  0  0  0  0  0  0  0  0  0
   57.3240   21.6460   43.4550 C   0  0  0  0  0  0  0  0  0  0  0  0
   57.3690   21.7580   44.8430 C   0  0  0  0  0  0  0  0  0  0  0  0
   56.5700   22.6520   45.4850 N   0  0  0  0  0  0  0  0  0  0  0  0
   57.1430   27.8890   45.6270 C   0  0  0  0  0  0  0  0  0  0  0  0
   59.6630   32.5640   46.4430 C   0  0  0  0  0  0  0  0  0  0  0  0
   60.9790   32.8550   46.8130 C   0  0  0  0  0  0  0  0  0  0  0  0
   65.0941   33.0965   50.4088 H   0  0  0  0  0  0  0  0  0  0  0  0
   65.5413   32.2385   48.8954 H   0  0  0  0  0  0  0  0  0  0  0  0
   65.3635   34.0259   48.8954 H   0  0  0  0  0  0  0  0  0  0  0  0
   63.8860   31.8550   47.1730 H   0  0  0  0  0  0  0  0  0  0  0  0
   61.7796   29.9051   48.3452 H   0  0  0  0  0  0  0  0  0  0  0  0
   59.4420   29.3784   47.6659 H   0  0  0  0  0  0  0  0  0  0  0  0
   58.2904   28.8209   42.5418 H   0  0  0  0  0  0  0  0  0  0  0  0
   58.5380   26.3445   42.3312 H   0  0  0  0  0  0  0  0  0  0  0  0
   57.8898   24.8572   44.2267 H   0  0  0  0  0  0  0  0  0  0  0  0
   53.9515   23.8505   45.9501 H   0  0  0  0  0  0  0  0  0  0  0  0
   54.4895   25.1993   44.8764 H   0  0  0  0  0  0  0  0  0  0  0  0
   54.9224   23.9981   42.8505 H   0  0  0  0  0  0  0  0  0  0  0  0
   56.3974   22.3783   41.6397 H   0  0  0  0  0  0  0  0  0  0  0  0
   57.9738   20.9283   42.9329 H   0  0  0  0  0  0  0  0  0  0  0  0
   58.0536   21.1207   45.4220 H   0  0  0  0  0  0  0  0  0  0  0  0
   56.7685   28.3264   46.5643 H   0  0  0  0  0  0  0  0  0  0  0  0
   59.0588   33.3246   45.9268 H   0  0  0  0  0  0  0  0  0  0  0  0
   61.4020   33.8463   46.5927 H   0  0  0  0  0  0  0  0  0  0  0  0
  1  2  1  0
  2  3  2  0
  2  4  1  0
  4  5  1  0
  5  6  2  0
  6  7  1  0
  7  8  2  0
  8  9  1  0
  9 10  1  0
 10 11  2  0
 10 12  2  0
 10 13  1  0
 13 14  2  0
 14 15  1  0
 15 16  2  0
 16 17  1  0
 17 18  1  0
 18 19  2  0
 18 20  1  0
 20 21  1  0
 21 22  1  0
 22 23  2  0
 23 24  1  0
 24 25  2  0
 25 26  1  0
 26 27  2  0
 17 28  2  0
  8 29  1  0
 29 30  2  0
 30  5  1  0
 28 13  1  0
 27 22  1  0
  1 31  1  0
  1 32  1  0
  1 33  1  0
  4 34  1  0
  6 35  1  0
  7 36  1  0
 14 37  1  0
 15 38  1  0
 16 39  1  0
 21 40  1  0
 21 41  1  0
 23 42  1  0
 24 43  1  0
 25 44  1  0
 26 45  1  0
 28 46  1  0
 29 47  1  0
 30 48  1  0
M  CHG  2   9  -1  20  -1
M  END
>  <UniqueID>  (83) 
74

>  <SMILES>  (83) 
CC(=O)Nc1ccc([N-]S(=O)(=O)c2cccc(C(=O)[N-]Cc3ccccn3)c2)cc1

>  <Energy>  (83) 
55.33142518243653

>  <Genealogy>  (83) 
CC(=O)Nc1ccc([N-]S(=O)(=O)c2cccc(C(=O)[N-]Cc3ccccn3)c2)cc1 (protonated)
CC(=O)Nc1ccc([N-]S(=O)(=O)c2cccc(C(=O)[N-]Cc3ccccn3)c2)cc1 (3D coordinates assigned)
CC(=O)Nc1ccc([N-]S(=O)(=O)c2cccc(C(=O)[N-]Cc3ccccn3)c2)cc1 (optimized conformer: 55.33142518243653 kcal/mol)

>  <smiles>  (83) 
CC(=O)Nc1ccc(NS(=O)(=O)c2cccc(C(=O)NCc3ccccn3)c2)cc1

>  <score_type>  (83) 
oracle

>  <origin>  (83) 
adg

>  <m_score__min__energy>  (83) 
-12.48

>  <m_primary>  (83) 
energy

$$$$
83:0
     RDKit          3D

 53 55  0  0  0  0  0  0  0  0999 V2000
   65.9920   31.5560   50.8350 C   0  0  0  0  0  0  0  0  0  0  0  0
   66.1160   32.7940   50.0150 C   0  0  0  0  0  0  0  0  0  0  0  0
   67.1430   33.5170   50.1340 O   0  0  0  0  0  0  0  0  0  0  0  0
   65.0820   33.1180   49.0750 N   0  0  0  0  0  0  0  0  0  0  0  0
   63.8050   32.9400   49.2500 C   0  0  0  0  0  0  0  0  0  0  0  0
   63.1120   31.8760   48.7820 N   0  0  0  0  0  0  0  0  0  0  0  0
   61.7920   31.9570   49.1000 C   0  0  0  0  0  0  0  0  0  0  0  0
   60.8400   30.8690   48.7060 C   0  0  0  0  0  0  0  0  0  0  0  0
   61.4300   33.1120   49.8050 C   0  0  0  0  0  0  0  0  0  0  0  0
   60.0770   33.5190   50.2350 C   0  0  0  0  0  0  0  0  0  0  0  0
   59.9430   34.1900   51.2920 O   0  0  0  0  0  0  0  0  0  0  0  0
   58.9060   33.1170   49.5130 N   0  0  0  0  0  0  0  0  0  0  0  0
   58.6990   33.3660   48.1190 C   0  0  0  0  0  0  0  0  0  0  0  0
   58.9460   34.5490   47.4580 C   0  0  0  0  0  0  0  0  0  0  0  0
   58.6160   34.3930   46.1580 N   0  0  0  0  0  0  0  0  0  0  0  0
   58.1750   33.1520   45.9950 N   0  0  0  0  0  0  0  0  0  0  0  0
   57.7560   32.6010   44.7080 C   0  0  0  0  0  0  0  0  0  0  0  0
   57.7100   31.1060   44.7700 C   0  0  0  0  0  0  0  0  0  0  0  0
   56.6030   30.5160   44.8910 O   0  0  0  0  0  0  0  0  0  0  0  0
   58.9190   30.3600   44.6110 N   0  0  0  0  0  0  0  0  0  0  0  0
   58.9410   28.9810   44.1390 C   0  0  0  0  0  0  0  0  0  0  0  0
   58.3790   28.0840   45.2070 C   0  0  0  0  0  0  0  0  0  0  0  0
   59.1820   27.6540   46.2770 C   0  0  0  0  0  0  0  0  0  0  0  0
   58.6560   26.7890   47.2420 C   0  0  0  0  0  0  0  0  0  0  0  0
   57.3320   26.3440   47.1460 C   0  0  0  0  0  0  0  0  0  0  0  0
   56.5130   26.7760   46.0860 C   0  0  0  0  0  0  0  0  0  0  0  0
   55.1500   26.3440   45.9400 N   0  0  0  0  0  0  0  0  0  0  0  0
   54.6270   24.7130   45.6760 S   0  0  0  0  0  0  0  0  0  0  0  0
   55.4520   24.0250   44.2560 C   0  0  0  0  0  0  0  0  0  0  0  0
   53.1430   24.7200   45.4230 O   0  0  0  0  0  0  0  0  0  0  0  0
   54.8990   23.8810   46.9000 O   0  0  0  0  0  0  0  0  0  0  0  0
   57.0420   27.6490   45.1260 C   0  0  0  0  0  0  0  0  0  0  0  0
   58.2340   32.4850   47.1650 C   0  0  0  0  0  0  0  0  0  0  0  0
   62.8220   34.0240   50.0740 S   0  0  0  0  0  0  0  0  0  0  0  0
   66.0184   31.8192   51.9027 H   0  0  0  0  0  0  0  0  0  0  0  0
   65.0394   31.0569   50.6038 H   0  0  0  0  0  0  0  0  0  0  0  0
   66.8267   30.8779   50.6038 H   0  0  0  0  0  0  0  0  0  0  0  0
   60.4275   30.3975   49.6102 H   0  0  0  0  0  0  0  0  0  0  0  0
   60.0209   31.2968   48.1093 H   0  0  0  0  0  0  0  0  0  0  0  0
   61.3728   30.1139   48.1093 H   0  0  0  0  0  0  0  0  0  0  0  0
   59.3454   35.4673   47.9131 H   0  0  0  0  0  0  0  0  0  0  0  0
   56.7557   32.9843   44.4581 H   0  0  0  0  0  0  0  0  0  0  0  0
   58.4804   32.9039   43.9376 H   0  0  0  0  0  0  0  0  0  0  0  0
   58.3315   28.8943   43.2274 H   0  0  0  0  0  0  0  0  0  0  0  0
   59.9759   28.6839   43.9136 H   0  0  0  0  0  0  0  0  0  0  0  0
   60.2240   27.9976   46.3556 H   0  0  0  0  0  0  0  0  0  0  0  0
   59.2856   26.4567   48.0805 H   0  0  0  0  0  0  0  0  0  0  0  0
   56.9301   25.6537   47.9023 H   0  0  0  0  0  0  0  0  0  0  0  0
   56.2571   23.3536   44.5893 H   0  0  0  0  0  0  0  0  0  0  0  0
   54.7291   23.4584   43.6507 H   0  0  0  0  0  0  0  0  0  0  0  0
   55.8795   24.8379   43.6507 H   0  0  0  0  0  0  0  0  0  0  0  0
   56.4057   27.9986   44.2996 H   0  0  0  0  0  0  0  0  0  0  0  0
   57.9615   31.4320   47.3288 H   0  0  0  0  0  0  0  0  0  0  0  0
  1  2  1  0
  2  3  2  0
  2  4  1  0
  4  5  2  3
  5  6  1  0
  6  7  1  0
  7  8  1  0
  7  9  2  0
  9 10  1  0
 10 11  2  0
 10 12  1  0
 12 13  1  0
 13 14  1  0
 14 15  2  0
 15 16  1  0
 16 17  1  0
 17 18  1  0
 18 19  2  0
 18 20  1  0
 20 21  1  0
 21 22  1  0
 22 23  2  0
 23 24  1  0
 24 25  2  0
 25 26  1  0
 26 27  1  0
 27 28  1  0
 28 29  1  0
 28 30  2  0
 28 31  2  0
 26 32  2  0
 16 33  1  0
  9 34  1  0
 34  5  1  0
 33 13  2  0
 32 22  1  0
  1 35  1  0
  1 36  1  0
  1 37  1  0
  8 38  1  0
  8 39  1  0
  8 40  1  0
 14 41  1  0
 17 42  1  0
 17 43  1  0
 21 44  1  0
 21 45  1  0
 23 46  1  0
 24 47  1  0
 25 48  1  0
 29 49  1  0
 29 50  1  0
 29 51  1  0
 32 52  1  0
 33 53  1  0
M  CHG  4   6  -1  12  -1  20  -1  27  -1
M  END
>  <UniqueID>  (84) 
75

>  <SMILES>  (84) 
CC(=O)N=c1[n-]c(C)c(C(=O)[N-]c2cnn(CC(=O)[N-]Cc3cccc([N-]S(C)(=O)=O)c3)c2)s1

>  <Energy>  (84) 
112.30906930893985

>  <Genealogy>  (84) 
CC(=O)N=c1[n-]c(C)c(C(=O)[N-]c2cnn(CC(=O)[N-]Cc3cccc([N-]S(C)(=O)=O)c3)c2)s1 (protonated)
CC(=O)N=c1[n-]c(C)c(C(=O)[N-]c2cnn(CC(=O)[N-]Cc3cccc([N-]S(C)(=O)=O)c3)c2)s1 (3D coordinates assigned)
CC(=O)N=c1[n-]c(C)c(C(=O)[N-]c2cnn(CC(=O)[N-]Cc3cccc([N-]S(C)(=O)=O)c3)c2)s1 (optimized conformer: 112.30906930893985 kcal/mol)

>  <smiles>  (84) 
CC(=O)N=c1[nH]c(C)c(C(=O)Nc2cnn(CC(=O)NCc3cccc(NS(C)(=O)=O)c3)c2)s1

>  <score_type>  (84) 
oracle

>  <origin>  (84) 
adg

>  <m_score__min__energy>  (84) 
-13.960000000000001

>  <m_primary>  (84) 
energy

$$$$
84:0
     RDKit          3D

 44 47  0  0  0  0  0  0  0  0999 V2000
   58.3483   29.4615   44.3424 H   0  0  0  0  0  0  0  0  0  0  0  0
   58.4070   29.2030   45.4100 C   0  0  0  0  0  0  0  0  0  0  0  0
   58.9560   30.1100   46.2490 C   0  0  0  0  0  0  0  0  0  0  0  0
   60.4240   30.1520   46.4410 C   0  0  0  0  0  0  0  0  0  0  0  0
   61.2010   29.6330   45.5940 O   0  0  0  0  0  0  0  0  0  0  0  0
   60.9590   30.7840   47.6620 C   0  0  0  0  0  0  0  0  0  0  0  0
   62.3370   30.8420   47.9260 C   0  0  0  0  0  0  0  0  0  0  0  0
   63.0564   30.4798   47.1768 H   0  0  0  0  0  0  0  0  0  0  0  0
   62.7950   31.3610   49.1430 C   0  0  0  0  0  0  0  0  0  0  0  0
   63.8750   31.4118   49.3455 H   0  0  0  0  0  0  0  0  0  0  0  0
   61.8840   31.8150   50.1020 C   0  0  0  0  0  0  0  0  0  0  0  0
   62.2471   32.2082   51.0630 H   0  0  0  0  0  0  0  0  0  0  0  0
   60.5120   31.7690   49.8390 C   0  0  0  0  0  0  0  0  0  0  0  0
   59.7959   32.1234   50.5950 H   0  0  0  0  0  0  0  0  0  0  0  0
   60.0480   31.2730   48.6160 C   0  0  0  0  0  0  0  0  0  0  0  0
   58.6720   31.2550   48.3490 O   0  0  0  0  0  0  0  0  0  0  0  0
   58.1500   31.1520   47.0170 C   0  0  1  0  0  0  0  0  0  0  0  0
   57.0985   30.8312   47.0541 H   0  0  0  0  0  0  0  0  0  0  0  0
   58.1770   32.5080   46.3200 C   0  0  0  0  0  0  0  0  0  0  0  0
   59.0800   33.5090   46.7290 C   0  0  0  0  0  0  0  0  0  0  0  0
   59.7245   33.3349   47.6032 H   0  0  0  0  0  0  0  0  0  0  0  0
   59.1670   34.7200   46.0380 C   0  0  0  0  0  0  0  0  0  0  0  0
   59.8685   35.4966   46.3769 H   0  0  0  0  0  0  0  0  0  0  0  0
   58.3650   34.9460   44.9180 C   0  0  0  0  0  0  0  0  0  0  0  0
   58.4337   35.9000   44.3748 H   0  0  0  0  0  0  0  0  0  0  0  0
   57.4770   33.9610   44.4890 C   0  0  0  0  0  0  0  0  0  0  0  0
   56.8434   34.1402   43.6078 H   0  0  0  0  0  0  0  0  0  0  0  0
   57.3890   32.7460   45.1750 C   0  0  0  0  0  0  0  0  0  0  0  0
   56.6982   31.9679   44.8180 H   0  0  0  0  0  0  0  0  0  0  0  0
   57.8810   27.8890   45.8300 C   0  0  0  0  0  0  0  0  0  0  0  0
   58.7620   26.9550   46.3950 C   0  0  0  0  0  0  0  0  0  0  0  0
   59.8257   27.2079   46.5160 H   0  0  0  0  0  0  0  0  0  0  0  0
   58.2930   25.7060   46.8040 C   0  0  0  0  0  0  0  0  0  0  0  0
   58.9920   24.9700   47.2279 H   0  0  0  0  0  0  0  0  0  0  0  0
   56.9390   25.3870   46.6770 C   0  0  0  0  0  0  0  0  0  0  0  0
   56.5767   24.3986   46.9961 H   0  0  0  0  0  0  0  0  0  0  0  0
   56.0360   26.3260   46.1420 C   0  0  0  0  0  0  0  0  0  0  0  0
   54.6710   26.0420   45.9830 O   0  0  0  0  0  0  0  0  0  0  0  0
   54.1500   24.7760   45.5970 C   0  0  0  0  0  0  0  0  0  0  0  0
   53.9086   24.1894   46.4957 H   0  0  0  0  0  0  0  0  0  0  0  0
   53.2387   24.9216   44.9984 H   0  0  0  0  0  0  0  0  0  0  0  0
   54.8998   24.2380   44.9984 H   0  0  0  0  0  0  0  0  0  0  0  0
   56.5090   27.5820   45.7380 C   0  0  0  0  0  0  0  0  0  0  0  0
   55.6120   28.5280   45.2500 O   0  0  0  0  0  0  0  0  0  0  0  0
  1  2  1  0
  2  3  2  0
  3  4  1  0
  4  5  2  0
  4  6  1  0
  6  7  2  0
  7  8  1  0
  7  9  1  0
  9 10  1  0
  9 11  2  0
 11 12  1  0
 11 13  1  0
 13 14  1  0
 13 15  2  0
 15 16  1  0
 16 17  1  0
 17 18  1  1
 17 19  1  0
 19 20  2  0
 20 21  1  0
 20 22  1  0
 22 23  1  0
 22 24  2  0
 24 25  1  0
 24 26  1  0
 26 27  1  0
 26 28  2  0
 28 29  1  0
  2 30  1  0
 30 31  2  0
 31 32  1  0
 31 33  1  0
 33 34  1  0
 33 35  2  0
 35 36  1  0
 35 37  1  0
 37 38  1  0
 38 39  1  0
 39 40  1  0
 39 41  1  0
 39 42  1  0
 37 43  2  0
 43 44  1  0
 17  3  1  0
 28 19  1  0
 43 30  1  0
 15  6  1  0
M  CHG  1  44  -1
M  END
>  <UniqueID>  (85) 
76

>  <SMILES>  (85) 
COc1cccc(/C=C2/C(=O)c3ccccc3O[C@H]2c2ccccc2)c1[O-]

>  <Energy>  (85) 
63.86580259822964

>  <Genealogy>  (85) 
COc1cccc(C=C2C(=O)c3ccccc3OC2c2ccccc2)c1[O-] (protonated)
COc1cccc(C=C2C(=O)c3ccccc3O[C@H]2c2ccccc2)c1[O-] (chirality)
COc1cccc(/C=C2/C(=O)c3ccccc3O[C@H]2c2ccccc2)c1[O-] (cis-trans isomerization)
COc1cccc(/C=C2/C(=O)c3ccccc3O[C@H]2c2ccccc2)c1[O-] (3D coordinates assigned)
COc1cccc(/C=C2/C(=O)c3ccccc3O[C@H]2c2ccccc2)c1[O-] (nonaromatic ring conformer: 63.86580259822964 kcal/mol)

>  <smiles>  (85) 
COc1cccc(C=C2C(=O)c3ccccc3OC2c2ccccc2)c1O

>  <score_type>  (85) 
oracle

>  <origin>  (85) 
adg

>  <m_score__min__energy>  (85) 
-12.19

>  <m_primary>  (85) 
energy

$$$$
85:0
     RDKit          3D

 67 72  0  0  0  0  0  0  0  0999 V2000
   57.7400   21.3540   43.6450 C   0  0  0  0  0  0  0  0  0  0  0  0
   57.6350   21.8840   44.9630 O   0  0  0  0  0  0  0  0  0  0  0  0
   57.6300   23.2540   45.2690 C   0  0  0  0  0  0  0  0  0  0  0  0
   57.7540   24.2450   44.2770 C   0  0  0  0  0  0  0  0  0  0  0  0
   57.7610   25.6030   44.6260 C   0  0  0  0  0  0  0  0  0  0  0  0
   57.6180   25.9840   45.9740 C   0  0  0  0  0  0  0  0  0  0  0  0
   57.4800   24.9940   46.9570 C   0  0  0  0  0  0  0  0  0  0  0  0
   57.4900   23.6370   46.6090 C   0  0  0  0  0  0  0  0  0  0  0  0
   57.3480   22.6590   47.5900 O   0  0  0  0  0  0  0  0  0  0  0  0
   57.5460   27.4390   46.3780 C   0  0  0  0  0  0  0  0  0  0  0  0
   57.9560   28.3690   45.3060 N   0  0  0  0  0  0  0  0  0  0  0  0
   57.8020   29.7840   45.5170 C   0  0  0  0  0  0  0  0  0  0  0  0
   56.8180   30.3960   45.0180 O   0  0  0  0  0  0  0  0  0  0  0  0
   58.7520   30.4830   46.3380 N   0  0  0  0  0  0  0  0  0  0  0  0
   59.0740   30.1980   47.5640 C   0  0  0  0  0  0  0  0  0  0  0  0
   59.6920   29.0390   47.8790 N   0  0  0  0  0  0  0  0  0  0  0  0
   59.7670   28.8570   49.2230 C   0  0  0  0  0  0  0  0  0  0  0  0
   59.2090   29.8770   49.9790 C   0  0  0  0  0  0  0  0  0  0  0  0
   58.9500   29.8170   51.7540 S   0  0  0  0  0  0  0  0  0  0  0  0
   60.1460   31.1340   52.2110 C   0  0  0  0  0  0  0  0  0  0  0  0
   61.4820   30.9860   51.5500 C   0  0  0  0  0  0  0  0  0  0  0  0
   62.3530   29.9230   51.6830 C   0  0  0  0  0  0  0  0  0  0  0  0
   63.4660   30.2570   50.9320 C   0  0  0  0  0  0  0  0  0  0  0  0
   63.1990   31.5050   50.4000 C   0  0  0  0  0  0  0  0  0  0  0  0
   64.1030   32.3320   49.5870 C   0  0  0  0  0  0  0  0  0  0  0  0
   65.3490   32.2080   49.7520 O   0  0  0  0  0  0  0  0  0  0  0  0
   63.6040   33.2840   48.6330 N   0  0  0  0  0  0  0  0  0  0  0  0
   63.9080   33.0770   47.2010 C   0  0  0  0  0  0  0  0  0  0  0  0
   62.9420   33.8350   46.2650 C   0  0  0  0  0  0  0  0  0  0  0  0
   61.5400   33.8440   46.8170 C   0  0  0  0  0  0  0  0  0  0  0  0
   60.4230   33.7080   45.9760 C   0  0  0  0  0  0  0  0  0  0  0  0
   59.1330   33.7780   46.5110 C   0  0  0  0  0  0  0  0  0  0  0  0
   58.9530   33.9980   47.8800 C   0  0  0  0  0  0  0  0  0  0  0  0
   60.0610   34.1550   48.7200 C   0  0  0  0  0  0  0  0  0  0  0  0
   61.3570   34.0720   48.1900 C   0  0  0  0  0  0  0  0  0  0  0  0
   62.5730   34.2480   49.0480 C   0  0  0  0  0  0  0  0  0  0  0  0
   62.0110   31.9080   50.7830 O   0  0  0  0  0  0  0  0  0  0  0  0
   58.6090   31.0610   48.9450 S   0  0  0  0  0  0  0  0  0  0  0  0
   58.6200   27.8670   44.0950 C   0  0  0  0  0  0  0  0  0  0  0  0
   57.8710   26.6530   43.5580 C   0  0  0  0  0  0  0  0  0  0  0  0
   57.9535   20.2763   43.6991 H   0  0  0  0  0  0  0  0  0  0  0  0
   56.7928   21.5137   43.1090 H   0  0  0  0  0  0  0  0  0  0  0  0
   58.5548   21.8628   43.1090 H   0  0  0  0  0  0  0  0  0  0  0  0
   57.8460   23.9520   43.2207 H   0  0  0  0  0  0  0  0  0  0  0  0
   57.3628   25.2854   48.0112 H   0  0  0  0  0  0  0  0  0  0  0  0
   57.7680   21.7450   47.4980 H   0  0  0  0  0  0  0  0  0  0  0  0
   56.5089   27.6706   46.6621 H   0  0  0  0  0  0  0  0  0  0  0  0
   58.2482   27.5781   47.2132 H   0  0  0  0  0  0  0  0  0  0  0  0
   60.2338   27.9700   49.6762 H   0  0  0  0  0  0  0  0  0  0  0  0
   59.7204   32.1061   51.9213 H   0  0  0  0  0  0  0  0  0  0  0  0
   60.3122   31.0568   53.2956 H   0  0  0  0  0  0  0  0  0  0  0  0
   62.1951   29.0028   52.2646 H   0  0  0  0  0  0  0  0  0  0  0  0
   64.3750   29.6545   50.7880 H   0  0  0  0  0  0  0  0  0  0  0  0
   64.9324   33.4269   47.0057 H   0  0  0  0  0  0  0  0  0  0  0  0
   63.7948   32.0030   46.9919 H   0  0  0  0  0  0  0  0  0  0  0  0
   63.2904   34.8725   46.1545 H   0  0  0  0  0  0  0  0  0  0  0  0
   62.9287   33.3234   45.2913 H   0  0  0  0  0  0  0  0  0  0  0  0
   60.5631   33.5465   44.8970 H   0  0  0  0  0  0  0  0  0  0  0  0
   58.2587   33.6598   45.8540 H   0  0  0  0  0  0  0  0  0  0  0  0
   57.9368   34.0478   48.2981 H   0  0  0  0  0  0  0  0  0  0  0  0
   59.9159   34.3432   49.7940 H   0  0  0  0  0  0  0  0  0  0  0  0
   62.9591   35.2715   48.9327 H   0  0  0  0  0  0  0  0  0  0  0  0
   62.3090   34.0747   50.1017 H   0  0  0  0  0  0  0  0  0  0  0  0
   58.6296   28.6574   43.3300 H   0  0  0  0  0  0  0  0  0  0  0  0
   59.6517   27.5759   44.3419 H   0  0  0  0  0  0  0  0  0  0  0  0
   56.8625   26.9579   43.2418 H   0  0  0  0  0  0  0  0  0  0  0  0
   58.4220   26.2393   42.7005 H   0  0  0  0  0  0  0  0  0  0  0  0
  1  2  1  0
  2  3  1  0
  3  4  2  0
  4  5  1  0
  5  6  2  0
  6  7  1  0
  7  8  2  0
  8  9  1  0
  6 10  1  0
 10 11  1  0
 11 12  1  0
 12 13  2  0
 12 14  1  0
 14 15  2  3
 15 16  1  0
 16 17  1  0
 17 18  2  0
 18 19  1  0
 19 20  1  0
 20 21  1  0
 21 22  2  0
 22 23  1  0
 23 24  2  0
 24 25  1  0
 25 26  2  0
 25 27  1  0
 27 28  1  0
 28 29  1  0
 29 30  1  0
 30 31  2  0
 31 32  1  0
 32 33  2  0
 33 34  1  0
 34 35  2  0
 35 36  1  0
 24 37  1  0
 18 38  1  0
 11 39  1  0
 39 40  1  0
  8  3  1  0
 38 15  1  0
 40  5  1  0
 37 21  1  0
 36 27  1  0
 35 30  1  0
  1 41  1  0
  1 42  1  0
  1 43  1  0
  4 44  1  0
  7 45  1  0
  9 46  1  0
 10 47  1  0
 10 48  1  0
 17 49  1  0
 20 50  1  0
 20 51  1  0
 22 52  1  0
 23 53  1  0
 28 54  1  0
 28 55  1  0
 29 56  1  0
 29 57  1  0
 31 58  1  0
 32 59  1  0
 33 60  1  0
 34 61  1  0
 36 62  1  0
 36 63  1  0
 39 64  1  0
 39 65  1  0
 40 66  1  0
 40 67  1  0
M  CHG  1  16  -1
M  END
>  <UniqueID>  (86) 
77

>  <SMILES>  (86) 
COc1cc2c(cc1O)CN(C(=O)N=c1[n-]cc(SCc3ccc(C(=O)N4CCc5ccccc5C4)o3)s1)CC2

>  <Energy>  (86) 
136.2145353329857

>  <Genealogy>  (86) 
COc1cc2c(cc1O)CN(C(=O)N=c1[n-]cc(SCc3ccc(C(=O)N4CCc5ccccc5C4)o3)s1)CC2 (protonated)
COc1cc2c(cc1O)CN(C(=O)N=c1[n-]cc(SCc3ccc(C(=O)N4CCc5ccccc5C4)o3)s1)CC2 (3D coordinates assigned)
COc1cc2c(cc1O)CN(C(=O)N=c1[n-]cc(SCc3ccc(C(=O)N4CCc5ccccc5C4)o3)s1)CC2 (nonaromatic ring conformer: 136.2145353329857 kcal/mol)

>  <smiles>  (86) 
COc1cc2c(cc1O)CN(C(=O)N=c1[nH]cc(SCc3ccc(C(=O)N4CCc5ccccc5C4)o3)s1)CC2

>  <score_type>  (86) 
oracle

>  <origin>  (86) 
adg

>  <m_score__min__energy>  (86) 
-10.81

>  <m_primary>  (86) 
energy

$$$$
86:0
     RDKit          3D

 58 61  0  0  0  0  0  0  0  0999 V2000
   60.3280   27.5400   45.5490 H   0  0  0  0  0  0  0  0  0  0  0  0
   59.6840   26.7620   45.6060 O   0  0  0  0  0  0  0  0  0  0  0  0
   58.2990   26.9210   45.6640 C   0  0  0  0  0  0  0  0  0  0  0  0
   57.5490   25.9050   46.1620 N   0  0  0  0  0  0  0  0  0  0  0  0
   56.1960   25.9890   46.2210 C   0  0  0  0  0  0  0  0  0  0  0  0
   55.5270   25.0320   46.6900 O   0  0  0  0  0  0  0  0  0  0  0  0
   55.5630   27.1010   45.7700 N   0  0  0  0  0  0  0  0  0  0  0  0
   56.2620   28.1500   45.2660 C   0  0  0  0  0  0  0  0  0  0  0  0
   55.6410   29.1660   44.8550 O   0  0  0  0  0  0  0  0  0  0  0  0
   57.6640   28.0990   45.2170 C   0  0  0  0  0  0  0  0  0  0  0  0
   58.4290   29.2310   44.6610 C   0  0  0  0  0  0  0  0  0  0  0  0
   59.0739   29.0251   43.7940 H   0  0  0  0  0  0  0  0  0  0  0  0
   58.4050   30.4960   45.1250 C   0  0  0  0  0  0  0  0  0  0  0  0
   57.4570   31.4200   44.7230 C   0  0  0  0  0  0  0  0  0  0  0  0
   56.6073   31.2343   44.0496 H   0  0  0  0  0  0  0  0  0  0  0  0
   57.7780   32.6160   45.3250 C   0  0  0  0  0  0  0  0  0  0  0  0
   56.9990   33.8850   45.1510 C   0  0  0  0  0  0  0  0  0  0  0  0
   56.7455   34.2980   46.1385 H   0  0  0  0  0  0  0  0  0  0  0  0
   57.6054   34.6140   44.5934 H   0  0  0  0  0  0  0  0  0  0  0  0
   56.0745   33.6742   44.5934 H   0  0  0  0  0  0  0  0  0  0  0  0
   58.8710   32.4730   46.1100 N   0  0  0  0  0  0  0  0  0  0  0  0
   59.5110   33.5360   46.9050 C   0  0  0  0  0  0  0  0  0  0  0  0
   60.5925   33.5358   46.7042 H   0  0  0  0  0  0  0  0  0  0  0  0
   59.0708   34.5035   46.6218 H   0  0  0  0  0  0  0  0  0  0  0  0
   59.2810   33.3110   48.3770 C   0  0  0  0  0  0  0  0  0  0  0  0
   58.3430   32.3590   48.8120 C   0  0  0  0  0  0  0  0  0  0  0  0
   57.7799   31.7690   48.0739 H   0  0  0  0  0  0  0  0  0  0  0  0
   58.1220   32.1580   50.1760 C   0  0  0  0  0  0  0  0  0  0  0  0
   57.4028   31.3948   50.5082 H   0  0  0  0  0  0  0  0  0  0  0  0
   58.8140   32.9260   51.1240 C   0  0  0  0  0  0  0  0  0  0  0  0
   58.6180   32.6820   52.5600 C   0  0  0  0  0  0  0  0  0  0  0  0
   58.8320   33.6290   53.3610 O   0  0  0  0  0  0  0  0  0  0  0  0
   58.1880   31.4180   53.0910 N   0  0  0  0  0  0  0  0  0  0  0  0
   56.8410   30.8420   53.1820 C   0  0  0  0  0  0  0  0  0  0  0  0
   56.5077   30.9929   54.2194 H   0  0  0  0  0  0  0  0  0  0  0  0
   55.8200   31.5840   52.2840 C   0  0  0  0  0  0  0  0  0  0  0  0
   55.3943   32.4223   52.8550 H   0  0  0  0  0  0  0  0  0  0  0  0
   56.3574   31.9302   51.3888 H   0  0  0  0  0  0  0  0  0  0  0  0
   54.6670   30.6750   51.8100 C   0  0  0  0  0  0  0  0  0  0  0  0
   53.7913   31.2993   51.5789 H   0  0  0  0  0  0  0  0  0  0  0  0
   55.0033   30.1273   50.9173 H   0  0  0  0  0  0  0  0  0  0  0  0
   54.2800   29.6510   52.8870 C   0  0  0  0  0  0  0  0  0  0  0  0
   53.9492   30.1916   53.7861 H   0  0  0  0  0  0  0  0  0  0  0  0
   53.4767   29.0207   52.4778 H   0  0  0  0  0  0  0  0  0  0  0  0
   55.4570   28.7260   53.2690 C   0  0  0  0  0  0  0  0  0  0  0  0
   55.4098   28.5304   54.3504 H   0  0  0  0  0  0  0  0  0  0  0  0
   55.3529   27.8061   52.6749 H   0  0  0  0  0  0  0  0  0  0  0  0
   56.8380   29.3250   52.9410 C   0  0  0  0  0  0  0  0  0  0  0  0
   57.5974   28.8555   53.5835 H   0  0  0  0  0  0  0  0  0  0  0  0
   57.0646   29.1340   51.8817 H   0  0  0  0  0  0  0  0  0  0  0  0
   59.7910   33.8330   50.6950 C   0  0  0  0  0  0  0  0  0  0  0  0
   60.3830   34.3911   51.4353 H   0  0  0  0  0  0  0  0  0  0  0  0
   60.0170   34.0320   49.3300 C   0  0  0  0  0  0  0  0  0  0  0  0
   60.7756   34.7575   49.0011 H   0  0  0  0  0  0  0  0  0  0  0  0
   59.2570   31.1710   46.0170 C   0  0  0  0  0  0  0  0  0  0  0  0
   60.2510   30.6420   46.7500 C   0  0  0  0  0  0  0  0  0  0  0  0
   60.8471   31.2852   47.4140 H   0  0  0  0  0  0  0  0  0  0  0  0
   60.4687   29.5657   46.6861 H   0  0  0  0  0  0  0  0  0  0  0  0
  1  2  1  0
  2  3  1  0
  3  4  1  0
  4  5  1  0
  5  6  2  0
  5  7  1  0
  7  8  1  0
  8  9  2  0
  8 10  1  0
 10 11  1  0
 11 12  1  0
 11 13  2  0
 13 14  1  0
 14 15  1  0
 14 16  2  0
 16 17  1  0
 17 18  1  0
 17 19  1  0
 17 20  1  0
 16 21  1  0
 21 22  1  0
 22 23  1  0
 22 24  1  0
 22 25  1  0
 25 26  2  0
 26 27  1  0
 26 28  1  0
 28 29  1  0
 28 30  2  0
 30 31  1  0
 31 32  2  0
 31 33  1  0
 33 34  1  0
 34 35  1  0
 34 36  1  0
 36 37  1  0
 36 38  1  0
 36 39  1  0
 39 40  1  0
 39 41  1  0
 39 42  1  0
 42 43  1  0
 42 44  1  0
 42 45  1  0
 45 46  1  0
 45 47  1  0
 45 48  1  0
 48 49  1  0
 48 50  1  0
 30 51  1  0
 51 52  1  0
 51 53  2  0
 53 54  1  0
 21 55  1  0
 55 56  2  0
 56 57  1  0
 56 58  1  0
 10  3  2  0
 55 13  1  0
 53 25  1  0
 48 34  1  0
M  CHG  3   4  -1   7  -1  33  -1
M  END
>  <UniqueID>  (87) 
78

>  <SMILES>  (87) 
C=c1/c(=C\c2c(O)[n-]c(=O)[n-]c2=O)cc(C)n1Cc1ccc(C(=O)[N-]C2CCCCC2)cc1

>  <Energy>  (87) 
111.07641247068622

>  <Genealogy>  (87) 
C=c1c(=Cc2c(O)[n-]c(=O)[n-]c2=O)cc(C)n1Cc1ccc(C(=O)[N-]C2CCCCC2)cc1 (protonated)
C=c1/c(=C\c2c(O)[n-]c(=O)[n-]c2=O)cc(C)n1Cc1ccc(C(=O)[N-]C2CCCCC2)cc1 (cis-trans isomerization)
C=c1/c(=C\c2c(O)[n-]c(=O)[n-]c2=O)cc(C)n1Cc1ccc(C(=O)[N-]C2CCCCC2)cc1 (3D coordinates assigned)
C=c1/c(=C\c2c(O)[n-]c(=O)[n-]c2=O)cc(C)n1Cc1ccc(C(=O)[N-]C2CCCCC2)cc1 (nonaromatic ring conformer: 111.07641247068622 kcal/mol)

>  <smiles>  (87) 
C=c1c(=Cc2c(O)[nH]c(=O)[nH]c2=O)cc(C)n1Cc1ccc(C(=O)NC2CCCCC2)cc1

>  <score_type>  (87) 
oracle

>  <origin>  (87) 
adg

>  <m_score__min__energy>  (87) 
-14.619999999999999

>  <m_primary>  (87) 
energy

$$$$
87:0
     RDKit          3D

 25 25  0  0  0  0  0  0  0  0999 V2000
   57.2890   28.4430   45.5530 C   0  0  0  0  0  0  0  0  0  0  0  0
   57.6640   27.3810   46.2720 C   0  0  0  0  0  0  0  0  0  0  0  0
   58.4830   27.5810   47.5150 C   0  0  0  0  0  0  0  0  0  0  0  0
   57.2260   26.0190   45.8780 C   0  0  0  0  0  0  0  0  0  0  0  0
   55.8570   25.7260   45.7680 C   0  0  0  0  0  0  0  0  0  0  0  0
   54.9000   26.7040   46.0190 O   0  0  0  0  0  0  0  0  0  0  0  0
   55.4390   24.4510   45.3950 C   0  0  0  0  0  0  0  0  0  0  0  0
   56.3680   23.4370   45.1220 C   0  0  0  0  0  0  0  0  0  0  0  0
   55.8900   22.1100   44.8280 N   0  0  0  0  0  0  0  0  0  0  0  0
   55.9740   21.5960   43.5780 O   0  0  0  0  0  0  0  0  0  0  0  0
   57.7550   23.7230   45.1990 C   0  0  0  0  0  0  0  0  0  0  0  0
   58.7610   22.6920   44.8700 C   0  0  0  0  0  0  0  0  0  0  0  0
   59.9070   22.7170   45.3910 O   0  0  0  0  0  0  0  0  0  0  0  0
   58.1780   25.0210   45.5860 C   0  0  0  0  0  0  0  0  0  0  0  0
   59.5360   25.3500   45.6790 O   0  0  0  0  0  0  0  0  0  0  0  0
   56.6891   28.3059   44.6413 H   0  0  0  0  0  0  0  0  0  0  0  0
   57.5802   29.4544   45.8728 H   0  0  0  0  0  0  0  0  0  0  0  0
   57.8491   27.4262   48.4006 H   0  0  0  0  0  0  0  0  0  0  0  0
   59.3129   26.8591   47.5274 H   0  0  0  0  0  0  0  0  0  0  0  0
   58.8868   28.6041   47.5274 H   0  0  0  0  0  0  0  0  0  0  0  0
   54.3633   24.2361   45.3133 H   0  0  0  0  0  0  0  0  0  0  0  0
   55.4030   21.5430   45.5560 H   0  0  0  0  0  0  0  0  0  0  0  0
   55.5160   20.7190   43.6330 H   0  0  0  0  0  0  0  0  0  0  0  0
   58.5052   21.8916   44.1601 H   0  0  0  0  0  0  0  0  0  0  0  0
   60.2880   24.7000   45.4930 H   0  0  0  0  0  0  0  0  0  0  0  0
  1  2  2  0
  2  3  1  0
  2  4  1  0
  4  5  2  0
  5  6  1  0
  5  7  1  0
  7  8  2  0
  8  9  1  0
  9 10  1  0
  8 11  1  0
 11 12  1  0
 12 13  2  0
 11 14  2  0
 14 15  1  0
 14  4  1  0
  1 16  1  0
  1 17  1  0
  3 18  1  0
  3 19  1  0
  3 20  1  0
  7 21  1  0
  9 22  1  0
 10 23  1  0
 12 24  1  0
 15 25  1  0
M  CHG  1   6  -1
M  END
>  <UniqueID>  (88) 
79

>  <SMILES>  (88) 
C=C(C)c1c([O-])cc(NO)c(C=O)c1O

>  <Energy>  (88) 
36.33084806828388

>  <Genealogy>  (88) 
C=C(C)c1c([O-])cc(NO)c(C=O)c1O (protonated)
C=C(C)c1c([O-])cc(NO)c(C=O)c1O (3D coordinates assigned)
C=C(C)c1c([O-])cc(NO)c(C=O)c1O (optimized conformer: 36.33084806828388 kcal/mol)

>  <smiles>  (88) 
C=C(C)c1c(O)cc(NO)c(C=O)c1O

>  <score_type>  (88) 
oracle

>  <origin>  (88) 
adg

>  <m_score__min__energy>  (88) 
-8.3000000000000007

>  <m_primary>  (88) 
energy

$$$$
88:0
     RDKit          3D

 55 58  0  0  0  0  0  0  0  0999 V2000
   55.2395   29.6497   44.1754 H   0  0  0  0  0  0  0  0  0  0  0  0
   56.0560   30.3430   43.9250 C   0  0  0  0  0  0  0  0  0  0  0  0
   56.6540   31.1330   44.8570 N   0  0  0  0  0  0  0  0  0  0  0  0
   57.6240   31.9000   44.3090 C   0  0  0  0  0  0  0  0  0  0  0  0
   58.3650   32.7430   44.9660 N   0  0  0  0  0  0  0  0  0  0  0  0
   58.4480   32.9750   46.3860 C   0  0  0  0  0  0  0  0  0  0  0  0
   57.3920   32.8540   47.0620 O   0  0  0  0  0  0  0  0  0  0  0  0
   59.7160   33.4160   47.0920 C   0  0  2  0  0  0  0  0  0  0  0  0
   60.4238   33.6946   46.2974 H   0  0  0  0  0  0  0  0  0  0  0  0
   60.2520   32.3520   47.9340 N   0  0  0  0  0  0  0  0  0  0  0  0
   60.7480   31.1060   47.4100 C   0  0  0  0  0  0  0  0  0  0  0  0
   61.4890   30.3790   48.1260 O   0  0  0  0  0  0  0  0  0  0  0  0
   60.4140   30.6870   46.0770 N   0  0  0  0  0  0  0  0  0  0  0  0
   59.9100   31.3400   45.4390 H   0  0  0  0  0  0  0  0  0  0  0  0
   60.7660   29.3650   45.5630 C   0  0  0  0  0  0  0  0  0  0  0  0
   61.6132   28.9646   46.1391 H   0  0  0  0  0  0  0  0  0  0  0  0
   61.0428   29.4536   44.5021 H   0  0  0  0  0  0  0  0  0  0  0  0
   59.5930   28.4310   45.6890 C   0  0  0  0  0  0  0  0  0  0  0  0
   58.5030   28.5530   44.8140 C   0  0  0  0  0  0  0  0  0  0  0  0
   58.5209   29.3152   44.0211 H   0  0  0  0  0  0  0  0  0  0  0  0
   57.3950   27.7120   44.9440 C   0  0  0  0  0  0  0  0  0  0  0  0
   56.5442   27.8191   44.2551 H   0  0  0  0  0  0  0  0  0  0  0  0
   57.3600   26.7300   45.9490 C   0  0  0  0  0  0  0  0  0  0  0  0
   56.1770   25.8450   46.0820 C   0  0  0  0  0  0  0  0  0  0  0  0
   55.0230   26.3460   46.0190 O   0  0  0  0  0  0  0  0  0  0  0  0
   56.3020   24.4380   46.3370 N   0  0  0  0  0  0  0  0  0  0  0  0
   56.7030   23.4310   45.3930 C   0  0  0  0  0  0  0  0  0  0  0  0
   57.9020   22.7130   45.5650 C   0  0  0  0  0  0  0  0  0  0  0  0
   58.5386   22.9146   46.4391 H   0  0  0  0  0  0  0  0  0  0  0  0
   58.2890   21.7460   44.6330 C   0  0  0  0  0  0  0  0  0  0  0  0
   59.2198   21.1793   44.7830 H   0  0  0  0  0  0  0  0  0  0  0  0
   57.4950   21.4990   43.5120 C   0  0  0  0  0  0  0  0  0  0  0  0
   57.7973   20.7338   42.7819 H   0  0  0  0  0  0  0  0  0  0  0  0
   56.3170   22.2230   43.3170 C   0  0  0  0  0  0  0  0  0  0  0  0
   55.6990   22.0303   42.4276 H   0  0  0  0  0  0  0  0  0  0  0  0
   55.9150   23.1950   44.2470 C   0  0  0  0  0  0  0  0  0  0  0  0
   54.7050   23.9290   44.0230 N   0  0  0  0  0  0  0  0  0  0  0  0
   54.0430   23.6740   43.2550 H   0  0  0  0  0  0  0  0  0  0  0  0
   54.4520   24.7350   44.6380 H   0  0  0  0  0  0  0  0  0  0  0  0
   58.4450   26.6230   46.8370 C   0  0  0  0  0  0  0  0  0  0  0  0
   58.4224   25.8707   47.6392 H   0  0  0  0  0  0  0  0  0  0  0  0
   59.5530   27.4670   46.7070 C   0  0  0  0  0  0  0  0  0  0  0  0
   60.3969   27.3742   47.4065 H   0  0  0  0  0  0  0  0  0  0  0  0
   60.4250   32.7600   49.3170 C   0  0  0  0  0  0  0  0  0  0  0  0
   59.7145   32.2258   49.9649 H   0  0  0  0  0  0  0  0  0  0  0  0
   61.4365   32.5285   49.6821 H   0  0  0  0  0  0  0  0  0  0  0  0
   60.1490   34.2560   49.3500 C   0  0  0  0  0  0  0  0  0  0  0  0
   59.5075   34.5063   50.2078 H   0  0  0  0  0  0  0  0  0  0  0  0
   61.0799   34.8325   49.4559 H   0  0  0  0  0  0  0  0  0  0  0  0
   59.4360   34.5880   48.0420 C   0  0  0  0  0  0  0  0  0  0  0  0
   58.3542   34.6903   48.2128 H   0  0  0  0  0  0  0  0  0  0  0  0
   59.7935   35.5393   47.6210 H   0  0  0  0  0  0  0  0  0  0  0  0
   57.7820   31.6280   42.6570 S   0  0  0  0  0  0  0  0  0  0  0  0
   56.5530   30.4760   42.6300 C   0  0  0  0  0  0  0  0  0  0  0  0
   56.2037   29.9249   41.7444 H   0  0  0  0  0  0  0  0  0  0  0  0
  1  2  1  0
  2  3  1  0
  3  4  1  0
  4  5  2  0
  5  6  1  0
  6  7  2  0
  6  8  1  0
  8  9  1  6
  8 10  1  0
 10 11  1  0
 11 12  2  0
 11 13  1  0
 13 14  1  0
 13 15  1  0
 15 16  1  0
 15 17  1  0
 15 18  1  0
 18 19  2  0
 19 20  1  0
 19 21  1  0
 21 22  1  0
 21 23  2  0
 23 24  1  0
 24 25  2  0
 24 26  1  0
 26 27  1  0
 27 28  2  0
 28 29  1  0
 28 30  1  0
 30 31  1  0
 30 32  2  0
 32 33  1  0
 32 34  1  0
 34 35  1  0
 34 36  2  0
 36 37  1  0
 37 38  1  0
 37 39  1  0
 23 40  1  0
 40 41  1  0
 40 42  2  0
 42 43  1  0
 10 44  1  0
 44 45  1  0
 44 46  1  0
 44 47  1  0
 47 48  1  0
 47 49  1  0
 47 50  1  0
 50 51  1  0
 50 52  1  0
  4 53  1  0
 53 54  1  0
 54 55  1  0
 54  2  2  0
 50  8  1  0
 42 18  1  0
 36 27  1  0
M  CHG  2   3  -1  26  -1
M  END
>  <UniqueID>  (89) 
80

>  <SMILES>  (89) 
Nc1ccccc1[N-]C(=O)c1ccc(CNC(=O)N2CCC[C@@H]2C(=O)/N=c2\[n-]ccs2)cc1

>  <Energy>  (89) 
97.37897081964952

>  <Genealogy>  (89) 
Nc1ccccc1[N-]C(=O)c1ccc(CNC(=O)N2CCCC2C(=O)N=c2[n-]ccs2)cc1 (protonated)
Nc1ccccc1[N-]C(=O)c1ccc(CNC(=O)N2CCC[C@@H]2C(=O)N=c2[n-]ccs2)cc1 (chirality)
Nc1ccccc1[N-]C(=O)c1ccc(CNC(=O)N2CCC[C@@H]2C(=O)/N=c2\[n-]ccs2)cc1 (cis-trans isomerization)
Nc1ccccc1[N-]C(=O)c1ccc(CNC(=O)N2CCC[C@@H]2C(=O)/N=c2\[n-]ccs2)cc1 (3D coordinates assigned)
Nc1ccccc1[N-]C(=O)c1ccc(CNC(=O)N2CCC[C@@H]2C(=O)/N=c2\[n-]ccs2)cc1 (nonaromatic ring conformer: 97.37897081964952 kcal/mol)

>  <smiles>  (89) 
Nc1ccccc1NC(=O)c1ccc(CNC(=O)N2CCCC2C(=O)N=c2[nH]ccs2)cc1

>  <score_type>  (89) 
oracle

>  <origin>  (89) 
adg

>  <m_score__min__energy>  (89) 
-12.35

>  <m_primary>  (89) 
energy

$$$$
89:0
     RDKit          3D

 41 43  0  0  0  0  0  0  0  0999 V2000
   63.5370   31.0170   50.7630 C   0  0  0  0  0  0  0  0  0  0  0  0
   62.4340   30.1700   51.0290 O   0  0  0  0  0  0  0  0  0  0  0  0
   61.4830   29.8800   50.0720 C   0  0  0  0  0  0  0  0  0  0  0  0
   60.9950   30.8110   49.1770 C   0  0  0  0  0  0  0  0  0  0  0  0
   60.0300   30.4510   48.2290 C   0  0  0  0  0  0  0  0  0  0  0  0
   59.5300   29.1630   48.1540 C   0  0  0  0  0  0  0  0  0  0  0  0
   58.5480   28.8150   47.1330 C   0  0  0  0  0  0  0  0  0  0  0  0
   58.1400   27.5240   46.8950 C   0  0  0  0  0  0  0  0  0  0  0  0
   57.1930   27.2880   45.9170 C   0  0  0  0  0  0  0  0  0  0  0  0
   56.6870   25.9310   45.6410 C   0  0  0  0  0  0  0  0  0  0  0  0
   56.9840   25.4200   44.3240 N   0  0  0  0  0  0  0  0  0  0  0  0
   57.3750   24.0280   44.2630 C   0  0  0  0  0  0  0  0  0  0  0  0
   56.5920   23.0990   43.6070 C   0  0  0  0  0  0  0  0  0  0  0  0
   56.9500   21.7760   43.5690 C   0  0  0  0  0  0  0  0  0  0  0  0
   56.2530   20.8930   42.9740 O   0  0  0  0  0  0  0  0  0  0  0  0
   58.0890   21.4140   44.1920 N   0  0  0  0  0  0  0  0  0  0  0  0
   58.8710   22.3280   44.8430 C   0  0  0  0  0  0  0  0  0  0  0  0
   59.9220   21.8550   45.4000 N   0  0  0  0  0  0  0  0  0  0  0  0
   58.5310   23.6390   44.8890 N   0  0  0  0  0  0  0  0  0  0  0  0
   56.6590   28.3140   45.1840 N   0  0  0  0  0  0  0  0  0  0  0  0
   57.0790   29.5860   45.4390 C   0  0  0  0  0  0  0  0  0  0  0  0
   56.5770   30.5160   44.7600 O   0  0  0  0  0  0  0  0  0  0  0  0
   58.0030   29.8250   46.3930 N   0  0  0  0  0  0  0  0  0  0  0  0
   60.0320   28.2500   49.0620 C   0  0  0  0  0  0  0  0  0  0  0  0
   60.9860   28.5710   50.0070 C   0  0  0  0  0  0  0  0  0  0  0  0
   63.9772   31.3550   51.7127 H   0  0  0  0  0  0  0  0  0  0  0  0
   64.2924   30.4647   50.1848 H   0  0  0  0  0  0  0  0  0  0  0  0
   63.1984   31.8894   50.1848 H   0  0  0  0  0  0  0  0  0  0  0  0
   61.3680   31.8453   49.2091 H   0  0  0  0  0  0  0  0  0  0  0  0
   59.6597   31.2115   47.5257 H   0  0  0  0  0  0  0  0  0  0  0  0
   58.5618   26.6901   47.4753 H   0  0  0  0  0  0  0  0  0  0  0  0
   57.1295   25.2462   46.3794 H   0  0  0  0  0  0  0  0  0  0  0  0
   55.5907   25.9957   45.7031 H   0  0  0  0  0  0  0  0  0  0  0  0
   56.9200   26.0050   43.4400 H   0  0  0  0  0  0  0  0  0  0  0  0
   55.6677   23.4250   43.1077 H   0  0  0  0  0  0  0  0  0  0  0  0
   58.3500   20.3960   44.1650 H   0  0  0  0  0  0  0  0  0  0  0  0
   60.2860   20.9170   45.2280 H   0  0  0  0  0  0  0  0  0  0  0  0
   59.1430   24.3170   45.3890 H   0  0  0  0  0  0  0  0  0  0  0  0
   55.9410   28.1370   44.4430 H   0  0  0  0  0  0  0  0  0  0  0  0
   59.6532   27.2178   49.0303 H   0  0  0  0  0  0  0  0  0  0  0  0
   61.3538   27.8042   50.7046 H   0  0  0  0  0  0  0  0  0  0  0  0
  1  2  1  0
  2  3  1  0
  3  4  2  0
  4  5  1  0
  5  6  2  0
  6  7  1  0
  7  8  1  0
  8  9  2  0
  9 10  1  0
 10 11  1  0
 11 12  1  0
 12 13  2  0
 13 14  1  0
 14 15  2  0
 14 16  1  0
 16 17  1  0
 17 18  2  3
 17 19  1  0
  9 20  1  0
 20 21  1  0
 21 22  2  0
 21 23  1  0
  6 24  1  0
 24 25  2  0
 25  3  1  0
 23  7  2  0
 19 12  1  0
  1 26  1  0
  1 27  1  0
  1 28  1  0
  4 29  1  0
  5 30  1  0
  8 31  1  0
 10 32  1  0
 10 33  1  0
 11 34  1  0
 13 35  1  0
 16 36  1  0
 18 37  1  0
 19 38  1  0
 20 39  1  0
 24 40  1  0
 25 41  1  0
M  END
>  <smiles>  (90) 
COc1ccc(-c2cc(CNc3cc(=O)[nH]c(=N)[nH]3)[nH]c(=O)n2)cc1

>  <score_type>  (90) 
oracle

>  <origin>  (90) 
adg

>  <m_score__min__energy>  (90) 
-9.0500000000000007

>  <m_primary>  (90) 
energy

$$$$
90:0
     RDKit          3D

 45 48  0  0  0  0  0  0  0  0999 V2000
   59.3920   34.6190   47.8580 O   0  0  0  0  0  0  0  0  0  0  0  0
   59.0960   33.7730   46.9710 C   0  0  0  0  0  0  0  0  0  0  0  0
   57.7150   33.7610   46.3950 C   0  0  0  0  0  0  0  0  0  0  0  0
   57.7720   33.5600   44.5820 S   0  0  0  0  0  0  0  0  0  0  0  0
   57.6480   31.7750   44.6280 C   0  0  0  0  0  0  0  0  0  0  0  0
   56.4160   31.1810   44.7350 N   0  0  0  0  0  0  0  0  0  0  0  0
   56.2840   29.8230   44.7640 C   0  0  0  0  0  0  0  0  0  0  0  0
   55.1460   29.2920   44.8580 O   0  0  0  0  0  0  0  0  0  0  0  0
   57.4380   29.0540   44.6840 C   0  0  0  0  0  0  0  0  0  0  0  0
   57.6590   27.6940   44.6840 C   0  0  0  0  0  0  0  0  0  0  0  0
   59.0420   27.5570   44.5780 C   0  0  0  0  0  0  0  0  0  0  0  0
   59.6460   28.7680   44.5170 N   0  0  0  0  0  0  0  0  0  0  0  0
   58.6500   29.6630   44.5830 C   0  0  0  0  0  0  0  0  0  0  0  0
   58.7800   31.0120   44.5540 N   0  0  0  0  0  0  0  0  0  0  0  0
   60.0570   32.7920   46.5550 N   0  0  0  0  0  0  0  0  0  0  0  0
   61.4060   32.7800   47.0420 C   0  0  0  0  0  0  0  0  0  0  0  0
   62.2410   33.8650   46.7440 C   0  0  0  0  0  0  0  0  0  0  0  0
   63.5730   33.8690   47.1650 C   0  0  0  0  0  0  0  0  0  0  0  0
   64.0780   32.7930   47.8960 C   0  0  0  0  0  0  0  0  0  0  0  0
   63.2490   31.7180   48.2230 C   0  0  0  0  0  0  0  0  0  0  0  0
   61.9060   31.7020   47.8100 C   0  0  0  0  0  0  0  0  0  0  0  0
   61.0500   30.6300   48.2450 N   0  0  0  0  0  0  0  0  0  0  0  0
   60.7510   29.5180   47.3350 C   0  0  0  0  0  0  0  0  0  0  0  0
   59.4650   28.8150   47.7710 C   0  0  0  0  0  0  0  0  0  0  0  0
   58.5170   29.7840   48.1660 O   0  0  0  0  0  0  0  0  0  0  0  0
   58.8750   30.3520   49.4170 C   0  0  0  0  0  0  0  0  0  0  0  0
   60.3780   30.6960   49.5480 C   0  0  0  0  0  0  0  0  0  0  0  0
   57.1486   32.9259   46.8330 H   0  0  0  0  0  0  0  0  0  0  0  0
   57.2267   34.7185   46.6288 H   0  0  0  0  0  0  0  0  0  0  0  0
   56.9088   26.8925   44.7526 H   0  0  0  0  0  0  0  0  0  0  0  0
   59.5724   26.5938   44.5479 H   0  0  0  0  0  0  0  0  0  0  0  0
   60.6680   28.9600   44.4350 H   0  0  0  0  0  0  0  0  0  0  0  0
   59.7160   31.9590   46.0230 H   0  0  0  0  0  0  0  0  0  0  0  0
   61.8452   34.7191   46.1749 H   0  0  0  0  0  0  0  0  0  0  0  0
   64.2242   34.7210   46.9201 H   0  0  0  0  0  0  0  0  0  0  0  0
   65.1307   32.7916   48.2151 H   0  0  0  0  0  0  0  0  0  0  0  0
   63.6502   30.8775   48.8082 H   0  0  0  0  0  0  0  0  0  0  0  0
   60.6249   29.9071   46.3139 H   0  0  0  0  0  0  0  0  0  0  0  0
   61.5820   28.7978   47.3606 H   0  0  0  0  0  0  0  0  0  0  0  0
   59.0636   28.2285   46.9315 H   0  0  0  0  0  0  0  0  0  0  0  0
   59.6794   28.1424   48.6146 H   0  0  0  0  0  0  0  0  0  0  0  0
   58.2957   31.2769   49.5548 H   0  0  0  0  0  0  0  0  0  0  0  0
   58.6551   29.5945   50.1837 H   0  0  0  0  0  0  0  0  0  0  0  0
   60.4798   31.7134   49.9537 H   0  0  0  0  0  0  0  0  0  0  0  0
   60.8471   29.9630   50.2209 H   0  0  0  0  0  0  0  0  0  0  0  0
  1  2  2  0
  2  3  1  0
  3  4  1  0
  4  5  1  0
  5  6  2  0
  6  7  1  0
  7  8  2  0
  7  9  1  0
  9 10  1  0
 10 11  2  0
 11 12  1  0
 12 13  1  0
 13 14  1  0
  2 15  1  0
 15 16  1  0
 16 17  2  0
 17 18  1  0
 18 19  2  0
 19 20  1  0
 20 21  2  0
 21 22  1  0
 22 23  1  0
 23 24  1  0
 24 25  1  0
 25 26  1  0
 26 27  1  0
 14  5  1  0
 21 16  1  0
 27 22  1  0
 13  9  2  0
  3 28  1  0
  3 29  1  0
 10 30  1  0
 11 31  1  0
 12 32  1  0
 15 33  1  0
 17 34  1  0
 18 35  1  0
 19 36  1  0
 20 37  1  0
 23 38  1  0
 23 39  1  0
 24 40  1  0
 24 41  1  0
 26 42  1  0
 26 43  1  0
 27 44  1  0
 27 45  1  0
M  CHG  1  14  -1
M  END
>  <UniqueID>  (91) 
81

>  <SMILES>  (91) 
O=C(CSc1nc(=O)c2cc[nH]c2[n-]1)Nc1ccccc1N1CCOCC1

>  <Energy>  (91) 
95.34007191333706

>  <Genealogy>  (91) 
O=C(CSc1nc(=O)c2cc[nH]c2[n-]1)Nc1ccccc1N1CCOCC1 (protonated)
O=C(CSc1nc(=O)c2cc[nH]c2[n-]1)Nc1ccccc1N1CCOCC1 (3D coordinates assigned)
O=C(CSc1nc(=O)c2cc[nH]c2[n-]1)Nc1ccccc1N1CCOCC1 (nonaromatic ring conformer: 95.34007191333706 kcal/mol)

>  <smiles>  (91) 
O=C(CSc1nc(=O)c2cc[nH]c2[nH]1)Nc1ccccc1N1CCOCC1

>  <score_type>  (91) 
oracle

>  <origin>  (91) 
adg

>  <m_score__min__energy>  (91) 
-9.4900000000000002

>  <m_primary>  (91) 
energy

$$$$
91:0
     RDKit          3D

 49 52  0  0  0  0  0  0  0  0999 V2000
   56.8940   19.6640   43.5250 H   0  0  0  0  0  0  0  0  0  0  0  0
   56.2520   20.4480   43.5350 O   0  0  0  0  0  0  0  0  0  0  0  0
   56.4600   21.5510   44.3600 C   0  0  0  0  0  0  0  0  0  0  0  0
   55.9690   21.5620   45.6740 C   0  0  0  0  0  0  0  0  0  0  0  0
   55.4119   20.6954   46.0595 H   0  0  0  0  0  0  0  0  0  0  0  0
   56.1870   22.6740   46.4950 C   0  0  0  0  0  0  0  0  0  0  0  0
   55.8168   22.6724   47.5308 H   0  0  0  0  0  0  0  0  0  0  0  0
   56.8780   23.7930   45.9990 C   0  0  0  0  0  0  0  0  0  0  0  0
   57.1710   24.9420   46.8760 C   0  0  0  0  0  0  0  0  0  0  0  0
   57.3456   24.7262   47.9404 H   0  0  0  0  0  0  0  0  0  0  0  0
   57.2450   26.2420   46.4900 C   0  0  0  0  0  0  0  0  0  0  0  0
   56.1540   26.9520   45.9240 C   0  0  0  0  0  0  0  0  0  0  0  0
   54.9230   26.3450   45.6960 O   0  0  0  0  0  0  0  0  0  0  0  0
   56.2920   28.2990   45.5650 C   0  0  0  0  0  0  0  0  0  0  0  0
   55.1430   29.0110   45.2340 O   0  0  0  0  0  0  0  0  0  0  0  0
   57.5530   28.9260   45.6580 C   0  0  0  0  0  0  0  0  0  0  0  0
   57.8030   30.2010   45.2770 C   0  0  0  0  0  0  0  0  0  0  0  0
   58.5190   31.0340   46.0700 N   0  0  0  0  0  0  0  0  0  0  0  0
   58.5380   32.2370   45.4640 C   0  0  0  0  0  0  0  0  0  0  0  0
   59.2120   33.4130   46.0360 C   0  0  0  0  0  0  0  0  0  0  0  0
   60.0830   34.0200   45.3560 O   0  0  0  0  0  0  0  0  0  0  0  0
   58.8720   33.8740   47.3480 N   0  0  0  0  0  0  0  0  0  0  0  0
   59.8370   34.0040   48.4330 C   0  0  0  0  0  0  0  0  0  0  0  0
   60.0486   35.0695   48.6059 H   0  0  0  0  0  0  0  0  0  0  0  0
   59.4170   33.5529   49.3441 H   0  0  0  0  0  0  0  0  0  0  0  0
   61.1140   33.2950   48.0770 C   0  0  0  0  0  0  0  0  0  0  0  0
   62.2570   34.0370   47.7330 C   0  0  0  0  0  0  0  0  0  0  0  0
   62.2070   35.1352   47.6958 H   0  0  0  0  0  0  0  0  0  0  0  0
   63.4570   33.3840   47.4380 C   0  0  0  0  0  0  0  0  0  0  0  0
   64.3448   33.9685   47.1549 H   0  0  0  0  0  0  0  0  0  0  0  0
   63.5310   31.9900   47.5020 C   0  0  0  0  0  0  0  0  0  0  0  0
   64.4788   31.4787   47.2779 H   0  0  0  0  0  0  0  0  0  0  0  0
   62.4000   31.2450   47.8510 C   0  0  0  0  0  0  0  0  0  0  0  0
   62.4590   30.1477   47.9012 H   0  0  0  0  0  0  0  0  0  0  0  0
   61.1950   31.8930   48.1360 C   0  0  0  0  0  0  0  0  0  0  0  0
   60.3067   31.3037   48.4075 H   0  0  0  0  0  0  0  0  0  0  0  0
   57.8690   32.1750   44.2620 C   0  0  0  0  0  0  0  0  0  0  0  0
   57.7260   33.2100   43.3440 O   0  0  0  0  0  0  0  0  0  0  0  0
   57.4270   30.8780   44.1030 C   0  0  0  0  0  0  0  0  0  0  0  0
   56.9740   30.3820   42.9460 C   0  0  0  0  0  0  0  0  0  0  0  0
   56.6365   29.3365   42.8903 H   0  0  0  0  0  0  0  0  0  0  0  0
   56.9390   31.0197   42.0504 H   0  0  0  0  0  0  0  0  0  0  0  0
   58.5680   28.2350   46.2420 N   0  0  0  0  0  0  0  0  0  0  0  0
   58.4630   26.9440   46.6460 C   0  0  0  0  0  0  0  0  0  0  0  0
   59.4720   26.3930   47.1670 O   0  0  0  0  0  0  0  0  0  0  0  0
   57.3900   23.7660   44.6930 C   0  0  0  0  0  0  0  0  0  0  0  0
   57.9654   24.6225   44.3117 H   0  0  0  0  0  0  0  0  0  0  0  0
   57.1710   22.6540   43.8750 C   0  0  0  0  0  0  0  0  0  0  0  0
   57.5592   22.6461   42.8458 H   0  0  0  0  0  0  0  0  0  0  0  0
  1  2  1  0
  2  3  1  0
  3  4  2  0
  4  5  1  0
  4  6  1  0
  6  7  1  0
  6  8  2  0
  8  9  1  0
  9 10  1  0
  9 11  2  0
 11 12  1  0
 12 13  1  0
 12 14  2  0
 14 15  1  0
 14 16  1  0
 16 17  2  3
 17 18  1  0
 18 19  1  0
 19 20  1  0
 20 21  2  0
 20 22  1  0
 22 23  1  0
 23 24  1  0
 23 25  1  0
 23 26  1  0
 26 27  2  0
 27 28  1  0
 27 29  1  0
 29 30  1  0
 29 31  2  0
 31 32  1  0
 31 33  1  0
 33 34  1  0
 33 35  2  0
 35 36  1  0
 19 37  2  0
 37 38  1  0
 37 39  1  0
 39 40  2  0
 40 41  1  0
 40 42  1  0
 16 43  1  0
 43 44  1  0
 44 45  2  0
  8 46  1  0
 46 47  1  0
 46 48  2  0
 48 49  1  0
 48  3  1  0
 44 11  1  0
 39 17  1  0
 35 26  1  0
M  CHG  6  13  -1  15  -1  18  -1  22  -1  38  -1  43  -1
M  END
>  <UniqueID>  (92) 
82

>  <SMILES>  (92) 
C=c1c([O-])c(C(=O)[N-]Cc2ccccc2)[n-]c1=c1[n-]c(=O)/c(=C/c2ccc(O)cc2)c([O-])c1[O-]

>  <Energy>  (92) 
115.13435011012625

>  <Genealogy>  (92) 
C=c1c([O-])c(C(=O)[N-]Cc2ccccc2)[n-]c1=c1[n-]c(=O)c(=Cc2ccc(O)cc2)c([O-])c1[O-] (protonated)
C=c1c([O-])c(C(=O)[N-]Cc2ccccc2)[n-]c1=c1[n-]c(=O)/c(=C/c2ccc(O)cc2)c([O-])c1[O-] (cis-trans isomerization)
C=c1c([O-])c(C(=O)[N-]Cc2ccccc2)[n-]c1=c1[n-]c(=O)/c(=C/c2ccc(O)cc2)c([O-])c1[O-] (3D coordinates assigned)
C=c1c([O-])c(C(=O)[N-]Cc2ccccc2)[n-]c1=c1[n-]c(=O)/c(=C/c2ccc(O)cc2)c([O-])c1[O-] (optimized conformer: 115.13435011012625 kcal/mol)

>  <smiles>  (92) 
C=c1c(O)c(C(=O)NCc2ccccc2)[nH]c1=c1[nH]c(=O)c(=Cc2ccc(O)cc2)c(O)c1O

>  <score_type>  (92) 
oracle

>  <origin>  (92) 
adg

>  <m_score__min__energy>  (92) 
-20.120000000000001

>  <m_primary>  (92) 
energy

$$$$
92:0
     RDKit          3D

 37 39  0  0  0  0  0  0  0  0999 V2000
   56.4750   22.8860   43.0640 C   0  0  0  0  0  0  0  0  0  0  0  0
   55.4480   22.3700   43.9590 N   0  0  0  0  0  0  0  0  0  0  0  0
   54.7330   23.1380   44.9360 C   0  0  0  0  0  0  0  0  0  0  0  0
   53.5650   22.7810   45.2410 O   0  0  0  0  0  0  0  0  0  0  0  0
   55.3140   24.3250   45.5970 C   0  0  0  0  0  0  0  0  0  0  0  0
   56.5110   24.3610   46.2870 C   0  0  0  0  0  0  0  0  0  0  0  0
   56.5930   25.6810   46.7010 C   0  0  0  0  0  0  0  0  0  0  0  0
   57.5470   26.2440   47.3880 N   0  0  0  0  0  0  0  0  0  0  0  0
   58.6220   27.0700   46.9110 C   0  0  0  0  0  0  0  0  0  0  0  0
   59.7960   26.9240   47.3470 O   0  0  0  0  0  0  0  0  0  0  0  0
   58.3270   28.1590   45.9530 C   0  0  0  0  0  0  0  0  0  0  0  0
   58.5960   29.4840   46.3370 C   0  0  0  0  0  0  0  0  0  0  0  0
   58.3860   30.5540   45.4520 C   0  0  0  0  0  0  0  0  0  0  0  0
   58.6860   31.9260   45.9140 C   0  0  0  0  0  0  0  0  0  0  0  0
   59.9450   32.2580   46.4390 C   0  0  0  0  0  0  0  0  0  0  0  0
   60.1990   33.5720   46.8370 C   0  0  0  0  0  0  0  0  0  0  0  0
   59.2070   34.5430   46.6990 C   0  0  0  0  0  0  0  0  0  0  0  0
   59.4430   35.8230   47.0790 F   0  0  0  0  0  0  0  0  0  0  0  0
   57.9710   34.1850   46.1560 C   0  0  0  0  0  0  0  0  0  0  0  0
   57.7420   32.9000   45.7750 N   0  0  0  0  0  0  0  0  0  0  0  0
   57.9280   30.2860   44.1460 C   0  0  0  0  0  0  0  0  0  0  0  0
   57.7610   31.5530   42.9330 Cl  0  0  0  0  0  0  0  0  0  0  0  0
   57.6420   28.9730   43.7660 C   0  0  0  0  0  0  0  0  0  0  0  0
   57.8120   27.9100   44.6590 C   0  0  0  0  0  0  0  0  0  0  0  0
   57.4330   26.6350   44.2320 O   0  0  0  0  0  0  0  0  0  0  0  0
   55.5170   26.3640   46.2770 N   0  0  0  0  0  0  0  0  0  0  0  0
   54.7730   25.5220   45.6210 O   0  0  0  0  0  0  0  0  0  0  0  0
   57.3029   23.3019   43.6570 H   0  0  0  0  0  0  0  0  0  0  0  0
   56.8520   22.0703   42.4296 H   0  0  0  0  0  0  0  0  0  0  0  0
   56.0456   23.6754   42.4296 H   0  0  0  0  0  0  0  0  0  0  0  0
   57.2240   23.5423   46.4642 H   0  0  0  0  0  0  0  0  0  0  0  0
   58.9777   29.6865   47.3486 H   0  0  0  0  0  0  0  0  0  0  0  0
   60.7254   31.4888   46.5361 H   0  0  0  0  0  0  0  0  0  0  0  0
   61.1789   33.8408   47.2583 H   0  0  0  0  0  0  0  0  0  0  0  0
   57.1826   34.9428   46.0365 H   0  0  0  0  0  0  0  0  0  0  0  0
   57.2772   28.7715   42.7480 H   0  0  0  0  0  0  0  0  0  0  0  0
   56.5310   26.2260   44.4340 H   0  0  0  0  0  0  0  0  0  0  0  0
  1  2  1  0
  2  3  1  0
  3  4  2  0
  3  5  1  0
  5  6  2  0
  6  7  1  0
  7  8  2  3
  8  9  1  0
  9 10  2  0
  9 11  1  0
 11 12  2  0
 12 13  1  0
 13 14  1  0
 14 15  2  0
 15 16  1  0
 16 17  2  0
 17 18  1  0
 17 19  1  0
 19 20  2  0
 13 21  2  0
 21 22  1  0
 21 23  1  0
 23 24  2  0
 24 25  1  0
  7 26  1  0
 26 27  1  0
 27  5  1  0
 24 11  1  0
 20 14  1  0
  1 28  1  0
  1 29  1  0
  1 30  1  0
  6 31  1  0
 12 32  1  0
 15 33  1  0
 16 34  1  0
 19 35  1  0
 23 36  1  0
 25 37  1  0
M  CHG  2   2  -1  26  -1
M  END
>  <UniqueID>  (93) 
83

>  <SMILES>  (93) 
C[N-]C(=O)c1cc(=NC(=O)c2cc(-c3ccc(F)cn3)c(Cl)cc2O)[n-]o1

>  <Energy>  (93) 
86.8025810077927

>  <Genealogy>  (93) 
C[N-]C(=O)c1cc(=NC(=O)c2cc(-c3ccc(F)cn3)c(Cl)cc2O)[n-]o1 (protonated)
C[N-]C(=O)c1cc(=NC(=O)c2cc(-c3ccc(F)cn3)c(Cl)cc2O)[n-]o1 (3D coordinates assigned)
C[N-]C(=O)c1cc(=NC(=O)c2cc(-c3ccc(F)cn3)c(Cl)cc2O)[n-]o1 (optimized conformer: 86.8025810077927 kcal/mol)

>  <smiles>  (93) 
CNC(=O)c1cc(=NC(=O)c2cc(-c3ccc(F)cn3)c(Cl)cc2O)[nH]o1

>  <score_type>  (93) 
oracle

>  <origin>  (93) 
adg

>  <m_score__min__energy>  (93) 
-12.09

>  <m_primary>  (93) 
energy

$$$$
93:0
     RDKit          3D

 41 43  0  0  0  0  0  0  0  0999 V2000
   60.4301   35.5209   46.0020 H   0  0  0  0  0  0  0  0  0  0  0  0
   59.7360   34.6840   45.8350 C   0  0  0  0  0  0  0  0  0  0  0  0
   60.0750   33.4310   46.2340 N   0  0  0  0  0  0  0  0  0  0  0  0
   59.2470   32.3630   46.0530 C   0  0  0  0  0  0  0  0  0  0  0  0
   59.6000   31.1690   46.4370 N   0  0  0  0  0  0  0  0  0  0  0  0
   59.7310   30.7060   47.7910 C   0  0  0  0  0  0  0  0  0  0  0  0
   58.6920   30.3960   48.4300 O   0  0  0  0  0  0  0  0  0  0  0  0
   61.0080   30.5680   48.4350 N   0  0  0  0  0  0  0  0  0  0  0  0
   62.0120   31.4020   48.3840 C   0  0  0  0  0  0  0  0  0  0  0  0
   62.8780   31.6080   49.4790 C   0  0  0  0  0  0  0  0  0  0  0  0
   62.7241   31.0555   50.4176 H   0  0  0  0  0  0  0  0  0  0  0  0
   63.9310   32.5170   49.3640 C   0  0  0  0  0  0  0  0  0  0  0  0
   64.6054   32.6899   50.2156 H   0  0  0  0  0  0  0  0  0  0  0  0
   64.1260   33.2050   48.1680 C   0  0  0  0  0  0  0  0  0  0  0  0
   64.9496   33.9277   48.0707 H   0  0  0  0  0  0  0  0  0  0  0  0
   63.2660   32.9680   47.0950 C   0  0  0  0  0  0  0  0  0  0  0  0
   63.4152   33.5012   46.1445 H   0  0  0  0  0  0  0  0  0  0  0  0
   62.2430   32.0790   47.2210 N   0  0  0  0  0  0  0  0  0  0  0  0
   61.6150   31.9250   46.3990 H   0  0  0  0  0  0  0  0  0  0  0  0
   58.0060   32.5430   45.4180 C   0  0  0  0  0  0  0  0  0  0  0  0
   57.1720   31.4280   45.2260 O   0  0  0  0  0  0  0  0  0  0  0  0
   57.3060   30.4660   44.1790 C   0  0  0  0  0  0  0  0  0  0  0  0
   56.3551   30.3957   43.6305 H   0  0  0  0  0  0  0  0  0  0  0  0
   58.1143   30.7886   43.5063 H   0  0  0  0  0  0  0  0  0  0  0  0
   57.6550   29.1120   44.7360 C   0  0  0  0  0  0  0  0  0  0  0  0
   58.9810   28.6540   44.7150 C   0  0  0  0  0  0  0  0  0  0  0  0
   59.7741   29.2898   44.2945 H   0  0  0  0  0  0  0  0  0  0  0  0
   59.2970   27.3940   45.2260 C   0  0  0  0  0  0  0  0  0  0  0  0
   60.3397   27.0438   45.2136 H   0  0  0  0  0  0  0  0  0  0  0  0
   58.2950   26.5760   45.7530 C   0  0  0  0  0  0  0  0  0  0  0  0
   58.5529   25.5852   46.1553 H   0  0  0  0  0  0  0  0  0  0  0  0
   56.9590   27.0120   45.7720 C   0  0  0  0  0  0  0  0  0  0  0  0
   55.8980   26.1420   46.3260 C   0  0  0  0  0  0  0  0  0  0  0  0
   56.1840   25.2090   47.1240 O   0  0  0  0  0  0  0  0  0  0  0  0
   54.5670   26.3410   45.9740 O   0  0  0  0  0  0  0  0  0  0  0  0
   56.6460   28.2820   45.2540 C   0  0  0  0  0  0  0  0  0  0  0  0
   55.6020   28.6286   45.2544 H   0  0  0  0  0  0  0  0  0  0  0  0
   57.6420   33.8390   45.0040 C   0  0  0  0  0  0  0  0  0  0  0  0
   56.6715   34.0064   44.5139 H   0  0  0  0  0  0  0  0  0  0  0  0
   58.5090   34.9100   45.2140 C   0  0  0  0  0  0  0  0  0  0  0  0
   58.2275   35.9237   44.8927 H   0  0  0  0  0  0  0  0  0  0  0  0
  1  2  1  0
  2  3  1  0
  3  4  1  0
  4  5  2  3
  5  6  1  0
  6  7  2  0
  6  8  1  0
  8  9  2  0
  9 10  1  0
 10 11  1  0
 10 12  2  0
 12 13  1  0
 12 14  1  0
 14 15  1  0
 14 16  2  0
 16 17  1  0
 16 18  1  0
 18 19  1  0
  4 20  1  0
 20 21  1  0
 21 22  1  0
 22 23  1  0
 22 24  1  0
 22 25  1  0
 25 26  2  0
 26 27  1  0
 26 28  1  0
 28 29  1  0
 28 30  2  0
 30 31  1  0
 30 32  1  0
 32 33  1  0
 33 34  2  0
 33 35  1  0
 32 36  2  0
 36 37  1  0
 20 38  2  0
 38 39  1  0
 38 40  1  0
 40 41  1  0
 40  2  2  0
 18  9  1  0
 36 25  1  0
M  CHG  2   3  -1  35  -1
M  END
>  <UniqueID>  (94) 
84

>  <SMILES>  (94) 
O=C(N=c1[n-]cccc1OCc1cccc(C(=O)[O-])c1)/N=c1\cccc[nH]1

>  <Energy>  (94) 
57.488097324008095

>  <Genealogy>  (94) 
O=C(N=c1cccc[nH]1)N=c1[n-]cccc1OCc1cccc(C(=O)[O-])c1 (protonated)
O=C(N=c1[n-]cccc1OCc1cccc(C(=O)[O-])c1)/N=c1\cccc[nH]1 (cis-trans isomerization)
O=C(N=c1[n-]cccc1OCc1cccc(C(=O)[O-])c1)/N=c1\cccc[nH]1 (3D coordinates assigned)
O=C(N=c1[n-]cccc1OCc1cccc(C(=O)[O-])c1)/N=c1\cccc[nH]1 (optimized conformer: 57.488097324008095 kcal/mol)

>  <smiles>  (94) 
O=C(N=c1cccc[nH]1)N=c1[nH]cccc1OCc1cccc(C(=O)O)c1

>  <score_type>  (94) 
oracle

>  <origin>  (94) 
adg

>  <m_score__min__energy>  (94) 
-12.16

>  <m_primary>  (94) 
energy

$$$$
94:0
     RDKit          3D

 29 30  0  0  0  0  0  0  0  0999 V2000
   60.2160   26.6550   46.5130 O   0  0  0  0  0  0  0  0  0  0  0  0
   59.3880   27.3600   45.8740 C   0  0  0  0  0  0  0  0  0  0  0  0
   59.8840   28.4680   44.9940 C   0  0  0  0  0  0  0  0  0  0  0  0
   59.4510   29.8150   45.5320 C   0  0  0  0  0  0  0  0  0  0  0  0
   60.3870   30.5790   46.2550 C   0  0  0  0  0  0  0  0  0  0  0  0
   60.0190   31.7920   46.8390 C   0  0  0  0  0  0  0  0  0  0  0  0
   58.7120   32.2560   46.7230 C   0  0  0  0  0  0  0  0  0  0  0  0
   57.7660   31.5120   46.0150 C   0  0  0  0  0  0  0  0  0  0  0  0
   58.1180   30.2960   45.4040 C   0  0  0  0  0  0  0  0  0  0  0  0
   57.1080   29.5660   44.6870 N   0  0  0  0  0  0  0  0  0  0  0  0
   55.9690   29.4130   45.1750 O   0  0  0  0  0  0  0  0  0  0  0  0
   57.4500   28.8440   43.5670 O   0  0  0  0  0  0  0  0  0  0  0  0
   57.9810   27.1000   45.9780 N   0  0  0  0  0  0  0  0  0  0  0  0
   57.4420   26.0250   46.8070 C   0  0  0  0  0  0  0  0  0  0  0  0
   56.0460   25.6970   46.3840 C   0  0  0  0  0  0  0  0  0  0  0  0
   55.1500   26.6220   45.9870 N   0  0  0  0  0  0  0  0  0  0  0  0
   54.0510   25.9670   45.6570 N   0  0  0  0  0  0  0  0  0  0  0  0
   54.3200   24.6660   45.8580 C   0  0  0  0  0  0  0  0  0  0  0  0
   53.4870   23.7470   45.6400 O   0  0  0  0  0  0  0  0  0  0  0  0
   55.5660   24.4390   46.3120 N   0  0  0  0  0  0  0  0  0  0  0  0
   60.9826   28.4320   44.9531 H   0  0  0  0  0  0  0  0  0  0  0  0
   59.4594   28.3367   43.9878 H   0  0  0  0  0  0  0  0  0  0  0  0
   61.4199   30.2157   46.3607 H   0  0  0  0  0  0  0  0  0  0  0  0
   60.7638   32.3828   47.3924 H   0  0  0  0  0  0  0  0  0  0  0  0
   58.4240   33.2097   47.1895 H   0  0  0  0  0  0  0  0  0  0  0  0
   56.7332   31.8818   45.9344 H   0  0  0  0  0  0  0  0  0  0  0  0
   57.3140   27.6850   45.4260 H   0  0  0  0  0  0  0  0  0  0  0  0
   58.0739   25.1311   46.6989 H   0  0  0  0  0  0  0  0  0  0  0  0
   57.4312   26.3526   47.8570 H   0  0  0  0  0  0  0  0  0  0  0  0
  1  2  2  0
  2  3  1  0
  3  4  1  0
  4  5  2  0
  5  6  1  0
  6  7  2  0
  7  8  1  0
  8  9  2  0
  9 10  1  0
 10 11  2  0
 10 12  1  0
  2 13  1  0
 13 14  1  0
 14 15  1  0
 15 16  2  0
 16 17  1  0
 17 18  1  0
 18 19  2  0
 18 20  1  0
  9  4  1  0
 20 15  1  0
  3 21  1  0
  3 22  1  0
  5 23  1  0
  6 24  1  0
  7 25  1  0
  8 26  1  0
 13 27  1  0
 14 28  1  0
 14 29  1  0
M  CHG  4  10   1  12  -1  17  -1  20  -1
M  END
>  <UniqueID>  (95) 
85

>  <SMILES>  (95) 
O=C(Cc1ccccc1[N+](=O)[O-])NCc1n[n-]c(=O)[n-]1

>  <Energy>  (95) 
63.21000942989997

>  <Genealogy>  (95) 
O=C(Cc1ccccc1[N+](=O)[O-])NCc1n[n-]c(=O)[n-]1 (protonated)
O=C(Cc1ccccc1[N+](=O)[O-])NCc1n[n-]c(=O)[n-]1 (3D coordinates assigned)
O=C(Cc1ccccc1[N+](=O)[O-])NCc1n[n-]c(=O)[n-]1 (optimized conformer: 63.21000942989997 kcal/mol)

>  <smiles>  (95) 
O=C(Cc1ccccc1[N+](=O)[O-])NCc1n[nH]c(=O)[nH]1

>  <score_type>  (95) 
oracle

>  <origin>  (95) 
adg

>  <m_score__min__energy>  (95) 
-10.92

>  <m_primary>  (95) 
energy

$$$$
