0:0
     RDKit          3D

 33 36  0  0  0  0  0  0  0  0999 V2000
   61.9270   30.5320   47.5460 O   0  0  0  0  0  0  0  0  0  0  0  0
   60.7400   30.9300   47.4020 C   0  0  0  0  0  0  0  0  0  0  0  0
   60.4130   32.3190   47.5420 N   0  0  0  0  0  0  0  0  0  0  0  0
   59.5250   33.0770   46.7070 C   0  0  0  0  0  0  0  0  0  0  0  0
   58.1580   33.0890   47.0170 C   0  0  0  0  0  0  0  0  0  0  0  0
   57.2620   33.8310   46.2410 C   0  0  0  0  0  0  0  0  0  0  0  0
   57.7290   34.5800   45.1580 C   0  0  0  0  0  0  0  0  0  0  0  0
   59.0930   34.5940   44.8550 C   0  0  0  0  0  0  0  0  0  0  0  0
   59.9920   33.8530   45.6280 C   0  0  0  0  0  0  0  0  0  0  0  0
   59.6930   29.9690   47.0330 C   0  0  0  0  0  0  0  0  0  0  0  0
   58.5890   30.2370   46.2230 C   0  0  0  0  0  0  0  0  0  0  0  0
   57.7620   29.1180   46.0560 C   0  0  0  0  0  0  0  0  0  0  0  0
   56.5830   29.0540   45.3060 C   0  0  0  0  0  0  0  0  0  0  0  0
   56.1530   30.0650   44.6880 O   0  0  0  0  0  0  0  0  0  0  0  0
   55.8950   27.8790   45.2470 N   0  0  0  0  0  0  0  0  0  0  0  0
   56.3180   26.7540   45.8980 C   0  0  0  0  0  0  0  0  0  0  0  0
   55.5760   25.5700   45.8070 C   0  0  0  0  0  0  0  0  0  0  0  0
   56.0080   24.4190   46.4740 C   0  0  0  0  0  0  0  0  0  0  0  0
   57.1830   24.4420   47.2350 C   0  0  0  0  0  0  0  0  0  0  0  0
   57.6050   23.2940   47.8920 O   0  0  0  0  0  0  0  0  0  0  0  0
   57.9350   25.6190   47.3340 C   0  0  0  0  0  0  0  0  0  0  0  0
   57.5080   26.7780   46.6690 C   0  0  0  0  0  0  0  0  0  0  0  0
   58.2080   27.9880   46.7240 C   0  0  0  0  0  0  0  0  0  0  0  0
   59.6380   28.3540   47.5360 S   0  0  0  0  0  0  0  0  0  0  0  0
   57.7876   32.5109   47.8764 H   0  0  0  0  0  0  0  0  0  0  0  0
   56.1891   33.8250   46.4834 H   0  0  0  0  0  0  0  0  0  0  0  0
   57.0231   35.1585   44.5440 H   0  0  0  0  0  0  0  0  0  0  0  0
   59.4604   35.1895   44.0062 H   0  0  0  0  0  0  0  0  0  0  0  0
   61.0664   33.8760   45.3931 H   0  0  0  0  0  0  0  0  0  0  0  0
   58.3899   31.2177   45.7662 H   0  0  0  0  0  0  0  0  0  0  0  0
   54.6523   25.5451   45.2102 H   0  0  0  0  0  0  0  0  0  0  0  0
   55.4217   23.4912   46.4003 H   0  0  0  0  0  0  0  0  0  0  0  0
   58.8583   25.6348   47.9317 H   0  0  0  0  0  0  0  0  0  0  0  0
  1  2  2  0
  2  3  1  0
  3  4  1  0
  4  5  2  0
  5  6  1  0
  6  7  2  0
  7  8  1  0
  8  9  2  0
  2 10  1  0
 10 11  2  0
 11 12  1  0
 12 13  1  0
 13 14  2  0
 13 15  1  0
 15 16  1  0
 16 17  2  0
 17 18  1  0
 18 19  2  0
 19 20  1  0
 19 21  1  0
 21 22  2  0
 22 23  1  0
 23 24  1  0
  9  4  1  0
 24 10  1  0
 23 12  2  0
 22 16  1  0
  5 25  1  0
  6 26  1  0
  7 27  1  0
  8 28  1  0
  9 29  1  0
 11 30  1  0
 17 31  1  0
 18 32  1  0
 21 33  1  0
M  CHG  3   3  -1  15  -1  20  -1
M  END
>  <UniqueID>  (1) 
1

>  <SMILES>  (1) 
O=C([N-]c1ccccc1)c1cc2c(=O)[n-]c3ccc([O-])cc3c2s1

>  <Energy>  (1) 
76.34054432115076

>  <Genealogy>  (1) 
O=C([N-]c1ccccc1)c1cc2c(=O)[n-]c3ccc([O-])cc3c2s1 (protonated)
O=C([N-]c1ccccc1)c1cc2c(=O)[n-]c3ccc([O-])cc3c2s1 (3D coordinates assigned)
O=C([N-]c1ccccc1)c1cc2c(=O)[n-]c3ccc([O-])cc3c2s1 (optimized conformer: 76.34054432115076 kcal/mol)

>  <smiles>  (1) 
O=C(Nc1ccccc1)c1cc2c(=O)[nH]c3ccc(O)cc3c2s1

>  <score_type>  (1) 
oracle

>  <origin>  (1) 
adg

>  <m_score__min__energy>  (1) 
-12.48

>  <m_primary>  (1) 
energy

$$$$
1:0
     RDKit          3D

 44 46  0  0  0  0  0  0  0  0999 V2000
   64.1970   33.0860   48.6520 C   0  0  0  0  0  0  0  0  0  0  0  0
   62.6830   32.8060   47.7530 S   0  0  0  0  0  0  0  0  0  0  0  0
   62.5660   33.8310   46.6580 O   0  0  0  0  0  0  0  0  0  0  0  0
   62.7550   31.4400   47.1320 O   0  0  0  0  0  0  0  0  0  0  0  0
   61.2910   32.8710   48.8160 N   0  0  0  0  0  0  0  0  0  0  0  0
   60.7390   34.2380   48.9550 C   0  0  0  0  0  0  0  0  0  0  0  0
   60.1020   34.7690   47.6530 C   0  0  0  0  0  0  0  0  0  0  0  0
   59.3240   33.7180   47.0060 N   0  0  0  0  0  0  0  0  0  0  0  0
   58.4870   33.9040   45.9990 N   0  0  0  0  0  0  0  0  0  0  0  0
   58.0270   32.6850   45.6450 C   0  0  0  0  0  0  0  0  0  0  0  0
   57.0200   32.4550   44.5640 C   0  0  0  0  0  0  0  0  0  0  0  0
   57.7360   31.4390   43.2210 S   0  0  0  0  0  0  0  0  0  0  0  0
   56.2940   30.3420   42.9780 C   0  0  0  0  0  0  0  0  0  0  0  0
   56.1870   29.3620   44.1010 C   0  0  0  0  0  0  0  0  0  0  0  0
   55.1880   29.3980   44.8680 O   0  0  0  0  0  0  0  0  0  0  0  0
   57.2410   28.4160   44.3150 N   0  0  0  0  0  0  0  0  0  0  0  0
   58.2680   28.5010   45.3130 C   0  0  0  0  0  0  0  0  0  0  0  0
   57.9340   28.2310   46.6470 C   0  0  0  0  0  0  0  0  0  0  0  0
   58.9010   28.3270   47.6520 C   0  0  0  0  0  0  0  0  0  0  0  0
   60.2080   28.7100   47.3330 C   0  0  0  0  0  0  0  0  0  0  0  0
   61.1440   28.8050   48.3090 F   0  0  0  0  0  0  0  0  0  0  0  0
   60.5440   29.0050   46.0090 C   0  0  0  0  0  0  0  0  0  0  0  0
   59.5790   28.9090   45.0010 C   0  0  0  0  0  0  0  0  0  0  0  0
   58.5910   31.7030   46.4470 C   0  0  0  0  0  0  0  0  0  0  0  0
   59.4260   32.4110   47.2830 C   0  0  0  0  0  0  0  0  0  0  0  0
   60.2630   31.8880   48.4100 C   0  0  0  0  0  0  0  0  0  0  0  0
   63.9941   33.0485   49.7325 H   0  0  0  0  0  0  0  0  0  0  0  0
   64.9288   32.3080   48.3891 H   0  0  0  0  0  0  0  0  0  0  0  0
   64.6021   34.0743   48.3891 H   0  0  0  0  0  0  0  0  0  0  0  0
   59.9702   34.2268   49.7417 H   0  0  0  0  0  0  0  0  0  0  0  0
   61.5761   34.9058   49.2067 H   0  0  0  0  0  0  0  0  0  0  0  0
   59.4412   35.6156   47.8911 H   0  0  0  0  0  0  0  0  0  0  0  0
   60.9006   35.0953   46.9706 H   0  0  0  0  0  0  0  0  0  0  0  0
   56.1488   31.9331   44.9868 H   0  0  0  0  0  0  0  0  0  0  0  0
   56.7170   33.4277   44.1493 H   0  0  0  0  0  0  0  0  0  0  0  0
   55.3785   30.9506   42.9401 H   0  0  0  0  0  0  0  0  0  0  0  0
   56.4217   29.7901   42.0351 H   0  0  0  0  0  0  0  0  0  0  0  0
   56.9045   27.9417   46.9049 H   0  0  0  0  0  0  0  0  0  0  0  0
   58.6338   28.1011   48.6949 H   0  0  0  0  0  0  0  0  0  0  0  0
   61.5698   29.3134   45.7589 H   0  0  0  0  0  0  0  0  0  0  0  0
   59.8450   29.1529   43.9619 H   0  0  0  0  0  0  0  0  0  0  0  0
   58.4135   30.6177   46.4213 H   0  0  0  0  0  0  0  0  0  0  0  0
   59.6121   31.6738   49.2705 H   0  0  0  0  0  0  0  0  0  0  0  0
   60.7714   30.9737   48.0701 H   0  0  0  0  0  0  0  0  0  0  0  0
  1  2  1  0
  2  3  2  0
  2  4  2  0
  2  5  1  0
  5  6  1  0
  6  7  1  0
  7  8  1  0
  8  9  1  0
  9 10  2  0
 10 11  1  0
 11 12  1  0
 12 13  1  0
 13 14  1  0
 14 15  2  0
 14 16  1  0
 16 17  1  0
 17 18  2  0
 18 19  1  0
 19 20  2  0
 20 21  1  0
 20 22  1  0
 22 23  2  0
 10 24  1  0
 24 25  2  0
 25 26  1  0
 26  5  1  0
 25  8  1  0
 23 17  1  0
  1 27  1  0
  1 28  1  0
  1 29  1  0
  6 30  1  0
  6 31  1  0
  7 32  1  0
  7 33  1  0
 11 34  1  0
 11 35  1  0
 13 36  1  0
 13 37  1  0
 18 38  1  0
 19 39  1  0
 22 40  1  0
 23 41  1  0
 24 42  1  0
 26 43  1  0
 26 44  1  0
M  CHG  1  16  -1
M  END
>  <UniqueID>  (2) 
2

>  <SMILES>  (2) 
CS(=O)(=O)N1CCn2nc(CSCC(=O)[N-]c3ccc(F)cc3)cc2C1

>  <Energy>  (2) 
73.26985619391756

>  <Genealogy>  (2) 
CS(=O)(=O)N1CCn2nc(CSCC(=O)[N-]c3ccc(F)cc3)cc2C1 (protonated)
CS(=O)(=O)N1CCn2nc(CSCC(=O)[N-]c3ccc(F)cc3)cc2C1 (3D coordinates assigned)
CS(=O)(=O)N1CCn2nc(CSCC(=O)[N-]c3ccc(F)cc3)cc2C1 (nonaromatic ring conformer: 73.26985619391756 kcal/mol)

>  <smiles>  (2) 
CS(=O)(=O)N1CCn2nc(CSCC(=O)Nc3ccc(F)cc3)cc2C1

>  <score_type>  (2) 
oracle

>  <origin>  (2) 
adg

>  <m_score__min__energy>  (2) 
-9.7799999999999994

>  <m_primary>  (2) 
energy

$$$$
2:0
     RDKit          3D

 42 45  0  0  0  0  0  0  0  0999 V2000
   57.2820   23.9950   47.6080 H   0  0  0  0  0  0  0  0  0  0  0  0
   57.2740   22.9840   47.5790 O   0  0  0  0  0  0  0  0  0  0  0  0
   57.0510   22.2510   46.4120 C   0  0  0  0  0  0  0  0  0  0  0  0
   55.9720   21.3590   46.3880 C   0  0  0  0  0  0  0  0  0  0  0  0
   55.3388   21.2449   47.2802 H   0  0  0  0  0  0  0  0  0  0  0  0
   55.6930   20.6130   45.2410 C   0  0  0  0  0  0  0  0  0  0  0  0
   54.8444   19.9131   45.2333 H   0  0  0  0  0  0  0  0  0  0  0  0
   56.4900   20.7550   44.1050 C   0  0  0  0  0  0  0  0  0  0  0  0
   56.2663   20.1701   43.2007 H   0  0  0  0  0  0  0  0  0  0  0  0
   57.5720   21.6390   44.1140 C   0  0  0  0  0  0  0  0  0  0  0  0
   58.1936   21.7496   43.2132 H   0  0  0  0  0  0  0  0  0  0  0  0
   57.8730   22.3890   45.2660 C   0  0  0  0  0  0  0  0  0  0  0  0
   59.0420   23.3390   45.2400 C   0  0  0  0  0  0  0  0  0  0  0  0
   59.1197   23.7988   44.2437 H   0  0  0  0  0  0  0  0  0  0  0  0
   59.9687   22.7891   45.4611 H   0  0  0  0  0  0  0  0  0  0  0  0
   58.8400   24.3810   46.2440 N   0  0  0  0  0  0  0  0  0  0  0  0
   58.2380   25.5270   46.0910 C   0  0  0  0  0  0  0  0  0  0  0  0
   56.8740   25.5580   46.1330 N   0  0  0  0  0  0  0  0  0  0  0  0
   56.1620   26.7120   45.9730 C   0  0  0  0  0  0  0  0  0  0  0  0
   54.7740   26.6840   46.0120 O   0  0  0  0  0  0  0  0  0  0  0  0
   56.8380   27.9190   45.7660 C   0  0  0  0  0  0  0  0  0  0  0  0
   56.2883   28.8611   45.6233 H   0  0  0  0  0  0  0  0  0  0  0  0
   58.1970   27.8890   45.7470 N   0  0  0  0  0  0  0  0  0  0  0  0
   59.1020   28.8660   45.5420 C   0  0  0  0  0  0  0  0  0  0  0  0
   58.8200   30.3060   45.3590 C   0  0  0  0  0  0  0  0  0  0  0  0
   59.2550   31.2330   46.3210 C   0  0  0  0  0  0  0  0  0  0  0  0
   59.8166   30.8857   47.2008 H   0  0  0  0  0  0  0  0  0  0  0  0
   58.9780   32.5940   46.1660 C   0  0  0  0  0  0  0  0  0  0  0  0
   59.3411   33.3151   46.9131 H   0  0  0  0  0  0  0  0  0  0  0  0
   58.2390   33.0450   45.0620 C   0  0  0  0  0  0  0  0  0  0  0  0
   57.9750   34.5100   44.8770 C   0  0  0  0  0  0  0  0  0  0  0  0
   57.8878   34.9940   45.8610 H   0  0  0  0  0  0  0  0  0  0  0  0
   58.8057   34.9644   44.3172 H   0  0  0  0  0  0  0  0  0  0  0  0
   57.0379   34.6459   44.3172 H   0  0  0  0  0  0  0  0  0  0  0  0
   57.8020   32.1210   44.1020 C   0  0  0  0  0  0  0  0  0  0  0  0
   57.2378   32.4692   43.2243 H   0  0  0  0  0  0  0  0  0  0  0  0
   58.0800   30.7590   44.2550 C   0  0  0  0  0  0  0  0  0  0  0  0
   57.7171   30.0390   43.5067 H   0  0  0  0  0  0  0  0  0  0  0  0
   60.3540   28.2770   45.5420 C   0  0  0  0  0  0  0  0  0  0  0  0
   61.3035   28.8105   45.3878 H   0  0  0  0  0  0  0  0  0  0  0  0
   60.2360   26.9470   45.7600 N   0  0  0  0  0  0  0  0  0  0  0  0
   58.9040   26.7520   45.8790 C   0  0  0  0  0  0  0  0  0  0  0  0
  1  2  1  0
  2  3  1  0
  3  4  2  0
  4  5  1  0
  4  6  1  0
  6  7  1  0
  6  8  2  0
  8  9  1  0
  8 10  1  0
 10 11  1  0
 10 12  2  0
 12 13  1  0
 13 14  1  0
 13 15  1  0
 13 16  1  0
 16 17  2  0
 17 18  1  0
 18 19  1  0
 19 20  1  0
 19 21  2  0
 21 22  1  0
 21 23  1  0
 23 24  1  0
 24 25  1  0
 25 26  2  0
 26 27  1  0
 26 28  1  0
 28 29  1  0
 28 30  2  0
 30 31  1  0
 31 32  1  0
 31 33  1  0
 31 34  1  0
 30 35  1  0
 35 36  1  0
 35 37  2  0
 37 38  1  0
 24 39  2  0
 39 40  1  0
 39 41  1  0
 41 42  2  0
 12  3  1  0
 42 17  1  0
 42 23  1  0
 37 25  1  0
M  CHG  2  18  -1  20  -1
M  END
>  <UniqueID>  (3) 
3

>  <SMILES>  (3) 
Cc1ccc(-c2cnc3/c(=N\Cc4ccccc4O)[n-]c([O-])cn23)cc1

>  <Energy>  (3) 
91.67020277325676

>  <Genealogy>  (3) 
Cc1ccc(-c2cnc3c(=NCc4ccccc4O)[n-]c([O-])cn23)cc1 (protonated)
Cc1ccc(-c2cnc3/c(=N\Cc4ccccc4O)[n-]c([O-])cn23)cc1 (cis-trans isomerization)
Cc1ccc(-c2cnc3/c(=N\Cc4ccccc4O)[n-]c([O-])cn23)cc1 (3D coordinates assigned)
Cc1ccc(-c2cnc3/c(=N\Cc4ccccc4O)[n-]c([O-])cn23)cc1 (optimized conformer: 91.67020277325676 kcal/mol)

>  <smiles>  (3) 
Cc1ccc(-c2cnc3c(=NCc4ccccc4O)[nH]c(O)cn23)cc1

>  <score_type>  (3) 
oracle

>  <origin>  (3) 
adg

>  <m_score__min__energy>  (3) 
-13.24

>  <m_primary>  (3) 
energy

$$$$
3:0
     RDKit          3D

 57 59  0  0  0  0  0  0  0  0999 V2000
   57.1077   34.4293   47.1585 H   0  0  0  0  0  0  0  0  0  0  0  0
   58.1390   34.1990   46.8530 C   0  0  0  0  0  0  0  0  0  0  0  0
   58.3260   33.2390   45.9220 C   0  0  0  0  0  0  0  0  0  0  0  0
   58.5130   33.6100   44.4970 C   0  0  0  0  0  0  0  0  0  0  0  0
   59.4060   34.4380   44.1610 O   0  0  0  0  0  0  0  0  0  0  0  0
   57.6830   33.0420   43.5230 O   0  0  0  0  0  0  0  0  0  0  0  0
   58.1550   32.1790   42.4900 C   0  0  0  0  0  0  0  0  0  0  0  0
   58.0440   31.1334   42.8131 H   0  0  0  0  0  0  0  0  0  0  0  0
   59.2134   32.4052   42.2937 H   0  0  0  0  0  0  0  0  0  0  0  0
   57.3590   32.3950   41.2080 C   0  0  0  0  0  0  0  0  0  0  0  0
   56.3258   32.6754   41.4608 H   0  0  0  0  0  0  0  0  0  0  0  0
   57.8236   33.1995   40.6191 H   0  0  0  0  0  0  0  0  0  0  0  0
   57.3532   31.4660   40.6191 H   0  0  0  0  0  0  0  0  0  0  0  0
   58.3560   31.8020   46.2760 C   0  0  0  0  0  0  0  0  0  0  0  0
   58.5010   31.4640   47.4810 O   0  0  0  0  0  0  0  0  0  0  0  0
   58.1480   30.8020   45.2660 N   0  0  0  0  0  0  0  0  0  0  0  0
   57.7130   31.0960   44.3630 H   0  0  0  0  0  0  0  0  0  0  0  0
   58.2820   29.3970   45.5210 C   0  0  0  0  0  0  0  0  0  0  0  0
   59.3790   28.7070   46.0250 C   0  0  0  0  0  0  0  0  0  0  0  0
   60.7120   29.2900   46.3960 C   0  0  0  0  0  0  0  0  0  0  0  0
   60.8027   29.3297   47.4915 H   0  0  0  0  0  0  0  0  0  0  0  0
   61.5148   28.6608   45.9841 H   0  0  0  0  0  0  0  0  0  0  0  0
   60.7950   30.3066   45.9841 H   0  0  0  0  0  0  0  0  0  0  0  0
   59.0630   27.3880   46.0780 N   0  0  0  0  0  0  0  0  0  0  0  0
   59.9090   26.3140   46.6010 C   0  0  0  0  0  0  0  0  0  0  0  0
   59.8916   26.3361   47.7006 H   0  0  0  0  0  0  0  0  0  0  0  0
   59.5300   25.3437   46.2477 H   0  0  0  0  0  0  0  0  0  0  0  0
   60.9411   26.4552   46.2477 H   0  0  0  0  0  0  0  0  0  0  0  0
   57.8350   27.2200   45.5860 N   0  0  0  0  0  0  0  0  0  0  0  0
   57.1440   25.9650   45.4480 C   0  0  0  0  0  0  0  0  0  0  0  0
   57.3390   25.1640   44.3120 C   0  0  0  0  0  0  0  0  0  0  0  0
   58.0294   25.4938   43.5217 H   0  0  0  0  0  0  0  0  0  0  0  0
   56.6600   23.9490   44.1800 C   0  0  0  0  0  0  0  0  0  0  0  0
   56.8241   23.3211   43.2918 H   0  0  0  0  0  0  0  0  0  0  0  0
   55.7730   23.5320   45.1760 C   0  0  0  0  0  0  0  0  0  0  0  0
   55.2428   22.5736   45.0739 H   0  0  0  0  0  0  0  0  0  0  0  0
   55.5590   24.3330   46.3030 C   0  0  0  0  0  0  0  0  0  0  0  0
   54.8546   24.0077   47.0827 H   0  0  0  0  0  0  0  0  0  0  0  0
   56.2400   25.5470   46.4390 C   0  0  0  0  0  0  0  0  0  0  0  0
   56.0673   26.1764   47.3245 H   0  0  0  0  0  0  0  0  0  0  0  0
   57.3510   28.4270   45.2370 C   0  0  0  0  0  0  0  0  0  0  0  0
   56.2180   28.6240   44.7190 O   0  0  0  0  0  0  0  0  0  0  0  0
   59.2390   34.9600   47.4870 C   0  0  0  0  0  0  0  0  0  0  0  0
   59.4586   35.9824   47.1456 H   0  0  0  0  0  0  0  0  0  0  0  0
   59.9700   34.4210   48.4700 C   0  0  0  0  0  0  0  0  0  0  0  0
   59.5052   34.2937   49.4588 H   0  0  0  0  0  0  0  0  0  0  0  0
   61.3770   33.9870   48.2900 C   0  0  0  0  0  0  0  0  0  0  0  0
   62.2240   33.7100   49.3820 C   0  0  0  0  0  0  0  0  0  0  0  0
   61.8437   33.8125   50.4091 H   0  0  0  0  0  0  0  0  0  0  0  0
   63.5440   33.3060   49.1670 C   0  0  0  0  0  0  0  0  0  0  0  0
   64.2001   33.0975   50.0249 H   0  0  0  0  0  0  0  0  0  0  0  0
   64.0330   33.1660   47.8670 C   0  0  0  0  0  0  0  0  0  0  0  0
   65.0753   32.8561   47.7014 H   0  0  0  0  0  0  0  0  0  0  0  0
   63.1970   33.4200   46.7760 C   0  0  0  0  0  0  0  0  0  0  0  0
   63.5807   33.3050   45.7515 H   0  0  0  0  0  0  0  0  0  0  0  0
   61.8740   33.8200   46.9850 C   0  0  0  0  0  0  0  0  0  0  0  0
   61.2169   34.0055   46.1226 H   0  0  0  0  0  0  0  0  0  0  0  0
  1  2  1  0
  2  3  2  0
  3  4  1  0
  4  5  2  0
  4  6  1  0
  6  7  1  0
  7  8  1  0
  7  9  1  0
  7 10  1  0
 10 11  1  0
 10 12  1  0
 10 13  1  0
  3 14  1  0
 14 15  2  0
 14 16  1  0
 16 17  1  0
 16 18  1  0
 18 19  2  0
 19 20  1  0
 20 21  1  0
 20 22  1  0
 20 23  1  0
 19 24  1  0
 24 25  1  0
 25 26  1  0
 25 27  1  0
 25 28  1  0
 24 29  1  0
 29 30  1  0
 30 31  2  0
 31 32  1  0
 31 33  1  0
 33 34  1  0
 33 35  2  0
 35 36  1  0
 35 37  1  0
 37 38  1  0
 37 39  2  0
 39 40  1  0
 29 41  1  0
 41 42  2  0
  2 43  1  0
 43 44  1  0
 43 45  2  0
 45 46  1  0
 45 47  1  0
 47 48  2  0
 48 49  1  0
 48 50  1  0
 50 51  1  0
 50 52  2  0
 52 53  1  0
 52 54  1  0
 54 55  1  0
 54 56  2  0
 56 57  1  0
 41 18  1  0
 56 47  1  0
 39 30  1  0
M  END
>  <UniqueID>  (4) 
4

>  <SMILES>  (4) 
CCOC(=O)C(=C/C=C/c1ccccc1)C(=O)Nc1c(C)n(C)n(-c2ccccc2)c1=O

>  <Energy>  (4) 
106.3524938448591

>  <Genealogy>  (4) 
CCOC(=O)C(=C/C=C/c1ccccc1)C(=O)Nc1c(C)n(C)n(-c2ccccc2)c1=O (cis-trans isomerization)
CCOC(=O)C(=C/C=C/c1ccccc1)C(=O)Nc1c(C)n(C)n(-c2ccccc2)c1=O (3D coordinates assigned)
CCOC(=O)C(=C/C=C/c1ccccc1)C(=O)Nc1c(C)n(C)n(-c2ccccc2)c1=O (optimized conformer: 106.3524938448591 kcal/mol)

>  <smiles>  (4) 
CCOC(=O)C(=CC=Cc1ccccc1)C(=O)Nc1c(C)n(C)n(-c2ccccc2)c1=O

>  <score_type>  (4) 
oracle

>  <origin>  (4) 
adg

>  <m_score__min__energy>  (4) 
-8.3499999999999996

>  <m_primary>  (4) 
energy

$$$$
4:0
     RDKit          3D

 46 49  0  0  0  0  0  0  0  0999 V2000
   60.8149   35.4131   49.0092 H   0  0  0  0  0  0  0  0  0  0  0  0
   60.5180   34.5050   48.4640 C   0  0  0  0  0  0  0  0  0  0  0  0
   60.3640   34.5610   47.1750 N   0  0  0  0  0  0  0  0  0  0  0  0
   59.3620   33.8740   46.4080 C   0  0  0  0  0  0  0  0  0  0  0  0
   59.4180   32.4750   46.3440 C   0  0  0  0  0  0  0  0  0  0  0  0
   60.2231   31.9362   46.8651 H   0  0  0  0  0  0  0  0  0  0  0  0
   58.4570   31.7590   45.6220 C   0  0  0  0  0  0  0  0  0  0  0  0
   58.5143   30.6617   45.5701 H   0  0  0  0  0  0  0  0  0  0  0  0
   57.4250   32.4350   44.9670 C   0  0  0  0  0  0  0  0  0  0  0  0
   56.6724   31.8705   44.3970 H   0  0  0  0  0  0  0  0  0  0  0  0
   57.3490   33.8280   45.0360 C   0  0  0  0  0  0  0  0  0  0  0  0
   56.5342   34.3593   44.5224 H   0  0  0  0  0  0  0  0  0  0  0  0
   58.3070   34.5490   45.7570 C   0  0  0  0  0  0  0  0  0  0  0  0
   58.2378   35.6452   45.8167 H   0  0  0  0  0  0  0  0  0  0  0  0
   60.3040   33.2520   49.2140 C   0  0  0  0  0  0  0  0  0  0  0  0
   59.0550   33.0000   49.6940 N   0  0  0  0  0  0  0  0  0  0  0  0
   58.7720   31.8700   50.3910 C   0  0  0  0  0  0  0  0  0  0  0  0
   57.4810   31.6330   50.8730 C   0  0  0  0  0  0  0  0  0  0  0  0
   56.6863   32.3727   50.6962 H   0  0  0  0  0  0  0  0  0  0  0  0
   57.1950   30.4580   51.5800 C   0  0  0  0  0  0  0  0  0  0  0  0
   55.8670   30.2690   52.0860 N   0  0  0  0  0  0  0  0  0  0  0  0
   55.4840   29.4480   53.1980 C   0  0  0  0  0  0  0  0  0  0  0  0
   56.1430   28.4120   53.4780 O   0  0  0  0  0  0  0  0  0  0  0  0
   54.2470   29.7310   53.9500 C   0  0  0  0  0  0  0  0  0  0  0  0
   54.3532   30.1233   54.9721 H   0  0  0  0  0  0  0  0  0  0  0  0
   53.0020   29.5470   53.4840 C   0  0  0  0  0  0  0  0  0  0  0  0
   52.4020   28.7479   53.9437 H   0  0  0  0  0  0  0  0  0  0  0  0
   52.3730   30.3340   52.4010 C   0  0  0  0  0  0  0  0  0  0  0  0
   52.4220   29.9020   51.0630 C   0  0  0  0  0  0  0  0  0  0  0  0
   52.9231   28.9559   50.8106 H   0  0  0  0  0  0  0  0  0  0  0  0
   51.8360   30.6710   50.0530 C   0  0  0  0  0  0  0  0  0  0  0  0
   51.8559   30.3168   49.0118 H   0  0  0  0  0  0  0  0  0  0  0  0
   51.2250   31.8890   50.3640 C   0  0  0  0  0  0  0  0  0  0  0  0
   50.6420   32.6480   49.3560 O   0  0  0  0  0  0  0  0  0  0  0  0
   51.2030   32.3420   51.6890 C   0  0  0  0  0  0  0  0  0  0  0  0
   50.6050   33.5570   52.0020 O   0  0  0  0  0  0  0  0  0  0  0  0
   51.7860   31.5720   52.7020 C   0  0  0  0  0  0  0  0  0  0  0  0
   51.7839   31.9393   53.7389 H   0  0  0  0  0  0  0  0  0  0  0  0
   58.2290   29.5350   51.8340 C   0  0  0  0  0  0  0  0  0  0  0  0
   58.0188   28.6249   52.4149 H   0  0  0  0  0  0  0  0  0  0  0  0
   59.5210   29.7690   51.3520 C   0  0  0  0  0  0  0  0  0  0  0  0
   60.3208   29.0382   51.5424 H   0  0  0  0  0  0  0  0  0  0  0  0
   59.7940   30.9330   50.6280 C   0  0  0  0  0  0  0  0  0  0  0  0
   61.0420   31.1770   50.1540 N   0  0  0  0  0  0  0  0  0  0  0  0
   61.3270   32.3080   49.4530 C   0  0  0  0  0  0  0  0  0  0  0  0
   62.6200   32.5020   48.9840 O   0  0  0  0  0  0  0  0  0  0  0  0
  1  2  1  0
  2  3  2  3
  3  4  1  0
  4  5  2  0
  5  6  1  0
  5  7  1  0
  7  8  1  0
  7  9  2  0
  9 10  1  0
  9 11  1  0
 11 12  1  0
 11 13  2  0
 13 14  1  0
  2 15  1  0
 15 16  2  0
 16 17  1  0
 17 18  2  0
 18 19  1  0
 18 20  1  0
 20 21  1  0
 21 22  1  0
 22 23  2  0
 22 24  1  0
 24 25  1  0
 24 26  2  0
 26 27  1  0
 26 28  1  0
 28 29  2  0
 29 30  1  0
 29 31  1  0
 31 32  1  0
 31 33  2  0
 33 34  1  0
 33 35  1  0
 35 36  1  0
 35 37  2  0
 37 38  1  0
 20 39  2  0
 39 40  1  0
 39 41  1  0
 41 42  1  0
 41 43  2  0
 43 44  1  0
 44 45  2  0
 45 46  1  0
 13  4  1  0
 45 15  1  0
 43 17  1  0
 37 28  1  0
M  CHG  4  21  -1  34  -1  36  -1  46  -1
M  END
>  <UniqueID>  (5) 
5

>  <SMILES>  (5) 
O=C(/C=C\c1ccc([O-])c([O-])c1)[N-]c1ccc2nc([O-])c(C=Nc3ccccc3)nc2c1

>  <Energy>  (5) 
69.20812521016727

>  <Genealogy>  (5) 
O=C(C=Cc1ccc([O-])c([O-])c1)[N-]c1ccc2nc([O-])c(C=Nc3ccccc3)nc2c1 (protonated)
O=C(/C=C\c1ccc([O-])c([O-])c1)[N-]c1ccc2nc([O-])c(C=Nc3ccccc3)nc2c1 (cis-trans isomerization)
O=C(/C=C\c1ccc([O-])c([O-])c1)[N-]c1ccc2nc([O-])c(C=Nc3ccccc3)nc2c1 (3D coordinates assigned)
O=C(/C=C\c1ccc([O-])c([O-])c1)[N-]c1ccc2nc([O-])c(C=Nc3ccccc3)nc2c1 (optimized conformer: 69.20812521016727 kcal/mol)

>  <smiles>  (5) 
O=C(C=Cc1ccc(O)c(O)c1)Nc1ccc2nc(O)c(C=Nc3ccccc3)nc2c1

>  <score_type>  (5) 
oracle

>  <origin>  (5) 
adg

>  <m_score__min__energy>  (5) 
-19.440000000000001

>  <m_primary>  (5) 
energy

$$$$
5:0
     RDKit          3D

 37 40  0  0  0  0  0  0  0  0999 V2000
   60.6230   34.2090   49.6220 O   0  0  0  0  0  0  0  0  0  0  0  0
   61.7120   34.0050   49.0190 C   0  0  0  0  0  0  0  0  0  0  0  0
   61.7340   33.8880   47.5870 N   0  0  0  0  0  0  0  0  0  0  0  0
   60.5660   33.6320   46.7880 C   0  0  0  0  0  0  0  0  0  0  0  0
   60.0100   34.6730   46.0310 C   0  0  0  0  0  0  0  0  0  0  0  0
   58.8880   34.4460   45.2330 C   0  0  0  0  0  0  0  0  0  0  0  0
   58.3170   33.1730   45.1690 C   0  0  0  0  0  0  0  0  0  0  0  0
   58.8700   32.1060   45.9010 C   0  0  0  0  0  0  0  0  0  0  0  0
   58.2740   30.7480   45.8200 C   0  0  0  0  0  0  0  0  0  0  0  0
   57.0450   30.5700   45.2590 N   0  0  0  0  0  0  0  0  0  0  0  0
   56.4720   29.3420   45.1690 C   0  0  0  0  0  0  0  0  0  0  0  0
   55.3330   29.2300   44.6410 O   0  0  0  0  0  0  0  0  0  0  0  0
   57.1530   28.2190   45.6630 C   0  0  0  0  0  0  0  0  0  0  0  0
   56.6170   26.9200   45.6010 C   0  0  0  0  0  0  0  0  0  0  0  0
   57.3430   25.8390   46.1110 C   0  0  0  0  0  0  0  0  0  0  0  0
   58.6020   26.0430   46.6820 C   0  0  0  0  0  0  0  0  0  0  0  0
   59.1440   27.3310   46.7480 C   0  0  0  0  0  0  0  0  0  0  0  0
   58.4240   28.4200   46.2410 C   0  0  0  0  0  0  0  0  0  0  0  0
   58.9480   29.6700   46.3040 N   0  0  0  0  0  0  0  0  0  0  0  0
   60.0020   32.3450   46.7030 C   0  0  0  0  0  0  0  0  0  0  0  0
   62.9550   33.9310   49.8040 C   0  0  0  0  0  0  0  0  0  0  0  0
   63.1770   34.4820   51.0540 C   0  0  0  0  0  0  0  0  0  0  0  0
   64.4770   34.1600   51.3800 C   0  0  0  0  0  0  0  0  0  0  0  0
   64.9640   33.4380   50.3110 C   0  0  0  0  0  0  0  0  0  0  0  0
   66.7210   32.7120   50.1700 Br  0  0  0  0  0  0  0  0  0  0  0  0
   64.0380   33.3170   49.3880 O   0  0  0  0  0  0  0  0  0  0  0  0
   62.6260   34.1020   47.0880 H   0  0  0  0  0  0  0  0  0  0  0  0
   60.4613   35.6755   46.0664 H   0  0  0  0  0  0  0  0  0  0  0  0
   58.4519   35.2723   44.6525 H   0  0  0  0  0  0  0  0  0  0  0  0
   57.4291   33.0034   44.5422 H   0  0  0  0  0  0  0  0  0  0  0  0
   55.6268   26.7544   45.1514 H   0  0  0  0  0  0  0  0  0  0  0  0
   56.9214   24.8242   46.0625 H   0  0  0  0  0  0  0  0  0  0  0  0
   59.1684   25.1885   47.0807 H   0  0  0  0  0  0  0  0  0  0  0  0
   60.1354   27.4884   47.1980 H   0  0  0  0  0  0  0  0  0  0  0  0
   60.4511   31.5163   47.2700 H   0  0  0  0  0  0  0  0  0  0  0  0
   62.4635   35.0579   51.6617 H   0  0  0  0  0  0  0  0  0  0  0  0
   65.0148   34.4244   52.3024 H   0  0  0  0  0  0  0  0  0  0  0  0
  1  2  2  0
  2  3  1  0
  3  4  1  0
  4  5  2  0
  5  6  1  0
  6  7  2  0
  7  8  1  0
  8  9  1  0
  9 10  2  0
 10 11  1  0
 11 12  2  0
 11 13  1  0
 13 14  2  0
 14 15  1  0
 15 16  2  0
 16 17  1  0
 17 18  2  0
 18 19  1  0
  8 20  2  0
  2 21  1  0
 21 22  2  0
 22 23  1  0
 23 24  2  0
 24 25  1  0
 24 26  1  0
 20  4  1  0
 26 21  1  0
 19  9  1  0
 18 13  1  0
  3 27  1  0
  5 28  1  0
  6 29  1  0
  7 30  1  0
 14 31  1  0
 15 32  1  0
 16 33  1  0
 17 34  1  0
 20 35  1  0
 22 36  1  0
 23 37  1  0
M  CHG  1  19  -1
M  END
>  <UniqueID>  (6) 
6

>  <SMILES>  (6) 
O=C(Nc1cccc(-c2nc(=O)c3ccccc3[n-]2)c1)c1ccc(Br)o1

>  <Energy>  (6) 
77.00944825409243

>  <Genealogy>  (6) 
O=C(Nc1cccc(-c2nc(=O)c3ccccc3[n-]2)c1)c1ccc(Br)o1 (protonated)
O=C(Nc1cccc(-c2nc(=O)c3ccccc3[n-]2)c1)c1ccc(Br)o1 (3D coordinates assigned)
O=C(Nc1cccc(-c2nc(=O)c3ccccc3[n-]2)c1)c1ccc(Br)o1 (optimized conformer: 77.00944825409243 kcal/mol)

>  <smiles>  (6) 
O=C(Nc1cccc(-c2nc(=O)c3ccccc3[nH]2)c1)c1ccc(Br)o1

>  <score_type>  (6) 
oracle

>  <origin>  (6) 
adg

>  <m_score__min__energy>  (6) 
-9.6699999999999999

>  <m_primary>  (6) 
energy

$$$$
6:0
     RDKit          3D

 47 50  0  0  0  0  0  0  0  0999 V2000
   55.1450   27.4850   45.2890 H   0  0  0  0  0  0  0  0  0  0  0  0
   55.1870   26.7420   45.9760 O   0  0  0  0  0  0  0  0  0  0  0  0
   55.0140   25.4070   45.6180 C   0  0  0  0  0  0  0  0  0  0  0  0
   53.8260   24.7840   45.6600 N   0  0  0  0  0  0  0  0  0  0  0  0
   54.1370   23.5180   45.3100 C   0  0  0  0  0  0  0  0  0  0  0  0
   53.2770   22.6030   45.2360 O   0  0  0  0  0  0  0  0  0  0  0  0
   55.4460   23.3080   45.0530 N   0  0  0  0  0  0  0  0  0  0  0  0
   55.9980   24.5210   45.2290 C   0  0  0  0  0  0  0  0  0  0  0  0
   57.4420   24.7760   45.0930 C   0  0  0  0  0  0  0  0  0  0  0  0
   58.0232   24.1309   44.4177 H   0  0  0  0  0  0  0  0  0  0  0  0
   58.0900   25.7580   45.7520 C   0  0  0  0  0  0  0  0  0  0  0  0
   58.7530   25.6330   46.9660 C   0  0  0  0  0  0  0  0  0  0  0  0
   58.8741   24.7132   47.5571 H   0  0  0  0  0  0  0  0  0  0  0  0
   59.2300   26.8870   47.2860 C   0  0  0  0  0  0  0  0  0  0  0  0
   60.0130   27.2090   48.5230 C   0  0  0  0  0  0  0  0  0  0  0  0
   59.4130   26.9623   49.4113 H   0  0  0  0  0  0  0  0  0  0  0  0
   60.9419   26.6199   48.5327 H   0  0  0  0  0  0  0  0  0  0  0  0
   60.2587   28.2812   48.5327 H   0  0  0  0  0  0  0  0  0  0  0  0
   58.9000   27.7780   46.3250 N   0  0  0  0  0  0  0  0  0  0  0  0
   59.2230   29.1800   46.3320 C   0  0  0  0  0  0  0  0  0  0  0  0
   58.2340   30.1340   46.0540 C   0  0  0  0  0  0  0  0  0  0  0  0
   57.2107   29.8082   45.8159 H   0  0  0  0  0  0  0  0  0  0  0  0
   58.5420   31.4970   46.0780 C   0  0  0  0  0  0  0  0  0  0  0  0
   57.7593   32.2393   45.8626 H   0  0  0  0  0  0  0  0  0  0  0  0
   59.8470   31.9230   46.3760 C   0  0  0  0  0  0  0  0  0  0  0  0
   60.1690   33.3900   46.4450 C   0  0  0  0  0  0  0  0  0  0  0  0
   60.6004   33.7129   45.4860 H   0  0  0  0  0  0  0  0  0  0  0  0
   59.2452   33.9513   46.6489 H   0  0  0  0  0  0  0  0  0  0  0  0
   61.1570   33.6530   47.5480 C   0  0  0  0  0  0  0  0  0  0  0  0
   62.5380   33.5890   47.2920 C   0  0  0  0  0  0  0  0  0  0  0  0
   62.8975   33.3753   46.2746 H   0  0  0  0  0  0  0  0  0  0  0  0
   63.4560   33.7960   48.3260 C   0  0  0  0  0  0  0  0  0  0  0  0
   64.5354   33.7512   48.1191 H   0  0  0  0  0  0  0  0  0  0  0  0
   63.0040   34.0600   49.6230 C   0  0  0  0  0  0  0  0  0  0  0  0
   63.9180   34.2650   50.6500 O   0  0  0  0  0  0  0  0  0  0  0  0
   61.6320   34.1140   49.8870 C   0  0  0  0  0  0  0  0  0  0  0  0
   61.2768   34.3197   50.9076 H   0  0  0  0  0  0  0  0  0  0  0  0
   60.7110   33.9070   48.8560 C   0  0  0  0  0  0  0  0  0  0  0  0
   59.6325   33.9431   49.0696 H   0  0  0  0  0  0  0  0  0  0  0  0
   60.8320   30.9660   46.6670 C   0  0  0  0  0  0  0  0  0  0  0  0
   61.8532   31.2902   46.9160 H   0  0  0  0  0  0  0  0  0  0  0  0
   60.5220   29.6040   46.6420 C   0  0  0  0  0  0  0  0  0  0  0  0
   61.3014   28.8610   46.8667 H   0  0  0  0  0  0  0  0  0  0  0  0
   58.1960   27.1020   45.3820 C   0  0  0  0  0  0  0  0  0  0  0  0
   57.7240   27.6560   44.2540 C   0  0  0  0  0  0  0  0  0  0  0  0
   57.8666   28.7307   44.0676 H   0  0  0  0  0  0  0  0  0  0  0  0
   57.1946   27.0353   43.5161 H   0  0  0  0  0  0  0  0  0  0  0  0
  1  2  1  0
  2  3  1  0
  3  4  1  0
  4  5  1  0
  5  6  2  0
  5  7  1  0
  7  8  1  0
  8  9  1  0
  9 10  1  0
  9 11  2  0
 11 12  1  0
 12 13  1  0
 12 14  2  0
 14 15  1  0
 15 16  1  0
 15 17  1  0
 15 18  1  0
 14 19  1  0
 19 20  1  0
 20 21  2  0
 21 22  1  0
 21 23  1  0
 23 24  1  0
 23 25  2  0
 25 26  1  0
 26 27  1  0
 26 28  1  0
 26 29  1  0
 29 30  2  0
 30 31  1  0
 30 32  1  0
 32 33  1  0
 32 34  2  0
 34 35  1  0
 34 36  1  0
 36 37  1  0
 36 38  2  0
 38 39  1  0
 25 40  1  0
 40 41  1  0
 40 42  2  0
 42 43  1  0
 19 44  1  0
 44 45  2  0
 45 46  1  0
 45 47  1  0
  8  3  2  0
 44 11  1  0
 42 20  1  0
 38 29  1  0
M  CHG  3   4  -1   7  -1  35  -1
M  END
>  <UniqueID>  (7) 
7

>  <SMILES>  (7) 
C=c1/c(=C/c2[n-]c(=O)[n-]c2O)cc(C)n1-c1ccc(Cc2ccc([O-])cc2)cc1

>  <Energy>  (7) 
120.56935202410475

>  <Genealogy>  (7) 
C=c1c(=Cc2[n-]c(=O)[n-]c2O)cc(C)n1-c1ccc(Cc2ccc([O-])cc2)cc1 (protonated)
C=c1/c(=C/c2[n-]c(=O)[n-]c2O)cc(C)n1-c1ccc(Cc2ccc([O-])cc2)cc1 (cis-trans isomerization)
C=c1/c(=C/c2[n-]c(=O)[n-]c2O)cc(C)n1-c1ccc(Cc2ccc([O-])cc2)cc1 (3D coordinates assigned)
C=c1/c(=C/c2[n-]c(=O)[n-]c2O)cc(C)n1-c1ccc(Cc2ccc([O-])cc2)cc1 (optimized conformer: 120.56935202410475 kcal/mol)

>  <smiles>  (7) 
C=c1c(=Cc2[nH]c(=O)[nH]c2O)cc(C)n1-c1ccc(Cc2ccc(O)cc2)cc1

>  <score_type>  (7) 
oracle

>  <origin>  (7) 
adg

>  <m_score__min__energy>  (7) 
-14.210000000000001

>  <m_primary>  (7) 
energy

$$$$
7:0
     RDKit          3D

 59 62  0  0  0  0  0  0  0  0999 V2000
   59.0010   34.9300   45.6550 N   0  0  0  0  0  0  0  0  0  0  0  0
   58.5040   33.3360   46.0990 S   0  0  0  0  0  0  0  0  0  0  0  0
   59.6740   32.5960   46.6850 O   0  0  0  0  0  0  0  0  0  0  0  0
   57.4160   33.4180   47.1320 O   0  0  0  0  0  0  0  0  0  0  0  0
   57.9010   32.4920   44.6750 C   0  0  0  0  0  0  0  0  0  0  0  0
   58.4380   32.7840   43.4150 C   0  0  0  0  0  0  0  0  0  0  0  0
   57.9760   32.1130   42.2800 C   0  0  0  0  0  0  0  0  0  0  0  0
   56.9780   31.1440   42.3970 C   0  0  0  0  0  0  0  0  0  0  0  0
   56.4310   30.8390   43.6550 C   0  0  0  0  0  0  0  0  0  0  0  0
   55.3380   29.8100   43.7700 C   0  0  0  0  0  0  0  0  0  0  0  0
   55.5410   28.9870   44.9560 N   0  0  0  0  0  0  0  0  0  0  0  0
   56.7350   28.2400   45.2110 C   0  0  0  0  0  0  0  0  0  0  0  0
   57.7530   28.4040   44.4880 O   0  0  0  0  0  0  0  0  0  0  0  0
   56.7880   27.3080   46.2940 N   0  0  0  0  0  0  0  0  0  0  0  0
   58.0260   26.7160   46.7890 C   0  0  0  0  0  0  0  0  0  0  0  0
   58.8380   27.7450   47.5280 C   0  0  0  0  0  0  0  0  0  0  0  0
   59.9670   27.3670   48.2720 C   0  0  0  0  0  0  0  0  0  0  0  0
   60.7290   28.3310   48.9380 C   0  0  0  0  0  0  0  0  0  0  0  0
   60.3690   29.6870   48.8790 C   0  0  0  0  0  0  0  0  0  0  0  0
   61.1850   30.7050   49.5830 C   0  0  0  0  0  0  0  0  0  0  0  0
   60.8460   31.0690   50.7410 O   0  0  0  0  0  0  0  0  0  0  0  0
   62.3550   31.2880   48.9770 N   0  0  0  0  0  0  0  0  0  0  0  0
   62.5260   31.3140   47.5170 C   0  0  0  0  0  0  0  0  0  0  0  0
   62.9150   32.7100   47.0090 C   0  0  0  0  0  0  0  0  0  0  0  0
   62.2130   33.8140   47.8100 C   0  0  0  0  0  0  0  0  0  0  0  0
   62.9950   34.2500   49.0640 C   0  0  0  0  0  0  0  0  0  0  0  0
   63.7330   33.1780   49.8410 C   0  0  0  0  0  0  0  0  0  0  0  0
   64.7340   33.5940   50.6670 N   0  0  0  0  0  0  0  0  0  0  0  0
   65.4300   32.7440   51.4650 C   0  0  0  0  0  0  0  0  0  0  0  0
   65.1180   31.3860   51.4730 C   0  0  0  0  0  0  0  0  0  0  0  0
   64.0920   30.9190   50.6550 C   0  0  0  0  0  0  0  0  0  0  0  0
   63.3890   31.8040   49.8270 C   0  0  0  0  0  0  0  0  0  0  0  0
   59.2520   30.0660   48.1140 C   0  0  0  0  0  0  0  0  0  0  0  0
   58.4920   29.1010   47.4480 C   0  0  0  0  0  0  0  0  0  0  0  0
   56.8980   31.5180   44.7940 C   0  0  0  0  0  0  0  0  0  0  0  0
   59.1290   35.4670   46.5430 H   0  0  0  0  0  0  0  0  0  0  0  0
   59.2267   33.5447   43.3186 H   0  0  0  0  0  0  0  0  0  0  0  0
   58.3994   32.3487   41.2925 H   0  0  0  0  0  0  0  0  0  0  0  0
   56.6183   30.6171   41.5009 H   0  0  0  0  0  0  0  0  0  0  0  0
   54.3660   30.3197   43.8440 H   0  0  0  0  0  0  0  0  0  0  0  0
   55.3584   29.1651   42.8791 H   0  0  0  0  0  0  0  0  0  0  0  0
   57.7847   25.8866   47.4701 H   0  0  0  0  0  0  0  0  0  0  0  0
   58.6113   26.3442   45.9351 H   0  0  0  0  0  0  0  0  0  0  0  0
   60.2534   26.3066   48.3311 H   0  0  0  0  0  0  0  0  0  0  0  0
   61.6163   28.0255   49.5120 H   0  0  0  0  0  0  0  0  0  0  0  0
   63.3168   30.6017   47.2392 H   0  0  0  0  0  0  0  0  0  0  0  0
   61.5650   31.0402   47.0571 H   0  0  0  0  0  0  0  0  0  0  0  0
   64.0036   32.8352   47.1054 H   0  0  0  0  0  0  0  0  0  0  0  0
   62.6034   32.7945   45.9574 H   0  0  0  0  0  0  0  0  0  0  0  0
   62.0836   34.6900   47.1574 H   0  0  0  0  0  0  0  0  0  0  0  0
   61.2507   33.4056   48.1524 H   0  0  0  0  0  0  0  0  0  0  0  0
   63.7384   34.9955   48.7451 H   0  0  0  0  0  0  0  0  0  0  0  0
   62.2251   34.6172   49.7586 H   0  0  0  0  0  0  0  0  0  0  0  0
   66.2391   33.1270   52.1043 H   0  0  0  0  0  0  0  0  0  0  0  0
   65.6755   30.6908   52.1179 H   0  0  0  0  0  0  0  0  0  0  0  0
   63.8324   29.8501   50.6590 H   0  0  0  0  0  0  0  0  0  0  0  0
   58.9749   31.1279   48.0394 H   0  0  0  0  0  0  0  0  0  0  0  0
   57.6163   29.4075   46.8570 H   0  0  0  0  0  0  0  0  0  0  0  0
   56.4754   31.2848   45.7824 H   0  0  0  0  0  0  0  0  0  0  0  0
  1  2  1  0
  2  3  2  0
  2  4  2  0
  2  5  1  0
  5  6  2  0
  6  7  1  0
  7  8  2  0
  8  9  1  0
  9 10  1  0
 10 11  1  0
 11 12  1  0
 12 13  2  0
 12 14  1  0
 14 15  1  0
 15 16  1  0
 16 17  2  0
 17 18  1  0
 18 19  2  0
 19 20  1  0
 20 21  2  0
 20 22  1  0
 22 23  1  0
 23 24  1  0
 24 25  1  0
 25 26  1  0
 26 27  1  0
 27 28  2  0
 28 29  1  0
 29 30  2  0
 30 31  1  0
 31 32  2  0
 19 33  1  0
 33 34  2  0
  9 35  2  0
 35  5  1  0
 34 16  1  0
 32 22  1  0
 32 27  1  0
  1 36  1  0
  6 37  1  0
  7 38  1  0
  8 39  1  0
 10 40  1  0
 10 41  1  0
 15 42  1  0
 15 43  1  0
 17 44  1  0
 18 45  1  0
 23 46  1  0
 23 47  1  0
 24 48  1  0
 24 49  1  0
 25 50  1  0
 25 51  1  0
 26 52  1  0
 26 53  1  0
 29 54  1  0
 30 55  1  0
 31 56  1  0
 33 57  1  0
 34 58  1  0
 35 59  1  0
M  CHG  3   1  -1  11  -1  14  -1
M  END
>  <UniqueID>  (8) 
8

>  <SMILES>  (8) 
[NH-]S(=O)(=O)c1cccc(C[N-]C(=O)[N-]Cc2ccc(C(=O)N3CCCCc4ncccc43)cc2)c1

>  <Energy>  (8) 
75.57648393489751

>  <Genealogy>  (8) 
[NH-]S(=O)(=O)c1cccc(C[N-]C(=O)[N-]Cc2ccc(C(=O)N3CCCCc4ncccc43)cc2)c1 (protonated)
[NH-]S(=O)(=O)c1cccc(C[N-]C(=O)[N-]Cc2ccc(C(=O)N3CCCCc4ncccc43)cc2)c1 (3D coordinates assigned)
[NH-]S(=O)(=O)c1cccc(C[N-]C(=O)[N-]Cc2ccc(C(=O)N3CCCCc4ncccc43)cc2)c1 (nonaromatic ring conformer: 75.57648393489751 kcal/mol)

>  <smiles>  (8) 
NS(=O)(=O)c1cccc(CNC(=O)NCc2ccc(C(=O)N3CCCCc4ncccc43)cc2)c1

>  <score_type>  (8) 
oracle

>  <origin>  (8) 
adg

>  <m_score__min__energy>  (8) 
-12.92

>  <m_primary>  (8) 
energy

$$$$
8:0
     RDKit          3D

 50 53  0  0  0  0  0  0  0  0999 V2000
   61.2496   33.7841   47.3152 H   0  0  0  0  0  0  0  0  0  0  0  0
   60.2960   33.6370   46.7870 C   0  0  0  0  0  0  0  0  0  0  0  0
   59.5500   34.7600   46.3610 C   0  0  0  0  0  0  0  0  0  0  0  0
   60.0170   36.0100   46.6010 F   0  0  0  0  0  0  0  0  0  0  0  0
   58.3290   34.5860   45.6860 C   0  0  0  0  0  0  0  0  0  0  0  0
   57.7379   35.4505   45.3496 H   0  0  0  0  0  0  0  0  0  0  0  0
   57.8920   33.2830   45.4570 C   0  0  0  0  0  0  0  0  0  0  0  0
   56.7700   32.9040   44.8180 N   0  0  0  0  0  0  0  0  0  0  0  0
   56.8460   31.5510   44.8670 C   0  0  0  0  0  0  0  0  0  0  0  0
   55.9680   30.8070   44.3520 O   0  0  0  0  0  0  0  0  0  0  0  0
   57.9490   31.0740   45.5040 N   0  0  0  0  0  0  0  0  0  0  0  0
   58.3220   29.6600   45.6780 C   0  0  0  0  0  0  0  0  0  0  0  0
   57.9579   29.3278   46.6614 H   0  0  0  0  0  0  0  0  0  0  0  0
   59.8580   29.4750   45.6970 C   0  0  0  0  0  0  0  0  0  0  0  0
   60.1887   29.3763   46.7415 H   0  0  0  0  0  0  0  0  0  0  0  0
   60.3069   30.3546   45.2125 H   0  0  0  0  0  0  0  0  0  0  0  0
   60.3110   28.2270   44.9150 C   0  0  0  0  0  0  0  0  0  0  0  0
   61.3374   27.9717   45.2174 H   0  0  0  0  0  0  0  0  0  0  0  0
   60.2588   28.4615   43.8416 H   0  0  0  0  0  0  0  0  0  0  0  0
   59.4350   27.0640   45.1710 N   0  0  0  0  0  0  0  0  0  0  0  0
   59.5950   26.5450   46.5460 C   0  0  0  0  0  0  0  0  0  0  0  0
   60.4823   27.0044   47.0062 H   0  0  0  0  0  0  0  0  0  0  0  0
   59.7149   25.4524   46.5041 H   0  0  0  0  0  0  0  0  0  0  0  0
   58.3870   26.8710   47.3690 C   0  0  0  0  0  0  0  0  0  0  0  0
   58.3080   27.9940   47.9340 O   0  0  0  0  0  0  0  0  0  0  0  0
   57.3470   25.8870   47.5020 N   0  0  0  0  0  0  0  0  0  0  0  0
   56.8710   25.1060   46.5770 C   0  0  0  0  0  0  0  0  0  0  0  0
   55.5470   25.0180   46.3330 N   0  0  0  0  0  0  0  0  0  0  0  0
   55.2650   24.1510   45.3210 C   0  0  0  0  0  0  0  0  0  0  0  0
   53.8530   23.9170   44.8860 C   0  0  0  0  0  0  0  0  0  0  0  0
   53.2094   23.8103   45.7717 H   0  0  0  0  0  0  0  0  0  0  0  0
   53.5088   24.7704   44.2832 H   0  0  0  0  0  0  0  0  0  0  0  0
   53.8025   22.9982   44.2832 H   0  0  0  0  0  0  0  0  0  0  0  0
   56.3870   23.5350   44.7450 C   0  0  0  0  0  0  0  0  0  0  0  0
   56.4110   22.5540   43.6370 C   0  0  0  0  0  0  0  0  0  0  0  0
   55.5350   22.5930   42.7320 O   0  0  0  0  0  0  0  0  0  0  0  0
   57.4740   21.5010   43.5730 C   0  0  0  0  0  0  0  0  0  0  0  0
   57.7657   21.2120   44.5935 H   0  0  0  0  0  0  0  0  0  0  0  0
   57.0864   20.6207   43.0393 H   0  0  0  0  0  0  0  0  0  0  0  0
   58.3506   21.8969   43.0393 H   0  0  0  0  0  0  0  0  0  0  0  0
   57.7560   24.1110   45.5450 S   0  0  0  0  0  0  0  0  0  0  0  0
   58.0120   27.2960   44.8050 C   0  0  0  0  0  0  0  0  0  0  0  0
   57.3789   26.8780   45.6015 H   0  0  0  0  0  0  0  0  0  0  0  0
   57.8534   26.8077   43.8322 H   0  0  0  0  0  0  0  0  0  0  0  0
   57.6380   28.7810   44.6200 C   0  0  0  0  0  0  0  0  0  0  0  0
   56.5474   28.8909   44.7123 H   0  0  0  0  0  0  0  0  0  0  0  0
   57.9767   29.1050   43.6249 H   0  0  0  0  0  0  0  0  0  0  0  0
   58.6100   32.1940   45.8680 C   0  0  0  0  0  0  0  0  0  0  0  0
   59.8290   32.3340   46.5410 C   0  0  0  0  0  0  0  0  0  0  0  0
   60.4027   31.4538   46.8667 H   0  0  0  0  0  0  0  0  0  0  0  0
  1  2  1  0
  2  3  2  0
  3  4  1  0
  3  5  1  0
  5  6  1  0
  5  7  2  0
  7  8  1  0
  8  9  1  0
  9 10  2  0
  9 11  1  0
 11 12  1  0
 12 13  1  0
 12 14  1  0
 14 15  1  0
 14 16  1  0
 14 17  1  0
 17 18  1  0
 17 19  1  0
 17 20  1  0
 20 21  1  0
 21 22  1  0
 21 23  1  0
 21 24  1  0
 24 25  2  0
 24 26  1  0
 26 27  2  0
 27 28  1  0
 28 29  1  0
 29 30  1  0
 30 31  1  0
 30 32  1  0
 30 33  1  0
 29 34  2  0
 34 35  1  0
 35 36  2  0
 35 37  1  0
 37 38  1  0
 37 39  1  0
 37 40  1  0
 34 41  1  0
 20 42  1  0
 42 43  1  0
 42 44  1  0
 42 45  1  0
 45 46  1  0
 45 47  1  0
 11 48  1  0
 48 49  2  0
 49 50  1  0
 49  2  1  0
 48  7  1  0
 45 12  1  0
 41 27  1  0
M  CHG  2   8  -1  28  -1
M  END
>  <UniqueID>  (9) 
9

>  <SMILES>  (9) 
CC(=O)c1s/c(=N\C(=O)CN2CCC(n3c(=O)[n-]c4cc(F)ccc43)CC2)[n-]c1C

>  <Energy>  (9) 
132.95220493330942

>  <Genealogy>  (9) 
CC(=O)c1sc(=NC(=O)CN2CCC(n3c(=O)[n-]c4cc(F)ccc43)CC2)[n-]c1C (protonated)
CC(=O)c1s/c(=N\C(=O)CN2CCC(n3c(=O)[n-]c4cc(F)ccc43)CC2)[n-]c1C (cis-trans isomerization)
CC(=O)c1s/c(=N\C(=O)CN2CCC(n3c(=O)[n-]c4cc(F)ccc43)CC2)[n-]c1C (3D coordinates assigned)
CC(=O)c1s/c(=N\C(=O)CN2CCC(n3c(=O)[n-]c4cc(F)ccc43)CC2)[n-]c1C (nonaromatic ring conformer: 132.95220493330942 kcal/mol)

>  <smiles>  (9) 
CC(=O)c1sc(=NC(=O)CN2CCC(n3c(=O)[nH]c4cc(F)ccc43)CC2)[nH]c1C

>  <score_type>  (9) 
oracle

>  <origin>  (9) 
adg

>  <m_score__min__energy>  (9) 
-12.130000000000001

>  <m_primary>  (9) 
energy

$$$$
9:0
     RDKit          3D

 38 40  0  0  0  0  0  0  0  0999 V2000
   59.4727   34.9929   48.4168 H   0  0  0  0  0  0  0  0  0  0  0  0
   59.2150   34.7650   47.3720 C   0  0  0  0  0  0  0  0  0  0  0  0
   58.1890   33.9370   47.0370 N   0  0  0  0  0  0  0  0  0  0  0  0
   58.0770   33.8070   45.6960 C   0  0  0  0  0  0  0  0  0  0  0  0
   57.1590   33.1040   45.1030 N   0  0  0  0  0  0  0  0  0  0  0  0
   57.3940   31.9600   44.2690 C   0  0  0  0  0  0  0  0  0  0  0  0
   57.9490   32.1340   43.1520 O   0  0  0  0  0  0  0  0  0  0  0  0
   57.0600   30.5870   44.7110 C   0  0  0  0  0  0  0  0  0  0  0  0
   55.9080   30.1190   44.5040 O   0  0  0  0  0  0  0  0  0  0  0  0
   58.0520   29.7500   45.4230 C   0  0  0  0  0  0  0  0  0  0  0  0
   58.6630   30.1890   46.6190 C   0  0  0  0  0  0  0  0  0  0  0  0
   58.2580   31.4480   47.1960 N   0  0  0  0  0  0  0  0  0  0  0  0
   58.8120   31.9440   47.9230 H   0  0  0  0  0  0  0  0  0  0  0  0
   57.3750   31.9220   46.9080 H   0  0  0  0  0  0  0  0  0  0  0  0
   59.6130   29.3970   47.2350 N   0  0  0  0  0  0  0  0  0  0  0  0
   60.2460   29.8170   48.5060 C   0  0  0  0  0  0  0  0  0  0  0  0
   59.4623   29.9786   49.2607 H   0  0  0  0  0  0  0  0  0  0  0  0
   60.9381   29.0251   48.8283 H   0  0  0  0  0  0  0  0  0  0  0  0
   61.0310   31.0950   48.3300 C   0  0  0  0  0  0  0  0  0  0  0  0
   61.9460   31.2270   47.2710 C   0  0  0  0  0  0  0  0  0  0  0  0
   62.0793   30.4011   46.5568 H   0  0  0  0  0  0  0  0  0  0  0  0
   62.6870   32.4020   47.1210 C   0  0  0  0  0  0  0  0  0  0  0  0
   63.3940   32.5026   46.2843 H   0  0  0  0  0  0  0  0  0  0  0  0
   62.5310   33.4500   48.0330 C   0  0  0  0  0  0  0  0  0  0  0  0
   63.1110   34.3766   47.9102 H   0  0  0  0  0  0  0  0  0  0  0  0
   61.6390   33.3210   49.1000 C   0  0  0  0  0  0  0  0  0  0  0  0
   61.5216   34.1441   49.8202 H   0  0  0  0  0  0  0  0  0  0  0  0
   60.8950   32.1470   49.2540 C   0  0  0  0  0  0  0  0  0  0  0  0
   60.2006   32.0457   50.1011 H   0  0  0  0  0  0  0  0  0  0  0  0
   59.9480   28.1820   46.6800 C   0  0  0  0  0  0  0  0  0  0  0  0
   60.7980   27.4320   47.2350 O   0  0  0  0  0  0  0  0  0  0  0  0
   59.3650   27.7640   45.5270 N   0  0  0  0  0  0  0  0  0  0  0  0
   59.6420   26.8400   45.1200 H   0  0  0  0  0  0  0  0  0  0  0  0
   58.4400   28.5170   44.8870 C   0  0  0  0  0  0  0  0  0  0  0  0
   57.9430   28.1020   43.8050 O   0  0  0  0  0  0  0  0  0  0  0  0
   59.2210   34.7200   44.8770 S   0  0  0  0  0  0  0  0  0  0  0  0
   59.9140   35.3020   46.2970 C   0  0  0  0  0  0  0  0  0  0  0  0
   60.7712   35.9882   46.3626 H   0  0  0  0  0  0  0  0  0  0  0  0
  1  2  1  0
  2  3  1  0
  3  4  1  0
  4  5  2  0
  5  6  1  0
  6  7  2  0
  6  8  1  0
  8  9  2  0
  8 10  1  0
 10 11  2  0
 11 12  1  0
 12 13  1  0
 12 14  1  0
 11 15  1  0
 15 16  1  0
 16 17  1  0
 16 18  1  0
 16 19  1  0
 19 20  2  0
 20 21  1  0
 20 22  1  0
 22 23  1  0
 22 24  2  0
 24 25  1  0
 24 26  1  0
 26 27  1  0
 26 28  2  0
 28 29  1  0
 15 30  1  0
 30 31  2  0
 30 32  1  0
 32 33  1  0
 32 34  1  0
 34 35  2  0
  4 36  1  0
 36 37  1  0
 37 38  1  0
 37  2  2  0
 34 10  1  0
 28 19  1  0
M  CHG  1   3  -1
M  END
>  <UniqueID>  (10) 
10

>  <SMILES>  (10) 
Nc1c(C(=O)C(=O)/N=c2\[n-]ccs2)c(=O)[nH]c(=O)n1Cc1ccccc1

>  <Energy>  (10) 
91.31943168863901

>  <Genealogy>  (10) 
Nc1c(C(=O)C(=O)N=c2[n-]ccs2)c(=O)[nH]c(=O)n1Cc1ccccc1 (protonated)
Nc1c(C(=O)C(=O)/N=c2\[n-]ccs2)c(=O)[nH]c(=O)n1Cc1ccccc1 (cis-trans isomerization)
Nc1c(C(=O)C(=O)/N=c2\[n-]ccs2)c(=O)[nH]c(=O)n1Cc1ccccc1 (3D coordinates assigned)
Nc1c(C(=O)C(=O)/N=c2\[n-]ccs2)c(=O)[nH]c(=O)n1Cc1ccccc1 (optimized conformer: 91.31943168863901 kcal/mol)

>  <smiles>  (10) 
Nc1c(C(=O)C(=O)N=c2[nH]ccs2)c(=O)[nH]c(=O)n1Cc1ccccc1

>  <score_type>  (10) 
oracle

>  <origin>  (10) 
adg

>  <m_score__min__energy>  (10) 
-9.2799999999999994

>  <m_primary>  (10) 
energy

$$$$
10:0
     RDKit          3D

 37 38  0  0  0  0  0  0  0  0999 V2000
   60.3980   34.5320   46.0580 C   0  0  0  0  0  0  0  0  0  0  0  0
   60.9250   33.6360   47.1510 C   0  0  0  0  0  0  0  0  0  0  0  0
   62.3490   33.1550   47.0480 C   0  0  0  0  0  0  0  0  0  0  0  0
   60.1530   33.2310   48.1840 C   0  0  0  0  0  0  0  0  0  0  0  0
   59.2940   31.9890   48.1740 C   0  0  0  0  0  0  0  0  0  0  0  0
   58.5280   31.8510   46.8810 C   0  0  0  0  0  0  0  0  0  0  0  0
   58.6120   30.6580   46.1420 C   0  0  0  0  0  0  0  0  0  0  0  0
   57.9090   30.5100   44.9370 C   0  0  0  0  0  0  0  0  0  0  0  0
   57.9850   29.2180   44.1660 C   0  0  0  0  0  0  0  0  0  0  0  0
   57.4260   28.0780   44.9860 C   0  0  0  0  0  0  0  0  0  0  0  0
   56.0480   27.9840   45.2550 C   0  0  0  0  0  0  0  0  0  0  0  0
   55.1660   28.9610   44.8070 O   0  0  0  0  0  0  0  0  0  0  0  0
   55.5640   26.9310   45.9620 N   0  0  0  0  0  0  0  0  0  0  0  0
   56.3870   25.9530   46.4170 C   0  0  0  0  0  0  0  0  0  0  0  0
   55.9140   24.9870   47.0700 O   0  0  0  0  0  0  0  0  0  0  0  0
   57.7190   26.0150   46.1690 N   0  0  0  0  0  0  0  0  0  0  0  0
   58.2550   27.0460   45.4660 C   0  0  0  0  0  0  0  0  0  0  0  0
   59.4970   27.0650   45.2550 O   0  0  0  0  0  0  0  0  0  0  0  0
   57.1030   31.5630   44.4770 C   0  0  0  0  0  0  0  0  0  0  0  0
   57.0050   32.7470   45.2100 C   0  0  0  0  0  0  0  0  0  0  0  0
   57.7090   32.8980   46.4120 C   0  0  0  0  0  0  0  0  0  0  0  0
   57.5950   34.0800   47.1420 O   0  0  0  0  0  0  0  0  0  0  0  0
   59.8889   35.3976   46.5070 H   0  0  0  0  0  0  0  0  0  0  0  0
   61.2346   34.8813   45.4349 H   0  0  0  0  0  0  0  0  0  0  0  0
   59.6862   33.9706   45.4349 H   0  0  0  0  0  0  0  0  0  0  0  0
   62.7627   33.0152   48.0576 H   0  0  0  0  0  0  0  0  0  0  0  0
   62.3746   32.1984   46.5056 H   0  0  0  0  0  0  0  0  0  0  0  0
   62.9494   33.9002   46.5056 H   0  0  0  0  0  0  0  0  0  0  0  0
   60.1503   33.8484   49.0944 H   0  0  0  0  0  0  0  0  0  0  0  0
   59.9398   31.1078   48.3016 H   0  0  0  0  0  0  0  0  0  0  0  0
   58.5677   32.0676   48.9964 H   0  0  0  0  0  0  0  0  0  0  0  0
   59.2359   29.8314   46.5127 H   0  0  0  0  0  0  0  0  0  0  0  0
   57.4028   29.3157   43.2378 H   0  0  0  0  0  0  0  0  0  0  0  0
   59.0386   29.0048   43.9324 H   0  0  0  0  0  0  0  0  0  0  0  0
   56.5460   31.4548   43.5346 H   0  0  0  0  0  0  0  0  0  0  0  0
   56.3709   33.5668   44.8415 H   0  0  0  0  0  0  0  0  0  0  0  0
   56.7760   34.2800   47.7040 H   0  0  0  0  0  0  0  0  0  0  0  0
  1  2  1  0
  2  3  1  0
  2  4  2  3
  4  5  1  0
  5  6  1  0
  6  7  2  0
  7  8  1  0
  8  9  1  0
  9 10  1  0
 10 11  2  0
 11 12  1  0
 11 13  1  0
 13 14  1  0
 14 15  2  0
 14 16  1  0
 16 17  1  0
 17 18  2  0
  8 19  2  0
 19 20  1  0
 20 21  2  0
 21 22  1  0
 21  6  1  0
 17 10  1  0
  1 23  1  0
  1 24  1  0
  1 25  1  0
  3 26  1  0
  3 27  1  0
  3 28  1  0
  4 29  1  0
  5 30  1  0
  5 31  1  0
  7 32  1  0
  9 33  1  0
  9 34  1  0
 19 35  1  0
 20 36  1  0
 22 37  1  0
M  CHG  3  12  -1  13  -1  16  -1
M  END
>  <UniqueID>  (11) 
11

>  <SMILES>  (11) 
CC(C)=CCc1cc(Cc2c([O-])[n-]c(=O)[n-]c2=O)ccc1O

>  <Energy>  (11) 
34.97033293366307

>  <Genealogy>  (11) 
CC(C)=CCc1cc(Cc2c([O-])[n-]c(=O)[n-]c2=O)ccc1O (protonated)
CC(C)=CCc1cc(Cc2c([O-])[n-]c(=O)[n-]c2=O)ccc1O (3D coordinates assigned)
CC(C)=CCc1cc(Cc2c([O-])[n-]c(=O)[n-]c2=O)ccc1O (optimized conformer: 34.97033293366307 kcal/mol)

>  <smiles>  (11) 
CC(C)=CCc1cc(Cc2c(O)[nH]c(=O)[nH]c2=O)ccc1O

>  <score_type>  (11) 
oracle

>  <origin>  (11) 
adg

>  <m_score__min__energy>  (11) 
-14.57

>  <m_primary>  (11) 
energy

$$$$
11:0
     RDKit          3D

 33 34  0  0  0  0  0  0  0  0999 V2000
   57.1968   31.8697   40.9545 H   0  0  0  0  0  0  0  0  0  0  0  0
   57.3610   31.7450   42.0350 C   0  0  0  0  0  0  0  0  0  0  0  0
   58.1640   32.6510   42.7260 C   0  0  0  0  0  0  0  0  0  0  0  0
   58.6212   33.4974   42.1925 H   0  0  0  0  0  0  0  0  0  0  0  0
   58.3890   32.4860   44.0940 C   0  0  0  0  0  0  0  0  0  0  0  0
   59.0234   33.2052   44.6327 H   0  0  0  0  0  0  0  0  0  0  0  0
   57.8120   31.4090   44.7890 C   0  0  0  0  0  0  0  0  0  0  0  0
   58.1100   31.2540   46.2580 C   0  0  0  0  0  0  0  0  0  0  0  0
   57.2856   31.6828   46.8466 H   0  0  0  0  0  0  0  0  0  0  0  0
   58.2165   30.1862   46.4999 H   0  0  0  0  0  0  0  0  0  0  0  0
   59.0454   31.7798   46.4999 H   0  0  0  0  0  0  0  0  0  0  0  0
   56.9580   30.5130   44.0940 C   0  0  0  0  0  0  0  0  0  0  0  0
   56.2690   29.3890   44.7700 C   0  0  0  0  0  0  0  0  0  0  0  0
   55.0560   29.1760   44.5090 O   0  0  0  0  0  0  0  0  0  0  0  0
   56.9420   28.5070   45.6820 N   0  0  0  0  0  0  0  0  0  0  0  0
   56.7520   27.2260   45.8120 C   0  0  0  0  0  0  0  0  0  0  0  0
   55.5240   26.7020   46.0140 N   0  0  0  0  0  0  0  0  0  0  0  0
   55.5360   25.3780   46.1560 N   0  0  0  0  0  0  0  0  0  0  0  0
   56.7740   24.8450   46.0710 C   0  0  0  0  0  0  0  0  0  0  0  0
   57.1050   23.1330   46.2510 S   0  0  0  0  0  0  0  0  0  0  0  0
   58.4930   22.8520   45.7480 O   0  0  0  0  0  0  0  0  0  0  0  0
   57.0370   22.7570   47.7050 O   0  0  0  0  0  0  0  0  0  0  0  0
   55.9650   22.1840   45.3420 N   0  0  0  0  0  0  0  0  0  0  0  0
   55.9250   22.5980   43.9380 C   0  0  0  0  0  0  0  0  0  0  0  0
   56.2094   23.6580   43.8633 H   0  0  0  0  0  0  0  0  0  0  0  0
   54.9057   22.4548   43.5501 H   0  0  0  0  0  0  0  0  0  0  0  0
   56.8930   21.7580   43.1150 C   0  0  0  0  0  0  0  0  0  0  0  0
   57.5493   21.1885   43.7895 H   0  0  0  0  0  0  0  0  0  0  0  0
   56.3258   21.0611   42.4805 H   0  0  0  0  0  0  0  0  0  0  0  0
   57.5031   22.4178   42.4805 H   0  0  0  0  0  0  0  0  0  0  0  0
   57.9450   26.0270   45.8190 S   0  0  0  0  0  0  0  0  0  0  0  0
   56.7650   30.6800   42.7120 C   0  0  0  0  0  0  0  0  0  0  0  0
   56.1385   29.9648   42.1589 H   0  0  0  0  0  0  0  0  0  0  0  0
  1  2  1  0
  2  3  2  0
  3  4  1  0
  3  5  1  0
  5  6  1  0
  5  7  2  0
  7  8  1  0
  8  9  1  0
  8 10  1  0
  8 11  1  0
  7 12  1  0
 12 13  1  0
 13 14  2  0
 13 15  1  0
 15 16  2  0
 16 17  1  0
 17 18  1  0
 18 19  2  0
 19 20  1  0
 20 21  2  0
 20 22  2  0
 20 23  1  0
 23 24  1  0
 24 25  1  0
 24 26  1  0
 24 27  1  0
 27 28  1  0
 27 29  1  0
 27 30  1  0
 19 31  1  0
 12 32  2  0
 32 33  1  0
 32  2  1  0
 31 16  1  0
M  CHG  2  17  -1  23  -1
M  END
>  <UniqueID>  (12) 
12

>  <SMILES>  (12) 
CC[N-]S(=O)(=O)c1n[n-]/c(=N/C(=O)c2ccccc2C)s1

>  <Energy>  (12) 
74.86946241707017

>  <Genealogy>  (12) 
CC[N-]S(=O)(=O)c1n[n-]c(=NC(=O)c2ccccc2C)s1 (protonated)
CC[N-]S(=O)(=O)c1n[n-]/c(=N/C(=O)c2ccccc2C)s1 (cis-trans isomerization)
CC[N-]S(=O)(=O)c1n[n-]/c(=N/C(=O)c2ccccc2C)s1 (3D coordinates assigned)
CC[N-]S(=O)(=O)c1n[n-]/c(=N/C(=O)c2ccccc2C)s1 (optimized conformer: 74.86946241707017 kcal/mol)

>  <smiles>  (12) 
CCNS(=O)(=O)c1n[nH]c(=NC(=O)c2ccccc2C)s1

>  <score_type>  (12) 
oracle

>  <origin>  (12) 
adg

>  <m_score__min__energy>  (12) 
-11.529999999999999

>  <m_primary>  (12) 
energy

$$$$
12:0
     RDKit          3D

 35 37  0  0  0  0  0  0  0  0999 V2000
   56.8449   21.8713   45.6931 H   0  0  0  0  0  0  0  0  0  0  0  0
   56.4160   22.8830   45.7440 C   0  0  0  0  0  0  0  0  0  0  0  0
   57.0150   23.8370   46.5050 N   0  0  0  0  0  0  0  0  0  0  0  0
   56.5160   25.1050   46.6020 C   0  0  0  0  0  0  0  0  0  0  0  0
   57.0910   25.9930   47.3590 N   0  0  0  0  0  0  0  0  0  0  0  0
   58.0150   26.9950   46.9120 C   0  0  0  0  0  0  0  0  0  0  0  0
   58.9870   27.3050   47.6530 O   0  0  0  0  0  0  0  0  0  0  0  0
   57.8050   27.7230   45.6490 C   0  0  0  0  0  0  0  0  0  0  0  0
   57.3400   28.9500   45.5780 O   0  0  0  0  0  0  0  0  0  0  0  0
   57.2970   29.3030   44.3140 C   0  0  0  0  0  0  0  0  0  0  0  0
   56.8600   30.6520   43.8350 C   0  0  0  0  0  0  0  0  0  0  0  0
   57.6343   31.0694   43.1745 H   0  0  0  0  0  0  0  0  0  0  0  0
   55.9114   30.5441   43.2886 H   0  0  0  0  0  0  0  0  0  0  0  0
   56.6580   31.5350   44.9370 O   0  0  0  0  0  0  0  0  0  0  0  0
   57.5250   32.5740   45.3120 C   0  0  0  0  0  0  0  0  0  0  0  0
   57.7920   32.7540   46.6760 C   0  0  0  0  0  0  0  0  0  0  0  0
   57.3142   32.0964   47.4171 H   0  0  0  0  0  0  0  0  0  0  0  0
   58.6610   33.7630   47.1020 C   0  0  0  0  0  0  0  0  0  0  0  0
   58.8646   33.8964   48.1747 H   0  0  0  0  0  0  0  0  0  0  0  0
   59.2710   34.6020   46.1660 C   0  0  0  0  0  0  0  0  0  0  0  0
   59.9584   35.3925   46.5016 H   0  0  0  0  0  0  0  0  0  0  0  0
   59.0080   34.4370   44.8040 C   0  0  0  0  0  0  0  0  0  0  0  0
   59.4866   35.1000   44.0682 H   0  0  0  0  0  0  0  0  0  0  0  0
   58.1370   33.4300   44.3740 C   0  0  0  0  0  0  0  0  0  0  0  0
   57.9292   33.3059   43.3010 H   0  0  0  0  0  0  0  0  0  0  0  0
   57.7580   28.2740   43.5170 C   0  0  0  0  0  0  0  0  0  0  0  0
   57.8436   28.2707   42.4203 H   0  0  0  0  0  0  0  0  0  0  0  0
   58.0890   27.2510   44.3810 C   0  0  0  0  0  0  0  0  0  0  0  0
   58.4950   26.2637   44.1159 H   0  0  0  0  0  0  0  0  0  0  0  0
   55.3430   25.4360   45.9090 C   0  0  0  0  0  0  0  0  0  0  0  0
   54.7990   26.7130   46.0010 O   0  0  0  0  0  0  0  0  0  0  0  0
   54.7190   24.4710   45.1130 C   0  0  0  0  0  0  0  0  0  0  0  0
   53.8053   24.7240   44.5552 H   0  0  0  0  0  0  0  0  0  0  0  0
   55.2570   23.1860   45.0270 C   0  0  0  0  0  0  0  0  0  0  0  0
   54.7735   22.4210   44.4017 H   0  0  0  0  0  0  0  0  0  0  0  0
  1  2  1  0
  2  3  1  0
  3  4  1  0
  4  5  2  0
  5  6  1  0
  6  7  2  0
  6  8  1  0
  8  9  1  0
  9 10  1  0
 10 11  1  0
 11 12  1  0
 11 13  1  0
 11 14  1  0
 14 15  1  0
 15 16  2  0
 16 17  1  0
 16 18  1  0
 18 19  1  0
 18 20  2  0
 20 21  1  0
 20 22  1  0
 22 23  1  0
 22 24  2  0
 24 25  1  0
 10 26  2  0
 26 27  1  0
 26 28  1  0
 28 29  1  0
  4 30  1  0
 30 31  1  0
 30 32  2  0
 32 33  1  0
 32 34  1  0
 34 35  1  0
 34  2  2  0
 28  8  2  0
 24 15  1  0
M  CHG  2   3  -1  31  -1
M  END
>  <UniqueID>  (13) 
13

>  <SMILES>  (13) 
O=C(/N=c1\[n-]cccc1[O-])c1ccc(COc2ccccc2)o1

>  <Energy>  (13) 
66.77269515586433

>  <Genealogy>  (13) 
O=C(N=c1[n-]cccc1[O-])c1ccc(COc2ccccc2)o1 (protonated)
O=C(/N=c1\[n-]cccc1[O-])c1ccc(COc2ccccc2)o1 (cis-trans isomerization)
O=C(/N=c1\[n-]cccc1[O-])c1ccc(COc2ccccc2)o1 (3D coordinates assigned)
O=C(/N=c1\[n-]cccc1[O-])c1ccc(COc2ccccc2)o1 (optimized conformer: 66.77269515586433 kcal/mol)

>  <smiles>  (13) 
O=C(N=c1[nH]cccc1O)c1ccc(COc2ccccc2)o1

>  <score_type>  (13) 
oracle

>  <origin>  (13) 
adg

>  <m_score__min__energy>  (13) 
-13.300000000000001

>  <m_primary>  (13) 
energy

$$$$
13:0
     RDKit          3D

 72 76  0  0  0  0  0  0  0  0999 V2000
   56.6520   31.3020   44.5090 O   0  0  0  0  0  0  0  0  0  0  0  0
   57.4950   32.0850   45.0240 C   0  0  0  0  0  0  0  0  0  0  0  0
   57.7920   33.3330   44.3850 N   0  0  0  0  0  0  0  0  0  0  0  0
   58.0930   34.5700   45.0980 C   0  0  0  0  0  0  0  0  0  0  0  0
   59.5940   34.8680   45.0560 C   0  0  0  0  0  0  0  0  0  0  0  0
   60.2460   34.4700   46.3530 C   0  0  0  0  0  0  0  0  0  0  0  0
   59.7250   34.9280   47.5750 C   0  0  0  0  0  0  0  0  0  0  0  0
   60.3450   34.5800   48.7790 C   0  0  0  0  0  0  0  0  0  0  0  0
   61.4930   33.7800   48.7720 C   0  0  0  0  0  0  0  0  0  0  0  0
   62.0250   33.3340   47.5590 C   0  0  0  0  0  0  0  0  0  0  0  0
   61.4090   33.6820   46.3520 C   0  0  0  0  0  0  0  0  0  0  0  0
   58.1690   31.7210   46.2940 C   0  0  0  0  0  0  0  0  0  0  0  0
   57.8850   32.4210   47.4790 C   0  0  0  0  0  0  0  0  0  0  0  0
   58.5030   32.0620   48.6780 C   0  0  0  0  0  0  0  0  0  0  0  0
   59.4270   31.0110   48.7150 C   0  0  0  0  0  0  0  0  0  0  0  0
   60.0520   30.6660   49.9560 N   0  0  0  0  0  0  0  0  0  0  0  0
   61.4740   30.3870   50.1060 C   0  0  0  0  0  0  0  0  0  0  0  0
   61.8000   30.3150   51.6160 C   0  0  0  0  0  0  0  0  0  0  0  0
   60.5420   29.9410   52.4130 C   0  0  0  0  0  0  0  0  0  0  0  0
   59.1920   30.4960   51.4240 S   0  0  0  0  0  0  0  0  0  0  0  0
   58.1140   29.4490   51.3250 O   0  0  0  0  0  0  0  0  0  0  0  0
   58.6480   31.8120   51.9040 O   0  0  0  0  0  0  0  0  0  0  0  0
   59.7310   30.3070   47.5370 C   0  0  0  0  0  0  0  0  0  0  0  0
   60.6040   29.1710   47.6040 N   0  0  0  0  0  0  0  0  0  0  0  0
   60.2050   27.7940   47.6040 C   0  0  0  0  0  0  0  0  0  0  0  0
   60.5780   27.0320   48.5350 O   0  0  0  0  0  0  0  0  0  0  0  0
   59.3370   27.2750   46.5230 C   0  0  0  0  0  0  0  0  0  0  0  0
   59.5670   27.6390   45.1850 C   0  0  0  0  0  0  0  0  0  0  0  0
   58.7050   27.2030   44.1750 C   0  0  0  0  0  0  0  0  0  0  0  0
   57.6060   26.4000   44.4870 C   0  0  0  0  0  0  0  0  0  0  0  0
   57.3740   26.0110   45.8130 C   0  0  0  0  0  0  0  0  0  0  0  0
   55.9790   25.0060   46.2100 S   0  0  0  0  0  0  0  0  0  0  0  0
   55.9250   24.8150   47.7030 O   0  0  0  0  0  0  0  0  0  0  0  0
   54.7170   25.7060   45.7750 O   0  0  0  0  0  0  0  0  0  0  0  0
   56.1000   23.4420   45.4330 N   0  0  0  0  0  0  0  0  0  0  0  0
   57.3730   23.3340   44.6950 C   0  0  0  0  0  0  0  0  0  0  0  0
   57.2840   22.2490   43.6090 C   0  0  0  0  0  0  0  0  0  0  0  0
   56.2730   22.4800   42.6350 O   0  0  0  0  0  0  0  0  0  0  0  0
   55.2380   23.3450   43.0820 C   0  0  0  0  0  0  0  0  0  0  0  0
   54.9180   23.1830   44.5790 C   0  0  0  0  0  0  0  0  0  0  0  0
   58.2430   26.4400   46.8250 C   0  0  0  0  0  0  0  0  0  0  0  0
   59.0880   30.6580   46.3360 C   0  0  0  0  0  0  0  0  0  0  0  0
   57.5468   35.4004   44.6267 H   0  0  0  0  0  0  0  0  0  0  0  0
   57.7844   34.4569   46.1478 H   0  0  0  0  0  0  0  0  0  0  0  0
   60.0526   34.3023   44.2316 H   0  0  0  0  0  0  0  0  0  0  0  0
   59.7386   35.9474   44.9012 H   0  0  0  0  0  0  0  0  0  0  0  0
   58.8264   35.5624   47.5845 H   0  0  0  0  0  0  0  0  0  0  0  0
   59.9295   34.9358   49.7334 H   0  0  0  0  0  0  0  0  0  0  0  0
   61.9763   33.5024   49.7203 H   0  0  0  0  0  0  0  0  0  0  0  0
   62.9297   32.7082   47.5533 H   0  0  0  0  0  0  0  0  0  0  0  0
   61.8368   33.3374   45.3990 H   0  0  0  0  0  0  0  0  0  0  0  0
   57.1709   33.2575   47.4616 H   0  0  0  0  0  0  0  0  0  0  0  0
   58.2620   32.6093   49.6012 H   0  0  0  0  0  0  0  0  0  0  0  0
   61.7169   29.4269   49.6272 H   0  0  0  0  0  0  0  0  0  0  0  0
   62.0675   31.1804   49.6283 H   0  0  0  0  0  0  0  0  0  0  0  0
   62.5763   29.5540   51.7842 H   0  0  0  0  0  0  0  0  0  0  0  0
   62.1590   31.2987   51.9529 H   0  0  0  0  0  0  0  0  0  0  0  0
   60.4891   28.8526   52.5633 H   0  0  0  0  0  0  0  0  0  0  0  0
   60.5361   30.3982   53.4135 H   0  0  0  0  0  0  0  0  0  0  0  0
   60.4308   28.2710   44.9312 H   0  0  0  0  0  0  0  0  0  0  0  0
   58.8929   27.4934   43.1308 H   0  0  0  0  0  0  0  0  0  0  0  0
   56.9215   26.0724   43.6907 H   0  0  0  0  0  0  0  0  0  0  0  0
   57.5984   24.3008   44.2213 H   0  0  0  0  0  0  0  0  0  0  0  0
   58.1689   23.0598   45.4030 H   0  0  0  0  0  0  0  0  0  0  0  0
   58.2542   22.1967   43.0933 H   0  0  0  0  0  0  0  0  0  0  0  0
   57.0218   21.3110   44.1202 H   0  0  0  0  0  0  0  0  0  0  0  0
   55.5485   24.3847   42.9012 H   0  0  0  0  0  0  0  0  0  0  0  0
   54.3279   23.0829   42.5225 H   0  0  0  0  0  0  0  0  0  0  0  0
   54.1222   23.8923   44.8503 H   0  0  0  0  0  0  0  0  0  0  0  0
   54.6004   22.1433   44.7467 H   0  0  0  0  0  0  0  0  0  0  0  0
   58.0697   26.1223   47.8638 H   0  0  0  0  0  0  0  0  0  0  0  0
   59.3072   30.0933   45.4178 H   0  0  0  0  0  0  0  0  0  0  0  0
  1  2  2  0
  2  3  1  0
  3  4  1  0
  4  5  1  0
  5  6  1  0
  6  7  2  0
  7  8  1  0
  8  9  2  0
  9 10  1  0
 10 11  2  0
  2 12  1  0
 12 13  2  0
 13 14  1  0
 14 15  2  0
 15 16  1  0
 16 17  1  0
 17 18  1  0
 18 19  1  0
 19 20  1  0
 20 21  2  0
 20 22  2  0
 15 23  1  0
 23 24  1  0
 24 25  1  0
 25 26  2  0
 25 27  1  0
 27 28  2  0
 28 29  1  0
 29 30  2  0
 30 31  1  0
 31 32  1  0
 32 33  2  0
 32 34  2  0
 32 35  1  0
 35 36  1  0
 36 37  1  0
 37 38  1  0
 38 39  1  0
 39 40  1  0
 31 41  2  0
 23 42  2  0
 11  6  1  0
 42 12  1  0
 20 16  1  0
 41 27  1  0
 40 35  1  0
  4 43  1  0
  4 44  1  0
  5 45  1  0
  5 46  1  0
  7 47  1  0
  8 48  1  0
  9 49  1  0
 10 50  1  0
 11 51  1  0
 13 52  1  0
 14 53  1  0
 17 54  1  0
 17 55  1  0
 18 56  1  0
 18 57  1  0
 19 58  1  0
 19 59  1  0
 28 60  1  0
 29 61  1  0
 30 62  1  0
 36 63  1  0
 36 64  1  0
 37 65  1  0
 37 66  1  0
 39 67  1  0
 39 68  1  0
 40 69  1  0
 40 70  1  0
 41 71  1  0
 42 72  1  0
M  CHG  2   3  -1  24  -1
M  END
>  <UniqueID>  (14) 
14

>  <SMILES>  (14) 
O=C([N-]CCc1ccccc1)c1ccc(N2CCCS2(=O)=O)c([N-]C(=O)c2cccc(S(=O)(=O)N3CCOCC3)c2)c1

>  <Energy>  (14) 
99.79574358984839

>  <Genealogy>  (14) 
O=C([N-]CCc1ccccc1)c1ccc(N2CCCS2(=O)=O)c([N-]C(=O)c2cccc(S(=O)(=O)N3CCOCC3)c2)c1 (protonated)
O=C([N-]CCc1ccccc1)c1ccc(N2CCCS2(=O)=O)c([N-]C(=O)c2cccc(S(=O)(=O)N3CCOCC3)c2)c1 (3D coordinates assigned)
O=C([N-]CCc1ccccc1)c1ccc(N2CCCS2(=O)=O)c([N-]C(=O)c2cccc(S(=O)(=O)N3CCOCC3)c2)c1 (nonaromatic ring conformer: 99.79574358984839 kcal/mol)

>  <smiles>  (14) 
O=C(NCCc1ccccc1)c1ccc(N2CCCS2(=O)=O)c(NC(=O)c2cccc(S(=O)(=O)N3CCOCC3)c2)c1

>  <score_type>  (14) 
oracle

>  <origin>  (14) 
adg

>  <m_score__min__energy>  (14) 
-14.199999999999999

>  <m_primary>  (14) 
energy

$$$$
14:0
     RDKit          3D

 56 58  0  0  0  0  0  0  0  0999 V2000
   58.6522   31.5041   44.0445 H   0  0  0  0  0  0  0  0  0  0  0  0
   58.0470   31.1910   44.9080 C   0  0  0  0  0  0  0  0  0  0  0  0
   57.0160   31.9020   45.2450 N   0  0  0  0  0  0  0  0  0  0  0  0
   57.1090   33.2760   45.6560 C   0  0  0  0  0  0  0  0  0  0  0  0
   56.6470   34.1960   44.9280 O   0  0  0  0  0  0  0  0  0  0  0  0
   57.7510   33.6230   46.8840 N   0  0  0  0  0  0  0  0  0  0  0  0
   59.1630   33.5210   47.1130 C   0  0  0  0  0  0  0  0  0  0  0  0
   60.0340   34.2460   46.2750 C   0  0  0  0  0  0  0  0  0  0  0  0
   59.4910   35.0910   45.1510 C   0  0  0  0  0  0  0  0  0  0  0  0
   58.9409   35.9471   45.5686 H   0  0  0  0  0  0  0  0  0  0  0  0
   60.3235   35.4568   44.5321 H   0  0  0  0  0  0  0  0  0  0  0  0
   58.8124   34.4857   44.5321 H   0  0  0  0  0  0  0  0  0  0  0  0
   61.4120   34.1880   46.4930 C   0  0  0  0  0  0  0  0  0  0  0  0
   62.0918   34.7662   45.8500 H   0  0  0  0  0  0  0  0  0  0  0  0
   61.9310   33.4030   47.5190 C   0  0  0  0  0  0  0  0  0  0  0  0
   63.0196   33.3622   47.6713 H   0  0  0  0  0  0  0  0  0  0  0  0
   61.0880   32.6630   48.3620 C   0  0  0  0  0  0  0  0  0  0  0  0
   61.8220   31.6910   49.6630 S   0  0  0  0  0  0  0  0  0  0  0  0
   61.1990   32.1030   50.9690 O   0  0  0  0  0  0  0  0  0  0  0  0
   61.5500   30.2310   49.4230 O   0  0  0  0  0  0  0  0  0  0  0  0
   63.6070   31.8990   49.7750 C   0  0  0  0  0  0  0  0  0  0  0  0
   64.0573   31.5574   48.8313 H   0  0  0  0  0  0  0  0  0  0  0  0
   63.9600   33.3770   49.9800 C   0  0  0  0  0  0  0  0  0  0  0  0
   64.0122   33.5956   51.0568 H   0  0  0  0  0  0  0  0  0  0  0  0
   64.9341   33.5892   49.5151 H   0  0  0  0  0  0  0  0  0  0  0  0
   63.1869   34.0065   49.5151 H   0  0  0  0  0  0  0  0  0  0  0  0
   64.1750   31.0530   50.9190 C   0  0  0  0  0  0  0  0  0  0  0  0
   63.8793   31.4935   51.8826 H   0  0  0  0  0  0  0  0  0  0  0  0
   63.7811   30.0284   50.8479 H   0  0  0  0  0  0  0  0  0  0  0  0
   65.2725   31.0297   50.8479 H   0  0  0  0  0  0  0  0  0  0  0  0
   59.6800   32.7690   48.2010 C   0  0  0  0  0  0  0  0  0  0  0  0
   58.7350   32.1180   49.1870 C   0  0  0  0  0  0  0  0  0  0  0  0
   59.0626   32.3437   50.2126 H   0  0  0  0  0  0  0  0  0  0  0  0
   57.7182   32.5081   49.0327 H   0  0  0  0  0  0  0  0  0  0  0  0
   58.7372   31.0289   49.0327 H   0  0  0  0  0  0  0  0  0  0  0  0
   58.4330   29.9710   45.6510 C   0  0  0  0  0  0  0  0  0  0  0  0
   59.4760   30.0610   46.5790 C   0  0  0  0  0  0  0  0  0  0  0  0
   59.9666   31.0293   46.7570 H   0  0  0  0  0  0  0  0  0  0  0  0
   59.8860   28.9640   47.2600 N   0  0  0  0  0  0  0  0  0  0  0  0
   60.6650   29.0480   47.9530 H   0  0  0  0  0  0  0  0  0  0  0  0
   59.3190   27.7510   47.0320 C   0  0  0  0  0  0  0  0  0  0  0  0
   59.6718   26.8715   47.5906 H   0  0  0  0  0  0  0  0  0  0  0  0
   58.3150   27.6120   46.1160 N   0  0  0  0  0  0  0  0  0  0  0  0
   57.8060   26.2880   45.8420 C   0  0  0  0  0  0  0  0  0  0  0  0
   58.6830   25.2070   45.6300 C   0  0  0  0  0  0  0  0  0  0  0  0
   59.7704   25.3646   45.6815 H   0  0  0  0  0  0  0  0  0  0  0  0
   58.1730   23.9280   45.3530 C   0  0  0  0  0  0  0  0  0  0  0  0
   58.8621   23.0888   45.1774 H   0  0  0  0  0  0  0  0  0  0  0  0
   56.7930   23.7190   45.3000 C   0  0  0  0  0  0  0  0  0  0  0  0
   56.3969   22.7138   45.0934 H   0  0  0  0  0  0  0  0  0  0  0  0
   55.9160   24.7850   45.5090 C   0  0  0  0  0  0  0  0  0  0  0  0
   54.8296   24.6189   45.4616 H   0  0  0  0  0  0  0  0  0  0  0  0
   56.4160   26.0660   45.7790 C   0  0  0  0  0  0  0  0  0  0  0  0
   55.5440   27.0850   45.9980 F   0  0  0  0  0  0  0  0  0  0  0  0
   57.8460   28.7070   45.4350 C   0  0  0  0  0  0  0  0  0  0  0  0
   56.9090   28.5790   44.5950 O   0  0  0  0  0  0  0  0  0  0  0  0
  1  2  1  0
  2  3  2  0
  3  4  1  0
  4  5  2  0
  4  6  1  0
  6  7  1  0
  7  8  2  0
  8  9  1  0
  9 10  1  0
  9 11  1  0
  9 12  1  0
  8 13  1  0
 13 14  1  0
 13 15  2  0
 15 16  1  0
 15 17  1  0
 17 18  1  0
 18 19  2  0
 18 20  2  0
 18 21  1  0
 21 22  1  0
 21 23  1  0
 23 24  1  0
 23 25  1  0
 23 26  1  0
 21 27  1  0
 27 28  1  0
 27 29  1  0
 27 30  1  0
 17 31  2  0
 31 32  1  0
 32 33  1  0
 32 34  1  0
 32 35  1  0
  2 36  1  0
 36 37  2  0
 37 38  1  0
 37 39  1  0
 39 40  1  0
 39 41  2  0
 41 42  1  0
 41 43  1  0
 43 44  1  0
 44 45  2  0
 45 46  1  0
 45 47  1  0
 47 48  1  0
 47 49  2  0
 49 50  1  0
 49 51  1  0
 51 52  1  0
 51 53  2  0
 53 54  1  0
 43 55  1  0
 55 56  2  0
 31  7  1  0
 55 36  1  0
 53 44  1  0
M  CHG  2   6  -1  39   1
M  END
>  <UniqueID>  (15) 
15

>  <SMILES>  (15) 
Cc1ccc(S(=O)(=O)C(C)C)c(C)c1[N-]C(=O)/N=C/c1c[nH+]cn(-c2ccccc2F)c1=O

>  <Energy>  (15) 
70.96413194606598

>  <Genealogy>  (15) 
Cc1ccc(S(=O)(=O)C(C)C)c(C)c1[N-]C(=O)N=Cc1c[nH+]cn(-c2ccccc2F)c1=O (protonated)
Cc1ccc(S(=O)(=O)C(C)C)c(C)c1[N-]C(=O)/N=C/c1c[nH+]cn(-c2ccccc2F)c1=O (cis-trans isomerization)
Cc1ccc(S(=O)(=O)C(C)C)c(C)c1[N-]C(=O)/N=C/c1c[nH+]cn(-c2ccccc2F)c1=O (3D coordinates assigned)
Cc1ccc(S(=O)(=O)C(C)C)c(C)c1[N-]C(=O)/N=C/c1c[nH+]cn(-c2ccccc2F)c1=O (optimized conformer: 70.96413194606598 kcal/mol)

>  <smiles>  (15) 
Cc1ccc(S(=O)(=O)C(C)C)c(C)c1NC(=O)N=Cc1cncn(-c2ccccc2F)c1=O

>  <score_type>  (15) 
oracle

>  <origin>  (15) 
adg

>  <m_score__min__energy>  (15) 
-9.3000000000000007

>  <m_primary>  (15) 
energy

$$$$
15:0
     RDKit          3D

 48 50  0  0  0  0  0  0  0  0999 V2000
   59.7350   27.8270   48.6050 C   0  0  0  0  0  0  0  0  0  0  0  0
   59.2330   28.9080   47.9850 C   0  0  0  0  0  0  0  0  0  0  0  0
   58.7350   28.9590   46.6720 C   0  0  0  0  0  0  0  0  0  0  0  0
   58.4300   27.9760   45.8010 C   0  0  0  0  0  0  0  0  0  0  0  0
   57.2710   27.0740   45.8980 C   0  0  0  0  0  0  0  0  0  0  0  0
   57.3010   25.8410   46.4360 N   0  0  0  0  0  0  0  0  0  0  0  0
   56.0030   25.4670   46.4310 C   0  0  0  0  0  0  0  0  0  0  0  0
   55.6190   24.3450   46.8520 O   0  0  0  0  0  0  0  0  0  0  0  0
   55.1480   26.3950   45.9510 N   0  0  0  0  0  0  0  0  0  0  0  0
   55.9660   27.4110   45.6310 C   0  0  0  0  0  0  0  0  0  0  0  0
   55.5290   28.6230   45.1130 O   0  0  0  0  0  0  0  0  0  0  0  0
   58.5470   30.2970   46.3790 C   0  0  0  0  0  0  0  0  0  0  0  0
   58.8590   31.0040   47.5200 C   0  0  0  0  0  0  0  0  0  0  0  0
   58.7080   32.4900   47.6550 C   0  0  0  0  0  0  0  0  0  0  0  0
   59.2720   30.1690   48.5020 N   0  0  0  0  0  0  0  0  0  0  0  0
   59.6410   30.5820   49.8670 C   0  0  0  0  0  0  0  0  0  0  0  0
   58.4350   30.5540   50.7700 C   0  0  0  0  0  0  0  0  0  0  0  0
   58.0970   29.3850   51.4700 C   0  0  0  0  0  0  0  0  0  0  0  0
   56.9880   29.3650   52.3220 C   0  0  0  0  0  0  0  0  0  0  0  0
   56.1980   30.5160   52.4920 C   0  0  0  0  0  0  0  0  0  0  0  0
   55.0170   30.5090   53.3890 C   0  0  0  0  0  0  0  0  0  0  0  0
   55.1930   30.4610   54.6380 O   0  0  0  0  0  0  0  0  0  0  0  0
   53.6810   30.5350   52.8580 N   0  0  0  0  0  0  0  0  0  0  0  0
   52.4930   30.5870   53.7100 C   0  0  0  0  0  0  0  0  0  0  0  0
   51.2340   30.8330   52.8750 C   0  0  0  0  0  0  0  0  0  0  0  0
   51.4210   31.9770   51.9270 C   0  0  0  0  0  0  0  0  0  0  0  0
   52.2870   31.9100   51.0160 O   0  0  0  0  0  0  0  0  0  0  0  0
   50.6070   33.0980   52.0210 O   0  0  0  0  0  0  0  0  0  0  0  0
   56.5300   31.6790   51.7750 C   0  0  0  0  0  0  0  0  0  0  0  0
   57.6400   31.6980   50.9260 C   0  0  0  0  0  0  0  0  0  0  0  0
   60.0977   27.9058   49.6405 H   0  0  0  0  0  0  0  0  0  0  0  0
   59.7833   26.8631   48.0771 H   0  0  0  0  0  0  0  0  0  0  0  0
   59.1055   27.8361   44.9442 H   0  0  0  0  0  0  0  0  0  0  0  0
   58.2124   30.7168   45.4189 H   0  0  0  0  0  0  0  0  0  0  0  0
   58.6805   32.7604   48.7209 H   0  0  0  0  0  0  0  0  0  0  0  0
   59.5599   32.9905   47.1716 H   0  0  0  0  0  0  0  0  0  0  0  0
   57.7728   32.8090   47.1716 H   0  0  0  0  0  0  0  0  0  0  0  0
   60.4037   29.8936   50.2599 H   0  0  0  0  0  0  0  0  0  0  0  0
   60.0374   31.6076   49.8339 H   0  0  0  0  0  0  0  0  0  0  0  0
   58.7084   28.4788   51.3476 H   0  0  0  0  0  0  0  0  0  0  0  0
   56.7318   28.4422   52.8631 H   0  0  0  0  0  0  0  0  0  0  0  0
   53.5300   30.3610   51.8390 H   0  0  0  0  0  0  0  0  0  0  0  0
   52.3902   29.6307   54.2438 H   0  0  0  0  0  0  0  0  0  0  0  0
   52.6085   31.4149   54.4250 H   0  0  0  0  0  0  0  0  0  0  0  0
   51.0039   29.9248   52.2987 H   0  0  0  0  0  0  0  0  0  0  0  0
   50.4088   31.0816   53.5585 H   0  0  0  0  0  0  0  0  0  0  0  0
   55.9108   32.5817   51.8832 H   0  0  0  0  0  0  0  0  0  0  0  0
   57.8916   32.6170   50.3764 H   0  0  0  0  0  0  0  0  0  0  0  0
  1  2  2  0
  2  3  1  0
  3  4  2  3
  4  5  1  0
  5  6  1  0
  6  7  1  0
  7  8  2  0
  7  9  1  0
  9 10  1  0
 10 11  1  0
  3 12  1  0
 12 13  2  0
 13 14  1  0
 13 15  1  0
 15 16  1  0
 16 17  1  0
 17 18  2  0
 18 19  1  0
 19 20  2  0
 20 21  1  0
 21 22  2  0
 21 23  1  0
 23 24  1  0
 24 25  1  0
 25 26  1  0
 26 27  2  0
 26 28  1  0
 20 29  1  0
 29 30  2  0
 15  2  1  0
 30 17  1  0
 10  5  2  0
  1 31  1  0
  1 32  1  0
  4 33  1  0
 12 34  1  0
 14 35  1  0
 14 36  1  0
 14 37  1  0
 16 38  1  0
 16 39  1  0
 18 40  1  0
 19 41  1  0
 23 42  1  0
 24 43  1  0
 24 44  1  0
 25 45  1  0
 25 46  1  0
 29 47  1  0
 30 48  1  0
M  CHG  4   6  -1   9  -1  11  -1  28  -1
M  END
>  <UniqueID>  (16) 
16

>  <SMILES>  (16) 
C=c1c(=Cc2[n-]c(=O)[n-]c2[O-])cc(C)n1Cc1ccc(C(=O)NCCC(=O)[O-])cc1

>  <Energy>  (16) 
116.46384892549759

>  <Genealogy>  (16) 
C=c1c(=Cc2[n-]c(=O)[n-]c2[O-])cc(C)n1Cc1ccc(C(=O)NCCC(=O)[O-])cc1 (protonated)
C=c1c(=Cc2[n-]c(=O)[n-]c2[O-])cc(C)n1Cc1ccc(C(=O)NCCC(=O)[O-])cc1 (3D coordinates assigned)
C=c1c(=Cc2[n-]c(=O)[n-]c2[O-])cc(C)n1Cc1ccc(C(=O)NCCC(=O)[O-])cc1 (optimized conformer: 116.46384892549759 kcal/mol)

>  <smiles>  (16) 
C=c1c(=Cc2[nH]c(=O)[nH]c2O)cc(C)n1Cc1ccc(C(=O)NCCC(=O)O)cc1

>  <score_type>  (16) 
oracle

>  <origin>  (16) 
adg

>  <m_score__min__energy>  (16) 
-18.48

>  <m_primary>  (16) 
energy

$$$$
16:0
     RDKit          3D

 40 42  0  0  0  0  0  0  0  0999 V2000
   59.2500   33.6280   48.0370 C   0  0  0  0  0  0  0  0  0  0  0  0
   60.7080   33.2610   47.9040 C   0  0  0  0  0  0  0  0  0  0  0  0
   61.4620   33.8380   46.8650 C   0  0  0  0  0  0  0  0  0  0  0  0
   62.8190   33.5380   46.7180 C   0  0  0  0  0  0  0  0  0  0  0  0
   63.4410   32.6600   47.6070 C   0  0  0  0  0  0  0  0  0  0  0  0
   62.7110   32.0850   48.6500 C   0  0  0  0  0  0  0  0  0  0  0  0
   61.3460   32.3870   48.8240 C   0  0  0  0  0  0  0  0  0  0  0  0
   60.5980   31.7290   49.9580 C   0  0  0  0  0  0  0  0  0  0  0  0
   59.5780   30.3630   49.3090 S   0  0  0  0  0  0  0  0  0  0  0  0
   58.3600   30.5130   50.6090 C   0  0  0  0  0  0  0  0  0  0  0  0
   57.8190   31.6810   51.0020 N   0  0  0  0  0  0  0  0  0  0  0  0
   56.9670   31.3840   51.9700 N   0  0  0  0  0  0  0  0  0  0  0  0
   57.0260   30.0460   52.1270 C   0  0  0  0  0  0  0  0  0  0  0  0
   56.1900   29.2750   53.0960 C   0  0  0  0  0  0  0  0  0  0  0  0
   54.9160   29.9540   53.3200 N   0  0  0  0  0  0  0  0  0  0  0  0
   53.6290   29.4720   52.9040 C   0  0  0  0  0  0  0  0  0  0  0  0
   53.2310   28.3590   53.3360 O   0  0  0  0  0  0  0  0  0  0  0  0
   52.7690   30.2320   51.9800 C   0  0  0  0  0  0  0  0  0  0  0  0
   52.6130   29.8180   50.6470 C   0  0  0  0  0  0  0  0  0  0  0  0
   51.7990   30.5480   49.7730 C   0  0  0  0  0  0  0  0  0  0  0  0
   51.1430   31.7000   50.2220 C   0  0  0  0  0  0  0  0  0  0  0  0
   50.3380   32.4210   49.3460 O   0  0  0  0  0  0  0  0  0  0  0  0
   51.3040   32.1260   51.5480 C   0  0  0  0  0  0  0  0  0  0  0  0
   50.6590   33.2740   51.9960 O   0  0  0  0  0  0  0  0  0  0  0  0
   52.1210   31.3970   52.4230 C   0  0  0  0  0  0  0  0  0  0  0  0
   57.8810   29.5040   51.2940 O   0  0  0  0  0  0  0  0  0  0  0  0
   58.9844   33.6948   49.1024 H   0  0  0  0  0  0  0  0  0  0  0  0
   59.0707   34.5993   47.5528 H   0  0  0  0  0  0  0  0  0  0  0  0
   58.6323   32.8573   47.5528 H   0  0  0  0  0  0  0  0  0  0  0  0
   60.9784   34.5319   46.1617 H   0  0  0  0  0  0  0  0  0  0  0  0
   63.3973   33.9942   45.9010 H   0  0  0  0  0  0  0  0  0  0  0  0
   64.5078   32.4204   47.4861 H   0  0  0  0  0  0  0  0  0  0  0  0
   63.2071   31.3892   49.3426 H   0  0  0  0  0  0  0  0  0  0  0  0
   61.3175   31.3327   50.6896 H   0  0  0  0  0  0  0  0  0  0  0  0
   59.9475   32.4706   50.4448 H   0  0  0  0  0  0  0  0  0  0  0  0
   55.9992   28.2701   52.6912 H   0  0  0  0  0  0  0  0  0  0  0  0
   56.7284   29.2004   54.0524 H   0  0  0  0  0  0  0  0  0  0  0  0
   53.1323   28.9170   50.2886 H   0  0  0  0  0  0  0  0  0  0  0  0
   51.6747   30.2158   48.7318 H   0  0  0  0  0  0  0  0  0  0  0  0
   52.2552   31.7383   53.4601 H   0  0  0  0  0  0  0  0  0  0  0  0
  1  2  1  0
  2  3  2  0
  3  4  1  0
  4  5  2  0
  5  6  1  0
  6  7  2  0
  7  8  1  0
  8  9  1  0
  9 10  1  0
 10 11  2  0
 11 12  1  0
 12 13  2  0
 13 14  1  0
 14 15  1  0
 15 16  1  0
 16 17  2  0
 16 18  1  0
 18 19  2  0
 19 20  1  0
 20 21  2  0
 21 22  1  0
 21 23  1  0
 23 24  1  0
 23 25  2  0
 13 26  1  0
  7  2  1  0
 26 10  1  0
 25 18  1  0
  1 27  1  0
  1 28  1  0
  1 29  1  0
  3 30  1  0
  4 31  1  0
  5 32  1  0
  6 33  1  0
  8 34  1  0
  8 35  1  0
 14 36  1  0
 14 37  1  0
 19 38  1  0
 20 39  1  0
 25 40  1  0
M  CHG  3  15  -1  22  -1  24  -1
M  END
>  <UniqueID>  (17) 
17

>  <SMILES>  (17) 
Cc1ccccc1CSc1nnc(C[N-]C(=O)c2ccc([O-])c([O-])c2)o1

>  <Energy>  (17) 
76.23813455774918

>  <Genealogy>  (17) 
Cc1ccccc1CSc1nnc(C[N-]C(=O)c2ccc([O-])c([O-])c2)o1 (protonated)
Cc1ccccc1CSc1nnc(C[N-]C(=O)c2ccc([O-])c([O-])c2)o1 (3D coordinates assigned)
Cc1ccccc1CSc1nnc(C[N-]C(=O)c2ccc([O-])c([O-])c2)o1 (optimized conformer: 76.23813455774918 kcal/mol)

>  <smiles>  (17) 
Cc1ccccc1CSc1nnc(CNC(=O)c2ccc(O)c(O)c2)o1

>  <score_type>  (17) 
oracle

>  <origin>  (17) 
adg

>  <m_score__min__energy>  (17) 
-18.079999999999998

>  <m_primary>  (17) 
energy

$$$$
17:0
     RDKit          3D

 39 40  0  0  0  0  0  0  0  0999 V2000
   55.7770   23.4610   45.4190 C   0  0  0  0  0  0  0  0  0  0  0  0
   55.3980   23.6770   46.8800 C   0  0  0  0  0  0  0  0  0  0  0  0
   56.1260   24.7730   47.4360 O   0  0  0  0  0  0  0  0  0  0  0  0
   56.8660   25.7190   46.7050 C   0  0  0  0  0  0  0  0  0  0  0  0
   58.2740   25.7230   46.6740 C   0  0  0  0  0  0  0  0  0  0  0  0
   58.9620   26.6890   45.9340 C   0  0  0  0  0  0  0  0  0  0  0  0
   58.2570   27.6740   45.2260 C   0  0  0  0  0  0  0  0  0  0  0  0
   58.9960   28.6900   44.4000 C   0  0  0  0  0  0  0  0  0  0  0  0
   59.2280   29.8960   45.1960 N   0  0  0  0  0  0  0  0  0  0  0  0
   58.1370   31.1520   44.6960 S   0  0  0  0  0  0  0  0  0  0  0  0
   56.7440   30.8290   45.1650 O   0  0  0  0  0  0  0  0  0  0  0  0
   58.1250   31.2290   43.1960 O   0  0  0  0  0  0  0  0  0  0  0  0
   58.6500   32.7080   45.3480 C   0  0  0  0  0  0  0  0  0  0  0  0
   58.6180   33.8460   44.5360 C   0  0  0  0  0  0  0  0  0  0  0  0
   59.0440   35.0780   45.0360 C   0  0  0  0  0  0  0  0  0  0  0  0
   59.5090   35.1790   46.3500 C   0  0  0  0  0  0  0  0  0  0  0  0
   59.5550   34.0430   47.1780 C   0  0  0  0  0  0  0  0  0  0  0  0
   60.0540   34.1520   48.5660 C   0  0  0  0  0  0  0  0  0  0  0  0
   61.2090   34.5980   48.7990 O   0  0  0  0  0  0  0  0  0  0  0  0
   59.2550   33.7620   49.6350 O   0  0  0  0  0  0  0  0  0  0  0  0
   59.1230   32.8060   46.6650 C   0  0  0  0  0  0  0  0  0  0  0  0
   56.8550   27.6640   45.2470 C   0  0  0  0  0  0  0  0  0  0  0  0
   56.1660   26.6980   45.9870 C   0  0  0  0  0  0  0  0  0  0  0  0
   54.7750   26.7110   46.0030 O   0  0  0  0  0  0  0  0  0  0  0  0
   56.7315   22.9170   45.3644 H   0  0  0  0  0  0  0  0  0  0  0  0
   54.9917   22.8748   44.9193 H   0  0  0  0  0  0  0  0  0  0  0  0
   55.8812   24.4354   44.9193 H   0  0  0  0  0  0  0  0  0  0  0  0
   54.3207   23.8893   46.9455 H   0  0  0  0  0  0  0  0  0  0  0  0
   55.6439   22.7667   47.4464 H   0  0  0  0  0  0  0  0  0  0  0  0
   58.8355   24.9617   47.2353 H   0  0  0  0  0  0  0  0  0  0  0  0
   60.0616   26.6768   45.9066 H   0  0  0  0  0  0  0  0  0  0  0  0
   59.9616   28.2703   44.0816 H   0  0  0  0  0  0  0  0  0  0  0  0
   58.3958   28.9469   43.5147 H   0  0  0  0  0  0  0  0  0  0  0  0
   58.9990   29.6770   46.1940 H   0  0  0  0  0  0  0  0  0  0  0  0
   58.2560   33.7703   43.5000 H   0  0  0  0  0  0  0  0  0  0  0  0
   59.0136   35.9710   44.3944 H   0  0  0  0  0  0  0  0  0  0  0  0
   59.8410   36.1529   46.7391 H   0  0  0  0  0  0  0  0  0  0  0  0
   59.1564   31.9093   47.3013 H   0  0  0  0  0  0  0  0  0  0  0  0
   56.2940   28.4202   44.6782 H   0  0  0  0  0  0  0  0  0  0  0  0
  1  2  1  0
  2  3  1  0
  3  4  1  0
  4  5  2  0
  5  6  1  0
  6  7  2  0
  7  8  1  0
  8  9  1  0
  9 10  1  0
 10 11  2  0
 10 12  2  0
 10 13  1  0
 13 14  2  0
 14 15  1  0
 15 16  2  0
 16 17  1  0
 17 18  1  0
 18 19  2  0
 18 20  1  0
 17 21  2  0
  7 22  1  0
 22 23  2  0
 23 24  1  0
 23  4  1  0
 21 13  1  0
  1 25  1  0
  1 26  1  0
  1 27  1  0
  2 28  1  0
  2 29  1  0
  5 30  1  0
  6 31  1  0
  8 32  1  0
  8 33  1  0
  9 34  1  0
 14 35  1  0
 15 36  1  0
 16 37  1  0
 21 38  1  0
 22 39  1  0
M  CHG  2  20  -1  24  -1
M  END
>  <UniqueID>  (18) 
18

>  <SMILES>  (18) 
CCOc1ccc(CNS(=O)(=O)c2cccc(C(=O)[O-])c2)cc1[O-]

>  <Energy>  (18) 
35.082109865473136

>  <Genealogy>  (18) 
CCOc1ccc(CNS(=O)(=O)c2cccc(C(=O)[O-])c2)cc1[O-] (protonated)
CCOc1ccc(CNS(=O)(=O)c2cccc(C(=O)[O-])c2)cc1[O-] (3D coordinates assigned)
CCOc1ccc(CNS(=O)(=O)c2cccc(C(=O)[O-])c2)cc1[O-] (optimized conformer: 35.082109865473136 kcal/mol)

>  <smiles>  (18) 
CCOc1ccc(CNS(=O)(=O)c2cccc(C(=O)O)c2)cc1O

>  <score_type>  (18) 
oracle

>  <origin>  (18) 
adg

>  <m_score__min__energy>  (18) 
-13.26

>  <m_primary>  (18) 
energy

$$$$
18:0
     RDKit          3D

 50 54  0  0  0  0  0  0  0  0999 V2000
   58.2300   31.9060   50.4840 C   0  0  0  0  0  0  0  0  0  0  0  0
   58.8340   33.0880   49.9730 O   0  0  0  0  0  0  0  0  0  0  0  0
   60.1890   33.4260   50.1330 C   0  0  0  0  0  0  0  0  0  0  0  0
   60.9370   32.9870   51.2450 C   0  0  0  0  0  0  0  0  0  0  0  0
   62.2780   33.3510   51.3830 C   0  0  0  0  0  0  0  0  0  0  0  0
   62.8900   34.1500   50.4180 C   0  0  0  0  0  0  0  0  0  0  0  0
   62.1640   34.5890   49.3100 C   0  0  0  0  0  0  0  0  0  0  0  0
   60.8120   34.2320   49.1580 C   0  0  0  0  0  0  0  0  0  0  0  0
   60.0310   34.7590   47.9800 C   0  0  0  0  0  0  0  0  0  0  0  0
   60.7300   34.1630   46.3990 S   0  0  0  0  0  0  0  0  0  0  0  0
   60.5960   32.4260   46.8200 C   0  0  0  0  0  0  0  0  0  0  0  0
   59.6900   31.6480   46.1810 N   0  0  0  0  0  0  0  0  0  0  0  0
   59.5210   30.3290   46.4830 C   0  0  0  0  0  0  0  0  0  0  0  0
   60.3210   29.7590   47.5000 C   0  0  0  0  0  0  0  0  0  0  0  0
   61.2720   30.5880   48.1420 C   0  0  0  0  0  0  0  0  0  0  0  0
   62.0180   30.1380   49.0550 O   0  0  0  0  0  0  0  0  0  0  0  0
   61.3860   31.8940   47.7860 N   0  0  0  0  0  0  0  0  0  0  0  0
   60.1520   28.4020   47.8150 C   0  0  0  0  0  0  0  0  0  0  0  0
   60.9140   27.8400   48.6510 O   0  0  0  0  0  0  0  0  0  0  0  0
   59.1020   27.6820   47.2310 C   0  0  0  0  0  0  0  0  0  0  0  0
   58.8440   26.3580   47.6330 C   0  0  0  0  0  0  0  0  0  0  0  0
   57.7090   25.6900   47.1900 C   0  0  0  0  0  0  0  0  0  0  0  0
   56.7770   26.3480   46.3820 C   0  0  0  0  0  0  0  0  0  0  0  0
   55.5160   25.6750   45.9920 C   0  0  0  0  0  0  0  0  0  0  0  0
   54.4280   26.3110   45.9780 O   0  0  0  0  0  0  0  0  0  0  0  0
   55.5120   24.3300   45.6420 O   0  0  0  0  0  0  0  0  0  0  0  0
   57.0420   27.6620   45.9620 C   0  0  0  0  0  0  0  0  0  0  0  0
   58.2610   28.3150   46.2730 C   0  0  0  0  0  0  0  0  0  0  0  0
   58.6050   29.5720   45.7820 N   0  0  0  0  0  0  0  0  0  0  0  0
   58.2780   30.1290   44.4280 C   0  0  0  0  0  0  0  0  0  0  0  0
   57.2300   31.2270   44.4170 C   0  0  0  0  0  0  0  0  0  0  0  0
   56.9480   29.8880   43.7270 C   0  0  0  0  0  0  0  0  0  0  0  0
   58.2438   31.9331   51.5836 H   0  0  0  0  0  0  0  0  0  0  0  0
   57.1897   31.8441   50.1318 H   0  0  0  0  0  0  0  0  0  0  0  0
   58.7893   31.0267   50.1318 H   0  0  0  0  0  0  0  0  0  0  0  0
   60.4611   32.3539   52.0084 H   0  0  0  0  0  0  0  0  0  0  0  0
   62.8530   33.0066   52.2552 H   0  0  0  0  0  0  0  0  0  0  0  0
   63.9466   34.4347   50.5302 H   0  0  0  0  0  0  0  0  0  0  0  0
   62.6520   35.2180   48.5509 H   0  0  0  0  0  0  0  0  0  0  0  0
   58.9878   34.4197   48.0611 H   0  0  0  0  0  0  0  0  0  0  0  0
   60.0850   35.8576   47.9912 H   0  0  0  0  0  0  0  0  0  0  0  0
   62.0830   32.5030   48.2720 H   0  0  0  0  0  0  0  0  0  0  0  0
   59.5486   25.8465   48.3052 H   0  0  0  0  0  0  0  0  0  0  0  0
   57.5434   24.6408   47.4758 H   0  0  0  0  0  0  0  0  0  0  0  0
   56.2822   28.1992   45.3753 H   0  0  0  0  0  0  0  0  0  0  0  0
   59.3150   29.9797   44.0929 H   0  0  0  0  0  0  0  0  0  0  0  0
   56.6997   31.4909   45.3439 H   0  0  0  0  0  0  0  0  0  0  0  0
   57.2111   32.2821   44.1063 H   0  0  0  0  0  0  0  0  0  0  0  0
   56.2163   29.1890   44.1584 H   0  0  0  0  0  0  0  0  0  0  0  0
   56.6435   29.5802   42.7158 H   0  0  0  0  0  0  0  0  0  0  0  0
  1  2  1  0
  2  3  1  0
  3  4  2  0
  4  5  1  0
  5  6  2  0
  6  7  1  0
  7  8  2  0
  8  9  1  0
  9 10  1  0
 10 11  1  0
 11 12  2  0
 12 13  1  0
 13 14  2  0
 14 15  1  0
 15 16  2  0
 15 17  1  0
 14 18  1  0
 18 19  2  0
 18 20  1  0
 20 21  2  0
 21 22  1  0
 22 23  2  0
 23 24  1  0
 24 25  2  0
 24 26  1  0
 23 27  1  0
 27 28  2  0
 28 29  1  0
 29 30  1  0
 30 31  1  0
 31 32  1  0
  8  3  1  0
 17 11  1  0
 28 20  1  0
 32 30  1  0
 29 13  1  0
  1 33  1  0
  1 34  1  0
  1 35  1  0
  4 36  1  0
  5 37  1  0
  6 38  1  0
  7 39  1  0
  9 40  1  0
  9 41  1  0
 17 42  1  0
 21 43  1  0
 22 44  1  0
 27 45  1  0
 30 46  1  0
 31 47  1  0
 31 48  1  0
 32 49  1  0
 32 50  1  0
M  CHG  1  26  -1
M  END
>  <UniqueID>  (19) 
19

>  <SMILES>  (19) 
COc1ccccc1CSc1nc2c(c(=O)[nH]1)c(=O)c1ccc(C(=O)[O-])cc1n2C1CC1

>  <Energy>  (19) 
359.6533460943325

>  <Genealogy>  (19) 
COc1ccccc1CSc1nc2c(c(=O)[nH]1)c(=O)c1ccc(C(=O)[O-])cc1n2C1CC1 (protonated)
COc1ccccc1CSc1nc2c(c(=O)[nH]1)c(=O)c1ccc(C(=O)[O-])cc1n2C1CC1 (3D coordinates assigned)
COc1ccccc1CSc1nc2c(c(=O)[nH]1)c(=O)c1ccc(C(=O)[O-])cc1n2C1CC1 (nonaromatic ring conformer: 359.6533460943325 kcal/mol)

>  <smiles>  (19) 
COc1ccccc1CSc1nc2c(c(=O)[nH]1)c(=O)c1ccc(C(=O)O)cc1n2C1CC1

>  <score_type>  (19) 
oracle

>  <origin>  (19) 
adg

>  <m_score__min__energy>  (19) 
-10.369999999999999

>  <m_primary>  (19) 
energy

$$$$
19:0
     RDKit          3D

 50 53  0  0  0  0  0  0  0  0999 V2000
   60.6450   30.0010   46.5690 C   0  0  0  0  0  0  0  0  0  0  0  0
   59.7430   29.0490   45.8370 C   0  0  0  0  0  0  0  0  0  0  0  0
   59.6950   29.0520   44.5010 C   0  0  0  0  0  0  0  0  0  0  0  0
   58.7040   28.1560   43.8110 C   0  0  0  0  0  0  0  0  0  0  0  0
   57.3770   28.1980   44.4740 N   0  0  2  0  0  0  0  0  0  0  0  0
   56.4560   29.5930   43.9430 S   0  0  0  0  0  0  0  0  0  0  0  0
   55.9810   29.3890   42.5320 O   0  0  0  0  0  0  0  0  0  0  0  0
   55.2480   29.7540   44.8250 O   0  0  0  0  0  0  0  0  0  0  0  0
   57.4100   31.0660   44.0190 C   0  0  0  0  0  0  0  0  0  0  0  0
   57.7630   31.8720   42.9580 C   0  0  0  0  0  0  0  0  0  0  0  0
   58.4230   32.9130   43.4110 O   0  0  0  0  0  0  0  0  0  0  0  0
   58.5140   32.8200   44.7200 C   0  0  0  0  0  0  0  0  0  0  0  0
   59.1470   33.8380   45.5710 C   0  0  0  0  0  0  0  0  0  0  0  0
   59.2500   35.0200   45.1480 O   0  0  0  0  0  0  0  0  0  0  0  0
   59.5820   33.5190   46.9030 N   0  0  0  0  0  0  0  0  0  0  0  0
   58.5650   33.3390   47.9430 C   0  0  0  0  0  0  0  0  0  0  0  0
   58.9240   32.1350   48.8130 C   0  0  0  0  0  0  0  0  0  0  0  0
   60.2990   32.3330   49.4590 C   0  0  0  0  0  0  0  0  0  0  0  0
   61.3480   32.7510   48.4560 C   0  0  0  0  0  0  0  0  0  0  0  0
   62.7060   32.5980   48.7810 C   0  0  0  0  0  0  0  0  0  0  0  0
   63.6960   33.0400   47.9010 C   0  0  0  0  0  0  0  0  0  0  0  0
   63.3410   33.6550   46.7010 C   0  0  0  0  0  0  0  0  0  0  0  0
   61.9950   33.8270   46.3720 C   0  0  0  0  0  0  0  0  0  0  0  0
   60.9830   33.3710   47.2390 C   0  0  0  0  0  0  0  0  0  0  0  0
   57.8970   31.6620   45.1580 C   0  0  0  0  0  0  0  0  0  0  0  0
   57.4180   28.1230   45.9690 C   0  0  0  0  0  0  0  0  0  0  0  0
   58.8400   28.0910   46.5700 C   0  0  0  0  0  0  0  0  0  0  0  0
   60.5176   29.8665   47.6533 H   0  0  0  0  0  0  0  0  0  0  0  0
   61.6910   29.7991   46.2949 H   0  0  0  0  0  0  0  0  0  0  0  0
   60.3871   31.0346   46.2949 H   0  0  0  0  0  0  0  0  0  0  0  0
   60.3677   29.6977   43.9175 H   0  0  0  0  0  0  0  0  0  0  0  0
   58.5922   28.4842   42.7671 H   0  0  0  0  0  0  0  0  0  0  0  0
   59.0808   27.1237   43.8596 H   0  0  0  0  0  0  0  0  0  0  0  0
   56.8440   27.3650   44.1290 H   0  0  0  0  0  0  0  0  0  0  0  0
   57.5293   31.6748   41.9013 H   0  0  0  0  0  0  0  0  0  0  0  0
   58.5192   34.2420   48.5696 H   0  0  0  0  0  0  0  0  0  0  0  0
   57.5870   33.1672   47.4697 H   0  0  0  0  0  0  0  0  0  0  0  0
   58.1663   32.0193   49.6020 H   0  0  0  0  0  0  0  0  0  0  0  0
   58.9531   31.2348   48.1815 H   0  0  0  0  0  0  0  0  0  0  0  0
   60.2181   33.1117   50.2317 H   0  0  0  0  0  0  0  0  0  0  0  0
   60.6102   31.3702   49.8904 H   0  0  0  0  0  0  0  0  0  0  0  0
   62.9910   32.1276   49.7336 H   0  0  0  0  0  0  0  0  0  0  0  0
   64.7575   32.9028   48.1548 H   0  0  0  0  0  0  0  0  0  0  0  0
   64.1233   34.0056   46.0118 H   0  0  0  0  0  0  0  0  0  0  0  0
   61.7228   34.3225   45.4284 H   0  0  0  0  0  0  0  0  0  0  0  0
   57.8141   31.2974   46.1925 H   0  0  0  0  0  0  0  0  0  0  0  0
   56.8946   29.0028   46.3716 H   0  0  0  0  0  0  0  0  0  0  0  0
   56.9392   27.1727   46.2477 H   0  0  0  0  0  0  0  0  0  0  0  0
   58.7915   28.3785   47.6307 H   0  0  0  0  0  0  0  0  0  0  0  0
   59.2455   27.0732   46.4718 H   0  0  0  0  0  0  0  0  0  0  0  0
  1  2  1  0
  2  3  2  0
  3  4  1  0
  4  5  1  0
  5  6  1  0
  6  7  2  0
  6  8  2  0
  6  9  1  0
  9 10  2  0
 10 11  1  0
 11 12  1  0
 12 13  1  0
 13 14  2  0
 13 15  1  0
 15 16  1  0
 16 17  1  0
 17 18  1  0
 18 19  1  0
 19 20  2  0
 20 21  1  0
 21 22  2  0
 22 23  1  0
 23 24  2  0
 12 25  2  0
  5 26  1  0
 26 27  1  0
 27  2  1  0
 25  9  1  0
 24 15  1  0
 24 19  1  0
  1 28  1  0
  1 29  1  0
  1 30  1  0
  3 31  1  0
  4 32  1  0
  4 33  1  0
  5 34  1  6
 10 35  1  0
 16 36  1  0
 16 37  1  0
 17 38  1  0
 17 39  1  0
 18 40  1  0
 18 41  1  0
 20 42  1  0
 21 43  1  0
 22 44  1  0
 23 45  1  0
 25 46  1  0
 26 47  1  0
 26 48  1  0
 27 49  1  0
 27 50  1  0
M  CHG  1   5   1
M  END
>  <UniqueID>  (20) 
20

>  <SMILES>  (20) 
CC1=CC[N@H+](S(=O)(=O)c2coc(C(=O)N3CCCc4ccccc43)c2)CC1

>  <Energy>  (20) 
85.95479400265461

>  <Genealogy>  (20) 
CC1=CC[NH+](S(=O)(=O)c2coc(C(=O)N3CCCc4ccccc43)c2)CC1 (protonated)
CC1=CC[N@H+](S(=O)(=O)c2coc(C(=O)N3CCCc4ccccc43)c2)CC1 (chirality)
CC1=CC[N@H+](S(=O)(=O)c2coc(C(=O)N3CCCc4ccccc43)c2)CC1 (3D coordinates assigned)
CC1=CC[N@H+](S(=O)(=O)c2coc(C(=O)N3CCCc4ccccc43)c2)CC1 (nonaromatic ring conformer: 85.95479400265461 kcal/mol)

>  <smiles>  (20) 
CC1=CCN(S(=O)(=O)c2coc(C(=O)N3CCCc4ccccc43)c2)CC1

>  <score_type>  (20) 
oracle

>  <origin>  (20) 
adg

>  <m_score__min__energy>  (20) 
-8.4000000000000004

>  <m_primary>  (20) 
energy

$$$$
20:0
     RDKit          3D

 74 77  0  0  0  0  0  0  0  0999 V2000
   57.8800   31.4170   51.8780 C   0  0  0  0  0  0  0  0  0  0  0  0
   58.5310   30.2030   51.2140 C   0  0  0  0  0  0  0  0  0  0  0  0
   60.0690   30.1860   51.3900 C   0  0  2  0  0  0  0  0  0  0  0  0
   60.6310   31.5390   51.4840 N   0  0  0  0  0  0  0  0  0  0  0  0
   60.7230   29.4600   50.2430 C   0  0  0  0  0  0  0  0  0  0  0  0
   61.9820   29.4340   50.1540 O   0  0  0  0  0  0  0  0  0  0  0  0
   59.9130   28.6950   49.3390 N   0  0  0  0  0  0  0  0  0  0  0  0
   59.6070   29.0240   47.9780 C   0  0  0  0  0  0  0  0  0  0  0  0
   60.5470   29.7490   47.2380 C   0  0  0  0  0  0  0  0  0  0  0  0
   60.3050   30.0540   45.8970 C   0  0  0  0  0  0  0  0  0  0  0  0
   59.1440   29.5920   45.2710 C   0  0  0  0  0  0  0  0  0  0  0  0
   58.2000   28.8410   45.9900 C   0  0  0  0  0  0  0  0  0  0  0  0
   57.0230   28.2620   45.3130 C   0  0  0  0  0  0  0  0  0  0  0  0
   57.0780   27.1080   44.8200 O   0  0  0  0  0  0  0  0  0  0  0  0
   55.8030   28.9970   45.2460 N   0  0  0  0  0  0  0  0  0  0  0  0
   55.4100   29.7180   44.0350 C   0  0  0  0  0  0  0  0  0  0  0  0
   56.4200   30.7890   43.7210 C   0  0  0  0  0  0  0  0  0  0  0  0
   56.9780   30.8760   42.4300 C   0  0  0  0  0  0  0  0  0  0  0  0
   57.8810   31.8910   42.1160 C   0  0  0  0  0  0  0  0  0  0  0  0
   58.2500   32.8270   43.0850 C   0  0  0  0  0  0  0  0  0  0  0  0
   57.7010   32.7640   44.3820 C   0  0  0  0  0  0  0  0  0  0  0  0
   58.1220   33.7370   45.4190 C   0  0  0  0  0  0  0  0  0  0  0  0
   58.3150   34.9450   45.1100 O   0  0  0  0  0  0  0  0  0  0  0  0
   58.2550   33.3240   46.7870 N   0  0  0  0  0  0  0  0  0  0  0  0
   59.1480   33.9910   47.7310 C   0  0  2  0  0  0  0  0  0  0  0  0
   60.5480   34.1900   47.1090 C   0  0  0  0  0  0  0  0  0  0  0  0
   61.6800   33.6660   47.9690 C   0  0  0  0  0  0  0  0  0  0  0  0
   62.3330   32.4630   47.6450 C   0  0  0  0  0  0  0  0  0  0  0  0
   63.3640   31.9830   48.4580 C   0  0  0  0  0  0  0  0  0  0  0  0
   63.7640   32.7020   49.5980 C   0  0  0  0  0  0  0  0  0  0  0  0
   64.8680   32.2090   50.4430 C   0  0  0  0  0  0  0  0  0  0  0  0
   66.1880   32.5780   50.1180 C   0  0  0  0  0  0  0  0  0  0  0  0
   67.2550   32.1420   50.9080 C   0  0  0  0  0  0  0  0  0  0  0  0
   67.0160   31.3220   52.0180 C   0  0  0  0  0  0  0  0  0  0  0  0
   65.7090   30.9270   52.3350 C   0  0  0  0  0  0  0  0  0  0  0  0
   64.6300   31.3580   51.5510 C   0  0  0  0  0  0  0  0  0  0  0  0
   63.3480   30.9010   51.8740 O   0  0  0  0  0  0  0  0  0  0  0  0
   63.0920   33.8830   49.9400 C   0  0  0  0  0  0  0  0  0  0  0  0
   62.0620   34.3670   49.1280 C   0  0  0  0  0  0  0  0  0  0  0  0
   59.1870   33.2210   49.0210 C   0  0  0  0  0  0  0  0  0  0  0  0
   59.0540   31.9690   49.0300 O   0  0  0  0  0  0  0  0  0  0  0  0
   59.3180   33.9050   50.2300 O   0  0  0  0  0  0  0  0  0  0  0  0
   56.7800   31.7450   44.6920 C   0  0  0  0  0  0  0  0  0  0  0  0
   58.4310   28.5680   47.3500 C   0  0  0  0  0  0  0  0  0  0  0  0
   57.9367   31.3112   52.9714 H   0  0  0  0  0  0  0  0  0  0  0  0
   58.4090   32.3310   51.5701 H   0  0  0  0  0  0  0  0  0  0  0  0
   56.8260   31.4821   51.5701 H   0  0  0  0  0  0  0  0  0  0  0  0
   58.1142   29.2894   51.6630 H   0  0  0  0  0  0  0  0  0  0  0  0
   58.3181   30.2568   50.1361 H   0  0  0  0  0  0  0  0  0  0  0  0
   60.2747   29.6610   52.3345 H   0  0  0  0  0  0  0  0  0  0  0  0
   61.5690   31.5680   51.0240 H   0  0  0  0  0  0  0  0  0  0  0  0
   60.0060   32.2060   50.9740 H   0  0  0  0  0  0  0  0  0  0  0  0
   61.4813   30.0804   47.7148 H   0  0  0  0  0  0  0  0  0  0  0  0
   61.0295   30.6591   45.3322 H   0  0  0  0  0  0  0  0  0  0  0  0
   58.9686   29.8180   44.2088 H   0  0  0  0  0  0  0  0  0  0  0  0
   55.3542   29.0122   43.1931 H   0  0  0  0  0  0  0  0  0  0  0  0
   54.4275   30.1854   44.1967 H   0  0  0  0  0  0  0  0  0  0  0  0
   56.6991   30.1375   41.6640 H   0  0  0  0  0  0  0  0  0  0  0  0
   58.3039   31.9548   41.1026 H   0  0  0  0  0  0  0  0  0  0  0  0
   58.9728   33.6175   42.8347 H   0  0  0  0  0  0  0  0  0  0  0  0
   58.7641   34.9963   47.9590 H   0  0  0  0  0  0  0  0  0  0  0  0
   60.5756   33.6657   46.1424 H   0  0  0  0  0  0  0  0  0  0  0  0
   60.7007   35.2743   47.0047 H   0  0  0  0  0  0  0  0  0  0  0  0
   62.0318   31.8988   46.7501 H   0  0  0  0  0  0  0  0  0  0  0  0
   63.8652   31.0373   48.2043 H   0  0  0  0  0  0  0  0  0  0  0  0
   66.3795   33.2115   49.2394 H   0  0  0  0  0  0  0  0  0  0  0  0
   68.2831   32.4429   50.6580 H   0  0  0  0  0  0  0  0  0  0  0  0
   67.8568   30.9868   52.6431 H   0  0  0  0  0  0  0  0  0  0  0  0
   65.5293   30.2757   53.2031 H   0  0  0  0  0  0  0  0  0  0  0  0
   62.6230   30.7500   51.1810 H   0  0  0  0  0  0  0  0  0  0  0  0
   63.3758   34.4312   50.8505 H   0  0  0  0  0  0  0  0  0  0  0  0
   61.5471   35.3012   49.3966 H   0  0  0  0  0  0  0  0  0  0  0  0
   56.3387   31.6948   45.6984 H   0  0  0  0  0  0  0  0  0  0  0  0
   57.6896   27.9954   47.9266 H   0  0  0  0  0  0  0  0  0  0  0  0
  1  2  1  0
  2  3  1  0
  3  4  1  0
  3  5  1  0
  5  6  2  0
  5  7  1  0
  7  8  1  0
  8  9  2  0
  9 10  1  0
 10 11  2  0
 11 12  1  0
 12 13  1  0
 13 14  2  0
 13 15  1  0
 15 16  1  0
 16 17  1  0
 17 18  2  0
 18 19  1  0
 19 20  2  0
 20 21  1  0
 21 22  1  0
 22 23  2  0
 22 24  1  0
 24 25  1  0
 25 26  1  0
 26 27  1  0
 27 28  2  0
 28 29  1  0
 29 30  2  0
 30 31  1  0
 31 32  2  0
 32 33  1  0
 33 34  2  0
 34 35  1  0
 35 36  2  0
 36 37  1  0
 30 38  1  0
 38 39  2  0
 25 40  1  0
 40 41  2  0
 40 42  1  0
 21 43  2  0
 12 44  2  0
 44  8  1  0
 43 17  1  0
 39 27  1  0
 36 31  1  0
  1 45  1  0
  1 46  1  0
  1 47  1  0
  2 48  1  0
  2 49  1  0
  3 50  1  1
  4 51  1  0
  4 52  1  0
  9 53  1  0
 10 54  1  0
 11 55  1  0
 16 56  1  0
 16 57  1  0
 18 58  1  0
 19 59  1  0
 20 60  1  0
 25 61  1  1
 26 62  1  0
 26 63  1  0
 28 64  1  0
 29 65  1  0
 32 66  1  0
 33 67  1  0
 34 68  1  0
 35 69  1  0
 37 70  1  0
 38 71  1  0
 39 72  1  0
 43 73  1  0
 44 74  1  0
M  CHG  4   7  -1  15  -1  24  -1  42  -1
M  END
>  <UniqueID>  (21) 
21

>  <SMILES>  (21) 
CC[C@H](N)C(=O)[N-]c1cccc(C(=O)[N-]Cc2cccc(C(=O)[N-][C@H](Cc3ccc(-c4ccccc4O)cc3)C(=O)[O-])c2)c1

>  <Energy>  (21) 
80.39787015361374

>  <Genealogy>  (21) 
CCC(N)C(=O)[N-]c1cccc(C(=O)[N-]Cc2cccc(C(=O)[N-]C(Cc3ccc(-c4ccccc4O)cc3)C(=O)[O-])c2)c1 (protonated)
CC[C@H](N)C(=O)[N-]c1cccc(C(=O)[N-]Cc2cccc(C(=O)[N-][C@H](Cc3ccc(-c4ccccc4O)cc3)C(=O)[O-])c2)c1 (chirality)
CC[C@H](N)C(=O)[N-]c1cccc(C(=O)[N-]Cc2cccc(C(=O)[N-][C@H](Cc3ccc(-c4ccccc4O)cc3)C(=O)[O-])c2)c1 (3D coordinates assigned)
CC[C@H](N)C(=O)[N-]c1cccc(C(=O)[N-]Cc2cccc(C(=O)[N-][C@H](Cc3ccc(-c4ccccc4O)cc3)C(=O)[O-])c2)c1 (optimized conformer: 80.39787015361374 kcal/mol)

>  <smiles>  (21) 
CCC(N)C(=O)Nc1cccc(C(=O)NCc2cccc(C(=O)NC(Cc3ccc(-c4ccccc4O)cc3)C(=O)O)c2)c1

>  <score_type>  (21) 
oracle

>  <origin>  (21) 
adg

>  <m_score__min__energy>  (21) 
-17.34

>  <m_primary>  (21) 
energy

$$$$
21:0
     RDKit          3D

 61 62  0  0  0  0  0  0  0  0999 V2000
   57.3840   34.0120   44.8460 C   0  0  0  0  0  0  0  0  0  0  0  0
   58.4110   33.6900   45.8990 C   0  0  0  0  0  0  0  0  0  0  0  0
   58.9030   34.7310   46.7060 C   0  0  0  0  0  0  0  0  0  0  0  0
   59.8470   34.4770   47.6990 C   0  0  0  0  0  0  0  0  0  0  0  0
   60.3380   33.1880   47.8800 C   0  0  0  0  0  0  0  0  0  0  0  0
   59.8810   32.1460   47.0740 C   0  0  0  0  0  0  0  0  0  0  0  0
   58.8930   32.3700   46.0960 C   0  0  0  0  0  0  0  0  0  0  0  0
   58.4560   31.2160   45.2150 C   0  0  0  0  0  0  0  0  0  0  0  0
   56.9890   31.1350   45.1190 N   0  0  0  0  0  0  0  0  0  0  0  0
   56.5120   30.8250   43.7600 C   0  0  0  0  0  0  0  0  0  0  0  0
   55.4290   29.7420   43.7750 C   0  0  0  0  0  0  0  0  0  0  0  0
   55.5500   28.9150   44.9670 N   0  0  0  0  0  0  0  0  0  0  0  0
   56.6730   28.0590   45.1980 C   0  0  0  0  0  0  0  0  0  0  0  0
   57.6620   28.0830   44.4160 O   0  0  0  0  0  0  0  0  0  0  0  0
   56.6380   27.0820   46.3390 C   0  0  2  0  0  0  0  0  0  0  0  0
   58.0160   26.4350   46.5430 C   0  0  0  0  0  0  0  0  0  0  0  0
   58.8630   27.2560   47.4810 C   0  0  0  0  0  0  0  0  0  0  0  0
   58.5210   28.5930   47.7540 C   0  0  0  0  0  0  0  0  0  0  0  0
   59.2780   29.3420   48.6570 C   0  0  0  0  0  0  0  0  0  0  0  0
   60.3730   28.7620   49.3050 C   0  0  0  0  0  0  0  0  0  0  0  0
   60.7140   27.4310   49.0460 C   0  0  0  0  0  0  0  0  0  0  0  0
   59.9620   26.6780   48.1410 C   0  0  0  0  0  0  0  0  0  0  0  0
   55.6460   26.0440   46.0670 N   0  0  0  0  0  0  0  0  0  0  0  0
   55.8600   24.6520   46.3130 C   0  0  0  0  0  0  0  0  0  0  0  0
   55.1990   24.0600   47.2090 O   0  0  0  0  0  0  0  0  0  0  0  0
   56.7960   23.9650   45.5280 O   0  0  0  0  0  0  0  0  0  0  0  0
   56.6910   23.6900   44.1240 C   0  0  0  0  0  0  0  0  0  0  0  0
   57.4180   22.3810   43.7680 C   0  0  0  0  0  0  0  0  0  0  0  0
   55.2130   23.6240   43.6980 C   0  0  0  0  0  0  0  0  0  0  0  0
   57.3690   24.8500   43.3810 C   0  0  0  0  0  0  0  0  0  0  0  0
   56.4419   34.3074   45.3309 H   0  0  0  0  0  0  0  0  0  0  0  0
   57.7486   34.8389   44.2189 H   0  0  0  0  0  0  0  0  0  0  0  0
   57.2112   33.1249   44.2189 H   0  0  0  0  0  0  0  0  0  0  0  0
   58.5386   35.7574   46.5517 H   0  0  0  0  0  0  0  0  0  0  0  0
   60.2042   35.2963   48.3402 H   0  0  0  0  0  0  0  0  0  0  0  0
   61.0879   32.9905   48.6602 H   0  0  0  0  0  0  0  0  0  0  0  0
   60.2976   31.1362   47.2038 H   0  0  0  0  0  0  0  0  0  0  0  0
   58.8727   31.3583   44.2070 H   0  0  0  0  0  0  0  0  0  0  0  0
   58.8244   30.2814   45.6631 H   0  0  0  0  0  0  0  0  0  0  0  0
   56.6800   30.3510   45.7410 H   0  0  0  0  0  0  0  0  0  0  0  0
   56.0965   31.7390   43.3106 H   0  0  0  0  0  0  0  0  0  0  0  0
   57.3642   30.4508   43.1737 H   0  0  0  0  0  0  0  0  0  0  0  0
   54.4386   30.2206   43.7657 H   0  0  0  0  0  0  0  0  0  0  0  0
   55.5513   29.1049   42.8866 H   0  0  0  0  0  0  0  0  0  0  0  0
   56.3654   27.6251   47.2559 H   0  0  0  0  0  0  0  0  0  0  0  0
   57.8820   25.4286   46.9664 H   0  0  0  0  0  0  0  0  0  0  0  0
   58.5247   26.3781   45.5694 H   0  0  0  0  0  0  0  0  0  0  0  0
   57.6541   29.0500   47.2543 H   0  0  0  0  0  0  0  0  0  0  0  0
   59.0125   30.3902   48.8590 H   0  0  0  0  0  0  0  0  0  0  0  0
   60.9661   29.3529   50.0185 H   0  0  0  0  0  0  0  0  0  0  0  0
   61.5760   26.9759   49.5558 H   0  0  0  0  0  0  0  0  0  0  0  0
   60.2304   25.6296   47.9440 H   0  0  0  0  0  0  0  0  0  0  0  0
   57.7077   21.8594   44.6922 H   0  0  0  0  0  0  0  0  0  0  0  0
   56.7478   21.7379   43.1787 H   0  0  0  0  0  0  0  0  0  0  0  0
   58.3181   22.6101   43.1787 H   0  0  0  0  0  0  0  0  0  0  0  0
   54.5743   23.5955   44.5931 H   0  0  0  0  0  0  0  0  0  0  0  0
   54.9643   24.5119   43.0982 H   0  0  0  0  0  0  0  0  0  0  0  0
   55.0444   22.7174   43.0982 H   0  0  0  0  0  0  0  0  0  0  0  0
   57.7842   25.5603   44.1111 H   0  0  0  0  0  0  0  0  0  0  0  0
   58.1797   24.4572   42.7498 H   0  0  0  0  0  0  0  0  0  0  0  0
   56.6289   25.3636   42.7498 H   0  0  0  0  0  0  0  0  0  0  0  0
  1  2  1  0
  2  3  2  0
  3  4  1  0
  4  5  2  0
  5  6  1  0
  6  7  2  0
  7  8  1  0
  8  9  1  0
  9 10  1  0
 10 11  1  0
 11 12  1  0
 12 13  1  0
 13 14  2  0
 13 15  1  0
 15 16  1  0
 16 17  1  0
 17 18  2  0
 18 19  1  0
 19 20  2  0
 20 21  1  0
 21 22  2  0
 15 23  1  0
 23 24  1  0
 24 25  2  0
 24 26  1  0
 26 27  1  0
 27 28  1  0
 27 29  1  0
 27 30  1  0
  7  2  1  0
 22 17  1  0
  1 31  1  0
  1 32  1  0
  1 33  1  0
  3 34  1  0
  4 35  1  0
  5 36  1  0
  6 37  1  0
  8 38  1  0
  8 39  1  0
  9 40  1  0
 10 41  1  0
 10 42  1  0
 11 43  1  0
 11 44  1  0
 15 45  1  1
 16 46  1  0
 16 47  1  0
 18 48  1  0
 19 49  1  0
 20 50  1  0
 21 51  1  0
 22 52  1  0
 28 53  1  0
 28 54  1  0
 28 55  1  0
 29 56  1  0
 29 57  1  0
 29 58  1  0
 30 59  1  0
 30 60  1  0
 30 61  1  0
M  CHG  2  12  -1  23  -1
M  END
>  <UniqueID>  (22) 
22

>  <SMILES>  (22) 
Cc1ccccc1CNCC[N-]C(=O)[C@H](Cc1ccccc1)[N-]C(=O)OC(C)(C)C

>  <Energy>  (22) 
46.920901372931006

>  <Genealogy>  (22) 
Cc1ccccc1CNCC[N-]C(=O)C(Cc1ccccc1)[N-]C(=O)OC(C)(C)C (protonated)
Cc1ccccc1CNCC[N-]C(=O)[C@H](Cc1ccccc1)[N-]C(=O)OC(C)(C)C (chirality)
Cc1ccccc1CNCC[N-]C(=O)[C@H](Cc1ccccc1)[N-]C(=O)OC(C)(C)C (3D coordinates assigned)
Cc1ccccc1CNCC[N-]C(=O)[C@H](Cc1ccccc1)[N-]C(=O)OC(C)(C)C (optimized conformer: 46.920901372931006 kcal/mol)

>  <smiles>  (22) 
Cc1ccccc1CNCCNC(=O)C(Cc1ccccc1)NC(=O)OC(C)(C)C

>  <score_type>  (22) 
oracle

>  <origin>  (22) 
adg

>  <m_score__min__energy>  (22) 
-12.449999999999999

>  <m_primary>  (22) 
energy

$$$$
22:0
     RDKit          3D

 50 52  0  0  0  0  0  0  0  0999 V2000
   60.1740   33.4480   51.0310 C   0  0  0  0  0  0  0  0  0  0  0  0
   61.5860   33.3430   50.8870 O   0  0  0  0  0  0  0  0  0  0  0  0
   62.2470   33.1390   49.6640 C   0  0  0  0  0  0  0  0  0  0  0  0
   62.7260   34.2150   48.8900 C   0  0  0  0  0  0  0  0  0  0  0  0
   63.3930   33.9790   47.6850 C   0  0  0  0  0  0  0  0  0  0  0  0
   63.5860   32.6730   47.2370 C   0  0  0  0  0  0  0  0  0  0  0  0
   63.1170   31.5960   47.9940 C   0  0  0  0  0  0  0  0  0  0  0  0
   62.4450   31.8180   49.2080 C   0  0  0  0  0  0  0  0  0  0  0  0
   61.9990   30.6470   50.0460 C   0  0  0  0  0  0  0  0  0  0  0  0
   61.2120   29.7230   49.2330 N   0  0  0  0  0  0  0  0  0  0  0  0
   59.9590   30.1060   48.6480 C   0  0  0  0  0  0  0  0  0  0  0  0
   59.2120   30.9280   49.2530 O   0  0  0  0  0  0  0  0  0  0  0  0
   59.5260   29.5700   47.3410 C   0  0  0  0  0  0  0  0  0  0  0  0
   58.2880   29.7880   46.8680 C   0  0  0  0  0  0  0  0  0  0  0  0
   57.7700   29.1530   45.6000 C   0  0  1  0  0  0  0  0  0  0  0  0
   57.2770   30.2290   44.6460 C   0  0  0  0  0  0  0  0  0  0  0  0
   56.0710   30.4120   44.5030 O   0  0  0  0  0  0  0  0  0  0  0  0
   58.2260   30.9830   43.7380 C   0  0  0  0  0  0  0  0  0  0  0  0
   57.7710   32.7350   43.4910 S   0  0  0  0  0  0  0  0  0  0  0  0
   58.3850   33.3010   45.0800 C   0  0  0  0  0  0  0  0  0  0  0  0
   59.5990   33.9980   45.1520 C   0  0  0  0  0  0  0  0  0  0  0  0
   60.1140   34.3870   46.3950 C   0  0  0  0  0  0  0  0  0  0  0  0
   59.4080   34.0930   47.5660 C   0  0  0  0  0  0  0  0  0  0  0  0
   58.1950   33.3970   47.4960 C   0  0  0  0  0  0  0  0  0  0  0  0
   57.6820   33.0030   46.2550 C   0  0  0  0  0  0  0  0  0  0  0  0
   58.7920   28.2550   44.9440 C   0  0  0  0  0  0  0  0  0  0  0  0
   58.4350   27.4420   44.0960 O   0  0  0  0  0  0  0  0  0  0  0  0
   60.2470   28.4110   45.2610 C   0  0  0  0  0  0  0  0  0  0  0  0
   60.4260   28.7680   46.6290 O   0  0  0  0  0  0  0  0  0  0  0  0
   59.9149   33.4673   52.0999 H   0  0  0  0  0  0  0  0  0  0  0  0
   59.8245   34.3746   50.5522 H   0  0  0  0  0  0  0  0  0  0  0  0
   59.6913   32.5833   50.5522 H   0  0  0  0  0  0  0  0  0  0  0  0
   62.5737   35.2477   49.2369 H   0  0  0  0  0  0  0  0  0  0  0  0
   63.7663   34.8249   47.0891 H   0  0  0  0  0  0  0  0  0  0  0  0
   64.1082   32.4900   46.2863 H   0  0  0  0  0  0  0  0  0  0  0  0
   63.2749   30.5675   47.6371 H   0  0  0  0  0  0  0  0  0  0  0  0
   62.8825   30.1237   50.4405 H   0  0  0  0  0  0  0  0  0  0  0  0
   61.3802   31.0131   50.8785 H   0  0  0  0  0  0  0  0  0  0  0  0
   61.6240   28.7880   49.0070 H   0  0  0  0  0  0  0  0  0  0  0  0
   57.6216   30.4592   47.4296 H   0  0  0  0  0  0  0  0  0  0  0  0
   56.9241   28.5037   45.8700 H   0  0  0  0  0  0  0  0  0  0  0  0
   59.2328   30.9447   44.1795 H   0  0  0  0  0  0  0  0  0  0  0  0
   58.1809   30.4974   42.7520 H   0  0  0  0  0  0  0  0  0  0  0  0
   60.1484   34.2400   44.2303 H   0  0  0  0  0  0  0  0  0  0  0  0
   61.0728   34.9233   46.4502 H   0  0  0  0  0  0  0  0  0  0  0  0
   59.8056   34.4085   48.5419 H   0  0  0  0  0  0  0  0  0  0  0  0
   57.6443   33.1595   48.4181 H   0  0  0  0  0  0  0  0  0  0  0  0
   56.7271   32.4595   46.2019 H   0  0  0  0  0  0  0  0  0  0  0  0
   60.7639   27.4600   45.0648 H   0  0  0  0  0  0  0  0  0  0  0  0
   60.6647   29.2082   44.6285 H   0  0  0  0  0  0  0  0  0  0  0  0
  1  2  1  0
  2  3  1  0
  3  4  2  0
  4  5  1  0
  5  6  2  0
  6  7  1  0
  7  8  2  0
  8  9  1  0
  9 10  1  0
 10 11  1  0
 11 12  2  0
 11 13  1  0
 13 14  2  0
 14 15  1  0
 15 16  1  0
 16 17  2  0
 16 18  1  0
 18 19  1  0
 19 20  1  0
 20 21  2  0
 21 22  1  0
 22 23  2  0
 23 24  1  0
 24 25  2  0
 15 26  1  0
 26 27  2  0
 26 28  1  0
 28 29  1  0
  8  3  1  0
 29 13  1  0
 25 20  1  0
  1 30  1  0
  1 31  1  0
  1 32  1  0
  4 33  1  0
  5 34  1  0
  6 35  1  0
  7 36  1  0
  9 37  1  0
  9 38  1  0
 10 39  1  0
 14 40  1  0
 15 41  1  1
 18 42  1  0
 18 43  1  0
 21 44  1  0
 22 45  1  0
 23 46  1  0
 24 47  1  0
 25 48  1  0
 28 49  1  0
 28 50  1  0
M  END
>  <UniqueID>  (23) 
23

>  <SMILES>  (23) 
COc1ccccc1CNC(=O)C1=C[C@@H](C(=O)CSc2ccccc2)C(=O)CO1

>  <Energy>  (23) 
48.96039787669923

>  <Genealogy>  (23) 
COc1ccccc1CNC(=O)C1=C[C@@H](C(=O)CSc2ccccc2)C(=O)CO1 (chirality)
COc1ccccc1CNC(=O)C1=C[C@@H](C(=O)CSc2ccccc2)C(=O)CO1 (3D coordinates assigned)
COc1ccccc1CNC(=O)C1=C[C@@H](C(=O)CSc2ccccc2)C(=O)CO1 (nonaromatic ring conformer: 48.96039787669923 kcal/mol)

>  <smiles>  (23) 
COc1ccccc1CNC(=O)C1=CC(C(=O)CSc2ccccc2)C(=O)CO1

>  <score_type>  (23) 
oracle

>  <origin>  (23) 
adg

>  <m_score__min__energy>  (23) 
-9.1099999999999994

>  <m_primary>  (23) 
energy

$$$$
23:0
     RDKit          3D

 47 48  0  0  1  0  0  0  0  0999 V2000
   61.6300   33.0270   47.1020 C   0  0  0  0  0  0  0  0  0  0  0  0
   60.3310   32.6410   47.3080 O   0  0  0  0  0  0  0  0  0  0  0  0
   59.7370   33.3280   48.3570 C   0  0  0  0  0  0  0  0  0  0  0  0
   58.5700   32.5370   48.8850 C   0  0  0  0  0  0  0  0  0  0  0  0
   58.9920   31.4120   49.7830 C   0  0  0  0  0  0  0  0  0  0  0  0
   58.8070   30.0950   49.1770 N   0  0  0  0  0  0  0  0  0  0  0  0
   59.7800   29.5030   48.3260 C   0  0  0  0  0  0  0  0  0  0  0  0
   60.8500   30.0660   48.0420 O   0  0  0  0  0  0  0  0  0  0  0  0
   59.5460   28.1500   47.7260 C   0  0  0  0  0  0  0  0  0  0  0  0
   58.5920   28.2640   46.6660 N   0  0  0  0  0  0  0  0  0  0  0  0
   56.8360   29.8800   44.0340 C   0  0  0  0  0  0  0  0  0  0  0  0
   57.7010   26.1110   46.7670 O   0  0  0  0  0  0  0  0  0  0  0  0
   56.9850   27.6730   45.2570 N   0  0  0  0  0  0  0  0  0  0  0  0
   57.2950   28.9460   44.9680 C   0  0  0  0  0  0  0  0  0  0  0  0
   57.7600   27.2580   46.2750 C   0  0  0  0  0  0  0  0  0  0  0  0
   55.9080   29.5510   43.2150 N   0  0  0  0  0  0  0  0  0  0  0  0
   57.3920   31.0930   44.0330 N   0  0  0  0  0  0  0  0  0  0  0  0
   58.3620   31.4370   44.8890 C   0  0  0  0  0  0  0  0  0  0  0  0
   58.8420   32.6140   44.8260 N   0  0  0  0  0  0  0  0  0  0  0  0
   58.1120   33.8420   44.8760 C   0  0  0  0  0  0  0  0  0  0  0  0
   57.0770   33.6630   45.9960 C   0  0  0  0  0  0  0  0  0  0  0  0
   59.0450   34.9360   45.3190 C   0  0  0  0  0  0  0  0  0  0  0  0
   58.7980   30.5330   45.7850 N   0  0  0  0  0  0  0  0  0  0  0  0
   58.2950   29.2940   45.8540 C   0  0  0  0  0  0  0  0  0  0  0  0
   62.1269   33.1747   48.0722 H   0  0  0  0  0  0  0  0  0  0  0  0
   62.1586   32.2471   46.5342 H   0  0  0  0  0  0  0  0  0  0  0  0
   61.6470   33.9690   46.5342 H   0  0  0  0  0  0  0  0  0  0  0  0
   60.4730   33.4750   49.1612 H   0  0  0  0  0  0  0  0  0  0  0  0
   59.3822   34.3054   47.9980 H   0  0  0  0  0  0  0  0  0  0  0  0
   57.9144   33.2136   49.4528 H   0  0  0  0  0  0  0  0  0  0  0  0
   58.0499   32.0959   48.0219 H   0  0  0  0  0  0  0  0  0  0  0  0
   60.0572   31.5390   50.0264 H   0  0  0  0  0  0  0  0  0  0  0  0
   58.3570   31.4525   50.6803 H   0  0  0  0  0  0  0  0  0  0  0  0
   57.9330   29.5290   49.3520 H   0  0  0  0  0  0  0  0  0  0  0  0
   60.4925   27.7553   47.3282 H   0  0  0  0  0  0  0  0  0  0  0  0
   59.1621   27.4654   48.4967 H   0  0  0  0  0  0  0  0  0  0  0  0
   56.2580   27.1390   44.7490 H   0  0  0  0  0  0  0  0  0  0  0  0
   55.4820   28.6030   43.3470 H   0  0  0  0  0  0  0  0  0  0  0  0
   57.0570   31.8000   43.3390 H   0  0  0  0  0  0  0  0  0  0  0  0
   57.6623   34.0867   43.9024 H   0  0  0  0  0  0  0  0  0  0  0  0
   57.5753   33.7492   46.9729 H   0  0  0  0  0  0  0  0  0  0  0  0
   56.3041   34.4408   45.9087 H   0  0  0  0  0  0  0  0  0  0  0  0
   56.6102   32.6708   45.9087 H   0  0  0  0  0  0  0  0  0  0  0  0
   59.0742   34.9703   46.4181 H   0  0  0  0  0  0  0  0  0  0  0  0
   60.0548   34.7360   44.9314 H   0  0  0  0  0  0  0  0  0  0  0  0
   58.6881   35.9016   44.9314 H   0  0  0  0  0  0  0  0  0  0  0  0
   59.5440   30.8260   46.4280 H   0  0  0  0  0  0  0  0  0  0  0  0
  1  2  1  0
  2  3  1  0
  3  4  1  0
  4  5  1  0
  5  6  1  0
  6  7  1  0
  7  8  2  0
  7  9  1  0
  9 10  1  0
 10 11  1  0
 11 12  2  0
 11 13  1  0
 13 14  1  0
 14 15  1  0
 15 16  2  3
 15 17  1  0
 17 18  1  0
 18 19  2  0
 19 20  1  0
 20 21  1  0
 20 22  1  0
 18 23  1  0
 23 24  1  0
 24 10  1  0
 24 14  2  0
  1 25  1  0
  1 26  1  0
  1 27  1  0
  3 28  1  0
  3 29  1  0
  4 30  1  0
  4 31  1  0
  5 32  1  0
  5 33  1  0
  6 34  1  0
  9 35  1  0
  9 36  1  0
 13 37  1  0
 16 38  1  0
 17 39  1  0
 20 40  1  0
 21 41  1  0
 21 42  1  0
 21 43  1  0
 22 44  1  0
 22 45  1  0
 22 46  1  0
 23 47  1  0
M  END
>  <smiles>  (24) 
COCCCNC(=O)Cn1c(=O)[nH]c2c(=N)[nH]c(=NC(C)C)[nH]c21

>  <score_type>  (24) 
oracle

>  <origin>  (24) 
adg

>  <m_score__min__energy>  (24) 
-5.6500000000000004

>  <m_primary>  (24) 
energy

$$$$
24:0
     RDKit          3D

 45 47  0  0  0  0  0  0  0  0999 V2000
   56.6430   34.3610   44.5820 O   0  0  0  0  0  0  0  0  0  0  0  0
   57.4500   33.4330   44.8570 C   0  0  0  0  0  0  0  0  0  0  0  0
   57.5890   32.3430   43.9370 N   0  0  0  0  0  0  0  0  0  0  0  0
   56.7080   31.1810   43.8630 C   0  0  0  0  0  0  0  0  0  0  0  0
   57.3260   30.0000   44.5710 C   0  0  0  0  0  0  0  0  0  0  0  0
   58.7180   29.9410   44.7540 C   0  0  0  0  0  0  0  0  0  0  0  0
   59.3030   28.8410   45.3860 C   0  0  0  0  0  0  0  0  0  0  0  0
   58.5030   27.7900   45.8430 C   0  0  0  0  0  0  0  0  0  0  0  0
   57.1180   27.8400   45.6700 C   0  0  0  0  0  0  0  0  0  0  0  0
   56.5260   28.9390   45.0370 C   0  0  0  0  0  0  0  0  0  0  0  0
   55.1450   28.9700   44.8730 O   0  0  0  0  0  0  0  0  0  0  0  0
   58.2400   33.5170   46.0980 C   0  0  0  0  0  0  0  0  0  0  0  0
   57.9390   32.6960   47.1940 C   0  0  0  0  0  0  0  0  0  0  0  0
   58.6820   32.7960   48.3750 C   0  0  0  0  0  0  0  0  0  0  0  0
   59.7400   33.7150   48.4750 C   0  0  0  0  0  0  0  0  0  0  0  0
   60.5540   33.8340   49.7470 C   0  0  0  0  0  0  0  0  0  0  0  0
   61.8720   33.1640   49.6820 N   0  0  0  0  0  0  0  0  0  0  0  0
   62.9830   34.0620   49.2970 C   0  0  0  0  0  0  0  0  0  0  0  0
   64.2640   33.2550   49.0560 C   0  0  0  0  0  0  0  0  0  0  0  0
   64.1070   32.2610   47.9740 N   0  0  0  0  0  0  0  0  0  0  0  0
   62.7110   31.8670   47.7100 C   0  0  0  0  0  0  0  0  0  0  0  0
   61.8680   31.8530   48.9920 C   0  0  0  0  0  0  0  0  0  0  0  0
   60.0270   34.5460   47.3780 C   0  0  0  0  0  0  0  0  0  0  0  0
   59.2780   34.4520   46.2030 C   0  0  0  0  0  0  0  0  0  0  0  0
   55.7467   31.4252   44.3388 H   0  0  0  0  0  0  0  0  0  0  0  0
   56.5537   30.9197   42.8057 H   0  0  0  0  0  0  0  0  0  0  0  0
   59.3513   30.7666   44.3972 H   0  0  0  0  0  0  0  0  0  0  0  0
   60.3936   28.8020   45.5240 H   0  0  0  0  0  0  0  0  0  0  0  0
   58.9643   26.9233   46.3390 H   0  0  0  0  0  0  0  0  0  0  0  0
   56.4902   27.0127   46.0325 H   0  0  0  0  0  0  0  0  0  0  0  0
   57.1152   31.9703   47.1249 H   0  0  0  0  0  0  0  0  0  0  0  0
   58.4362   32.1507   49.2313 H   0  0  0  0  0  0  0  0  0  0  0  0
   60.7184   34.9018   49.9541 H   0  0  0  0  0  0  0  0  0  0  0  0
   59.9804   33.3326   50.5405 H   0  0  0  0  0  0  0  0  0  0  0  0
   62.7132   34.5975   48.3748 H   0  0  0  0  0  0  0  0  0  0  0  0
   63.1611   34.7788   50.1122 H   0  0  0  0  0  0  0  0  0  0  0  0
   65.0730   33.9489   48.7839 H   0  0  0  0  0  0  0  0  0  0  0  0
   64.4965   32.7093   49.9823 H   0  0  0  0  0  0  0  0  0  0  0  0
   64.4990   32.6620   47.0900 H   0  0  0  0  0  0  0  0  0  0  0  0
   62.2679   32.5816   47.0008 H   0  0  0  0  0  0  0  0  0  0  0  0
   62.7171   30.8483   47.2949 H   0  0  0  0  0  0  0  0  0  0  0  0
   60.8313   31.5939   48.7309 H   0  0  0  0  0  0  0  0  0  0  0  0
   62.3074   31.1116   49.6756 H   0  0  0  0  0  0  0  0  0  0  0  0
   60.8475   35.2756   47.4456 H   0  0  0  0  0  0  0  0  0  0  0  0
   59.5043   35.1157   45.3554 H   0  0  0  0  0  0  0  0  0  0  0  0
  1  2  2  0
  2  3  1  0
  3  4  1  0
  4  5  1  0
  5  6  2  0
  6  7  1  0
  7  8  2  0
  8  9  1  0
  9 10  2  0
 10 11  1  0
  2 12  1  0
 12 13  2  0
 13 14  1  0
 14 15  2  0
 15 16  1  0
 16 17  1  0
 17 18  1  0
 18 19  1  0
 19 20  1  0
 20 21  1  0
 21 22  1  0
 15 23  1  0
 23 24  2  0
 10  5  1  0
 24 12  1  0
 22 17  1  0
  4 25  1  0
  4 26  1  0
  6 27  1  0
  7 28  1  0
  8 29  1  0
  9 30  1  0
 13 31  1  0
 14 32  1  0
 16 33  1  0
 16 34  1  0
 18 35  1  0
 18 36  1  0
 19 37  1  0
 19 38  1  0
 20 39  1  0
 21 40  1  0
 21 41  1  0
 22 42  1  0
 22 43  1  0
 23 44  1  0
 24 45  1  0
M  CHG  2   3  -1  11  -1
M  END
>  <UniqueID>  (25) 
24

>  <SMILES>  (25) 
O=C([N-]Cc1ccccc1[O-])c1ccc(CN2CCNCC2)cc1

>  <Energy>  (25) 
60.22255837283208

>  <Genealogy>  (25) 
O=C([N-]Cc1ccccc1[O-])c1ccc(CN2CCNCC2)cc1 (protonated)
O=C([N-]Cc1ccccc1[O-])c1ccc(CN2CCNCC2)cc1 (3D coordinates assigned)
O=C([N-]Cc1ccccc1[O-])c1ccc(CN2CCNCC2)cc1 (nonaromatic ring conformer: 60.22255837283208 kcal/mol)

>  <smiles>  (25) 
O=C(NCc1ccccc1O)c1ccc(CN2CCNCC2)cc1

>  <score_type>  (25) 
oracle

>  <origin>  (25) 
adg

>  <m_score__min__energy>  (25) 
-14.130000000000001

>  <m_primary>  (25) 
energy

$$$$
25:0
     RDKit          3D

 40 44  0  0  0  0  0  0  0  0999 V2000
   57.3341   28.1216   45.0585 H   0  0  0  0  0  0  0  0  0  0  0  0
   57.7450   27.6180   45.9460 C   0  0  0  0  0  0  0  0  0  0  0  0
   57.1950   26.3010   46.3110 C   0  0  0  0  0  0  0  0  0  0  0  0
   57.9480   25.2950   46.7900 N   0  0  0  0  0  0  0  0  0  0  0  0
   57.0450   24.3280   47.0590 C   0  0  0  0  0  0  0  0  0  0  0  0
   57.3740   23.2050   47.5200 O   0  0  0  0  0  0  0  0  0  0  0  0
   55.7620   24.6620   46.8040 N   0  0  0  0  0  0  0  0  0  0  0  0
   55.8710   25.9180   46.3430 C   0  0  0  0  0  0  0  0  0  0  0  0
   54.7790   26.7100   46.0090 O   0  0  0  0  0  0  0  0  0  0  0  0
   58.7160   28.2400   46.6300 C   0  0  0  0  0  0  0  0  0  0  0  0
   59.7140   27.6930   47.4450 C   0  0  0  0  0  0  0  0  0  0  0  0
   59.8728   26.6198   47.6270 H   0  0  0  0  0  0  0  0  0  0  0  0
   60.4520   28.6970   47.9730 N   0  0  0  0  0  0  0  0  0  0  0  0
   61.2600   28.5980   48.6290 H   0  0  0  0  0  0  0  0  0  0  0  0
   59.9580   29.8410   47.5320 N   0  0  0  0  0  0  0  0  0  0  0  0
   60.3650   31.1040   47.8040 C   0  0  0  0  0  0  0  0  0  0  0  0
   61.3810   31.3200   48.5850 N   0  0  0  0  0  0  0  0  0  0  0  0
   62.1970   32.5280   48.5260 C   0  0  0  0  0  0  0  0  0  0  0  0
   61.7217   33.0691   49.3575 H   0  0  0  0  0  0  0  0  0  0  0  0
   63.6220   32.2550   48.0870 C   0  0  0  0  0  0  0  0  0  0  0  0
   64.4494   32.8473   48.5049 H   0  0  0  0  0  0  0  0  0  0  0  0
   64.2713   31.3675   48.0598 H   0  0  0  0  0  0  0  0  0  0  0  0
   62.6380   32.8980   47.1220 C   0  0  0  0  0  0  0  0  0  0  0  0
   62.7530   33.9555   46.8420 H   0  0  0  0  0  0  0  0  0  0  0  0
   62.2797   32.6689   46.1075 H   0  0  0  0  0  0  0  0  0  0  0  0
   59.6790   32.1360   47.2310 N   0  0  0  0  0  0  0  0  0  0  0  0
   58.6120   31.8940   46.4090 C   0  0  0  0  0  0  0  0  0  0  0  0
   57.8760   33.0550   45.7920 C   0  0  0  0  0  0  0  0  0  0  0  0
   56.8411   32.7234   45.9623 H   0  0  0  0  0  0  0  0  0  0  0  0
   58.3440   34.4190   46.2940 C   0  0  0  0  0  0  0  0  0  0  0  0
   57.5334   35.0638   46.6644 H   0  0  0  0  0  0  0  0  0  0  0  0
   59.0281   34.4923   47.1523 H   0  0  0  0  0  0  0  0  0  0  0  0
   58.8250   34.7680   44.8920 C   0  0  0  0  0  0  0  0  0  0  0  0
   58.3005   35.6216   44.4378 H   0  0  0  0  0  0  0  0  0  0  0  0
   59.8628   35.0928   44.7265 H   0  0  0  0  0  0  0  0  0  0  0  0
   58.3550   33.4100   44.3860 C   0  0  0  0  0  0  0  0  0  0  0  0
   57.5509   33.4630   43.6372 H   0  0  0  0  0  0  0  0  0  0  0  0
   59.0470   32.7453   43.8482 H   0  0  0  0  0  0  0  0  0  0  0  0
   58.2210   30.6080   46.1540 N   0  0  0  0  0  0  0  0  0  0  0  0
   58.9170   29.6020   46.7320 C   0  0  0  0  0  0  0  0  0  0  0  0
  1  2  1  0
  2  3  1  0
  3  4  1  0
  4  5  1  0
  5  6  2  0
  5  7  1  0
  7  8  1  0
  8  9  1  0
  2 10  2  3
 10 11  1  0
 11 12  1  0
 11 13  2  0
 13 14  1  0
 13 15  1  0
 15 16  1  0
 16 17  2  0
 17 18  1  0
 18 19  1  0
 18 20  1  0
 20 21  1  0
 20 22  1  0
 20 23  1  0
 23 24  1  0
 23 25  1  0
 16 26  1  0
 26 27  2  0
 27 28  1  0
 28 29  1  0
 28 30  1  0
 30 31  1  0
 30 32  1  0
 30 33  1  0
 33 34  1  0
 33 35  1  0
 33 36  1  0
 36 37  1  0
 36 38  1  0
 27 39  1  0
 39 40  2  0
  8  3  2  0
 40 10  1  0
 40 15  1  0
 23 18  1  0
 36 28  1  0
M  CHG  4   4  -1   7  -1   9  -1  13   1
M  END
>  <UniqueID>  (26) 
25

>  <SMILES>  (26) 
O=c1[n-]c([O-])c(C=c2c[nH+]n3/c(=N/C4CC4)nc(C4CCC4)nc23)[n-]1

>  <Energy>  (26) 
442.54492573218766

>  <Genealogy>  (26) 
O=c1[n-]c([O-])c(C=c2c[nH+]n3c(=NC4CC4)nc(C4CCC4)nc23)[n-]1 (protonated)
O=c1[n-]c([O-])c(C=c2c[nH+]n3/c(=N/C4CC4)nc(C4CCC4)nc23)[n-]1 (cis-trans isomerization)
O=c1[n-]c([O-])c(C=c2c[nH+]n3/c(=N/C4CC4)nc(C4CCC4)nc23)[n-]1 (3D coordinates assigned)
O=c1[n-]c([O-])c(C=c2c[nH+]n3/c(=N/C4CC4)nc(C4CCC4)nc23)[n-]1 (nonaromatic ring conformer: 442.54492573218766 kcal/mol)

>  <smiles>  (26) 
O=c1[nH]c(O)c(C=c2cnn3c(=NC4CC4)nc(C4CCC4)nc23)[nH]1

>  <score_type>  (26) 
oracle

>  <origin>  (26) 
adg

>  <m_score__min__energy>  (26) 
-14.75

>  <m_primary>  (26) 
energy

$$$$
26:0
     RDKit          3D

 51 54  0  0  0  0  0  0  0  0999 V2000
   57.1760   31.4400   53.1280 N   0  0  0  0  0  0  0  0  0  0  0  0
   56.8570   30.3600   53.3940 C   0  0  0  0  0  0  0  0  0  0  0  0
   56.4560   29.0090   53.7290 C   0  0  0  0  0  0  0  0  0  0  0  0
   57.3990   28.1080   54.2450 C   0  0  0  0  0  0  0  0  0  0  0  0
   59.1090   28.6040   54.5220 S   0  0  0  0  0  0  0  0  0  0  0  0
   59.5910   28.3280   52.7850 C   0  0  0  0  0  0  0  0  0  0  0  0
   60.7180   27.3270   52.7220 C   0  0  0  0  0  0  0  0  0  0  0  0
   61.9370   27.7480   52.1600 C   0  0  0  0  0  0  0  0  0  0  0  0
   63.0100   26.8650   52.0370 C   0  0  0  0  0  0  0  0  0  0  0  0
   62.8830   25.5490   52.4760 C   0  0  0  0  0  0  0  0  0  0  0  0
   61.6890   25.1160   53.0540 C   0  0  0  0  0  0  0  0  0  0  0  0
   60.5980   25.9920   53.2050 C   0  0  0  0  0  0  0  0  0  0  0  0
   59.3760   25.4690   53.8670 C   0  0  0  0  0  0  0  0  0  0  0  0
   58.4320   24.9750   53.1980 O   0  0  0  0  0  0  0  0  0  0  0  0
   59.2370   25.5680   55.2470 O   0  0  0  0  0  0  0  0  0  0  0  0
   57.0320   26.8350   54.5430 N   0  0  0  0  0  0  0  0  0  0  0  0
   55.7630   26.3790   54.3490 C   0  0  0  0  0  0  0  0  0  0  0  0
   54.7600   27.2490   53.8610 C   0  0  0  0  0  0  0  0  0  0  0  0
   55.1250   28.5810   53.5290 C   0  0  0  0  0  0  0  0  0  0  0  0
   54.1470   29.5280   52.9470 C   0  0  0  0  0  0  0  0  0  0  0  0
   53.9830   29.6070   51.5580 C   0  0  0  0  0  0  0  0  0  0  0  0
   53.0500   30.4930   51.0090 C   0  0  0  0  0  0  0  0  0  0  0  0
   52.2640   31.3090   51.8430 C   0  0  0  0  0  0  0  0  0  0  0  0
   51.2740   32.2480   51.2650 C   0  0  0  0  0  0  0  0  0  0  0  0
   50.2000   32.7490   52.0600 N   0  0  0  0  0  0  0  0  0  0  0  0
   51.3710   32.6150   50.0640 O   0  0  0  0  0  0  0  0  0  0  0  0
   52.4310   31.2190   53.2380 C   0  0  0  0  0  0  0  0  0  0  0  0
   53.3640   30.3330   53.7840 C   0  0  0  0  0  0  0  0  0  0  0  0
   53.3660   26.7220   53.7170 C   0  0  0  0  0  0  0  0  0  0  0  0
   52.4100   27.4770   53.3960 O   0  0  0  0  0  0  0  0  0  0  0  0
   53.0490   25.2870   54.0340 C   0  0  0  0  0  0  0  0  0  0  0  0
   54.2860   24.4020   53.8940 C   0  0  0  0  0  0  0  0  0  0  0  0
   55.4370   24.9560   54.7340 C   0  0  0  0  0  0  0  0  0  0  0  0
   58.7277   27.9422   52.2230 H   0  0  0  0  0  0  0  0  0  0  0  0
   59.9241   29.2792   52.3442 H   0  0  0  0  0  0  0  0  0  0  0  0
   62.0454   28.7863   51.8133 H   0  0  0  0  0  0  0  0  0  0  0  0
   63.9564   27.2079   51.5934 H   0  0  0  0  0  0  0  0  0  0  0  0
   63.7253   24.8500   52.3668 H   0  0  0  0  0  0  0  0  0  0  0  0
   61.5992   24.0746   53.3967 H   0  0  0  0  0  0  0  0  0  0  0  0
   57.7550   26.1860   54.9300 H   0  0  0  0  0  0  0  0  0  0  0  0
   54.5897   28.9705   50.8971 H   0  0  0  0  0  0  0  0  0  0  0  0
   52.9300   30.5521   49.9172 H   0  0  0  0  0  0  0  0  0  0  0  0
   49.9600   33.7650   52.0600 H   0  0  0  0  0  0  0  0  0  0  0  0
   51.8231   31.8503   53.9028 H   0  0  0  0  0  0  0  0  0  0  0  0
   53.4838   30.2677   54.8755 H   0  0  0  0  0  0  0  0  0  0  0  0
   52.6768   25.2219   55.0671 H   0  0  0  0  0  0  0  0  0  0  0  0
   52.2872   24.9343   53.3232 H   0  0  0  0  0  0  0  0  0  0  0  0
   54.0444   23.3850   54.2365 H   0  0  0  0  0  0  0  0  0  0  0  0
   54.5927   24.3829   52.8378 H   0  0  0  0  0  0  0  0  0  0  0  0
   55.1509   24.9288   55.7958 H   0  0  0  0  0  0  0  0  0  0  0  0
   56.3274   24.3355   54.5544 H   0  0  0  0  0  0  0  0  0  0  0  0
  1  2  3  0
  2  3  1  0
  3  4  2  0
  4  5  1  0
  5  6  1  0
  6  7  1  0
  7  8  2  0
  8  9  1  0
  9 10  2  0
 10 11  1  0
 11 12  2  0
 12 13  1  0
 13 14  2  0
 13 15  1  0
  4 16  1  0
 16 17  2  0
 17 18  1  0
 18 19  2  0
 19 20  1  0
 20 21  2  0
 21 22  1  0
 22 23  2  0
 23 24  1  0
 24 25  1  0
 24 26  2  0
 23 27  1  0
 27 28  2  0
 18 29  1  0
 29 30  2  0
 29 31  1  0
 31 32  1  0
 32 33  1  0
 19  3  1  0
 28 20  1  0
 12  7  1  0
 33 17  1  0
  6 34  1  0
  6 35  1  0
  8 36  1  0
  9 37  1  0
 10 38  1  0
 11 39  1  0
 16 40  1  0
 21 41  1  0
 22 42  1  0
 25 43  1  0
 27 44  1  0
 28 45  1  0
 31 46  1  0
 31 47  1  0
 32 48  1  0
 32 49  1  0
 33 50  1  0
 33 51  1  0
M  CHG  3  15  -1  16   1  25  -1
M  END
>  <UniqueID>  (27) 
26

>  <SMILES>  (27) 
N#Cc1c(SCc2ccccc2C(=O)[O-])[nH+]c2c(c1-c1ccc(C([NH-])=O)cc1)C(=O)CCC2

>  <Energy>  (27) 
68.07796179694864

>  <Genealogy>  (27) 
N#Cc1c(SCc2ccccc2C(=O)[O-])[nH+]c2c(c1-c1ccc(C([NH-])=O)cc1)C(=O)CCC2 (protonated)
N#Cc1c(SCc2ccccc2C(=O)[O-])[nH+]c2c(c1-c1ccc(C([NH-])=O)cc1)C(=O)CCC2 (3D coordinates assigned)
N#Cc1c(SCc2ccccc2C(=O)[O-])[nH+]c2c(c1-c1ccc(C([NH-])=O)cc1)C(=O)CCC2 (nonaromatic ring conformer: 68.07796179694864 kcal/mol)

>  <smiles>  (27) 
N#Cc1c(SCc2ccccc2C(=O)O)nc2c(c1-c1ccc(C(N)=O)cc1)C(=O)CCC2

>  <score_type>  (27) 
oracle

>  <origin>  (27) 
adg

>  <m_score__min__energy>  (27) 
-11.23

>  <m_primary>  (27) 
energy

$$$$
27:0
     RDKit          3D

 38 39  0  0  0  0  0  0  0  0999 V2000
   55.4850   29.7010   43.9990 C   0  0  0  0  0  0  0  0  0  0  0  0
   56.5890   30.2840   43.1270 C   0  0  0  0  0  0  0  0  0  0  0  0
   57.2530   31.4310   43.8210 C   0  0  0  0  0  0  0  0  0  0  0  0
   56.7350   32.0630   44.8910 N   0  0  0  0  0  0  0  0  0  0  0  0
   57.6730   33.0080   45.1140 C   0  0  0  0  0  0  0  0  0  0  0  0
   57.6410   33.9430   46.2830 C   0  0  0  0  0  0  0  0  0  0  0  0
   57.5420   33.1760   47.5190 N   0  0  0  0  0  0  0  0  0  0  0  0
   58.4310   32.1030   47.8400 C   0  0  0  0  0  0  0  0  0  0  0  0
   58.8370   31.9490   49.0250 O   0  0  0  0  0  0  0  0  0  0  0  0
   58.8160   31.1750   46.8210 N   0  0  0  0  0  0  0  0  0  0  0  0
   59.3480   29.8510   47.1400 C   0  0  0  0  0  0  0  0  0  0  0  0
   58.8750   28.8420   46.1250 C   0  0  0  0  0  0  0  0  0  0  0  0
   59.4190   28.8200   44.8310 C   0  0  0  0  0  0  0  0  0  0  0  0
   59.0210   27.8400   43.9160 C   0  0  0  0  0  0  0  0  0  0  0  0
   58.0780   26.8780   44.2860 C   0  0  0  0  0  0  0  0  0  0  0  0
   57.5230   26.8920   45.5720 C   0  0  0  0  0  0  0  0  0  0  0  0
   56.3580   25.6630   46.0500 S   0  0  0  0  0  0  0  0  0  0  0  0
   54.7610   26.3180   45.9650 N   0  0  0  0  0  0  0  0  0  0  0  0
   56.4640   24.4770   45.1340 O   0  0  0  0  0  0  0  0  0  0  0  0
   56.6370   25.2130   47.4560 O   0  0  0  0  0  0  0  0  0  0  0  0
   57.9220   27.8750   46.4880 C   0  0  0  0  0  0  0  0  0  0  0  0
   58.6980   32.9390   44.2430 N   0  0  0  0  0  0  0  0  0  0  0  0
   58.3940   31.9570   43.4520 O   0  0  0  0  0  0  0  0  0  0  0  0
   55.7443   29.8379   45.0592 H   0  0  0  0  0  0  0  0  0  0  0  0
   54.5372   30.2162   43.7838 H   0  0  0  0  0  0  0  0  0  0  0  0
   55.3760   28.6278   43.7838 H   0  0  0  0  0  0  0  0  0  0  0  0
   57.3367   29.5042   42.9198 H   0  0  0  0  0  0  0  0  0  0  0  0
   56.1470   30.6445   42.1864 H   0  0  0  0  0  0  0  0  0  0  0  0
   58.5627   34.5432   46.2973 H   0  0  0  0  0  0  0  0  0  0  0  0
   56.7698   34.6088   46.1950 H   0  0  0  0  0  0  0  0  0  0  0  0
   58.5840   31.3970   45.8270 H   0  0  0  0  0  0  0  0  0  0  0  0
   60.4473   29.8889   47.1297 H   0  0  0  0  0  0  0  0  0  0  0  0
   58.9920   29.5516   48.1368 H   0  0  0  0  0  0  0  0  0  0  0  0
   60.1611   29.5764   44.5356 H   0  0  0  0  0  0  0  0  0  0  0  0
   59.4511   27.8267   42.9036 H   0  0  0  0  0  0  0  0  0  0  0  0
   57.7702   26.1066   43.5647 H   0  0  0  0  0  0  0  0  0  0  0  0
   54.7110   27.0930   46.6630 H   0  0  0  0  0  0  0  0  0  0  0  0
   57.4862   27.8897   47.4979 H   0  0  0  0  0  0  0  0  0  0  0  0
  1  2  1  0
  2  3  1  0
  3  4  2  0
  4  5  1  0
  5  6  1  0
  6  7  1  0
  7  8  1  0
  8  9  2  0
  8 10  1  0
 10 11  1  0
 11 12  1  0
 12 13  2  0
 13 14  1  0
 14 15  2  0
 15 16  1  0
 16 17  1  0
 17 18  1  0
 17 19  2  0
 17 20  2  0
 16 21  2  0
  5 22  2  0
 22 23  1  0
 23  3  1  0
 21 12  1  0
  1 24  1  0
  1 25  1  0
  1 26  1  0
  2 27  1  0
  2 28  1  0
  6 29  1  0
  6 30  1  0
 10 31  1  0
 11 32  1  0
 11 33  1  0
 13 34  1  0
 14 35  1  0
 15 36  1  0
 18 37  1  0
 21 38  1  0
M  CHG  2   7  -1  18  -1
M  END
>  <UniqueID>  (28) 
27

>  <SMILES>  (28) 
CCc1nc(C[N-]C(=O)NCc2cccc(S([NH-])(=O)=O)c2)no1

>  <Energy>  (28) 
58.22675125198608

>  <Genealogy>  (28) 
CCc1nc(C[N-]C(=O)NCc2cccc(S([NH-])(=O)=O)c2)no1 (protonated)
CCc1nc(C[N-]C(=O)NCc2cccc(S([NH-])(=O)=O)c2)no1 (3D coordinates assigned)
CCc1nc(C[N-]C(=O)NCc2cccc(S([NH-])(=O)=O)c2)no1 (optimized conformer: 58.22675125198608 kcal/mol)

>  <smiles>  (28) 
CCc1nc(CNC(=O)NCc2cccc(S(N)(=O)=O)c2)no1

>  <score_type>  (28) 
oracle

>  <origin>  (28) 
adg

>  <m_score__min__energy>  (28) 
-12.800000000000001

>  <m_primary>  (28) 
energy

$$$$
28:0
     RDKit          3D

 48 50  0  0  0  0  0  0  0  0999 V2000
   57.9900   26.2660   44.2280 O   0  0  0  0  0  0  0  0  0  0  0  0
   57.5100   25.7770   45.2870 C   0  0  0  0  0  0  0  0  0  0  0  0
   58.1380   26.0220   46.5160 O   0  0  0  0  0  0  0  0  0  0  0  0
   58.4200   27.2980   47.0230 C   0  0  0  0  0  0  0  0  0  0  0  0
   59.3040   27.4060   48.1000 C   0  0  0  0  0  0  0  0  0  0  0  0
   59.6220   28.6540   48.6400 C   0  0  0  0  0  0  0  0  0  0  0  0
   59.0380   29.8250   48.1190 C   0  0  0  0  0  0  0  0  0  0  0  0
   59.3520   31.1760   48.6460 C   0  0  0  0  0  0  0  0  0  0  0  0
   58.6740   31.7680   49.6380 C   0  0  0  0  0  0  0  0  0  0  0  0
   58.5390   31.1110   50.9760 C   0  0  0  0  0  0  0  0  0  0  0  0
   57.4700   30.1970   50.9370 O   0  0  0  0  0  0  0  0  0  0  0  0
   56.4850   30.4630   52.2910 S   0  0  0  0  0  0  0  0  0  0  0  0
   57.0630   29.7580   53.4850 O   0  0  0  0  0  0  0  0  0  0  0  0
   56.3610   31.9330   52.5900 O   0  0  0  0  0  0  0  0  0  0  0  0
   54.9090   29.8150   51.9760 N   0  0  0  0  0  0  0  0  0  0  0  0
   53.6890   30.5670   52.0130 C   0  0  0  0  0  0  0  0  0  0  0  0
   53.2760   31.2340   50.8530 C   0  0  0  0  0  0  0  0  0  0  0  0
   52.0910   31.9780   50.8470 C   0  0  0  0  0  0  0  0  0  0  0  0
   51.3110   32.0600   52.0040 C   0  0  0  0  0  0  0  0  0  0  0  0
   50.1350   32.8000   51.9980 O   0  0  0  0  0  0  0  0  0  0  0  0
   51.7140   31.3970   53.1660 C   0  0  0  0  0  0  0  0  0  0  0  0
   52.8980   30.6510   53.1750 C   0  0  0  0  0  0  0  0  0  0  0  0
   58.1400   29.7140   47.0450 C   0  0  0  0  0  0  0  0  0  0  0  0
   57.8140   28.4600   46.5070 C   0  0  0  0  0  0  0  0  0  0  0  0
   56.8690   28.3680   45.4870 O   0  0  0  0  0  0  0  0  0  0  0  0
   56.3140   24.8980   45.2370 C   0  0  0  0  0  0  0  0  0  0  0  0
   56.4610   23.5570   44.8300 C   0  0  0  0  0  0  0  0  0  0  0  0
   55.3560   22.7040   44.7770 C   0  0  0  0  0  0  0  0  0  0  0  0
   54.0900   23.1740   45.1280 C   0  0  0  0  0  0  0  0  0  0  0  0
   53.9260   24.4990   45.5340 C   0  0  0  0  0  0  0  0  0  0  0  0
   55.0260   25.3620   45.5930 C   0  0  0  0  0  0  0  0  0  0  0  0
   54.8210   26.6750   46.0070 O   0  0  0  0  0  0  0  0  0  0  0  0
   59.7544   26.4978   48.5271 H   0  0  0  0  0  0  0  0  0  0  0  0
   60.3325   28.7229   49.4769 H   0  0  0  0  0  0  0  0  0  0  0  0
   60.1921   31.7244   48.1949 H   0  0  0  0  0  0  0  0  0  0  0  0
   58.2100   32.7506   49.4669 H   0  0  0  0  0  0  0  0  0  0  0  0
   59.4699   30.5781   51.2198 H   0  0  0  0  0  0  0  0  0  0  0  0
   58.3450   31.8739   51.7444 H   0  0  0  0  0  0  0  0  0  0  0  0
   53.8872   31.1726   49.9405 H   0  0  0  0  0  0  0  0  0  0  0  0
   51.7732   32.4985   49.9315 H   0  0  0  0  0  0  0  0  0  0  0  0
   51.0992   31.4616   54.0759 H   0  0  0  0  0  0  0  0  0  0  0  0
   53.2113   30.1293   54.0914 H   0  0  0  0  0  0  0  0  0  0  0  0
   57.6865   30.6217   46.6202 H   0  0  0  0  0  0  0  0  0  0  0  0
   56.4670   27.4790   45.2120 H   0  0  0  0  0  0  0  0  0  0  0  0
   57.4554   23.1782   44.5513 H   0  0  0  0  0  0  0  0  0  0  0  0
   55.4843   21.6592   44.4578 H   0  0  0  0  0  0  0  0  0  0  0  0
   53.2215   22.5003   45.0847 H   0  0  0  0  0  0  0  0  0  0  0  0
   52.9266   24.8671   45.8092 H   0  0  0  0  0  0  0  0  0  0  0  0
  1  2  2  0
  2  3  1  0
  3  4  1  0
  4  5  2  0
  5  6  1  0
  6  7  2  0
  7  8  1  0
  8  9  2  3
  9 10  1  0
 10 11  1  0
 11 12  1  0
 12 13  2  0
 12 14  2  0
 12 15  1  0
 15 16  1  0
 16 17  2  0
 17 18  1  0
 18 19  2  0
 19 20  1  0
 19 21  1  0
 21 22  2  0
  7 23  1  0
 23 24  2  0
 24 25  1  0
  2 26  1  0
 26 27  2  0
 27 28  1  0
 28 29  2  0
 29 30  1  0
 30 31  2  0
 31 32  1  0
 24  4  1  0
 31 26  1  0
 22 16  1  0
  5 33  1  0
  6 34  1  0
  8 35  1  0
  9 36  1  0
 10 37  1  0
 10 38  1  0
 17 39  1  0
 18 40  1  0
 21 41  1  0
 22 42  1  0
 23 43  1  0
 25 44  1  0
 27 45  1  0
 28 46  1  0
 29 47  1  0
 30 48  1  0
M  CHG  3  15  -1  20  -1  32  -1
M  END
>  <UniqueID>  (29) 
28

>  <SMILES>  (29) 
O=C(Oc1ccc(C=CCOS(=O)(=O)[N-]c2ccc([O-])cc2)cc1O)c1ccccc1[O-]

>  <Energy>  (29) 
62.24162775943602

>  <Genealogy>  (29) 
O=C(Oc1ccc(C=CCOS(=O)(=O)[N-]c2ccc([O-])cc2)cc1O)c1ccccc1[O-] (protonated)
O=C(Oc1ccc(C=CCOS(=O)(=O)[N-]c2ccc([O-])cc2)cc1O)c1ccccc1[O-] (3D coordinates assigned)
O=C(Oc1ccc(C=CCOS(=O)(=O)[N-]c2ccc([O-])cc2)cc1O)c1ccccc1[O-] (optimized conformer: 62.24162775943602 kcal/mol)

>  <smiles>  (29) 
O=C(Oc1ccc(C=CCOS(=O)(=O)Nc2ccc(O)cc2)cc1O)c1ccccc1O

>  <score_type>  (29) 
oracle

>  <origin>  (29) 
adg

>  <m_score__min__energy>  (29) 
-16.460000000000001

>  <m_primary>  (29) 
energy

$$$$
29:0
     RDKit          3D

 39 41  0  0  0  0  0  0  0  0999 V2000
   50.7200   30.1670   55.0570 C   0  0  0  0  0  0  0  0  0  0  0  0
   50.8510   31.5150   54.3580 C   0  0  0  0  0  0  0  0  0  0  0  0
   51.8440   31.4370   53.2890 N   0  0  0  0  0  0  0  0  0  0  0  0
   52.9810   30.7140   53.3150 C   0  0  0  0  0  0  0  0  0  0  0  0
   53.5960   30.8010   52.0770 C   0  0  0  0  0  0  0  0  0  0  0  0
   54.7610   30.0890   51.6490 N   0  0  0  0  0  0  0  0  0  0  0  0
   55.9350   29.9150   52.4470 C   0  0  0  0  0  0  0  0  0  0  0  0
   56.1950   28.7960   52.9680 O   0  0  0  0  0  0  0  0  0  0  0  0
   56.8790   31.0600   52.6360 C   0  0  0  0  0  0  0  0  0  0  0  0
   57.5650   31.3880   51.3450 C   0  0  0  0  0  0  0  0  0  0  0  0
   57.7680   32.6520   50.9090 N   0  0  0  0  0  0  0  0  0  0  0  0
   58.3810   32.7140   49.7280 N   0  0  0  0  0  0  0  0  0  0  0  0
   58.6720   31.4990   49.2170 C   0  0  0  0  0  0  0  0  0  0  0  0
   59.2690   31.3510   48.0720 N   0  0  0  0  0  0  0  0  0  0  0  0
   59.1490   30.2070   47.2150 C   0  0  0  0  0  0  0  0  0  0  0  0
   59.6950   29.1260   47.5600 O   0  0  0  0  0  0  0  0  0  0  0  0
   58.3320   30.2440   45.9870 C   0  0  0  0  0  0  0  0  0  0  0  0
   58.7540   30.9470   44.9010 N   0  0  0  0  0  0  0  0  0  0  0  0
   58.0100   31.0070   43.7660 C   0  0  0  0  0  0  0  0  0  0  0  0
   58.4380   31.6570   42.7760 O   0  0  0  0  0  0  0  0  0  0  0  0
   56.7770   30.3460   43.7070 C   0  0  0  0  0  0  0  0  0  0  0  0
   55.9750   30.3860   42.5660 O   0  0  0  0  0  0  0  0  0  0  0  0
   56.3550   29.6350   44.8330 C   0  0  0  0  0  0  0  0  0  0  0  0
   55.1400   28.9600   44.8230 O   0  0  0  0  0  0  0  0  0  0  0  0
   57.1350   29.5990   45.9450 N   0  0  0  0  0  0  0  0  0  0  0  0
   58.1260   30.2570   50.2240 S   0  0  0  0  0  0  0  0  0  0  0  0
   52.8010   31.5770   51.2570 C   0  0  0  0  0  0  0  0  0  0  0  0
   51.7340   31.9500   52.0460 C   0  0  0  0  0  0  0  0  0  0  0  0
   50.6640   32.7280   51.6190 O   0  0  0  0  0  0  0  0  0  0  0  0
   50.7345   30.3161   56.1467 H   0  0  0  0  0  0  0  0  0  0  0  0
   49.7715   29.6929   54.7644 H   0  0  0  0  0  0  0  0  0  0  0  0
   51.5594   29.5191   54.7644 H   0  0  0  0  0  0  0  0  0  0  0  0
   49.8781   31.7978   53.9297 H   0  0  0  0  0  0  0  0  0  0  0  0
   51.1731   32.2688   55.0915 H   0  0  0  0  0  0  0  0  0  0  0  0
   53.3590   30.1472   54.1786 H   0  0  0  0  0  0  0  0  0  0  0  0
   56.3171   31.9401   52.9820 H   0  0  0  0  0  0  0  0  0  0  0  0
   57.6368   30.7790   53.3822 H   0  0  0  0  0  0  0  0  0  0  0  0
   55.2180   29.7290   42.4190 H   0  0  0  0  0  0  0  0  0  0  0  0
   52.9800   31.8401   50.2040 H   0  0  0  0  0  0  0  0  0  0  0  0
  1  2  1  0
  2  3  1  0
  3  4  1  0
  4  5  2  0
  5  6  1  0
  6  7  1  0
  7  8  2  0
  7  9  1  0
  9 10  1  0
 10 11  2  0
 11 12  1  0
 12 13  1  0
 13 14  2  3
 14 15  1  0
 15 16  2  0
 15 17  1  0
 17 18  2  0
 18 19  1  0
 19 20  2  0
 19 21  1  0
 21 22  1  0
 21 23  2  0
 23 24  1  0
 23 25  1  0
 13 26  1  0
  5 27  1  0
 27 28  2  0
 28 29  1  0
 28  3  1  0
 26 10  1  0
 25 17  1  0
  1 30  1  0
  1 31  1  0
  1 32  1  0
  2 33  1  0
  2 34  1  0
  4 35  1  0
  9 36  1  0
  9 37  1  0
 22 38  1  0
 27 39  1  0
M  CHG  5   6  -1  12  -1  24  -1  25  -1  29  -1
M  END
>  <UniqueID>  (30) 
29

>  <SMILES>  (30) 
CCn1cc([N-]C(=O)Cc2n[n-]c(=NC(=O)c3nc(=O)c(O)c([O-])[n-]3)s2)cc1[O-]

>  <Energy>  (30) 
105.80867796209326

>  <Genealogy>  (30) 
CCn1cc([N-]C(=O)Cc2n[n-]c(=NC(=O)c3nc(=O)c(O)c([O-])[n-]3)s2)cc1[O-] (protonated)
CCn1cc([N-]C(=O)Cc2n[n-]c(=NC(=O)c3nc(=O)c(O)c([O-])[n-]3)s2)cc1[O-] (3D coordinates assigned)
CCn1cc([N-]C(=O)Cc2n[n-]c(=NC(=O)c3nc(=O)c(O)c([O-])[n-]3)s2)cc1[O-] (optimized conformer: 105.80867796209326 kcal/mol)

>  <smiles>  (30) 
CCn1cc(NC(=O)Cc2n[nH]c(=NC(=O)c3nc(=O)c(O)c(O)[nH]3)s2)cc1O

>  <score_type>  (30) 
oracle

>  <origin>  (30) 
adg

>  <m_score__min__energy>  (30) 
-17.620000000000001

>  <m_primary>  (30) 
energy

$$$$
30:0
     RDKit          3D

 58 61  0  0  0  0  0  0  0  0999 V2000
   58.8120   29.7130   50.0060 C   0  0  0  0  0  0  0  0  0  0  0  0
   59.8210   30.1590   48.9840 C   0  0  0  0  0  0  0  0  0  0  0  0
   60.4250   31.4230   49.0970 C   0  0  0  0  0  0  0  0  0  0  0  0
   61.3750   31.8580   48.1540 C   0  0  0  0  0  0  0  0  0  0  0  0
   62.0200   33.2000   48.2540 C   0  0  0  0  0  0  0  0  0  0  0  0
   62.2330   33.8650   47.2030 O   0  0  0  0  0  0  0  0  0  0  0  0
   62.4010   33.8220   49.5700 C   0  0  0  0  0  0  0  0  0  0  0  0
   63.7930   33.5220   49.8950 N   0  0  0  0  0  0  0  0  0  0  0  0
   64.6750   32.8620   49.1240 C   0  0  0  0  0  0  0  0  0  0  0  0
   65.8550   32.7520   49.7590 N   0  0  0  0  0  0  0  0  0  0  0  0
   65.6440   33.3650   50.9410 C   0  0  0  0  0  0  0  0  0  0  0  0
   64.3840   33.8370   51.0380 N   0  0  0  0  0  0  0  0  0  0  0  0
   61.7140   30.9980   47.0970 C   0  0  0  0  0  0  0  0  0  0  0  0
   61.1280   29.7380   46.9840 C   0  0  0  0  0  0  0  0  0  0  0  0
   60.1790   29.3030   47.9280 C   0  0  0  0  0  0  0  0  0  0  0  0
   59.5730   28.0360   47.8490 O   0  0  0  0  0  0  0  0  0  0  0  0
   59.3380   27.3010   46.6460 C   0  0  0  0  0  0  0  0  0  0  0  0
   58.0230   27.6740   46.0250 C   0  0  0  0  0  0  0  0  0  0  0  0
   56.8510   27.0650   46.3010 N   0  0  0  0  0  0  0  0  0  0  0  0
   55.8930   27.6570   45.6020 N   0  0  0  0  0  0  0  0  0  0  0  0
   56.4460   28.6500   44.8770 C   0  0  0  0  0  0  0  0  0  0  0  0
   55.6710   29.5500   43.9700 C   0  0  0  0  0  0  0  0  0  0  0  0
   57.8090   28.6850   45.1070 C   0  0  0  0  0  0  0  0  0  0  0  0
   58.8230   29.6100   44.4930 C   0  0  0  0  0  0  0  0  0  0  0  0
   59.0410   30.7970   45.3340 N   0  0  0  0  0  0  0  0  0  0  0  0
   58.2030   31.9410   44.9330 C   0  0  0  0  0  0  0  0  0  0  0  0
   58.6680   33.2020   45.6120 C   0  0  0  0  0  0  0  0  0  0  0  0
   58.6010   33.3320   47.0100 C   0  0  0  0  0  0  0  0  0  0  0  0
   59.0730   34.4910   47.6330 C   0  0  0  0  0  0  0  0  0  0  0  0
   59.5970   35.5350   46.8680 C   0  0  0  0  0  0  0  0  0  0  0  0
   59.6450   35.4240   45.4750 C   0  0  0  0  0  0  0  0  0  0  0  0
   59.1770   34.2660   44.8490 C   0  0  0  0  0  0  0  0  0  0  0  0
   59.2106   29.8892   51.0160 H   0  0  0  0  0  0  0  0  0  0  0  0
   57.8806   30.2833   49.8748 H   0  0  0  0  0  0  0  0  0  0  0  0
   58.6068   28.6403   49.8748 H   0  0  0  0  0  0  0  0  0  0  0  0
   60.1514   32.0817   49.9344 H   0  0  0  0  0  0  0  0  0  0  0  0
   62.2714   34.9124   49.5057 H   0  0  0  0  0  0  0  0  0  0  0  0
   61.7551   33.4086   50.3586 H   0  0  0  0  0  0  0  0  0  0  0  0
   64.4619   32.4689   48.1190 H   0  0  0  0  0  0  0  0  0  0  0  0
   66.7290   32.2940   49.4190 H   0  0  0  0  0  0  0  0  0  0  0  0
   66.4049   33.4676   51.7287 H   0  0  0  0  0  0  0  0  0  0  0  0
   62.4516   31.3227   46.3483 H   0  0  0  0  0  0  0  0  0  0  0  0
   61.4097   29.0783   46.1501 H   0  0  0  0  0  0  0  0  0  0  0  0
   60.1456   27.5168   45.9310 H   0  0  0  0  0  0  0  0  0  0  0  0
   59.3126   26.2296   46.8939 H   0  0  0  0  0  0  0  0  0  0  0  0
   55.0701   30.2478   44.5717 H   0  0  0  0  0  0  0  0  0  0  0  0
   56.3668   30.1184   43.3353 H   0  0  0  0  0  0  0  0  0  0  0  0
   55.0056   28.9463   43.3353 H   0  0  0  0  0  0  0  0  0  0  0  0
   59.7757   29.0722   44.3782 H   0  0  0  0  0  0  0  0  0  0  0  0
   58.4436   29.9418   43.5153 H   0  0  0  0  0  0  0  0  0  0  0  0
   60.0410   31.0810   45.2090 H   0  0  0  0  0  0  0  0  0  0  0  0
   58.2681   32.0723   43.8428 H   0  0  0  0  0  0  0  0  0  0  0  0
   57.1632   31.7406   45.2306 H   0  0  0  0  0  0  0  0  0  0  0  0
   58.1755   32.5186   47.6161 H   0  0  0  0  0  0  0  0  0  0  0  0
   59.0315   34.5808   48.7285 H   0  0  0  0  0  0  0  0  0  0  0  0
   59.9718   36.4442   47.3609 H   0  0  0  0  0  0  0  0  0  0  0  0
   60.0515   36.2490   44.8716 H   0  0  0  0  0  0  0  0  0  0  0  0
   59.2073   34.1870   43.7523 H   0  0  0  0  0  0  0  0  0  0  0  0
  1  2  1  0
  2  3  2  0
  3  4  1  0
  4  5  1  0
  5  6  2  0
  5  7  1  0
  7  8  1  0
  8  9  1  0
  9 10  2  0
 10 11  1  0
 11 12  2  0
  4 13  2  0
 13 14  1  0
 14 15  2  0
 15 16  1  0
 16 17  1  0
 17 18  1  0
 18 19  2  0
 19 20  1  0
 20 21  1  0
 21 22  1  0
 21 23  2  0
 23 24  1  0
 24 25  1  0
 25 26  1  0
 26 27  1  0
 27 28  2  0
 28 29  1  0
 29 30  2  0
 30 31  1  0
 31 32  2  0
 15  2  1  0
 23 18  1  0
 32 27  1  0
 12  8  1  0
  1 33  1  0
  1 34  1  0
  1 35  1  0
  3 36  1  0
  7 37  1  0
  7 38  1  0
  9 39  1  0
 10 40  1  0
 11 41  1  0
 13 42  1  0
 14 43  1  0
 17 44  1  0
 17 45  1  0
 22 46  1  0
 22 47  1  0
 22 48  1  0
 24 49  1  0
 24 50  1  0
 25 51  1  0
 26 52  1  0
 26 53  1  0
 28 54  1  0
 29 55  1  0
 30 56  1  0
 31 57  1  0
 32 58  1  0
M  CHG  2  10   1  20  -1
M  END
>  <UniqueID>  (31) 
30

>  <SMILES>  (31) 
Cc1cc(C(=O)Cn2c[nH+]cn2)ccc1OCc1n[n-]c(C)c1CNCc1ccccc1

>  <Energy>  (31) 
121.10873802224604

>  <Genealogy>  (31) 
Cc1cc(C(=O)Cn2c[nH+]cn2)ccc1OCc1n[n-]c(C)c1CNCc1ccccc1 (protonated)
Cc1cc(C(=O)Cn2c[nH+]cn2)ccc1OCc1n[n-]c(C)c1CNCc1ccccc1 (3D coordinates assigned)
Cc1cc(C(=O)Cn2c[nH+]cn2)ccc1OCc1n[n-]c(C)c1CNCc1ccccc1 (optimized conformer: 121.10873802224604 kcal/mol)

>  <smiles>  (31) 
Cc1cc(C(=O)Cn2cncn2)ccc1OCc1n[nH]c(C)c1CNCc1ccccc1

>  <score_type>  (31) 
oracle

>  <origin>  (31) 
adg

>  <m_score__min__energy>  (31) 
-10.039999999999999

>  <m_primary>  (31) 
energy

$$$$
31:0
     RDKit          3D

 47 48  0  0  0  0  0  0  0  0999 V2000
   56.3040   20.6900   46.1010 C   0  0  0  0  0  0  0  0  0  0  0  0
   56.0440   22.1710   46.0830 C   0  0  0  0  0  0  0  0  0  0  0  0
   56.7400   23.0070   45.2010 C   0  0  0  0  0  0  0  0  0  0  0  0
   56.4880   24.3510   45.1660 N   0  0  0  0  0  0  0  0  0  0  0  0
   57.2310   25.2060   44.2230 C   0  0  0  0  0  0  0  0  0  0  0  0
   58.1910   26.1170   44.9630 C   0  0  0  0  0  0  0  0  0  0  0  0
   58.8230   25.6130   46.1150 C   0  0  0  0  0  0  0  0  0  0  0  0
   59.7040   26.4050   46.8530 C   0  0  0  0  0  0  0  0  0  0  0  0
   59.9570   27.7170   46.4630 C   0  0  0  0  0  0  0  0  0  0  0  0
   59.3300   28.2450   45.3340 C   0  0  0  0  0  0  0  0  0  0  0  0
   58.4470   27.4610   44.5680 C   0  0  0  0  0  0  0  0  0  0  0  0
   57.7660   28.1020   43.3790 C   0  0  0  0  0  0  0  0  0  0  0  0
   57.6020   29.5400   43.5870 N   0  0  0  0  0  0  0  0  0  0  0  0
   56.5770   30.0650   44.4370 C   0  0  0  0  0  0  0  0  0  0  0  0
   55.7810   29.2810   45.0210 O   0  0  0  0  0  0  0  0  0  0  0  0
   56.4810   31.4540   44.6050 O   0  0  0  0  0  0  0  0  0  0  0  0
   57.5740   32.3660   44.7910 C   0  0  0  0  0  0  0  0  0  0  0  0
   58.1540   32.6670   43.4000 C   0  0  0  0  0  0  0  0  0  0  0  0
   57.0810   33.6820   45.4200 C   0  0  0  0  0  0  0  0  0  0  0  0
   58.6730   31.7260   45.6590 C   0  0  0  0  0  0  0  0  0  0  0  0
   55.5330   24.8830   45.9950 C   0  0  0  0  0  0  0  0  0  0  0  0
   55.2810   26.1190   45.9780 O   0  0  0  0  0  0  0  0  0  0  0  0
   54.8420   24.0820   46.8460 N   0  0  0  0  0  0  0  0  0  0  0  0
   55.0710   22.7470   46.9060 C   0  0  0  0  0  0  0  0  0  0  0  0
   54.4010   22.0400   47.7050 O   0  0  0  0  0  0  0  0  0  0  0  0
   56.3653   20.3411   47.1424 H   0  0  0  0  0  0  0  0  0  0  0  0
   55.4839   20.1675   45.5869 H   0  0  0  0  0  0  0  0  0  0  0  0
   57.2531   20.4781   45.5869 H   0  0  0  0  0  0  0  0  0  0  0  0
   57.4978   22.5781   44.5289 H   0  0  0  0  0  0  0  0  0  0  0  0
   57.8002   24.5688   43.5302 H   0  0  0  0  0  0  0  0  0  0  0  0
   56.5119   25.8273   43.6690 H   0  0  0  0  0  0  0  0  0  0  0  0
   58.6200   24.5813   46.4381 H   0  0  0  0  0  0  0  0  0  0  0  0
   60.1991   25.9918   47.7441 H   0  0  0  0  0  0  0  0  0  0  0  0
   60.6525   28.3386   47.0460 H   0  0  0  0  0  0  0  0  0  0  0  0
   59.5280   29.2861   45.0391 H   0  0  0  0  0  0  0  0  0  0  0  0
   58.3776   27.9352   42.4801 H   0  0  0  0  0  0  0  0  0  0  0  0
   56.7716   27.6481   43.2555 H   0  0  0  0  0  0  0  0  0  0  0  0
   58.2410   30.2160   43.1110 H   0  0  0  0  0  0  0  0  0  0  0  0
   59.1255   33.1712   43.5091 H   0  0  0  0  0  0  0  0  0  0  0  0
   58.2895   31.7254   42.8476 H   0  0  0  0  0  0  0  0  0  0  0  0
   57.4621   33.3198   42.8476 H   0  0  0  0  0  0  0  0  0  0  0  0
   57.1122   33.5986   46.5164 H   0  0  0  0  0  0  0  0  0  0  0  0
   57.7303   34.5089   45.0965 H   0  0  0  0  0  0  0  0  0  0  0  0
   56.0482   33.8787   45.0965 H   0  0  0  0  0  0  0  0  0  0  0  0
   58.4295   31.8678   46.7223 H   0  0  0  0  0  0  0  0  0  0  0  0
   58.7353   30.6504   45.4374 H   0  0  0  0  0  0  0  0  0  0  0  0
   59.6393   32.2026   45.4374 H   0  0  0  0  0  0  0  0  0  0  0  0
  1  2  1  0
  2  3  2  0
  3  4  1  0
  4  5  1  0
  5  6  1  0
  6  7  2  0
  7  8  1  0
  8  9  2  0
  9 10  1  0
 10 11  2  0
 11 12  1  0
 12 13  1  0
 13 14  1  0
 14 15  2  0
 14 16  1  0
 16 17  1  0
 17 18  1  0
 17 19  1  0
 17 20  1  0
  4 21  1  0
 21 22  2  0
 21 23  1  0
 23 24  1  0
 24 25  2  0
 24  2  1  0
 11  6  1  0
  1 26  1  0
  1 27  1  0
  1 28  1  0
  3 29  1  0
  5 30  1  0
  5 31  1  0
  7 32  1  0
  8 33  1  0
  9 34  1  0
 10 35  1  0
 12 36  1  0
 12 37  1  0
 13 38  1  0
 18 39  1  0
 18 40  1  0
 18 41  1  0
 19 42  1  0
 19 43  1  0
 19 44  1  0
 20 45  1  0
 20 46  1  0
 20 47  1  0
M  CHG  1  23  -1
M  END
>  <UniqueID>  (32) 
31

>  <SMILES>  (32) 
Cc1cn(Cc2ccccc2CNC(=O)OC(C)(C)C)c(=O)[n-]c1=O

>  <Energy>  (32) 
44.646080405193054

>  <Genealogy>  (32) 
Cc1cn(Cc2ccccc2CNC(=O)OC(C)(C)C)c(=O)[n-]c1=O (protonated)
Cc1cn(Cc2ccccc2CNC(=O)OC(C)(C)C)c(=O)[n-]c1=O (3D coordinates assigned)
Cc1cn(Cc2ccccc2CNC(=O)OC(C)(C)C)c(=O)[n-]c1=O (optimized conformer: 44.646080405193054 kcal/mol)

>  <smiles>  (32) 
Cc1cn(Cc2ccccc2CNC(=O)OC(C)(C)C)c(=O)[nH]c1=O

>  <score_type>  (32) 
oracle

>  <origin>  (32) 
adg

>  <m_score__min__energy>  (32) 
-10.470000000000001

>  <m_primary>  (32) 
energy

$$$$
32:0
     RDKit          3D

 54 57  0  0  0  0  0  0  0  0999 V2000
   54.3390   26.7120   46.7590 H   0  0  0  0  0  0  0  0  0  0  0  0
   54.5330   26.2010   45.9070 O   0  0  0  0  0  0  0  0  0  0  0  0
   54.2930   24.8320   45.7740 C   0  0  0  0  0  0  0  0  0  0  0  0
   53.0420   24.4210   45.4450 N   0  0  0  0  0  0  0  0  0  0  0  0
   52.7460   23.1050   45.2960 C   0  0  0  0  0  0  0  0  0  0  0  0
   51.5780   22.7550   44.9860 O   0  0  0  0  0  0  0  0  0  0  0  0
   53.7070   22.1670   45.4850 N   0  0  0  0  0  0  0  0  0  0  0  0
   54.9740   22.5180   45.8180 C   0  0  0  0  0  0  0  0  0  0  0  0
   55.8330   21.6170   46.0150 O   0  0  0  0  0  0  0  0  0  0  0  0
   55.3130   23.8770   45.9590 C   0  0  0  0  0  0  0  0  0  0  0  0
   56.6790   24.2910   46.3540 C   0  0  0  0  0  0  0  0  0  0  0  0
   57.1231   23.8386   47.2530 H   0  0  0  0  0  0  0  0  0  0  0  0
   57.4050   25.1950   45.6660 C   0  0  0  0  0  0  0  0  0  0  0  0
   57.2650   25.4940   44.3210 C   0  0  0  0  0  0  0  0  0  0  0  0
   56.5629   25.0278   43.6141 H   0  0  0  0  0  0  0  0  0  0  0  0
   58.1770   26.4900   44.0400 C   0  0  0  0  0  0  0  0  0  0  0  0
   58.3020   27.1570   42.7040 C   0  0  0  0  0  0  0  0  0  0  0  0
   58.5029   28.2290   42.8468 H   0  0  0  0  0  0  0  0  0  0  0  0
   59.1302   26.7004   42.1423 H   0  0  0  0  0  0  0  0  0  0  0  0
   57.3646   27.0312   42.1423 H   0  0  0  0  0  0  0  0  0  0  0  0
   58.8720   26.8310   45.1520 N   0  0  0  0  0  0  0  0  0  0  0  0
   59.8790   27.9030   45.2300 C   0  0  0  0  0  0  0  0  0  0  0  0
   60.5330   27.7230   46.0959 H   0  0  0  0  0  0  0  0  0  0  0  0
   60.4699   27.9042   44.3022 H   0  0  0  0  0  0  0  0  0  0  0  0
   59.2100   29.2460   45.3840 C   0  0  0  0  0  0  0  0  0  0  0  0
   59.1250   29.8540   46.6440 C   0  0  0  0  0  0  0  0  0  0  0  0
   59.5681   29.3599   47.5213 H   0  0  0  0  0  0  0  0  0  0  0  0
   58.4800   31.0850   46.7910 C   0  0  0  0  0  0  0  0  0  0  0  0
   58.4223   31.5541   47.7843 H   0  0  0  0  0  0  0  0  0  0  0  0
   57.9050   31.7290   45.6840 C   0  0  0  0  0  0  0  0  0  0  0  0
   57.2320   32.9880   45.8750 N   0  0  0  0  0  0  0  0  0  0  0  0
   56.1870   32.9970   45.8880 H   0  0  0  0  0  0  0  0  0  0  0  0
   57.9110   34.2820   45.9580 C   0  0  0  0  0  0  0  0  0  0  0  0
   58.0948   34.6592   44.9412 H   0  0  0  0  0  0  0  0  0  0  0  0
   57.2710   34.9821   46.5149 H   0  0  0  0  0  0  0  0  0  0  0  0
   59.2260   34.1480   46.6810 C   0  0  0  0  0  0  0  0  0  0  0  0
   59.2740   34.2510   48.0810 C   0  0  0  0  0  0  0  0  0  0  0  0
   58.3489   34.4276   48.6494 H   0  0  0  0  0  0  0  0  0  0  0  0
   60.4930   34.1300   48.7550 C   0  0  0  0  0  0  0  0  0  0  0  0
   60.5256   34.2168   49.8511 H   0  0  0  0  0  0  0  0  0  0  0  0
   61.6700   33.8990   48.0380 C   0  0  0  0  0  0  0  0  0  0  0  0
   62.6288   33.8077   48.5694 H   0  0  0  0  0  0  0  0  0  0  0  0
   61.6290   33.7840   46.6460 C   0  0  0  0  0  0  0  0  0  0  0  0
   62.5554   33.5980   46.0827 H   0  0  0  0  0  0  0  0  0  0  0  0
   60.4120   33.9050   45.9680 C   0  0  0  0  0  0  0  0  0  0  0  0
   60.3831   33.8096   44.8725 H   0  0  0  0  0  0  0  0  0  0  0  0
   58.0070   31.1240   44.4170 C   0  0  0  0  0  0  0  0  0  0  0  0
   57.5752   31.6230   43.5369 H   0  0  0  0  0  0  0  0  0  0  0  0
   58.6530   29.8940   44.2700 C   0  0  0  0  0  0  0  0  0  0  0  0
   58.7257   29.4303   43.2752 H   0  0  0  0  0  0  0  0  0  0  0  0
   58.4020   26.0430   46.1600 C   0  0  0  0  0  0  0  0  0  0  0  0
   58.8370   26.0870   47.4300 C   0  0  0  0  0  0  0  0  0  0  0  0
   59.6296   26.7942   47.7157 H   0  0  0  0  0  0  0  0  0  0  0  0
   58.4007   25.4158   48.1844 H   0  0  0  0  0  0  0  0  0  0  0  0
  1  2  1  0
  2  3  1  0
  3  4  1  0
  4  5  1  0
  5  6  2  0
  5  7  1  0
  7  8  1  0
  8  9  2  0
  8 10  1  0
 10 11  1  0
 11 12  1  0
 11 13  2  0
 13 14  1  0
 14 15  1  0
 14 16  2  0
 16 17  1  0
 17 18  1  0
 17 19  1  0
 17 20  1  0
 16 21  1  0
 21 22  1  0
 22 23  1  0
 22 24  1  0
 22 25  1  0
 25 26  2  0
 26 27  1  0
 26 28  1  0
 28 29  1  0
 28 30  2  0
 30 31  1  0
 31 32  1  0
 31 33  1  0
 33 34  1  0
 33 35  1  0
 33 36  1  0
 36 37  2  0
 37 38  1  0
 37 39  1  0
 39 40  1  0
 39 41  2  0
 41 42  1  0
 41 43  1  0
 43 44  1  0
 43 45  2  0
 45 46  1  0
 30 47  1  0
 47 48  1  0
 47 49  2  0
 49 50  1  0
 21 51  1  0
 51 52  2  0
 52 53  1  0
 52 54  1  0
 10  3  2  0
 51 13  1  0
 49 25  1  0
 45 36  1  0
M  CHG  2   4  -1   7  -1
M  END
>  <UniqueID>  (33) 
32

>  <SMILES>  (33) 
C=c1/c(=C/c2c(O)[n-]c(=O)[n-]c2=O)cc(C)n1Cc1ccc(NCc2ccccc2)cc1

>  <Energy>  (33) 
96.22613664912166

>  <Genealogy>  (33) 
C=c1c(=Cc2c(O)[n-]c(=O)[n-]c2=O)cc(C)n1Cc1ccc(NCc2ccccc2)cc1 (protonated)
C=c1/c(=C/c2c(O)[n-]c(=O)[n-]c2=O)cc(C)n1Cc1ccc(NCc2ccccc2)cc1 (cis-trans isomerization)
C=c1/c(=C/c2c(O)[n-]c(=O)[n-]c2=O)cc(C)n1Cc1ccc(NCc2ccccc2)cc1 (3D coordinates assigned)
C=c1/c(=C/c2c(O)[n-]c(=O)[n-]c2=O)cc(C)n1Cc1ccc(NCc2ccccc2)cc1 (optimized conformer: 96.22613664912166 kcal/mol)

>  <smiles>  (33) 
C=c1c(=Cc2c(O)[nH]c(=O)[nH]c2=O)cc(C)n1Cc1ccc(NCc2ccccc2)cc1

>  <score_type>  (33) 
oracle

>  <origin>  (33) 
adg

>  <m_score__min__energy>  (33) 
-14.289999999999999

>  <m_primary>  (33) 
energy

$$$$
33:0
     RDKit          3D

 35 36  0  0  0  0  0  0  0  0999 V2000
   58.0330   28.4870   46.8640 C   0  0  0  0  0  0  0  0  0  0  0  0
   57.3970   29.2960   45.7760 C   0  0  0  0  0  0  0  0  0  0  0  0
   58.0060   30.4350   45.3450 N   0  0  0  0  0  0  0  0  0  0  0  0
   57.4760   31.2160   44.3600 C   0  0  0  0  0  0  0  0  0  0  0  0
   58.0740   32.3010   43.9600 N   0  0  0  0  0  0  0  0  0  0  0  0
   58.0350   33.5910   44.5910 C   0  0  0  0  0  0  0  0  0  0  0  0
   56.9790   34.2820   44.6080 O   0  0  0  0  0  0  0  0  0  0  0  0
   59.2570   34.1010   45.2850 C   0  0  0  0  0  0  0  0  0  0  0  0
   59.9210   32.9980   45.9810 N   0  0  0  0  0  0  0  0  0  0  0  0
   59.9100   33.2910   47.6930 S   0  0  0  0  0  0  0  0  0  0  0  0
   59.1210   32.2130   48.3840 O   0  0  0  0  0  0  0  0  0  0  0  0
   59.2460   34.6130   47.9650 O   0  0  0  0  0  0  0  0  0  0  0  0
   61.5550   33.3340   48.3220 C   0  0  0  0  0  0  0  0  0  0  0  0
   61.7870   33.7330   49.6460 C   0  0  0  0  0  0  0  0  0  0  0  0
   63.0920   33.7870   50.1460 C   0  0  0  0  0  0  0  0  0  0  0  0
   64.1710   33.4470   49.3250 C   0  0  0  0  0  0  0  0  0  0  0  0
   63.9460   33.0540   48.0020 C   0  0  0  0  0  0  0  0  0  0  0  0
   62.6420   32.9990   47.4990 C   0  0  0  0  0  0  0  0  0  0  0  0
   56.2650   30.8440   43.7650 C   0  0  0  0  0  0  0  0  0  0  0  0
   55.6190   29.6800   44.1870 C   0  0  0  0  0  0  0  0  0  0  0  0
   56.1830   28.8970   45.1960 C   0  0  0  0  0  0  0  0  0  0  0  0
   55.5390   27.7380   45.6140 O   0  0  0  0  0  0  0  0  0  0  0  0
   57.7231   28.8813   47.8430 H   0  0  0  0  0  0  0  0  0  0  0  0
   57.7155   27.4377   46.7741 H   0  0  0  0  0  0  0  0  0  0  0  0
   59.1276   28.5478   46.7741 H   0  0  0  0  0  0  0  0  0  0  0  0
   59.9453   34.5339   44.5441 H   0  0  0  0  0  0  0  0  0  0  0  0
   58.9686   34.8728   46.0138 H   0  0  0  0  0  0  0  0  0  0  0  0
   59.3620   32.1270   45.8200 H   0  0  0  0  0  0  0  0  0  0  0  0
   60.9401   34.0044   50.2934 H   0  0  0  0  0  0  0  0  0  0  0  0
   63.2695   34.0973   51.1863 H   0  0  0  0  0  0  0  0  0  0  0  0
   65.1969   33.4886   49.7196 H   0  0  0  0  0  0  0  0  0  0  0  0
   64.7956   32.7878   47.3560 H   0  0  0  0  0  0  0  0  0  0  0  0
   62.4679   32.6928   46.4569 H   0  0  0  0  0  0  0  0  0  0  0  0
   55.8250   31.4643   42.9703 H   0  0  0  0  0  0  0  0  0  0  0  0
   54.6668   29.3804   43.7249 H   0  0  0  0  0  0  0  0  0  0  0  0
  1  2  1  0
  2  3  1  0
  3  4  1  0
  4  5  2  3
  5  6  1  0
  6  7  2  0
  6  8  1  0
  8  9  1  0
  9 10  1  0
 10 11  2  0
 10 12  2  0
 10 13  1  0
 13 14  2  0
 14 15  1  0
 15 16  2  0
 16 17  1  0
 17 18  2  0
  4 19  1  0
 19 20  2  0
 20 21  1  0
 21 22  1  0
 21  2  2  0
 18 13  1  0
  1 23  1  0
  1 24  1  0
  1 25  1  0
  8 26  1  0
  8 27  1  0
  9 28  1  0
 14 29  1  0
 15 30  1  0
 16 31  1  0
 17 32  1  0
 18 33  1  0
 19 34  1  0
 20 35  1  0
M  CHG  2   3  -1  22  -1
M  END
>  <UniqueID>  (34) 
33

>  <SMILES>  (34) 
Cc1[n-]c(=NC(=O)CNS(=O)(=O)c2ccccc2)ccc1[O-]

>  <Energy>  (34) 
34.04991523209256

>  <Genealogy>  (34) 
Cc1[n-]c(=NC(=O)CNS(=O)(=O)c2ccccc2)ccc1[O-] (protonated)
Cc1[n-]c(=NC(=O)CNS(=O)(=O)c2ccccc2)ccc1[O-] (3D coordinates assigned)
Cc1[n-]c(=NC(=O)CNS(=O)(=O)c2ccccc2)ccc1[O-] (optimized conformer: 34.04991523209256 kcal/mol)

>  <smiles>  (34) 
Cc1[nH]c(=NC(=O)CNS(=O)(=O)c2ccccc2)ccc1O

>  <score_type>  (34) 
oracle

>  <origin>  (34) 
adg

>  <m_score__min__energy>  (34) 
-12.109999999999999

>  <m_primary>  (34) 
energy

$$$$
34:0
     RDKit          3D

 50 53  0  0  0  0  0  0  0  0999 V2000
   60.7230   27.7370   49.3380 C   0  0  0  0  0  0  0  0  0  0  0  0
   60.1760   28.5830   48.2260 C   0  0  0  0  0  0  0  0  0  0  0  0
   59.7810   28.0970   46.9930 C   0  0  0  0  0  0  0  0  0  0  0  0
   59.3270   29.1800   46.2670 C   0  0  0  0  0  0  0  0  0  0  0  0
   59.4820   30.2860   47.0800 C   0  0  0  0  0  0  0  0  0  0  0  0
   59.0490   31.6480   46.7220 C   0  0  0  0  0  0  0  0  0  0  0  0
   59.8160   32.7480   47.1390 C   0  0  0  0  0  0  0  0  0  0  0  0
   59.4460   34.0450   46.7710 C   0  0  0  0  0  0  0  0  0  0  0  0
   58.3010   34.2500   45.9940 C   0  0  0  0  0  0  0  0  0  0  0  0
   57.5230   33.1610   45.5900 C   0  0  0  0  0  0  0  0  0  0  0  0
   57.8890   31.8610   45.9550 C   0  0  0  0  0  0  0  0  0  0  0  0
   57.0890   30.7920   45.5650 O   0  0  0  0  0  0  0  0  0  0  0  0
   59.9970   29.9230   48.2820 N   0  0  0  0  0  0  0  0  0  0  0  0
   60.1870   30.7920   49.4520 C   0  0  0  0  0  0  0  0  0  0  0  0
   58.9520   30.7860   50.3150 C   0  0  0  0  0  0  0  0  0  0  0  0
   58.1480   31.9320   50.4020 C   0  0  0  0  0  0  0  0  0  0  0  0
   57.0450   31.9580   51.2580 C   0  0  0  0  0  0  0  0  0  0  0  0
   56.7320   30.8390   52.0450 C   0  0  0  0  0  0  0  0  0  0  0  0
   55.5710   30.8960   52.9960 C   0  0  0  0  0  0  0  0  0  0  0  0
   54.4670   31.5260   52.3540 O   0  0  0  0  0  0  0  0  0  0  0  0
   53.1640   31.0280   52.4220 C   0  0  0  0  0  0  0  0  0  0  0  0
   52.7080   30.5710   53.5060 O   0  0  0  0  0  0  0  0  0  0  0  0
   52.3190   31.0380   51.2190 C   0  0  0  0  0  0  0  0  0  0  0  0
   52.3380   30.1180   50.1920 C   0  0  0  0  0  0  0  0  0  0  0  0
   51.3870   30.5540   49.2910 C   0  0  0  0  0  0  0  0  0  0  0  0
   51.0820   29.9110   48.0970 O   0  0  0  0  0  0  0  0  0  0  0  0
   50.7800   31.6860   49.6980 N   0  0  0  0  0  0  0  0  0  0  0  0
   51.3590   31.9720   50.8790 C   0  0  0  0  0  0  0  0  0  0  0  0
   51.0190   33.0820   51.6410 O   0  0  0  0  0  0  0  0  0  0  0  0
   57.5230   29.6850   51.9450 C   0  0  0  0  0  0  0  0  0  0  0  0
   58.6210   29.6570   51.0820 C   0  0  0  0  0  0  0  0  0  0  0  0
   60.4394   28.1757   50.3060 H   0  0  0  0  0  0  0  0  0  0  0  0
   60.3111   26.7199   49.2616 H   0  0  0  0  0  0  0  0  0  0  0  0
   61.8195   27.6952   49.2616 H   0  0  0  0  0  0  0  0  0  0  0  0
   59.8208   27.0506   46.6561 H   0  0  0  0  0  0  0  0  0  0  0  0
   58.9222   29.1651   45.2443 H   0  0  0  0  0  0  0  0  0  0  0  0
   60.7115   32.5885   47.7576 H   0  0  0  0  0  0  0  0  0  0  0  0
   60.0545   34.9033   47.0921 H   0  0  0  0  0  0  0  0  0  0  0  0
   58.0122   35.2700   45.7003 H   0  0  0  0  0  0  0  0  0  0  0  0
   56.6205   33.3268   44.9834 H   0  0  0  0  0  0  0  0  0  0  0  0
   61.0421   30.4270   50.0399 H   0  0  0  0  0  0  0  0  0  0  0  0
   60.3771   31.8191   49.1072 H   0  0  0  0  0  0  0  0  0  0  0  0
   58.3878   32.8156   49.7923 H   0  0  0  0  0  0  0  0  0  0  0  0
   56.4183   32.8602   51.3157 H   0  0  0  0  0  0  0  0  0  0  0  0
   55.2893   29.8752   53.2936 H   0  0  0  0  0  0  0  0  0  0  0  0
   55.8547   31.4712   53.8897 H   0  0  0  0  0  0  0  0  0  0  0  0
   52.9758   29.2257   50.1083 H   0  0  0  0  0  0  0  0  0  0  0  0
   51.1090   28.9010   48.0320 H   0  0  0  0  0  0  0  0  0  0  0  0
   57.2777   28.7986   52.5485 H   0  0  0  0  0  0  0  0  0  0  0  0
   59.2304   28.7447   51.0026 H   0  0  0  0  0  0  0  0  0  0  0  0
  1  2  1  0
  2  3  2  0
  3  4  1  0
  4  5  2  0
  5  6  1  0
  6  7  2  0
  7  8  1  0
  8  9  2  0
  9 10  1  0
 10 11  2  0
 11 12  1  0
  5 13  1  0
 13 14  1  0
 14 15  1  0
 15 16  2  0
 16 17  1  0
 17 18  2  0
 18 19  1  0
 19 20  1  0
 20 21  1  0
 21 22  2  0
 21 23  1  0
 23 24  1  0
 24 25  2  0
 25 26  1  0
 25 27  1  0
 27 28  1  0
 28 29  1  0
 18 30  1  0
 30 31  2  0
 13  2  1  0
 31 15  1  0
 11  6  1  0
 28 23  2  0
  1 32  1  0
  1 33  1  0
  1 34  1  0
  3 35  1  0
  4 36  1  0
  7 37  1  0
  8 38  1  0
  9 39  1  0
 10 40  1  0
 14 41  1  0
 14 42  1  0
 16 43  1  0
 17 44  1  0
 19 45  1  0
 19 46  1  0
 24 47  1  0
 26 48  1  0
 30 49  1  0
 31 50  1  0
M  CHG  3  12  -1  27  -1  29  -1
M  END
>  <UniqueID>  (35) 
34

>  <SMILES>  (35) 
Cc1ccc(-c2ccccc2[O-])n1Cc1ccc(COC(=O)c2cc(O)[n-]c2[O-])cc1

>  <Energy>  (35) 
106.51576196338561

>  <Genealogy>  (35) 
Cc1ccc(-c2ccccc2[O-])n1Cc1ccc(COC(=O)c2cc(O)[n-]c2[O-])cc1 (protonated)
Cc1ccc(-c2ccccc2[O-])n1Cc1ccc(COC(=O)c2cc(O)[n-]c2[O-])cc1 (3D coordinates assigned)
Cc1ccc(-c2ccccc2[O-])n1Cc1ccc(COC(=O)c2cc(O)[n-]c2[O-])cc1 (optimized conformer: 106.51576196338561 kcal/mol)

>  <smiles>  (35) 
Cc1ccc(-c2ccccc2O)n1Cc1ccc(COC(=O)c2cc(O)[nH]c2O)cc1

>  <score_type>  (35) 
oracle

>  <origin>  (35) 
adg

>  <m_score__min__energy>  (35) 
-17.010000000000002

>  <m_primary>  (35) 
energy

$$$$
35:0
     RDKit          3D

 46 48  0  0  0  0  0  0  0  0999 V2000
   58.1500   32.7080   43.4410 C   0  0  0  0  0  0  0  0  0  0  0  0
   58.4310   32.1590   44.8090 C   0  0  0  0  0  0  0  0  0  0  0  0
   59.2790   32.8500   45.6190 N   0  0  0  0  0  0  0  0  0  0  0  0
   59.6080   32.4380   46.8730 C   0  0  0  0  0  0  0  0  0  0  0  0
   60.5170   33.2300   47.6690 N   0  0  0  0  0  0  0  0  0  0  0  0
   61.8240   33.6010   47.1120 C   0  0  0  0  0  0  0  0  0  0  0  0
   62.8350   33.8310   48.2380 C   0  0  0  0  0  0  0  0  0  0  0  0
   62.3220   34.7330   49.1970 O   0  0  0  0  0  0  0  0  0  0  0  0
   61.2110   34.1480   49.8480 C   0  0  0  0  0  0  0  0  0  0  0  0
   60.0510   33.9410   48.8680 C   0  0  0  0  0  0  0  0  0  0  0  0
   59.0430   31.2510   47.3660 C   0  0  0  0  0  0  0  0  0  0  0  0
   58.1750   30.5150   46.5600 C   0  0  0  0  0  0  0  0  0  0  0  0
   57.8660   30.9490   45.2660 C   0  0  0  0  0  0  0  0  0  0  0  0
   56.7680   29.9840   44.2660 S   0  0  0  0  0  0  0  0  0  0  0  0
   56.9810   30.2790   42.8080 O   0  0  0  0  0  0  0  0  0  0  0  0
   55.3490   30.3200   44.6300 O   0  0  0  0  0  0  0  0  0  0  0  0
   57.0230   28.2890   44.5370 N   0  0  0  0  0  0  0  0  0  0  0  0
   58.2090   27.7530   45.1590 C   0  0  0  0  0  0  0  0  0  0  0  0
   59.4480   28.4070   45.0040 C   0  0  0  0  0  0  0  0  0  0  0  0
   60.5970   27.9140   45.6230 C   0  0  0  0  0  0  0  0  0  0  0  0
   60.5300   26.7650   46.4070 C   0  0  0  0  0  0  0  0  0  0  0  0
   59.3140   26.1020   46.5740 C   0  0  0  0  0  0  0  0  0  0  0  0
   58.1460   26.5820   45.9580 C   0  0  0  0  0  0  0  0  0  0  0  0
   56.6340   25.6840   46.1720 S   0  0  0  0  0  0  0  0  0  0  0  0
   55.2640   26.7200   45.9690 N   0  0  0  0  0  0  0  0  0  0  0  0
   56.5600   24.5760   45.1590 O   0  0  0  0  0  0  0  0  0  0  0  0
   56.5890   25.1060   47.5590 O   0  0  0  0  0  0  0  0  0  0  0  0
   57.6506   33.6838   43.5330 H   0  0  0  0  0  0  0  0  0  0  0  0
   59.0962   32.8306   42.8936 H   0  0  0  0  0  0  0  0  0  0  0  0
   57.4972   32.0121   42.8936 H   0  0  0  0  0  0  0  0  0  0  0  0
   62.1841   32.7910   46.4607 H   0  0  0  0  0  0  0  0  0  0  0  0
   61.7157   34.5299   46.5329 H   0  0  0  0  0  0  0  0  0  0  0  0
   63.0543   32.8706   48.7274 H   0  0  0  0  0  0  0  0  0  0  0  0
   63.7517   34.2592   47.8064 H   0  0  0  0  0  0  0  0  0  0  0  0
   61.5089   33.1745   50.2645 H   0  0  0  0  0  0  0  0  0  0  0  0
   60.8778   34.8228   50.6503 H   0  0  0  0  0  0  0  0  0  0  0  0
   59.2635   33.3493   49.3576 H   0  0  0  0  0  0  0  0  0  0  0  0
   59.6545   34.9229   48.5703 H   0  0  0  0  0  0  0  0  0  0  0  0
   59.2835   30.9037   48.3817 H   0  0  0  0  0  0  0  0  0  0  0  0
   57.7296   29.5857   46.9446 H   0  0  0  0  0  0  0  0  0  0  0  0
   56.2750   27.6490   44.1930 H   0  0  0  0  0  0  0  0  0  0  0  0
   59.5097   29.3163   44.3881 H   0  0  0  0  0  0  0  0  0  0  0  0
   61.5575   28.4338   45.4916 H   0  0  0  0  0  0  0  0  0  0  0  0
   61.4372   26.3796   46.8953 H   0  0  0  0  0  0  0  0  0  0  0  0
   59.2692   25.1945   47.1940 H   0  0  0  0  0  0  0  0  0  0  0  0
   55.0090   27.0840   46.9150 H   0  0  0  0  0  0  0  0  0  0  0  0
  1  2  1  0
  2  3  2  0
  3  4  1  0
  4  5  1  0
  5  6  1  0
  6  7  1  0
  7  8  1  0
  8  9  1  0
  9 10  1  0
  4 11  2  0
 11 12  1  0
 12 13  2  0
 13 14  1  0
 14 15  2  0
 14 16  2  0
 14 17  1  0
 17 18  1  0
 18 19  2  0
 19 20  1  0
 20 21  2  0
 21 22  1  0
 22 23  2  0
 23 24  1  0
 24 25  1  0
 24 26  2  0
 24 27  2  0
 13  2  1  0
 23 18  1  0
 10  5  1  0
  1 28  1  0
  1 29  1  0
  1 30  1  0
  6 31  1  0
  6 32  1  0
  7 33  1  0
  7 34  1  0
  9 35  1  0
  9 36  1  0
 10 37  1  0
 10 38  1  0
 11 39  1  0
 12 40  1  0
 17 41  1  0
 19 42  1  0
 20 43  1  0
 21 44  1  0
 22 45  1  0
 25 46  1  0
M  CHG  1  25  -1
M  END
>  <UniqueID>  (36) 
35

>  <SMILES>  (36) 
Cc1nc(N2CCOCC2)ccc1S(=O)(=O)Nc1ccccc1S([NH-])(=O)=O

>  <Energy>  (36) 
58.06962863138916

>  <Genealogy>  (36) 
Cc1nc(N2CCOCC2)ccc1S(=O)(=O)Nc1ccccc1S([NH-])(=O)=O (protonated)
Cc1nc(N2CCOCC2)ccc1S(=O)(=O)Nc1ccccc1S([NH-])(=O)=O (3D coordinates assigned)
Cc1nc(N2CCOCC2)ccc1S(=O)(=O)Nc1ccccc1S([NH-])(=O)=O (nonaromatic ring conformer: 58.06962863138916 kcal/mol)

>  <smiles>  (36) 
Cc1nc(N2CCOCC2)ccc1S(=O)(=O)Nc1ccccc1S(N)(=O)=O

>  <score_type>  (36) 
oracle

>  <origin>  (36) 
adg

>  <m_score__min__energy>  (36) 
-12.57

>  <m_primary>  (36) 
energy

$$$$
36:0
     RDKit          3D

 49 51  0  0  0  0  0  0  0  0999 V2000
   59.2000   29.6890   50.4440 C   0  0  0  0  0  0  0  0  0  0  0  0
   60.5970   30.2480   50.3290 C   0  0  0  0  0  0  0  0  0  0  0  0
   61.3910   30.3080   51.4810 C   0  0  0  0  0  0  0  0  0  0  0  0
   62.7050   30.7460   51.3910 C   0  0  0  0  0  0  0  0  0  0  0  0
   63.2010   31.1630   50.2020 N   0  0  0  0  0  0  0  0  0  0  0  0
   62.4700   31.1810   49.0570 C   0  0  0  0  0  0  0  0  0  0  0  0
   63.0580   31.6590   47.9920 N   0  0  0  0  0  0  0  0  0  0  0  0
   63.0780   32.9990   47.4850 C   0  0  0  0  0  0  0  0  0  0  0  0
   63.7390   33.2720   46.4460 O   0  0  0  0  0  0  0  0  0  0  0  0
   62.1960   34.0370   48.0960 C   0  0  0  0  0  0  0  0  0  0  0  0
   60.8810   34.0760   47.3890 C   0  0  0  0  0  0  0  0  0  0  0  0
   60.6810   33.8660   46.0280 C   0  0  0  0  0  0  0  0  0  0  0  0
   59.3510   34.0420   45.6350 C   0  0  0  0  0  0  0  0  0  0  0  0
   58.5070   34.4020   46.6790 C   0  0  0  0  0  0  0  0  0  0  0  0
   59.4160   34.5070   48.0920 S   0  0  0  0  0  0  0  0  0  0  0  0
   61.1300   30.6780   49.0860 C   0  0  0  0  0  0  0  0  0  0  0  0
   60.3540   30.4190   47.8490 C   0  0  0  0  0  0  0  0  0  0  0  0
   59.1840   31.1500   47.5910 C   0  0  0  0  0  0  0  0  0  0  0  0
   58.4300   30.8900   46.4450 C   0  0  0  0  0  0  0  0  0  0  0  0
   58.8470   29.9130   45.5300 C   0  0  0  0  0  0  0  0  0  0  0  0
   57.9980   29.5880   44.3300 C   0  0  0  0  0  0  0  0  0  0  0  0
   56.5410   29.5690   44.7140 C   0  0  0  0  0  0  0  0  0  0  0  0
   55.8570   30.6170   44.5500 O   0  0  0  0  0  0  0  0  0  0  0  0
   55.8920   28.4100   45.2510 N   0  0  0  0  0  0  0  0  0  0  0  0
   56.6710   27.0080   45.9190 S   0  0  0  0  0  0  0  0  0  0  0  0
   57.7620   26.2750   44.7130 C   0  0  0  0  0  0  0  0  0  0  0  0
   55.6450   26.0100   46.3760 O   0  0  0  0  0  0  0  0  0  0  0  0
   57.4900   27.4320   47.1050 O   0  0  0  0  0  0  0  0  0  0  0  0
   60.0270   29.1940   45.7800 C   0  0  0  0  0  0  0  0  0  0  0  0
   60.7810   29.4510   46.9270 C   0  0  0  0  0  0  0  0  0  0  0  0
   58.9339   29.5825   51.5060 H   0  0  0  0  0  0  0  0  0  0  0  0
   58.4902   30.3724   49.9549 H   0  0  0  0  0  0  0  0  0  0  0  0
   59.1575   28.7046   49.9549 H   0  0  0  0  0  0  0  0  0  0  0  0
   60.9746   30.0089   52.4542 H   0  0  0  0  0  0  0  0  0  0  0  0
   63.3440   30.7544   52.2863 H   0  0  0  0  0  0  0  0  0  0  0  0
   62.0315   33.7959   49.1566 H   0  0  0  0  0  0  0  0  0  0  0  0
   62.6818   35.0198   48.0058 H   0  0  0  0  0  0  0  0  0  0  0  0
   61.4871   33.5897   45.3324 H   0  0  0  0  0  0  0  0  0  0  0  0
   59.0057   33.9084   44.5992 H   0  0  0  0  0  0  0  0  0  0  0  0
   57.4259   34.5873   46.5958 H   0  0  0  0  0  0  0  0  0  0  0  0
   58.8597   31.9309   48.2945 H   0  0  0  0  0  0  0  0  0  0  0  0
   57.5043   31.4544   46.2591 H   0  0  0  0  0  0  0  0  0  0  0  0
   58.1593   30.3502   43.5534 H   0  0  0  0  0  0  0  0  0  0  0  0
   58.2816   28.5965   43.9472 H   0  0  0  0  0  0  0  0  0  0  0  0
   58.5683   25.7333   45.2293 H   0  0  0  0  0  0  0  0  0  0  0  0
   57.1944   25.5743   44.0830 H   0  0  0  0  0  0  0  0  0  0  0  0
   58.1961   27.0653   44.0830 H   0  0  0  0  0  0  0  0  0  0  0  0
   60.3593   28.4239   45.0683 H   0  0  0  0  0  0  0  0  0  0  0  0
   61.7117   28.8934   47.1082 H   0  0  0  0  0  0  0  0  0  0  0  0
  1  2  1  0
  2  3  1  0
  3  4  2  0
  4  5  1  0
  5  6  1  0
  6  7  2  3
  7  8  1  0
  8  9  2  0
  8 10  1  0
 10 11  1  0
 11 12  2  0
 12 13  1  0
 13 14  2  0
 14 15  1  0
  6 16  1  0
 16 17  1  0
 17 18  2  0
 18 19  1  0
 19 20  2  0
 20 21  1  0
 21 22  1  0
 22 23  2  0
 22 24  1  0
 24 25  1  0
 25 26  1  0
 25 27  2  0
 25 28  2  0
 20 29  1  0
 29 30  2  0
 16  2  2  0
 30 17  1  0
 15 11  1  0
  1 31  1  0
  1 32  1  0
  1 33  1  0
  3 34  1  0
  4 35  1  0
 10 36  1  0
 10 37  1  0
 12 38  1  0
 13 39  1  0
 14 40  1  0
 18 41  1  0
 19 42  1  0
 21 43  1  0
 21 44  1  0
 26 45  1  0
 26 46  1  0
 26 47  1  0
 29 48  1  0
 30 49  1  0
M  CHG  2   5  -1  24  -1
M  END
>  <UniqueID>  (37) 
36

>  <SMILES>  (37) 
Cc1cc[n-]c(=NC(=O)Cc2cccs2)c1-c1ccc(CC(=O)[N-]S(C)(=O)=O)cc1

>  <Energy>  (37) 
94.53111279179966

>  <Genealogy>  (37) 
Cc1cc[n-]c(=NC(=O)Cc2cccs2)c1-c1ccc(CC(=O)[N-]S(C)(=O)=O)cc1 (protonated)
Cc1cc[n-]c(=NC(=O)Cc2cccs2)c1-c1ccc(CC(=O)[N-]S(C)(=O)=O)cc1 (3D coordinates assigned)
Cc1cc[n-]c(=NC(=O)Cc2cccs2)c1-c1ccc(CC(=O)[N-]S(C)(=O)=O)cc1 (optimized conformer: 94.53111279179966 kcal/mol)

>  <smiles>  (37) 
Cc1cc[nH]c(=NC(=O)Cc2cccs2)c1-c1ccc(CC(=O)NS(C)(=O)=O)cc1

>  <score_type>  (37) 
oracle

>  <origin>  (37) 
adg

>  <m_score__min__energy>  (37) 
-11.890000000000001

>  <m_primary>  (37) 
energy

$$$$
37:0
     RDKit          3D

 44 46  0  0  0  0  0  0  0  0999 V2000
   59.6480   26.0360   45.8150 O   0  0  0  0  0  0  0  0  0  0  0  0
   58.7760   26.7360   45.2320 C   0  0  0  0  0  0  0  0  0  0  0  0
   58.8000   28.2230   45.4120 C   0  0  0  0  0  0  0  0  0  0  0  0
   57.3660   28.9740   44.6560 S   0  0  0  0  0  0  0  0  0  0  0  0
   57.3810   28.6640   43.1860 O   0  0  0  0  0  0  0  0  0  0  0  0
   56.1110   28.4120   45.2610 O   0  0  0  0  0  0  0  0  0  0  0  0
   57.3840   30.7150   44.8760 C   0  0  0  0  0  0  0  0  0  0  0  0
   56.2750   31.4860   44.8640 N   0  0  0  0  0  0  0  0  0  0  0  0
   56.7860   32.7140   45.0910 C   0  0  0  0  0  0  0  0  0  0  0  0
   58.1230   32.6700   45.2390 N   0  0  0  0  0  0  0  0  0  0  0  0
   58.9970   33.7910   45.4540 C   0  0  0  0  0  0  0  0  0  0  0  0
   59.6820   34.2310   44.4930 O   0  0  0  0  0  0  0  0  0  0  0  0
   59.1340   34.4290   46.7340 N   0  0  0  0  0  0  0  0  0  0  0  0
   59.6110   33.8280   47.9790 C   0  0  0  0  0  0  0  0  0  0  0  0
   61.1130   33.7170   47.9760 C   0  0  0  0  0  0  0  0  0  0  0  0
   61.8050   33.5600   46.7640 C   0  0  0  0  0  0  0  0  0  0  0  0
   63.1990   33.4430   46.7560 C   0  0  0  0  0  0  0  0  0  0  0  0
   63.9100   33.4730   47.9580 C   0  0  0  0  0  0  0  0  0  0  0  0
   63.2300   33.6180   49.1700 C   0  0  0  0  0  0  0  0  0  0  0  0
   61.8370   33.7360   49.1810 C   0  0  0  0  0  0  0  0  0  0  0  0
   58.5060   31.4180   45.0980 N   0  0  0  0  0  0  0  0  0  0  0  0
   57.7220   26.1190   44.4730 N   0  0  0  0  0  0  0  0  0  0  0  0
   57.5380   24.6980   44.3500 C   0  0  0  0  0  0  0  0  0  0  0  0
   56.7540   24.1400   43.3230 C   0  0  0  0  0  0  0  0  0  0  0  0
   56.6130   22.7520   43.2180 C   0  0  0  0  0  0  0  0  0  0  0  0
   57.2350   21.9110   44.1440 C   0  0  0  0  0  0  0  0  0  0  0  0
   57.9880   22.4580   45.1850 C   0  0  0  0  0  0  0  0  0  0  0  0
   58.1280   23.8440   45.2970 C   0  0  0  0  0  0  0  0  0  0  0  0
   58.8055   28.4565   46.4869 H   0  0  0  0  0  0  0  0  0  0  0  0
   59.7042   28.6230   44.9299 H   0  0  0  0  0  0  0  0  0  0  0  0
   56.1860   33.6342   45.1479 H   0  0  0  0  0  0  0  0  0  0  0  0
   59.2971   34.4555   48.8262 H   0  0  0  0  0  0  0  0  0  0  0  0
   59.1823   32.8192   48.0714 H   0  0  0  0  0  0  0  0  0  0  0  0
   61.2479   33.5289   45.8160 H   0  0  0  0  0  0  0  0  0  0  0  0
   63.7355   33.3273   45.8027 H   0  0  0  0  0  0  0  0  0  0  0  0
   65.0062   33.3824   47.9504 H   0  0  0  0  0  0  0  0  0  0  0  0
   63.7910   33.6393   50.1160 H   0  0  0  0  0  0  0  0  0  0  0  0
   61.3046   33.8443   50.1375 H   0  0  0  0  0  0  0  0  0  0  0  0
   56.9540   26.7380   44.1280 H   0  0  0  0  0  0  0  0  0  0  0  0
   56.2500   24.7980   42.5998 H   0  0  0  0  0  0  0  0  0  0  0  0
   56.0108   22.3218   42.4042 H   0  0  0  0  0  0  0  0  0  0  0  0
   57.1318   20.8196   44.0532 H   0  0  0  0  0  0  0  0  0  0  0  0
   58.4721   21.7965   45.9185 H   0  0  0  0  0  0  0  0  0  0  0  0
   58.7040   24.2692   46.1322 H   0  0  0  0  0  0  0  0  0  0  0  0
  1  2  2  0
  2  3  1  0
  3  4  1  0
  4  5  2  0
  4  6  2  0
  4  7  1  0
  7  8  1  0
  8  9  2  0
  9 10  1  0
 10 11  1  0
 11 12  2  0
 11 13  1  0
 13 14  1  0
 14 15  1  0
 15 16  2  0
 16 17  1  0
 17 18  2  0
 18 19  1  0
 19 20  2  0
 10 21  1  0
  2 22  1  0
 22 23  1  0
 23 24  2  0
 24 25  1  0
 25 26  2  0
 26 27  1  0
 27 28  2  0
 21  7  2  0
 28 23  1  0
 20 15  1  0
  3 29  1  0
  3 30  1  0
  9 31  1  0
 14 32  1  0
 14 33  1  0
 16 34  1  0
 17 35  1  0
 18 36  1  0
 19 37  1  0
 20 38  1  0
 22 39  1  0
 24 40  1  0
 25 41  1  0
 26 42  1  0
 27 43  1  0
 28 44  1  0
M  CHG  1  13  -1
M  END
>  <UniqueID>  (38) 
37

>  <SMILES>  (38) 
O=C(CS(=O)(=O)c1ncn(C(=O)[N-]Cc2ccccc2)n1)Nc1ccccc1

>  <Energy>  (38) 
74.05223208664835

>  <Genealogy>  (38) 
O=C(CS(=O)(=O)c1ncn(C(=O)[N-]Cc2ccccc2)n1)Nc1ccccc1 (protonated)
O=C(CS(=O)(=O)c1ncn(C(=O)[N-]Cc2ccccc2)n1)Nc1ccccc1 (3D coordinates assigned)
O=C(CS(=O)(=O)c1ncn(C(=O)[N-]Cc2ccccc2)n1)Nc1ccccc1 (optimized conformer: 74.05223208664835 kcal/mol)

>  <smiles>  (38) 
O=C(CS(=O)(=O)c1ncn(C(=O)NCc2ccccc2)n1)Nc1ccccc1

>  <score_type>  (38) 
oracle

>  <origin>  (38) 
adg

>  <m_score__min__energy>  (38) 
-9.75

>  <m_primary>  (38) 
energy

$$$$
38:0
     RDKit          3D

 51 54  0  0  0  0  0  0  0  0999 V2000
   49.9970   22.7600   45.1260 C   0  0  0  0  0  0  0  0  0  0  0  0
   51.3030   22.4710   45.7840 C   0  0  0  0  0  0  0  0  0  0  0  0
   52.4950   22.8250   45.2610 N   0  0  0  0  0  0  0  0  0  0  0  0
   53.5430   22.3870   46.0160 C   0  0  0  0  0  0  0  0  0  0  0  0
   54.9490   22.6680   45.6250 C   0  0  0  0  0  0  0  0  0  0  0  0
   55.8160   21.6400   45.2080 C   0  0  0  0  0  0  0  0  0  0  0  0
   57.1290   21.9290   44.8290 C   0  0  0  0  0  0  0  0  0  0  0  0
   57.5990   23.2410   44.8750 C   0  0  0  0  0  0  0  0  0  0  0  0
   56.7680   24.2770   45.3180 C   0  0  0  0  0  0  0  0  0  0  0  0
   57.2720   25.6230   45.3380 N   0  0  0  0  0  0  0  0  0  0  0  0
   56.5350   26.7510   45.8420 C   0  0  0  0  0  0  0  0  0  0  0  0
   55.3870   26.5910   46.3400 O   0  0  0  0  0  0  0  0  0  0  0  0
   57.1030   28.1150   45.7820 C   0  0  0  0  0  0  0  0  0  0  0  0
   58.3730   28.3520   46.3360 C   0  0  0  0  0  0  0  0  0  0  0  0
   58.9460   29.6300   46.2870 C   0  0  0  0  0  0  0  0  0  0  0  0
   60.5460   29.9130   46.9730 S   0  0  0  0  0  0  0  0  0  0  0  0
   60.8350   28.8390   47.9860 O   0  0  0  0  0  0  0  0  0  0  0  0
   61.5770   29.8030   45.8840 O   0  0  0  0  0  0  0  0  0  0  0  0
   60.6790   31.4800   47.7440 N   0  0  0  0  0  0  0  0  0  0  0  0
   61.5800   31.4630   48.9130 C   0  0  0  0  0  0  0  0  0  0  0  0
   63.0740   31.5950   48.5300 C   0  0  0  0  0  0  0  0  0  0  0  0
   63.2750   31.9130   47.1660 O   0  0  0  0  0  0  0  0  0  0  0  0
   62.4520   32.9960   46.8060 C   0  0  0  0  0  0  0  0  0  0  0  0
   60.9750   32.5670   46.7860 C   0  0  0  0  0  0  0  0  0  0  0  0
   58.2420   30.6800   45.6860 C   0  0  0  0  0  0  0  0  0  0  0  0
   56.9870   30.4510   45.1180 C   0  0  0  0  0  0  0  0  0  0  0  0
   56.4200   29.1740   45.1500 C   0  0  0  0  0  0  0  0  0  0  0  0
   55.1950   28.9650   44.5260 O   0  0  0  0  0  0  0  0  0  0  0  0
   55.4380   23.9870   45.6720 C   0  0  0  0  0  0  0  0  0  0  0  0
   53.1690   21.6540   47.1490 C   0  0  0  0  0  0  0  0  0  0  0  0
   51.4900   21.5670   47.1850 S   0  0  0  0  0  0  0  0  0  0  0  0
   49.2288   22.9300   45.8947 H   0  0  0  0  0  0  0  0  0  0  0  0
   50.0933   23.6586   44.4989 H   0  0  0  0  0  0  0  0  0  0  0  0
   49.7052   21.9047   44.4989 H   0  0  0  0  0  0  0  0  0  0  0  0
   55.4564   20.6008   45.1804 H   0  0  0  0  0  0  0  0  0  0  0  0
   57.7939   21.1195   44.4934 H   0  0  0  0  0  0  0  0  0  0  0  0
   58.6295   23.4635   44.5611 H   0  0  0  0  0  0  0  0  0  0  0  0
   58.2530   25.7710   45.0080 H   0  0  0  0  0  0  0  0  0  0  0  0
   58.9222   27.5266   46.8125 H   0  0  0  0  0  0  0  0  0  0  0  0
   61.3125   32.3010   49.5734 H   0  0  0  0  0  0  0  0  0  0  0  0
   61.4536   30.4901   49.4105 H   0  0  0  0  0  0  0  0  0  0  0  0
   63.5231   32.3896   49.1438 H   0  0  0  0  0  0  0  0  0  0  0  0
   63.5446   30.6172   48.7099 H   0  0  0  0  0  0  0  0  0  0  0  0
   62.5831   33.8085   47.5358 H   0  0  0  0  0  0  0  0  0  0  0  0
   62.7362   33.3399   45.8005 H   0  0  0  0  0  0  0  0  0  0  0  0
   60.3530   33.4379   47.0401 H   0  0  0  0  0  0  0  0  0  0  0  0
   60.7549   32.1874   45.7773 H   0  0  0  0  0  0  0  0  0  0  0  0
   58.6789   31.6892   45.6610 H   0  0  0  0  0  0  0  0  0  0  0  0
   56.4419   31.2800   44.6430 H   0  0  0  0  0  0  0  0  0  0  0  0
   54.7711   24.8020   45.9899 H   0  0  0  0  0  0  0  0  0  0  0  0
   53.8543   21.2119   47.8872 H   0  0  0  0  0  0  0  0  0  0  0  0
  1  2  1  0
  2  3  2  0
  3  4  1  0
  4  5  1  0
  5  6  2  0
  6  7  1  0
  7  8  2  0
  8  9  1  0
  9 10  1  0
 10 11  1  0
 11 12  2  0
 11 13  1  0
 13 14  2  0
 14 15  1  0
 15 16  1  0
 16 17  2  0
 16 18  2  0
 16 19  1  0
 19 20  1  0
 20 21  1  0
 21 22  1  0
 22 23  1  0
 23 24  1  0
 15 25  2  0
 25 26  1  0
 26 27  2  0
 27 28  1  0
  9 29  2  0
  4 30  2  0
 30 31  1  0
 31  2  1  0
 29  5  1  0
 27 13  1  0
 24 19  1  0
  1 32  1  0
  1 33  1  0
  1 34  1  0
  6 35  1  0
  7 36  1  0
  8 37  1  0
 10 38  1  0
 14 39  1  0
 20 40  1  0
 20 41  1  0
 21 42  1  0
 21 43  1  0
 23 44  1  0
 23 45  1  0
 24 46  1  0
 24 47  1  0
 25 48  1  0
 26 49  1  0
 29 50  1  0
 30 51  1  0
M  CHG  1  28  -1
M  END
>  <UniqueID>  (39) 
38

>  <SMILES>  (39) 
Cc1nc(-c2cccc(NC(=O)c3cc(S(=O)(=O)N4CCOCC4)ccc3[O-])c2)cs1

>  <Energy>  (39) 
103.98255477697408

>  <Genealogy>  (39) 
Cc1nc(-c2cccc(NC(=O)c3cc(S(=O)(=O)N4CCOCC4)ccc3[O-])c2)cs1 (protonated)
Cc1nc(-c2cccc(NC(=O)c3cc(S(=O)(=O)N4CCOCC4)ccc3[O-])c2)cs1 (3D coordinates assigned)
Cc1nc(-c2cccc(NC(=O)c3cc(S(=O)(=O)N4CCOCC4)ccc3[O-])c2)cs1 (nonaromatic ring conformer: 103.98255477697408 kcal/mol)

>  <smiles>  (39) 
Cc1nc(-c2cccc(NC(=O)c3cc(S(=O)(=O)N4CCOCC4)ccc3O)c2)cs1

>  <score_type>  (39) 
oracle

>  <origin>  (39) 
adg

>  <m_score__min__energy>  (39) 
-12.75

>  <m_primary>  (39) 
energy

$$$$
39:0
     RDKit          3D

 67 70  0  0  0  0  0  0  0  0999 V2000
   58.0465   29.7102   43.0575 H   0  0  0  0  0  0  0  0  0  0  0  0
   57.9460   30.5670   43.7400 C   0  0  0  0  0  0  0  0  0  0  0  0
   57.9110   30.3650   45.1320 C   0  0  0  0  0  0  0  0  0  0  0  0
   57.9860   29.0070   45.7330 C   0  0  0  0  0  0  0  0  0  0  0  0
   57.0870   27.9870   45.3690 C   0  0  0  0  0  0  0  0  0  0  0  0
   56.2982   28.1918   44.6302 H   0  0  0  0  0  0  0  0  0  0  0  0
   57.1900   26.7160   45.9400 C   0  0  0  0  0  0  0  0  0  0  0  0
   56.4794   25.9273   45.6519 H   0  0  0  0  0  0  0  0  0  0  0  0
   58.1910   26.4420   46.8750 C   0  0  0  0  0  0  0  0  0  0  0  0
   58.2736   25.4362   47.3126 H   0  0  0  0  0  0  0  0  0  0  0  0
   59.0900   27.4470   47.2560 C   0  0  0  0  0  0  0  0  0  0  0  0
   60.1900   27.1490   48.2310 C   0  0  0  0  0  0  0  0  0  0  0  0
   59.8082   27.2524   49.2574 H   0  0  0  0  0  0  0  0  0  0  0  0
   60.5494   26.1211   48.0753 H   0  0  0  0  0  0  0  0  0  0  0  0
   61.0191   27.8549   48.0753 H   0  0  0  0  0  0  0  0  0  0  0  0
   58.9920   28.7190   46.6740 C   0  0  0  0  0  0  0  0  0  0  0  0
   59.7110   29.5021   46.9567 H   0  0  0  0  0  0  0  0  0  0  0  0
   57.7680   31.4450   45.9500 N   0  0  0  0  0  0  0  0  0  0  0  0
   57.6620   32.7180   45.4780 C   0  0  0  0  0  0  0  0  0  0  0  0
   57.4900   33.7200   46.2920 N   0  0  0  0  0  0  0  0  0  0  0  0
   58.5090   34.2370   47.2070 C   0  0  0  0  0  0  0  0  0  0  0  0
   58.9059   35.1816   46.8069 H   0  0  0  0  0  0  0  0  0  0  0  0
   58.0461   34.4001   48.1914 H   0  0  0  0  0  0  0  0  0  0  0  0
   59.6400   33.2550   47.3650 C   0  0  0  0  0  0  0  0  0  0  0  0
   60.8800   33.3660   46.7640 C   0  0  0  0  0  0  0  0  0  0  0  0
   61.2230   34.1333   46.0544 H   0  0  0  0  0  0  0  0  0  0  0  0
   61.5860   32.2930   47.2600 C   0  0  0  0  0  0  0  0  0  0  0  0
   62.9250   32.0200   46.9710 O   0  0  0  0  0  0  0  0  0  0  0  0
   63.9560   33.0000   47.0750 C   0  0  0  0  0  0  0  0  0  0  0  0
   64.9298   32.4920   47.1356 H   0  0  0  0  0  0  0  0  0  0  0  0
   63.9129   33.6483   46.1874 H   0  0  0  0  0  0  0  0  0  0  0  0
   63.7660   33.8710   48.3250 C   0  0  0  0  0  0  0  0  0  0  0  0
   64.3842   34.7755   48.2266 H   0  0  0  0  0  0  0  0  0  0  0  0
   62.6996   34.1290   48.4042 H   0  0  0  0  0  0  0  0  0  0  0  0
   64.1760   33.1230   49.6090 C   0  0  0  0  0  0  0  0  0  0  0  0
   65.1659   32.6697   49.4520 H   0  0  0  0  0  0  0  0  0  0  0  0
   64.1907   33.8542   50.4306 H   0  0  0  0  0  0  0  0  0  0  0  0
   63.2170   32.0540   49.9760 N   0  0  0  0  0  0  0  0  0  0  0  0
   62.7030   31.7380   49.1190 H   0  0  0  0  0  0  0  0  0  0  0  0
   63.9460   30.8940   50.5170 C   0  0  0  0  0  0  0  0  0  0  0  0
   63.9248   30.9277   51.6163 H   0  0  0  0  0  0  0  0  0  0  0  0
   63.4684   29.9661   50.1694 H   0  0  0  0  0  0  0  0  0  0  0  0
   64.9892   30.9219   50.1694 H   0  0  0  0  0  0  0  0  0  0  0  0
   62.2310   32.5230   50.9680 C   0  0  0  0  0  0  0  0  0  0  0  0
   62.6157   32.3400   51.9822 H   0  0  0  0  0  0  0  0  0  0  0  0
   62.0568   33.6004   50.8308 H   0  0  0  0  0  0  0  0  0  0  0  0
   61.2852   31.9783   50.8308 H   0  0  0  0  0  0  0  0  0  0  0  0
   60.8180   31.5580   48.0860 N   0  0  0  0  0  0  0  0  0  0  0  0
   59.6340   32.1490   48.1470 N   0  0  0  0  0  0  0  0  0  0  0  0
   58.5250   31.6160   48.9370 C   0  0  0  0  0  0  0  0  0  0  0  0
   57.5831   31.7672   48.3893 H   0  0  0  0  0  0  0  0  0  0  0  0
   58.6907   30.5424   49.1097 H   0  0  0  0  0  0  0  0  0  0  0  0
   58.4470   32.3200   50.2630 C   0  0  0  0  0  0  0  0  0  0  0  0
   59.2720   33.4240   50.5410 C   0  0  0  0  0  0  0  0  0  0  0  0
   59.9910   33.7753   49.7862 H   0  0  0  0  0  0  0  0  0  0  0  0
   59.1810   34.0770   51.7750 C   0  0  0  0  0  0  0  0  0  0  0  0
   59.8266   34.9420   51.9869 H   0  0  0  0  0  0  0  0  0  0  0  0
   58.2720   33.6330   52.7390 C   0  0  0  0  0  0  0  0  0  0  0  0
   58.2042   34.1472   53.7091 H   0  0  0  0  0  0  0  0  0  0  0  0
   57.4500   32.5370   52.4710 C   0  0  0  0  0  0  0  0  0  0  0  0
   56.7344   32.1886   53.2303 H   0  0  0  0  0  0  0  0  0  0  0  0
   57.5350   31.8810   51.2380 C   0  0  0  0  0  0  0  0  0  0  0  0
   56.8852   31.0179   51.0309 H   0  0  0  0  0  0  0  0  0  0  0  0
   57.7100   32.9470   44.1000 C   0  0  0  0  0  0  0  0  0  0  0  0
   57.6365   33.9707   43.7042 H   0  0  0  0  0  0  0  0  0  0  0  0
   57.8520   31.8650   43.2320 C   0  0  0  0  0  0  0  0  0  0  0  0
   57.8901   32.0337   42.1457 H   0  0  0  0  0  0  0  0  0  0  0  0
  1  2  1  0
  2  3  2  0
  3  4  1  0
  4  5  2  0
  5  6  1  0
  5  7  1  0
  7  8  1  0
  7  9  2  0
  9 10  1  0
  9 11  1  0
 11 12  1  0
 12 13  1  0
 12 14  1  0
 12 15  1  0
 11 16  2  0
 16 17  1  0
  3 18  1  0
 18 19  1  0
 19 20  2  0
 20 21  1  0
 21 22  1  0
 21 23  1  0
 21 24  1  0
 24 25  2  0
 25 26  1  0
 25 27  1  0
 27 28  1  0
 28 29  1  0
 29 30  1  0
 29 31  1  0
 29 32  1  0
 32 33  1  0
 32 34  1  0
 32 35  1  0
 35 36  1  0
 35 37  1  0
 35 38  1  0
 38 39  1  0
 38 40  1  0
 40 41  1  0
 40 42  1  0
 40 43  1  0
 38 44  1  0
 44 45  1  0
 44 46  1  0
 44 47  1  0
 27 48  2  0
 48 49  1  0
 49 50  1  0
 50 51  1  0
 50 52  1  0
 50 53  1  0
 53 54  2  0
 54 55  1  0
 54 56  1  0
 56 57  1  0
 56 58  2  0
 58 59  1  0
 58 60  1  0
 60 61  1  0
 60 62  2  0
 62 63  1  0
 19 64  1  0
 64 65  1  0
 64 66  2  0
 66 67  1  0
 66  2  1  0
 16  4  1  0
 49 24  1  0
 62 53  1  0
M  CHG  2  18  -1  38   1
M  END
>  <UniqueID>  (40) 
39

>  <SMILES>  (40) 
Cc1cccc(-c2ccc/c(=N/Cc3cc(OCCC[NH+](C)C)nn3Cc3ccccc3)[n-]2)c1

>  <Energy>  (40) 
91.94214280507816

>  <Genealogy>  (40) 
Cc1cccc(-c2cccc(=NCc3cc(OCCC[NH+](C)C)nn3Cc3ccccc3)[n-]2)c1 (protonated)
Cc1cccc(-c2ccc/c(=N/Cc3cc(OCCC[NH+](C)C)nn3Cc3ccccc3)[n-]2)c1 (cis-trans isomerization)
Cc1cccc(-c2ccc/c(=N/Cc3cc(OCCC[NH+](C)C)nn3Cc3ccccc3)[n-]2)c1 (3D coordinates assigned)
Cc1cccc(-c2ccc/c(=N/Cc3cc(OCCC[NH+](C)C)nn3Cc3ccccc3)[n-]2)c1 (optimized conformer: 91.94214280507816 kcal/mol)

>  <smiles>  (40) 
Cc1cccc(-c2cccc(=NCc3cc(OCCCN(C)C)nn3Cc3ccccc3)[nH]2)c1

>  <score_type>  (40) 
oracle

>  <origin>  (40) 
adg

>  <m_score__min__energy>  (40) 
-10.119999999999999

>  <m_primary>  (40) 
energy

$$$$
40:0
     RDKit          3D

 76 80  0  0  1  0  0  0  0  0999 V2000
   58.4210   28.3580   44.8160 C   0  0  0  0  0  0  0  0  0  0  0  0
   57.8750   28.4150   46.1130 O   0  0  0  0  0  0  0  0  0  0  0  0
   58.6820   28.5730   47.2520 C   0  0  0  0  0  0  0  0  0  0  0  0
   58.8210   29.8190   47.8680 C   0  0  0  0  0  0  0  0  0  0  0  0
   59.6180   29.8910   48.9630 C   0  0  0  0  0  0  0  0  0  0  0  0
   59.7800   31.0880   49.6020 C   0  0  0  0  0  0  0  0  0  0  0  0
   59.2720   32.1450   49.2180 N   0  0  0  0  0  0  0  0  0  0  0  0
   59.4790   32.9090   48.1170 C   0  0  0  0  0  0  0  0  0  0  0  0
   58.5220   32.9350   47.0710 C   0  0  0  0  0  0  0  0  0  0  0  0
   58.6930   33.7810   46.0000 C   0  0  0  0  0  0  0  0  0  0  0  0
   57.7840   33.8470   44.9430 O   0  0  0  0  0  0  0  0  0  0  0  0
   57.4070   32.7260   44.2370 C   0  0  0  0  0  0  0  0  0  0  0  0
   57.7690   32.7020   42.8840 C   0  0  0  0  0  0  0  0  0  0  0  0
   57.4290   31.6150   42.1090 C   0  0  0  0  0  0  0  0  0  0  0  0
   56.7340   30.5530   42.6620 C   0  0  0  0  0  0  0  0  0  0  0  0
   56.3640   30.5580   44.0120 C   0  0  0  0  0  0  0  0  0  0  0  0
   56.7160   31.6640   44.7790 C   0  0  0  0  0  0  0  0  0  0  0  0
   59.7860   34.6150   45.9150 C   0  0  0  0  0  0  0  0  0  0  0  0
   60.7210   34.5990   46.9270 C   0  0  0  0  0  0  0  0  0  0  0  0
   60.6000   33.7600   48.0400 C   0  0  0  0  0  0  0  0  0  0  0  0
   61.6330   33.8410   49.0760 C   0  0  0  0  0  0  0  0  0  0  0  0
   63.0370   33.9940   48.6060 C   0  0  0  0  0  0  0  0  0  0  0  0
   63.3960   32.8860   47.2350 S   0  0  0  0  0  0  0  0  0  0  0  0
   62.5610   31.3010   47.4450 C   0  0  0  0  0  0  0  0  0  0  0  0
   60.5810   31.1370   50.7060 N   0  0  0  0  0  0  0  0  0  0  0  0
   61.2220   30.0680   51.1960 C   0  0  0  0  0  0  0  0  0  0  0  0
   61.0550   28.8990   50.5590 N   0  0  0  0  0  0  0  0  0  0  0  0
   60.2680   28.8120   49.4610 C   0  0  0  0  0  0  0  0  0  0  0  0
   60.1510   27.5770   48.8760 C   0  0  0  0  0  0  0  0  0  0  0  0
   59.3550   27.4580   47.7670 C   0  0  0  0  0  0  0  0  0  0  0  0
   59.1250   26.3140   47.0680 O   0  0  0  0  0  0  0  0  0  0  0  0
   59.7910   25.7900   46.0080 C   0  0  0  0  0  0  0  0  0  0  0  0
   59.6040   24.3030   45.8870 C   0  0  0  0  0  0  0  0  0  0  0  0
   58.1360   23.9490   45.6930 C   0  0  0  0  0  0  0  0  0  0  0  0
   57.8100   23.3460   44.4770 N   0  0  0  0  0  0  0  0  0  0  0  0
   58.3340   22.0830   44.1370 C   0  0  0  0  0  0  0  0  0  0  0  0
   57.3510   21.2160   43.3750 C   0  0  0  0  0  0  0  0  0  0  0  0
   56.0720   21.8150   43.3760 O   0  0  0  0  0  0  0  0  0  0  0  0
   56.2230   23.0030   42.6530 C   0  0  0  0  0  0  0  0  0  0  0  0
   56.9260   23.9670   43.5860 C   0  0  0  0  0  0  0  0  0  0  0  0
   59.5130   28.2440   44.8826 H   0  0  0  0  0  0  0  0  0  0  0  0
   57.9949   27.4995   44.2762 H   0  0  0  0  0  0  0  0  0  0  0  0
   58.1815   29.2860   44.2762 H   0  0  0  0  0  0  0  0  0  0  0  0
   58.3034   30.7085   47.4795 H   0  0  0  0  0  0  0  0  0  0  0  0
   57.6413   32.2775   47.1161 H   0  0  0  0  0  0  0  0  0  0  0  0
   58.3210   33.5453   42.4434 H   0  0  0  0  0  0  0  0  0  0  0  0
   57.7110   31.5907   41.0460 H   0  0  0  0  0  0  0  0  0  0  0  0
   56.4685   29.6921   42.0309 H   0  0  0  0  0  0  0  0  0  0  0  0
   55.8125   29.7143   44.4524 H   0  0  0  0  0  0  0  0  0  0  0  0
   56.4363   31.6914   45.8425 H   0  0  0  0  0  0  0  0  0  0  0  0
   59.9107   35.2845   45.0512 H   0  0  0  0  0  0  0  0  0  0  0  0
   61.5914   35.2680   46.8575 H   0  0  0  0  0  0  0  0  0  0  0  0
   61.3985   34.7056   49.7143 H   0  0  0  0  0  0  0  0  0  0  0  0
   61.6037   32.8698   49.5916 H   0  0  0  0  0  0  0  0  0  0  0  0
   63.1930   35.0321   48.2773 H   0  0  0  0  0  0  0  0  0  0  0  0
   63.7098   33.7425   49.4391 H   0  0  0  0  0  0  0  0  0  0  0  0
   62.4475   31.0856   48.5177 H   0  0  0  0  0  0  0  0  0  0  0  0
   61.5685   31.3440   46.9727 H   0  0  0  0  0  0  0  0  0  0  0  0
   63.1577   30.5068   46.9727 H   0  0  0  0  0  0  0  0  0  0  0  0
   60.7260   32.0360   51.2200 H   0  0  0  0  0  0  0  0  0  0  0  0
   61.8616   30.1455   52.0876 H   0  0  0  0  0  0  0  0  0  0  0  0
   60.6820   26.7053   49.2861 H   0  0  0  0  0  0  0  0  0  0  0  0
   59.4218   26.2677   45.0885 H   0  0  0  0  0  0  0  0  0  0  0  0
   60.8636   25.9802   46.1606 H   0  0  0  0  0  0  0  0  0  0  0  0
   60.1788   23.9378   45.0232 H   0  0  0  0  0  0  0  0  0  0  0  0
   59.9578   23.8298   46.8149 H   0  0  0  0  0  0  0  0  0  0  0  0
   57.8461   23.2595   46.4996 H   0  0  0  0  0  0  0  0  0  0  0  0
   57.5947   24.9065   45.7051 H   0  0  0  0  0  0  0  0  0  0  0  0
   59.2272   22.2313   43.5123 H   0  0  0  0  0  0  0  0  0  0  0  0
   58.5701   21.5624   45.0768 H   0  0  0  0  0  0  0  0  0  0  0  0
   57.6972   21.0995   42.3374 H   0  0  0  0  0  0  0  0  0  0  0  0
   57.2874   20.2315   43.8616 H   0  0  0  0  0  0  0  0  0  0  0  0
   56.8308   22.8290   41.7529 H   0  0  0  0  0  0  0  0  0  0  0  0
   55.2531   23.3989   42.3173 H   0  0  0  0  0  0  0  0  0  0  0  0
   57.4943   24.6863   42.9780 H   0  0  0  0  0  0  0  0  0  0  0  0
   56.1471   24.4523   44.1925 H   0  0  0  0  0  0  0  0  0  0  0  0
  1  2  1  0
  2  3  1  0
  3  4  2  0
  4  5  1  0
  5  6  1  0
  6  7  2  0
  7  8  1  0
  8  9  2  0
  9 10  1  0
 10 11  1  0
 11 12  1  0
 12 13  2  0
 13 14  1  0
 14 15  2  0
 15 16  1  0
 16 17  2  0
 10 18  2  0
 18 19  1  0
 19 20  2  0
 20 21  1  0
 21 22  1  0
 22 23  1  0
 23 24  1  0
  6 25  1  0
 25 26  1  0
 26 27  2  0
 27 28  1  0
 28 29  1  0
 29 30  2  0
 30 31  1  0
 31 32  1  0
 32 33  1  0
 33 34  1  0
 34 35  1  0
 35 36  1  0
 36 37  1  0
 37 38  1  0
 38 39  1  0
 39 40  1  0
 30  3  1  0
 40 35  1  0
 28  5  2  0
 20  8  1  0
 17 12  1  0
  1 41  1  0
  1 42  1  0
  1 43  1  0
  4 44  1  0
  9 45  1  0
 13 46  1  0
 14 47  1  0
 15 48  1  0
 16 49  1  0
 17 50  1  0
 18 51  1  0
 19 52  1  0
 21 53  1  0
 21 54  1  0
 22 55  1  0
 22 56  1  0
 24 57  1  0
 24 58  1  0
 24 59  1  0
 25 60  1  0
 26 61  1  0
 29 62  1  0
 32 63  1  0
 32 64  1  0
 33 65  1  0
 33 66  1  0
 34 67  1  0
 34 68  1  0
 36 69  1  0
 36 70  1  0
 37 71  1  0
 37 72  1  0
 39 73  1  0
 39 74  1  0
 40 75  1  0
 40 76  1  0
M  END
>  <smiles>  (41) 
COc1cc2c(=Nc3cc(Oc4ccccc4)ccc3CCSC)[nH]cnc2cc1OCCCN1CCOCC1

>  <score_type>  (41) 
oracle

>  <origin>  (41) 
adg

>  <m_score__min__energy>  (41) 
-9.6199999999999992

>  <m_primary>  (41) 
energy

$$$$
41:0
     RDKit          3D

 32 33  0  0  0  0  0  0  0  0999 V2000
   59.4420   28.1120   44.5540 O   0  0  0  0  0  0  0  0  0  0  0  0
   58.1950   28.2010   44.7240 C   0  0  0  0  0  0  0  0  0  0  0  0
   57.4050   27.0070   44.8460 N   0  0  0  0  0  0  0  0  0  0  0  0
   57.9810   25.6650   44.7840 C   0  0  0  0  0  0  0  0  0  0  0  0
   57.0180   24.6070   45.3740 C   0  0  2  0  0  0  0  0  0  0  0  0
   56.3890   23.7720   44.3360 N   0  0  0  0  0  0  0  0  0  0  0  0
   56.0280   22.1360   44.8310 S   0  0  0  0  0  0  0  0  0  0  0  0
   55.9250   21.2660   43.6120 O   0  0  0  0  0  0  0  0  0  0  0  0
   57.0960   21.5780   45.7300 O   0  0  0  0  0  0  0  0  0  0  0  0
   54.4880   22.1100   45.6670 C   0  0  0  0  0  0  0  0  0  0  0  0
   53.5110   23.0910   45.5810 C   0  0  0  0  0  0  0  0  0  0  0  0
   52.3980   22.8220   46.3860 C   0  0  0  0  0  0  0  0  0  0  0  0
   52.5030   21.6370   47.1040 C   0  0  0  0  0  0  0  0  0  0  0  0
   53.9820   20.9200   46.7380 S   0  0  0  0  0  0  0  0  0  0  0  0
   55.9900   25.1900   46.3110 C   0  0  0  0  0  0  0  0  0  0  0  0
   55.9060   24.7980   47.5050 O   0  0  0  0  0  0  0  0  0  0  0  0
   55.0730   26.1200   45.8350 O   0  0  0  0  0  0  0  0  0  0  0  0
   57.5780   29.5440   44.7690 C   0  0  0  0  0  0  0  0  0  0  0  0
   58.2720   30.7370   44.7890 C   0  0  0  0  0  0  0  0  0  0  0  0
   57.3210   31.7350   44.8350 C   0  0  0  0  0  0  0  0  0  0  0  0
   57.6970   33.6020   44.8710 Br  0  0  0  0  0  0  0  0  0  0  0  0
   56.0730   31.2270   44.8580 N   0  0  0  0  0  0  0  0  0  0  0  0
   56.2380   29.8910   44.8230 C   0  0  0  0  0  0  0  0  0  0  0  0
   55.1690   29.0070   44.8710 O   0  0  0  0  0  0  0  0  0  0  0  0
   56.3810   27.0800   45.0210 H   0  0  0  0  0  0  0  0  0  0  0  0
   58.1885   25.4132   43.7335 H   0  0  0  0  0  0  0  0  0  0  0  0
   58.9067   25.6588   45.3782 H   0  0  0  0  0  0  0  0  0  0  0  0
   57.6547   23.9478   45.9823 H   0  0  0  0  0  0  0  0  0  0  0  0
   53.6014   23.9856   44.9473 H   0  0  0  0  0  0  0  0  0  0  0  0
   51.5229   23.4859   46.4447 H   0  0  0  0  0  0  0  0  0  0  0  0
   51.7474   21.2351   47.7950 H   0  0  0  0  0  0  0  0  0  0  0  0
   59.3643   30.8659   44.7717 H   0  0  0  0  0  0  0  0  0  0  0  0
  1  2  2  0
  2  3  1  0
  3  4  1  0
  4  5  1  0
  5  6  1  0
  6  7  1  0
  7  8  2  0
  7  9  2  0
  7 10  1  0
 10 11  2  0
 11 12  1  0
 12 13  2  0
 13 14  1  0
  5 15  1  0
 15 16  2  0
 15 17  1  0
  2 18  1  0
 18 19  1  0
 19 20  2  0
 20 21  1  0
 20 22  1  0
 22 23  1  0
 23 24  1  0
 14 10  1  0
 23 18  2  0
  3 25  1  0
  4 26  1  0
  4 27  1  0
  5 28  1  1
 11 29  1  0
 12 30  1  0
 13 31  1  0
 19 32  1  0
M  CHG  4   6  -1  17  -1  22  -1  24  -1
M  END
>  <UniqueID>  (42) 
40

>  <SMILES>  (42) 
O=C(NC[C@H]([N-]S(=O)(=O)c1cccs1)C(=O)[O-])c1cc(Br)[n-]c1[O-]

>  <Energy>  (42) 
84.767111031877

>  <Genealogy>  (42) 
O=C(NCC([N-]S(=O)(=O)c1cccs1)C(=O)[O-])c1cc(Br)[n-]c1[O-] (protonated)
O=C(NC[C@H]([N-]S(=O)(=O)c1cccs1)C(=O)[O-])c1cc(Br)[n-]c1[O-] (chirality)
O=C(NC[C@H]([N-]S(=O)(=O)c1cccs1)C(=O)[O-])c1cc(Br)[n-]c1[O-] (3D coordinates assigned)
O=C(NC[C@H]([N-]S(=O)(=O)c1cccs1)C(=O)[O-])c1cc(Br)[n-]c1[O-] (optimized conformer: 84.767111031877 kcal/mol)

>  <smiles>  (42) 
O=C(NCC(NS(=O)(=O)c1cccs1)C(=O)O)c1cc(Br)[nH]c1O

>  <score_type>  (42) 
oracle

>  <origin>  (42) 
adg

>  <m_score__min__energy>  (42) 
-17.210000000000001

>  <m_primary>  (42) 
energy

$$$$
42:0
     RDKit          3D

 53 55  0  0  0  0  0  0  0  0999 V2000
   57.7900   31.8460   43.2410 C   0  0  0  0  0  0  0  0  0  0  0  0
   57.7430   30.3900   43.6980 C   0  0  0  0  0  0  0  0  0  0  0  0
   57.1710   30.2220   45.1150 C   0  0  0  0  0  0  0  0  0  0  0  0
   58.1410   29.5710   46.0230 N   0  0  0  0  0  0  0  0  0  0  0  0
   59.1870   30.3480   46.4430 C   0  0  0  0  0  0  0  0  0  0  0  0
   60.1580   29.8690   47.3300 C   0  0  0  0  0  0  0  0  0  0  0  0
   61.2460   30.7720   47.7870 C   0  0  0  0  0  0  0  0  0  0  0  0
   61.8280   30.5520   48.8840 O   0  0  0  0  0  0  0  0  0  0  0  0
   61.6340   31.9060   46.9950 N   0  0  0  0  0  0  0  0  0  0  0  0
   62.3900   33.0300   47.5470 C   0  0  0  0  0  0  0  0  0  0  0  0
   61.4690   34.2100   47.8830 C   0  0  0  0  0  0  0  0  0  0  0  0
   60.1420   34.0960   47.1770 C   0  0  0  0  0  0  0  0  0  0  0  0
   59.9770   34.6260   45.8850 C   0  0  0  0  0  0  0  0  0  0  0  0
   58.7310   34.5700   45.2540 C   0  0  0  0  0  0  0  0  0  0  0  0
   57.6420   33.9850   45.9060 C   0  0  0  0  0  0  0  0  0  0  0  0
   57.7980   33.4550   47.1900 C   0  0  0  0  0  0  0  0  0  0  0  0
   59.0410   33.5120   47.8270 C   0  0  0  0  0  0  0  0  0  0  0  0
   60.0570   28.5500   47.7920 C   0  0  0  0  0  0  0  0  0  0  0  0
   60.9220   28.0920   48.5890 O   0  0  0  0  0  0  0  0  0  0  0  0
   59.0030   27.7310   47.3490 C   0  0  0  0  0  0  0  0  0  0  0  0
   58.9030   26.3960   47.7860 C   0  0  0  0  0  0  0  0  0  0  0  0
   57.8740   25.5750   47.3340 C   0  0  0  0  0  0  0  0  0  0  0  0
   56.9250   26.0700   46.4400 C   0  0  0  0  0  0  0  0  0  0  0  0
   55.6420   25.0260   45.8290 S   0  0  0  0  0  0  0  0  0  0  0  0
   56.1580   24.3060   44.2870 C   0  0  0  0  0  0  0  0  0  0  0  0
   54.3950   25.8370   45.6190 O   0  0  0  0  0  0  0  0  0  0  0  0
   55.3490   23.9300   46.8130 O   0  0  0  0  0  0  0  0  0  0  0  0
   57.0060   27.3950   45.9980 C   0  0  0  0  0  0  0  0  0  0  0  0
   58.0390   28.2570   46.4440 C   0  0  0  0  0  0  0  0  0  0  0  0
   57.8113   32.5059   44.1208 H   0  0  0  0  0  0  0  0  0  0  0  0
   58.6940   32.0116   42.6365 H   0  0  0  0  0  0  0  0  0  0  0  0
   56.8986   32.0695   42.6365 H   0  0  0  0  0  0  0  0  0  0  0  0
   57.1134   29.8229   42.9966 H   0  0  0  0  0  0  0  0  0  0  0  0
   58.7779   30.0176   43.7152 H   0  0  0  0  0  0  0  0  0  0  0  0
   56.9169   31.2140   45.5168 H   0  0  0  0  0  0  0  0  0  0  0  0
   56.2785   29.5822   45.0509 H   0  0  0  0  0  0  0  0  0  0  0  0
   59.2668   31.3805   46.0720 H   0  0  0  0  0  0  0  0  0  0  0  0
   61.3790   31.9360   45.9820 H   0  0  0  0  0  0  0  0  0  0  0  0
   62.9012   32.7020   48.4641 H   0  0  0  0  0  0  0  0  0  0  0  0
   63.1186   33.3621   46.7928 H   0  0  0  0  0  0  0  0  0  0  0  0
   61.2952   34.2293   48.9690 H   0  0  0  0  0  0  0  0  0  0  0  0
   61.9592   35.1358   47.5473 H   0  0  0  0  0  0  0  0  0  0  0  0
   60.8321   35.0866   45.3687 H   0  0  0  0  0  0  0  0  0  0  0  0
   58.6075   34.9867   44.2435 H   0  0  0  0  0  0  0  0  0  0  0  0
   56.6618   33.9416   45.4086 H   0  0  0  0  0  0  0  0  0  0  0  0
   56.9406   32.9920   47.7004 H   0  0  0  0  0  0  0  0  0  0  0  0
   59.1578   33.0987   48.8397 H   0  0  0  0  0  0  0  0  0  0  0  0
   59.6463   25.9977   48.4923 H   0  0  0  0  0  0  0  0  0  0  0  0
   57.8092   24.5337   47.6826 H   0  0  0  0  0  0  0  0  0  0  0  0
   56.7882   23.4266   44.4857 H   0  0  0  0  0  0  0  0  0  0  0  0
   55.2724   23.9998   43.7108 H   0  0  0  0  0  0  0  0  0  0  0  0
   56.7325   25.0462   43.7108 H   0  0  0  0  0  0  0  0  0  0  0  0
   56.2538   27.7749   45.2910 H   0  0  0  0  0  0  0  0  0  0  0  0
  1  2  1  0
  2  3  1  0
  3  4  1  0
  4  5  1  0
  5  6  2  0
  6  7  1  0
  7  8  2  0
  7  9  1  0
  9 10  1  0
 10 11  1  0
 11 12  1  0
 12 13  2  0
 13 14  1  0
 14 15  2  0
 15 16  1  0
 16 17  2  0
  6 18  1  0
 18 19  2  0
 18 20  1  0
 20 21  2  0
 21 22  1  0
 22 23  2  0
 23 24  1  0
 24 25  1  0
 24 26  2  0
 24 27  2  0
 23 28  1  0
 28 29  2  0
 29  4  1  0
 17 12  1  0
 29 20  1  0
  1 30  1  0
  1 31  1  0
  1 32  1  0
  2 33  1  0
  2 34  1  0
  3 35  1  0
  3 36  1  0
  5 37  1  0
  9 38  1  0
 10 39  1  0
 10 40  1  0
 11 41  1  0
 11 42  1  0
 13 43  1  0
 14 44  1  0
 15 45  1  0
 16 46  1  0
 17 47  1  0
 21 48  1  0
 22 49  1  0
 25 50  1  0
 25 51  1  0
 25 52  1  0
 28 53  1  0
M  END
>  <UniqueID>  (43) 
41

>  <SMILES>  (43) 
CCCn1cc(C(=O)NCCc2ccccc2)c(=O)c2ccc(S(C)(=O)=O)cc21

>  <Energy>  (43) 
56.028840443608054

>  <Genealogy>  (43) 
CCCn1cc(C(=O)NCCc2ccccc2)c(=O)c2ccc(S(C)(=O)=O)cc21 (3D coordinates assigned)
CCCn1cc(C(=O)NCCc2ccccc2)c(=O)c2ccc(S(C)(=O)=O)cc21 (optimized conformer: 56.028840443608054 kcal/mol)

>  <smiles>  (43) 
CCCn1cc(C(=O)NCCc2ccccc2)c(=O)c2ccc(S(C)(=O)=O)cc21

>  <score_type>  (43) 
oracle

>  <origin>  (43) 
adg

>  <m_score__min__energy>  (43) 
-8.7300000000000004

>  <m_primary>  (43) 
energy

$$$$
43:0
     RDKit          3D

 42 43  0  0  0  0  0  0  0  0999 V2000
   58.6774   26.1666   46.2776 H   0  0  0  0  0  0  0  0  0  0  0  0
   57.8380   26.5880   45.7050 C   0  0  0  0  0  0  0  0  0  0  0  0
   56.4740   26.1100   45.9890 C   0  0  0  0  0  0  0  0  0  0  0  0
   55.4980   26.9080   45.9780 O   0  0  0  0  0  0  0  0  0  0  0  0
   56.2690   24.7120   46.2280 N   0  0  0  0  0  0  0  0  0  0  0  0
   56.9200   23.6220   45.5510 C   0  0  0  0  0  0  0  0  0  0  0  0
   58.2390   23.2710   45.8720 C   0  0  0  0  0  0  0  0  0  0  0  0
   58.7925   23.8263   46.6436 H   0  0  0  0  0  0  0  0  0  0  0  0
   58.8370   22.2100   45.2000 C   0  0  0  0  0  0  0  0  0  0  0  0
   60.0200   21.8770   45.4770 O   0  0  0  0  0  0  0  0  0  0  0  0
   58.1440   21.5360   44.2490 N   0  0  0  0  0  0  0  0  0  0  0  0
   58.5970   20.7310   43.7580 H   0  0  0  0  0  0  0  0  0  0  0  0
   56.8730   21.8920   43.9190 C   0  0  0  0  0  0  0  0  0  0  0  0
   56.2630   21.2320   43.0340 O   0  0  0  0  0  0  0  0  0  0  0  0
   56.2650   22.9540   44.5440 N   0  0  0  0  0  0  0  0  0  0  0  0
   54.8840   23.3310   44.2010 C   0  0  0  0  0  0  0  0  0  0  0  0
   54.3069   23.4885   45.1241 H   0  0  0  0  0  0  0  0  0  0  0  0
   54.8931   24.2595   43.6113 H   0  0  0  0  0  0  0  0  0  0  0  0
   54.4200   22.5266   43.6113 H   0  0  0  0  0  0  0  0  0  0  0  0
   58.0930   27.5170   44.7750 C   0  0  0  0  0  0  0  0  0  0  0  0
   58.0998   27.2213   43.7155 H   0  0  0  0  0  0  0  0  0  0  0  0
   58.3660   28.9290   45.1260 C   0  0  0  0  0  0  0  0  0  0  0  0
   59.6100   29.2270   45.7000 C   0  0  0  0  0  0  0  0  0  0  0  0
   60.3608   28.4304   45.8086 H   0  0  0  0  0  0  0  0  0  0  0  0
   59.9130   30.5280   46.1390 C   0  0  0  0  0  0  0  0  0  0  0  0
   61.1460   30.8480   46.7290 O   0  0  0  0  0  0  0  0  0  0  0  0
   61.3190   31.2040   48.0970 C   0  0  0  0  0  0  0  0  0  0  0  0
   60.9281   30.3996   48.7375 H   0  0  0  0  0  0  0  0  0  0  0  0
   62.3891   31.3511   48.3051 H   0  0  0  0  0  0  0  0  0  0  0  0
   60.7734   32.1362   48.3051 H   0  0  0  0  0  0  0  0  0  0  0  0
   58.9630   31.5460   45.9930 C   0  0  0  0  0  0  0  0  0  0  0  0
   59.2900   32.8330   46.4510 O   0  0  0  0  0  0  0  0  0  0  0  0
   58.7410   34.0400   45.9350 C   0  0  0  0  0  0  0  0  0  0  0  0
   58.4438   34.6934   46.7685 H   0  0  0  0  0  0  0  0  0  0  0  0
   59.4949   34.5517   45.3188 H   0  0  0  0  0  0  0  0  0  0  0  0
   57.8598   33.8080   45.3188 H   0  0  0  0  0  0  0  0  0  0  0  0
   57.7240   31.2610   45.3910 C   0  0  0  0  0  0  0  0  0  0  0  0
   56.9800   32.0632   45.2769 H   0  0  0  0  0  0  0  0  0  0  0  0
   57.4220   29.9670   44.9330 C   0  0  0  0  0  0  0  0  0  0  0  0
   56.1910   29.7460   44.2240 N   0  0  0  0  0  0  0  0  0  0  0  0
   55.1540   29.4320   44.8450 O   0  0  0  0  0  0  0  0  0  0  0  0
   56.0950   30.0600   42.8880 O   0  0  0  0  0  0  0  0  0  0  0  0
  1  2  1  0
  2  3  1  0
  3  4  2  0
  3  5  1  0
  5  6  1  0
  6  7  2  0
  7  8  1  0
  7  9  1  0
  9 10  2  0
  9 11  1  0
 11 12  1  0
 11 13  1  0
 13 14  2  0
 13 15  1  0
 15 16  1  0
 16 17  1  0
 16 18  1  0
 16 19  1  0
  2 20  2  0
 20 21  1  0
 20 22  1  0
 22 23  2  0
 23 24  1  0
 23 25  1  0
 25 26  1  0
 26 27  1  0
 27 28  1  0
 27 29  1  0
 27 30  1  0
 25 31  2  0
 31 32  1  0
 32 33  1  0
 33 34  1  0
 33 35  1  0
 33 36  1  0
 31 37  1  0
 37 38  1  0
 37 39  2  0
 39 40  1  0
 40 41  2  0
 40 42  1  0
 15  6  1  0
 39 22  1  0
M  CHG  3   5  -1  40   1  42  -1
M  END
>  <UniqueID>  (44) 
42

>  <SMILES>  (44) 
COc1cc(/C=C/C(=O)[N-]c2cc(=O)[nH]c(=O)n2C)c([N+](=O)[O-])cc1OC

>  <Energy>  (44) 
57.61164364800906

>  <Genealogy>  (44) 
COc1cc(C=CC(=O)[N-]c2cc(=O)[nH]c(=O)n2C)c([N+](=O)[O-])cc1OC (protonated)
COc1cc(/C=C/C(=O)[N-]c2cc(=O)[nH]c(=O)n2C)c([N+](=O)[O-])cc1OC (cis-trans isomerization)
COc1cc(/C=C/C(=O)[N-]c2cc(=O)[nH]c(=O)n2C)c([N+](=O)[O-])cc1OC (3D coordinates assigned)
COc1cc(/C=C/C(=O)[N-]c2cc(=O)[nH]c(=O)n2C)c([N+](=O)[O-])cc1OC (optimized conformer: 57.61164364800906 kcal/mol)

>  <smiles>  (44) 
COc1cc(C=CC(=O)Nc2cc(=O)[nH]c(=O)n2C)c([N+](=O)[O-])cc1OC

>  <score_type>  (44) 
oracle

>  <origin>  (44) 
adg

>  <m_score__min__energy>  (44) 
-10.02

>  <m_primary>  (44) 
energy

$$$$
44:0
     RDKit          3D

 59 62  0  0  0  0  0  0  0  0999 V2000
   55.8870   27.1440   45.9670 O   0  0  0  0  0  0  0  0  0  0  0  0
   56.6670   27.8240   45.2510 C   0  0  0  0  0  0  0  0  0  0  0  0
   56.2750   29.2240   44.8670 C   0  0  0  0  0  0  0  0  0  0  0  0
   57.2510   29.7980   43.8350 C   0  0  0  0  0  0  0  0  0  0  0  0
   57.7100   31.1410   44.2530 N   0  0  0  0  0  0  0  0  0  0  0  0
   57.8810   32.1600   43.3400 C   0  0  0  0  0  0  0  0  0  0  0  0
   57.5960   31.9610   41.7340 S   0  0  0  0  0  0  0  0  0  0  0  0
   58.3160   33.3780   43.7480 N   0  0  0  0  0  0  0  0  0  0  0  0
   58.6070   33.6360   45.0440 C   0  0  0  0  0  0  0  0  0  0  0  0
   59.0480   34.9100   45.4220 C   0  0  0  0  0  0  0  0  0  0  0  0
   59.3580   35.1740   46.7580 C   0  0  0  0  0  0  0  0  0  0  0  0
   59.2350   34.1650   47.7180 C   0  0  0  0  0  0  0  0  0  0  0  0
   58.7970   32.8890   47.3460 C   0  0  0  0  0  0  0  0  0  0  0  0
   58.4770   32.6180   46.0020 C   0  0  0  0  0  0  0  0  0  0  0  0
   58.0290   31.3570   45.5740 C   0  0  0  0  0  0  0  0  0  0  0  0
   57.9240   30.4200   46.4150 O   0  0  0  0  0  0  0  0  0  0  0  0
   57.9180   27.2490   44.8540 N   0  0  0  0  0  0  0  0  0  0  0  0
   58.5130   26.0620   45.4580 C   0  0  0  0  0  0  0  0  0  0  0  0
   59.5610   26.4860   46.4860 C   0  0  0  0  0  0  0  0  0  0  0  0
   60.2800   27.7900   46.1090 C   0  0  0  0  0  0  0  0  0  0  0  0
   60.6550   28.5590   47.3220 N   0  0  0  0  0  0  0  0  0  0  0  0
   59.8050   28.2380   48.5020 C   0  0  0  0  0  0  0  0  0  0  0  0
   58.9590   29.4170   49.0000 C   0  0  0  0  0  0  0  0  0  0  0  0
   59.8050   30.5970   49.2110 N   0  0  0  0  0  0  0  0  0  0  0  0
   59.4880   31.5610   50.2410 C   0  0  0  0  0  0  0  0  0  0  0  0
   60.4120   32.5650   50.5890 C   0  0  0  0  0  0  0  0  0  0  0  0
   60.1020   33.4980   51.5840 C   0  0  0  0  0  0  0  0  0  0  0  0
   58.8700   33.4450   52.2390 C   0  0  0  0  0  0  0  0  0  0  0  0
   58.5730   34.3520   53.2020 F   0  0  0  0  0  0  0  0  0  0  0  0
   57.9430   32.4560   51.9000 C   0  0  0  0  0  0  0  0  0  0  0  0
   58.2480   31.5180   50.9060 C   0  0  0  0  0  0  0  0  0  0  0  0
   60.9320   30.8320   48.3000 C   0  0  0  0  0  0  0  0  0  0  0  0
   60.7680   30.0030   47.0220 C   0  0  0  0  0  0  0  0  0  0  0  0
   55.2625   29.2101   44.4372 H   0  0  0  0  0  0  0  0  0  0  0  0
   56.3002   29.8567   45.7665 H   0  0  0  0  0  0  0  0  0  0  0  0
   58.1197   29.1291   43.7460 H   0  0  0  0  0  0  0  0  0  0  0  0
   56.7382   29.8811   42.8654 H   0  0  0  0  0  0  0  0  0  0  0  0
   59.1503   35.7031   44.6666 H   0  0  0  0  0  0  0  0  0  0  0  0
   59.6992   36.1766   47.0552 H   0  0  0  0  0  0  0  0  0  0  0  0
   59.4833   34.3748   48.7689 H   0  0  0  0  0  0  0  0  0  0  0  0
   58.7027   32.0974   48.1040 H   0  0  0  0  0  0  0  0  0  0  0  0
   57.7294   25.4713   45.9551 H   0  0  0  0  0  0  0  0  0  0  0  0
   58.9906   25.4526   44.6767 H   0  0  0  0  0  0  0  0  0  0  0  0
   59.0625   26.6287   47.4561 H   0  0  0  0  0  0  0  0  0  0  0  0
   60.3210   25.6918   46.5271 H   0  0  0  0  0  0  0  0  0  0  0  0
   61.1901   27.5479   45.5406 H   0  0  0  0  0  0  0  0  0  0  0  0
   59.5987   28.4034   45.5012 H   0  0  0  0  0  0  0  0  0  0  0  0
   59.1265   27.4172   48.2267 H   0  0  0  0  0  0  0  0  0  0  0  0
   60.4869   27.9666   49.3214 H   0  0  0  0  0  0  0  0  0  0  0  0
   58.1881   29.6523   48.2515 H   0  0  0  0  0  0  0  0  0  0  0  0
   58.4859   29.1405   49.9538 H   0  0  0  0  0  0  0  0  0  0  0  0
   61.3834   32.6159   50.0753 H   0  0  0  0  0  0  0  0  0  0  0  0
   60.8316   34.2765   51.8515 H   0  0  0  0  0  0  0  0  0  0  0  0
   56.9718   32.4142   52.4149 H   0  0  0  0  0  0  0  0  0  0  0  0
   57.5137   30.7423   50.6430 H   0  0  0  0  0  0  0  0  0  0  0  0
   60.9690   31.8995   48.0372 H   0  0  0  0  0  0  0  0  0  0  0  0
   61.8643   30.5334   48.8016 H   0  0  0  0  0  0  0  0  0  0  0  0
   59.8584   30.3312   46.4976 H   0  0  0  0  0  0  0  0  0  0  0  0
   61.6589   30.1561   46.3952 H   0  0  0  0  0  0  0  0  0  0  0  0
  1  2  2  0
  2  3  1  0
  3  4  1  0
  4  5  1  0
  5  6  1  0
  6  7  2  0
  6  8  1  0
  8  9  1  0
  9 10  2  0
 10 11  1  0
 11 12  2  0
 12 13  1  0
 13 14  2  0
 14 15  1  0
 15 16  2  0
  2 17  1  0
 17 18  1  0
 18 19  1  0
 19 20  1  0
 20 21  1  0
 21 22  1  0
 22 23  1  0
 23 24  1  0
 24 25  1  0
 25 26  2  0
 26 27  1  0
 27 28  2  0
 28 29  1  0
 28 30  1  0
 30 31  2  0
 24 32  1  0
 32 33  1  0
 15  5  1  0
 33 21  1  0
 14  9  1  0
 31 25  1  0
  3 34  1  0
  3 35  1  0
  4 36  1  0
  4 37  1  0
 10 38  1  0
 11 39  1  0
 12 40  1  0
 13 41  1  0
 18 42  1  0
 18 43  1  0
 19 44  1  0
 19 45  1  0
 20 46  1  0
 20 47  1  0
 22 48  1  0
 22 49  1  0
 23 50  1  0
 23 51  1  0
 26 52  1  0
 27 53  1  0
 30 54  1  0
 31 55  1  0
 32 56  1  0
 32 57  1  0
 33 58  1  0
 33 59  1  0
M  CHG  2   8  -1  17  -1
M  END
>  <UniqueID>  (45) 
43

>  <SMILES>  (45) 
O=C(CCn1c(=S)[n-]c2ccccc2c1=O)[N-]CCCN1CCN(c2ccc(F)cc2)CC1

>  <Energy>  (45) 
74.87637651128581

>  <Genealogy>  (45) 
O=C(CCn1c(=S)[n-]c2ccccc2c1=O)[N-]CCCN1CCN(c2ccc(F)cc2)CC1 (protonated)
O=C(CCn1c(=S)[n-]c2ccccc2c1=O)[N-]CCCN1CCN(c2ccc(F)cc2)CC1 (3D coordinates assigned)
O=C(CCn1c(=S)[n-]c2ccccc2c1=O)[N-]CCCN1CCN(c2ccc(F)cc2)CC1 (nonaromatic ring conformer: 74.87637651128581 kcal/mol)

>  <smiles>  (45) 
O=C(CCn1c(=S)[nH]c2ccccc2c1=O)NCCCN1CCN(c2ccc(F)cc2)CC1

>  <score_type>  (45) 
oracle

>  <origin>  (45) 
adg

>  <m_score__min__energy>  (45) 
-13.539999999999999

>  <m_primary>  (45) 
energy

$$$$
45:0
     RDKit          3D

 72 75  0  0  0  0  0  0  0  0999 V2000
   57.3710   20.0510   45.2410 N   0  0  0  0  0  0  0  0  0  0  0  0
   57.2500   21.1710   43.9280 S   0  0  0  0  0  0  0  0  0  0  0  0
   56.1560   20.7360   42.9930 O   0  0  0  0  0  0  0  0  0  0  0  0
   58.5480   21.1920   43.1700 O   0  0  0  0  0  0  0  0  0  0  0  0
   56.8960   22.7790   44.5490 C   0  0  0  0  0  0  0  0  0  0  0  0
   57.5910   23.8930   44.0720 C   0  0  0  0  0  0  0  0  0  0  0  0
   57.3110   25.1620   44.5760 C   0  0  0  0  0  0  0  0  0  0  0  0
   56.3140   25.3140   45.5630 C   0  0  0  0  0  0  0  0  0  0  0  0
   55.9940   26.4720   46.0710 N   0  0  0  0  0  0  0  0  0  0  0  0
   56.5840   27.7480   45.7750 C   0  0  0  0  0  0  0  0  0  0  0  0
   55.8810   28.6190   45.1940 O   0  0  0  0  0  0  0  0  0  0  0  0
   58.0140   28.0290   46.0650 C   0  0  0  0  0  0  0  0  0  0  0  0
   58.6520   27.3360   47.1080 C   0  0  0  0  0  0  0  0  0  0  0  0
   59.9710   27.6240   47.4660 C   0  0  0  0  0  0  0  0  0  0  0  0
   60.5430   26.9000   48.5270 O   0  0  0  0  0  0  0  0  0  0  0  0
   60.7780   27.4070   49.8390 C   0  0  0  0  0  0  0  0  0  0  0  0
   61.1750   26.3020   50.7640 C   0  0  0  0  0  0  0  0  0  0  0  0
   60.3910   25.3390   50.9700 O   0  0  0  0  0  0  0  0  0  0  0  0
   62.3840   26.3660   51.4430 O   0  0  0  0  0  0  0  0  0  0  0  0
   60.6700   28.6160   46.7590 C   0  0  0  0  0  0  0  0  0  0  0  0
   60.0580   29.2950   45.7030 C   0  0  0  0  0  0  0  0  0  0  0  0
   58.7270   29.0080   45.3410 C   0  0  0  0  0  0  0  0  0  0  0  0
   58.0820   29.6850   44.2900 O   0  0  0  0  0  0  0  0  0  0  0  0
   58.5260   30.9020   43.6880 C   0  0  0  0  0  0  0  0  0  0  0  0
   58.3510   32.0660   44.6280 C   0  0  0  0  0  0  0  0  0  0  0  0
   58.1820   33.3640   44.1220 C   0  0  0  0  0  0  0  0  0  0  0  0
   57.9910   34.4390   44.9930 C   0  0  0  0  0  0  0  0  0  0  0  0
   57.9570   34.2280   46.3740 C   0  0  0  0  0  0  0  0  0  0  0  0
   58.1060   32.9330   46.8940 C   0  0  0  0  0  0  0  0  0  0  0  0
   58.1430   32.7080   48.3850 C   0  0  0  0  0  0  0  0  0  0  0  0
   59.4810   33.1650   48.9670 C   0  0  0  0  0  0  0  0  0  0  0  0
   59.7230   32.4800   50.2320 N   0  0  0  0  0  0  0  0  0  0  0  0
   59.9840   30.7840   49.9600 S   0  0  0  0  0  0  0  0  0  0  0  0
   59.3180   29.9840   51.0440 O   0  0  0  0  0  0  0  0  0  0  0  0
   59.4290   30.3780   48.6220 O   0  0  0  0  0  0  0  0  0  0  0  0
   61.7390   30.4780   49.9860 C   0  0  0  0  0  0  0  0  0  0  0  0
   62.4530   31.5190   49.1680 C   0  0  0  0  0  0  0  0  0  0  0  0
   62.1460   31.6860   47.8080 C   0  0  0  0  0  0  0  0  0  0  0  0
   62.7750   32.6890   47.0630 C   0  0  0  0  0  0  0  0  0  0  0  0
   63.7030   33.5370   47.6710 C   0  0  0  0  0  0  0  0  0  0  0  0
   64.0020   33.3880   49.0290 C   0  0  0  0  0  0  0  0  0  0  0  0
   63.3810   32.3830   49.7760 C   0  0  0  0  0  0  0  0  0  0  0  0
   58.3010   31.8560   46.0170 C   0  0  0  0  0  0  0  0  0  0  0  0
   55.6770   24.2060   46.0290 N   0  0  0  0  0  0  0  0  0  0  0  0
   55.9410   22.9600   45.5530 C   0  0  0  0  0  0  0  0  0  0  0  0
   58.3780   20.0070   45.5120 H   0  0  0  0  0  0  0  0  0  0  0  0
   57.1200   19.1110   44.8630 H   0  0  0  0  0  0  0  0  0  0  0  0
   58.3612   23.7684   43.2966 H   0  0  0  0  0  0  0  0  0  0  0  0
   57.8633   26.0388   44.2070 H   0  0  0  0  0  0  0  0  0  0  0  0
   58.1030   26.5532   47.6519 H   0  0  0  0  0  0  0  0  0  0  0  0
   61.5850   28.1535   49.7994 H   0  0  0  0  0  0  0  0  0  0  0  0
   59.8523   27.8687   50.2130 H   0  0  0  0  0  0  0  0  0  0  0  0
   61.7056   28.8596   47.0386 H   0  0  0  0  0  0  0  0  0  0  0  0
   60.6204   30.0609   45.1488 H   0  0  0  0  0  0  0  0  0  0  0  0
   59.5906   30.8069   43.4279 H   0  0  0  0  0  0  0  0  0  0  0  0
   57.9233   31.0866   42.7865 H   0  0  0  0  0  0  0  0  0  0  0  0
   58.2000   33.5354   43.0356 H   0  0  0  0  0  0  0  0  0  0  0  0
   57.8669   35.4552   44.5905 H   0  0  0  0  0  0  0  0  0  0  0  0
   57.8130   35.0794   47.0555 H   0  0  0  0  0  0  0  0  0  0  0  0
   57.3299   33.2793   48.8568 H   0  0  0  0  0  0  0  0  0  0  0  0
   58.0192   31.6332   48.5839 H   0  0  0  0  0  0  0  0  0  0  0  0
   60.2889   32.9250   48.2602 H   0  0  0  0  0  0  0  0  0  0  0  0
   59.4531   34.2511   49.1388 H   0  0  0  0  0  0  0  0  0  0  0  0
   62.1009   30.5186   51.0240 H   0  0  0  0  0  0  0  0  0  0  0  0
   61.9393   29.4835   49.5607 H   0  0  0  0  0  0  0  0  0  0  0  0
   61.4088   31.0262   47.3271 H   0  0  0  0  0  0  0  0  0  0  0  0
   62.5381   32.8100   45.9957 H   0  0  0  0  0  0  0  0  0  0  0  0
   64.1989   34.3223   47.0817 H   0  0  0  0  0  0  0  0  0  0  0  0
   64.7263   34.0621   49.5096 H   0  0  0  0  0  0  0  0  0  0  0  0
   63.6192   32.2675   50.8437 H   0  0  0  0  0  0  0  0  0  0  0  0
   58.4157   30.8387   46.4194 H   0  0  0  0  0  0  0  0  0  0  0  0
   55.4013   22.0919   45.9594 H   0  0  0  0  0  0  0  0  0  0  0  0
  1  2  1  0
  2  3  2  0
  2  4  2  0
  2  5  1  0
  5  6  1  0
  6  7  2  0
  7  8  1  0
  8  9  2  3
  9 10  1  0
 10 11  2  0
 10 12  1  0
 12 13  2  0
 13 14  1  0
 14 15  1  0
 15 16  1  0
 16 17  1  0
 17 18  2  0
 17 19  1  0
 14 20  2  0
 20 21  1  0
 21 22  2  0
 22 23  1  0
 23 24  1  0
 24 25  1  0
 25 26  2  0
 26 27  1  0
 27 28  2  0
 28 29  1  0
 29 30  1  0
 30 31  1  0
 31 32  1  0
 32 33  1  0
 33 34  2  0
 33 35  2  0
 33 36  1  0
 36 37  1  0
 37 38  2  0
 38 39  1  0
 39 40  2  0
 40 41  1  0
 41 42  2  0
 29 43  2  0
  8 44  1  0
 44 45  1  0
 45  5  2  0
 22 12  1  0
 43 25  1  0
 42 37  1  0
  1 46  1  0
  1 47  1  0
  6 48  1  0
  7 49  1  0
 13 50  1  0
 16 51  1  0
 16 52  1  0
 20 53  1  0
 21 54  1  0
 24 55  1  0
 24 56  1  0
 26 57  1  0
 27 58  1  0
 28 59  1  0
 30 60  1  0
 30 61  1  0
 31 62  1  0
 31 63  1  0
 36 64  1  0
 36 65  1  0
 38 66  1  0
 39 67  1  0
 40 68  1  0
 41 69  1  0
 42 70  1  0
 43 71  1  0
 45 72  1  0
M  CHG  3  19  -1  32  -1  44  -1
M  END
>  <UniqueID>  (46) 
44

>  <SMILES>  (46) 
NS(=O)(=O)c1ccc(=NC(=O)c2cc(OCC(=O)[O-])ccc2OCc2cccc(CC[N-]S(=O)(=O)Cc3ccccc3)c2)[n-]c1

>  <Energy>  (46) 
69.40495365045618

>  <Genealogy>  (46) 
NS(=O)(=O)c1ccc(=NC(=O)c2cc(OCC(=O)[O-])ccc2OCc2cccc(CC[N-]S(=O)(=O)Cc3ccccc3)c2)[n-]c1 (protonated)
NS(=O)(=O)c1ccc(=NC(=O)c2cc(OCC(=O)[O-])ccc2OCc2cccc(CC[N-]S(=O)(=O)Cc3ccccc3)c2)[n-]c1 (3D coordinates assigned)
NS(=O)(=O)c1ccc(=NC(=O)c2cc(OCC(=O)[O-])ccc2OCc2cccc(CC[N-]S(=O)(=O)Cc3ccccc3)c2)[n-]c1 (optimized conformer: 69.40495365045618 kcal/mol)

>  <smiles>  (46) 
NS(=O)(=O)c1ccc(=NC(=O)c2cc(OCC(=O)O)ccc2OCc2cccc(CCNS(=O)(=O)Cc3ccccc3)c2)[nH]c1

>  <score_type>  (46) 
oracle

>  <origin>  (46) 
adg

>  <m_score__min__energy>  (46) 
-15.51

>  <m_primary>  (46) 
energy

$$$$
46:0
     RDKit          3D

 63 66  0  0  0  0  0  0  0  0999 V2000
   62.7600   32.3510   47.8720 C   0  0  0  0  0  0  0  0  0  0  0  0
   61.3730   32.0640   48.2820 N   0  0  0  0  0  0  0  0  0  0  0  0
   60.6420   31.4160   47.1700 C   0  0  0  0  0  0  0  0  0  0  0  0
   59.6620   32.3740   46.5420 C   0  0  0  0  0  0  0  0  0  0  0  0
   60.1120   33.6060   46.0330 C   0  0  0  0  0  0  0  0  0  0  0  0
   59.2030   34.5120   45.4770 C   0  0  0  0  0  0  0  0  0  0  0  0
   57.8410   34.2030   45.4340 C   0  0  0  0  0  0  0  0  0  0  0  0
   57.3860   32.9830   45.9410 C   0  0  0  0  0  0  0  0  0  0  0  0
   58.2900   32.0690   46.4890 C   0  0  0  0  0  0  0  0  0  0  0  0
   61.3670   31.2020   49.4860 C   0  0  0  0  0  0  0  0  0  0  0  0
   60.0140   31.1600   50.1480 C   0  0  0  0  0  0  0  0  0  0  0  0
   58.9360   32.0180   49.9350 C   0  0  0  0  0  0  0  0  0  0  0  0
   58.9640   33.1950   49.1920 O   0  0  0  0  0  0  0  0  0  0  0  0
   57.8050   31.5500   50.5030 N   0  0  0  0  0  0  0  0  0  0  0  0
   58.1580   30.3730   51.0540 C   0  0  0  0  0  0  0  0  0  0  0  0
   57.2560   29.5270   51.6850 O   0  0  0  0  0  0  0  0  0  0  0  0
   59.5000   30.1000   50.8720 C   0  0  0  0  0  0  0  0  0  0  0  0
   60.1850   28.8350   51.1940 C   0  0  0  0  0  0  0  0  0  0  0  0
   60.4870   28.5680   52.5410 C   0  0  0  0  0  0  0  0  0  0  0  0
   61.0990   27.3680   52.9070 C   0  0  0  0  0  0  0  0  0  0  0  0
   61.4180   26.4220   51.9320 C   0  0  0  0  0  0  0  0  0  0  0  0
   61.1280   26.6740   50.5870 C   0  0  0  0  0  0  0  0  0  0  0  0
   60.5040   27.8730   50.2000 C   0  0  0  0  0  0  0  0  0  0  0  0
   60.2810   28.1170   48.7210 C   0  0  0  0  0  0  0  0  0  0  0  0
   60.8280   26.9990   47.9590 N   0  0  0  0  0  0  0  0  0  0  0  0
   60.2330   26.5400   46.7420 C   0  0  0  0  0  0  0  0  0  0  0  0
   60.4120   25.3500   46.3630 O   0  0  0  0  0  0  0  0  0  0  0  0
   59.3900   27.4490   45.9350 C   0  0  0  0  0  0  0  0  0  0  0  0
   57.9950   27.2790   45.9140 C   0  0  0  0  0  0  0  0  0  0  0  0
   57.1870   28.1630   45.1950 C   0  0  0  0  0  0  0  0  0  0  0  0
   57.7590   29.2300   44.4870 C   0  0  0  0  0  0  0  0  0  0  0  0
   56.7390   30.3480   43.5800 S   0  0  0  0  0  0  0  0  0  0  0  0
   57.6960   31.7200   42.9720 C   0  0  0  0  0  0  0  0  0  0  0  0
   55.6580   30.8920   44.4770 O   0  0  0  0  0  0  0  0  0  0  0  0
   56.1020   29.6250   42.4260 O   0  0  0  0  0  0  0  0  0  0  0  0
   59.1510   29.3950   44.4960 C   0  0  0  0  0  0  0  0  0  0  0  0
   59.9630   28.5130   45.2180 C   0  0  0  0  0  0  0  0  0  0  0  0
   63.3873   32.4808   48.7662 H   0  0  0  0  0  0  0  0  0  0  0  0
   63.1457   31.5136   47.2720 H   0  0  0  0  0  0  0  0  0  0  0  0
   62.7817   33.2727   47.2720 H   0  0  0  0  0  0  0  0  0  0  0  0
   61.3635   31.0871   46.4076 H   0  0  0  0  0  0  0  0  0  0  0  0
   60.0861   30.5546   47.5687 H   0  0  0  0  0  0  0  0  0  0  0  0
   61.1821   33.8575   46.0724 H   0  0  0  0  0  0  0  0  0  0  0  0
   59.5612   35.4702   45.0726 H   0  0  0  0  0  0  0  0  0  0  0  0
   57.1274   34.9197   45.0013 H   0  0  0  0  0  0  0  0  0  0  0  0
   56.3134   32.7414   45.9087 H   0  0  0  0  0  0  0  0  0  0  0  0
   57.9271   31.1072   46.8805 H   0  0  0  0  0  0  0  0  0  0  0  0
   61.6496   30.1804   49.1919 H   0  0  0  0  0  0  0  0  0  0  0  0
   62.0832   31.6231   50.2069 H   0  0  0  0  0  0  0  0  0  0  0  0
   59.7870   33.4910   48.6850 H   0  0  0  0  0  0  0  0  0  0  0  0
   60.2388   29.3112   53.3131 H   0  0  0  0  0  0  0  0  0  0  0  0
   61.3298   27.1681   53.9638 H   0  0  0  0  0  0  0  0  0  0  0  0
   61.8986   25.4759   52.2218 H   0  0  0  0  0  0  0  0  0  0  0  0
   61.3909   25.9263   49.8242 H   0  0  0  0  0  0  0  0  0  0  0  0
   59.2028   28.2047   48.5217 H   0  0  0  0  0  0  0  0  0  0  0  0
   60.7845   29.0480   48.4215 H   0  0  0  0  0  0  0  0  0  0  0  0
   57.5371   26.4454   46.4667 H   0  0  0  0  0  0  0  0  0  0  0  0
   56.0962   28.0215   45.1841 H   0  0  0  0  0  0  0  0  0  0  0  0
   58.0958   32.2932   43.8215 H   0  0  0  0  0  0  0  0  0  0  0  0
   58.5285   31.3435   42.3594 H   0  0  0  0  0  0  0  0  0  0  0  0
   57.0552   32.3712   42.3594 H   0  0  0  0  0  0  0  0  0  0  0  0
   59.6075   30.2221   43.9326 H   0  0  0  0  0  0  0  0  0  0  0  0
   61.0540   28.6532   45.2242 H   0  0  0  0  0  0  0  0  0  0  0  0
  1  2  1  0
  2  3  1  0
  3  4  1  0
  4  5  2  0
  5  6  1  0
  6  7  2  0
  7  8  1  0
  8  9  2  0
  2 10  1  0
 10 11  1  0
 11 12  2  0
 12 13  1  0
 12 14  1  0
 14 15  1  0
 15 16  1  0
 15 17  2  0
 17 18  1  0
 18 19  2  0
 19 20  1  0
 20 21  2  0
 21 22  1  0
 22 23  2  0
 23 24  1  0
 24 25  1  0
 25 26  1  0
 26 27  2  0
 26 28  1  0
 28 29  2  0
 29 30  1  0
 30 31  2  0
 31 32  1  0
 32 33  1  0
 32 34  2  0
 32 35  2  0
 31 36  1  0
 36 37  2  0
  9  4  1  0
 17 11  1  0
 23 18  1  0
 37 28  1  0
  1 38  1  0
  1 39  1  0
  1 40  1  0
  3 41  1  0
  3 42  1  0
  5 43  1  0
  6 44  1  0
  7 45  1  0
  8 46  1  0
  9 47  1  0
 10 48  1  0
 10 49  1  0
 13 50  1  0
 19 51  1  0
 20 52  1  0
 21 53  1  0
 22 54  1  0
 24 55  1  0
 24 56  1  0
 29 57  1  0
 30 58  1  0
 33 59  1  0
 33 60  1  0
 33 61  1  0
 36 62  1  0
 37 63  1  0
M  CHG  3  14  -1  16  -1  25  -1
M  END
>  <UniqueID>  (47) 
45

>  <SMILES>  (47) 
CN(Cc1ccccc1)Cc1c(O)[n-]c([O-])c1-c1ccccc1C[N-]C(=O)c1ccc(S(C)(=O)=O)cc1

>  <Energy>  (47) 
100.63010897870927

>  <Genealogy>  (47) 
CN(Cc1ccccc1)Cc1c(O)[n-]c([O-])c1-c1ccccc1C[N-]C(=O)c1ccc(S(C)(=O)=O)cc1 (protonated)
CN(Cc1ccccc1)Cc1c(O)[n-]c([O-])c1-c1ccccc1C[N-]C(=O)c1ccc(S(C)(=O)=O)cc1 (3D coordinates assigned)
CN(Cc1ccccc1)Cc1c(O)[n-]c([O-])c1-c1ccccc1C[N-]C(=O)c1ccc(S(C)(=O)=O)cc1 (optimized conformer: 100.63010897870927 kcal/mol)

>  <smiles>  (47) 
CN(Cc1ccccc1)Cc1c(O)[nH]c(O)c1-c1ccccc1CNC(=O)c1ccc(S(C)(=O)=O)cc1

>  <score_type>  (47) 
oracle

>  <origin>  (47) 
adg

>  <m_score__min__energy>  (47) 
-14.960000000000001

>  <m_primary>  (47) 
energy

$$$$
47:0
     RDKit          3D

 63 65  0  0  0  0  0  0  0  0999 V2000
   58.2680   33.4563   43.6874 H   0  0  0  0  0  0  0  0  0  0  0  0
   58.3180   33.5530   44.7820 C   0  0  0  0  0  0  0  0  0  0  0  0
   57.4980   32.6260   45.5830 C   0  0  0  0  0  0  0  0  0  0  0  0
   57.2570   32.8580   46.8000 O   0  0  0  0  0  0  0  0  0  0  0  0
   57.0090   31.4280   44.9730 N   0  0  0  0  0  0  0  0  0  0  0  0
   57.7830   30.2280   44.8660 C   0  0  0  0  0  0  0  0  0  0  0  0
   58.8270   30.0300   45.7680 C   0  0  0  0  0  0  0  0  0  0  0  0
   59.0266   30.7769   46.5505 H   0  0  0  0  0  0  0  0  0  0  0  0
   59.6160   28.8890   45.6790 C   0  0  0  0  0  0  0  0  0  0  0  0
   60.4406   28.7285   46.3891 H   0  0  0  0  0  0  0  0  0  0  0  0
   59.3540   27.9500   44.6830 C   0  0  0  0  0  0  0  0  0  0  0  0
   59.9814   27.0496   44.6084 H   0  0  0  0  0  0  0  0  0  0  0  0
   58.3270   28.1320   43.7960 N   0  0  0  0  0  0  0  0  0  0  0  0
   58.1010   27.0960   42.7760 C   0  0  0  0  0  0  0  0  0  0  0  0
   57.8914   26.1354   43.2692 H   0  0  0  0  0  0  0  0  0  0  0  0
   57.2438   27.3805   42.1481 H   0  0  0  0  0  0  0  0  0  0  0  0
   58.9988   26.9976   42.1481 H   0  0  0  0  0  0  0  0  0  0  0  0
   57.5020   29.2340   43.8950 C   0  0  0  0  0  0  0  0  0  0  0  0
   56.3090   29.3940   42.9750 C   0  0  0  0  0  0  0  0  0  0  0  0
   55.3961   29.5164   43.5763 H   0  0  0  0  0  0  0  0  0  0  0  0
   56.4517   30.2810   42.3403 H   0  0  0  0  0  0  0  0  0  0  0  0
   56.2130   28.5007   42.3403 H   0  0  0  0  0  0  0  0  0  0  0  0
   59.1210   34.5060   45.2820 C   0  0  0  0  0  0  0  0  0  0  0  0
   59.1072   35.4902   44.7910 H   0  0  0  0  0  0  0  0  0  0  0  0
   60.0220   34.3350   46.4410 C   0  0  0  0  0  0  0  0  0  0  0  0
   59.6080   34.6800   47.7390 C   0  0  0  0  0  0  0  0  0  0  0  0
   58.5823   35.0389   47.9095 H   0  0  0  0  0  0  0  0  0  0  0  0
   60.4940   34.5690   48.8140 C   0  0  0  0  0  0  0  0  0  0  0  0
   60.1627   34.8358   49.8284 H   0  0  0  0  0  0  0  0  0  0  0  0
   61.8020   34.1190   48.6020 C   0  0  0  0  0  0  0  0  0  0  0  0
   62.9470   34.0020   49.9800 S   0  0  0  0  0  0  0  0  0  0  0  0
   63.8650   32.5570   49.3290 C   0  0  0  0  0  0  0  0  0  0  0  0
   64.2519   32.8088   48.3306 H   0  0  0  0  0  0  0  0  0  0  0  0
   64.6742   32.3348   50.0402 H   0  0  0  0  0  0  0  0  0  0  0  0
   62.9970   31.2940   49.2130 C   0  0  0  0  0  0  0  0  0  0  0  0
   61.9998   31.5900   48.8552 H   0  0  0  0  0  0  0  0  0  0  0  0
   63.5099   30.6154   48.5156 H   0  0  0  0  0  0  0  0  0  0  0  0
   62.8300   30.5310   50.5410 C   0  0  0  0  0  0  0  0  0  0  0  0
   62.5978   29.4804   50.3123 H   0  0  0  0  0  0  0  0  0  0  0  0
   63.7732   30.6378   51.0969 H   0  0  0  0  0  0  0  0  0  0  0  0
   61.7030   31.0980   51.4410 C   0  0  0  0  0  0  0  0  0  0  0  0
   61.3518   30.2983   52.1097 H   0  0  0  0  0  0  0  0  0  0  0  0
   62.1233   31.9454   52.0025 H   0  0  0  0  0  0  0  0  0  0  0  0
   60.5460   31.6080   50.6640 N   0  0  0  0  0  0  0  0  0  0  0  0
   60.8810   32.3920   50.0520 H   0  0  0  0  0  0  0  0  0  0  0  0
   59.4730   32.1140   51.5580 C   0  0  0  0  0  0  0  0  0  0  0  0
   59.3331   31.3984   52.3816 H   0  0  0  0  0  0  0  0  0  0  0  0
   59.7847   33.1014   51.9294 H   0  0  0  0  0  0  0  0  0  0  0  0
   58.1280   32.2920   50.8230 C   0  0  0  0  0  0  0  0  0  0  0  0
   57.4704   31.4433   51.0622 H   0  0  0  0  0  0  0  0  0  0  0  0
   57.6670   33.2353   51.1512 H   0  0  0  0  0  0  0  0  0  0  0  0
   58.3350   32.3470   49.3740 N   0  0  0  0  0  0  0  0  0  0  0  0
   57.4050   32.5000   48.9170 H   0  0  0  0  0  0  0  0  0  0  0  0
   58.8810   31.0730   48.8830 C   0  0  0  0  0  0  0  0  0  0  0  0
   58.0728   30.3273   48.8567 H   0  0  0  0  0  0  0  0  0  0  0  0
   59.2963   31.2467   47.8793 H   0  0  0  0  0  0  0  0  0  0  0  0
   60.0190   30.5430   49.7840 C   0  0  0  0  0  0  0  0  0  0  0  0
   59.6313   29.7229   50.4062 H   0  0  0  0  0  0  0  0  0  0  0  0
   60.8366   30.1884   49.1392 H   0  0  0  0  0  0  0  0  0  0  0  0
   62.2300   33.8060   47.3070 C   0  0  0  0  0  0  0  0  0  0  0  0
   63.2629   33.4683   47.1365 H   0  0  0  0  0  0  0  0  0  0  0  0
   61.3460   33.9220   46.2290 C   0  0  0  0  0  0  0  0  0  0  0  0
   61.6904   33.6884   45.2108 H   0  0  0  0  0  0  0  0  0  0  0  0
  1  2  1  0
  2  3  1  0
  3  4  2  0
  3  5  1  0
  5  6  1  0
  6  7  2  0
  7  8  1  0
  7  9  1  0
  9 10  1  0
  9 11  2  0
 11 12  1  0
 11 13  1  0
 13 14  1  0
 14 15  1  0
 14 16  1  0
 14 17  1  0
 13 18  2  0
 18 19  1  0
 19 20  1  0
 19 21  1  0
 19 22  1  0
  2 23  2  0
 23 24  1  0
 23 25  1  0
 25 26  2  0
 26 27  1  0
 26 28  1  0
 28 29  1  0
 28 30  2  0
 30 31  1  0
 31 32  1  0
 32 33  1  0
 32 34  1  0
 32 35  1  0
 35 36  1  0
 35 37  1  0
 35 38  1  0
 38 39  1  0
 38 40  1  0
 38 41  1  0
 41 42  1  0
 41 43  1  0
 41 44  1  0
 44 45  1  0
 44 46  1  0
 46 47  1  0
 46 48  1  0
 46 49  1  0
 49 50  1  0
 49 51  1  0
 49 52  1  0
 52 53  1  0
 52 54  1  0
 54 55  1  0
 54 56  1  0
 54 57  1  0
 57 58  1  0
 57 59  1  0
 30 60  1  0
 60 61  1  0
 60 62  2  0
 62 63  1  0
 18  6  1  0
 62 25  1  0
 57 44  1  0
M  CHG  3   5  -1  13   1  44   1
M  END
>  <UniqueID>  (48) 
46

>  <SMILES>  (48) 
Cc1c([N-]C(=O)/C=C\c2ccc(SCCCC[NH+]3CCNCC3)cc2)ccc[n+]1C

>  <Energy>  (48) 
84.82467561769187

>  <Genealogy>  (48) 
Cc1c([N-]C(=O)C=Cc2ccc(SCCCC[NH+]3CCNCC3)cc2)ccc[n+]1C (protonated)
Cc1c([N-]C(=O)/C=C\c2ccc(SCCCC[NH+]3CCNCC3)cc2)ccc[n+]1C (cis-trans isomerization)
Cc1c([N-]C(=O)/C=C\c2ccc(SCCCC[NH+]3CCNCC3)cc2)ccc[n+]1C (3D coordinates assigned)
Cc1c([N-]C(=O)/C=C\c2ccc(SCCCC[NH+]3CCNCC3)cc2)ccc[n+]1C (nonaromatic ring conformer: 84.82467561769187 kcal/mol)

>  <smiles>  (48) 
Cc1c(NC(=O)C=Cc2ccc(SCCCCN3CCNCC3)cc2)ccc[n+]1C

>  <score_type>  (48) 
oracle

>  <origin>  (48) 
adg

>  <m_score__min__energy>  (48) 
-8.5299999999999994

>  <m_primary>  (48) 
energy

$$$$
48:0
     RDKit          3D

 41 43  0  0  0  0  0  0  0  0999 V2000
   64.6300   31.9670   46.9650 H   0  0  0  0  0  0  0  0  0  0  0  0
   63.6900   32.3960   46.8150 N   0  0  0  0  0  0  0  0  0  0  0  0
   62.6620   32.0500   47.5220 C   0  0  0  0  0  0  0  0  0  0  0  0
   62.1360   33.0960   48.8690 S   0  0  0  0  0  0  0  0  0  0  0  0
   60.4710   33.2110   48.1410 C   0  0  0  0  0  0  0  0  0  0  0  0
   60.5630   33.6035   47.1175 H   0  0  0  0  0  0  0  0  0  0  0  0
   59.8768   33.8753   48.7857 H   0  0  0  0  0  0  0  0  0  0  0  0
   59.7380   31.8500   48.0820 C   0  0  0  0  0  0  0  0  0  0  0  0
   59.0251   31.8931   47.2454 H   0  0  0  0  0  0  0  0  0  0  0  0
   59.2810   31.7287   49.0752 H   0  0  0  0  0  0  0  0  0  0  0  0
   60.6280   30.5660   47.8820 C   0  0  2  0  0  0  0  0  0  0  0  0
   59.8590   29.4490   47.1430 C   0  0  0  0  0  0  0  0  0  0  0  0
   60.3330   28.1180   47.1550 C   0  0  0  0  0  0  0  0  0  0  0  0
   61.2739   27.8826   47.6740 H   0  0  0  0  0  0  0  0  0  0  0  0
   59.6250   27.0970   46.5180 C   0  0  0  0  0  0  0  0  0  0  0  0
   60.0199   26.0703   46.5244 H   0  0  0  0  0  0  0  0  0  0  0  0
   58.4200   27.3730   45.8740 C   0  0  0  0  0  0  0  0  0  0  0  0
   57.8807   26.5691   45.3516 H   0  0  0  0  0  0  0  0  0  0  0  0
   57.8950   28.6680   45.8900 C   0  0  0  0  0  0  0  0  0  0  0  0
   56.6440   28.9200   45.2320 N   0  0  0  0  0  0  0  0  0  0  0  0
   56.3360   30.0450   44.3950 C   0  0  0  0  0  0  0  0  0  0  0  0
   55.4440   29.9200   43.5160 O   0  0  0  0  0  0  0  0  0  0  0  0
   57.0330   31.3410   44.5270 C   0  0  0  0  0  0  0  0  0  0  0  0
   57.0220   31.9730   45.7320 N   0  0  0  0  0  0  0  0  0  0  0  0
   57.6840   33.1430   45.9420 C   0  0  0  0  0  0  0  0  0  0  0  0
   57.6527   33.6230   46.9313 H   0  0  0  0  0  0  0  0  0  0  0  0
   58.4040   33.7350   44.9000 C   0  0  0  0  0  0  0  0  0  0  0  0
   59.1250   34.9620   45.1180 C   0  0  0  0  0  0  0  0  0  0  0  0
   59.7050   35.9460   45.2940 N   0  0  0  0  0  0  0  0  0  0  0  0
   58.4110   33.1230   43.6440 C   0  0  0  0  0  0  0  0  0  0  0  0
   58.9609   33.5843   42.8104 H   0  0  0  0  0  0  0  0  0  0  0  0
   57.7200   31.9260   43.4470 C   0  0  0  0  0  0  0  0  0  0  0  0
   57.7040   31.3610   42.2140 F   0  0  0  0  0  0  0  0  0  0  0  0
   58.5830   29.6820   46.5800 C   0  0  0  0  0  0  0  0  0  0  0  0
   58.1201   30.6745   46.6836 H   0  0  0  0  0  0  0  0  0  0  0  0
   61.0290   29.9700   49.2510 C   0  0  0  0  0  0  0  0  0  0  0  0
   60.6115   30.5906   50.0576 H   0  0  0  0  0  0  0  0  0  0  0  0
   60.6352   28.9463   49.3347 H   0  0  0  0  0  0  0  0  0  0  0  0
   62.1256   29.9490   49.3347 H   0  0  0  0  0  0  0  0  0  0  0  0
   61.8480   30.9350   47.1320 N   0  0  0  0  0  0  0  0  0  0  0  0
   62.0430   30.5170   46.1960 H   0  0  0  0  0  0  0  0  0  0  0  0
  1  2  1  0
  2  3  2  0
  3  4  1  0
  4  5  1  0
  5  6  1  0
  5  7  1  0
  5  8  1  0
  8  9  1  0
  8 10  1  0
  8 11  1  0
 11 12  1  0
 12 13  2  0
 13 14  1  0
 13 15  1  0
 15 16  1  0
 15 17  2  0
 17 18  1  0
 17 19  1  0
 19 20  1  0
 20 21  1  0
 21 22  2  0
 21 23  1  0
 23 24  2  0
 24 25  1  0
 25 26  1  0
 25 27  2  0
 27 28  1  0
 28 29  3  0
 27 30  1  0
 30 31  1  0
 30 32  2  0
 32 33  1  0
 19 34  2  0
 34 35  1  0
 11 36  1  1
 36 37  1  0
 36 38  1  0
 36 39  1  0
 11 40  1  0
 40 41  1  0
 40  3  1  0
 34 12  1  0
 32 23  1  0
M  CHG  1  20  -1
M  END
>  <UniqueID>  (49) 
47

>  <SMILES>  (49) 
[H]/N=C1\N[C@](C)(c2cccc([N-]C(=O)c3ncc(C#N)cc3F)c2)CCS1

>  <Energy>  (49) 
60.33405594129581

>  <Genealogy>  (49) 
CC1(c2cccc([N-]C(=O)c3ncc(C#N)cc3F)c2)CCSC(=N)N1 (protonated)
C[C@@]1(c2cccc([N-]C(=O)c3ncc(C#N)cc3F)c2)CCSC(=N)N1 (chirality)
[H]/N=C1\N[C@](C)(c2cccc([N-]C(=O)c3ncc(C#N)cc3F)c2)CCS1 (cis-trans isomerization)
[H]/N=C1\N[C@](C)(c2cccc([N-]C(=O)c3ncc(C#N)cc3F)c2)CCS1 (3D coordinates assigned)
[H]/N=C1\N[C@](C)(c2cccc([N-]C(=O)c3ncc(C#N)cc3F)c2)CCS1 (nonaromatic ring conformer: 60.33405594129581 kcal/mol)

>  <smiles>  (49) 
CC1(c2cccc(NC(=O)c3ncc(C#N)cc3F)c2)CCSC(=N)N1

>  <score_type>  (49) 
oracle

>  <origin>  (49) 
adg

>  <m_score__min__energy>  (49) 
-10.51

>  <m_primary>  (49) 
energy

$$$$
49:0
     RDKit          3D

 40 41  0  0  0  0  0  0  0  0999 V2000
   58.9320   29.7240   48.5910 C   0  0  0  0  0  0  0  0  0  0  0  0
   60.0990   28.8960   48.0630 C   0  0  0  0  0  0  0  0  0  0  0  0
   59.7490   27.4010   48.0340 C   0  0  0  0  0  0  0  0  0  0  0  0
   60.5120   26.6400   46.9330 C   0  0  0  0  0  0  0  0  0  0  0  0
   59.6170   26.1750   45.7690 C   0  0  0  0  0  0  0  0  0  0  0  0
   58.4550   27.0680   45.5660 N   0  0  0  0  0  0  0  0  0  0  0  0
   57.1830   26.6230   45.8220 C   0  0  0  0  0  0  0  0  0  0  0  0
   56.9740   25.4440   46.2200 O   0  0  0  0  0  0  0  0  0  0  0  0
   56.1230   27.4490   45.6570 N   0  0  0  0  0  0  0  0  0  0  0  0
   56.2710   28.7270   45.2350 C   0  0  0  0  0  0  0  0  0  0  0  0
   55.1380   29.5210   45.0720 O   0  0  0  0  0  0  0  0  0  0  0  0
   57.5530   29.2290   44.9530 C   0  0  0  0  0  0  0  0  0  0  0  0
   57.7400   30.6310   44.4880 C   0  0  0  0  0  0  0  0  0  0  0  0
   58.4530   30.8690   43.4760 O   0  0  0  0  0  0  0  0  0  0  0  0
   57.1610   31.7180   45.2240 N   0  0  0  0  0  0  0  0  0  0  0  0
   57.8610   32.8230   45.8120 C   0  0  0  0  0  0  0  0  0  0  0  0
   58.1330   32.8870   47.1920 C   0  0  0  0  0  0  0  0  0  0  0  0
   58.8410   33.9720   47.7200 C   0  0  0  0  0  0  0  0  0  0  0  0
   59.2930   34.9910   46.8770 C   0  0  0  0  0  0  0  0  0  0  0  0
   59.0470   34.9210   45.5040 C   0  0  0  0  0  0  0  0  0  0  0  0
   58.3410   33.8380   44.9730 C   0  0  0  0  0  0  0  0  0  0  0  0
   58.6490   28.3560   45.1310 C   0  0  0  0  0  0  0  0  0  0  0  0
   59.8200   28.7710   44.9040 O   0  0  0  0  0  0  0  0  0  0  0  0
   58.9443   29.7153   49.6909 H   0  0  0  0  0  0  0  0  0  0  0  0
   59.0248   30.7594   48.2315 H   0  0  0  0  0  0  0  0  0  0  0  0
   57.9853   29.2944   48.2315 H   0  0  0  0  0  0  0  0  0  0  0  0
   60.3421   29.2277   47.0428 H   0  0  0  0  0  0  0  0  0  0  0  0
   60.9600   29.0399   48.7323 H   0  0  0  0  0  0  0  0  0  0  0  0
   60.0030   26.9598   49.0091 H   0  0  0  0  0  0  0  0  0  0  0  0
   58.6738   27.3126   47.8191 H   0  0  0  0  0  0  0  0  0  0  0  0
   61.2913   27.3028   46.5287 H   0  0  0  0  0  0  0  0  0  0  0  0
   60.9308   25.7354   47.3981 H   0  0  0  0  0  0  0  0  0  0  0  0
   60.2160   26.1579   44.8466 H   0  0  0  0  0  0  0  0  0  0  0  0
   59.2343   25.1739   46.0165 H   0  0  0  0  0  0  0  0  0  0  0  0
   55.1730   30.5200   45.2360 H   0  0  0  0  0  0  0  0  0  0  0  0
   57.7878   32.0816   47.8569 H   0  0  0  0  0  0  0  0  0  0  0  0
   59.0422   34.0232   48.8002 H   0  0  0  0  0  0  0  0  0  0  0  0
   59.8422   35.8477   47.2947 H   0  0  0  0  0  0  0  0  0  0  0  0
   59.4094   35.7193   44.8397 H   0  0  0  0  0  0  0  0  0  0  0  0
   58.1608   33.7818   43.8893 H   0  0  0  0  0  0  0  0  0  0  0  0
  1  2  1  0
  2  3  1  0
  3  4  1  0
  4  5  1  0
  5  6  1  0
  6  7  1  0
  7  8  2  0
  7  9  1  0
  9 10  1  0
 10 11  1  0
 10 12  2  0
 12 13  1  0
 13 14  2  0
 13 15  1  0
 15 16  1  0
 16 17  2  0
 17 18  1  0
 18 19  2  0
 19 20  1  0
 20 21  2  0
 12 22  1  0
 22 23  2  0
 22  6  1  0
 21 16  1  0
  1 24  1  0
  1 25  1  0
  1 26  1  0
  2 27  1  0
  2 28  1  0
  3 29  1  0
  3 30  1  0
  4 31  1  0
  4 32  1  0
  5 33  1  0
  5 34  1  0
 11 35  1  0
 17 36  1  0
 18 37  1  0
 19 38  1  0
 20 39  1  0
 21 40  1  0
M  CHG  2   9  -1  15  -1
M  END
>  <UniqueID>  (50) 
48

>  <SMILES>  (50) 
CCCCCn1c(=O)[n-]c(O)c(C(=O)[N-]c2ccccc2)c1=O

>  <Energy>  (50) 
45.370587634629295

>  <Genealogy>  (50) 
CCCCCn1c(=O)[n-]c(O)c(C(=O)[N-]c2ccccc2)c1=O (protonated)
CCCCCn1c(=O)[n-]c(O)c(C(=O)[N-]c2ccccc2)c1=O (3D coordinates assigned)
CCCCCn1c(=O)[n-]c(O)c(C(=O)[N-]c2ccccc2)c1=O (optimized conformer: 45.370587634629295 kcal/mol)

>  <smiles>  (50) 
CCCCCn1c(=O)[nH]c(O)c(C(=O)Nc2ccccc2)c1=O

>  <score_type>  (50) 
oracle

>  <origin>  (50) 
adg

>  <m_score__min__energy>  (50) 
-10.199999999999999

>  <m_primary>  (50) 
energy

$$$$
50:0
     RDKit          3D

 56 59  0  0  0  0  0  0  0  0999 V2000
   55.2830   26.7190   46.0300 N   0  0  0  0  0  0  0  0  0  0  0  0
   56.6740   27.0210   46.1210 C   0  0  0  0  0  0  0  0  0  0  0  0
   57.2900   26.8200   47.2000 O   0  0  0  0  0  0  0  0  0  0  0  0
   57.3900   27.6220   44.9570 C   0  0  0  0  0  0  0  0  0  0  0  0
   56.9480   29.0360   44.7620 C   0  0  0  0  0  0  0  0  0  0  0  0
   55.6610   29.4560   44.5230 C   0  0  0  0  0  0  0  0  0  0  0  0
   55.6400   30.7990   44.5010 N   0  0  0  0  0  0  0  0  0  0  0  0
   56.9230   31.1490   44.7290 C   0  0  0  0  0  0  0  0  0  0  0  0
   57.3680   32.5730   44.8540 C   0  0  0  0  0  0  0  0  0  0  0  0
   58.8450   32.6650   45.2510 C   0  0  0  0  0  0  0  0  0  0  0  0
   59.0780   32.2190   46.6730 C   0  0  0  0  0  0  0  0  0  0  0  0
   58.3160   32.7660   47.7160 C   0  0  0  0  0  0  0  0  0  0  0  0
   58.4980   32.3270   49.0300 C   0  0  0  0  0  0  0  0  0  0  0  0
   59.4580   31.3450   49.3250 C   0  0  0  0  0  0  0  0  0  0  0  0
   59.5870   30.8300   50.7110 C   0  0  0  0  0  0  0  0  0  0  0  0
   59.5080   29.4420   50.9240 C   0  0  0  0  0  0  0  0  0  0  0  0
   59.6120   28.9120   52.2120 C   0  0  0  0  0  0  0  0  0  0  0  0
   59.7770   29.7600   53.3060 C   0  0  0  0  0  0  0  0  0  0  0  0
   59.8470   31.1400   53.1140 C   0  0  0  0  0  0  0  0  0  0  0  0
   59.7820   31.6870   51.8230 C   0  0  0  0  0  0  0  0  0  0  0  0
   59.8110   33.1540   51.6790 C   0  0  0  0  0  0  0  0  0  0  0  0
   58.7390   33.8020   51.8030 O   0  0  0  0  0  0  0  0  0  0  0  0
   61.0250   33.8640   51.4010 N   0  0  0  0  0  0  0  0  0  0  0  0
   62.2880   33.2620   50.9810 C   0  0  0  0  0  0  0  0  0  0  0  0
   62.4620   33.3470   49.4870 C   0  0  0  0  0  0  0  0  0  0  0  0
   61.5390   34.0700   48.7100 C   0  0  0  0  0  0  0  0  0  0  0  0
   61.6970   34.1520   47.3230 C   0  0  0  0  0  0  0  0  0  0  0  0
   62.7810   33.5270   46.7020 C   0  0  0  0  0  0  0  0  0  0  0  0
   63.7160   32.8270   47.4690 C   0  0  0  0  0  0  0  0  0  0  0  0
   63.5640   32.7390   48.8570 C   0  0  0  0  0  0  0  0  0  0  0  0
   64.4930   32.0670   49.5840 F   0  0  0  0  0  0  0  0  0  0  0  0
   60.2430   30.8200   48.2830 C   0  0  0  0  0  0  0  0  0  0  0  0
   60.0570   31.2570   46.9680 C   0  0  0  0  0  0  0  0  0  0  0  0
   57.7540   30.1010   44.9130 N   0  0  0  0  0  0  0  0  0  0  0  0
   54.6090   27.0880   46.7360 H   0  0  0  0  0  0  0  0  0  0  0  0
   58.4736   27.6014   45.1453 H   0  0  0  0  0  0  0  0  0  0  0  0
   57.1585   27.0424   44.0512 H   0  0  0  0  0  0  0  0  0  0  0  0
   54.7908   28.7998   44.3741 H   0  0  0  0  0  0  0  0  0  0  0  0
   57.2251   33.0786   43.8876 H   0  0  0  0  0  0  0  0  0  0  0  0
   56.7679   33.0552   45.6397 H   0  0  0  0  0  0  0  0  0  0  0  0
   59.4341   32.0253   44.5774 H   0  0  0  0  0  0  0  0  0  0  0  0
   59.1528   33.7180   45.1710 H   0  0  0  0  0  0  0  0  0  0  0  0
   57.5707   33.5452   47.4982 H   0  0  0  0  0  0  0  0  0  0  0  0
   57.8857   32.7531   49.8384 H   0  0  0  0  0  0  0  0  0  0  0  0
   59.3628   28.7671   50.0676 H   0  0  0  0  0  0  0  0  0  0  0  0
   59.5636   27.8235   52.3634 H   0  0  0  0  0  0  0  0  0  0  0  0
   59.8520   29.3412   54.3204 H   0  0  0  0  0  0  0  0  0  0  0  0
   59.9542   31.8060   53.9829 H   0  0  0  0  0  0  0  0  0  0  0  0
   63.1184   33.7927   51.4697 H   0  0  0  0  0  0  0  0  0  0  0  0
   62.2815   32.2009   51.2710 H   0  0  0  0  0  0  0  0  0  0  0  0
   60.6895   34.5729   49.1953 H   0  0  0  0  0  0  0  0  0  0  0  0
   60.9659   34.7100   46.7195 H   0  0  0  0  0  0  0  0  0  0  0  0
   62.8985   33.5859   45.6099 H   0  0  0  0  0  0  0  0  0  0  0  0
   64.5745   32.3435   46.9798 H   0  0  0  0  0  0  0  0  0  0  0  0
   61.0079   30.0610   48.5039 H   0  0  0  0  0  0  0  0  0  0  0  0
   60.6806   30.8452   46.1608 H   0  0  0  0  0  0  0  0  0  0  0  0
  1  2  1  0
  2  3  2  0
  2  4  1  0
  4  5  1  0
  5  6  2  0
  6  7  1  0
  7  8  1  0
  8  9  1  0
  9 10  1  0
 10 11  1  0
 11 12  2  0
 12 13  1  0
 13 14  2  0
 14 15  1  0
 15 16  2  0
 16 17  1  0
 17 18  2  0
 18 19  1  0
 19 20  2  0
 20 21  1  0
 21 22  2  0
 21 23  1  0
 23 24  1  0
 24 25  1  0
 25 26  2  0
 26 27  1  0
 27 28  2  0
 28 29  1  0
 29 30  2  0
 30 31  1  0
 14 32  1  0
 32 33  2  0
  8 34  2  0
 34  5  1  0
 33 11  1  0
 20 15  1  0
 30 25  1  0
  1 35  1  0
  4 36  1  0
  4 37  1  0
  6 38  1  0
  9 39  1  0
  9 40  1  0
 10 41  1  0
 10 42  1  0
 12 43  1  0
 13 44  1  0
 16 45  1  0
 17 46  1  0
 18 47  1  0
 19 48  1  0
 24 49  1  0
 24 50  1  0
 26 51  1  0
 27 52  1  0
 28 53  1  0
 29 54  1  0
 32 55  1  0
 33 56  1  0
M  CHG  3   1  -1   7  -1  23  -1
M  END
>  <UniqueID>  (51) 
49

>  <SMILES>  (51) 
[NH-]C(=O)Cc1c[n-]c(CCc2ccc(-c3ccccc3C(=O)[N-]Cc3ccccc3F)cc2)n1

>  <Energy>  (51) 
90.83327533986892

>  <Genealogy>  (51) 
[NH-]C(=O)Cc1c[n-]c(CCc2ccc(-c3ccccc3C(=O)[N-]Cc3ccccc3F)cc2)n1 (protonated)
[NH-]C(=O)Cc1c[n-]c(CCc2ccc(-c3ccccc3C(=O)[N-]Cc3ccccc3F)cc2)n1 (3D coordinates assigned)
[NH-]C(=O)Cc1c[n-]c(CCc2ccc(-c3ccccc3C(=O)[N-]Cc3ccccc3F)cc2)n1 (optimized conformer: 90.83327533986892 kcal/mol)

>  <smiles>  (51) 
NC(=O)Cc1c[nH]c(CCc2ccc(-c3ccccc3C(=O)NCc3ccccc3F)cc2)n1

>  <score_type>  (51) 
oracle

>  <origin>  (51) 
adg

>  <m_score__min__energy>  (51) 
-15.6

>  <m_primary>  (51) 
energy

$$$$
51:0
     RDKit          3D

 48 51  0  0  0  0  0  0  0  0999 V2000
   56.6900   29.1190   43.9480 H   0  0  0  0  0  0  0  0  0  0  0  0
   56.3550   29.9460   44.4270 O   0  0  0  0  0  0  0  0  0  0  0  0
   57.2030   30.9520   44.8920 C   0  0  0  0  0  0  0  0  0  0  0  0
   56.7220   32.2210   44.9660 N   0  0  0  0  0  0  0  0  0  0  0  0
   57.4690   33.2600   45.4200 C   0  0  0  0  0  0  0  0  0  0  0  0
   56.9590   34.4110   45.4710 O   0  0  0  0  0  0  0  0  0  0  0  0
   58.7970   33.0520   45.8200 C   0  0  0  0  0  0  0  0  0  0  0  0
   59.5800   34.1410   46.3440 N   0  0  0  0  0  0  0  0  0  0  0  0
   59.2080   35.1110   46.2320 H   0  0  0  0  0  0  0  0  0  0  0  0
   60.8120   33.9770   47.0660 C   0  0  0  0  0  0  0  0  0  0  0  0
   60.8270   33.8650   48.4680 C   0  0  0  0  0  0  0  0  0  0  0  0
   59.8836   33.9162   49.0313 H   0  0  0  0  0  0  0  0  0  0  0  0
   62.0350   33.6890   49.1490 C   0  0  0  0  0  0  0  0  0  0  0  0
   62.0416   33.6150   50.2465 H   0  0  0  0  0  0  0  0  0  0  0  0
   63.2350   33.6070   48.4360 C   0  0  0  0  0  0  0  0  0  0  0  0
   64.1859   33.4741   48.9728 H   0  0  0  0  0  0  0  0  0  0  0  0
   63.2260   33.6940   47.0410 C   0  0  0  0  0  0  0  0  0  0  0  0
   64.1696   33.6239   46.4800 H   0  0  0  0  0  0  0  0  0  0  0  0
   62.0190   33.8700   46.3580 C   0  0  0  0  0  0  0  0  0  0  0  0
   62.0153   33.9249   45.2594 H   0  0  0  0  0  0  0  0  0  0  0  0
   59.3160   31.7490   45.7580 C   0  0  0  0  0  0  0  0  0  0  0  0
   60.3548   31.5620   46.0678 H   0  0  0  0  0  0  0  0  0  0  0  0
   58.5240   30.6820   45.3050 C   0  0  0  0  0  0  0  0  0  0  0  0
   59.0940   29.3170   45.2130 C   0  0  0  0  0  0  0  0  0  0  0  0
   59.6869   29.0692   44.3202 H   0  0  0  0  0  0  0  0  0  0  0  0
   58.9360   28.3550   46.1500 C   0  0  0  0  0  0  0  0  0  0  0  0
   59.6980   28.4330   47.4260 C   0  0  0  0  0  0  0  0  0  0  0  0
   59.9360   27.2700   48.1810 C   0  0  0  0  0  0  0  0  0  0  0  0
   59.5655   26.2993   47.8199 H   0  0  0  0  0  0  0  0  0  0  0  0
   60.6400   27.3390   49.3870 C   0  0  0  0  0  0  0  0  0  0  0  0
   60.8240   26.4235   49.9683 H   0  0  0  0  0  0  0  0  0  0  0  0
   61.1100   28.5680   49.8550 C   0  0  0  0  0  0  0  0  0  0  0  0
   61.6658   28.6199   50.8028 H   0  0  0  0  0  0  0  0  0  0  0  0
   60.8740   29.7310   49.1190 C   0  0  0  0  0  0  0  0  0  0  0  0
   61.2424   30.6990   49.4895 H   0  0  0  0  0  0  0  0  0  0  0  0
   60.1710   29.6680   47.9130 C   0  0  0  0  0  0  0  0  0  0  0  0
   59.9856   30.5885   47.3400 H   0  0  0  0  0  0  0  0  0  0  0  0
   58.0450   27.1860   45.9280 C   0  0  0  0  0  0  0  0  0  0  0  0
   58.5970   25.9390   45.5890 C   0  0  0  0  0  0  0  0  0  0  0  0
   59.6867   25.8336   45.4821 H   0  0  0  0  0  0  0  0  0  0  0  0
   57.7680   24.8320   45.3870 C   0  0  0  0  0  0  0  0  0  0  0  0
   58.2069   23.8571   45.1284 H   0  0  0  0  0  0  0  0  0  0  0  0
   56.3830   24.9620   45.5130 C   0  0  0  0  0  0  0  0  0  0  0  0
   55.7330   24.0881   45.3586 H   0  0  0  0  0  0  0  0  0  0  0  0
   55.8220   26.2010   45.8350 C   0  0  0  0  0  0  0  0  0  0  0  0
   54.4440   26.3300   45.9530 O   0  0  0  0  0  0  0  0  0  0  0  0
   56.6480   27.3120   46.0350 C   0  0  0  0  0  0  0  0  0  0  0  0
   56.2032   28.2885   46.2770 H   0  0  0  0  0  0  0  0  0  0  0  0
  1  2  1  0
  2  3  1  0
  3  4  1  0
  4  5  1  0
  5  6  2  0
  5  7  1  0
  7  8  1  0
  8  9  1  0
  8 10  1  0
 10 11  2  0
 11 12  1  0
 11 13  1  0
 13 14  1  0
 13 15  2  0
 15 16  1  0
 15 17  1  0
 17 18  1  0
 17 19  2  0
 19 20  1  0
  7 21  2  0
 21 22  1  0
 21 23  1  0
 23 24  1  0
 24 25  1  0
 24 26  2  0
 26 27  1  0
 27 28  2  0
 28 29  1  0
 28 30  1  0
 30 31  1  0
 30 32  2  0
 32 33  1  0
 32 34  1  0
 34 35  1  0
 34 36  2  0
 36 37  1  0
 26 38  1  0
 38 39  2  0
 39 40  1  0
 39 41  1  0
 41 42  1  0
 41 43  2  0
 43 44  1  0
 43 45  1  0
 45 46  1  0
 45 47  2  0
 47 48  1  0
 23  3  2  0
 36 27  1  0
 47 38  1  0
 19 10  1  0
M  CHG  2   4  -1  46  -1
M  END
>  <UniqueID>  (52) 
50

>  <SMILES>  (52) 
O=c1[n-]c(O)c(/C=C(/c2ccccc2)c2cccc([O-])c2)cc1Nc1ccccc1

>  <Energy>  (52) 
75.33474192848863

>  <Genealogy>  (52) 
O=c1[n-]c(O)c(C=C(c2ccccc2)c2cccc([O-])c2)cc1Nc1ccccc1 (protonated)
O=c1[n-]c(O)c(/C=C(/c2ccccc2)c2cccc([O-])c2)cc1Nc1ccccc1 (cis-trans isomerization)
O=c1[n-]c(O)c(/C=C(/c2ccccc2)c2cccc([O-])c2)cc1Nc1ccccc1 (3D coordinates assigned)
O=c1[n-]c(O)c(/C=C(/c2ccccc2)c2cccc([O-])c2)cc1Nc1ccccc1 (optimized conformer: 75.33474192848863 kcal/mol)

>  <smiles>  (52) 
O=c1[nH]c(O)c(C=C(c2ccccc2)c2cccc(O)c2)cc1Nc1ccccc1

>  <score_type>  (52) 
oracle

>  <origin>  (52) 
adg

>  <m_score__min__energy>  (52) 
-14.41

>  <m_primary>  (52) 
energy

$$$$
52:0
     RDKit          3D

 45 47  0  0  0  0  0  0  0  0999 V2000
   61.2380   29.8040   48.9660 O   0  0  0  0  0  0  0  0  0  0  0  0
   60.1460   29.1750   48.9200 C   0  0  0  0  0  0  0  0  0  0  0  0
   58.8420   29.9350   48.9960 C   0  0  0  0  0  0  0  0  0  0  0  0
   58.9360   31.1380   49.9060 C   0  0  0  0  0  0  0  0  0  0  0  0
   58.2670   31.1190   51.1410 C   0  0  0  0  0  0  0  0  0  0  0  0
   58.3000   32.2340   51.9800 C   0  0  0  0  0  0  0  0  0  0  0  0
   58.9880   33.3820   51.5890 C   0  0  0  0  0  0  0  0  0  0  0  0
   59.6460   33.4210   50.3580 C   0  0  0  0  0  0  0  0  0  0  0  0
   59.6220   32.3030   49.5000 C   0  0  0  0  0  0  0  0  0  0  0  0
   60.2580   32.3120   48.2470 O   0  0  0  0  0  0  0  0  0  0  0  0
   59.4990   32.7010   46.7640 S   0  0  0  0  0  0  0  0  0  0  0  0
   58.2620   33.5110   47.0390 O   0  0  0  0  0  0  0  0  0  0  0  0
   60.4440   33.5120   45.9230 O   0  0  0  0  0  0  0  0  0  0  0  0
   59.0850   31.2230   45.9010 C   0  0  0  0  0  0  0  0  0  0  0  0
   60.0450   30.2300   45.6980 C   0  0  0  0  0  0  0  0  0  0  0  0
   59.7120   29.0630   45.0110 C   0  0  0  0  0  0  0  0  0  0  0  0
   58.4160   28.8700   44.5190 C   0  0  0  0  0  0  0  0  0  0  0  0
   58.1280   27.6470   43.9110 O   0  0  0  0  0  0  0  0  0  0  0  0
   57.4430   29.8870   44.6860 C   0  0  0  0  0  0  0  0  0  0  0  0
   56.0880   29.7960   44.0980 C   0  0  0  0  0  0  0  0  0  0  0  0
   55.9040   30.0820   42.8850 O   0  0  0  0  0  0  0  0  0  0  0  0
   55.0160   29.3290   44.8500 O   0  0  0  0  0  0  0  0  0  0  0  0
   57.7890   31.0480   45.4020 C   0  0  0  0  0  0  0  0  0  0  0  0
   60.1970   27.7440   48.7900 N   0  0  0  0  0  0  0  0  0  0  0  0
   59.6480   27.0050   47.8700 C   0  0  0  0  0  0  0  0  0  0  0  0
   60.3210   26.1680   47.0530 N   0  0  0  0  0  0  0  0  0  0  0  0
   59.4920   25.5490   46.1700 C   0  0  0  0  0  0  0  0  0  0  0  0
   58.1440   25.8980   46.2870 C   0  0  0  0  0  0  0  0  0  0  0  0
   57.0140   25.4310   45.4570 C   0  0  0  0  0  0  0  0  0  0  0  0
   57.2280   25.1700   44.2430 O   0  0  0  0  0  0  0  0  0  0  0  0
   55.6430   25.2720   45.9760 C   0  0  0  0  0  0  0  0  0  0  0  0
   55.2410   24.1700   46.4290 O   0  0  0  0  0  0  0  0  0  0  0  0
   54.7870   26.3670   46.0010 O   0  0  0  0  0  0  0  0  0  0  0  0
   58.0060   27.0320   47.5270 S   0  0  0  0  0  0  0  0  0  0  0  0
   58.5705   30.2751   47.9857 H   0  0  0  0  0  0  0  0  0  0  0  0
   58.0794   29.2579   49.4082 H   0  0  0  0  0  0  0  0  0  0  0  0
   57.7135   30.2196   51.4489 H   0  0  0  0  0  0  0  0  0  0  0  0
   57.7828   32.2070   52.9505 H   0  0  0  0  0  0  0  0  0  0  0  0
   59.0125   34.2593   52.2521 H   0  0  0  0  0  0  0  0  0  0  0  0
   60.1866   34.3301   50.0559 H   0  0  0  0  0  0  0  0  0  0  0  0
   61.0668   30.3684   46.0810 H   0  0  0  0  0  0  0  0  0  0  0  0
   60.4753   28.2866   44.8543 H   0  0  0  0  0  0  0  0  0  0  0  0
   57.1880   27.3030   43.7680 H   0  0  0  0  0  0  0  0  0  0  0  0
   57.0317   31.8276   45.5716 H   0  0  0  0  0  0  0  0  0  0  0  0
   59.8548   24.8292   45.4215 H   0  0  0  0  0  0  0  0  0  0  0  0
  1  2  2  0
  2  3  1  0
  3  4  1  0
  4  5  2  0
  5  6  1  0
  6  7  2  0
  7  8  1  0
  8  9  2  0
  9 10  1  0
 10 11  1  0
 11 12  2  0
 11 13  2  0
 11 14  1  0
 14 15  2  0
 15 16  1  0
 16 17  2  0
 17 18  1  0
 17 19  1  0
 19 20  1  0
 20 21  2  0
 20 22  1  0
 19 23  2  0
  2 24  1  0
 24 25  2  3
 25 26  1  0
 26 27  1  0
 27 28  2  0
 28 29  1  0
 29 30  2  0
 29 31  1  0
 31 32  2  0
 31 33  1  0
 28 34  1  0
  9  4  1  0
 23 14  1  0
 34 25  1  0
  3 35  1  0
  3 36  1  0
  5 37  1  0
  6 38  1  0
  7 39  1  0
  8 40  1  0
 15 41  1  0
 16 42  1  0
 18 43  1  0
 23 44  1  0
 27 45  1  0
M  CHG  3  22  -1  26  -1  33  -1
M  END
>  <UniqueID>  (53) 
51

>  <SMILES>  (53) 
O=C(Cc1ccccc1OS(=O)(=O)c1ccc(O)c(C(=O)[O-])c1)N=c1[n-]cc(C(=O)C(=O)[O-])s1

>  <Energy>  (53) 
88.32891043592913

>  <Genealogy>  (53) 
O=C(Cc1ccccc1OS(=O)(=O)c1ccc(O)c(C(=O)[O-])c1)N=c1[n-]cc(C(=O)C(=O)[O-])s1 (protonated)
O=C(Cc1ccccc1OS(=O)(=O)c1ccc(O)c(C(=O)[O-])c1)N=c1[n-]cc(C(=O)C(=O)[O-])s1 (3D coordinates assigned)
O=C(Cc1ccccc1OS(=O)(=O)c1ccc(O)c(C(=O)[O-])c1)N=c1[n-]cc(C(=O)C(=O)[O-])s1 (optimized conformer: 88.32891043592913 kcal/mol)

>  <smiles>  (53) 
O=C(Cc1ccccc1OS(=O)(=O)c1ccc(O)c(C(=O)O)c1)N=c1[nH]cc(C(=O)C(=O)O)s1

>  <score_type>  (53) 
oracle

>  <origin>  (53) 
adg

>  <m_score__min__energy>  (53) 
-16.510000000000002

>  <m_primary>  (53) 
energy

$$$$
53:0
     RDKit          3D

 60 63  0  0  0  0  0  0  0  0999 V2000
   57.0609   20.1998   43.4115 H   0  0  0  0  0  0  0  0  0  0  0  0
   56.8200   21.1600   43.8910 C   0  0  0  0  0  0  0  0  0  0  0  0
   55.5330   21.4530   44.2120 N   0  0  0  0  0  0  0  0  0  0  0  0
   55.1840   22.6370   44.7950 C   0  0  0  0  0  0  0  0  0  0  0  0
   53.9480   22.9060   45.1000 N   0  0  0  0  0  0  0  0  0  0  0  0
   53.3530   24.2060   45.2440 C   0  0  0  0  0  0  0  0  0  0  0  0
   54.0330   25.1900   45.6470 O   0  0  0  0  0  0  0  0  0  0  0  0
   51.9040   24.3710   44.8710 C   0  0  0  0  0  0  0  0  0  0  0  0
   51.7559   25.2830   45.4679 H   0  0  0  0  0  0  0  0  0  0  0  0
   51.4830   23.9550   43.4660 C   0  0  0  0  0  0  0  0  0  0  0  0
   50.6729   24.4936   42.9524 H   0  0  0  0  0  0  0  0  0  0  0  0
   52.0027   23.8211   42.5058 H   0  0  0  0  0  0  0  0  0  0  0  0
   51.1660   23.0550   44.6550 C   0  0  0  0  0  0  0  0  0  0  0  0
   50.1272   22.9441   44.9993 H   0  0  0  0  0  0  0  0  0  0  0  0
   51.3622   22.0026   44.9080 H   0  0  0  0  0  0  0  0  0  0  0  0
   56.1780   23.5810   45.0780 C   0  0  0  0  0  0  0  0  0  0  0  0
   55.9087   24.5502   45.5230 H   0  0  0  0  0  0  0  0  0  0  0  0
   57.5220   23.2850   44.7910 C   0  0  0  0  0  0  0  0  0  0  0  0
   58.5560   24.1880   45.0870 O   0  0  0  0  0  0  0  0  0  0  0  0
   58.4750   25.5850   44.9750 C   0  0  0  0  0  0  0  0  0  0  0  0
   58.1430   26.2230   43.7670 C   0  0  0  0  0  0  0  0  0  0  0  0
   57.9434   25.6213   42.8681 H   0  0  0  0  0  0  0  0  0  0  0  0
   58.0650   27.6150   43.7010 C   0  0  0  0  0  0  0  0  0  0  0  0
   57.8155   28.1007   42.7461 H   0  0  0  0  0  0  0  0  0  0  0  0
   58.3010   28.4020   44.8380 C   0  0  0  0  0  0  0  0  0  0  0  0
   58.1780   29.8330   44.7270 N   0  0  0  0  0  0  0  0  0  0  0  0
   59.0660   30.3740   44.6270 H   0  0  0  0  0  0  0  0  0  0  0  0
   56.9560   30.5910   44.8330 C   0  0  0  0  0  0  0  0  0  0  0  0
   55.8410   30.0160   44.9160 O   0  0  0  0  0  0  0  0  0  0  0  0
   56.9890   32.0230   44.8090 N   0  0  0  0  0  0  0  0  0  0  0  0
   58.0420   32.8320   45.3510 C   0  0  0  0  0  0  0  0  0  0  0  0
   59.1630   32.2480   45.9700 C   0  0  0  0  0  0  0  0  0  0  0  0
   59.2531   31.1526   46.0145 H   0  0  0  0  0  0  0  0  0  0  0  0
   60.1670   33.0530   46.5310 C   0  0  0  0  0  0  0  0  0  0  0  0
   61.3340   32.4200   47.1820 C   0  0  0  0  0  0  0  0  0  0  0  0
   61.2540   31.1960   47.4810 O   0  0  0  0  0  0  0  0  0  0  0  0
   62.5300   33.1590   47.5260 N   0  0  0  0  0  0  0  0  0  0  0  0
   63.3710   33.6670   46.4380 C   0  0  0  0  0  0  0  0  0  0  0  0
   64.2402   34.1920   46.8609 H   0  0  0  0  0  0  0  0  0  0  0  0
   63.7163   32.8263   45.8183 H   0  0  0  0  0  0  0  0  0  0  0  0
   62.7876   34.3639   45.8183 H   0  0  0  0  0  0  0  0  0  0  0  0
   63.0290   33.2410   48.9100 C   0  0  0  0  0  0  0  0  0  0  0  0
   63.2724   34.2887   49.1406 H   0  0  0  0  0  0  0  0  0  0  0  0
   62.2444   32.8637   49.5824 H   0  0  0  0  0  0  0  0  0  0  0  0
   64.2830   32.3840   49.1070 C   0  0  0  0  0  0  0  0  0  0  0  0
   64.5526   31.9344   48.1399 H   0  0  0  0  0  0  0  0  0  0  0  0
   65.3150   33.1800   49.5770 F   0  0  0  0  0  0  0  0  0  0  0  0
   64.0480   31.3810   50.0250 F   0  0  0  0  0  0  0  0  0  0  0  0
   60.0600   34.4480   46.4380 C   0  0  0  0  0  0  0  0  0  0  0  0
   60.8641   35.0868   46.8322 H   0  0  0  0  0  0  0  0  0  0  0  0
   58.9350   35.0300   45.8460 C   0  0  0  0  0  0  0  0  0  0  0  0
   58.8480   36.1253   45.7942 H   0  0  0  0  0  0  0  0  0  0  0  0
   57.9210   34.2260   45.3200 C   0  0  0  0  0  0  0  0  0  0  0  0
   56.8340   34.8040   44.7490 F   0  0  0  0  0  0  0  0  0  0  0  0
   58.5780   27.7560   46.0600 C   0  0  0  0  0  0  0  0  0  0  0  0
   58.7196   28.3524   46.9734 H   0  0  0  0  0  0  0  0  0  0  0  0
   58.6740   26.3620   46.1190 C   0  0  0  0  0  0  0  0  0  0  0  0
   58.9085   25.8724   47.0757 H   0  0  0  0  0  0  0  0  0  0  0  0
   57.8370   22.0740   44.1680 C   0  0  0  0  0  0  0  0  0  0  0  0
   58.8782   21.8435   43.8983 H   0  0  0  0  0  0  0  0  0  0  0  0
  1  2  1  0
  2  3  1  0
  3  4  1  0
  4  5  2  0
  5  6  1  0
  6  7  2  0
  6  8  1  0
  8  9  1  0
  8 10  1  0
 10 11  1  0
 10 12  1  0
 10 13  1  0
 13 14  1  0
 13 15  1  0
  4 16  1  0
 16 17  1  0
 16 18  2  0
 18 19  1  0
 19 20  1  0
 20 21  2  0
 21 22  1  0
 21 23  1  0
 23 24  1  0
 23 25  2  0
 25 26  1  0
 26 27  1  0
 26 28  1  0
 28 29  2  0
 28 30  1  0
 30 31  1  0
 31 32  2  0
 32 33  1  0
 32 34  1  0
 34 35  1  0
 35 36  2  0
 35 37  1  0
 37 38  1  0
 38 39  1  0
 38 40  1  0
 38 41  1  0
 37 42  1  0
 42 43  1  0
 42 44  1  0
 42 45  1  0
 45 46  1  0
 45 47  1  0
 45 48  1  0
 34 49  2  0
 49 50  1  0
 49 51  1  0
 51 52  1  0
 51 53  2  0
 53 54  1  0
 25 55  1  0
 55 56  1  0
 55 57  2  0
 57 58  1  0
 18 59  1  0
 59 60  1  0
 59  2  2  0
 13  8  1  0
 57 20  1  0
 53 31  1  0
M  CHG  2   3  -1  30  -1
M  END
>  <UniqueID>  (54) 
52

>  <SMILES>  (54) 
CN(CC(F)F)C(=O)c1ccc(F)c([N-]C(=O)Nc2ccc(Oc3cc[n-]/c(=N\C(=O)C4CC4)c3)cc2)c1

>  <Energy>  (54) 
349.94476445890234

>  <Genealogy>  (54) 
CN(CC(F)F)C(=O)c1ccc(F)c([N-]C(=O)Nc2ccc(Oc3cc[n-]c(=NC(=O)C4CC4)c3)cc2)c1 (protonated)
CN(CC(F)F)C(=O)c1ccc(F)c([N-]C(=O)Nc2ccc(Oc3cc[n-]/c(=N\C(=O)C4CC4)c3)cc2)c1 (cis-trans isomerization)
CN(CC(F)F)C(=O)c1ccc(F)c([N-]C(=O)Nc2ccc(Oc3cc[n-]/c(=N\C(=O)C4CC4)c3)cc2)c1 (3D coordinates assigned)
CN(CC(F)F)C(=O)c1ccc(F)c([N-]C(=O)Nc2ccc(Oc3cc[n-]/c(=N\C(=O)C4CC4)c3)cc2)c1 (nonaromatic ring conformer: 349.94476445890234 kcal/mol)

>  <smiles>  (54) 
CN(CC(F)F)C(=O)c1ccc(F)c(NC(=O)Nc2ccc(Oc3cc[nH]c(=NC(=O)C4CC4)c3)cc2)c1

>  <score_type>  (54) 
oracle

>  <origin>  (54) 
adg

>  <m_score__min__energy>  (54) 
-11.779999999999999

>  <m_primary>  (54) 
energy

$$$$
54:0
     RDKit          3D

 36 37  0  0  0  0  0  0  0  0999 V2000
   60.5620   28.9520   44.9700 C   0  0  0  0  0  0  0  0  0  0  0  0
   60.7690   27.6650   45.5140 O   0  0  0  0  0  0  0  0  0  0  0  0
   60.0900   27.5420   46.7480 C   0  0  0  0  0  0  0  0  0  0  0  0
   58.6450   27.2050   46.5230 C   0  0  0  0  0  0  0  0  0  0  0  0
   58.1270   25.9750   46.9400 C   0  0  0  0  0  0  0  0  0  0  0  0
   56.7810   25.6910   46.7180 C   0  0  0  0  0  0  0  0  0  0  0  0
   55.9610   26.6210   46.0730 C   0  0  0  0  0  0  0  0  0  0  0  0
   54.6050   26.3380   45.9610 O   0  0  0  0  0  0  0  0  0  0  0  0
   56.5270   27.8380   45.6110 C   0  0  0  0  0  0  0  0  0  0  0  0
   55.8530   28.7560   44.9730 N   0  0  0  0  0  0  0  0  0  0  0  0
   56.3390   29.7810   44.0990 C   0  0  0  0  0  0  0  0  0  0  0  0
   56.6040   29.4850   42.9040 O   0  0  0  0  0  0  0  0  0  0  0  0
   56.3910   31.1460   44.5530 N   0  0  0  0  0  0  0  0  0  0  0  0
   57.3640   31.7180   45.2000 C   0  0  0  0  0  0  0  0  0  0  0  0
   57.7880   32.9730   44.8830 N   0  0  0  0  0  0  0  0  0  0  0  0
   58.8080   33.5670   45.5560 C   0  0  0  0  0  0  0  0  0  0  0  0
   59.2480   34.9450   45.1810 C   0  0  0  0  0  0  0  0  0  0  0  0
   59.4420   32.8800   46.5950 C   0  0  0  0  0  0  0  0  0  0  0  0
   59.0000   31.5920   46.9120 C   0  0  0  0  0  0  0  0  0  0  0  0
   59.6490   30.8180   48.0140 C   0  0  0  0  0  0  0  0  0  0  0  0
   57.9740   31.0410   46.2080 N   0  0  0  0  0  0  0  0  0  0  0  0
   57.8380   28.0880   45.8760 N   0  0  0  0  0  0  0  0  0  0  0  0
   60.4448   29.6804   45.7859 H   0  0  0  0  0  0  0  0  0  0  0  0
   61.4267   29.2315   44.3502 H   0  0  0  0  0  0  0  0  0  0  0  0
   59.6532   28.9463   44.3502 H   0  0  0  0  0  0  0  0  0  0  0  0
   60.5596   26.7435   47.3412 H   0  0  0  0  0  0  0  0  0  0  0  0
   60.1519   28.5003   47.2845 H   0  0  0  0  0  0  0  0  0  0  0  0
   58.7754   25.2392   47.4382 H   0  0  0  0  0  0  0  0  0  0  0  0
   56.3619   24.7304   47.0520 H   0  0  0  0  0  0  0  0  0  0  0  0
   59.4351   35.5310   46.0929 H   0  0  0  0  0  0  0  0  0  0  0  0
   60.1720   34.8860   44.5870 H   0  0  0  0  0  0  0  0  0  0  0  0
   58.4608   35.4324   44.5870 H   0  0  0  0  0  0  0  0  0  0  0  0
   60.2707   33.3426   47.1512 H   0  0  0  0  0  0  0  0  0  0  0  0
   59.3170   31.2140   48.9851 H   0  0  0  0  0  0  0  0  0  0  0  0
   59.3656   29.7582   47.9339 H   0  0  0  0  0  0  0  0  0  0  0  0
   60.7420   30.9123   47.9339 H   0  0  0  0  0  0  0  0  0  0  0  0
  1  2  1  0
  2  3  1  0
  3  4  1  0
  4  5  2  0
  5  6  1  0
  6  7  2  0
  7  8  1  0
  7  9  1  0
  9 10  2  3
 10 11  1  0
 11 12  2  0
 11 13  1  0
 13 14  2  3
 14 15  1  0
 15 16  2  0
 16 17  1  0
 16 18  1  0
 18 19  2  0
 19 20  1  0
 19 21  1  0
  9 22  1  0
 22  4  1  0
 21 14  1  0
  1 23  1  0
  1 24  1  0
  1 25  1  0
  3 26  1  0
  3 27  1  0
  5 28  1  0
  6 29  1  0
 17 30  1  0
 17 31  1  0
 17 32  1  0
 18 33  1  0
 20 34  1  0
 20 35  1  0
 20 36  1  0
M  CHG  3   8  -1  21  -1  22  -1
M  END
>  <UniqueID>  (55) 
53

>  <SMILES>  (55) 
COCc1ccc([O-])c(=NC(=O)N=c2nc(C)cc(C)[n-]2)[n-]1

>  <Energy>  (55) 
50.45887567939958

>  <Genealogy>  (55) 
COCc1ccc([O-])c(=NC(=O)N=c2nc(C)cc(C)[n-]2)[n-]1 (protonated)
COCc1ccc([O-])c(=NC(=O)N=c2nc(C)cc(C)[n-]2)[n-]1 (3D coordinates assigned)
COCc1ccc([O-])c(=NC(=O)N=c2nc(C)cc(C)[n-]2)[n-]1 (optimized conformer: 50.45887567939958 kcal/mol)

>  <smiles>  (55) 
COCc1ccc(O)c(=NC(=O)N=c2nc(C)cc(C)[nH]2)[nH]1

>  <score_type>  (55) 
oracle

>  <origin>  (55) 
adg

>  <m_score__min__energy>  (55) 
-13.619999999999999

>  <m_primary>  (55) 
energy

$$$$
55:0
     RDKit          3D

 45 48  0  0  0  0  0  0  0  0999 V2000
   54.9200   31.3160   52.1930 C   0  0  0  0  0  0  0  0  0  0  0  0
   54.4820   30.0880   52.5110 C   0  0  0  0  0  0  0  0  0  0  0  0
   53.1460   29.6970   52.6960 C   0  0  0  0  0  0  0  0  0  0  0  0
   51.9910   30.3170   52.3830 C   0  0  0  0  0  0  0  0  0  0  0  0
   51.6140   30.7980   51.0430 C   0  0  0  0  0  0  0  0  0  0  0  0
   51.5190   30.0230   49.9470 N   0  0  0  0  0  0  0  0  0  0  0  0
   51.0170   30.8610   49.0150 C   0  0  0  0  0  0  0  0  0  0  0  0
   50.7950   30.5020   47.8290 O   0  0  0  0  0  0  0  0  0  0  0  0
   50.7600   32.1120   49.4560 N   0  0  0  0  0  0  0  0  0  0  0  0
   51.1310   32.0480   50.7450 C   0  0  0  0  0  0  0  0  0  0  0  0
   51.0240   33.1120   51.6320 O   0  0  0  0  0  0  0  0  0  0  0  0
   53.1870   28.4460   53.2880 C   0  0  0  0  0  0  0  0  0  0  0  0
   54.5150   28.0850   53.3720 C   0  0  0  0  0  0  0  0  0  0  0  0
   54.9980   26.7690   53.9010 C   0  0  0  0  0  0  0  0  0  0  0  0
   55.3050   29.0770   52.8980 N   0  0  0  0  0  0  0  0  0  0  0  0
   56.7440   29.0590   52.8310 C   0  0  0  0  0  0  0  0  0  0  0  0
   57.4370   29.4520   51.7400 N   0  0  0  0  0  0  0  0  0  0  0  0
   58.7800   29.3620   51.9380 C   0  0  0  0  0  0  0  0  0  0  0  0
   59.7310   29.7010   50.8680 C   0  0  0  0  0  0  0  0  0  0  0  0
   60.5930   28.8410   50.5430 O   0  0  0  0  0  0  0  0  0  0  0  0
   59.6730   30.9560   50.1620 N   0  0  0  0  0  0  0  0  0  0  0  0
   60.6080   31.2700   49.0890 C   0  0  0  0  0  0  0  0  0  0  0  0
   60.0340   32.4870   48.3750 C   0  0  0  0  0  0  0  0  0  0  0  0
   58.5660   32.5360   48.7800 C   0  0  0  0  0  0  0  0  0  0  0  0
   58.4960   31.8200   50.1290 C   0  0  2  0  0  0  0  0  0  0  0  0
   58.5290   32.8150   51.2540 C   0  0  0  0  0  0  0  0  0  0  0  0
   57.8730   32.6100   52.3110 O   0  0  0  0  0  0  0  0  0  0  0  0
   59.3230   33.9490   51.1510 O   0  0  0  0  0  0  0  0  0  0  0  0
   59.1620   28.8660   53.1820 C   0  0  0  0  0  0  0  0  0  0  0  0
   57.7670   28.5640   54.0710 S   0  0  0  0  0  0  0  0  0  0  0  0
   55.9976   31.5019   52.0741 H   0  0  0  0  0  0  0  0  0  0  0  0
   54.2014   32.1367   52.0513 H   0  0  0  0  0  0  0  0  0  0  0  0
   51.2689   30.4773   53.1971 H   0  0  0  0  0  0  0  0  0  0  0  0
   52.3245   27.8532   53.6267 H   0  0  0  0  0  0  0  0  0  0  0  0
   54.9900   26.7907   55.0008 H   0  0  0  0  0  0  0  0  0  0  0  0
   54.3361   25.9656   53.5453 H   0  0  0  0  0  0  0  0  0  0  0  0
   56.0224   26.5845   53.5453 H   0  0  0  0  0  0  0  0  0  0  0  0
   61.6005   31.5023   49.5026 H   0  0  0  0  0  0  0  0  0  0  0  0
   60.7321   30.4206   48.4012 H   0  0  0  0  0  0  0  0  0  0  0  0
   60.5529   33.4022   48.6960 H   0  0  0  0  0  0  0  0  0  0  0  0
   60.1562   32.4176   47.2840 H   0  0  0  0  0  0  0  0  0  0  0  0
   58.2281   33.5781   48.8788 H   0  0  0  0  0  0  0  0  0  0  0  0
   57.9172   32.0611   48.0293 H   0  0  0  0  0  0  0  0  0  0  0  0
   57.5653   31.2457   50.2471 H   0  0  0  0  0  0  0  0  0  0  0  0
   60.1947   28.7008   53.5231 H   0  0  0  0  0  0  0  0  0  0  0  0
  1  2  2  0
  2  3  1  0
  3  4  2  3
  4  5  1  0
  5  6  1  0
  6  7  1  0
  7  8  2  0
  7  9  1  0
  9 10  1  0
 10 11  1  0
  3 12  1  0
 12 13  2  0
 13 14  1  0
 13 15  1  0
 15 16  1  0
 16 17  2  0
 17 18  1  0
 18 19  1  0
 19 20  2  0
 19 21  1  0
 21 22  1  0
 22 23  1  0
 23 24  1  0
 24 25  1  0
 25 26  1  0
 26 27  2  0
 26 28  1  0
 18 29  2  0
 29 30  1  0
 15  2  1  0
 30 16  1  0
 10  5  2  0
 25 21  1  0
  1 31  1  0
  1 32  1  0
  4 33  1  0
 12 34  1  0
 14 35  1  0
 14 36  1  0
 14 37  1  0
 22 38  1  0
 22 39  1  0
 23 40  1  0
 23 41  1  0
 24 42  1  0
 24 43  1  0
 25 44  1  6
 29 45  1  0
M  CHG  4   6  -1   9  -1  11  -1  28  -1
M  END
>  <UniqueID>  (56) 
54

>  <SMILES>  (56) 
C=c1c(=Cc2[n-]c(=O)[n-]c2[O-])cc(C)n1-c1nc(C(=O)N2CCC[C@@H]2C(=O)[O-])cs1

>  <Energy>  (56) 
156.97059809175505

>  <Genealogy>  (56) 
C=c1c(=Cc2[n-]c(=O)[n-]c2[O-])cc(C)n1-c1nc(C(=O)N2CCCC2C(=O)[O-])cs1 (protonated)
C=c1c(=Cc2[n-]c(=O)[n-]c2[O-])cc(C)n1-c1nc(C(=O)N2CCC[C@@H]2C(=O)[O-])cs1 (chirality)
C=c1c(=Cc2[n-]c(=O)[n-]c2[O-])cc(C)n1-c1nc(C(=O)N2CCC[C@@H]2C(=O)[O-])cs1 (3D coordinates assigned)
C=c1c(=Cc2[n-]c(=O)[n-]c2[O-])cc(C)n1-c1nc(C(=O)N2CCC[C@@H]2C(=O)[O-])cs1 (nonaromatic ring conformer: 156.97059809175505 kcal/mol)

>  <smiles>  (56) 
C=c1c(=Cc2[nH]c(=O)[nH]c2O)cc(C)n1-c1nc(C(=O)N2CCCC2C(=O)O)cs1

>  <score_type>  (56) 
oracle

>  <origin>  (56) 
adg

>  <m_score__min__energy>  (56) 
-17.84

>  <m_primary>  (56) 
energy

$$$$
56:0
     RDKit          3D

 43 45  0  0  0  0  0  0  0  0999 V2000
   58.4445   29.0067   44.4580 H   0  0  0  0  0  0  0  0  0  0  0  0
   57.4200   28.6580   44.6550 C   0  0  0  0  0  0  0  0  0  0  0  0
   57.2050   27.3750   44.6950 N   0  0  0  0  0  0  0  0  0  0  0  0
   57.0080   26.6420   45.8770 N   0  0  0  0  0  0  0  0  0  0  0  0
   57.9480   26.1100   46.6880 C   0  0  0  0  0  0  0  0  0  0  0  0
   59.4260   26.3570   46.5930 C   0  0  0  0  0  0  0  0  0  0  0  0
   59.9413   25.7561   47.3568 H   0  0  0  0  0  0  0  0  0  0  0  0
   59.7658   26.0723   45.5863 H   0  0  0  0  0  0  0  0  0  0  0  0
   59.7430   27.8120   46.8140 C   0  0  0  0  0  0  0  0  0  0  0  0
   60.4240   28.5450   45.8260 C   0  0  0  0  0  0  0  0  0  0  0  0
   60.7336   28.0515   44.8929 H   0  0  0  0  0  0  0  0  0  0  0  0
   60.7090   29.9000   46.0260 C   0  0  0  0  0  0  0  0  0  0  0  0
   61.2406   30.4693   45.2493 H   0  0  0  0  0  0  0  0  0  0  0  0
   60.3200   30.5320   47.2100 C   0  0  0  0  0  0  0  0  0  0  0  0
   60.5425   31.5983   47.3631 H   0  0  0  0  0  0  0  0  0  0  0  0
   59.6480   29.8090   48.2000 C   0  0  0  0  0  0  0  0  0  0  0  0
   59.3440   30.3062   49.1329 H   0  0  0  0  0  0  0  0  0  0  0  0
   59.3620   28.4540   48.0050 C   0  0  0  0  0  0  0  0  0  0  0  0
   58.8361   27.8877   48.7878 H   0  0  0  0  0  0  0  0  0  0  0  0
   57.4020   25.2010   47.5250 N   0  0  0  0  0  0  0  0  0  0  0  0
   56.1090   25.1220   47.2350 N   0  0  0  0  0  0  0  0  0  0  0  0
   55.8950   25.9770   46.2200 C   0  0  0  0  0  0  0  0  0  0  0  0
   54.7850   26.1180   45.6440 O   0  0  0  0  0  0  0  0  0  0  0  0
   56.3620   29.6760   44.8600 C   0  0  0  0  0  0  0  0  0  0  0  0
   55.1500   29.3350   44.8660 O   0  0  0  0  0  0  0  0  0  0  0  0
   56.6800   31.0630   45.0400 N   0  0  0  0  0  0  0  0  0  0  0  0
   57.5500   31.8530   44.1750 C   0  0  0  0  0  0  0  0  0  0  0  0
   58.5928   31.5354   44.3221 H   0  0  0  0  0  0  0  0  0  0  0  0
   57.2513   31.6953   43.1281 H   0  0  0  0  0  0  0  0  0  0  0  0
   57.4240   33.3420   44.5090 C   0  0  0  0  0  0  0  0  0  0  0  0
   57.7513   33.9363   43.6432 H   0  0  0  0  0  0  0  0  0  0  0  0
   56.3737   33.5660   44.7469 H   0  0  0  0  0  0  0  0  0  0  0  0
   58.2770   33.6880   45.6980 C   0  0  0  0  0  0  0  0  0  0  0  0
   59.2780   34.6700   45.5940 C   0  0  0  0  0  0  0  0  0  0  0  0
   59.4572   35.1700   44.6307 H   0  0  0  0  0  0  0  0  0  0  0  0
   60.0460   35.0130   46.7100 C   0  0  0  0  0  0  0  0  0  0  0  0
   60.8335   35.7759   46.6213 H   0  0  0  0  0  0  0  0  0  0  0  0
   59.8150   34.3880   47.9390 C   0  0  0  0  0  0  0  0  0  0  0  0
   60.4225   34.6571   48.8156 H   0  0  0  0  0  0  0  0  0  0  0  0
   58.8120   33.4210   48.0540 C   0  0  0  0  0  0  0  0  0  0  0  0
   58.6286   32.9320   49.0221 H   0  0  0  0  0  0  0  0  0  0  0  0
   58.0420   33.0750   46.9400 C   0  0  0  0  0  0  0  0  0  0  0  0
   57.2485   32.3193   47.0362 H   0  0  0  0  0  0  0  0  0  0  0  0
  1  2  1  0
  2  3  2  0
  3  4  1  0
  4  5  1  0
  5  6  1  0
  6  7  1  0
  6  8  1  0
  6  9  1  0
  9 10  2  0
 10 11  1  0
 10 12  1  0
 12 13  1  0
 12 14  2  0
 14 15  1  0
 14 16  1  0
 16 17  1  0
 16 18  2  0
 18 19  1  0
  5 20  2  0
 20 21  1  0
 21 22  1  0
 22 23  2  0
  2 24  1  0
 24 25  2  0
 24 26  1  0
 26 27  1  0
 27 28  1  0
 27 29  1  0
 27 30  1  0
 30 31  1  0
 30 32  1  0
 30 33  1  0
 33 34  2  0
 34 35  1  0
 34 36  1  0
 36 37  1  0
 36 38  2  0
 38 39  1  0
 38 40  1  0
 40 41  1  0
 40 42  2  0
 42 43  1  0
 22  4  1  0
 42 33  1  0
 18  9  1  0
M  CHG  2  21  -1  26  -1
M  END
>  <UniqueID>  (57) 
55

>  <SMILES>  (57) 
O=C(/C=N\n1c(Cc2ccccc2)n[n-]c1=O)[N-]CCc1ccccc1

>  <Energy>  (57) 
86.10422208515294

>  <Genealogy>  (57) 
O=C(C=Nn1c(Cc2ccccc2)n[n-]c1=O)[N-]CCc1ccccc1 (protonated)
O=C(/C=N\n1c(Cc2ccccc2)n[n-]c1=O)[N-]CCc1ccccc1 (cis-trans isomerization)
O=C(/C=N\n1c(Cc2ccccc2)n[n-]c1=O)[N-]CCc1ccccc1 (3D coordinates assigned)
O=C(/C=N\n1c(Cc2ccccc2)n[n-]c1=O)[N-]CCc1ccccc1 (optimized conformer: 86.10422208515294 kcal/mol)

>  <smiles>  (57) 
O=C(C=Nn1c(Cc2ccccc2)n[nH]c1=O)NCCc1ccccc1

>  <score_type>  (57) 
oracle

>  <origin>  (57) 
adg

>  <m_score__min__energy>  (57) 
-12.289999999999999

>  <m_primary>  (57) 
energy

$$$$
57:0
     RDKit          3D

 42 44  0  0  0  0  0  0  0  0999 V2000
   60.3590   32.7800   51.3640 C   0  0  0  0  0  0  0  0  0  0  0  0
   58.9320   32.3180   51.5160 C   0  0  0  0  0  0  0  0  0  0  0  0
   58.0220   33.1620   52.1760 C   0  0  0  0  0  0  0  0  0  0  0  0
   56.6980   32.7720   52.3730 C   0  0  0  0  0  0  0  0  0  0  0  0
   56.2470   31.5330   51.8990 C   0  0  0  0  0  0  0  0  0  0  0  0
   54.8940   31.0970   52.1150 N   0  0  0  0  0  0  0  0  0  0  0  0
   54.5270   29.7450   52.4390 C   0  0  0  0  0  0  0  0  0  0  0  0
   55.4000   28.9130   52.8060 O   0  0  0  0  0  0  0  0  0  0  0  0
   53.0970   29.3120   52.3350 C   0  0  0  0  0  0  0  0  0  0  0  0
   52.3420   30.2440   51.4250 C   0  0  0  0  0  0  0  0  0  0  0  0
   52.0730   29.8730   50.1000 C   0  0  0  0  0  0  0  0  0  0  0  0
   51.4220   30.7280   49.2700 N   0  0  0  0  0  0  0  0  0  0  0  0
   51.0290   31.9550   49.6990 C   0  0  0  0  0  0  0  0  0  0  0  0
   50.4250   32.7310   48.9140 O   0  0  0  0  0  0  0  0  0  0  0  0
   51.2890   32.3450   50.9730 N   0  0  0  0  0  0  0  0  0  0  0  0
   51.9370   31.5260   51.8410 C   0  0  0  0  0  0  0  0  0  0  0  0
   52.1700   31.9260   53.0130 O   0  0  0  0  0  0  0  0  0  0  0  0
   57.1480   30.6800   51.2520 C   0  0  0  0  0  0  0  0  0  0  0  0
   58.4860   31.0580   51.0320 C   0  0  0  0  0  0  0  0  0  0  0  0
   59.3760   30.1160   50.3030 C   0  0  0  0  0  0  0  0  0  0  0  0
   59.7060   29.0190   50.8300 O   0  0  0  0  0  0  0  0  0  0  0  0
   59.8830   30.4850   49.0080 N   0  0  0  0  0  0  0  0  0  0  0  0
   59.3340   31.2980   48.1500 C   0  0  0  0  0  0  0  0  0  0  0  0
   59.4260   32.6800   48.3630 C   0  0  0  0  0  0  0  0  0  0  0  0
   58.8400   33.5570   47.4490 C   0  0  0  0  0  0  0  0  0  0  0  0
   58.1690   33.0530   46.3330 C   0  0  0  0  0  0  0  0  0  0  0  0
   57.4290   34.1430   45.1750 Cl  0  0  0  0  0  0  0  0  0  0  0  0
   58.0940   31.6710   46.1500 C   0  0  0  0  0  0  0  0  0  0  0  0
   58.6720   30.8320   47.0530 N   0  0  0  0  0  0  0  0  0  0  0  0
   60.8055   32.9246   52.3588 H   0  0  0  0  0  0  0  0  0  0  0  0
   60.9330   32.0218   50.8111 H   0  0  0  0  0  0  0  0  0  0  0  0
   60.3797   33.7307   50.8111 H   0  0  0  0  0  0  0  0  0  0  0  0
   58.3590   34.1431   52.5419 H   0  0  0  0  0  0  0  0  0  0  0  0
   56.0038   33.4405   52.9033 H   0  0  0  0  0  0  0  0  0  0  0  0
   54.1380   31.8170   52.1050 H   0  0  0  0  0  0  0  0  0  0  0  0
   53.0542   28.2911   51.9277 H   0  0  0  0  0  0  0  0  0  0  0  0
   52.6393   29.3341   53.3350 H   0  0  0  0  0  0  0  0  0  0  0  0
   52.3903   28.8863   49.7317 H   0  0  0  0  0  0  0  0  0  0  0  0
   56.8036   29.6935   50.9081 H   0  0  0  0  0  0  0  0  0  0  0  0
   59.9562   33.0707   49.2441 H   0  0  0  0  0  0  0  0  0  0  0  0
   58.9066   34.6435   47.6075 H   0  0  0  0  0  0  0  0  0  0  0  0
   57.5677   31.2599   45.2759 H   0  0  0  0  0  0  0  0  0  0  0  0
  1  2  1  0
  2  3  2  0
  3  4  1  0
  4  5  2  0
  5  6  1  0
  6  7  1  0
  7  8  2  0
  7  9  1  0
  9 10  1  0
 10 11  2  0
 11 12  1  0
 12 13  1  0
 13 14  2  0
 13 15  1  0
 15 16  1  0
 16 17  2  0
  5 18  1  0
 18 19  2  0
 19 20  1  0
 20 21  2  0
 20 22  1  0
 22 23  2  3
 23 24  1  0
 24 25  2  0
 25 26  1  0
 26 27  1  0
 26 28  2  0
 28 29  1  0
 19  2  1  0
 29 23  1  0
 16 10  1  0
  1 30  1  0
  1 31  1  0
  1 32  1  0
  3 33  1  0
  4 34  1  0
  6 35  1  0
  9 36  1  0
  9 37  1  0
 11 38  1  0
 18 39  1  0
 24 40  1  0
 25 41  1  0
 28 42  1  0
M  CHG  3  12  -1  15  -1  29  -1
M  END
>  <UniqueID>  (58) 
56

>  <SMILES>  (58) 
Cc1ccc(NC(=O)Cc2c[n-]c(=O)[n-]c2=O)cc1C(=O)N=c1ccc(Cl)c[n-]1

>  <Energy>  (58) 
56.13231716477634

>  <Genealogy>  (58) 
Cc1ccc(NC(=O)Cc2c[n-]c(=O)[n-]c2=O)cc1C(=O)N=c1ccc(Cl)c[n-]1 (protonated)
Cc1ccc(NC(=O)Cc2c[n-]c(=O)[n-]c2=O)cc1C(=O)N=c1ccc(Cl)c[n-]1 (3D coordinates assigned)
Cc1ccc(NC(=O)Cc2c[n-]c(=O)[n-]c2=O)cc1C(=O)N=c1ccc(Cl)c[n-]1 (optimized conformer: 56.13231716477634 kcal/mol)

>  <smiles>  (58) 
Cc1ccc(NC(=O)Cc2c[nH]c(=O)[nH]c2=O)cc1C(=O)N=c1ccc(Cl)c[nH]1

>  <score_type>  (58) 
oracle

>  <origin>  (58) 
adg

>  <m_score__min__energy>  (58) 
-14.57

>  <m_primary>  (58) 
energy

$$$$
58:0
     RDKit          3D

 57 60  0  0  0  0  0  0  0  0999 V2000
   59.7423   28.5917   47.8065 H   0  0  0  0  0  0  0  0  0  0  0  0
   60.3360   29.5090   47.9330 C   0  0  0  0  0  0  0  0  0  0  0  0
   60.6620   29.9580   49.2160 C   0  0  0  0  0  0  0  0  0  0  0  0
   60.3227   29.3955   50.0983 H   0  0  0  0  0  0  0  0  0  0  0  0
   61.4200   31.1230   49.3780 C   0  0  0  0  0  0  0  0  0  0  0  0
   61.6746   31.4746   50.3887 H   0  0  0  0  0  0  0  0  0  0  0  0
   61.8570   31.8450   48.2560 C   0  0  0  0  0  0  0  0  0  0  0  0
   62.6290   33.1280   48.4300 C   0  0  0  0  0  0  0  0  0  0  0  0
   62.7259   33.6266   47.4543 H   0  0  0  0  0  0  0  0  0  0  0  0
   63.6231   32.8910   48.8370 H   0  0  0  0  0  0  0  0  0  0  0  0
   61.9230   34.0440   49.3830 C   0  0  0  0  0  0  0  0  0  0  0  0
   62.4270   34.2680   50.5210 O   0  0  0  0  0  0  0  0  0  0  0  0
   60.6520   34.6020   49.0110 N   0  0  0  0  0  0  0  0  0  0  0  0
   59.9250   34.2740   47.9810 C   0  0  0  0  0  0  0  0  0  0  0  0
   60.0210   34.9210   46.7990 N   0  0  0  0  0  0  0  0  0  0  0  0
   59.1890   34.4450   45.8710 N   0  0  0  0  0  0  0  0  0  0  0  0
   58.4290   33.4180   46.3100 C   0  0  0  0  0  0  0  0  0  0  0  0
   57.4320   32.7030   45.4560 C   0  0  0  0  0  0  0  0  0  0  0  0
   56.4285   33.0952   45.6777 H   0  0  0  0  0  0  0  0  0  0  0  0
   57.4986   31.6288   45.6831 H   0  0  0  0  0  0  0  0  0  0  0  0
   57.7180   32.8900   43.9570 C   0  0  0  0  0  0  0  0  0  0  0  0
   58.7677   33.1971   43.8394 H   0  0  0  0  0  0  0  0  0  0  0  0
   57.0143   33.6506   43.5879 H   0  0  0  0  0  0  0  0  0  0  0  0
   57.4860   31.6150   43.1170 C   0  0  0  0  0  0  0  0  0  0  0  0
   58.3536   31.4658   42.4574 H   0  0  0  0  0  0  0  0  0  0  0  0
   56.5583   31.7598   42.5439 H   0  0  0  0  0  0  0  0  0  0  0  0
   57.3080   30.3810   43.9660 C   0  0  0  0  0  0  0  0  0  0  0  0
   56.0900   30.0820   44.4940 N   0  0  0  0  0  0  0  0  0  0  0  0
   55.8980   28.9970   45.2460 N   0  0  0  0  0  0  0  0  0  0  0  0
   56.8990   28.1140   45.5040 C   0  0  0  0  0  0  0  0  0  0  0  0
   56.6400   27.0830   46.2570 N   0  0  0  0  0  0  0  0  0  0  0  0
   55.8320   25.9400   45.9330 C   0  0  0  0  0  0  0  0  0  0  0  0
   54.5780   26.0610   45.9820 O   0  0  0  0  0  0  0  0  0  0  0  0
   56.4330   24.6890   45.3920 C   0  0  0  0  0  0  0  0  0  0  0  0
   56.4530   24.4950   43.9980 C   0  0  0  0  0  0  0  0  0  0  0  0
   56.0222   25.2610   43.3365 H   0  0  0  0  0  0  0  0  0  0  0  0
   57.0130   23.3420   43.4450 C   0  0  0  0  0  0  0  0  0  0  0  0
   57.0195   23.2034   42.3538 H   0  0  0  0  0  0  0  0  0  0  0  0
   57.5640   22.3660   44.2740 C   0  0  0  0  0  0  0  0  0  0  0  0
   58.0029   21.4576   43.8357 H   0  0  0  0  0  0  0  0  0  0  0  0
   57.5600   22.5390   45.6590 C   0  0  0  0  0  0  0  0  0  0  0  0
   58.0061   21.7699   46.3067 H   0  0  0  0  0  0  0  0  0  0  0  0
   56.9910   23.6870   46.2310 C   0  0  0  0  0  0  0  0  0  0  0  0
   57.0660   23.8600   48.0230 S   0  0  0  0  0  0  0  0  0  0  0  0
   55.4990   22.9720   48.2990 C   0  0  0  0  0  0  0  0  0  0  0  0
   55.3203   22.8708   49.3797 H   0  0  0  0  0  0  0  0  0  0  0  0
   54.6725   23.5360   47.8420 H   0  0  0  0  0  0  0  0  0  0  0  0
   55.5581   21.9732   47.8420 H   0  0  0  0  0  0  0  0  0  0  0  0
   58.1770   28.3710   44.9710 C   0  0  0  0  0  0  0  0  0  0  0  0
   59.0106   27.6813   45.1696 H   0  0  0  0  0  0  0  0  0  0  0  0
   58.3750   29.5070   44.1900 C   0  0  0  0  0  0  0  0  0  0  0  0
   59.3630   29.7145   43.7532 H   0  0  0  0  0  0  0  0  0  0  0  0
   58.7550   33.0560   47.9230 S   0  0  0  0  0  0  0  0  0  0  0  0
   61.5180   31.3900   46.9680 C   0  0  0  0  0  0  0  0  0  0  0  0
   61.8481   31.9540   46.0832 H   0  0  0  0  0  0  0  0  0  0  0  0
   60.7640   30.2250   46.8090 C   0  0  0  0  0  0  0  0  0  0  0  0
   60.5065   29.8701   45.8002 H   0  0  0  0  0  0  0  0  0  0  0  0
  1  2  1  0
  2  3  2  0
  3  4  1  0
  3  5  1  0
  5  6  1  0
  5  7  2  0
  7  8  1  0
  8  9  1  0
  8 10  1  0
  8 11  1  0
 11 12  2  0
 11 13  1  0
 13 14  2  3
 14 15  1  0
 15 16  1  0
 16 17  2  0
 17 18  1  0
 18 19  1  0
 18 20  1  0
 18 21  1  0
 21 22  1  0
 21 23  1  0
 21 24  1  0
 24 25  1  0
 24 26  1  0
 24 27  1  0
 27 28  2  0
 28 29  1  0
 29 30  1  0
 30 31  2  0
 31 32  1  0
 32 33  2  0
 32 34  1  0
 34 35  2  0
 35 36  1  0
 35 37  1  0
 37 38  1  0
 37 39  2  0
 39 40  1  0
 39 41  1  0
 41 42  1  0
 41 43  2  0
 43 44  1  0
 44 45  1  0
 45 46  1  0
 45 47  1  0
 45 48  1  0
 30 49  1  0
 49 50  1  0
 49 51  2  0
 51 52  1  0
 17 53  1  0
  7 54  1  0
 54 55  1  0
 54 56  2  0
 56 57  1  0
 56  2  1  0
 53 14  1  0
 51 27  1  0
 43 34  1  0
M  CHG  2  15  -1  29  -1
M  END
>  <UniqueID>  (59) 
57

>  <SMILES>  (59) 
CSc1ccccc1C(=O)/N=c1\ccc(CCCc2n[n-]c(=NC(=O)Cc3ccccc3)s2)n[n-]1

>  <Energy>  (59) 
103.96449869338934

>  <Genealogy>  (59) 
CSc1ccccc1C(=O)N=c1ccc(CCCc2n[n-]c(=NC(=O)Cc3ccccc3)s2)n[n-]1 (protonated)
CSc1ccccc1C(=O)/N=c1\ccc(CCCc2n[n-]c(=NC(=O)Cc3ccccc3)s2)n[n-]1 (cis-trans isomerization)
CSc1ccccc1C(=O)/N=c1\ccc(CCCc2n[n-]c(=NC(=O)Cc3ccccc3)s2)n[n-]1 (3D coordinates assigned)
CSc1ccccc1C(=O)/N=c1\ccc(CCCc2n[n-]c(=NC(=O)Cc3ccccc3)s2)n[n-]1 (optimized conformer: 103.96449869338934 kcal/mol)

>  <smiles>  (59) 
CSc1ccccc1C(=O)N=c1ccc(CCCc2n[nH]c(=NC(=O)Cc3ccccc3)s2)n[nH]1

>  <score_type>  (59) 
oracle

>  <origin>  (59) 
adg

>  <m_score__min__energy>  (59) 
-13.460000000000001

>  <m_primary>  (59) 
energy

$$$$
59:0
     RDKit          3D

 54 57  0  0  0  0  0  0  0  0999 V2000
   55.4890   29.2100   45.0380 N   0  0  0  0  0  0  0  0  0  0  0  0
   56.8980   28.9670   44.9230 C   0  0  0  0  0  0  0  0  0  0  0  0
   57.3800   27.6550   45.0580 C   0  0  0  0  0  0  0  0  0  0  0  0
   58.7430   27.3830   44.9220 C   0  0  0  0  0  0  0  0  0  0  0  0
   59.6370   28.4150   44.6380 C   0  0  0  0  0  0  0  0  0  0  0  0
   59.1720   29.7260   44.5100 C   0  0  0  0  0  0  0  0  0  0  0  0
   57.8090   30.0140   44.6600 C   0  0  0  0  0  0  0  0  0  0  0  0
   57.2730   31.7270   44.5310 S   0  0  0  0  0  0  0  0  0  0  0  0
   57.9500   32.1550   46.1360 C   0  0  0  0  0  0  0  0  0  0  0  0
   58.0950   33.5020   46.4920 C   0  0  0  0  0  0  0  0  0  0  0  0
   58.6420   33.8450   47.7300 C   0  0  0  0  0  0  0  0  0  0  0  0
   59.0550   32.8440   48.6280 C   0  0  0  0  0  0  0  0  0  0  0  0
   59.6210   33.1930   49.9080 N   0  0  0  0  0  0  0  0  0  0  0  0
   58.8450   33.0010   51.1100 C   0  0  0  0  0  0  0  0  0  0  0  0
   58.4490   34.0050   51.7640 O   0  0  0  0  0  0  0  0  0  0  0  0
   58.4530   31.6210   51.5710 C   0  0  0  0  0  0  0  0  0  0  0  0
   59.5680   30.6350   51.3500 C   0  0  0  0  0  0  0  0  0  0  0  0
   60.8390   30.8650   51.9060 C   0  0  0  0  0  0  0  0  0  0  0  0
   61.8670   29.9340   51.7220 C   0  0  0  0  0  0  0  0  0  0  0  0
   61.6310   28.7630   50.9930 C   0  0  0  0  0  0  0  0  0  0  0  0
   60.3660   28.5230   50.4470 C   0  0  0  0  0  0  0  0  0  0  0  0
   59.3360   29.4520   50.6270 C   0  0  0  0  0  0  0  0  0  0  0  0
   61.0060   33.5870   49.9980 C   0  0  0  0  0  0  0  0  0  0  0  0
   61.4190   34.1710   51.0370 O   0  0  0  0  0  0  0  0  0  0  0  0
   61.9590   33.2970   48.9000 C   0  0  0  0  0  0  0  0  0  0  0  0
   61.9760   34.0900   47.7390 C   0  0  0  0  0  0  0  0  0  0  0  0
   62.8750   33.8100   46.7050 C   0  0  0  0  0  0  0  0  0  0  0  0
   63.7670   32.7410   46.8230 C   0  0  0  0  0  0  0  0  0  0  0  0
   63.7680   31.9570   47.9780 C   0  0  0  0  0  0  0  0  0  0  0  0
   62.8720   32.2340   49.0150 C   0  0  0  0  0  0  0  0  0  0  0  0
   58.8950   31.4930   48.2680 C   0  0  0  0  0  0  0  0  0  0  0  0
   58.3400   31.1530   47.0300 C   0  0  0  0  0  0  0  0  0  0  0  0
   55.1340   30.0000   45.6230 H   0  0  0  0  0  0  0  0  0  0  0  0
   54.7820   28.5940   44.5830 H   0  0  0  0  0  0  0  0  0  0  0  0
   56.6786   26.8352   45.2725 H   0  0  0  0  0  0  0  0  0  0  0  0
   59.1120   26.3534   45.0390 H   0  0  0  0  0  0  0  0  0  0  0  0
   60.7081   28.1967   44.5148 H   0  0  0  0  0  0  0  0  0  0  0  0
   59.8808   30.5379   44.2899 H   0  0  0  0  0  0  0  0  0  0  0  0
   57.7773   34.2912   45.7947 H   0  0  0  0  0  0  0  0  0  0  0  0
   58.7507   34.9045   48.0049 H   0  0  0  0  0  0  0  0  0  0  0  0
   58.2128   31.6561   52.6439 H   0  0  0  0  0  0  0  0  0  0  0  0
   57.5793   31.2946   50.9878 H   0  0  0  0  0  0  0  0  0  0  0  0
   61.0256   31.7799   52.4875 H   0  0  0  0  0  0  0  0  0  0  0  0
   62.8622   30.1227   52.1510 H   0  0  0  0  0  0  0  0  0  0  0  0
   62.4401   28.0317   50.8495 H   0  0  0  0  0  0  0  0  0  0  0  0
   60.1807   27.6019   49.8749 H   0  0  0  0  0  0  0  0  0  0  0  0
   58.3408   29.2562   50.2013 H   0  0  0  0  0  0  0  0  0  0  0  0
   61.2784   34.9352   47.6435 H   0  0  0  0  0  0  0  0  0  0  0  0
   62.8799   34.4320   45.7978 H   0  0  0  0  0  0  0  0  0  0  0  0
   64.4684   32.5172   46.0058 H   0  0  0  0  0  0  0  0  0  0  0  0
   64.4751   31.1197   48.0725 H   0  0  0  0  0  0  0  0  0  0  0  0
   62.8814   31.6170   49.9256 H   0  0  0  0  0  0  0  0  0  0  0  0
   59.2080   30.7005   48.9637 H   0  0  0  0  0  0  0  0  0  0  0  0
   58.2100   30.0949   46.7590 H   0  0  0  0  0  0  0  0  0  0  0  0
  1  2  1  0
  2  3  2  0
  3  4  1  0
  4  5  2  0
  5  6  1  0
  6  7  2  0
  7  8  1  0
  8  9  1  0
  9 10  2  0
 10 11  1  0
 11 12  2  0
 12 13  1  0
 13 14  1  0
 14 15  2  0
 14 16  1  0
 16 17  1  0
 17 18  2  0
 18 19  1  0
 19 20  2  0
 20 21  1  0
 21 22  2  0
 13 23  1  0
 23 24  2  0
 23 25  1  0
 25 26  2  0
 26 27  1  0
 27 28  2  0
 28 29  1  0
 29 30  2  0
 12 31  1  0
 31 32  2  0
  7  2  1  0
 32  9  1  0
 22 17  1  0
 30 25  1  0
  1 33  1  0
  1 34  1  0
  3 35  1  0
  4 36  1  0
  5 37  1  0
  6 38  1  0
 10 39  1  0
 11 40  1  0
 16 41  1  0
 16 42  1  0
 18 43  1  0
 19 44  1  0
 20 45  1  0
 21 46  1  0
 22 47  1  0
 26 48  1  0
 27 49  1  0
 28 50  1  0
 29 51  1  0
 30 52  1  0
 31 53  1  0
 32 54  1  0
M  END
>  <UniqueID>  (60) 
58

>  <SMILES>  (60) 
Nc1ccccc1Sc1ccc(N(C(=O)Cc2ccccc2)C(=O)c2ccccc2)cc1

>  <Energy>  (60) 
65.1454297066159

>  <Genealogy>  (60) 
Nc1ccccc1Sc1ccc(N(C(=O)Cc2ccccc2)C(=O)c2ccccc2)cc1 (3D coordinates assigned)
Nc1ccccc1Sc1ccc(N(C(=O)Cc2ccccc2)C(=O)c2ccccc2)cc1 (optimized conformer: 65.1454297066159 kcal/mol)

>  <smiles>  (60) 
Nc1ccccc1Sc1ccc(N(C(=O)Cc2ccccc2)C(=O)c2ccccc2)cc1

>  <score_type>  (60) 
oracle

>  <origin>  (60) 
adg

>  <m_score__min__energy>  (60) 
-9.6699999999999999

>  <m_primary>  (60) 
energy

$$$$
60:0
     RDKit          3D

 42 44  0  0  0  0  0  0  0  0999 V2000
   58.3780   29.3940   44.1020 O   0  0  0  0  0  0  0  0  0  0  0  0
   57.3410   29.6480   44.7670 C   0  0  0  0  0  0  0  0  0  0  0  0
   56.4850   28.5090   45.2470 C   0  0  0  0  0  0  0  0  0  0  0  0
   57.2050   27.2420   45.1200 N   0  0  0  0  0  0  0  0  0  0  0  0
   56.6130   25.9780   45.4620 C   0  0  0  0  0  0  0  0  0  0  0  0
   55.5590   25.9430   46.1520 O   0  0  0  0  0  0  0  0  0  0  0  0
   57.2100   24.7100   45.0060 C   0  0  0  0  0  0  0  0  0  0  0  0
   56.7150   23.8540   44.0260 C   0  0  0  0  0  0  0  0  0  0  0  0
   57.4860   22.6980   43.8600 C   0  0  0  0  0  0  0  0  0  0  0  0
   58.5850   22.6310   44.7050 C   0  0  0  0  0  0  0  0  0  0  0  0
   58.5940   24.0130   45.6610 S   0  0  0  0  0  0  0  0  0  0  0  0
   57.0060   31.0180   45.0290 N   0  0  0  0  0  0  0  0  0  0  0  0
   57.9540   32.0690   45.2550 C   0  0  0  0  0  0  0  0  0  0  0  0
   57.7120   33.3200   44.6740 C   0  0  0  0  0  0  0  0  0  0  0  0
   58.5720   34.3910   44.9170 C   0  0  0  0  0  0  0  0  0  0  0  0
   59.6910   34.2170   45.7300 C   0  0  0  0  0  0  0  0  0  0  0  0
   59.9660   32.9650   46.2860 C   0  0  0  0  0  0  0  0  0  0  0  0
   59.1140   31.8710   46.0430 C   0  0  0  0  0  0  0  0  0  0  0  0
   59.4490   30.5710   46.5720 N   0  0  0  0  0  0  0  0  0  0  0  0
   60.6350   29.8510   46.0980 C   0  0  0  0  0  0  0  0  0  0  0  0
   60.3520   28.3340   46.0370 C   0  0  0  0  0  0  0  0  0  0  0  0
   59.1140   27.9710   46.6270 O   0  0  0  0  0  0  0  0  0  0  0  0
   58.9960   28.5540   47.9090 C   0  0  0  0  0  0  0  0  0  0  0  0
   58.7820   30.0680   47.7790 C   0  0  0  0  0  0  0  0  0  0  0  0
   56.2225   28.6726   46.3026 H   0  0  0  0  0  0  0  0  0  0  0  0
   55.5730   28.4645   44.6335 H   0  0  0  0  0  0  0  0  0  0  0  0
   58.1960   27.2770   44.7900 H   0  0  0  0  0  0  0  0  0  0  0  0
   55.8081   24.0653   43.4404 H   0  0  0  0  0  0  0  0  0  0  0  0
   57.2433   21.9144   43.1271 H   0  0  0  0  0  0  0  0  0  0  0  0
   59.3219   21.8152   44.7424 H   0  0  0  0  0  0  0  0  0  0  0  0
   56.8375   33.4590   44.0214 H   0  0  0  0  0  0  0  0  0  0  0  0
   58.3671   35.3735   44.4668 H   0  0  0  0  0  0  0  0  0  0  0  0
   60.3587   35.0670   45.9342 H   0  0  0  0  0  0  0  0  0  0  0  0
   60.8559   32.8330   46.9190 H   0  0  0  0  0  0  0  0  0  0  0  0
   60.9008   30.2113   45.0932 H   0  0  0  0  0  0  0  0  0  0  0  0
   61.4662   30.0323   46.7953 H   0  0  0  0  0  0  0  0  0  0  0  0
   60.3408   28.0229   44.9820 H   0  0  0  0  0  0  0  0  0  0  0  0
   61.1458   27.8308   46.6085 H   0  0  0  0  0  0  0  0  0  0  0  0
   58.1383   28.1086   48.4343 H   0  0  0  0  0  0  0  0  0  0  0  0
   59.9192   28.3671   48.4772 H   0  0  0  0  0  0  0  0  0  0  0  0
   57.7043   30.2786   47.7135 H   0  0  0  0  0  0  0  0  0  0  0  0
   59.2088   30.5685   48.6607 H   0  0  0  0  0  0  0  0  0  0  0  0
  1  2  2  0
  2  3  1  0
  3  4  1  0
  4  5  1  0
  5  6  2  0
  5  7  1  0
  7  8  2  0
  8  9  1  0
  9 10  2  0
 10 11  1  0
  2 12  1  0
 12 13  1  0
 13 14  2  0
 14 15  1  0
 15 16  2  0
 16 17  1  0
 17 18  2  0
 18 19  1  0
 19 20  1  0
 20 21  1  0
 21 22  1  0
 22 23  1  0
 23 24  1  0
 11  7  1  0
 18 13  1  0
 24 19  1  0
  3 25  1  0
  3 26  1  0
  4 27  1  0
  8 28  1  0
  9 29  1  0
 10 30  1  0
 14 31  1  0
 15 32  1  0
 16 33  1  0
 17 34  1  0
 20 35  1  0
 20 36  1  0
 21 37  1  0
 21 38  1  0
 23 39  1  0
 23 40  1  0
 24 41  1  0
 24 42  1  0
M  CHG  1  12  -1
M  END
>  <UniqueID>  (61) 
59

>  <SMILES>  (61) 
O=C(CNC(=O)c1cccs1)[N-]c1ccccc1N1CCOCC1

>  <Energy>  (61) 
81.19820543473071

>  <Genealogy>  (61) 
O=C(CNC(=O)c1cccs1)[N-]c1ccccc1N1CCOCC1 (protonated)
O=C(CNC(=O)c1cccs1)[N-]c1ccccc1N1CCOCC1 (3D coordinates assigned)
O=C(CNC(=O)c1cccs1)[N-]c1ccccc1N1CCOCC1 (nonaromatic ring conformer: 81.19820543473071 kcal/mol)

>  <smiles>  (61) 
O=C(CNC(=O)c1cccs1)Nc1ccccc1N1CCOCC1

>  <score_type>  (61) 
oracle

>  <origin>  (61) 
adg

>  <m_score__min__energy>  (61) 
-9.7699999999999996

>  <m_primary>  (61) 
energy

$$$$
61:0
     RDKit          3D

 54 56  0  0  1  0  0  0  0  0999 V2000
   51.7150   29.9820   52.5840 C   0  0  0  0  0  0  0  0  0  0  0  0
   52.3430   30.9790   51.2810 S   0  0  0  0  0  0  0  0  0  0  0  0
   52.4690   30.0910   50.0660 O   0  0  0  0  0  0  0  0  0  0  0  0
   51.3820   32.1040   50.9350 O   0  0  0  0  0  0  0  0  0  0  0  0
   53.8910   31.5860   51.6620 N   0  0  0  0  0  0  0  0  0  0  0  0
   55.0220   30.8000   51.9890 C   0  0  0  0  0  0  0  0  0  0  0  0
   55.0070   29.6820   52.7810 C   0  0  0  0  0  0  0  0  0  0  0  0
   56.1480   28.9440   53.0690 C   0  0  0  0  0  0  0  0  0  0  0  0
   57.3530   29.3430   52.5420 C   0  0  0  0  0  0  0  0  0  0  0  0
   57.3770   30.4600   51.7490 C   0  0  0  0  0  0  0  0  0  0  0  0
   58.5760   30.9190   51.1800 O   0  0  0  0  0  0  0  0  0  0  0  0
   58.6870   31.0800   49.8050 C   0  0  0  0  0  0  0  0  0  0  0  0
   59.0240   30.0510   48.9490 C   0  0  0  0  0  0  0  0  0  0  0  0
   59.1110   30.3050   47.5920 C   0  0  0  0  0  0  0  0  0  0  0  0
   59.4310   29.3000   46.8330 N   0  0  0  0  0  0  0  0  0  0  0  0
   58.6060   28.1270   46.7310 C   0  0  0  0  0  0  0  0  0  0  0  0
   58.8730   27.0120   47.5240 C   0  0  0  0  0  0  0  0  0  0  0  0
   58.0820   25.8890   47.4270 C   0  0  0  0  0  0  0  0  0  0  0  0
   57.0390   25.9160   46.5320 C   0  0  0  0  0  0  0  0  0  0  0  0
   56.7730   27.0190   45.7460 C   0  0  0  0  0  0  0  0  0  0  0  0
   57.5540   28.1380   45.8380 C   0  0  0  0  0  0  0  0  0  0  0  0
   57.2910   29.2960   45.0260 C   0  0  0  0  0  0  0  0  0  0  0  0
   58.3650   29.9670   44.3650 N   0  0  0  0  0  0  0  0  0  0  0  0
   56.1470   29.7550   44.8640 O   0  0  0  0  0  0  0  0  0  0  0  0
   58.8730   31.5230   47.1330 N   0  0  0  0  0  0  0  0  0  0  0  0
   58.5450   32.5350   47.9510 C   0  0  0  0  0  0  0  0  0  0  0  0
   58.3030   33.7360   47.5620 N   0  0  0  0  0  0  0  0  0  0  0  0
   59.3710   34.5780   47.0880 C   0  0  0  0  0  0  0  0  0  0  0  0
   59.1110   34.8670   45.6080 C   0  0  0  0  0  0  0  0  0  0  0  0
   58.7650   33.6380   44.8860 C   0  0  0  0  0  0  0  0  0  0  0  0
   58.4730   32.6650   44.3260 N   0  0  0  0  0  0  0  0  0  0  0  0
   58.4580   32.2930   49.2730 N   0  0  0  0  0  0  0  0  0  0  0  0
   56.2520   31.1990   51.4570 C   0  0  0  0  0  0  0  0  0  0  0  0
   51.9939   30.4248   53.5516 H   0  0  0  0  0  0  0  0  0  0  0  0
   50.6190   29.9272   52.5082 H   0  0  0  0  0  0  0  0  0  0  0  0
   52.1389   28.9698   52.5082 H   0  0  0  0  0  0  0  0  0  0  0  0
   54.0660   32.6400   51.6670 H   0  0  0  0  0  0  0  0  0  0  0  0
   54.0479   29.3540   53.2081 H   0  0  0  0  0  0  0  0  0  0  0  0
   56.0879   28.0522   53.7102 H   0  0  0  0  0  0  0  0  0  0  0  0
   58.2745   28.7800   52.7515 H   0  0  0  0  0  0  0  0  0  0  0  0
   59.2208   29.0422   49.3408 H   0  0  0  0  0  0  0  0  0  0  0  0
   59.7174   27.0293   48.2288 H   0  0  0  0  0  0  0  0  0  0  0  0
   58.2781   25.0003   48.0449 H   0  0  0  0  0  0  0  0  0  0  0  0
   56.3950   25.0291   46.4391 H   0  0  0  0  0  0  0  0  0  0  0  0
   55.9283   26.9979   45.0418 H   0  0  0  0  0  0  0  0  0  0  0  0
   58.5460   29.8240   43.3320 H   0  0  0  0  0  0  0  0  0  0  0  0
   59.0010   30.6170   44.8810 H   0  0  0  0  0  0  0  0  0  0  0  0
   58.9370   31.7090   46.1300 H   0  0  0  0  0  0  0  0  0  0  0  0
   59.3869   35.5194   47.6567 H   0  0  0  0  0  0  0  0  0  0  0  0
   60.3428   34.0796   47.2191 H   0  0  0  0  0  0  0  0  0  0  0  0
   58.2791   35.5814   45.5216 H   0  0  0  0  0  0  0  0  0  0  0  0
   60.0267   35.2871   45.1665 H   0  0  0  0  0  0  0  0  0  0  0  0
   58.2000   33.0780   49.9410 H   0  0  0  0  0  0  0  0  0  0  0  0
   56.3201   32.0896   50.8150 H   0  0  0  0  0  0  0  0  0  0  0  0
  1  2  1  0
  2  3  2  0
  2  4  2  0
  2  5  1  0
  5  6  1  0
  6  7  2  0
  7  8  1  0
  8  9  2  0
  9 10  1  0
 10 11  1  0
 11 12  1  0
 12 13  2  0
 13 14  1  0
 14 15  2  0
 15 16  1  0
 16 17  2  0
 17 18  1  0
 18 19  2  0
 19 20  1  0
 20 21  2  0
 21 22  1  0
 22 23  1  0
 22 24  2  0
 14 25  1  0
 25 26  1  0
 26 27  2  0
 27 28  1  0
 28 29  1  0
 29 30  1  0
 30 31  3  0
 26 32  1  0
 10 33  2  0
 33  6  1  0
 32 12  1  0
 21 16  1  0
  1 34  1  0
  1 35  1  0
  1 36  1  0
  5 37  1  0
  7 38  1  0
  8 39  1  0
  9 40  1  0
 13 41  1  0
 17 42  1  0
 18 43  1  0
 19 44  1  0
 20 45  1  0
 23 46  1  0
 23 47  1  0
 25 48  1  0
 28 49  1  0
 28 50  1  0
 29 51  1  0
 29 52  1  0
 32 53  1  0
 33 54  1  0
M  END
>  <smiles>  (62) 
CS(=O)(=O)Nc1cccc(Oc2cc(=Nc3ccccc3C(N)=O)[nH]c(=NCCC#N)[nH]2)c1

>  <score_type>  (62) 
oracle

>  <origin>  (62) 
adg

>  <m_score__min__energy>  (62) 
-9.7300000000000004

>  <m_primary>  (62) 
energy

$$$$
62:0
     RDKit          3D

 58 61  0  0  0  0  0  0  0  0999 V2000
   57.9150   34.3170   45.2320 C   0  0  0  0  0  0  0  0  0  0  0  0
   57.7230   32.6760   45.8950 S   0  0  0  0  0  0  0  0  0  0  0  0
   56.6040   31.9550   45.2000 O   0  0  0  0  0  0  0  0  0  0  0  0
   57.3920   32.7830   47.3580 O   0  0  0  0  0  0  0  0  0  0  0  0
   59.2030   31.7890   45.7230 N   0  0  0  0  0  0  0  0  0  0  0  0
   59.3680   30.3710   45.8920 C   0  0  0  0  0  0  0  0  0  0  0  0
   60.1680   29.8440   46.9200 C   0  0  0  0  0  0  0  0  0  0  0  0
   60.3540   28.4690   47.0390 C   0  0  0  0  0  0  0  0  0  0  0  0
   59.7410   27.5970   46.1420 C   0  0  0  0  0  0  0  0  0  0  0  0
   58.9100   28.0890   45.1190 C   0  0  0  0  0  0  0  0  0  0  0  0
   58.7290   29.4900   44.9900 C   0  0  0  0  0  0  0  0  0  0  0  0
   57.9420   30.0570   43.8230 C   0  0  0  0  0  0  0  0  0  0  0  0
   57.0210   29.0230   43.1640 C   0  0  0  0  0  0  0  0  0  0  0  0
   57.7760   27.7230   42.9090 C   0  0  0  0  0  0  0  0  0  0  0  0
   58.2740   27.1910   44.1800 N   0  0  0  0  0  0  0  0  0  0  0  0
   58.1180   25.7860   44.4440 C   0  0  0  0  0  0  0  0  0  0  0  0
   58.7910   25.2530   45.3670 O   0  0  0  0  0  0  0  0  0  0  0  0
   57.2100   24.9980   43.6540 N   0  0  0  0  0  0  0  0  0  0  0  0
   57.0890   23.5690   43.7520 C   0  0  0  0  0  0  0  0  0  0  0  0
   56.7060   22.7880   42.6480 C   0  0  0  0  0  0  0  0  0  0  0  0
   56.5640   21.4050   42.7780 C   0  0  0  0  0  0  0  0  0  0  0  0
   56.7940   20.7880   44.0080 C   0  0  0  0  0  0  0  0  0  0  0  0
   57.1730   21.5520   45.1250 C   0  0  0  0  0  0  0  0  0  0  0  0
   57.3780   20.9060   46.4390 C   0  0  0  0  0  0  0  0  0  0  0  0
   57.6710   19.6820   46.4870 O   0  0  0  0  0  0  0  0  0  0  0  0
   57.2930   21.6440   47.6630 N   0  0  0  0  0  0  0  0  0  0  0  0
   56.0740   22.2790   48.1480 C   0  0  0  0  0  0  0  0  0  0  0  0
   55.9170   23.6220   47.4970 C   0  0  0  0  0  0  0  0  0  0  0  0
   56.8110   24.6630   47.7940 C   0  0  0  0  0  0  0  0  0  0  0  0
   56.6800   25.9060   47.1650 C   0  0  0  0  0  0  0  0  0  0  0  0
   55.6620   26.1140   46.2310 C   0  0  0  0  0  0  0  0  0  0  0  0
   55.5290   27.3520   45.6110 O   0  0  0  0  0  0  0  0  0  0  0  0
   54.7790   25.0770   45.9180 C   0  0  0  0  0  0  0  0  0  0  0  0
   54.9080   23.8320   46.5430 C   0  0  0  0  0  0  0  0  0  0  0  0
   57.2940   22.9450   44.9930 C   0  0  0  0  0  0  0  0  0  0  0  0
   57.9994   35.0386   46.0579 H   0  0  0  0  0  0  0  0  0  0  0  0
   58.8242   34.3588   44.6142 H   0  0  0  0  0  0  0  0  0  0  0  0
   57.0400   34.5676   44.6142 H   0  0  0  0  0  0  0  0  0  0  0  0
   60.6516   30.5236   47.6371 H   0  0  0  0  0  0  0  0  0  0  0  0
   60.9876   28.0698   47.8447 H   0  0  0  0  0  0  0  0  0  0  0  0
   59.9083   26.5137   46.2345 H   0  0  0  0  0  0  0  0  0  0  0  0
   57.3267   30.8927   44.1879 H   0  0  0  0  0  0  0  0  0  0  0  0
   58.6678   30.3832   43.0635 H   0  0  0  0  0  0  0  0  0  0  0  0
   56.1679   28.8220   43.8287 H   0  0  0  0  0  0  0  0  0  0  0  0
   56.6660   29.4233   42.2029 H   0  0  0  0  0  0  0  0  0  0  0  0
   57.0991   26.9906   42.4449 H   0  0  0  0  0  0  0  0  0  0  0  0
   58.6235   27.9169   42.2351 H   0  0  0  0  0  0  0  0  0  0  0  0
   56.5620   25.4960   43.0030 H   0  0  0  0  0  0  0  0  0  0  0  0
   56.5172   23.2686   41.6767 H   0  0  0  0  0  0  0  0  0  0  0  0
   56.2698   20.8000   41.9077 H   0  0  0  0  0  0  0  0  0  0  0  0
   56.6781   19.6983   44.1039 H   0  0  0  0  0  0  0  0  0  0  0  0
   55.2080   21.6477   47.9000 H   0  0  0  0  0  0  0  0  0  0  0  0
   56.1351   22.4051   49.2390 H   0  0  0  0  0  0  0  0  0  0  0  0
   57.6176   24.5008   48.5241 H   0  0  0  0  0  0  0  0  0  0  0  0
   57.3792   26.7202   47.4061 H   0  0  0  0  0  0  0  0  0  0  0  0
   53.9809   25.2400   45.1787 H   0  0  0  0  0  0  0  0  0  0  0  0
   54.2172   23.0153   46.2865 H   0  0  0  0  0  0  0  0  0  0  0  0
   57.5523   23.5541   45.8718 H   0  0  0  0  0  0  0  0  0  0  0  0
  1  2  1  0
  2  3  2  0
  2  4  2  0
  2  5  1  0
  5  6  1  0
  6  7  2  0
  7  8  1  0
  8  9  2  0
  9 10  1  0
 10 11  2  0
 11 12  1  0
 12 13  1  0
 13 14  1  0
 14 15  1  0
 15 16  1  0
 16 17  2  0
 16 18  1  0
 18 19  1  0
 19 20  2  0
 20 21  1  0
 21 22  2  0
 22 23  1  0
 23 24  1  0
 24 25  2  0
 24 26  1  0
 26 27  1  0
 27 28  1  0
 28 29  2  0
 29 30  1  0
 30 31  2  0
 31 32  1  0
 31 33  1  0
 33 34  2  0
 23 35  2  0
 11  6  1  0
 35 19  1  0
 15 10  1  0
 34 28  1  0
  1 36  1  0
  1 37  1  0
  1 38  1  0
  7 39  1  0
  8 40  1  0
  9 41  1  0
 12 42  1  0
 12 43  1  0
 13 44  1  0
 13 45  1  0
 14 46  1  0
 14 47  1  0
 18 48  1  0
 20 49  1  0
 21 50  1  0
 22 51  1  0
 27 52  1  0
 27 53  1  0
 29 54  1  0
 30 55  1  0
 33 56  1  0
 34 57  1  0
 35 58  1  0
M  CHG  3   5  -1  26  -1  32  -1
M  END
>  <UniqueID>  (63) 
60

>  <SMILES>  (63) 
CS(=O)(=O)[N-]c1cccc2c1CCCN2C(=O)Nc1cccc(C(=O)[N-]Cc2ccc([O-])cc2)c1

>  <Energy>  (63) 
75.97212364566496

>  <Genealogy>  (63) 
CS(=O)(=O)[N-]c1cccc2c1CCCN2C(=O)Nc1cccc(C(=O)[N-]Cc2ccc([O-])cc2)c1 (protonated)
CS(=O)(=O)[N-]c1cccc2c1CCCN2C(=O)Nc1cccc(C(=O)[N-]Cc2ccc([O-])cc2)c1 (3D coordinates assigned)
CS(=O)(=O)[N-]c1cccc2c1CCCN2C(=O)Nc1cccc(C(=O)[N-]Cc2ccc([O-])cc2)c1 (nonaromatic ring conformer: 75.97212364566496 kcal/mol)

>  <smiles>  (63) 
CS(=O)(=O)Nc1cccc2c1CCCN2C(=O)Nc1cccc(C(=O)NCc2ccc(O)cc2)c1

>  <score_type>  (63) 
oracle

>  <origin>  (63) 
adg

>  <m_score__min__energy>  (63) 
-15.130000000000001

>  <m_primary>  (63) 
energy

$$$$
63:0
     RDKit          3D

 47 49  0  0  0  0  0  0  0  0999 V2000
   55.1280   23.7320   44.1310 C   0  0  0  0  0  0  0  0  0  0  0  0
   56.4210   23.2920   44.6400 N   0  0  0  0  0  0  0  0  0  0  0  0
   57.3830   22.6770   43.9310 C   0  0  0  0  0  0  0  0  0  0  0  0
   58.4750   22.5080   44.7520 C   0  0  0  0  0  0  0  0  0  0  0  0
   58.2130   23.0290   45.9690 N   0  0  0  0  0  0  0  0  0  0  0  0
   56.9550   23.5040   45.8600 C   0  0  0  0  0  0  0  0  0  0  0  0
   56.1240   24.3460   47.2110 S   0  0  0  0  0  0  0  0  0  0  0  0
   57.0010   25.8880   46.9210 C   0  0  0  0  0  0  0  0  0  0  0  0
   58.2640   26.0700   47.4890 C   0  0  0  0  0  0  0  0  0  0  0  0
   58.9740   27.2600   47.2710 C   0  0  0  0  0  0  0  0  0  0  0  0
   60.2810   27.4790   47.8180 N   0  0  0  0  0  0  0  0  0  0  0  0
   60.7080   28.7490   48.9180 S   0  0  0  0  0  0  0  0  0  0  0  0
   59.2190   29.4760   49.5610 C   0  0  0  0  0  0  0  0  0  0  0  0
   61.4970   29.8040   48.1960 O   0  0  0  0  0  0  0  0  0  0  0  0
   61.5160   28.1930   50.0570 O   0  0  0  0  0  0  0  0  0  0  0  0
   58.3990   28.2680   46.4910 C   0  0  0  0  0  0  0  0  0  0  0  0
   57.1230   28.1080   45.9150 C   0  0  0  0  0  0  0  0  0  0  0  0
   56.5570   29.2090   45.0860 C   0  0  0  0  0  0  0  0  0  0  0  0
   55.3140   29.2610   44.8810 O   0  0  0  0  0  0  0  0  0  0  0  0
   57.4040   30.2220   44.5320 N   0  0  0  0  0  0  0  0  0  0  0  0
   56.9630   31.5800   44.2410 C   0  0  0  0  0  0  0  0  0  0  0  0
   57.7100   32.5640   45.0980 C   0  0  0  0  0  0  0  0  0  0  0  0
   58.2710   33.7150   44.5200 C   0  0  0  0  0  0  0  0  0  0  0  0
   58.9530   34.6410   45.3130 C   0  0  0  0  0  0  0  0  0  0  0  0
   59.0740   34.4350   46.6940 C   0  0  0  0  0  0  0  0  0  0  0  0
   59.7530   35.3550   47.4900 O   0  0  0  0  0  0  0  0  0  0  0  0
   58.5070   33.2940   47.2780 C   0  0  0  0  0  0  0  0  0  0  0  0
   58.6190   33.0830   48.6470 O   0  0  0  0  0  0  0  0  0  0  0  0
   57.8260   32.3630   46.4840 C   0  0  0  0  0  0  0  0  0  0  0  0
   56.4190   26.9040   46.1470 C   0  0  0  0  0  0  0  0  0  0  0  0
   55.1400   26.7140   45.6340 O   0  0  0  0  0  0  0  0  0  0  0  0
   54.4599   23.9594   44.9748 H   0  0  0  0  0  0  0  0  0  0  0  0
   55.2635   24.6346   43.5171 H   0  0  0  0  0  0  0  0  0  0  0  0
   54.6848   22.9341   43.5171 H   0  0  0  0  0  0  0  0  0  0  0  0
   57.3105   22.3636   42.8791 H   0  0  0  0  0  0  0  0  0  0  0  0
   59.4178   22.0221   44.4604 H   0  0  0  0  0  0  0  0  0  0  0  0
   58.7041   25.2762   48.1104 H   0  0  0  0  0  0  0  0  0  0  0  0
   59.2490   29.4614   50.6605 H   0  0  0  0  0  0  0  0  0  0  0  0
   59.1373   30.5154   49.2102 H   0  0  0  0  0  0  0  0  0  0  0  0
   58.3492   28.9012   49.2102 H   0  0  0  0  0  0  0  0  0  0  0  0
   58.9531   29.2034   46.3239 H   0  0  0  0  0  0  0  0  0  0  0  0
   57.1527   31.8042   43.1809 H   0  0  0  0  0  0  0  0  0  0  0  0
   55.8873   31.6615   44.4558 H   0  0  0  0  0  0  0  0  0  0  0  0
   58.1728   33.8879   43.4381 H   0  0  0  0  0  0  0  0  0  0  0  0
   59.3969   35.5355   44.8516 H   0  0  0  0  0  0  0  0  0  0  0  0
   59.7340   35.2980   48.5020 H   0  0  0  0  0  0  0  0  0  0  0  0
   57.3800   31.4705   46.9472 H   0  0  0  0  0  0  0  0  0  0  0  0
  1  2  1  0
  2  3  1  0
  3  4  2  0
  4  5  1  0
  5  6  2  0
  6  7  1  0
  7  8  1  0
  8  9  2  0
  9 10  1  0
 10 11  1  0
 11 12  1  0
 12 13  1  0
 12 14  2  0
 12 15  2  0
 10 16  2  0
 16 17  1  0
 17 18  1  0
 18 19  2  0
 18 20  1  0
 20 21  1  0
 21 22  1  0
 22 23  2  0
 23 24  1  0
 24 25  2  0
 25 26  1  0
 25 27  1  0
 27 28  1  0
 27 29  2  0
 17 30  2  0
 30 31  1  0
  6  2  1  0
 30  8  1  0
 29 22  1  0
  1 32  1  0
  1 33  1  0
  1 34  1  0
  3 35  1  0
  4 36  1  0
  9 37  1  0
 13 38  1  0
 13 39  1  0
 13 40  1  0
 16 41  1  0
 21 42  1  0
 21 43  1  0
 23 44  1  0
 24 45  1  0
 26 46  1  0
 29 47  1  0
M  CHG  4  11  -1  20  -1  28  -1  31  -1
M  END
>  <UniqueID>  (64) 
61

>  <SMILES>  (64) 
Cn1ccnc1Sc1cc([N-]S(C)(=O)=O)cc(C(=O)[N-]Cc2ccc(O)c([O-])c2)c1[O-]

>  <Energy>  (64) 
73.28560056014223

>  <Genealogy>  (64) 
Cn1ccnc1Sc1cc([N-]S(C)(=O)=O)cc(C(=O)[N-]Cc2ccc(O)c([O-])c2)c1[O-] (protonated)
Cn1ccnc1Sc1cc([N-]S(C)(=O)=O)cc(C(=O)[N-]Cc2ccc(O)c([O-])c2)c1[O-] (3D coordinates assigned)
Cn1ccnc1Sc1cc([N-]S(C)(=O)=O)cc(C(=O)[N-]Cc2ccc(O)c([O-])c2)c1[O-] (optimized conformer: 73.28560056014223 kcal/mol)

>  <smiles>  (64) 
Cn1ccnc1Sc1cc(NS(C)(=O)=O)cc(C(=O)NCc2ccc(O)c(O)c2)c1O

>  <score_type>  (64) 
oracle

>  <origin>  (64) 
adg

>  <m_score__min__energy>  (64) 
-15.68

>  <m_primary>  (64) 
energy

$$$$
64:0
     RDKit          3D

 51 53  0  0  0  0  0  0  0  0999 V2000
   60.2860   28.4260   47.1520 C   0  0  0  0  0  0  0  0  0  0  0  0
   59.0430   29.5710   47.7150 S   0  0  0  0  0  0  0  0  0  0  0  0
   59.5240   30.9870   47.5620 O   0  0  0  0  0  0  0  0  0  0  0  0
   57.8110   29.3900   46.8740 O   0  0  0  0  0  0  0  0  0  0  0  0
   58.6350   29.2510   49.3730 N   0  0  0  0  0  0  0  0  0  0  0  0
   58.3810   30.1250   50.3050 C   0  0  0  0  0  0  0  0  0  0  0  0
   59.0220   31.3780   50.3710 C   0  0  0  0  0  0  0  0  0  0  0  0
   58.7190   32.2640   51.4170 C   0  0  0  0  0  0  0  0  0  0  0  0
   59.4010   33.5750   51.5070 C   0  0  0  0  0  0  0  0  0  0  0  0
   58.8840   34.4950   52.1970 O   0  0  0  0  0  0  0  0  0  0  0  0
   60.6630   33.8230   50.8690 N   0  0  0  0  0  0  0  0  0  0  0  0
   60.9350   33.7340   49.4620 C   0  0  0  0  0  0  0  0  0  0  0  0
   62.0500   33.0070   49.0320 C   0  0  0  0  0  0  0  0  0  0  0  0
   62.3440   32.9040   47.6700 C   0  0  0  0  0  0  0  0  0  0  0  0
   61.5310   33.5380   46.7270 C   0  0  0  0  0  0  0  0  0  0  0  0
   60.4190   34.2860   47.1430 C   0  0  0  0  0  0  0  0  0  0  0  0
   59.5320   34.9610   46.1270 C   0  0  0  0  0  0  0  0  0  0  0  0
   58.1730   34.6090   46.3070 O   0  0  0  0  0  0  0  0  0  0  0  0
   58.0160   33.2180   46.5380 C   0  0  0  0  0  0  0  0  0  0  0  0
   57.7720   32.5210   45.2330 C   0  0  0  0  0  0  0  0  0  0  0  0
   58.3060   33.0380   44.0430 C   0  0  0  0  0  0  0  0  0  0  0  0
   58.0910   32.3570   42.8440 C   0  0  0  0  0  0  0  0  0  0  0  0
   57.3440   31.1790   42.8380 C   0  0  0  0  0  0  0  0  0  0  0  0
   56.8080   30.6970   44.0400 C   0  0  0  0  0  0  0  0  0  0  0  0
   56.0190   29.4230   44.0640 C   0  0  0  0  0  0  0  0  0  0  0  0
   55.2790   29.3400   45.2510 O   0  0  0  0  0  0  0  0  0  0  0  0
   57.0480   31.3680   45.2010 N   0  0  0  0  0  0  0  0  0  0  0  0
   60.1360   34.3970   48.5140 C   0  0  0  0  0  0  0  0  0  0  0  0
   57.7540   31.8920   52.3650 C   0  0  0  0  0  0  0  0  0  0  0  0
   57.1340   30.6480   52.2650 C   0  0  0  0  0  0  0  0  0  0  0  0
   57.4590   29.8040   51.2530 N   0  0  0  0  0  0  0  0  0  0  0  0
   60.7829   27.9682   48.0200 H   0  0  0  0  0  0  0  0  0  0  0  0
   59.8128   27.6408   46.5441 H   0  0  0  0  0  0  0  0  0  0  0  0
   61.0298   28.9619   46.5441 H   0  0  0  0  0  0  0  0  0  0  0  0
   59.7583   31.6614   49.6045 H   0  0  0  0  0  0  0  0  0  0  0  0
   62.6991   32.5136   49.7704 H   0  0  0  0  0  0  0  0  0  0  0  0
   63.2173   32.3226   47.3394 H   0  0  0  0  0  0  0  0  0  0  0  0
   61.7633   33.4505   45.6554 H   0  0  0  0  0  0  0  0  0  0  0  0
   59.6353   36.0512   46.2310 H   0  0  0  0  0  0  0  0  0  0  0  0
   59.8433   34.6310   45.1249 H   0  0  0  0  0  0  0  0  0  0  0  0
   58.9291   32.8178   47.0027 H   0  0  0  0  0  0  0  0  0  0  0  0
   57.1607   33.0512   47.2093 H   0  0  0  0  0  0  0  0  0  0  0  0
   58.8885   33.9710   44.0550 H   0  0  0  0  0  0  0  0  0  0  0  0
   58.5099   32.7485   41.9053 H   0  0  0  0  0  0  0  0  0  0  0  0
   57.1770   30.6329   41.8978 H   0  0  0  0  0  0  0  0  0  0  0  0
   55.3326   29.4034   43.2047 H   0  0  0  0  0  0  0  0  0  0  0  0
   56.7102   28.5691   44.0089 H   0  0  0  0  0  0  0  0  0  0  0  0
   55.8520   29.7140   45.9690 H   0  0  0  0  0  0  0  0  0  0  0  0
   59.2836   35.0066   48.8484 H   0  0  0  0  0  0  0  0  0  0  0  0
   57.4883   32.5783   53.1825 H   0  0  0  0  0  0  0  0  0  0  0  0
   56.3796   30.3494   53.0078 H   0  0  0  0  0  0  0  0  0  0  0  0
  1  2  1  0
  2  3  2  0
  2  4  2  0
  2  5  1  0
  5  6  2  3
  6  7  1  0
  7  8  2  0
  8  9  1  0
  9 10  2  0
  9 11  1  0
 11 12  1  0
 12 13  2  0
 13 14  1  0
 14 15  2  0
 15 16  1  0
 16 17  1  0
 17 18  1  0
 18 19  1  0
 19 20  1  0
 20 21  2  0
 21 22  1  0
 22 23  2  0
 23 24  1  0
 24 25  1  0
 25 26  1  0
 24 27  2  0
 16 28  2  0
  8 29  1  0
 29 30  2  0
 30 31  1  0
 31  6  1  0
 28 12  1  0
 27 20  1  0
  1 32  1  0
  1 33  1  0
  1 34  1  0
  7 35  1  0
 13 36  1  0
 14 37  1  0
 15 38  1  0
 17 39  1  0
 17 40  1  0
 19 41  1  0
 19 42  1  0
 21 43  1  0
 22 44  1  0
 23 45  1  0
 25 46  1  0
 25 47  1  0
 26 48  1  0
 28 49  1  0
 29 50  1  0
 30 51  1  0
M  CHG  2  11  -1  31  -1
M  END
>  <UniqueID>  (65) 
62

>  <SMILES>  (65) 
CS(=O)(=O)N=c1cc(C(=O)[N-]c2cccc(COCc3cccc(CO)n3)c2)cc[n-]1

>  <Energy>  (65) 
59.11118368216602

>  <Genealogy>  (65) 
CS(=O)(=O)N=c1cc(C(=O)[N-]c2cccc(COCc3cccc(CO)n3)c2)cc[n-]1 (protonated)
CS(=O)(=O)N=c1cc(C(=O)[N-]c2cccc(COCc3cccc(CO)n3)c2)cc[n-]1 (3D coordinates assigned)
CS(=O)(=O)N=c1cc(C(=O)[N-]c2cccc(COCc3cccc(CO)n3)c2)cc[n-]1 (optimized conformer: 59.11118368216602 kcal/mol)

>  <smiles>  (65) 
CS(=O)(=O)N=c1cc(C(=O)Nc2cccc(COCc3cccc(CO)n3)c2)cc[nH]1

>  <score_type>  (65) 
oracle

>  <origin>  (65) 
adg

>  <m_score__min__energy>  (65) 
-12.81

>  <m_primary>  (65) 
energy

$$$$
65:0
     RDKit          3D

 41 43  0  0  0  0  0  0  0  0999 V2000
   54.7570   27.0890   45.0190 H   0  0  0  0  0  0  0  0  0  0  0  0
   54.8160   26.3030   45.7040 N   0  0  0  0  0  0  0  0  0  0  0  0
   55.9200   26.0430   46.3270 C   0  0  0  0  0  0  0  0  0  0  0  0
   56.1840   24.8860   46.9550 N   0  0  0  0  0  0  0  0  0  0  0  0
   57.3860   25.0400   47.4410 O   0  0  0  0  0  0  0  0  0  0  0  0
   57.9220   26.2020   47.1790 N   0  0  0  0  0  0  0  0  0  0  0  0
   57.0050   26.8710   46.4600 C   0  0  0  0  0  0  0  0  0  0  0  0
   57.1450   28.2120   45.9540 N   0  0  0  0  0  0  0  0  0  0  0  0
   56.2010   28.8090   45.2430 N   0  0  0  0  0  0  0  0  0  0  0  0
   56.5510   30.0470   44.9310 N   0  0  0  0  0  0  0  0  0  0  0  0
   57.7760   30.2520   45.4500 C   0  0  0  0  0  0  0  0  0  0  0  0
   58.4760   31.5450   45.3680 C   0  0  0  0  0  0  0  0  0  0  0  0
   58.6620   32.0680   44.2360 O   0  0  0  0  0  0  0  0  0  0  0  0
   58.9800   32.1940   46.5430 N   0  0  0  0  0  0  0  0  0  0  0  0
   59.1680   31.6270   47.3980 H   0  0  0  0  0  0  0  0  0  0  0  0
   59.2910   33.6200   46.5750 C   0  0  0  0  0  0  0  0  0  0  0  0
   59.2717   34.0209   45.5508 H   0  0  0  0  0  0  0  0  0  0  0  0
   58.5434   34.1408   47.1914 H   0  0  0  0  0  0  0  0  0  0  0  0
   60.6570   33.8310   47.1680 C   0  0  0  0  0  0  0  0  0  0  0  0
   61.7980   33.6980   46.3650 C   0  0  0  0  0  0  0  0  0  0  0  0
   61.6982   33.4717   45.2932 H   0  0  0  0  0  0  0  0  0  0  0  0
   63.0620   33.8550   46.9360 C   0  0  0  0  0  0  0  0  0  0  0  0
   63.9627   33.7561   46.3124 H   0  0  0  0  0  0  0  0  0  0  0  0
   63.1810   34.1300   48.2620 N   0  0  0  0  0  0  0  0  0  0  0  0
   62.0920   34.2570   49.0700 C   0  0  0  0  0  0  0  0  0  0  0  0
   62.2380   34.5350   50.4310 O   0  0  0  0  0  0  0  0  0  0  0  0
   63.4190   34.2220   51.1600 C   0  0  0  0  0  0  0  0  0  0  0  0
   63.2097   34.2775   52.2385 H   0  0  0  0  0  0  0  0  0  0  0  0
   63.7501   33.2051   50.9026 H   0  0  0  0  0  0  0  0  0  0  0  0
   64.2103   34.9414   50.9026 H   0  0  0  0  0  0  0  0  0  0  0  0
   60.8090   34.1060   48.5330 C   0  0  0  0  0  0  0  0  0  0  0  0
   59.9242   34.2027   49.1794 H   0  0  0  0  0  0  0  0  0  0  0  0
   58.1610   29.0950   46.1150 C   0  0  0  0  0  0  0  0  0  0  0  0
   59.4280   28.8880   46.9120 C   0  0  0  0  0  0  0  0  0  0  0  0
   59.4203   27.8750   47.3407 H   0  0  0  0  0  0  0  0  0  0  0  0
   60.2875   29.0186   46.2381 H   0  0  0  0  0  0  0  0  0  0  0  0
   59.5350   29.8310   47.9600 O   0  0  0  0  0  0  0  0  0  0  0  0
   59.5930   29.1840   49.2100 C   0  0  0  0  0  0  0  0  0  0  0  0
   59.5259   29.9322   50.0136 H   0  0  0  0  0  0  0  0  0  0  0  0
   58.7546   28.4771   49.2962 H   0  0  0  0  0  0  0  0  0  0  0  0
   60.5437   28.6375   49.2962 H   0  0  0  0  0  0  0  0  0  0  0  0
  1  2  1  0
  2  3  2  0
  3  4  1  0
  4  5  1  0
  5  6  1  0
  6  7  2  0
  7  8  1  0
  8  9  1  0
  9 10  2  0
 10 11  1  0
 11 12  1  0
 12 13  2  0
 12 14  1  0
 14 15  1  0
 14 16  1  0
 16 17  1  0
 16 18  1  0
 16 19  1  0
 19 20  2  0
 20 21  1  0
 20 22  1  0
 22 23  1  0
 22 24  2  0
 24 25  1  0
 25 26  1  0
 26 27  1  0
 27 28  1  0
 27 29  1  0
 27 30  1  0
 25 31  2  0
 31 32  1  0
 11 33  2  0
 33 34  1  0
 34 35  1  0
 34 36  1  0
 34 37  1  0
 37 38  1  0
 38 39  1  0
 38 40  1  0
 38 41  1  0
  7  3  1  0
 33  8  1  0
 31 19  1  0
M  CHG  1   4  -1
M  END
>  <UniqueID>  (66) 
63

>  <SMILES>  (66) 
[H]/N=c1\[n-]onc1-n1nnc(C(=O)NCc2ccnc(OC)c2)c1COC

>  <Energy>  (66) 
118.41472475511762

>  <Genealogy>  (66) 
COCc1c(C(=O)NCc2ccnc(OC)c2)nnn1-c1no[n-]c1=N (protonated)
[H]/N=c1\[n-]onc1-n1nnc(C(=O)NCc2ccnc(OC)c2)c1COC (cis-trans isomerization)
[H]/N=c1\[n-]onc1-n1nnc(C(=O)NCc2ccnc(OC)c2)c1COC (3D coordinates assigned)
[H]/N=c1\[n-]onc1-n1nnc(C(=O)NCc2ccnc(OC)c2)c1COC (optimized conformer: 118.41472475511762 kcal/mol)

>  <smiles>  (66) 
COCc1c(C(=O)NCc2ccnc(OC)c2)nnn1-c1no[nH]c1=N

>  <score_type>  (66) 
oracle

>  <origin>  (66) 
adg

>  <m_score__min__energy>  (66) 
-9.3000000000000007

>  <m_primary>  (66) 
energy

$$$$
66:0
     RDKit          3D

 69 73  0  0  0  0  0  0  0  0999 V2000
   59.0937   27.6651   48.1700 H   0  0  0  0  0  0  0  0  0  0  0  0
   58.6240   27.2250   47.2780 C   0  0  0  0  0  0  0  0  0  0  0  0
   58.3247   26.1665   47.2796 H   0  0  0  0  0  0  0  0  0  0  0  0
   58.4160   27.9800   46.1870 C   0  0  0  0  0  0  0  0  0  0  0  0
   57.8330   27.5590   44.9880 C   0  0  0  0  0  0  0  0  0  0  0  0
   57.4570   26.3060   44.6610 C   0  0  0  0  0  0  0  0  0  0  0  0
   57.5888   25.9832   43.6177 H   0  0  0  0  0  0  0  0  0  0  0  0
   56.8800   25.3420   45.6160 C   0  0  0  0  0  0  0  0  0  0  0  0
   57.5790   24.3180   46.1400 N   0  0  0  0  0  0  0  0  0  0  0  0
   56.7060   23.7490   46.9970 C   0  0  0  0  0  0  0  0  0  0  0  0
   56.9960   22.7400   47.6890 O   0  0  0  0  0  0  0  0  0  0  0  0
   55.5030   24.3570   47.0660 N   0  0  0  0  0  0  0  0  0  0  0  0
   55.6310   25.3700   46.1940 C   0  0  0  0  0  0  0  0  0  0  0  0
   54.6440   26.3230   45.9740 O   0  0  0  0  0  0  0  0  0  0  0  0
   57.7790   28.6800   44.1660 C   0  0  0  0  0  0  0  0  0  0  0  0
   57.3760   28.7256   43.1435 H   0  0  0  0  0  0  0  0  0  0  0  0
   58.3290   29.7240   44.8820 C   0  0  0  0  0  0  0  0  0  0  0  0
   58.4720   31.1250   44.3680 C   0  0  0  0  0  0  0  0  0  0  0  0
   58.5431   31.8214   45.2165 H   0  0  0  0  0  0  0  0  0  0  0  0
   59.3824   31.1996   43.7552 H   0  0  0  0  0  0  0  0  0  0  0  0
   57.5954   31.3820   43.7552 H   0  0  0  0  0  0  0  0  0  0  0  0
   58.7110   29.3050   46.1110 N   0  0  0  0  0  0  0  0  0  0  0  0
   59.3730   30.1050   47.1050 C   0  0  0  0  0  0  0  0  0  0  0  0
   60.5080   30.8560   46.7640 C   0  0  0  0  0  0  0  0  0  0  0  0
   60.8691   30.8618   45.7250 H   0  0  0  0  0  0  0  0  0  0  0  0
   61.1810   31.5960   47.7380 C   0  0  0  0  0  0  0  0  0  0  0  0
   62.0760   32.1742   47.4646 H   0  0  0  0  0  0  0  0  0  0  0  0
   60.7220   31.6060   49.0630 C   0  0  0  0  0  0  0  0  0  0  0  0
   61.4940   32.3560   50.1150 C   0  0  0  0  0  0  0  0  0  0  0  0
   61.6832   31.6904   50.9701 H   0  0  0  0  0  0  0  0  0  0  0  0
   62.4475   32.6966   49.6851 H   0  0  0  0  0  0  0  0  0  0  0  0
   60.7250   33.5320   50.5730 N   0  0  0  0  0  0  0  0  0  0  0  0
   59.6170   33.8430   49.6450 C   0  0  0  0  0  0  0  0  0  0  0  0
   59.1351   32.9053   49.3311 H   0  0  0  0  0  0  0  0  0  0  0  0
   58.8934   34.4897   50.1629 H   0  0  0  0  0  0  0  0  0  0  0  0
   60.1430   34.5880   48.3930 C   0  0  0  0  0  0  0  0  0  0  0  0
   60.5887   35.5382   48.7225 H   0  0  0  0  0  0  0  0  0  0  0  0
   60.8660   33.9126   47.9122 H   0  0  0  0  0  0  0  0  0  0  0  0
   59.1160   34.8910   47.3740 N   0  0  0  0  0  0  0  0  0  0  0  0
   58.1230   33.8290   47.1720 C   0  0  0  0  0  0  0  0  0  0  0  0
   58.5664   32.8474   47.3952 H   0  0  0  0  0  0  0  0  0  0  0  0
   57.2580   33.9629   47.8382 H   0  0  0  0  0  0  0  0  0  0  0  0
   57.7070   33.8960   45.7160 C   0  0  0  0  0  0  0  0  0  0  0  0
   57.4550   32.8950   45.3359 H   0  0  0  0  0  0  0  0  0  0  0  0
   56.8119   34.5166   45.5620 H   0  0  0  0  0  0  0  0  0  0  0  0
   58.9250   34.4490   45.0060 C   0  0  0  0  0  0  0  0  0  0  0  0
   59.5631   33.6313   44.6397 H   0  0  0  0  0  0  0  0  0  0  0  0
   58.6520   35.0535   44.1285 H   0  0  0  0  0  0  0  0  0  0  0  0
   59.6590   35.2700   46.0600 C   0  0  0  0  0  0  0  0  0  0  0  0
   60.7366   35.0524   46.0221 H   0  0  0  0  0  0  0  0  0  0  0  0
   59.5193   36.3460   45.8791 H   0  0  0  0  0  0  0  0  0  0  0  0
   60.1280   33.2900   52.2090 S   0  0  0  0  0  0  0  0  0  0  0  0
   61.2480   32.8450   53.1060 O   0  0  0  0  0  0  0  0  0  0  0  0
   59.6040   34.5900   52.7540 O   0  0  0  0  0  0  0  0  0  0  0  0
   58.8380   32.0870   52.2750 C   0  0  0  0  0  0  0  0  0  0  0  0
   59.1260   30.7600   52.6210 C   0  0  0  0  0  0  0  0  0  0  0  0
   60.1604   30.4674   52.8544 H   0  0  0  0  0  0  0  0  0  0  0  0
   58.1050   29.8060   52.6710 C   0  0  0  0  0  0  0  0  0  0  0  0
   58.3386   28.7639   52.9348 H   0  0  0  0  0  0  0  0  0  0  0  0
   56.7880   30.1760   52.3860 C   0  0  0  0  0  0  0  0  0  0  0  0
   55.9846   29.4256   52.4237 H   0  0  0  0  0  0  0  0  0  0  0  0
   56.4930   31.5010   52.0530 C   0  0  0  0  0  0  0  0  0  0  0  0
   55.4557   31.7936   51.8329 H   0  0  0  0  0  0  0  0  0  0  0  0
   57.5130   32.4550   51.9990 C   0  0  0  0  0  0  0  0  0  0  0  0
   57.2760   33.4973   51.7393 H   0  0  0  0  0  0  0  0  0  0  0  0
   59.5560   30.8950   49.3940 C   0  0  0  0  0  0  0  0  0  0  0  0
   59.1655   30.9305   50.4217 H   0  0  0  0  0  0  0  0  0  0  0  0
   58.8910   30.1430   48.4220 C   0  0  0  0  0  0  0  0  0  0  0  0
   57.9859   29.5785   48.6905 H   0  0  0  0  0  0  0  0  0  0  0  0
  1  2  1  0
  2  3  1  0
  2  4  2  0
  4  5  1  0
  5  6  2  0
  6  7  1  0
  6  8  1  0
  8  9  1  0
  9 10  1  0
 10 11  2  0
 10 12  1  0
 12 13  1  0
 13 14  1  0
  5 15  1  0
 15 16  1  0
 15 17  2  0
 17 18  1  0
 18 19  1  0
 18 20  1  0
 18 21  1  0
 17 22  1  0
 22 23  1  0
 23 24  2  0
 24 25  1  0
 24 26  1  0
 26 27  1  0
 26 28  2  0
 28 29  1  0
 29 30  1  0
 29 31  1  0
 29 32  1  0
 32 33  1  0
 33 34  1  0
 33 35  1  0
 33 36  1  0
 36 37  1  0
 36 38  1  0
 36 39  1  0
 39 40  1  0
 40 41  1  0
 40 42  1  0
 40 43  1  0
 43 44  1  0
 43 45  1  0
 43 46  1  0
 46 47  1  0
 46 48  1  0
 46 49  1  0
 49 50  1  0
 49 51  1  0
 32 52  1  0
 52 53  2  0
 52 54  2  0
 52 55  1  0
 55 56  2  0
 56 57  1  0
 56 58  1  0
 58 59  1  0
 58 60  2  0
 60 61  1  0
 60 62  1  0
 62 63  1  0
 62 64  2  0
 64 65  1  0
 28 66  1  0
 66 67  1  0
 66 68  2  0
 68 69  1  0
 22  4  1  0
 68 23  1  0
 13  8  2  0
 49 39  1  0
 64 55  1  0
M  CHG  3   9  -1  12  -1  14  -1
M  END
>  <UniqueID>  (67) 
64

>  <SMILES>  (67) 
C=c1/c(=C/c2[n-]c(=O)[n-]c2[O-])cc(C)n1-c1ccc(CN(CCN2CCCC2)S(=O)(=O)c2ccccc2)cc1

>  <Energy>  (67) 
151.59025515807704

>  <Genealogy>  (67) 
C=c1c(=Cc2[n-]c(=O)[n-]c2[O-])cc(C)n1-c1ccc(CN(CCN2CCCC2)S(=O)(=O)c2ccccc2)cc1 (protonated)
C=c1/c(=C/c2[n-]c(=O)[n-]c2[O-])cc(C)n1-c1ccc(CN(CCN2CCCC2)S(=O)(=O)c2ccccc2)cc1 (cis-trans isomerization)
C=c1/c(=C/c2[n-]c(=O)[n-]c2[O-])cc(C)n1-c1ccc(CN(CCN2CCCC2)S(=O)(=O)c2ccccc2)cc1 (3D coordinates assigned)
C=c1/c(=C/c2[n-]c(=O)[n-]c2[O-])cc(C)n1-c1ccc(CN(CCN2CCCC2)S(=O)(=O)c2ccccc2)cc1 (nonaromatic ring conformer: 151.59025515807704 kcal/mol)

>  <smiles>  (67) 
C=c1c(=Cc2[nH]c(=O)[nH]c2O)cc(C)n1-c1ccc(CN(CCN2CCCC2)S(=O)(=O)c2ccccc2)cc1

>  <score_type>  (67) 
oracle

>  <origin>  (67) 
adg

>  <m_score__min__energy>  (67) 
-18.629999999999999

>  <m_primary>  (67) 
energy

$$$$
67:0
     RDKit          3D

 37 38  0  0  0  0  0  0  0  0999 V2000
   57.1520   22.5030   44.1250 C   0  0  0  0  0  0  0  0  0  0  0  0
   56.0180   23.3380   44.6420 C   0  0  0  0  0  0  0  0  0  0  0  0
   54.7590   22.8450   44.5060 N   0  0  0  0  0  0  0  0  0  0  0  0
   53.6750   23.5260   44.9510 C   0  0  0  0  0  0  0  0  0  0  0  0
   52.5240   23.0390   44.8080 O   0  0  0  0  0  0  0  0  0  0  0  0
   53.8320   24.7290   45.5530 N   0  0  0  0  0  0  0  0  0  0  0  0
   55.0620   25.2780   45.7160 C   0  0  0  0  0  0  0  0  0  0  0  0
   55.1610   26.3930   46.2940 O   0  0  0  0  0  0  0  0  0  0  0  0
   56.2070   24.6050   45.2470 C   0  0  0  0  0  0  0  0  0  0  0  0
   57.8060   25.3530   45.4880 S   0  0  0  0  0  0  0  0  0  0  0  0
   58.8640   24.3150   45.2400 O   0  0  0  0  0  0  0  0  0  0  0  0
   57.9890   25.8650   46.8900 O   0  0  0  0  0  0  0  0  0  0  0  0
   58.0250   26.6560   44.3580 N   0  0  0  0  0  0  0  0  0  0  0  0
   57.6990   27.9300   45.0010 C   0  0  0  0  0  0  0  0  0  0  0  0
   57.3130   28.9660   43.9440 C   0  0  0  0  0  0  0  0  0  0  0  0
   56.2170   29.8470   44.4550 C   0  0  0  0  0  0  0  0  0  0  0  0
   55.1470   29.3300   44.8750 O   0  0  0  0  0  0  0  0  0  0  0  0
   56.3970   31.2680   44.4540 N   0  0  0  0  0  0  0  0  0  0  0  0
   57.3410   32.0080   45.2420 C   0  0  0  0  0  0  0  0  0  0  0  0
   58.2650   31.3700   46.0920 C   0  0  0  0  0  0  0  0  0  0  0  0
   59.1850   32.1280   46.8240 C   0  0  0  0  0  0  0  0  0  0  0  0
   59.2000   33.5220   46.7060 C   0  0  0  0  0  0  0  0  0  0  0  0
   60.3560   34.4690   47.6230 Cl  0  0  0  0  0  0  0  0  0  0  0  0
   58.3000   34.1570   45.8450 C   0  0  0  0  0  0  0  0  0  0  0  0
   57.3800   33.4020   45.1110 C   0  0  0  0  0  0  0  0  0  0  0  0
   57.7170   22.0870   44.9722 H   0  0  0  0  0  0  0  0  0  0  0  0
   56.7527   21.6816   43.5119 H   0  0  0  0  0  0  0  0  0  0  0  0
   57.8178   23.1281   43.5119 H   0  0  0  0  0  0  0  0  0  0  0  0
   59.0400   26.6680   44.1080 H   0  0  0  0  0  0  0  0  0  0  0  0
   56.8562   27.7838   45.6926 H   0  0  0  0  0  0  0  0  0  0  0  0
   58.5783   28.2901   45.5552 H   0  0  0  0  0  0  0  0  0  0  0  0
   58.1914   29.5827   43.7028 H   0  0  0  0  0  0  0  0  0  0  0  0
   56.9603   28.4429   43.0429 H   0  0  0  0  0  0  0  0  0  0  0  0
   58.2633   30.2736   46.1805 H   0  0  0  0  0  0  0  0  0  0  0  0
   59.8987   31.6266   47.4943 H   0  0  0  0  0  0  0  0  0  0  0  0
   58.3156   35.2523   45.7448 H   0  0  0  0  0  0  0  0  0  0  0  0
   56.6823   33.9061   44.4262 H   0  0  0  0  0  0  0  0  0  0  0  0
  1  2  1  0
  2  3  1  0
  3  4  1  0
  4  5  2  0
  4  6  1  0
  6  7  1  0
  7  8  2  0
  7  9  1  0
  9 10  1  0
 10 11  2  0
 10 12  2  0
 10 13  1  0
 13 14  1  0
 14 15  1  0
 15 16  1  0
 16 17  2  0
 16 18  1  0
 18 19  1  0
 19 20  2  0
 20 21  1  0
 21 22  2  0
 22 23  1  0
 22 24  1  0
 24 25  2  0
  9  2  2  0
 25 19  1  0
  1 26  1  0
  1 27  1  0
  1 28  1  0
 13 29  1  0
 14 30  1  0
 14 31  1  0
 15 32  1  0
 15 33  1  0
 20 34  1  0
 21 35  1  0
 24 36  1  0
 25 37  1  0
M  CHG  3   3  -1   6  -1  18  -1
M  END
>  <UniqueID>  (68) 
65

>  <SMILES>  (68) 
Cc1[n-]c(=O)[n-]c(=O)c1S(=O)(=O)NCCC(=O)[N-]c1ccc(Cl)cc1

>  <Energy>  (68) 
38.97107516174912

>  <Genealogy>  (68) 
Cc1[n-]c(=O)[n-]c(=O)c1S(=O)(=O)NCCC(=O)[N-]c1ccc(Cl)cc1 (protonated)
Cc1[n-]c(=O)[n-]c(=O)c1S(=O)(=O)NCCC(=O)[N-]c1ccc(Cl)cc1 (3D coordinates assigned)
Cc1[n-]c(=O)[n-]c(=O)c1S(=O)(=O)NCCC(=O)[N-]c1ccc(Cl)cc1 (optimized conformer: 38.97107516174912 kcal/mol)

>  <smiles>  (68) 
Cc1[nH]c(=O)[nH]c(=O)c1S(=O)(=O)NCCC(=O)Nc1ccc(Cl)cc1

>  <score_type>  (68) 
oracle

>  <origin>  (68) 
adg

>  <m_score__min__energy>  (68) 
-14.65

>  <m_primary>  (68) 
energy

$$$$
68:0
     RDKit          3D

 43 46  0  0  0  0  0  0  0  0999 V2000
   57.3210   21.2640   43.0650 C   0  0  0  0  0  0  0  0  0  0  0  0
   56.8620   21.5590   44.3810 O   0  0  0  0  0  0  0  0  0  0  0  0
   56.2970   22.7830   44.7690 C   0  0  0  0  0  0  0  0  0  0  0  0
   54.9190   22.8360   44.9900 C   0  0  0  0  0  0  0  0  0  0  0  0
   54.3100   24.0270   45.3850 C   0  0  0  0  0  0  0  0  0  0  0  0
   55.0700   25.1870   45.5610 C   0  0  0  0  0  0  0  0  0  0  0  0
   54.4320   26.3410   45.9970 O   0  0  0  0  0  0  0  0  0  0  0  0
   56.4620   25.1620   45.3250 C   0  0  0  0  0  0  0  0  0  0  0  0
   57.3100   26.3690   45.4850 C   0  0  0  0  0  0  0  0  0  0  0  0
   56.9050   27.6790   45.6580 C   0  0  0  0  0  0  0  0  0  0  0  0
   58.0270   28.4240   45.7100 N   0  0  0  0  0  0  0  0  0  0  0  0
   58.1380   29.8530   45.8670 C   0  0  0  0  0  0  0  0  0  0  0  0
   58.7600   30.4190   46.9970 C   0  0  0  0  0  0  0  0  0  0  0  0
   58.8620   31.8070   47.1310 C   0  0  0  0  0  0  0  0  0  0  0  0
   58.3630   32.6550   46.1290 C   0  0  0  0  0  0  0  0  0  0  0  0
   58.4320   34.0830   46.2480 N   0  0  0  0  0  0  0  0  0  0  0  0
   59.6290   34.8660   46.3660 C   0  0  0  0  0  0  0  0  0  0  0  0
   59.6770   35.9840   45.7890 O   0  0  0  0  0  0  0  0  0  0  0  0
   60.8200   34.3600   47.0830 C   0  0  0  0  0  0  0  0  0  0  0  0
   61.9270   33.8600   46.3840 C   0  0  0  0  0  0  0  0  0  0  0  0
   63.0260   33.3810   47.0960 C   0  0  0  0  0  0  0  0  0  0  0  0
   62.9930   33.4050   48.4900 C   0  0  0  0  0  0  0  0  0  0  0  0
   63.9710   32.9790   49.1580 O   0  0  0  0  0  0  0  0  0  0  0  0
   61.8950   33.8890   49.1250 N   0  0  0  0  0  0  0  0  0  0  0  0
   60.8440   34.3490   48.4430 N   0  0  0  0  0  0  0  0  0  0  0  0
   57.7260   32.0990   45.0160 C   0  0  0  0  0  0  0  0  0  0  0  0
   57.6230   30.7120   44.8790 C   0  0  0  0  0  0  0  0  0  0  0  0
   59.0630   27.6100   45.5650 N   0  0  0  0  0  0  0  0  0  0  0  0
   58.6580   26.3570   45.4230 N   0  0  0  0  0  0  0  0  0  0  0  0
   57.0670   23.9510   44.9420 C   0  0  0  0  0  0  0  0  0  0  0  0
   58.2451   20.6701   43.1235 H   0  0  0  0  0  0  0  0  0  0  0  0
   56.5506   20.6915   42.5277 H   0  0  0  0  0  0  0  0  0  0  0  0
   57.5218   22.2026   42.5277 H   0  0  0  0  0  0  0  0  0  0  0  0
   54.3090   21.9312   44.8514 H   0  0  0  0  0  0  0  0  0  0  0  0
   53.2242   24.0537   45.5592 H   0  0  0  0  0  0  0  0  0  0  0  0
   55.8698   28.0424   45.7376 H   0  0  0  0  0  0  0  0  0  0  0  0
   59.1688   29.7638   47.7803 H   0  0  0  0  0  0  0  0  0  0  0  0
   59.3356   32.2370   48.0259 H   0  0  0  0  0  0  0  0  0  0  0  0
   61.9289   33.8456   45.2841 H   0  0  0  0  0  0  0  0  0  0  0  0
   63.9067   32.9897   46.5656 H   0  0  0  0  0  0  0  0  0  0  0  0
   57.3030   32.7574   44.2429 H   0  0  0  0  0  0  0  0  0  0  0  0
   57.1343   30.2876   43.9896 H   0  0  0  0  0  0  0  0  0  0  0  0
   58.1537   23.9152   44.7756 H   0  0  0  0  0  0  0  0  0  0  0  0
  1  2  1  0
  2  3  1  0
  3  4  2  0
  4  5  1  0
  5  6  2  0
  6  7  1  0
  6  8  1  0
  8  9  1  0
  9 10  2  0
 10 11  1  0
 11 12  1  0
 12 13  2  0
 13 14  1  0
 14 15  2  0
 15 16  1  0
 16 17  1  0
 17 18  2  0
 17 19  1  0
 19 20  1  0
 20 21  2  0
 21 22  1  0
 22 23  2  0
 22 24  1  0
 24 25  1  0
 15 26  1  0
 26 27  2  0
 11 28  1  0
 28 29  2  0
  8 30  2  0
 30  3  1  0
 29  9  1  0
 27 12  1  0
 25 19  2  0
  1 31  1  0
  1 32  1  0
  1 33  1  0
  4 34  1  0
  5 35  1  0
 10 36  1  0
 13 37  1  0
 14 38  1  0
 20 39  1  0
 21 40  1  0
 26 41  1  0
 27 42  1  0
 30 43  1  0
M  CHG  3   7  -1  16  -1  24  -1
M  END
>  <UniqueID>  (69) 
66

>  <SMILES>  (69) 
COc1ccc([O-])c(-c2cn(-c3ccc([N-]C(=O)c4ccc(=O)[n-]n4)cc3)nn2)c1

>  <Energy>  (69) 
95.96126224011815

>  <Genealogy>  (69) 
COc1ccc([O-])c(-c2cn(-c3ccc([N-]C(=O)c4ccc(=O)[n-]n4)cc3)nn2)c1 (protonated)
COc1ccc([O-])c(-c2cn(-c3ccc([N-]C(=O)c4ccc(=O)[n-]n4)cc3)nn2)c1 (3D coordinates assigned)
COc1ccc([O-])c(-c2cn(-c3ccc([N-]C(=O)c4ccc(=O)[n-]n4)cc3)nn2)c1 (optimized conformer: 95.96126224011815 kcal/mol)

>  <smiles>  (69) 
COc1ccc(O)c(-c2cn(-c3ccc(NC(=O)c4ccc(=O)[nH]n4)cc3)nn2)c1

>  <score_type>  (69) 
oracle

>  <origin>  (69) 
adg

>  <m_score__min__energy>  (69) 
-13.48

>  <m_primary>  (69) 
energy

$$$$
69:0
     RDKit          3D

 40 42  0  0  0  0  0  0  0  0999 V2000
   54.8270   25.9380   45.2240 H   0  0  0  0  0  0  0  0  0  0  0  0
   55.5320   26.0490   45.9870 N   0  0  0  0  0  0  0  0  0  0  0  0
   56.3500   27.0540   46.0100 C   0  0  0  0  0  0  0  0  0  0  0  0
   57.5240   26.9590   46.6830 N   0  0  0  0  0  0  0  0  0  0  0  0
   58.3930   28.0050   46.7030 C   0  0  0  0  0  0  0  0  0  0  0  0
   59.5150   27.9420   47.3580 N   0  0  0  0  0  0  0  0  0  0  0  0
   60.1900   29.0290   48.0130 C   0  0  0  0  0  0  0  0  0  0  0  0
   60.4690   28.9220   49.3820 C   0  0  0  0  0  0  0  0  0  0  0  0
   60.1861   28.0094   49.9271 H   0  0  0  0  0  0  0  0  0  0  0  0
   61.1040   29.9660   50.0600 C   0  0  0  0  0  0  0  0  0  0  0  0
   61.3334   29.8664   51.1312 H   0  0  0  0  0  0  0  0  0  0  0  0
   61.4480   31.1370   49.3780 C   0  0  0  0  0  0  0  0  0  0  0  0
   61.9537   31.9555   49.9112 H   0  0  0  0  0  0  0  0  0  0  0  0
   61.1490   31.2680   48.0170 C   0  0  0  0  0  0  0  0  0  0  0  0
   61.5580   32.7850   47.1490 S   0  0  0  0  0  0  0  0  0  0  0  0
   63.3620   32.5840   47.3200 C   0  0  0  0  0  0  0  0  0  0  0  0
   63.7580   32.9130   48.6040 F   0  0  0  0  0  0  0  0  0  0  0  0
   64.0200   33.3920   46.4100 F   0  0  0  0  0  0  0  0  0  0  0  0
   63.6930   31.2660   47.0720 F   0  0  0  0  0  0  0  0  0  0  0  0
   60.5050   30.2260   47.3400 C   0  0  0  0  0  0  0  0  0  0  0  0
   60.2437   30.3421   46.2778 H   0  0  0  0  0  0  0  0  0  0  0  0
   58.0640   29.1540   46.0620 N   0  0  0  0  0  0  0  0  0  0  0  0
   56.8850   29.2660   45.3940 C   0  0  0  0  0  0  0  0  0  0  0  0
   56.5750   30.3560   44.7520 N   0  0  0  0  0  0  0  0  0  0  0  0
   57.2790   31.6100   44.7890 C   0  0  0  0  0  0  0  0  0  0  0  0
   57.7820   32.2160   43.6220 C   0  0  0  0  0  0  0  0  0  0  0  0
   57.6094   31.7468   42.6422 H   0  0  0  0  0  0  0  0  0  0  0  0
   58.5000   33.4120   43.7050 C   0  0  0  0  0  0  0  0  0  0  0  0
   58.8825   33.8861   42.7891 H   0  0  0  0  0  0  0  0  0  0  0  0
   58.7340   34.0080   44.9470 C   0  0  0  0  0  0  0  0  0  0  0  0
   59.3002   34.9492   45.0063 H   0  0  0  0  0  0  0  0  0  0  0  0
   58.2480   33.4080   46.1190 C   0  0  0  0  0  0  0  0  0  0  0  0
   58.5470   34.0150   47.4580 C   0  0  0  0  0  0  0  0  0  0  0  0
   58.2111   33.3330   48.2530 H   0  0  0  0  0  0  0  0  0  0  0  0
   59.6303   34.1816   47.5514 H   0  0  0  0  0  0  0  0  0  0  0  0
   58.0189   34.9754   47.5514 H   0  0  0  0  0  0  0  0  0  0  0  0
   57.5450   32.1960   46.0340 C   0  0  0  0  0  0  0  0  0  0  0  0
   57.1994   31.7013   46.9537 H   0  0  0  0  0  0  0  0  0  0  0  0
   56.0330   28.2050   45.3600 N   0  0  0  0  0  0  0  0  0  0  0  0
   55.1290   28.2780   44.8380 H   0  0  0  0  0  0  0  0  0  0  0  0
  1  2  1  0
  2  3  2  0
  3  4  1  0
  4  5  1  0
  5  6  2  3
  6  7  1  0
  7  8  2  0
  8  9  1  0
  8 10  1  0
 10 11  1  0
 10 12  2  0
 12 13  1  0
 12 14  1  0
 14 15  1  0
 15 16  1  0
 16 17  1  0
 16 18  1  0
 16 19  1  0
 14 20  2  0
 20 21  1  0
  5 22  1  0
 22 23  1  0
 23 24  2  0
 24 25  1  0
 25 26  2  0
 26 27  1  0
 26 28  1  0
 28 29  1  0
 28 30  2  0
 30 31  1  0
 30 32  1  0
 32 33  1  0
 33 34  1  0
 33 35  1  0
 33 36  1  0
 32 37  2  0
 37 38  1  0
 23 39  1  0
 39 40  1  0
 39  3  1  0
 20  7  1  0
 37 25  1  0
M  CHG  2   4  -1  22  -1
M  END
>  <UniqueID>  (70) 
67

>  <SMILES>  (70) 
[H]/N=c1\[n-]c(=Nc2cccc(SC(F)(F)F)c2)[n-]/c(=N\c2cccc(C)c2)[nH]1

>  <Energy>  (70) 
50.51175033206432

>  <Genealogy>  (70) 
Cc1cccc(N=c2[n-]c(=Nc3cccc(SC(F)(F)F)c3)[n-]c(=N)[nH]2)c1 (protonated)
[H]/N=c1\[n-]c(=Nc2cccc(SC(F)(F)F)c2)[n-]/c(=N\c2cccc(C)c2)[nH]1 (cis-trans isomerization)
[H]/N=c1\[n-]c(=Nc2cccc(SC(F)(F)F)c2)[n-]/c(=N\c2cccc(C)c2)[nH]1 (3D coordinates assigned)
[H]/N=c1\[n-]c(=Nc2cccc(SC(F)(F)F)c2)[n-]/c(=N\c2cccc(C)c2)[nH]1 (optimized conformer: 50.51175033206432 kcal/mol)

>  <smiles>  (70) 
Cc1cccc(N=c2[nH]c(=N)[nH]c(=Nc3cccc(SC(F)(F)F)c3)[nH]2)c1

>  <score_type>  (70) 
oracle

>  <origin>  (70) 
adg

>  <m_score__min__energy>  (70) 
-11.359999999999999

>  <m_primary>  (70) 
energy

$$$$
70:0
     RDKit          3D

 40 42  0  0  0  0  0  0  0  0999 V2000
   62.5340   30.8050   50.2030 N   0  0  0  0  0  0  0  0  0  0  0  0
   61.7540   31.0950   49.3980 C   0  0  0  0  0  0  0  0  0  0  0  0
   60.7840   31.4530   48.3960 C   0  0  0  0  0  0  0  0  0  0  0  0
   61.1300   32.3380   47.3670 C   0  0  0  0  0  0  0  0  0  0  0  0
   60.1840   32.6950   46.3990 C   0  0  0  0  0  0  0  0  0  0  0  0
   58.8870   32.1630   46.4530 C   0  0  0  0  0  0  0  0  0  0  0  0
   57.6800   32.6010   45.2500 S   0  0  0  0  0  0  0  0  0  0  0  0
   58.2790   33.4490   44.1620 O   0  0  0  0  0  0  0  0  0  0  0  0
   56.5920   33.3900   45.9240 O   0  0  0  0  0  0  0  0  0  0  0  0
   56.9970   31.1690   44.5550 N   0  0  0  0  0  0  0  0  0  0  0  0
   57.3390   29.8220   44.9160 C   0  0  0  0  0  0  0  0  0  0  0  0
   58.6720   29.3700   44.9250 C   0  0  0  0  0  0  0  0  0  0  0  0
   58.9630   28.0470   45.2640 C   0  0  0  0  0  0  0  0  0  0  0  0
   57.9340   27.1650   45.6030 C   0  0  0  0  0  0  0  0  0  0  0  0
   56.6000   27.6070   45.6140 C   0  0  0  0  0  0  0  0  0  0  0  0
   55.5230   26.7070   45.9110 N   0  0  0  0  0  0  0  0  0  0  0  0
   55.6100   25.2780   45.9810 C   0  0  0  0  0  0  0  0  0  0  0  0
   55.6940   24.7270   47.1120 O   0  0  0  0  0  0  0  0  0  0  0  0
   55.6480   24.4300   44.7390 C   0  0  0  0  0  0  0  0  0  0  0  0
   56.8990   23.6060   44.7040 C   0  0  0  0  0  0  0  0  0  0  0  0
   58.3200   23.9650   45.5360 S   0  0  0  0  0  0  0  0  0  0  0  0
   59.0650   22.5410   45.0430 C   0  0  0  0  0  0  0  0  0  0  0  0
   60.2380   22.2060   45.3620 O   0  0  0  0  0  0  0  0  0  0  0  0
   58.2680   21.7780   44.2670 N   0  0  0  0  0  0  0  0  0  0  0  0
   57.0570   22.3680   44.0830 C   0  0  0  0  0  0  0  0  0  0  0  0
   56.0500   21.7660   43.3330 O   0  0  0  0  0  0  0  0  0  0  0  0
   56.3100   28.9320   45.2540 C   0  0  0  0  0  0  0  0  0  0  0  0
   54.9930   29.3700   45.2410 O   0  0  0  0  0  0  0  0  0  0  0  0
   58.5480   31.2710   47.4800 C   0  0  0  0  0  0  0  0  0  0  0  0
   59.4920   30.9170   48.4500 C   0  0  0  0  0  0  0  0  0  0  0  0
   62.1474   32.7534   47.3195 H   0  0  0  0  0  0  0  0  0  0  0  0
   60.4580   33.3937   45.5948 H   0  0  0  0  0  0  0  0  0  0  0  0
   59.4871   30.0611   44.6642 H   0  0  0  0  0  0  0  0  0  0  0  0
   60.0062   27.6980   45.2641 H   0  0  0  0  0  0  0  0  0  0  0  0
   58.1685   26.1220   45.8620 H   0  0  0  0  0  0  0  0  0  0  0  0
   54.7742   23.7619   44.7300 H   0  0  0  0  0  0  0  0  0  0  0  0
   55.6311   25.0885   43.8581 H   0  0  0  0  0  0  0  0  0  0  0  0
   55.1470   22.2140   43.2250 H   0  0  0  0  0  0  0  0  0  0  0  0
   57.5339   30.8470   47.5234 H   0  0  0  0  0  0  0  0  0  0  0  0
   59.2192   30.2181   49.2544 H   0  0  0  0  0  0  0  0  0  0  0  0
  1  2  3  0
  2  3  1  0
  3  4  2  0
  4  5  1  0
  5  6  2  0
  6  7  1  0
  7  8  2  0
  7  9  2  0
  7 10  1  0
 10 11  1  0
 11 12  2  0
 12 13  1  0
 13 14  2  0
 14 15  1  0
 15 16  1  0
 16 17  1  0
 17 18  2  0
 17 19  1  0
 19 20  1  0
 20 21  1  0
 21 22  1  0
 22 23  2  0
 22 24  1  0
 24 25  1  0
 25 26  1  0
 15 27  2  0
 27 28  1  0
  6 29  1  0
 29 30  2  0
 30  3  1  0
 27 11  1  0
 25 20  2  0
  4 31  1  0
  5 32  1  0
 12 33  1  0
 13 34  1  0
 14 35  1  0
 19 36  1  0
 19 37  1  0
 26 38  1  0
 29 39  1  0
 30 40  1  0
M  CHG  4  10  -1  16  -1  24  -1  28  -1
M  END
>  <UniqueID>  (71) 
68

>  <SMILES>  (71) 
N#Cc1ccc(S(=O)(=O)[N-]c2cccc([N-]C(=O)Cc3sc(=O)[n-]c3O)c2[O-])cc1

>  <Energy>  (71) 
79.78431638933684

>  <Genealogy>  (71) 
N#Cc1ccc(S(=O)(=O)[N-]c2cccc([N-]C(=O)Cc3sc(=O)[n-]c3O)c2[O-])cc1 (protonated)
N#Cc1ccc(S(=O)(=O)[N-]c2cccc([N-]C(=O)Cc3sc(=O)[n-]c3O)c2[O-])cc1 (3D coordinates assigned)
N#Cc1ccc(S(=O)(=O)[N-]c2cccc([N-]C(=O)Cc3sc(=O)[n-]c3O)c2[O-])cc1 (optimized conformer: 79.78431638933684 kcal/mol)

>  <smiles>  (71) 
N#Cc1ccc(S(=O)(=O)Nc2cccc(NC(=O)Cc3sc(=O)[nH]c3O)c2O)cc1

>  <score_type>  (71) 
oracle

>  <origin>  (71) 
adg

>  <m_score__min__energy>  (71) 
-17.489999999999998

>  <m_primary>  (71) 
energy

$$$$
71:0
     RDKit          3D

 54 57  0  0  0  0  0  0  0  0999 V2000
   67.0060   32.8660   48.7700 H   0  0  0  0  0  0  0  0  0  0  0  0
   67.0870   33.0790   49.7880 N   0  0  0  0  0  0  0  0  0  0  0  0
   65.6050   32.5860   50.5270 S   0  0  0  0  0  0  0  0  0  0  0  0
   65.6380   31.1020   50.7690 O   0  0  0  0  0  0  0  0  0  0  0  0
   65.4450   33.2850   51.8480 O   0  0  0  0  0  0  0  0  0  0  0  0
   64.2540   32.9890   49.4710 C   0  0  0  0  0  0  0  0  0  0  0  0
   64.4490   33.1110   48.0890 C   0  0  0  0  0  0  0  0  0  0  0  0
   65.4523   32.9669   47.6616 H   0  0  0  0  0  0  0  0  0  0  0  0
   63.3730   33.4150   47.2530 C   0  0  0  0  0  0  0  0  0  0  0  0
   63.5282   33.4949   46.1669 H   0  0  0  0  0  0  0  0  0  0  0  0
   62.1000   33.6180   47.7910 C   0  0  0  0  0  0  0  0  0  0  0  0
   61.2525   33.8409   47.1261 H   0  0  0  0  0  0  0  0  0  0  0  0
   61.8990   33.5380   49.1820 C   0  0  0  0  0  0  0  0  0  0  0  0
   60.6110   33.7380   49.7840 N   0  0  0  0  0  0  0  0  0  0  0  0
   59.4890   32.8440   49.7550 C   0  0  0  0  0  0  0  0  0  0  0  0
   58.4900   33.0560   50.4930 O   0  0  0  0  0  0  0  0  0  0  0  0
   59.5300   31.6340   48.9000 C   0  0  0  0  0  0  0  0  0  0  0  0
   60.4760   30.6240   49.1340 C   0  0  0  0  0  0  0  0  0  0  0  0
   61.2032   30.7384   49.9514 H   0  0  0  0  0  0  0  0  0  0  0  0
   60.5040   29.4750   48.3400 C   0  0  0  0  0  0  0  0  0  0  0  0
   61.2531   28.6955   48.5430 H   0  0  0  0  0  0  0  0  0  0  0  0
   59.5840   29.2970   47.2780 C   0  0  0  0  0  0  0  0  0  0  0  0
   59.5590   28.1440   46.4360 C   0  0  0  0  0  0  0  0  0  0  0  0
   60.6170   27.3020   46.3900 C   0  0  0  0  0  0  0  0  0  0  0  0
   61.4877   27.4769   47.0390 H   0  0  0  0  0  0  0  0  0  0  0  0
   60.6065   26.4425   45.7036 H   0  0  0  0  0  0  0  0  0  0  0  0
   58.4110   27.9370   45.5990 C   0  0  0  0  0  0  0  0  0  0  0  0
   58.0630   26.6800   45.1960 C   0  0  0  0  0  0  0  0  0  0  0  0
   58.2564   26.4163   44.1457 H   0  0  0  0  0  0  0  0  0  0  0  0
   57.4480   25.6430   46.0520 C   0  0  0  0  0  0  0  0  0  0  0  0
   58.0870   24.5530   46.5130 N   0  0  0  0  0  0  0  0  0  0  0  0
   57.1150   23.8610   47.1430 C   0  0  0  0  0  0  0  0  0  0  0  0
   57.3320   22.7670   47.7260 O   0  0  0  0  0  0  0  0  0  0  0  0
   55.8920   24.4290   47.0930 N   0  0  0  0  0  0  0  0  0  0  0  0
   56.1150   25.5510   46.3900 C   0  0  0  0  0  0  0  0  0  0  0  0
   55.1160   26.4670   46.0740 O   0  0  0  0  0  0  0  0  0  0  0  0
   54.3960   26.7130   46.7430 H   0  0  0  0  0  0  0  0  0  0  0  0
   57.6170   29.0820   45.2920 C   0  0  0  0  0  0  0  0  0  0  0  0
   56.7650   29.2040   44.0410 C   0  0  0  0  0  0  0  0  0  0  0  0
   57.3047   28.7467   43.1986 H   0  0  0  0  0  0  0  0  0  0  0  0
   55.8107   28.6906   44.2304 H   0  0  0  0  0  0  0  0  0  0  0  0
   56.4530   30.6680   43.6930 C   0  0  0  0  0  0  0  0  0  0  0  0
   55.6763   30.6895   42.9144 H   0  0  0  0  0  0  0  0  0  0  0  0
   56.1124   31.1688   44.6113 H   0  0  0  0  0  0  0  0  0  0  0  0
   57.6860   31.4140   43.1800 C   0  0  0  0  0  0  0  0  0  0  0  0
   58.2791   31.7729   44.0341 H   0  0  0  0  0  0  0  0  0  0  0  0
   58.2977   30.7344   42.5685 H   0  0  0  0  0  0  0  0  0  0  0  0
   57.3678   32.2712   42.5685 H   0  0  0  0  0  0  0  0  0  0  0  0
   57.7300   30.1950   46.0590 N   0  0  0  0  0  0  0  0  0  0  0  0
   58.6220   30.3100   47.0670 C   0  0  0  0  0  0  0  0  0  0  0  0
   58.6090   31.4660   47.8550 C   0  0  0  0  0  0  0  0  0  0  0  0
   57.8675   32.2529   47.6527 H   0  0  0  0  0  0  0  0  0  0  0  0
   62.9780   33.2040   50.0100 C   0  0  0  0  0  0  0  0  0  0  0  0
   62.8225   33.1094   51.0948 H   0  0  0  0  0  0  0  0  0  0  0  0
  1  2  1  0
  2  3  1  0
  3  4  2  0
  3  5  2  0
  3  6  1  0
  6  7  2  0
  7  8  1  0
  7  9  1  0
  9 10  1  0
  9 11  2  0
 11 12  1  0
 11 13  1  0
 13 14  1  0
 14 15  1  0
 15 16  2  0
 15 17  1  0
 17 18  2  0
 18 19  1  0
 18 20  1  0
 20 21  1  0
 20 22  2  0
 22 23  1  0
 23 24  2  0
 24 25  1  0
 24 26  1  0
 23 27  1  0
 27 28  2  0
 28 29  1  0
 28 30  1  0
 30 31  1  0
 31 32  1  0
 32 33  2  0
 32 34  1  0
 34 35  1  0
 35 36  1  0
 36 37  1  0
 27 38  1  0
 38 39  1  0
 39 40  1  0
 39 41  1  0
 39 42  1  0
 42 43  1  0
 42 44  1  0
 42 45  1  0
 45 46  1  0
 45 47  1  0
 45 48  1  0
 38 49  2  0
 49 50  1  0
 50 51  2  0
 51 52  1  0
 13 53  2  0
 53 54  1  0
 53  6  1  0
 51 17  1  0
 50 22  1  0
 35 30  2  0
M  CHG  4   2  -1  14  -1  31  -1  34  -1
M  END
>  <UniqueID>  (72) 
69

>  <SMILES>  (72) 
C=c1/c(=C/c2[n-]c(=O)[n-]c2O)c(CCC)nc2cc(C(=O)[N-]c3cccc(S([NH-])(=O)=O)c3)ccc12

>  <Energy>  (72) 
125.08525832863425

>  <Genealogy>  (72) 
C=c1c(=Cc2[n-]c(=O)[n-]c2O)c(CCC)nc2cc(C(=O)[N-]c3cccc(S([NH-])(=O)=O)c3)ccc12 (protonated)
C=c1/c(=C/c2[n-]c(=O)[n-]c2O)c(CCC)nc2cc(C(=O)[N-]c3cccc(S([NH-])(=O)=O)c3)ccc12 (cis-trans isomerization)
C=c1/c(=C/c2[n-]c(=O)[n-]c2O)c(CCC)nc2cc(C(=O)[N-]c3cccc(S([NH-])(=O)=O)c3)ccc12 (3D coordinates assigned)
C=c1/c(=C/c2[n-]c(=O)[n-]c2O)c(CCC)nc2cc(C(=O)[N-]c3cccc(S([NH-])(=O)=O)c3)ccc12 (optimized conformer: 125.08525832863425 kcal/mol)

>  <smiles>  (72) 
C=c1c(=Cc2[nH]c(=O)[nH]c2O)c(CCC)nc2cc(C(=O)Nc3cccc(S(N)(=O)=O)c3)ccc12

>  <score_type>  (72) 
oracle

>  <origin>  (72) 
adg

>  <m_score__min__energy>  (72) 
-16.079999999999998

>  <m_primary>  (72) 
energy

$$$$
72:0
     RDKit          3D

 39 41  0  0  0  0  0  0  0  0999 V2000
   59.3810   29.5900   45.2180 O   0  0  0  0  0  0  0  0  0  0  0  0
   58.1410   29.6000   45.4410 C   0  0  0  0  0  0  0  0  0  0  0  0
   57.4070   30.8310   45.4470 N   0  0  0  0  0  0  0  0  0  0  0  0
   57.9420   32.1550   45.6100 C   0  0  0  0  0  0  0  0  0  0  0  0
   57.7460   33.1480   44.6310 C   0  0  0  0  0  0  0  0  0  0  0  0
   58.2390   34.4390   44.8240 C   0  0  0  0  0  0  0  0  0  0  0  0
   58.9190   34.7610   45.9990 C   0  0  0  0  0  0  0  0  0  0  0  0
   59.1010   33.7940   46.9880 C   0  0  0  0  0  0  0  0  0  0  0  0
   58.6170   32.4870   46.8060 C   0  0  0  0  0  0  0  0  0  0  0  0
   58.7830   31.4740   47.9170 C   0  0  0  0  0  0  0  0  0  0  0  0
   59.7270   31.9800   49.0180 C   0  0  0  0  0  0  0  0  0  0  0  0
   61.1180   32.2400   48.4910 C   0  0  0  0  0  0  0  0  0  0  0  0
   61.7570   33.4580   48.7830 C   0  0  0  0  0  0  0  0  0  0  0  0
   63.0250   33.7330   48.2640 C   0  0  0  0  0  0  0  0  0  0  0  0
   63.6650   32.7980   47.4490 C   0  0  0  0  0  0  0  0  0  0  0  0
   63.0380   31.5870   47.1470 C   0  0  0  0  0  0  0  0  0  0  0  0
   61.7640   31.3030   47.6600 C   0  0  0  0  0  0  0  0  0  0  0  0
   61.1390   30.0970   47.3440 O   0  0  0  0  0  0  0  0  0  0  0  0
   57.4510   28.3420   45.7520 C   0  0  0  0  0  0  0  0  0  0  0  0
   58.0570   27.1940   46.2310 C   0  0  0  0  0  0  0  0  0  0  0  0
   57.0520   26.2640   46.3840 C   0  0  0  0  0  0  0  0  0  0  0  0
   55.8960   26.8990   45.9900 C   0  0  0  0  0  0  0  0  0  0  0  0
   54.6370   26.3150   45.9880 O   0  0  0  0  0  0  0  0  0  0  0  0
   56.1210   28.1680   45.6010 N   0  0  0  0  0  0  0  0  0  0  0  0
   57.2003   32.9042   43.7075 H   0  0  0  0  0  0  0  0  0  0  0  0
   58.0912   35.2046   44.0481 H   0  0  0  0  0  0  0  0  0  0  0  0
   59.3118   35.7779   46.1457 H   0  0  0  0  0  0  0  0  0  0  0  0
   59.6274   34.0565   47.9175 H   0  0  0  0  0  0  0  0  0  0  0  0
   57.7977   31.2681   48.3605 H   0  0  0  0  0  0  0  0  0  0  0  0
   59.2218   30.5628   47.4844 H   0  0  0  0  0  0  0  0  0  0  0  0
   59.3224   32.9158   49.4310 H   0  0  0  0  0  0  0  0  0  0  0  0
   59.7957   31.2019   49.7925 H   0  0  0  0  0  0  0  0  0  0  0  0
   61.2559   34.1986   49.4236 H   0  0  0  0  0  0  0  0  0  0  0  0
   63.5193   34.6874   48.4980 H   0  0  0  0  0  0  0  0  0  0  0  0
   64.6644   33.0151   47.0440 H   0  0  0  0  0  0  0  0  0  0  0  0
   63.5456   30.8529   46.5040 H   0  0  0  0  0  0  0  0  0  0  0  0
   60.4660   30.0290   46.5900 H   0  0  0  0  0  0  0  0  0  0  0  0
   59.1264   27.0523   46.4464 H   0  0  0  0  0  0  0  0  0  0  0  0
   57.1524   25.2300   46.7455 H   0  0  0  0  0  0  0  0  0  0  0  0
  1  2  2  0
  2  3  1  0
  3  4  1  0
  4  5  2  0
  5  6  1  0
  6  7  2  0
  7  8  1  0
  8  9  2  0
  9 10  1  0
 10 11  1  0
 11 12  1  0
 12 13  2  0
 13 14  1  0
 14 15  2  0
 15 16  1  0
 16 17  2  0
 17 18  1  0
  2 19  1  0
 19 20  2  0
 20 21  1  0
 21 22  2  0
 22 23  1  0
 22 24  1  0
  9  4  1  0
 17 12  1  0
 24 19  1  0
  5 25  1  0
  6 26  1  0
  7 27  1  0
  8 28  1  0
 10 29  1  0
 10 30  1  0
 11 31  1  0
 11 32  1  0
 13 33  1  0
 14 34  1  0
 15 35  1  0
 16 36  1  0
 18 37  1  0
 20 38  1  0
 21 39  1  0
M  CHG  3   3  -1  23  -1  24  -1
M  END
>  <UniqueID>  (73) 
70

>  <SMILES>  (73) 
O=C([N-]c1ccccc1CCc1ccccc1O)c1ccc([O-])[n-]1

>  <Energy>  (73) 
65.94634092057193

>  <Genealogy>  (73) 
O=C([N-]c1ccccc1CCc1ccccc1O)c1ccc([O-])[n-]1 (protonated)
O=C([N-]c1ccccc1CCc1ccccc1O)c1ccc([O-])[n-]1 (3D coordinates assigned)
O=C([N-]c1ccccc1CCc1ccccc1O)c1ccc([O-])[n-]1 (optimized conformer: 65.94634092057193 kcal/mol)

>  <smiles>  (73) 
O=C(Nc1ccccc1CCc1ccccc1O)c1ccc(O)[nH]1

>  <score_type>  (73) 
oracle

>  <origin>  (73) 
adg

>  <m_score__min__energy>  (73) 
-14.59

>  <m_primary>  (73) 
energy

$$$$
73:0
     RDKit          3D

 57 59  0  0  0  0  0  0  0  0999 V2000
   65.9910   32.9750   50.1260 C   0  0  0  0  0  0  0  0  0  0  0  0
   64.9220   31.9480   49.7710 C   0  0  0  0  0  0  0  0  0  0  0  0
   63.6300   32.5990   49.5720 N   0  0  0  0  0  0  0  0  0  0  0  0
   63.3060   33.3280   48.3800 C   0  0  0  0  0  0  0  0  0  0  0  0
   64.0850   33.3080   47.3880 O   0  0  0  0  0  0  0  0  0  0  0  0
   62.0640   34.1630   48.3260 C   0  0  0  0  0  0  0  0  0  0  0  0
   61.0150   33.4590   47.5090 C   0  0  0  0  0  0  0  0  0  0  0  0
   60.9760   32.0570   47.4670 C   0  0  0  0  0  0  0  0  0  0  0  0
   60.0490   31.4000   46.6530 C   0  0  0  0  0  0  0  0  0  0  0  0
   59.1540   32.1370   45.8570 C   0  0  0  0  0  0  0  0  0  0  0  0
   58.1990   31.4470   44.9560 C   0  0  0  0  0  0  0  0  0  0  0  0
   58.0260   31.8740   43.6290 C   0  0  0  0  0  0  0  0  0  0  0  0
   57.1170   31.2250   42.7910 C   0  0  0  0  0  0  0  0  0  0  0  0
   56.3760   30.1390   43.2660 C   0  0  0  0  0  0  0  0  0  0  0  0
   56.5480   29.6860   44.5780 C   0  0  0  0  0  0  0  0  0  0  0  0
   55.7470   28.5890   45.0440 N   0  0  0  0  0  0  0  0  0  0  0  0
   56.2470   27.3770   45.6190 C   0  0  0  0  0  0  0  0  0  0  0  0
   57.4860   27.1530   45.5970 O   0  0  0  0  0  0  0  0  0  0  0  0
   55.3580   26.4540   46.2570 N   0  0  0  0  0  0  0  0  0  0  0  0
   54.8920   25.2190   45.6350 C   0  0  0  0  0  0  0  0  0  0  0  0
   56.0620   24.3280   45.3270 C   0  0  0  0  0  0  0  0  0  0  0  0
   56.1290   23.6540   44.0980 C   0  0  0  0  0  0  0  0  0  0  0  0
   57.2350   22.8600   43.7850 C   0  0  0  0  0  0  0  0  0  0  0  0
   58.2900   22.7230   44.7010 C   0  0  0  0  0  0  0  0  0  0  0  0
   59.4990   21.8870   44.3600 C   0  0  0  0  0  0  0  0  0  0  0  0
   60.3720   21.7260   45.5210 N   0  0  0  0  0  0  0  0  0  0  0  0
   58.2300   23.4050   45.9270 C   0  0  0  0  0  0  0  0  0  0  0  0
   57.1260   24.2060   46.2350 C   0  0  0  0  0  0  0  0  0  0  0  0
   57.4440   30.3580   45.4270 C   0  0  0  0  0  0  0  0  0  0  0  0
   59.1940   33.5410   45.9050 C   0  0  0  0  0  0  0  0  0  0  0  0
   60.1200   34.1960   46.7200 C   0  0  0  0  0  0  0  0  0  0  0  0
   66.0740   33.0547   51.2200 H   0  0  0  0  0  0  0  0  0  0  0  0
   66.9575   32.6580   49.7071 H   0  0  0  0  0  0  0  0  0  0  0  0
   65.7130   33.9534   49.7071 H   0  0  0  0  0  0  0  0  0  0  0  0
   65.2120   31.4295   48.8452 H   0  0  0  0  0  0  0  0  0  0  0  0
   64.8329   31.2283   50.5981 H   0  0  0  0  0  0  0  0  0  0  0  0
   62.9150   32.5240   50.3290 H   0  0  0  0  0  0  0  0  0  0  0  0
   61.6862   34.3229   49.3466 H   0  0  0  0  0  0  0  0  0  0  0  0
   62.2969   35.1329   47.8622 H   0  0  0  0  0  0  0  0  0  0  0  0
   61.6789   31.4717   48.0781 H   0  0  0  0  0  0  0  0  0  0  0  0
   60.0193   30.3005   46.6349 H   0  0  0  0  0  0  0  0  0  0  0  0
   58.6100   32.7246   43.2478 H   0  0  0  0  0  0  0  0  0  0  0  0
   56.9837   31.5691   41.7547 H   0  0  0  0  0  0  0  0  0  0  0  0
   55.6539   29.6381   42.6045 H   0  0  0  0  0  0  0  0  0  0  0  0
   54.2090   24.6993   46.3231 H   0  0  0  0  0  0  0  0  0  0  0  0
   54.3652   25.4609   44.7001 H   0  0  0  0  0  0  0  0  0  0  0  0
   55.3049   23.7515   43.3760 H   0  0  0  0  0  0  0  0  0  0  0  0
   57.2794   22.3400   42.8167 H   0  0  0  0  0  0  0  0  0  0  0  0
   59.1658   20.8951   44.0208 H   0  0  0  0  0  0  0  0  0  0  0  0
   60.0640   22.3975   43.5662 H   0  0  0  0  0  0  0  0  0  0  0  0
   61.2600   22.2500   45.3510 H   0  0  0  0  0  0  0  0  0  0  0  0
   60.6200   20.7150   45.6220 H   0  0  0  0  0  0  0  0  0  0  0  0
   59.0550   23.3087   46.6482 H   0  0  0  0  0  0  0  0  0  0  0  0
   57.0909   24.7436   47.1941 H   0  0  0  0  0  0  0  0  0  0  0  0
   57.5559   30.0288   46.4706 H   0  0  0  0  0  0  0  0  0  0  0  0
   58.4909   34.1284   45.2962 H   0  0  0  0  0  0  0  0  0  0  0  0
   60.1474   35.2954   46.7431 H   0  0  0  0  0  0  0  0  0  0  0  0
  1  2  1  0
  2  3  1  0
  3  4  1  0
  4  5  2  0
  4  6  1  0
  6  7  1  0
  7  8  2  0
  8  9  1  0
  9 10  2  0
 10 11  1  0
 11 12  2  0
 12 13  1  0
 13 14  2  0
 14 15  1  0
 15 16  1  0
 16 17  1  0
 17 18  2  0
 17 19  1  0
 19 20  1  0
 20 21  1  0
 21 22  2  0
 22 23  1  0
 23 24  2  0
 24 25  1  0
 25 26  1  0
 24 27  1  0
 27 28  2  0
 15 29  2  0
 10 30  1  0
 30 31  2  0
 31  7  1  0
 29 11  1  0
 28 21  1  0
  1 32  1  0
  1 33  1  0
  1 34  1  0
  2 35  1  0
  2 36  1  0
  3 37  1  0
  6 38  1  0
  6 39  1  0
  8 40  1  0
  9 41  1  0
 12 42  1  0
 13 43  1  0
 14 44  1  0
 20 45  1  0
 20 46  1  0
 22 47  1  0
 23 48  1  0
 25 49  1  0
 25 50  1  0
 26 51  1  0
 26 52  1  0
 27 53  1  0
 28 54  1  0
 29 55  1  0
 30 56  1  0
 31 57  1  0
M  CHG  2  16  -1  19  -1
M  END
>  <UniqueID>  (74) 
71

>  <SMILES>  (74) 
CCNC(=O)Cc1ccc(-c2cccc([N-]C(=O)[N-]Cc3ccc(CN)cc3)c2)cc1

>  <Energy>  (74) 
52.27413527610422

>  <Genealogy>  (74) 
CCNC(=O)Cc1ccc(-c2cccc([N-]C(=O)[N-]Cc3ccc(CN)cc3)c2)cc1 (protonated)
CCNC(=O)Cc1ccc(-c2cccc([N-]C(=O)[N-]Cc3ccc(CN)cc3)c2)cc1 (3D coordinates assigned)
CCNC(=O)Cc1ccc(-c2cccc([N-]C(=O)[N-]Cc3ccc(CN)cc3)c2)cc1 (optimized conformer: 52.27413527610422 kcal/mol)

>  <smiles>  (74) 
CCNC(=O)Cc1ccc(-c2cccc(NC(=O)NCc3ccc(CN)cc3)c2)cc1

>  <score_type>  (74) 
oracle

>  <origin>  (74) 
adg

>  <m_score__min__energy>  (74) 
-14.17

>  <m_primary>  (74) 
energy

$$$$
74:0
     RDKit          3D

 50 51  0  0  0  0  0  0  0  0999 V2000
   59.2410   28.1750   47.4780 C   0  0  0  0  0  0  0  0  0  0  0  0
   57.9570   28.3230   46.6480 C   0  0  0  0  0  0  0  0  0  0  0  0
   58.0810   27.8560   45.2410 N   0  0  0  0  0  0  0  0  0  0  0  0
   57.3500   26.5920   44.9870 C   0  0  0  0  0  0  0  0  0  0  0  0
   56.3850   26.3130   46.1020 C   0  0  0  0  0  0  0  0  0  0  0  0
   55.1860   26.7000   45.9980 O   0  0  0  0  0  0  0  0  0  0  0  0
   56.7950   25.5370   47.2330 N   0  0  0  0  0  0  0  0  0  0  0  0
   56.9730   24.0930   47.1960 C   0  0  0  0  0  0  0  0  0  0  0  0
   56.6950   23.5860   45.8070 C   0  0  0  0  0  0  0  0  0  0  0  0
   57.7280   23.0130   45.0460 C   0  0  0  0  0  0  0  0  0  0  0  0
   57.4870   22.5750   43.7420 C   0  0  0  0  0  0  0  0  0  0  0  0
   56.2130   22.7060   43.1830 C   0  0  0  0  0  0  0  0  0  0  0  0
   55.1800   23.2870   43.9240 C   0  0  0  0  0  0  0  0  0  0  0  0
   55.4120   23.7300   45.2340 C   0  0  0  0  0  0  0  0  0  0  0  0
   54.3810   24.3220   45.9650 O   0  0  0  0  0  0  0  0  0  0  0  0
   57.7480   28.8980   44.2400 C   0  0  0  0  0  0  0  0  0  0  0  0
   56.5460   29.6950   44.6470 C   0  0  0  0  0  0  0  0  0  0  0  0
   55.5000   29.0920   45.0130 O   0  0  0  0  0  0  0  0  0  0  0  0
   56.5530   31.1230   44.5150 N   0  0  0  0  0  0  0  0  0  0  0  0
   57.3860   32.0250   45.2630 C   0  0  0  0  0  0  0  0  0  0  0  0
   57.4460   33.3670   44.8720 C   0  0  0  0  0  0  0  0  0  0  0  0
   58.2580   34.2700   45.5670 C   0  0  0  0  0  0  0  0  0  0  0  0
   59.0330   33.8410   46.6510 C   0  0  0  0  0  0  0  0  0  0  0  0
   59.8310   34.7830   47.3210 O   0  0  0  0  0  0  0  0  0  0  0  0
   60.4180   34.5780   48.6030 C   0  0  0  0  0  0  0  0  0  0  0  0
   58.9940   32.4860   47.0290 C   0  0  0  0  0  0  0  0  0  0  0  0
   58.1800   31.5850   46.3370 C   0  0  0  0  0  0  0  0  0  0  0  0
   58.9908   28.2038   48.5488 H   0  0  0  0  0  0  0  0  0  0  0  0
   59.7230   27.2153   47.2398 H   0  0  0  0  0  0  0  0  0  0  0  0
   59.9287   28.9998   47.2398 H   0  0  0  0  0  0  0  0  0  0  0  0
   57.1621   27.7398   47.1359 H   0  0  0  0  0  0  0  0  0  0  0  0
   57.7320   29.3989   46.6044 H   0  0  0  0  0  0  0  0  0  0  0  0
   56.7957   26.6777   44.0408 H   0  0  0  0  0  0  0  0  0  0  0  0
   58.0745   25.7665   44.9270 H   0  0  0  0  0  0  0  0  0  0  0  0
   58.0072   23.8443   47.4764 H   0  0  0  0  0  0  0  0  0  0  0  0
   56.2760   23.6206   47.9038 H   0  0  0  0  0  0  0  0  0  0  0  0
   58.7332   22.9087   45.4803 H   0  0  0  0  0  0  0  0  0  0  0  0
   58.3012   22.1262   43.1541 H   0  0  0  0  0  0  0  0  0  0  0  0
   56.0230   22.3516   42.1591 H   0  0  0  0  0  0  0  0  0  0  0  0
   54.1807   23.3972   43.4775 H   0  0  0  0  0  0  0  0  0  0  0  0
   54.5720   24.9740   46.7150 H   0  0  0  0  0  0  0  0  0  0  0  0
   58.6066   29.5773   44.1337 H   0  0  0  0  0  0  0  0  0  0  0  0
   57.5204   28.3974   43.2873 H   0  0  0  0  0  0  0  0  0  0  0  0
   56.8518   33.7140   44.0138 H   0  0  0  0  0  0  0  0  0  0  0  0
   58.2876   35.3256   45.2591 H   0  0  0  0  0  0  0  0  0  0  0  0
   59.6881   34.8329   49.3855 H   0  0  0  0  0  0  0  0  0  0  0  0
   60.7134   33.5235   48.7066 H   0  0  0  0  0  0  0  0  0  0  0  0
   61.3057   35.2193   48.7066 H   0  0  0  0  0  0  0  0  0  0  0  0
   59.6066   32.1346   47.8724 H   0  0  0  0  0  0  0  0  0  0  0  0
   58.1603   30.5260   46.6340 H   0  0  0  0  0  0  0  0  0  0  0  0
  1  2  1  0
  2  3  1  0
  3  4  1  0
  4  5  1  0
  5  6  2  0
  5  7  1  0
  7  8  1  0
  8  9  1  0
  9 10  2  0
 10 11  1  0
 11 12  2  0
 12 13  1  0
 13 14  2  0
 14 15  1  0
  3 16  1  0
 16 17  1  0
 17 18  2  0
 17 19  1  0
 19 20  1  0
 20 21  2  0
 21 22  1  0
 22 23  2  0
 23 24  1  0
 24 25  1  0
 23 26  1  0
 26 27  2  0
 14  9  1  0
 27 20  1  0
  1 28  1  0
  1 29  1  0
  1 30  1  0
  2 31  1  0
  2 32  1  0
  4 33  1  0
  4 34  1  0
  8 35  1  0
  8 36  1  0
 10 37  1  0
 11 38  1  0
 12 39  1  0
 13 40  1  0
 15 41  1  0
 16 42  1  0
 16 43  1  0
 21 44  1  0
 22 45  1  0
 25 46  1  0
 25 47  1  0
 25 48  1  0
 26 49  1  0
 27 50  1  0
M  CHG  2   7  -1  19  -1
M  END
>  <UniqueID>  (75) 
72

>  <SMILES>  (75) 
CCN(CC(=O)[N-]Cc1ccccc1O)CC(=O)[N-]c1ccc(OC)cc1

>  <Energy>  (75) 
51.887273846898616

>  <Genealogy>  (75) 
CCN(CC(=O)[N-]Cc1ccccc1O)CC(=O)[N-]c1ccc(OC)cc1 (protonated)
CCN(CC(=O)[N-]Cc1ccccc1O)CC(=O)[N-]c1ccc(OC)cc1 (3D coordinates assigned)
CCN(CC(=O)[N-]Cc1ccccc1O)CC(=O)[N-]c1ccc(OC)cc1 (optimized conformer: 51.887273846898616 kcal/mol)

>  <smiles>  (75) 
CCN(CC(=O)NCc1ccccc1O)CC(=O)Nc1ccc(OC)cc1

>  <score_type>  (75) 
oracle

>  <origin>  (75) 
adg

>  <m_score__min__energy>  (75) 
-11.220000000000001

>  <m_primary>  (75) 
energy

$$$$
75:0
     RDKit          3D

 47 49  0  0  0  0  0  0  0  0999 V2000
   51.7590   32.7530   49.6650 H   0  0  0  0  0  0  0  0  0  0  0  0
   51.0230   32.3260   50.2690 N   0  0  0  0  0  0  0  0  0  0  0  0
   51.1550   32.3170   51.6880 C   0  0  0  0  0  0  0  0  0  0  0  0
   50.4580   33.0980   52.3890 O   0  0  0  0  0  0  0  0  0  0  0  0
   52.1030   31.3660   52.3450 C   0  0  0  0  0  0  0  0  0  0  0  0
   52.5158   31.8356   53.2501 H   0  0  0  0  0  0  0  0  0  0  0  0
   51.5572   30.4472   52.6058 H   0  0  0  0  0  0  0  0  0  0  0  0
   53.4720   30.9340   51.2170 S   0  0  0  0  0  0  0  0  0  0  0  0
   54.2660   29.7840   52.3530 C   0  0  0  0  0  0  0  0  0  0  0  0
   53.4760   28.8540   53.0410 C   0  0  0  0  0  0  0  0  0  0  0  0
   52.3857   28.8466   52.8957 H   0  0  0  0  0  0  0  0  0  0  0  0
   54.0690   27.9360   53.9110 C   0  0  0  0  0  0  0  0  0  0  0  0
   53.4438   27.2162   54.4597 H   0  0  0  0  0  0  0  0  0  0  0  0
   55.4550   27.9310   54.0850 C   0  0  0  0  0  0  0  0  0  0  0  0
   55.9206   27.2019   54.7645 H   0  0  0  0  0  0  0  0  0  0  0  0
   56.2510   28.8510   53.3970 C   0  0  0  0  0  0  0  0  0  0  0  0
   57.3432   28.8345   53.5263 H   0  0  0  0  0  0  0  0  0  0  0  0
   55.6610   29.7990   52.5390 C   0  0  0  0  0  0  0  0  0  0  0  0
   56.4520   30.7460   51.8060 N   0  0  0  0  0  0  0  0  0  0  0  0
   57.7260   30.5210   51.1860 C   0  0  0  0  0  0  0  0  0  0  0  0
   58.2290   29.3660   51.1640 O   0  0  0  0  0  0  0  0  0  0  0  0
   58.4370   31.6630   50.5620 C   0  0  0  0  0  0  0  0  0  0  0  0
   58.1090   32.1680   49.4030 N   0  0  0  0  0  0  0  0  0  0  0  0
   58.5210   31.7390   48.0940 C   0  0  0  0  0  0  0  0  0  0  0  0
   58.9560   30.5690   47.9250 O   0  0  0  0  0  0  0  0  0  0  0  0
   58.5200   32.7090   46.9660 C   0  0  0  0  0  0  0  0  0  0  0  0
   59.2420   33.9140   47.0840 C   0  0  0  0  0  0  0  0  0  0  0  0
   59.8004   34.1263   48.0076 H   0  0  0  0  0  0  0  0  0  0  0  0
   59.2550   34.8420   46.0380 C   0  0  0  0  0  0  0  0  0  0  0  0
   59.8225   35.7784   46.1428 H   0  0  0  0  0  0  0  0  0  0  0  0
   58.5510   34.5840   44.8630 C   0  0  0  0  0  0  0  0  0  0  0  0
   58.5638   35.3161   44.0421 H   0  0  0  0  0  0  0  0  0  0  0  0
   57.8300   33.3970   44.7280 C   0  0  0  0  0  0  0  0  0  0  0  0
   57.2752   33.1964   43.7996 H   0  0  0  0  0  0  0  0  0  0  0  0
   57.8090   32.4600   45.7680 C   0  0  0  0  0  0  0  0  0  0  0  0
   57.0780   31.2890   45.5910 O   0  0  0  0  0  0  0  0  0  0  0  0
   59.6050   32.2690   51.2850 C   0  0  0  0  0  0  0  0  0  0  0  0
   59.2807   33.1894   51.7926 H   0  0  0  0  0  0  0  0  0  0  0  0
   59.9844   31.5475   52.0235 H   0  0  0  0  0  0  0  0  0  0  0  0
   60.6970   32.5970   50.3160 C   0  0  0  0  0  0  0  0  0  0  0  0
   61.4270   31.6980   49.6980 O   0  0  0  0  0  0  0  0  0  0  0  0
   62.2700   32.3180   48.9050 C   0  0  0  0  0  0  0  0  0  0  0  0
   63.0120   31.8251   48.2596 H   0  0  0  0  0  0  0  0  0  0  0  0
   62.0840   33.6820   49.0040 C   0  0  0  0  0  0  0  0  0  0  0  0
   62.6361   34.4649   48.4633 H   0  0  0  0  0  0  0  0  0  0  0  0
   61.0680   33.8660   49.9160 C   0  0  0  0  0  0  0  0  0  0  0  0
   60.6420   34.8220   50.2544 H   0  0  0  0  0  0  0  0  0  0  0  0
  1  2  1  0
  2  3  1  0
  3  4  2  0
  3  5  1  0
  5  6  1  0
  5  7  1  0
  5  8  1  0
  8  9  1  0
  9 10  2  0
 10 11  1  0
 10 12  1  0
 12 13  1  0
 12 14  2  0
 14 15  1  0
 14 16  1  0
 16 17  1  0
 16 18  2  0
 18 19  1  0
 19 20  1  0
 20 21  2  0
 20 22  1  0
 22 23  2  0
 23 24  1  0
 24 25  2  0
 24 26  1  0
 26 27  2  0
 27 28  1  0
 27 29  1  0
 29 30  1  0
 29 31  2  0
 31 32  1  0
 31 33  1  0
 33 34  1  0
 33 35  2  0
 35 36  1  0
 22 37  1  0
 37 38  1  0
 37 39  1  0
 37 40  1  0
 40 41  1  0
 41 42  1  0
 42 43  1  0
 42 44  2  0
 44 45  1  0
 44 46  1  0
 46 47  1  0
 18  9  1  0
 35 26  1  0
 46 40  2  0
M  CHG  3   2  -1  19  -1  36  -1
M  END
>  <UniqueID>  (76) 
73

>  <SMILES>  (76) 
[NH-]C(=O)CSc1ccccc1[N-]C(=O)/C(Cc1ccco1)=N\C(=O)c1ccccc1[O-]

>  <Energy>  (76) 
78.77095846805588

>  <Genealogy>  (76) 
[NH-]C(=O)CSc1ccccc1[N-]C(=O)C(Cc1ccco1)=NC(=O)c1ccccc1[O-] (protonated)
[NH-]C(=O)CSc1ccccc1[N-]C(=O)/C(Cc1ccco1)=N\C(=O)c1ccccc1[O-] (cis-trans isomerization)
[NH-]C(=O)CSc1ccccc1[N-]C(=O)/C(Cc1ccco1)=N\C(=O)c1ccccc1[O-] (3D coordinates assigned)
[NH-]C(=O)CSc1ccccc1[N-]C(=O)/C(Cc1ccco1)=N\C(=O)c1ccccc1[O-] (optimized conformer: 78.77095846805588 kcal/mol)

>  <smiles>  (76) 
NC(=O)CSc1ccccc1NC(=O)C(Cc1ccco1)=NC(=O)c1ccccc1O

>  <score_type>  (76) 
oracle

>  <origin>  (76) 
adg

>  <m_score__min__energy>  (76) 
-15.390000000000001

>  <m_primary>  (76) 
energy

$$$$
76:0
     RDKit          3D

 43 45  0  0  0  0  0  0  0  0999 V2000
   55.5310   25.7820   47.1560 H   0  0  0  0  0  0  0  0  0  0  0  0
   56.3750   25.2100   47.1270 O   0  0  0  0  0  0  0  0  0  0  0  0
   57.3010   25.4000   46.1280 N   0  0  0  0  0  0  0  0  0  0  0  0
   58.0440   26.4630   46.0360 C   0  0  0  0  0  0  0  0  0  0  0  0
   59.4310   26.5220   46.5770 C   0  0  0  0  0  0  0  0  0  0  0  0
   60.3510   25.8350   46.0540 O   0  0  0  0  0  0  0  0  0  0  0  0
   59.7440   27.3190   47.7310 N   0  0  0  0  0  0  0  0  0  0  0  0
   59.9590   26.6640   49.0200 C   0  0  0  0  0  0  0  0  0  0  0  0
   59.0057   26.6111   49.5663 H   0  0  0  0  0  0  0  0  0  0  0  0
   60.3462   25.6483   48.8514 H   0  0  0  0  0  0  0  0  0  0  0  0
   60.9750   27.4630   49.8450 C   0  0  0  0  0  0  0  0  0  0  0  0
   61.0094   27.0548   50.8659 H   0  0  0  0  0  0  0  0  0  0  0  0
   61.9600   27.3800   49.3623 H   0  0  0  0  0  0  0  0  0  0  0  0
   60.6170   28.8340   49.9060 O   0  0  0  0  0  0  0  0  0  0  0  0
   60.6750   29.4040   48.6100 C   0  0  0  0  0  0  0  0  0  0  0  0
   60.4981   30.4872   48.6826 H   0  0  0  0  0  0  0  0  0  0  0  0
   61.6688   29.2104   48.1800 H   0  0  0  0  0  0  0  0  0  0  0  0
   59.6130   28.7800   47.7030 C   0  0  0  0  0  0  0  0  0  0  0  0
   58.6124   29.0654   48.0597 H   0  0  0  0  0  0  0  0  0  0  0  0
   59.7517   29.1412   46.6733 H   0  0  0  0  0  0  0  0  0  0  0  0
   57.4380   27.6680   45.4450 C   0  0  0  0  0  0  0  0  0  0  0  0
   56.0520   27.8390   45.4530 C   0  0  0  0  0  0  0  0  0  0  0  0
   55.2180   26.8540   45.9730 O   0  0  0  0  0  0  0  0  0  0  0  0
   55.5120   28.9750   44.9520 N   0  0  0  0  0  0  0  0  0  0  0  0
   56.2890   29.9690   44.4490 C   0  0  0  0  0  0  0  0  0  0  0  0
   55.7310   31.0120   44.0140 O   0  0  0  0  0  0  0  0  0  0  0  0
   57.6570   29.8390   44.4230 N   0  0  0  0  0  0  0  0  0  0  0  0
   58.5020   30.9670   43.9810 C   0  0  0  0  0  0  0  0  0  0  0  0
   59.5441   30.6272   43.8884 H   0  0  0  0  0  0  0  0  0  0  0  0
   58.1402   31.3296   43.0076 H   0  0  0  0  0  0  0  0  0  0  0  0
   58.4300   32.0900   44.9860 C   0  0  0  0  0  0  0  0  0  0  0  0
   58.4900   33.4290   44.5590 C   0  0  0  0  0  0  0  0  0  0  0  0
   58.5425   33.6608   43.4850 H   0  0  0  0  0  0  0  0  0  0  0  0
   58.4830   34.4660   45.4970 C   0  0  0  0  0  0  0  0  0  0  0  0
   58.5343   35.5117   45.1594 H   0  0  0  0  0  0  0  0  0  0  0  0
   58.4110   34.1770   46.8620 C   0  0  0  0  0  0  0  0  0  0  0  0
   58.4032   34.9950   47.5974 H   0  0  0  0  0  0  0  0  0  0  0  0
   58.3490   32.8510   47.2930 C   0  0  0  0  0  0  0  0  0  0  0  0
   58.2858   32.6259   48.3679 H   0  0  0  0  0  0  0  0  0  0  0  0
   58.3670   31.8080   46.3620 C   0  0  0  0  0  0  0  0  0  0  0  0
   58.3318   30.7641   46.7070 H   0  0  0  0  0  0  0  0  0  0  0  0
   58.2350   28.6840   44.8950 C   0  0  0  0  0  0  0  0  0  0  0  0
   59.4890   28.5340   44.8550 O   0  0  0  0  0  0  0  0  0  0  0  0
  1  2  1  0
  2  3  1  0
  3  4  2  0
  4  5  1  0
  5  6  2  0
  5  7  1  0
  7  8  1  0
  8  9  1  0
  8 10  1  0
  8 11  1  0
 11 12  1  0
 11 13  1  0
 11 14  1  0
 14 15  1  0
 15 16  1  0
 15 17  1  0
 15 18  1  0
 18 19  1  0
 18 20  1  0
  4 21  1  0
 21 22  2  0
 22 23  1  0
 22 24  1  0
 24 25  1  0
 25 26  2  0
 25 27  1  0
 27 28  1  0
 28 29  1  0
 28 30  1  0
 28 31  1  0
 31 32  2  0
 32 33  1  0
 32 34  1  0
 34 35  1  0
 34 36  2  0
 36 37  1  0
 36 38  1  0
 38 39  1  0
 38 40  2  0
 40 41  1  0
 27 42  1  0
 42 43  2  0
 18  7  1  0
 42 21  1  0
 40 31  1  0
M  CHG  2  23  -1  24  -1
M  END
>  <UniqueID>  (77) 
74

>  <SMILES>  (77) 
O=C(/C(=N\O)c1c([O-])[n-]c(=O)n(Cc2ccccc2)c1=O)N1CCOCC1

>  <Energy>  (77) 
61.684327567751964

>  <Genealogy>  (77) 
O=C(C(=NO)c1c([O-])[n-]c(=O)n(Cc2ccccc2)c1=O)N1CCOCC1 (protonated)
O=C(/C(=N\O)c1c([O-])[n-]c(=O)n(Cc2ccccc2)c1=O)N1CCOCC1 (cis-trans isomerization)
O=C(/C(=N\O)c1c([O-])[n-]c(=O)n(Cc2ccccc2)c1=O)N1CCOCC1 (3D coordinates assigned)
O=C(/C(=N\O)c1c([O-])[n-]c(=O)n(Cc2ccccc2)c1=O)N1CCOCC1 (nonaromatic ring conformer: 61.684327567751964 kcal/mol)

>  <smiles>  (77) 
O=C(C(=NO)c1c(O)[nH]c(=O)n(Cc2ccccc2)c1=O)N1CCOCC1

>  <score_type>  (77) 
oracle

>  <origin>  (77) 
adg

>  <m_score__min__energy>  (77) 
-13.67

>  <m_primary>  (77) 
energy

$$$$
77:0
     RDKit          3D

 51 54  0  0  0  0  0  0  0  0999 V2000
   60.7323   27.1838   49.1176 H   0  0  0  0  0  0  0  0  0  0  0  0
   60.3260   28.1690   48.8450 C   0  0  0  0  0  0  0  0  0  0  0  0
   60.3040   28.5690   47.5070 C   0  0  0  0  0  0  0  0  0  0  0  0
   60.6880   27.8965   46.7258 H   0  0  0  0  0  0  0  0  0  0  0  0
   59.7940   29.8240   47.1600 C   0  0  0  0  0  0  0  0  0  0  0  0
   59.7630   30.1291   46.1036 H   0  0  0  0  0  0  0  0  0  0  0  0
   59.3200   30.6990   48.1560 C   0  0  0  0  0  0  0  0  0  0  0  0
   58.7940   31.9950   47.8240 N   0  0  0  0  0  0  0  0  0  0  0  0
   58.4110   32.5850   48.5970 H   0  0  0  0  0  0  0  0  0  0  0  0
   58.6990   32.5020   46.4820 C   0  0  0  0  0  0  0  0  0  0  0  0
   57.9450   31.7890   45.5380 C   0  0  0  0  0  0  0  0  0  0  0  0
   57.4448   30.8555   45.8352 H   0  0  0  0  0  0  0  0  0  0  0  0
   57.8210   32.2530   44.2170 C   0  0  0  0  0  0  0  0  0  0  0  0
   57.0320   31.4930   43.2150 C   0  0  0  0  0  0  0  0  0  0  0  0
   57.0280   31.8670   42.0130 O   0  0  0  0  0  0  0  0  0  0  0  0
   56.3300   30.2880   43.5620 N   0  0  0  0  0  0  0  0  0  0  0  0
   56.8280   29.2190   44.1220 C   0  0  0  0  0  0  0  0  0  0  0  0
   57.6670   28.3230   43.4240 C   0  0  0  0  0  0  0  0  0  0  0  0
   57.9246   28.5114   42.3713 H   0  0  0  0  0  0  0  0  0  0  0  0
   58.1670   27.1970   44.0790 C   0  0  0  0  0  0  0  0  0  0  0  0
   58.8139   26.4887   43.5407 H   0  0  0  0  0  0  0  0  0  0  0  0
   57.8460   26.9710   45.4150 C   0  0  0  0  0  0  0  0  0  0  0  0
   58.2321   26.0825   45.9360 H   0  0  0  0  0  0  0  0  0  0  0  0
   57.0310   27.8810   46.0860 C   0  0  0  0  0  0  0  0  0  0  0  0
   56.7779   27.7145   47.1435 H   0  0  0  0  0  0  0  0  0  0  0  0
   56.5470   28.9760   45.4360 N   0  0  0  0  0  0  0  0  0  0  0  0
   55.9370   29.6390   45.9670 H   0  0  0  0  0  0  0  0  0  0  0  0
   58.4660   33.4450   43.8500 C   0  0  0  0  0  0  0  0  0  0  0  0
   58.3949   33.8078   42.8140 H   0  0  0  0  0  0  0  0  0  0  0  0
   59.1970   34.1730   44.7910 C   0  0  0  0  0  0  0  0  0  0  0  0
   59.6824   35.1148   44.4954 H   0  0  0  0  0  0  0  0  0  0  0  0
   59.3170   33.7120   46.1110 C   0  0  0  0  0  0  0  0  0  0  0  0
   59.9870   34.4710   47.0820 O   0  0  0  0  0  0  0  0  0  0  0  0
   61.2150   34.1330   47.6710 C   0  0  0  0  0  0  0  0  0  0  0  0
   61.3320   34.2080   49.0630 C   0  0  0  0  0  0  0  0  0  0  0  0
   60.4756   34.5460   49.6650 H   0  0  0  0  0  0  0  0  0  0  0  0
   62.5280   33.8570   49.6950 C   0  0  0  0  0  0  0  0  0  0  0  0
   62.6077   33.9178   50.7904 H   0  0  0  0  0  0  0  0  0  0  0  0
   63.6280   33.4270   48.9360 C   0  0  0  0  0  0  0  0  0  0  0  0
   64.8980   33.0100   49.6150 C   0  0  0  0  0  0  0  0  0  0  0  0
   64.7624   33.0545   50.7057 H   0  0  0  0  0  0  0  0  0  0  0  0
   65.1515   31.9814   49.3187 H   0  0  0  0  0  0  0  0  0  0  0  0
   65.7119   33.6881   49.3187 H   0  0  0  0  0  0  0  0  0  0  0  0
   63.5020   33.3190   47.5430 C   0  0  0  0  0  0  0  0  0  0  0  0
   64.3496   32.9554   46.9435 H   0  0  0  0  0  0  0  0  0  0  0  0
   62.3050   33.6710   46.9130 C   0  0  0  0  0  0  0  0  0  0  0  0
   62.2156   33.5862   45.8199 H   0  0  0  0  0  0  0  0  0  0  0  0
   59.3260   30.2770   49.4940 C   0  0  0  0  0  0  0  0  0  0  0  0
   58.9299   30.9396   50.2776 H   0  0  0  0  0  0  0  0  0  0  0  0
   59.8320   29.0200   49.8380 C   0  0  0  0  0  0  0  0  0  0  0  0
   59.8414   28.7004   50.8905 H   0  0  0  0  0  0  0  0  0  0  0  0
  1  2  1  0
  2  3  2  0
  3  4  1  0
  3  5  1  0
  5  6  1  0
  5  7  2  0
  7  8  1  0
  8  9  1  0
  8 10  1  0
 10 11  2  0
 11 12  1  0
 11 13  1  0
 13 14  1  0
 14 15  2  0
 14 16  1  0
 16 17  2  0
 17 18  1  0
 18 19  1  0
 18 20  2  0
 20 21  1  0
 20 22  1  0
 22 23  1  0
 22 24  2  0
 24 25  1  0
 24 26  1  0
 26 27  1  0
 13 28  2  0
 28 29  1  0
 28 30  1  0
 30 31  1  0
 30 32  2  0
 32 33  1  0
 33 34  1  0
 34 35  2  0
 35 36  1  0
 35 37  1  0
 37 38  1  0
 37 39  2  0
 39 40  1  0
 40 41  1  0
 40 42  1  0
 40 43  1  0
 39 44  1  0
 44 45  1  0
 44 46  2  0
 46 47  1  0
  7 48  1  0
 48 49  1  0
 48 50  2  0
 50 51  1  0
 50  2  1  0
 32 10  1  0
 46 34  1  0
 26 17  1  0
M  END
>  <UniqueID>  (78) 
75

>  <SMILES>  (78) 
Cc1ccc(Oc2ccc(C(=O)/N=c3\cccc[nH]3)cc2Nc2ccccc2)cc1

>  <Energy>  (78) 
77.10528051228762

>  <Genealogy>  (78) 
Cc1ccc(Oc2ccc(C(=O)/N=c3\cccc[nH]3)cc2Nc2ccccc2)cc1 (cis-trans isomerization)
Cc1ccc(Oc2ccc(C(=O)/N=c3\cccc[nH]3)cc2Nc2ccccc2)cc1 (3D coordinates assigned)
Cc1ccc(Oc2ccc(C(=O)/N=c3\cccc[nH]3)cc2Nc2ccccc2)cc1 (optimized conformer: 77.10528051228762 kcal/mol)

>  <smiles>  (78) 
Cc1ccc(Oc2ccc(C(=O)N=c3cccc[nH]3)cc2Nc2ccccc2)cc1

>  <score_type>  (78) 
oracle

>  <origin>  (78) 
adg

>  <m_score__min__energy>  (78) 
-9.1999999999999993

>  <m_primary>  (78) 
energy

$$$$
78:0
     RDKit          3D

 61 65  0  0  0  0  0  0  0  0999 V2000
   57.6070   24.3230   47.5110 O   0  0  0  0  0  0  0  0  0  0  0  0
   56.3880   24.4200   47.2080 C   0  0  0  0  0  0  0  0  0  0  0  0
   55.4460   23.3420   47.6550 C   0  0  0  0  0  0  0  0  0  0  0  0
   54.9080   22.6150   46.5490 O   0  0  0  0  0  0  0  0  0  0  0  0
   55.5100   22.4910   45.2850 C   0  0  0  0  0  0  0  0  0  0  0  0
   56.4850   21.5120   44.9980 C   0  0  0  0  0  0  0  0  0  0  0  0
   57.0500   21.4370   43.7210 C   0  0  0  0  0  0  0  0  0  0  0  0
   56.6440   22.3230   42.7200 C   0  0  0  0  0  0  0  0  0  0  0  0
   55.6740   23.2900   42.9960 C   0  0  0  0  0  0  0  0  0  0  0  0
   55.1120   23.3740   44.2730 C   0  0  0  0  0  0  0  0  0  0  0  0
   55.8930   25.5770   46.5180 N   0  0  0  0  0  0  0  0  0  0  0  0
   56.6350   26.4370   45.6380 C   0  0  0  0  0  0  0  0  0  0  0  0
   57.3950   25.8540   44.6150 C   0  0  0  0  0  0  0  0  0  0  0  0
   58.1270   26.6530   43.7320 C   0  0  0  0  0  0  0  0  0  0  0  0
   58.1070   28.0440   43.8670 C   0  0  0  0  0  0  0  0  0  0  0  0
   57.3710   28.6430   44.8990 C   0  0  0  0  0  0  0  0  0  0  0  0
   57.3780   30.1070   45.0770 C   0  0  0  0  0  0  0  0  0  0  0  0
   56.3340   30.7590   44.8000 O   0  0  0  0  0  0  0  0  0  0  0  0
   58.5550   30.8060   45.5220 N   0  0  0  0  0  0  0  0  0  0  0  0
   58.5780   32.2140   45.9290 C   0  0  0  0  0  0  0  0  0  0  0  0
   59.9080   32.3570   46.5710 C   0  0  0  0  0  0  0  0  0  0  0  0
   60.4580   33.4930   47.1620 C   0  0  0  0  0  0  0  0  0  0  0  0
   61.7380   33.4050   47.7310 C   0  0  0  0  0  0  0  0  0  0  0  0
   62.4500   32.1800   47.7110 C   0  0  0  0  0  0  0  0  0  0  0  0
   63.7600   32.0730   48.2890 N   0  0  0  0  0  0  0  0  0  0  0  0
   63.9940   31.7740   49.6750 C   0  0  0  0  0  0  0  0  0  0  0  0
   63.1180   31.1440   50.3320 O   0  0  0  0  0  0  0  0  0  0  0  0
   65.2880   32.1130   50.3190 C   0  0  0  0  0  0  0  0  0  0  0  0
   65.8330   33.4020   50.1550 C   0  0  0  0  0  0  0  0  0  0  0  0
   67.0480   33.7400   50.7560 C   0  0  0  0  0  0  0  0  0  0  0  0
   67.7330   32.8020   51.5290 C   0  0  0  0  0  0  0  0  0  0  0  0
   67.2100   31.5180   51.6950 C   0  0  0  0  0  0  0  0  0  0  0  0
   65.9960   31.1680   51.0930 C   0  0  0  0  0  0  0  0  0  0  0  0
   65.5490   29.8930   51.2310 F   0  0  0  0  0  0  0  0  0  0  0  0
   61.8750   31.0570   47.0840 C   0  0  0  0  0  0  0  0  0  0  0  0
   60.6020   31.1720   46.5280 C   0  0  0  0  0  0  0  0  0  0  0  0
   59.8010   30.1150   45.8640 C   0  0  0  0  0  0  0  0  0  0  0  0
   56.6600   27.8340   45.8000 C   0  0  0  0  0  0  0  0  0  0  0  0
   55.9885   22.6441   48.3097 H   0  0  0  0  0  0  0  0  0  0  0  0
   54.6109   23.8180   48.1898 H   0  0  0  0  0  0  0  0  0  0  0  0
   56.8012   20.8064   45.7804 H   0  0  0  0  0  0  0  0  0  0  0  0
   57.8163   20.6782   43.5040 H   0  0  0  0  0  0  0  0  0  0  0  0
   57.0876   22.2593   41.7154 H   0  0  0  0  0  0  0  0  0  0  0  0
   55.3522   23.9860   42.2073 H   0  0  0  0  0  0  0  0  0  0  0  0
   54.3511   24.1396   44.4850 H   0  0  0  0  0  0  0  0  0  0  0  0
   57.4156   24.7596   44.5061 H   0  0  0  0  0  0  0  0  0  0  0  0
   58.7190   26.1869   42.9306 H   0  0  0  0  0  0  0  0  0  0  0  0
   58.6709   28.6712   43.1608 H   0  0  0  0  0  0  0  0  0  0  0  0
   58.4868   32.8786   45.0572 H   0  0  0  0  0  0  0  0  0  0  0  0
   57.7452   32.4854   46.5945 H   0  0  0  0  0  0  0  0  0  0  0  0
   59.8996   34.4405   47.1821 H   0  0  0  0  0  0  0  0  0  0  0  0
   62.1915   34.2929   48.1956 H   0  0  0  0  0  0  0  0  0  0  0  0
   64.5840   32.0950   47.6460 H   0  0  0  0  0  0  0  0  0  0  0  0
   65.2977   34.1479   49.5491 H   0  0  0  0  0  0  0  0  0  0  0  0
   67.4657   34.7484   50.6194 H   0  0  0  0  0  0  0  0  0  0  0  0
   68.6853   33.0740   52.0078 H   0  0  0  0  0  0  0  0  0  0  0  0
   67.7542   30.7788   52.3012 H   0  0  0  0  0  0  0  0  0  0  0  0
   62.4222   30.1041   47.0340 H   0  0  0  0  0  0  0  0  0  0  0  0
   60.3077   29.7447   44.9606 H   0  0  0  0  0  0  0  0  0  0  0  0
   59.6440   29.2298   46.4979 H   0  0  0  0  0  0  0  0  0  0  0  0
   56.1186   28.2962   46.6386 H   0  0  0  0  0  0  0  0  0  0  0  0
  1  2  2  0
  2  3  1  0
  3  4  1  0
  4  5  1  0
  5  6  2  0
  6  7  1  0
  7  8  2  0
  8  9  1  0
  9 10  2  0
  2 11  1  0
 11 12  1  0
 12 13  2  0
 13 14  1  0
 14 15  2  0
 15 16  1  0
 16 17  1  0
 17 18  2  0
 17 19  1  0
 19 20  1  0
 20 21  1  0
 21 22  2  0
 22 23  1  0
 23 24  2  0
 24 25  1  0
 25 26  1  0
 26 27  2  0
 26 28  1  0
 28 29  2  0
 29 30  1  0
 30 31  2  0
 31 32  1  0
 32 33  2  0
 33 34  1  0
 24 35  1  0
 35 36  2  0
 36 37  1  0
 16 38  2  0
 10  5  1  0
 38 12  1  0
 37 19  1  0
 36 21  1  0
 33 28  1  0
  3 39  1  0
  3 40  1  0
  6 41  1  0
  7 42  1  0
  8 43  1  0
  9 44  1  0
 10 45  1  0
 13 46  1  0
 14 47  1  0
 15 48  1  0
 20 49  1  0
 20 50  1  0
 22 51  1  0
 23 52  1  0
 25 53  1  0
 29 54  1  0
 30 55  1  0
 31 56  1  0
 32 57  1  0
 35 58  1  0
 37 59  1  0
 37 60  1  0
 38 61  1  0
M  CHG  1  11  -1
M  END
>  <UniqueID>  (79) 
76

>  <SMILES>  (79) 
O=C(COc1ccccc1)[N-]c1cccc(C(=O)N2Cc3ccc(NC(=O)c4ccccc4F)cc3C2)c1

>  <Energy>  (79) 
92.43998193669415

>  <Genealogy>  (79) 
O=C(COc1ccccc1)[N-]c1cccc(C(=O)N2Cc3ccc(NC(=O)c4ccccc4F)cc3C2)c1 (protonated)
O=C(COc1ccccc1)[N-]c1cccc(C(=O)N2Cc3ccc(NC(=O)c4ccccc4F)cc3C2)c1 (3D coordinates assigned)
O=C(COc1ccccc1)[N-]c1cccc(C(=O)N2Cc3ccc(NC(=O)c4ccccc4F)cc3C2)c1 (nonaromatic ring conformer: 92.43998193669415 kcal/mol)

>  <smiles>  (79) 
O=C(COc1ccccc1)Nc1cccc(C(=O)N2Cc3ccc(NC(=O)c4ccccc4F)cc3C2)c1

>  <score_type>  (79) 
oracle

>  <origin>  (79) 
adg

>  <m_score__min__energy>  (79) 
-11.73

>  <m_primary>  (79) 
energy

$$$$
79:0
     RDKit          3D

 36 38  0  0  0  0  0  0  0  0999 V2000
   57.0960   20.8850   47.3790 O   0  0  0  0  0  0  0  0  0  0  0  0
   56.7350   22.0630   47.1190 C   0  0  0  0  0  0  0  0  0  0  0  0
   57.6610   23.0700   47.1290 N   0  0  0  0  0  0  0  0  0  0  0  0
   57.2530   24.3300   46.8470 C   0  0  0  0  0  0  0  0  0  0  0  0
   58.0400   25.4230   46.8170 N   0  0  0  0  0  0  0  0  0  0  0  0
   57.1930   26.4320   46.4880 C   0  0  0  0  0  0  0  0  0  0  0  0
   57.6260   27.8600   46.3490 C   0  0  0  0  0  0  0  0  0  0  0  0
   56.9340   28.5260   45.1860 C   0  0  0  0  0  0  0  0  0  0  0  0
   56.6390   29.7840   45.1490 N   0  0  0  0  0  0  0  0  0  0  0  0
   56.5870   30.5880   43.9440 C   0  0  0  0  0  0  0  0  0  0  0  0
   57.9460   31.2400   43.6880 C   0  0  0  0  0  0  0  0  0  0  0  0
   58.2740   32.2620   44.7470 C   0  0  0  0  0  0  0  0  0  0  0  0
   58.7510   31.8500   46.0020 C   0  0  0  0  0  0  0  0  0  0  0  0
   59.0850   32.7980   46.9750 C   0  0  0  0  0  0  0  0  0  0  0  0
   58.9540   34.1620   46.6980 C   0  0  0  0  0  0  0  0  0  0  0  0
   58.4910   34.5790   45.4470 C   0  0  0  0  0  0  0  0  0  0  0  0
   58.1550   33.6350   44.4710 C   0  0  0  0  0  0  0  0  0  0  0  0
   55.8950   25.9610   46.3260 C   0  0  0  0  0  0  0  0  0  0  0  0
   54.7690   26.7070   45.9950 O   0  0  0  0  0  0  0  0  0  0  0  0
   55.9520   24.6140   46.5550 C   0  0  0  0  0  0  0  0  0  0  0  0
   55.0030   23.5990   46.5420 C   0  0  0  0  0  0  0  0  0  0  0  0
   53.7960   23.8380   46.2760 O   0  0  0  0  0  0  0  0  0  0  0  0
   55.4180   22.3290   46.8280 N   0  0  0  0  0  0  0  0  0  0  0  0
   57.3778   28.4023   47.2733 H   0  0  0  0  0  0  0  0  0  0  0  0
   58.7109   27.8804   46.1685 H   0  0  0  0  0  0  0  0  0  0  0  0
   56.6647   27.9051   44.3189 H   0  0  0  0  0  0  0  0  0  0  0  0
   56.3246   29.9466   43.0898 H   0  0  0  0  0  0  0  0  0  0  0  0
   55.8282   31.3746   44.0686 H   0  0  0  0  0  0  0  0  0  0  0  0
   58.7227   30.4610   43.6896 H   0  0  0  0  0  0  0  0  0  0  0  0
   57.9072   31.7505   42.7144 H   0  0  0  0  0  0  0  0  0  0  0  0
   58.8624   30.7777   46.2207 H   0  0  0  0  0  0  0  0  0  0  0  0
   59.4511   32.4698   47.9590 H   0  0  0  0  0  0  0  0  0  0  0  0
   59.2152   34.9067   47.4643 H   0  0  0  0  0  0  0  0  0  0  0  0
   58.3905   35.6525   45.2293 H   0  0  0  0  0  0  0  0  0  0  0  0
   57.7970   33.9678   43.4856 H   0  0  0  0  0  0  0  0  0  0  0  0
   54.7240   21.5470   46.8240 H   0  0  0  0  0  0  0  0  0  0  0  0
  1  2  2  0
  2  3  1  0
  3  4  1  0
  4  5  1  0
  5  6  1  0
  6  7  1  0
  7  8  1  0
  8  9  2  3
  9 10  1  0
 10 11  1  0
 11 12  1  0
 12 13  2  0
 13 14  1  0
 14 15  2  0
 15 16  1  0
 16 17  2  0
  6 18  2  0
 18 19  1  0
 18 20  1  0
 20 21  1  0
 21 22  2  0
 21 23  1  0
 23  2  1  0
 20  4  2  0
 17 12  1  0
  7 24  1  0
  7 25  1  0
  8 26  1  0
 10 27  1  0
 10 28  1  0
 11 29  1  0
 11 30  1  0
 13 31  1  0
 14 32  1  0
 15 33  1  0
 16 34  1  0
 17 35  1  0
 23 36  1  0
M  CHG  3   3  -1   5  -1  19  -1
M  END
>  <UniqueID>  (80) 
77

>  <SMILES>  (80) 
O=c1[n-]c2[n-]c(CC=NCCc3ccccc3)c([O-])c2c(=O)[nH]1

>  <Energy>  (80) 
70.76028913140527

>  <Genealogy>  (80) 
O=c1[n-]c2[n-]c(CC=NCCc3ccccc3)c([O-])c2c(=O)[nH]1 (protonated)
O=c1[n-]c2[n-]c(CC=NCCc3ccccc3)c([O-])c2c(=O)[nH]1 (3D coordinates assigned)
O=c1[n-]c2[n-]c(CC=NCCc3ccccc3)c([O-])c2c(=O)[nH]1 (optimized conformer: 70.76028913140527 kcal/mol)

>  <smiles>  (80) 
O=c1[nH]c(=O)c2c(O)c(CC=NCCc3ccccc3)[nH]c2[nH]1

>  <score_type>  (80) 
oracle

>  <origin>  (80) 
adg

>  <m_score__min__energy>  (80) 
-14.49

>  <m_primary>  (80) 
energy

$$$$
80:0
     RDKit          3D

 44 47  0  0  0  0  0  0  0  0999 V2000
   55.1920   29.3330   44.7410 O   0  0  0  0  0  0  0  0  0  0  0  0
   56.2560   28.9010   45.2540 C   0  0  0  0  0  0  0  0  0  0  0  0
   57.3380   29.8220   45.4400 N   0  0  0  0  0  0  0  0  0  0  0  0
   57.3650   31.2100   44.9920 C   0  0  0  0  0  0  0  0  0  0  0  0
   58.3640   31.9640   45.8030 C   0  0  0  0  0  0  0  0  0  0  0  0
   59.6050   31.4780   46.0770 N   0  0  0  0  0  0  0  0  0  0  0  0
   60.1130   32.4210   46.8830 C   0  0  0  0  0  0  0  0  0  0  0  0
   61.3720   32.4450   47.4810 C   0  0  0  0  0  0  0  0  0  0  0  0
   61.6820   33.5410   48.3080 C   0  0  0  0  0  0  0  0  0  0  0  0
   60.7360   34.5700   48.5140 C   0  0  0  0  0  0  0  0  0  0  0  0
   59.4720   34.5100   47.8940 C   0  0  0  0  0  0  0  0  0  0  0  0
   59.2000   33.4120   47.0820 C   0  0  0  0  0  0  0  0  0  0  0  0
   58.0700   33.1430   46.4110 N   0  0  0  0  0  0  0  0  0  0  0  0
   56.3610   27.4700   45.6220 C   0  0  0  0  0  0  0  0  0  0  0  0
   55.3040   26.7140   45.9720 N   0  0  0  0  0  0  0  0  0  0  0  0
   55.8450   25.5120   46.2480 C   0  0  0  0  0  0  0  0  0  0  0  0
   55.1570   24.5240   46.6120 O   0  0  0  0  0  0  0  0  0  0  0  0
   57.1800   25.4510   46.0940 N   0  0  0  0  0  0  0  0  0  0  0  0
   57.5120   26.6960   45.7020 C   0  0  0  0  0  0  0  0  0  0  0  0
   58.9160   27.0930   45.3460 C   0  0  0  0  0  0  0  0  0  0  0  0
   59.8370   27.0190   46.5360 C   0  0  0  0  0  0  0  0  0  0  0  0
   60.6750   26.0790   46.5790 O   0  0  0  0  0  0  0  0  0  0  0  0
   59.7850   27.9740   47.6220 N   0  0  0  0  0  0  0  0  0  0  0  0
   58.5540   28.7350   47.8820 C   0  0  0  0  0  0  0  0  0  0  0  0
   58.8150   29.9070   48.8300 C   0  0  0  0  0  0  0  0  0  0  0  0
   59.5180   29.4790   49.9790 O   0  0  0  0  0  0  0  0  0  0  0  0
   60.8170   29.0780   49.6000 C   0  0  0  0  0  0  0  0  0  0  0  0
   60.7690   27.8320   48.7070 C   0  0  0  0  0  0  0  0  0  0  0  0
   57.6478   31.2490   43.9297 H   0  0  0  0  0  0  0  0  0  0  0  0
   56.3692   31.6600   45.1179 H   0  0  0  0  0  0  0  0  0  0  0  0
   62.0978   31.6358   47.3125 H   0  0  0  0  0  0  0  0  0  0  0  0
   62.6660   33.5967   48.7965 H   0  0  0  0  0  0  0  0  0  0  0  0
   60.9875   35.4226   49.1619 H   0  0  0  0  0  0  0  0  0  0  0  0
   58.7256   35.3035   48.0463 H   0  0  0  0  0  0  0  0  0  0  0  0
   59.2899   26.4161   44.5637 H   0  0  0  0  0  0  0  0  0  0  0  0
   58.8976   28.1343   44.9920 H   0  0  0  0  0  0  0  0  0  0  0  0
   58.1654   29.1243   46.9294 H   0  0  0  0  0  0  0  0  0  0  0  0
   57.8231   28.0623   48.3545 H   0  0  0  0  0  0  0  0  0  0  0  0
   59.4112   30.6684   48.3058 H   0  0  0  0  0  0  0  0  0  0  0  0
   57.8481   30.3262   49.1453 H   0  0  0  0  0  0  0  0  0  0  0  0
   61.2998   29.8978   49.0479 H   0  0  0  0  0  0  0  0  0  0  0  0
   61.3882   28.8363   50.5085 H   0  0  0  0  0  0  0  0  0  0  0  0
   61.7640   27.6714   48.2664 H   0  0  0  0  0  0  0  0  0  0  0  0
   60.4694   26.9765   49.3301 H   0  0  0  0  0  0  0  0  0  0  0  0
  1  2  2  0
  2  3  1  0
  3  4  1  0
  4  5  1  0
  5  6  2  0
  6  7  1  0
  7  8  2  0
  8  9  1  0
  9 10  2  0
 10 11  1  0
 11 12  2  0
 12 13  1  0
  2 14  1  0
 14 15  1  0
 15 16  1  0
 16 17  2  0
 16 18  1  0
 18 19  1  0
 19 20  1  0
 20 21  1  0
 21 22  2  0
 21 23  1  0
 23 24  1  0
 24 25  1  0
 25 26  1  0
 26 27  1  0
 27 28  1  0
 13  5  1  0
 19 14  2  0
 28 23  1  0
 12  7  1  0
  4 29  1  0
  4 30  1  0
  8 31  1  0
  9 32  1  0
 10 33  1  0
 11 34  1  0
 20 35  1  0
 20 36  1  0
 24 37  1  0
 24 38  1  0
 25 39  1  0
 25 40  1  0
 27 41  1  0
 27 42  1  0
 28 43  1  0
 28 44  1  0
M  CHG  4   3  -1  13  -1  15  -1  18  -1
M  END
>  <UniqueID>  (81) 
78

>  <SMILES>  (81) 
O=C([N-]Cc1nc2ccccc2[n-]1)c1[n-]c(=O)[n-]c1CC(=O)N1CCOCC1

>  <Energy>  (81) 
111.91148771303078

>  <Genealogy>  (81) 
O=C([N-]Cc1nc2ccccc2[n-]1)c1[n-]c(=O)[n-]c1CC(=O)N1CCOCC1 (protonated)
O=C([N-]Cc1nc2ccccc2[n-]1)c1[n-]c(=O)[n-]c1CC(=O)N1CCOCC1 (3D coordinates assigned)
O=C([N-]Cc1nc2ccccc2[n-]1)c1[n-]c(=O)[n-]c1CC(=O)N1CCOCC1 (nonaromatic ring conformer: 111.91148771303078 kcal/mol)

>  <smiles>  (81) 
O=C(NCc1nc2ccccc2[nH]1)c1[nH]c(=O)[nH]c1CC(=O)N1CCOCC1

>  <score_type>  (81) 
oracle

>  <origin>  (81) 
adg

>  <m_score__min__energy>  (81) 
-14.57

>  <m_primary>  (81) 
energy

$$$$
81:0
     RDKit          3D

 30 32  0  0  0  0  0  0  0  0999 V2000
   58.8210   34.7150   45.0520 C   0  0  0  0  0  0  0  0  0  0  0  0
   58.4950   33.2640   45.2410 C   0  0  0  0  0  0  0  0  0  0  0  0
   59.3000   32.4520   46.0510 C   0  0  0  0  0  0  0  0  0  0  0  0
   58.9650   31.1120   46.2490 C   0  0  0  0  0  0  0  0  0  0  0  0
   57.8140   30.5970   45.6420 C   0  0  0  0  0  0  0  0  0  0  0  0
   57.4460   29.2210   45.8310 C   0  0  0  0  0  0  0  0  0  0  0  0
   57.1370   28.0660   45.9880 C   0  0  0  0  0  0  0  0  0  0  0  0
   56.7700   26.6890   46.1740 C   0  0  0  0  0  0  0  0  0  0  0  0
   57.6710   25.7910   46.7590 C   0  0  0  0  0  0  0  0  0  0  0  0
   57.2980   24.4560   46.9330 C   0  0  0  0  0  0  0  0  0  0  0  0
   56.0280   24.0330   46.5210 C   0  0  0  0  0  0  0  0  0  0  0  0
   55.6060   22.7070   46.6730 C   0  0  0  0  0  0  0  0  0  0  0  0
   54.3290   22.3340   46.2450 C   0  0  0  0  0  0  0  0  0  0  0  0
   53.4880   23.2940   45.6700 C   0  0  0  0  0  0  0  0  0  0  0  0
   52.3350   22.9700   45.2810 O   0  0  0  0  0  0  0  0  0  0  0  0
   53.9130   24.5780   45.5290 N   0  0  0  0  0  0  0  0  0  0  0  0
   55.1500   24.9690   45.9360 C   0  0  0  0  0  0  0  0  0  0  0  0
   55.5400   26.2620   45.7790 N   0  0  0  0  0  0  0  0  0  0  0  0
   57.0330   31.4040   44.8740 N   0  0  0  0  0  0  0  0  0  0  0  0
   57.3410   32.7120   44.6660 C   0  0  0  0  0  0  0  0  0  0  0  0
   58.9294   35.1975   46.0346 H   0  0  0  0  0  0  0  0  0  0  0  0
   59.7627   34.8092   44.4914 H   0  0  0  0  0  0  0  0  0  0  0  0
   58.0101   35.2030   44.4914 H   0  0  0  0  0  0  0  0  0  0  0  0
   60.1966   32.8712   46.5311 H   0  0  0  0  0  0  0  0  0  0  0  0
   59.5989   30.4673   46.8755 H   0  0  0  0  0  0  0  0  0  0  0  0
   58.6657   26.1343   47.0794 H   0  0  0  0  0  0  0  0  0  0  0  0
   57.9976   23.7413   47.3909 H   0  0  0  0  0  0  0  0  0  0  0  0
   56.2762   21.9623   47.1271 H   0  0  0  0  0  0  0  0  0  0  0  0
   53.9875   21.2946   46.3590 H   0  0  0  0  0  0  0  0  0  0  0  0
   56.6836   33.3386   44.0454 H   0  0  0  0  0  0  0  0  0  0  0  0
  1  2  1  0
  2  3  2  0
  3  4  1  0
  4  5  2  0
  5  6  1  0
  6  7  3  0
  7  8  1  0
  8  9  2  0
  9 10  1  0
 10 11  2  0
 11 12  1  0
 12 13  2  0
 13 14  1  0
 14 15  2  0
 14 16  1  0
 16 17  1  0
 17 18  2  0
  5 19  1  0
 19 20  2  0
 20  2  1  0
 18  8  1  0
 17 11  1  0
  1 21  1  0
  1 22  1  0
  1 23  1  0
  3 24  1  0
  4 25  1  0
  9 26  1  0
 10 27  1  0
 12 28  1  0
 13 29  1  0
 20 30  1  0
M  CHG  1  16  -1
M  END
>  <UniqueID>  (82) 
79

>  <SMILES>  (82) 
Cc1ccc(C#Cc2ccc3ccc(=O)[n-]c3n2)nc1

>  <Energy>  (82) 
32.570389434577805

>  <Genealogy>  (82) 
Cc1ccc(C#Cc2ccc3ccc(=O)[n-]c3n2)nc1 (protonated)
Cc1ccc(C#Cc2ccc3ccc(=O)[n-]c3n2)nc1 (3D coordinates assigned)
Cc1ccc(C#Cc2ccc3ccc(=O)[n-]c3n2)nc1 (optimized conformer: 32.570389434577805 kcal/mol)

>  <smiles>  (82) 
Cc1ccc(C#Cc2ccc3ccc(=O)[nH]c3n2)nc1

>  <score_type>  (82) 
oracle

>  <origin>  (82) 
adg

>  <m_score__min__energy>  (82) 
-8.7300000000000004

>  <m_primary>  (82) 
energy

$$$$
82:0
     RDKit          3D

 42 43  0  0  0  0  0  0  0  0999 V2000
   58.4390   29.3520   46.7790 N   0  0  0  0  0  0  0  0  0  0  0  0
   59.3860   28.8480   45.8300 C   0  0  0  0  0  0  0  0  0  0  0  0
   60.7550   29.2400   45.9350 N   0  0  0  0  0  0  0  0  0  0  0  0
   59.0350   28.0370   44.8730 N   0  0  0  0  0  0  0  0  0  0  0  0
   57.7950   28.0940   44.0990 C   0  0  0  0  0  0  0  0  0  0  0  0
   56.6430   28.5930   44.9340 C   0  0  0  0  0  0  0  0  0  0  0  0
   55.9860   27.7630   45.6140 O   0  0  0  0  0  0  0  0  0  0  0  0
   56.2410   29.9710   44.9530 N   0  0  0  0  0  0  0  0  0  0  0  0
   57.0380   31.0980   44.5660 C   0  0  0  0  0  0  0  0  0  0  0  0
   57.2490   31.3430   43.2060 C   0  0  0  0  0  0  0  0  0  0  0  0
   58.0210   32.4330   42.7990 C   0  0  0  0  0  0  0  0  0  0  0  0
   58.5670   33.3000   43.7470 C   0  0  0  0  0  0  0  0  0  0  0  0
   58.3250   33.0960   45.1170 C   0  0  0  0  0  0  0  0  0  0  0  0
   58.8850   34.0190   46.1330 C   0  0  0  0  0  0  0  0  0  0  0  0
   58.1330   34.4750   47.0340 O   0  0  0  0  0  0  0  0  0  0  0  0
   60.2760   34.3710   46.1560 N   0  0  0  0  0  0  0  0  0  0  0  0
   61.3390   33.5840   46.7130 C   0  0  0  0  0  0  0  0  0  0  0  0
   62.6880   33.8630   46.4340 C   0  0  0  0  0  0  0  0  0  0  0  0
   63.6990   33.0900   47.0110 C   0  0  0  0  0  0  0  0  0  0  0  0
   63.3750   32.0430   47.8780 C   0  0  0  0  0  0  0  0  0  0  0  0
   62.0330   31.7600   48.1710 C   0  0  0  0  0  0  0  0  0  0  0  0
   61.6850   30.6630   49.1400 C   0  0  0  0  0  0  0  0  0  0  0  0
   60.5120   30.0150   48.7300 O   0  0  0  0  0  0  0  0  0  0  0  0
   61.0200   32.5480   47.6010 C   0  0  0  0  0  0  0  0  0  0  0  0
   57.5590   31.9890   45.5190 C   0  0  0  0  0  0  0  0  0  0  0  0
   57.4230   29.1170   46.7390 H   0  0  0  0  0  0  0  0  0  0  0  0
   58.7570   29.9890   47.5430 H   0  0  0  0  0  0  0  0  0  0  0  0
   61.4630   28.8770   45.2590 H   0  0  0  0  0  0  0  0  0  0  0  0
   61.0650   29.8890   46.6910 H   0  0  0  0  0  0  0  0  0  0  0  0
   57.9377   28.7729   43.2453 H   0  0  0  0  0  0  0  0  0  0  0  0
   57.5562   27.0766   43.7556 H   0  0  0  0  0  0  0  0  0  0  0  0
   56.8052   30.6745   42.4536 H   0  0  0  0  0  0  0  0  0  0  0  0
   58.1995   32.6090   41.7279 H   0  0  0  0  0  0  0  0  0  0  0  0
   59.1893   34.1464   43.4209 H   0  0  0  0  0  0  0  0  0  0  0  0
   62.9486   34.6921   45.7596 H   0  0  0  0  0  0  0  0  0  0  0  0
   64.7530   33.3063   46.7821 H   0  0  0  0  0  0  0  0  0  0  0  0
   64.1747   31.4392   48.3318 H   0  0  0  0  0  0  0  0  0  0  0  0
   62.5090   29.9353   49.1775 H   0  0  0  0  0  0  0  0  0  0  0  0
   61.5266   31.0993   50.1373 H   0  0  0  0  0  0  0  0  0  0  0  0
   59.8110   30.2510   49.3930 H   0  0  0  0  0  0  0  0  0  0  0  0
   59.9678   32.3504   47.8536 H   0  0  0  0  0  0  0  0  0  0  0  0
   57.3657   31.8186   46.5884 H   0  0  0  0  0  0  0  0  0  0  0  0
  1  2  1  0
  2  3  1  0
  2  4  2  3
  4  5  1  0
  5  6  1  0
  6  7  2  0
  6  8  1  0
  8  9  1  0
  9 10  2  0
 10 11  1  0
 11 12  2  0
 12 13  1  0
 13 14  1  0
 14 15  2  0
 14 16  1  0
 16 17  1  0
 17 18  2  0
 18 19  1  0
 19 20  2  0
 20 21  1  0
 21 22  1  0
 22 23  1  0
 21 24  2  0
 13 25  2  0
 25  9  1  0
 24 17  1  0
  1 26  1  0
  1 27  1  0
  3 28  1  0
  3 29  1  0
  5 30  1  0
  5 31  1  0
 10 32  1  0
 11 33  1  0
 12 34  1  0
 18 35  1  0
 19 36  1  0
 20 37  1  0
 22 38  1  0
 22 39  1  0
 23 40  1  0
 24 41  1  0
 25 42  1  0
M  CHG  2   8  -1  16  -1
M  END
>  <UniqueID>  (83) 
80

>  <SMILES>  (83) 
NC(N)=NCC(=O)[N-]c1cccc(C(=O)[N-]c2cccc(CO)c2)c1

>  <Energy>  (83) 
50.05823661898224

>  <Genealogy>  (83) 
NC(N)=NCC(=O)[N-]c1cccc(C(=O)[N-]c2cccc(CO)c2)c1 (protonated)
NC(N)=NCC(=O)[N-]c1cccc(C(=O)[N-]c2cccc(CO)c2)c1 (3D coordinates assigned)
NC(N)=NCC(=O)[N-]c1cccc(C(=O)[N-]c2cccc(CO)c2)c1 (optimized conformer: 50.05823661898224 kcal/mol)

>  <smiles>  (83) 
NC(N)=NCC(=O)Nc1cccc(C(=O)Nc2cccc(CO)c2)c1

>  <score_type>  (83) 
oracle

>  <origin>  (83) 
adg

>  <m_score__min__energy>  (83) 
-11.68

>  <m_primary>  (83) 
energy

$$$$
83:0
     RDKit          3D

 46 48  0  0  0  0  0  0  0  0999 V2000
   56.2980   30.1000   42.7200 C   0  0  0  0  0  0  0  0  0  0  0  0
   56.1360   30.4590   44.1960 C   0  0  0  0  0  0  0  0  0  0  0  0
   57.4470   30.6180   44.8400 N   0  0  0  0  0  0  0  0  0  0  0  0
   58.2920   29.4640   45.0100 C   0  0  0  0  0  0  0  0  0  0  0  0
   59.8450   29.6390   45.5030 S   0  0  0  0  0  0  0  0  0  0  0  0
   57.7470   27.8450   44.4530 S   0  0  0  0  0  0  0  0  0  0  0  0
   57.6020   27.1350   46.1270 C   0  0  0  0  0  0  0  0  0  0  0  0
   57.1530   25.6960   46.0290 C   0  0  0  0  0  0  0  0  0  0  0  0
   55.7840   25.3470   45.9630 C   0  0  0  0  0  0  0  0  0  0  0  0
   54.7840   26.3280   45.9800 O   0  0  0  0  0  0  0  0  0  0  0  0
   55.4160   24.0280   45.8770 N   0  0  0  0  0  0  0  0  0  0  0  0
   54.0190   23.6780   45.8120 C   0  0  0  0  0  0  0  0  0  0  0  0
   53.4280   22.9240   46.8400 C   0  0  0  0  0  0  0  0  0  0  0  0
   52.0710   22.5920   46.7790 C   0  0  0  0  0  0  0  0  0  0  0  0
   51.2970   23.0090   45.6920 C   0  0  0  0  0  0  0  0  0  0  0  0
   51.8770   23.7570   44.6660 C   0  0  0  0  0  0  0  0  0  0  0  0
   53.2350   24.0930   44.7240 C   0  0  0  0  0  0  0  0  0  0  0  0
   56.3690   23.0450   45.8680 C   0  0  0  0  0  0  0  0  0  0  0  0
   56.0400   21.8300   45.7990 O   0  0  0  0  0  0  0  0  0  0  0  0
   57.6820   23.3670   45.9510 N   0  0  0  0  0  0  0  0  0  0  0  0
   58.0950   24.6530   46.0370 C   0  0  0  0  0  0  0  0  0  0  0  0
   59.3280   24.8950   46.1250 O   0  0  0  0  0  0  0  0  0  0  0  0
   57.9000   31.9220   45.2750 C   0  0  0  0  0  0  0  0  0  0  0  0
   58.1420   32.9530   44.3470 C   0  0  0  0  0  0  0  0  0  0  0  0
   58.5860   34.2070   44.7800 C   0  0  0  0  0  0  0  0  0  0  0  0
   58.7970   34.4450   46.1400 C   0  0  0  0  0  0  0  0  0  0  0  0
   58.5660   33.4290   47.0700 C   0  0  0  0  0  0  0  0  0  0  0  0
   58.1230   32.1750   46.6430 C   0  0  0  0  0  0  0  0  0  0  0  0
   56.7490   29.1005   42.6331 H   0  0  0  0  0  0  0  0  0  0  0  0
   55.3122   30.1011   42.2320 H   0  0  0  0  0  0  0  0  0  0  0  0
   56.9495   30.8399   42.2320 H   0  0  0  0  0  0  0  0  0  0  0  0
   55.5766   31.4025   44.2786 H   0  0  0  0  0  0  0  0  0  0  0  0
   55.5916   29.6464   44.6993 H   0  0  0  0  0  0  0  0  0  0  0  0
   58.5792   27.1803   46.6299 H   0  0  0  0  0  0  0  0  0  0  0  0
   56.8637   27.7099   46.7053 H   0  0  0  0  0  0  0  0  0  0  0  0
   54.3660   26.6940   46.8250 H   0  0  0  0  0  0  0  0  0  0  0  0
   54.0350   22.5937   47.6958 H   0  0  0  0  0  0  0  0  0  0  0  0
   51.6124   22.0025   47.5866 H   0  0  0  0  0  0  0  0  0  0  0  0
   50.2296   22.7473   45.6452 H   0  0  0  0  0  0  0  0  0  0  0  0
   51.2665   24.0828   43.8110 H   0  0  0  0  0  0  0  0  0  0  0  0
   53.6888   24.6838   43.9147 H   0  0  0  0  0  0  0  0  0  0  0  0
   57.9808   32.7712   43.2742 H   0  0  0  0  0  0  0  0  0  0  0  0
   58.7693   35.0072   44.0478 H   0  0  0  0  0  0  0  0  0  0  0  0
   59.1449   35.4321   46.4784 H   0  0  0  0  0  0  0  0  0  0  0  0
   58.7333   33.6167   48.1409 H   0  0  0  0  0  0  0  0  0  0  0  0
   57.9468   31.3784   47.3808 H   0  0  0  0  0  0  0  0  0  0  0  0
  1  2  1  0
  2  3  1  0
  3  4  1  0
  4  5  2  0
  4  6  1  0
  6  7  1  0
  7  8  1  0
  8  9  2  0
  9 10  1  0
  9 11  1  0
 11 12  1  0
 12 13  2  0
 13 14  1  0
 14 15  2  0
 15 16  1  0
 16 17  2  0
 11 18  1  0
 18 19  2  0
 18 20  1  0
 20 21  1  0
 21 22  2  0
  3 23  1  0
 23 24  2  0
 24 25  1  0
 25 26  2  0
 26 27  1  0
 27 28  2  0
 21  8  1  0
 28 23  1  0
 17 12  1  0
  1 29  1  0
  1 30  1  0
  1 31  1  0
  2 32  1  0
  2 33  1  0
  7 34  1  0
  7 35  1  0
 10 36  1  0
 13 37  1  0
 14 38  1  0
 15 39  1  0
 16 40  1  0
 17 41  1  0
 24 42  1  0
 25 43  1  0
 26 44  1  0
 27 45  1  0
 28 46  1  0
M  CHG  1  20  -1
M  END
>  <UniqueID>  (84) 
81

>  <SMILES>  (84) 
CCN(C(=S)SCc1c(O)n(-c2ccccc2)c(=O)[n-]c1=O)c1ccccc1

>  <Energy>  (84) 
62.93670644389257

>  <Genealogy>  (84) 
CCN(C(=S)SCc1c(O)n(-c2ccccc2)c(=O)[n-]c1=O)c1ccccc1 (protonated)
CCN(C(=S)SCc1c(O)n(-c2ccccc2)c(=O)[n-]c1=O)c1ccccc1 (3D coordinates assigned)
CCN(C(=S)SCc1c(O)n(-c2ccccc2)c(=O)[n-]c1=O)c1ccccc1 (optimized conformer: 62.93670644389257 kcal/mol)

>  <smiles>  (84) 
CCN(C(=S)SCc1c(O)n(-c2ccccc2)c(=O)[nH]c1=O)c1ccccc1

>  <score_type>  (84) 
oracle

>  <origin>  (84) 
adg

>  <m_score__min__energy>  (84) 
-10.94

>  <m_primary>  (84) 
energy

$$$$
84:0
     RDKit          3D

 45 48  0  0  0  0  0  0  0  0999 V2000
   55.1630   26.3380   45.9700 O   0  0  0  0  0  0  0  0  0  0  0  0
   56.3820   26.3180   46.2840 C   0  0  0  0  0  0  0  0  0  0  0  0
   56.9580   25.0950   46.7640 N   0  0  0  0  0  0  0  0  0  0  0  0
   58.0090   24.3340   46.0890 C   0  0  0  0  0  0  0  0  0  0  0  0
   57.4520   23.5660   44.9180 C   0  0  0  0  0  0  0  0  0  0  0  0
   58.0440   22.3560   44.5270 C   0  0  0  0  0  0  0  0  0  0  0  0
   57.5560   21.6850   43.4060 C   0  0  0  0  0  0  0  0  0  0  0  0
   56.4840   22.2180   42.6880 C   0  0  0  0  0  0  0  0  0  0  0  0
   55.9100   23.4170   43.1100 C   0  0  0  0  0  0  0  0  0  0  0  0
   56.3930   24.0600   44.2080 N   0  0  0  0  0  0  0  0  0  0  0  0
   57.1660   27.5600   46.2020 C   0  0  0  0  0  0  0  0  0  0  0  0
   57.0180   28.4290   45.0970 C   0  0  0  0  0  0  0  0  0  0  0  0
   57.8200   29.5770   44.9790 C   0  0  0  0  0  0  0  0  0  0  0  0
   58.7630   29.8430   45.9700 C   0  0  0  0  0  0  0  0  0  0  0  0
   59.6120   30.9010   45.9560 N   0  0  0  0  0  0  0  0  0  0  0  0
   60.4260   30.8870   47.0420 C   0  0  0  0  0  0  0  0  0  0  0  0
   61.4190   31.9010   47.2870 N   0  0  0  0  0  0  0  0  0  0  0  0
   62.8430   31.5290   47.2570 C   0  0  0  0  0  0  0  0  0  0  0  0
   63.7400   32.7610   47.1000 C   0  0  0  0  0  0  0  0  0  0  0  0
   63.4540   33.8190   48.1780 C   0  0  0  0  0  0  0  0  0  0  0  0
   61.9570   33.9580   48.5300 C   0  0  0  0  0  0  0  0  0  0  0  0
   61.0330   33.3040   47.4970 C   0  0  0  0  0  0  0  0  0  0  0  0
   60.1110   29.5630   48.0600 S   0  0  0  0  0  0  0  0  0  0  0  0
   58.8910   28.9960   47.0590 C   0  0  0  0  0  0  0  0  0  0  0  0
   58.1050   27.8580   47.2090 C   0  0  0  0  0  0  0  0  0  0  0  0
   58.7816   25.0292   45.7286 H   0  0  0  0  0  0  0  0  0  0  0  0
   58.4387   23.6182   46.8053 H   0  0  0  0  0  0  0  0  0  0  0  0
   58.8860   21.9399   45.0996 H   0  0  0  0  0  0  0  0  0  0  0  0
   58.0151   20.7373   43.0881 H   0  0  0  0  0  0  0  0  0  0  0  0
   56.0964   21.6982   41.7994 H   0  0  0  0  0  0  0  0  0  0  0  0
   55.0633   23.8448   42.5531 H   0  0  0  0  0  0  0  0  0  0  0  0
   55.9430   24.9590   44.4950 H   0  0  0  0  0  0  0  0  0  0  0  0
   56.2690   28.2049   44.3232 H   0  0  0  0  0  0  0  0  0  0  0  0
   57.7054   30.2538   44.1194 H   0  0  0  0  0  0  0  0  0  0  0  0
   63.0990   31.0174   48.1965 H   0  0  0  0  0  0  0  0  0  0  0  0
   63.0096   30.8675   46.3941 H   0  0  0  0  0  0  0  0  0  0  0  0
   64.7915   32.4478   47.1791 H   0  0  0  0  0  0  0  0  0  0  0  0
   63.5332   33.2105   46.1176 H   0  0  0  0  0  0  0  0  0  0  0  0
   64.0010   33.5411   49.0910 H   0  0  0  0  0  0  0  0  0  0  0  0
   63.7799   34.7879   47.7718 H   0  0  0  0  0  0  0  0  0  0  0  0
   61.7815   33.4834   49.5067 H   0  0  0  0  0  0  0  0  0  0  0  0
   61.7224   35.0326   48.5460 H   0  0  0  0  0  0  0  0  0  0  0  0
   59.9954   33.3450   47.8600 H   0  0  0  0  0  0  0  0  0  0  0  0
   61.1190   33.8465   46.5440 H   0  0  0  0  0  0  0  0  0  0  0  0
   58.2138   27.2085   48.0901 H   0  0  0  0  0  0  0  0  0  0  0  0
  1  2  2  0
  2  3  1  0
  3  4  1  0
  4  5  1  0
  5  6  2  0
  6  7  1  0
  7  8  2  0
  8  9  1  0
  9 10  2  0
  2 11  1  0
 11 12  2  0
 12 13  1  0
 13 14  2  0
 14 15  1  0
 15 16  2  0
 16 17  1  0
 17 18  1  0
 18 19  1  0
 19 20  1  0
 20 21  1  0
 21 22  1  0
 16 23  1  0
 23 24  1  0
 24 25  2  0
 10  5  1  0
 25 11  1  0
 24 14  1  0
 22 17  1  0
  4 26  1  0
  4 27  1  0
  6 28  1  0
  7 29  1  0
  8 30  1  0
  9 31  1  0
 10 32  1  0
 12 33  1  0
 13 34  1  0
 18 35  1  0
 18 36  1  0
 19 37  1  0
 19 38  1  0
 20 39  1  0
 20 40  1  0
 21 41  1  0
 21 42  1  0
 22 43  1  0
 22 44  1  0
 25 45  1  0
M  CHG  2   3  -1  10   1
M  END
>  <UniqueID>  (85) 
82

>  <SMILES>  (85) 
O=C([N-]Cc1cccc[nH+]1)c1ccc2nc(N3CCCCC3)sc2c1

>  <Energy>  (85) 
85.32528326318739

>  <Genealogy>  (85) 
O=C([N-]Cc1cccc[nH+]1)c1ccc2nc(N3CCCCC3)sc2c1 (protonated)
O=C([N-]Cc1cccc[nH+]1)c1ccc2nc(N3CCCCC3)sc2c1 (3D coordinates assigned)
O=C([N-]Cc1cccc[nH+]1)c1ccc2nc(N3CCCCC3)sc2c1 (nonaromatic ring conformer: 85.32528326318739 kcal/mol)

>  <smiles>  (85) 
O=C(NCc1ccccn1)c1ccc2nc(N3CCCCC3)sc2c1

>  <score_type>  (85) 
oracle

>  <origin>  (85) 
adg

>  <m_score__min__energy>  (85) 
-8.4499999999999993

>  <m_primary>  (85) 
energy

$$$$
85:0
     RDKit          3D

 45 47  0  0  0  0  0  0  0  0999 V2000
   54.7800   26.7180   45.0450 H   0  0  0  0  0  0  0  0  0  0  0  0
   55.1570   26.7030   46.0190 N   0  0  0  0  0  0  0  0  0  0  0  0
   56.8760   26.8460   45.8970 S   0  0  0  0  0  0  0  0  0  0  0  0
   57.4640   26.7820   47.2790 O   0  0  0  0  0  0  0  0  0  0  0  0
   57.4150   25.7110   45.0720 O   0  0  0  0  0  0  0  0  0  0  0  0
   57.2980   28.3760   45.1350 C   0  0  0  0  0  0  0  0  0  0  0  0
   58.6310   28.8070   45.1040 C   0  0  0  0  0  0  0  0  0  0  0  0
   59.4171   28.1915   45.5657 H   0  0  0  0  0  0  0  0  0  0  0  0
   58.9650   30.0170   44.4880 C   0  0  0  0  0  0  0  0  0  0  0  0
   60.0136   30.3488   44.4676 H   0  0  0  0  0  0  0  0  0  0  0  0
   57.9730   30.8090   43.8970 C   0  0  0  0  0  0  0  0  0  0  0  0
   58.3490   32.0440   43.2760 N   0  0  0  0  0  0  0  0  0  0  0  0
   58.1980   33.1660   43.8550 N   0  0  0  0  0  0  0  0  0  0  0  0
   58.5910   33.3550   45.2150 C   0  0  0  0  0  0  0  0  0  0  0  0
   59.9080   33.3920   45.5550 N   0  0  0  0  0  0  0  0  0  0  0  0
   60.3200   33.5700   46.8410 C   0  0  0  0  0  0  0  0  0  0  0  0
   61.7750   33.6030   47.1350 C   0  0  0  0  0  0  0  0  0  0  0  0
   62.5980   33.8360   46.2100 O   0  0  0  0  0  0  0  0  0  0  0  0
   62.2480   33.3710   48.4760 N   0  0  0  0  0  0  0  0  0  0  0  0
   61.5490   33.2280   49.2380 H   0  0  0  0  0  0  0  0  0  0  0  0
   63.6360   33.3350   48.8450 C   0  0  0  0  0  0  0  0  0  0  0  0
   64.5340   33.4580   47.9670 O   0  0  0  0  0  0  0  0  0  0  0  0
   63.9950   33.1100   50.2170 N   0  0  0  0  0  0  0  0  0  0  0  0
   63.2570   32.7330   50.8550 H   0  0  0  0  0  0  0  0  0  0  0  0
   65.3260   33.2580   50.7400 C   0  0  0  0  0  0  0  0  0  0  0  0
   65.6150   34.3350   51.5930 C   0  0  0  0  0  0  0  0  0  0  0  0
   64.8192   35.0430   51.8675 H   0  0  0  0  0  0  0  0  0  0  0  0
   66.9070   34.5140   52.0960 C   0  0  0  0  0  0  0  0  0  0  0  0
   67.1213   35.3541   52.7730 H   0  0  0  0  0  0  0  0  0  0  0  0
   67.9270   33.6270   51.7400 C   0  0  0  0  0  0  0  0  0  0  0  0
   68.9417   33.7647   52.1418 H   0  0  0  0  0  0  0  0  0  0  0  0
   67.6560   32.5650   50.8730 C   0  0  0  0  0  0  0  0  0  0  0  0
   68.4601   31.8705   50.5881 H   0  0  0  0  0  0  0  0  0  0  0  0
   66.3660   32.3830   50.3670 C   0  0  0  0  0  0  0  0  0  0  0  0
   66.1615   31.5531   49.6745 H   0  0  0  0  0  0  0  0  0  0  0  0
   59.3390   33.7210   47.8430 C   0  0  0  0  0  0  0  0  0  0  0  0
   59.6830   33.9050   49.1770 O   0  0  0  0  0  0  0  0  0  0  0  0
   58.0240   33.6830   47.5000 N   0  0  0  0  0  0  0  0  0  0  0  0
   57.6270   33.5050   46.2140 C   0  0  0  0  0  0  0  0  0  0  0  0
   56.2710   33.4710   45.8980 O   0  0  0  0  0  0  0  0  0  0  0  0
   55.9630   33.3570   44.9400 H   0  0  0  0  0  0  0  0  0  0  0  0
   56.6360   30.3720   43.9230 C   0  0  0  0  0  0  0  0  0  0  0  0
   55.8497   30.9855   43.4589 H   0  0  0  0  0  0  0  0  0  0  0  0
   56.3030   29.1600   44.5370 C   0  0  0  0  0  0  0  0  0  0  0  0
   55.2565   28.8215   44.5503 H   0  0  0  0  0  0  0  0  0  0  0  0
  1  2  1  0
  2  3  1  0
  3  4  2  0
  3  5  2  0
  3  6  1  0
  6  7  2  0
  7  8  1  0
  7  9  1  0
  9 10  1  0
  9 11  2  0
 11 12  1  0
 12 13  2  0
 13 14  1  0
 14 15  2  0
 15 16  1  0
 16 17  1  0
 17 18  2  0
 17 19  1  0
 19 20  1  0
 19 21  1  0
 21 22  2  0
 21 23  1  0
 23 24  1  0
 23 25  1  0
 25 26  2  0
 26 27  1  0
 26 28  1  0
 28 29  1  0
 28 30  2  0
 30 31  1  0
 30 32  1  0
 32 33  1  0
 32 34  2  0
 34 35  1  0
 16 36  2  0
 36 37  1  0
 36 38  1  0
 38 39  2  0
 39 40  1  0
 40 41  1  0
 11 42  1  0
 42 43  1  0
 42 44  2  0
 44 45  1  0
 44  6  1  0
 39 14  1  0
 34 25  1  0
M  CHG  2   2  -1  37  -1
M  END
>  <UniqueID>  (86) 
83

>  <SMILES>  (86) 
[NH-]S(=O)(=O)c1ccc(/N=N/c2nc(C(=O)NC(=O)Nc3ccccc3)c([O-])nc2O)cc1

>  <Energy>  (86) 
53.01312601429283

>  <Genealogy>  (86) 
[NH-]S(=O)(=O)c1ccc(N=Nc2nc(C(=O)NC(=O)Nc3ccccc3)c([O-])nc2O)cc1 (protonated)
[NH-]S(=O)(=O)c1ccc(/N=N/c2nc(C(=O)NC(=O)Nc3ccccc3)c([O-])nc2O)cc1 (cis-trans isomerization)
[NH-]S(=O)(=O)c1ccc(/N=N/c2nc(C(=O)NC(=O)Nc3ccccc3)c([O-])nc2O)cc1 (3D coordinates assigned)
[NH-]S(=O)(=O)c1ccc(/N=N/c2nc(C(=O)NC(=O)Nc3ccccc3)c([O-])nc2O)cc1 (optimized conformer: 53.01312601429283 kcal/mol)

>  <smiles>  (86) 
NS(=O)(=O)c1ccc(N=Nc2nc(C(=O)NC(=O)Nc3ccccc3)c(O)nc2O)cc1

>  <score_type>  (86) 
oracle

>  <origin>  (86) 
adg

>  <m_score__min__energy>  (86) 
-12.210000000000001

>  <m_primary>  (86) 
energy

$$$$
86:0
     RDKit          3D

 66 69  0  0  0  0  0  0  0  0999 V2000
   55.6320   19.7910   48.9790 C   0  0  0  0  0  0  0  0  0  0  0  0
   56.4710   20.4300   47.9150 C   0  0  0  0  0  0  0  0  0  0  0  0
   57.3240   21.2940   48.2530 O   0  0  0  0  0  0  0  0  0  0  0  0
   56.2960   20.1450   46.5190 N   0  0  0  0  0  0  0  0  0  0  0  0
   56.4110   21.0500   45.4140 C   0  0  0  0  0  0  0  0  0  0  0  0
   56.6340   20.5220   44.1380 C   0  0  0  0  0  0  0  0  0  0  0  0
   56.7390   21.3660   43.0300 C   0  0  0  0  0  0  0  0  0  0  0  0
   56.6140   22.7480   43.1880 C   0  0  0  0  0  0  0  0  0  0  0  0
   56.3570   23.3010   44.4550 C   0  0  0  0  0  0  0  0  0  0  0  0
   56.3200   24.8120   44.6200 C   0  0  0  0  0  0  0  0  0  0  0  0
   55.6500   25.2720   45.9440 C   0  0  0  0  0  0  0  0  0  0  0  0
   56.6610   25.7380   47.0060 C   0  0  0  0  0  0  0  0  0  0  0  0
   57.5850   26.7880   46.5090 N   0  0  0  0  0  0  0  0  0  0  0  0
   58.8130   26.9140   47.3300 C   0  0  0  0  0  0  0  0  0  0  0  0
   60.0270   26.1480   46.7550 C   0  0  0  0  0  0  0  0  0  0  0  0
   61.0150   27.0860   46.0550 C   0  0  0  0  0  0  0  0  0  0  0  0
   60.3570   28.3470   45.7140 N   0  0  0  0  0  0  0  0  0  0  0  0
   60.3680   29.4880   46.5850 C   0  0  0  0  0  0  0  0  0  0  0  0
   61.0930   29.4950   47.6150 O   0  0  0  0  0  0  0  0  0  0  0  0
   59.4790   30.6370   46.3200 C   0  0  0  0  0  0  0  0  0  0  0  0
   58.3210   30.4110   45.5580 C   0  0  0  0  0  0  0  0  0  0  0  0
   57.4630   31.4690   45.2180 C   0  0  0  0  0  0  0  0  0  0  0  0
   56.2570   31.2640   44.4670 N   0  0  0  0  0  0  0  0  0  0  0  0
   55.7300   30.0220   43.9830 C   0  0  0  0  0  0  0  0  0  0  0  0
   55.1560   29.0690   44.8730 N   0  0  0  0  0  0  0  0  0  0  0  0
   55.8390   29.7430   42.7620 O   0  0  0  0  0  0  0  0  0  0  0  0
   57.7400   32.7570   45.6850 C   0  0  0  0  0  0  0  0  0  0  0  0
   58.8730   33.0050   46.4710 C   0  0  0  0  0  0  0  0  0  0  0  0
   59.1240   34.3040   46.9450 C   0  0  0  0  0  0  0  0  0  0  0  0
   60.2300   34.5530   47.7580 C   0  0  0  0  0  0  0  0  0  0  0  0
   61.0900   33.5130   48.1100 C   0  0  0  0  0  0  0  0  0  0  0  0
   60.8560   32.2150   47.6450 C   0  0  0  0  0  0  0  0  0  0  0  0
   59.7540   31.9430   46.8040 C   0  0  0  0  0  0  0  0  0  0  0  0
   57.8280   26.7970   45.0450 C   0  0  0  0  0  0  0  0  0  0  0  0
   57.7320   25.3960   44.4320 C   0  0  0  0  0  0  0  0  0  0  0  0
   56.2450   22.4370   45.5650 C   0  0  0  0  0  0  0  0  0  0  0  0
   56.0126   20.0809   49.9695 H   0  0  0  0  0  0  0  0  0  0  0  0
   54.5895   20.1260   48.8744 H   0  0  0  0  0  0  0  0  0  0  0  0
   55.6779   18.6969   48.8744 H   0  0  0  0  0  0  0  0  0  0  0  0
   56.7274   19.4339   44.0062 H   0  0  0  0  0  0  0  0  0  0  0  0
   56.9204   20.9416   42.0315 H   0  0  0  0  0  0  0  0  0  0  0  0
   56.7174   23.4088   42.3147 H   0  0  0  0  0  0  0  0  0  0  0  0
   55.6711   25.2169   43.8294 H   0  0  0  0  0  0  0  0  0  0  0  0
   54.9693   26.1065   45.7196 H   0  0  0  0  0  0  0  0  0  0  0  0
   55.1173   24.4037   46.3592 H   0  0  0  0  0  0  0  0  0  0  0  0
   56.1052   26.1394   47.8662 H   0  0  0  0  0  0  0  0  0  0  0  0
   57.2727   24.8663   47.2814 H   0  0  0  0  0  0  0  0  0  0  0  0
   59.0762   27.9798   47.3997 H   0  0  0  0  0  0  0  0  0  0  0  0
   58.5897   26.4715   48.3120 H   0  0  0  0  0  0  0  0  0  0  0  0
   60.5460   25.6349   47.5780 H   0  0  0  0  0  0  0  0  0  0  0  0
   59.6547   25.4284   46.0110 H   0  0  0  0  0  0  0  0  0  0  0  0
   61.8626   27.2881   46.7264 H   0  0  0  0  0  0  0  0  0  0  0  0
   61.3738   26.6066   45.1323 H   0  0  0  0  0  0  0  0  0  0  0  0
   59.7860   28.3830   44.8390 H   0  0  0  0  0  0  0  0  0  0  0  0
   58.0830   29.3907   45.2229 H   0  0  0  0  0  0  0  0  0  0  0  0
   54.3910   29.3420   45.5260 H   0  0  0  0  0  0  0  0  0  0  0  0
   57.0611   33.5849   45.4327 H   0  0  0  0  0  0  0  0  0  0  0  0
   58.4463   35.1270   46.6741 H   0  0  0  0  0  0  0  0  0  0  0  0
   60.4243   35.5725   48.1225 H   0  0  0  0  0  0  0  0  0  0  0  0
   61.9567   33.7147   48.7566 H   0  0  0  0  0  0  0  0  0  0  0  0
   61.5349   31.4000   47.9362 H   0  0  0  0  0  0  0  0  0  0  0  0
   57.0793   27.4450   44.5659 H   0  0  0  0  0  0  0  0  0  0  0  0
   58.8488   27.1699   44.8752 H   0  0  0  0  0  0  0  0  0  0  0  0
   57.9569   25.4567   43.3569 H   0  0  0  0  0  0  0  0  0  0  0  0
   58.4551   24.7396   44.9382 H   0  0  0  0  0  0  0  0  0  0  0  0
   56.0254   22.8538   46.5590 H   0  0  0  0  0  0  0  0  0  0  0  0
  1  2  1  0
  2  3  2  0
  2  4  1  0
  4  5  1  0
  5  6  2  0
  6  7  1  0
  7  8  2  0
  8  9  1  0
  9 10  1  0
 10 11  1  0
 11 12  1  0
 12 13  1  0
 13 14  1  0
 14 15  1  0
 15 16  1  0
 16 17  1  0
 17 18  1  0
 18 19  2  0
 18 20  1  0
 20 21  2  0
 21 22  1  0
 22 23  1  0
 23 24  1  0
 24 25  1  0
 24 26  2  0
 22 27  2  0
 27 28  1  0
 28 29  2  0
 29 30  1  0
 30 31  2  0
 31 32  1  0
 32 33  2  0
 13 34  1  0
 34 35  1  0
  9 36  2  0
 36  5  1  0
 35 10  1  0
 33 20  1  0
 33 28  1  0
  1 37  1  0
  1 38  1  0
  1 39  1  0
  6 40  1  0
  7 41  1  0
  8 42  1  0
 10 43  1  0
 11 44  1  0
 11 45  1  0
 12 46  1  0
 12 47  1  0
 14 48  1  0
 14 49  1  0
 15 50  1  0
 15 51  1  0
 16 52  1  0
 16 53  1  0
 17 54  1  0
 21 55  1  0
 25 56  1  0
 27 57  1  0
 29 58  1  0
 30 59  1  0
 31 60  1  0
 32 61  1  0
 34 62  1  0
 34 63  1  0
 35 64  1  0
 35 65  1  0
 36 66  1  0
M  CHG  3   4  -1  23  -1  25  -1
M  END
>  <UniqueID>  (87) 
84

>  <SMILES>  (87) 
CC(=O)[N-]c1cccc(C2CCN(CCCNC(=O)c3cc([N-]C([NH-])=O)cc4ccccc34)CC2)c1

>  <Energy>  (87) 
88.62935059987272

>  <Genealogy>  (87) 
CC(=O)[N-]c1cccc(C2CCN(CCCNC(=O)c3cc([N-]C([NH-])=O)cc4ccccc34)CC2)c1 (protonated)
CC(=O)[N-]c1cccc(C2CCN(CCCNC(=O)c3cc([N-]C([NH-])=O)cc4ccccc34)CC2)c1 (3D coordinates assigned)
CC(=O)[N-]c1cccc(C2CCN(CCCNC(=O)c3cc([N-]C([NH-])=O)cc4ccccc34)CC2)c1 (nonaromatic ring conformer: 88.62935059987272 kcal/mol)

>  <smiles>  (87) 
CC(=O)Nc1cccc(C2CCN(CCCNC(=O)c3cc(NC(N)=O)cc4ccccc34)CC2)c1

>  <score_type>  (87) 
oracle

>  <origin>  (87) 
adg

>  <m_score__min__energy>  (87) 
-20.030000000000001

>  <m_primary>  (87) 
energy

$$$$
87:0
     RDKit          3D

 23 24  0  0  0  0  0  0  0  0999 V2000
   59.1660   27.3260   46.7660 O   0  0  0  0  0  0  0  0  0  0  0  0
   58.0710   27.0580   46.1980 C   0  0  0  0  0  0  0  0  0  0  0  0
   57.8090   27.5850   44.8250 C   0  0  0  0  0  0  0  0  0  0  0  0
   57.5970   29.0650   44.8780 C   0  0  0  0  0  0  0  0  0  0  0  0
   58.8210   30.2230   44.8340 S   0  0  0  0  0  0  0  0  0  0  0  0
   57.7250   31.4980   44.8350 C   0  0  0  0  0  0  0  0  0  0  0  0
   58.0520   32.7140   44.8150 O   0  0  0  0  0  0  0  0  0  0  0  0
   56.4420   31.0830   44.8540 N   0  0  0  0  0  0  0  0  0  0  0  0
   56.3700   29.7260   44.8710 C   0  0  0  0  0  0  0  0  0  0  0  0
   55.1520   29.0590   44.8750 O   0  0  0  0  0  0  0  0  0  0  0  0
   57.0520   26.2930   46.8620 N   0  0  0  0  0  0  0  0  0  0  0  0
   56.5230   25.1740   46.4560 C   0  0  0  0  0  0  0  0  0  0  0  0
   57.2300   24.0070   46.4800 N   0  0  0  0  0  0  0  0  0  0  0  0
   56.6940   22.8300   46.0620 C   0  0  0  0  0  0  0  0  0  0  0  0
   55.3820   22.7890   45.5890 C   0  0  0  0  0  0  0  0  0  0  0  0
   54.6330   23.9650   45.5520 C   0  0  0  0  0  0  0  0  0  0  0  0
   55.2010   25.1670   45.9870 C   0  0  0  0  0  0  0  0  0  0  0  0
   54.4520   26.3390   45.9500 O   0  0  0  0  0  0  0  0  0  0  0  0
   58.6711   27.3632   44.1788 H   0  0  0  0  0  0  0  0  0  0  0  0
   56.9062   27.1047   44.4196 H   0  0  0  0  0  0  0  0  0  0  0  0
   57.2949   21.9093   46.0966 H   0  0  0  0  0  0  0  0  0  0  0  0
   54.9431   21.8394   45.2489 H   0  0  0  0  0  0  0  0  0  0  0  0
   53.5975   23.9473   45.1814 H   0  0  0  0  0  0  0  0  0  0  0  0
  1  2  2  0
  2  3  1  0
  3  4  1  0
  4  5  1  0
  5  6  1  0
  6  7  2  0
  6  8  1  0
  8  9  1  0
  9 10  1  0
  2 11  1  0
 11 12  2  3
 12 13  1  0
 13 14  1  0
 14 15  2  0
 15 16  1  0
 16 17  2  0
 17 18  1  0
  9  4  2  0
 17 12  1  0
  3 19  1  0
  3 20  1  0
 14 21  1  0
 15 22  1  0
 16 23  1  0
M  CHG  4   8  -1  10  -1  13  -1  18  -1
M  END
>  <UniqueID>  (88) 
85

>  <SMILES>  (88) 
O=C(Cc1sc(=O)[n-]c1[O-])N=c1[n-]cccc1[O-]

>  <Energy>  (88) 
55.90400236070587

>  <Genealogy>  (88) 
O=C(Cc1sc(=O)[n-]c1[O-])N=c1[n-]cccc1[O-] (protonated)
O=C(Cc1sc(=O)[n-]c1[O-])N=c1[n-]cccc1[O-] (3D coordinates assigned)
O=C(Cc1sc(=O)[n-]c1[O-])N=c1[n-]cccc1[O-] (optimized conformer: 55.90400236070587 kcal/mol)

>  <smiles>  (88) 
O=C(Cc1sc(=O)[nH]c1O)N=c1[nH]cccc1O

>  <score_type>  (88) 
oracle

>  <origin>  (88) 
adg

>  <m_score__min__energy>  (88) 
-16.600000000000001

>  <m_primary>  (88) 
energy

$$$$
88:0
     RDKit          3D

 51 54  0  0  0  0  0  0  0  0999 V2000
   54.7720   26.3450   46.0010 O   0  0  0  0  0  0  0  0  0  0  0  0
   55.8420   25.6900   46.1050 C   0  0  0  0  0  0  0  0  0  0  0  0
   55.8730   24.5420   46.8860 O   0  0  0  0  0  0  0  0  0  0  0  0
   57.0800   26.1550   45.4060 C   0  0  0  0  0  0  0  0  0  0  0  0
   58.0680   26.6880   46.3980 C   0  0  0  0  0  0  0  0  0  0  0  0
   58.6750   25.9760   47.4270 C   0  0  0  0  0  0  0  0  0  0  0  0
   59.5510   26.7640   48.0920 N   0  0  0  0  0  0  0  0  0  0  0  0
   59.5110   27.9640   47.4850 C   0  0  0  0  0  0  0  0  0  0  0  0
   60.2520   29.1030   47.8110 C   0  0  0  0  0  0  0  0  0  0  0  0
   61.1430   29.0600   48.8910 O   0  0  0  0  0  0  0  0  0  0  0  0
   60.8760   28.4090   50.1290 C   0  0  0  0  0  0  0  0  0  0  0  0
   60.2630   29.3850   51.0830 C   0  0  0  0  0  0  0  0  0  0  0  0
   60.0580   29.0540   52.2800 O   0  0  0  0  0  0  0  0  0  0  0  0
   59.8550   30.6760   50.6240 N   0  0  0  0  0  0  0  0  0  0  0  0
   60.8130   31.7860   50.6130 C   0  0  0  0  0  0  0  0  0  0  0  0
   60.6890   32.5720   49.3010 C   0  0  0  0  0  0  0  0  0  0  0  0
   59.2810   32.7880   48.9310 N   0  0  0  0  0  0  0  0  0  0  0  0
   58.9670   33.3680   47.6520 C   0  0  0  0  0  0  0  0  0  0  0  0
   57.7370   33.0920   47.0290 C   0  0  0  0  0  0  0  0  0  0  0  0
   57.4300   33.6640   45.7900 C   0  0  0  0  0  0  0  0  0  0  0  0
   58.3430   34.5160   45.1660 C   0  0  0  0  0  0  0  0  0  0  0  0
   59.5630   34.8060   45.7840 C   0  0  0  0  0  0  0  0  0  0  0  0
   59.8760   34.2330   47.0200 C   0  0  0  0  0  0  0  0  0  0  0  0
   58.2080   32.3380   49.8290 C   0  0  0  0  0  0  0  0  0  0  0  0
   58.4560   30.8840   50.2340 C   0  0  0  0  0  0  0  0  0  0  0  0
   60.0550   30.2580   47.0160 C   0  0  0  0  0  0  0  0  0  0  0  0
   59.1400   30.2400   45.9410 C   0  0  0  0  0  0  0  0  0  0  0  0
   58.4090   29.0760   45.6440 C   0  0  0  0  0  0  0  0  0  0  0  0
   58.6190   27.9540   46.4430 C   0  0  0  0  0  0  0  0  0  0  0  0
   57.5298   25.3101   44.8640 H   0  0  0  0  0  0  0  0  0  0  0  0
   56.8133   26.9560   44.7008 H   0  0  0  0  0  0  0  0  0  0  0  0
   58.4717   24.9218   47.6663 H   0  0  0  0  0  0  0  0  0  0  0  0
   60.1400   26.4870   48.9090 H   0  0  0  0  0  0  0  0  0  0  0  0
   60.1803   27.5735   49.9615 H   0  0  0  0  0  0  0  0  0  0  0  0
   61.8159   28.0241   50.5513 H   0  0  0  0  0  0  0  0  0  0  0  0
   60.6044   32.4558   51.4602 H   0  0  0  0  0  0  0  0  0  0  0  0
   61.8333   31.3838   50.6984 H   0  0  0  0  0  0  0  0  0  0  0  0
   61.1804   33.5487   49.4220 H   0  0  0  0  0  0  0  0  0  0  0  0
   61.1692   31.9874   48.5025 H   0  0  0  0  0  0  0  0  0  0  0  0
   57.0132   32.4235   47.5180 H   0  0  0  0  0  0  0  0  0  0  0  0
   56.4673   33.4421   45.3064 H   0  0  0  0  0  0  0  0  0  0  0  0
   58.1025   34.9590   44.1883 H   0  0  0  0  0  0  0  0  0  0  0  0
   60.2775   35.4859   45.2970 H   0  0  0  0  0  0  0  0  0  0  0  0
   60.8391   34.4605   47.5003 H   0  0  0  0  0  0  0  0  0  0  0  0
   58.1931   32.9714   50.7282 H   0  0  0  0  0  0  0  0  0  0  0  0
   57.2409   32.4135   49.3103 H   0  0  0  0  0  0  0  0  0  0  0  0
   57.8047   30.6316   51.0838 H   0  0  0  0  0  0  0  0  0  0  0  0
   58.2338   30.2382   49.3717 H   0  0  0  0  0  0  0  0  0  0  0  0
   60.6190   31.1760   47.2376 H   0  0  0  0  0  0  0  0  0  0  0  0
   58.9977   31.1440   45.3307 H   0  0  0  0  0  0  0  0  0  0  0  0
   57.6945   29.0520   44.8080 H   0  0  0  0  0  0  0  0  0  0  0  0
  1  2  2  0
  2  3  1  0
  2  4  1  0
  4  5  1  0
  5  6  2  0
  6  7  1  0
  7  8  1  0
  8  9  2  0
  9 10  1  0
 10 11  1  0
 11 12  1  0
 12 13  2  0
 12 14  1  0
 14 15  1  0
 15 16  1  0
 16 17  1  0
 17 18  1  0
 18 19  2  0
 19 20  1  0
 20 21  2  0
 21 22  1  0
 22 23  2  0
 17 24  1  0
 24 25  1  0
  9 26  1  0
 26 27  2  0
 27 28  1  0
 28 29  2  0
 29  5  1  0
 29  8  1  0
 25 14  1  0
 23 18  1  0
  4 30  1  0
  4 31  1  0
  6 32  1  0
  7 33  1  0
 11 34  1  0
 11 35  1  0
 15 36  1  0
 15 37  1  0
 16 38  1  0
 16 39  1  0
 19 40  1  0
 20 41  1  0
 21 42  1  0
 22 43  1  0
 23 44  1  0
 24 45  1  0
 24 46  1  0
 25 47  1  0
 25 48  1  0
 26 49  1  0
 27 50  1  0
 28 51  1  0
M  CHG  1   3  -1
M  END
>  <UniqueID>  (89) 
86

>  <SMILES>  (89) 
O=C([O-])Cc1c[nH]c2c(OCC(=O)N3CCN(c4ccccc4)CC3)cccc12

>  <Energy>  (89) 
92.39544864183057

>  <Genealogy>  (89) 
O=C([O-])Cc1c[nH]c2c(OCC(=O)N3CCN(c4ccccc4)CC3)cccc12 (protonated)
O=C([O-])Cc1c[nH]c2c(OCC(=O)N3CCN(c4ccccc4)CC3)cccc12 (3D coordinates assigned)
O=C([O-])Cc1c[nH]c2c(OCC(=O)N3CCN(c4ccccc4)CC3)cccc12 (nonaromatic ring conformer: 92.39544864183057 kcal/mol)

>  <smiles>  (89) 
O=C(O)Cc1c[nH]c2c(OCC(=O)N3CCN(c4ccccc4)CC3)cccc12

>  <score_type>  (89) 
oracle

>  <origin>  (89) 
adg

>  <m_score__min__energy>  (89) 
-11.960000000000001

>  <m_primary>  (89) 
energy

$$$$
89:0
     RDKit          3D

 40 43  0  0  0  0  0  0  0  0999 V2000
   59.9957   35.2611   44.4067 H   0  0  0  0  0  0  0  0  0  0  0  0
   59.5470   34.2740   44.5920 C   0  0  0  0  0  0  0  0  0  0  0  0
   58.8740   33.6100   43.5650 C   0  0  0  0  0  0  0  0  0  0  0  0
   58.7931   34.0769   42.5723 H   0  0  0  0  0  0  0  0  0  0  0  0
   58.3020   32.3540   43.7920 C   0  0  0  0  0  0  0  0  0  0  0  0
   57.4960   31.5460   42.4500 Cl  0  0  0  0  0  0  0  0  0  0  0  0
   58.4030   31.7510   45.0660 C   0  0  0  0  0  0  0  0  0  0  0  0
   57.8000   30.4240   45.3160 C   0  0  0  0  0  0  0  0  0  0  0  0
   56.4980   30.1480   44.8740 C   0  0  0  0  0  0  0  0  0  0  0  0
   55.9261   30.9217   44.3408 H   0  0  0  0  0  0  0  0  0  0  0  0
   55.9230   28.8960   45.1070 C   0  0  0  0  0  0  0  0  0  0  0  0
   54.9014   28.6891   44.7555 H   0  0  0  0  0  0  0  0  0  0  0  0
   56.6430   27.9000   45.7880 C   0  0  0  0  0  0  0  0  0  0  0  0
   56.0860   26.6320   46.0340 C   0  0  0  0  0  0  0  0  0  0  0  0
   54.7950   26.3290   45.6110 O   0  0  0  0  0  0  0  0  0  0  0  0
   56.8460   25.6650   46.7110 C   0  0  0  0  0  0  0  0  0  0  0  0
   56.3250   24.4950   46.9510 N   0  0  0  0  0  0  0  0  0  0  0  0
   55.5730   23.6980   46.0210 C   0  0  0  0  0  0  0  0  0  0  0  0
   54.3150   23.7320   46.0820 O   0  0  0  0  0  0  0  0  0  0  0  0
   56.2270   22.8950   44.9590 C   0  0  0  0  0  0  0  0  0  0  0  0
   55.9700   23.1420   43.6020 C   0  0  0  0  0  0  0  0  0  0  0  0
   55.2814   23.9492   43.3119 H   0  0  0  0  0  0  0  0  0  0  0  0
   56.5860   22.3660   42.6200 C   0  0  0  0  0  0  0  0  0  0  0  0
   56.3953   22.5645   41.5550 H   0  0  0  0  0  0  0  0  0  0  0  0
   57.4460   21.3360   43.0010 C   0  0  0  0  0  0  0  0  0  0  0  0
   57.9389   20.7201   42.2344 H   0  0  0  0  0  0  0  0  0  0  0  0
   57.6760   21.0920   44.3200 N   0  0  0  0  0  0  0  0  0  0  0  0
   58.3200   20.3150   44.5900 H   0  0  0  0  0  0  0  0  0  0  0  0
   57.0870   21.8380   45.2950 C   0  0  0  0  0  0  0  0  0  0  0  0
   57.2865   21.6108   46.3526 H   0  0  0  0  0  0  0  0  0  0  0  0
   58.1030   25.9710   47.1370 N   0  0  0  0  0  0  0  0  0  0  0  0
   58.6690   27.1850   46.9150 C   0  0  0  0  0  0  0  0  0  0  0  0
   59.6901   27.3877   47.2703 H   0  0  0  0  0  0  0  0  0  0  0  0
   57.9560   28.1790   46.2350 C   0  0  0  0  0  0  0  0  0  0  0  0
   58.5270   29.4370   45.9960 C   0  0  0  0  0  0  0  0  0  0  0  0
   59.5488   29.6502   46.3432 H   0  0  0  0  0  0  0  0  0  0  0  0
   59.0850   32.4310   46.0980 C   0  0  0  0  0  0  0  0  0  0  0  0
   59.2180   31.7560   47.7200 Cl  0  0  0  0  0  0  0  0  0  0  0  0
   59.6510   33.6870   45.8530 C   0  0  0  0  0  0  0  0  0  0  0  0
   60.1811   34.2146   46.6596 H   0  0  0  0  0  0  0  0  0  0  0  0
  1  2  1  0
  2  3  2  0
  3  4  1  0
  3  5  1  0
  5  6  1  0
  5  7  2  0
  7  8  1  0
  8  9  1  0
  9 10  1  0
  9 11  2  0
 11 12  1  0
 11 13  1  0
 13 14  2  0
 14 15  1  0
 14 16  1  0
 16 17  2  0
 17 18  1  0
 18 19  2  0
 18 20  1  0
 20 21  2  0
 21 22  1  0
 21 23  1  0
 23 24  1  0
 23 25  2  0
 25 26  1  0
 25 27  1  0
 27 28  1  0
 27 29  2  0
 29 30  1  0
 16 31  1  0
 31 32  1  0
 32 33  1  0
 32 34  2  0
 34 35  1  0
 35 36  1  0
  7 37  1  0
 37 38  1  0
 37 39  2  0
 39 40  1  0
 39  2  1  0
 35  8  2  0
 34 13  1  0
 29 20  1  0
M  CHG  3  15  -1  27   1  31  -1
M  END
>  <UniqueID>  (90) 
87

>  <SMILES>  (90) 
O=C(/N=c1\[n-]cc2cc(-c3c(Cl)cccc3Cl)ccc2c1[O-])c1ccc[nH+]c1

>  <Energy>  (90) 
66.9653464817608

>  <Genealogy>  (90) 
O=C(N=c1[n-]cc2cc(-c3c(Cl)cccc3Cl)ccc2c1[O-])c1ccc[nH+]c1 (protonated)
O=C(/N=c1\[n-]cc2cc(-c3c(Cl)cccc3Cl)ccc2c1[O-])c1ccc[nH+]c1 (cis-trans isomerization)
O=C(/N=c1\[n-]cc2cc(-c3c(Cl)cccc3Cl)ccc2c1[O-])c1ccc[nH+]c1 (3D coordinates assigned)
O=C(/N=c1\[n-]cc2cc(-c3c(Cl)cccc3Cl)ccc2c1[O-])c1ccc[nH+]c1 (optimized conformer: 66.9653464817608 kcal/mol)

>  <smiles>  (90) 
O=C(N=c1[nH]cc2cc(-c3c(Cl)cccc3Cl)ccc2c1O)c1cccnc1

>  <score_type>  (90) 
oracle

>  <origin>  (90) 
adg

>  <m_score__min__energy>  (90) 
-12.93

>  <m_primary>  (90) 
energy

$$$$
90:0
     RDKit          3D

 64 68  0  0  0  0  0  0  0  0999 V2000
   59.2980   33.8500   50.7420 C   0  0  0  0  0  0  0  0  0  0  0  0
   58.7800   33.4570   52.4020 S   0  0  0  0  0  0  0  0  0  0  0  0
   59.0000   34.6550   53.2860 O   0  0  0  0  0  0  0  0  0  0  0  0
   57.3110   33.1440   52.3710 O   0  0  0  0  0  0  0  0  0  0  0  0
   59.6420   32.0660   53.0300 N   0  0  0  0  0  0  0  0  0  0  0  0
   58.7870   30.8690   53.1370 C   0  0  0  0  0  0  0  0  0  0  0  0
   58.4090   30.3090   51.7590 C   0  0  0  0  0  0  0  0  0  0  0  0
   59.5640   30.3140   50.8540 N   0  0  0  0  0  0  0  0  0  0  0  0
   59.4140   29.8130   49.5100 C   0  0  0  0  0  0  0  0  0  0  0  0
   59.8700   28.5280   49.1730 C   0  0  0  0  0  0  0  0  0  0  0  0
   59.6950   28.0330   47.8770 C   0  0  0  0  0  0  0  0  0  0  0  0
   59.0690   28.8170   46.9000 C   0  0  0  0  0  0  0  0  0  0  0  0
   58.7960   28.1590   45.2910 S   0  0  0  0  0  0  0  0  0  0  0  0
   59.3880   26.7810   45.1940 O   0  0  0  0  0  0  0  0  0  0  0  0
   59.4600   29.0330   44.2640 O   0  0  0  0  0  0  0  0  0  0  0  0
   57.0930   28.1250   44.9790 N   0  0  0  0  0  0  0  0  0  0  0  0
   56.3300   29.3200   44.8040 C   0  0  0  0  0  0  0  0  0  0  0  0
   55.1440   29.3510   45.2310 O   0  0  0  0  0  0  0  0  0  0  0  0
   56.9040   30.5090   44.1340 C   0  0  0  0  0  0  0  0  0  0  0  0
   57.0050   30.5570   42.7350 C   0  0  0  0  0  0  0  0  0  0  0  0
   57.5630   31.6710   42.1070 C   0  0  0  0  0  0  0  0  0  0  0  0
   58.0330   32.7440   42.8650 C   0  0  0  0  0  0  0  0  0  0  0  0
   57.9440   32.7180   44.2670 C   0  0  0  0  0  0  0  0  0  0  0  0
   58.4490   33.8520   45.0810 C   0  0  0  0  0  0  0  0  0  0  0  0
   58.6210   34.9780   44.5400 O   0  0  0  0  0  0  0  0  0  0  0  0
   58.6680   33.7340   46.4940 N   0  0  0  0  0  0  0  0  0  0  0  0
   59.8200   33.5570   47.0750 C   0  0  0  0  0  0  0  0  0  0  0  0
   60.6210   32.5050   46.7670 N   0  0  0  0  0  0  0  0  0  0  0  0
   61.6800   32.6980   47.5750 C   0  0  0  0  0  0  0  0  0  0  0  0
   62.8260   31.9140   47.6800 C   0  0  0  0  0  0  0  0  0  0  0  0
   63.8090   32.3130   48.6050 C   0  0  0  0  0  0  0  0  0  0  0  0
   63.6210   33.4710   49.3970 C   0  0  0  0  0  0  0  0  0  0  0  0
   62.4480   34.2390   49.2660 C   0  0  0  0  0  0  0  0  0  0  0  0
   61.5010   33.8150   48.3360 C   0  0  0  0  0  0  0  0  0  0  0  0
   60.3220   34.3750   48.0380 N   0  0  0  0  0  0  0  0  0  0  0  0
   57.3890   31.5870   44.8950 C   0  0  0  0  0  0  0  0  0  0  0  0
   58.6170   30.1010   47.2290 C   0  0  0  0  0  0  0  0  0  0  0  0
   58.7910   30.5970   48.5230 C   0  0  0  0  0  0  0  0  0  0  0  0
   60.9010   30.5740   51.3980 C   0  0  0  0  0  0  0  0  0  0  0  0
   60.9060   31.8320   52.2890 C   0  0  0  0  0  0  0  0  0  0  0  0
   60.1738   34.5145   50.7788 H   0  0  0  0  0  0  0  0  0  0  0  0
   59.5627   32.9235   50.2115 H   0  0  0  0  0  0  0  0  0  0  0  0
   58.4770   34.3545   50.2115 H   0  0  0  0  0  0  0  0  0  0  0  0
   59.3291   30.0942   53.6990 H   0  0  0  0  0  0  0  0  0  0  0  0
   57.8595   31.1583   53.6529 H   0  0  0  0  0  0  0  0  0  0  0  0
   58.0490   29.2763   51.8769 H   0  0  0  0  0  0  0  0  0  0  0  0
   57.6223   30.9446   51.3264 H   0  0  0  0  0  0  0  0  0  0  0  0
   60.3676   27.9075   49.9329 H   0  0  0  0  0  0  0  0  0  0  0  0
   60.0506   27.0233   47.6238 H   0  0  0  0  0  0  0  0  0  0  0  0
   56.6425   29.7123   42.1307 H   0  0  0  0  0  0  0  0  0  0  0  0
   57.6327   31.7035   41.0097 H   0  0  0  0  0  0  0  0  0  0  0  0
   58.4761   33.6160   42.3617 H   0  0  0  0  0  0  0  0  0  0  0  0
   62.9585   31.0141   47.0615 H   0  0  0  0  0  0  0  0  0  0  0  0
   64.7297   31.7208   48.7132 H   0  0  0  0  0  0  0  0  0  0  0  0
   64.3949   33.7724   50.1183 H   0  0  0  0  0  0  0  0  0  0  0  0
   62.2853   35.1403   49.8753 H   0  0  0  0  0  0  0  0  0  0  0  0
   59.8980   35.2230   48.4750 H   0  0  0  0  0  0  0  0  0  0  0  0
   57.3342   31.5462   45.9929 H   0  0  0  0  0  0  0  0  0  0  0  0
   58.1234   30.7208   46.4660 H   0  0  0  0  0  0  0  0  0  0  0  0
   58.4380   31.6087   48.7718 H   0  0  0  0  0  0  0  0  0  0  0  0
   61.2188   29.7084   51.9978 H   0  0  0  0  0  0  0  0  0  0  0  0
   61.5923   30.7393   50.5585 H   0  0  0  0  0  0  0  0  0  0  0  0
   61.7202   31.7308   53.0217 H   0  0  0  0  0  0  0  0  0  0  0  0
   61.0378   32.6918   51.6157 H   0  0  0  0  0  0  0  0  0  0  0  0
  1  2  1  0
  2  3  2  0
  2  4  2  0
  2  5  1  0
  5  6  1  0
  6  7  1  0
  7  8  1  0
  8  9  1  0
  9 10  2  0
 10 11  1  0
 11 12  2  0
 12 13  1  0
 13 14  2  0
 13 15  2  0
 13 16  1  0
 16 17  1  0
 17 18  2  0
 17 19  1  0
 19 20  2  0
 20 21  1  0
 21 22  2  0
 22 23  1  0
 23 24  1  0
 24 25  2  0
 24 26  1  0
 26 27  2  3
 27 28  1  0
 28 29  1  0
 29 30  2  0
 30 31  1  0
 31 32  2  0
 32 33  1  0
 33 34  2  0
 34 35  1  0
 23 36  2  0
 12 37  1  0
 37 38  2  0
  8 39  1  0
 39 40  1  0
 40  5  1  0
 38  9  1  0
 36 19  1  0
 35 27  1  0
 34 29  1  0
  1 41  1  0
  1 42  1  0
  1 43  1  0
  6 44  1  0
  6 45  1  0
  7 46  1  0
  7 47  1  0
 10 48  1  0
 11 49  1  0
 20 50  1  0
 21 51  1  0
 22 52  1  0
 30 53  1  0
 31 54  1  0
 32 55  1  0
 33 56  1  0
 35 57  1  0
 36 58  1  0
 37 59  1  0
 38 60  1  0
 39 61  1  0
 39 62  1  0
 40 63  1  0
 40 64  1  0
M  CHG  2  16  -1  28  -1
M  END
>  <UniqueID>  (91) 
88

>  <SMILES>  (91) 
CS(=O)(=O)N1CCN(c2ccc(S(=O)(=O)[N-]C(=O)c3cccc(C(=O)N=c4[n-]c5ccccc5[nH]4)c3)cc2)CC1

>  <Energy>  (91) 
130.70355436183806

>  <Genealogy>  (91) 
CS(=O)(=O)N1CCN(c2ccc(S(=O)(=O)[N-]C(=O)c3cccc(C(=O)N=c4[n-]c5ccccc5[nH]4)c3)cc2)CC1 (protonated)
CS(=O)(=O)N1CCN(c2ccc(S(=O)(=O)[N-]C(=O)c3cccc(C(=O)N=c4[n-]c5ccccc5[nH]4)c3)cc2)CC1 (3D coordinates assigned)
CS(=O)(=O)N1CCN(c2ccc(S(=O)(=O)[N-]C(=O)c3cccc(C(=O)N=c4[n-]c5ccccc5[nH]4)c3)cc2)CC1 (nonaromatic ring conformer: 130.70355436183806 kcal/mol)

>  <smiles>  (91) 
CS(=O)(=O)N1CCN(c2ccc(S(=O)(=O)NC(=O)c3cccc(C(=O)N=c4[nH]c5ccccc5[nH]4)c3)cc2)CC1

>  <score_type>  (91) 
oracle

>  <origin>  (91) 
adg

>  <m_score__min__energy>  (91) 
-12.960000000000001

>  <m_primary>  (91) 
energy

$$$$
91:0
     RDKit          3D

 63 67  0  0  0  0  0  0  0  0999 V2000
   60.4020   33.8450   50.9820 O   0  0  0  0  0  0  0  0  0  0  0  0
   59.8590   32.8690   50.4070 C   0  0  0  0  0  0  0  0  0  0  0  0
   58.6110   32.3220   50.9760 C   0  0  0  0  0  0  0  0  0  0  0  0
   58.9980   30.6690   51.6660 S   0  0  0  0  0  0  0  0  0  0  0  0
   59.3620   29.6040   50.2800 C   0  0  0  0  0  0  0  0  0  0  0  0
   60.0960   28.4710   50.4170 N   0  0  0  0  0  0  0  0  0  0  0  0
   60.1940   27.9070   49.2260 N   0  0  0  0  0  0  0  0  0  0  0  0
   59.5340   28.6500   48.2980 C   0  0  0  0  0  0  0  0  0  0  0  0
   59.4010   28.3780   46.8700 C   0  0  0  0  0  0  0  0  0  0  0  0
   58.5850   27.3780   46.3830 C   0  0  0  0  0  0  0  0  0  0  0  0
   58.4920   27.1580   45.0180 C   0  0  0  0  0  0  0  0  0  0  0  0
   59.2300   27.9570   44.1600 C   0  0  0  0  0  0  0  0  0  0  0  0
   60.0380   28.9460   44.6370 C   0  0  0  0  0  0  0  0  0  0  0  0
   60.1280   29.1640   46.0030 C   0  0  0  0  0  0  0  0  0  0  0  0
   59.0240   29.7090   48.9940 N   0  0  0  0  0  0  0  0  0  0  0  0
   60.3730   32.2520   49.2360 N   0  0  0  0  0  0  0  0  0  0  0  0
   61.5620   32.6650   48.5800 C   0  0  0  0  0  0  0  0  0  0  0  0
   62.7560   32.2280   49.1380 C   0  0  0  0  0  0  0  0  0  0  0  0
   63.9610   32.5870   48.5700 C   0  0  0  0  0  0  0  0  0  0  0  0
   63.9430   33.3850   47.4420 C   0  0  0  0  0  0  0  0  0  0  0  0
   62.7420   33.8200   46.8890 C   0  0  0  0  0  0  0  0  0  0  0  0
   61.5160   33.4610   47.4580 C   0  0  0  0  0  0  0  0  0  0  0  0
   60.2890   33.9190   46.8790 N   0  0  0  0  0  0  0  0  0  0  0  0
   59.1830   34.4210   47.6340 C   0  0  0  0  0  0  0  0  0  0  0  0
   57.8260   34.0310   47.1040 C   0  0  0  0  0  0  0  0  0  0  0  0
   57.8390   33.4860   45.7890 N   0  0  0  0  0  0  0  0  0  0  0  0
   58.0470   32.0660   45.8110 C   0  0  0  0  0  0  0  0  0  0  0  0
   57.4720   31.3660   44.6480 C   0  0  0  0  0  0  0  0  0  0  0  0
   57.5910   31.7920   43.3430 C   0  0  0  0  0  0  0  0  0  0  0  0
   57.0420   31.0990   42.2730 C   0  0  0  0  0  0  0  0  0  0  0  0
   56.3440   29.9340   42.4940 C   0  0  0  0  0  0  0  0  0  0  0  0
   56.2050   29.4780   43.7950 C   0  0  0  0  0  0  0  0  0  0  0  0
   56.7580   30.1800   44.8430 C   0  0  0  0  0  0  0  0  0  0  0  0
   58.8390   34.0950   44.9310 C   0  0  0  0  0  0  0  0  0  0  0  0
   60.2330   33.8430   45.4120 C   0  0  0  0  0  0  0  0  0  0  0  0
   58.2397   32.9838   51.7723 H   0  0  0  0  0  0  0  0  0  0  0  0
   57.8331   32.2462   50.2020 H   0  0  0  0  0  0  0  0  0  0  0  0
   60.7130   27.0160   49.0620 H   0  0  0  0  0  0  0  0  0  0  0  0
   58.0067   26.7537   47.0800 H   0  0  0  0  0  0  0  0  0  0  0  0
   57.8433   26.3625   44.6225 H   0  0  0  0  0  0  0  0  0  0  0  0
   59.1628   27.7905   43.0748 H   0  0  0  0  0  0  0  0  0  0  0  0
   60.6170   29.5694   43.9398 H   0  0  0  0  0  0  0  0  0  0  0  0
   60.7774   29.9615   46.3932 H   0  0  0  0  0  0  0  0  0  0  0  0
   59.8560   31.4350   48.8070 H   0  0  0  0  0  0  0  0  0  0  0  0
   62.7411   31.5932   50.0362 H   0  0  0  0  0  0  0  0  0  0  0  0
   64.9125   32.2464   49.0043 H   0  0  0  0  0  0  0  0  0  0  0  0
   64.8931   33.6812   46.9735 H   0  0  0  0  0  0  0  0  0  0  0  0
   62.7574   34.4555   45.9913 H   0  0  0  0  0  0  0  0  0  0  0  0
   59.2705   34.0414   48.6627 H   0  0  0  0  0  0  0  0  0  0  0  0
   59.2368   35.5178   47.5698 H   0  0  0  0  0  0  0  0  0  0  0  0
   57.3952   33.2801   47.7826 H   0  0  0  0  0  0  0  0  0  0  0  0
   57.2330   34.9561   47.0529 H   0  0  0  0  0  0  0  0  0  0  0  0
   59.1299   31.8737   45.8319 H   0  0  0  0  0  0  0  0  0  0  0  0
   57.5354   31.6794   46.7048 H   0  0  0  0  0  0  0  0  0  0  0  0
   58.1446   32.7207   43.1406 H   0  0  0  0  0  0  0  0  0  0  0  0
   57.1649   31.4810   41.2488 H   0  0  0  0  0  0  0  0  0  0  0  0
   55.9049   29.3755   41.6542 H   0  0  0  0  0  0  0  0  0  0  0  0
   55.6494   28.5493   43.9921 H   0  0  0  0  0  0  0  0  0  0  0  0
   56.6339   29.7952   45.8660 H   0  0  0  0  0  0  0  0  0  0  0  0
   58.7347   33.6804   43.9175 H   0  0  0  0  0  0  0  0  0  0  0  0
   58.6722   35.1822   44.9409 H   0  0  0  0  0  0  0  0  0  0  0  0
   60.5530   32.8416   45.0882 H   0  0  0  0  0  0  0  0  0  0  0  0
   60.9009   34.6077   44.9887 H   0  0  0  0  0  0  0  0  0  0  0  0
  1  2  2  0
  2  3  1  0
  3  4  1  0
  4  5  1  0
  5  6  2  0
  6  7  1  0
  7  8  1  0
  8  9  1  0
  9 10  2  0
 10 11  1  0
 11 12  2  0
 12 13  1  0
 13 14  2  0
  8 15  2  0
  2 16  1  0
 16 17  1  0
 17 18  2  0
 18 19  1  0
 19 20  2  0
 20 21  1  0
 21 22  2  0
 22 23  1  0
 23 24  1  0
 24 25  1  0
 25 26  1  0
 26 27  1  0
 27 28  1  0
 28 29  2  0
 29 30  1  0
 30 31  2  0
 31 32  1  0
 32 33  2  0
 26 34  1  0
 34 35  1  0
 15  5  1  0
 22 17  1  0
 35 23  1  0
 14  9  1  0
 33 28  1  0
  3 36  1  0
  3 37  1  0
  7 38  1  0
 10 39  1  0
 11 40  1  0
 12 41  1  0
 13 42  1  0
 14 43  1  0
 16 44  1  0
 18 45  1  0
 19 46  1  0
 20 47  1  0
 21 48  1  0
 24 49  1  0
 24 50  1  0
 25 51  1  0
 25 52  1  0
 27 53  1  0
 27 54  1  0
 29 55  1  0
 30 56  1  0
 31 57  1  0
 32 58  1  0
 33 59  1  0
 34 60  1  0
 34 61  1  0
 35 62  1  0
 35 63  1  0
M  END
>  <smiles>  (92) 
O=C(CSc1n[nH]c(-c2ccccc2)n1)Nc1ccccc1N1CCN(Cc2ccccc2)CC1

>  <score_type>  (92) 
oracle

>  <origin>  (92) 
adg

>  <m_score__min__energy>  (92) 
-10.24

>  <m_primary>  (92) 
energy

$$$$
