0:0
     RDKit          3D

 39 40  0  0  0  0  0  0  0  0999 V2000
   59.2820   29.7660   50.6690 C   0  0  0  0  0  0  0  0  0  0  0  0
   60.3750   29.2600   49.9100 O   0  0  0  0  0  0  0  0  0  0  0  0
   60.3870   29.1530   48.5110 C   0  0  0  0  0  0  0  0  0  0  0  0
   60.7680   30.2720   47.7620 C   0  0  0  0  0  0  0  0  0  0  0  0
   60.7890   30.2170   46.3660 C   0  0  0  0  0  0  0  0  0  0  0  0
   60.4330   29.0410   45.7050 C   0  0  0  0  0  0  0  0  0  0  0  0
   60.0520   27.9060   46.4370 C   0  0  0  0  0  0  0  0  0  0  0  0
   59.6640   26.6420   45.7190 C   0  0  0  0  0  0  0  0  0  0  0  0
   58.3890   26.8090   45.0220 N   0  0  0  0  0  0  0  0  0  0  0  0
   57.1910   27.5160   46.0670 S   0  0  0  0  0  0  0  0  0  0  0  0
   55.8210   27.0870   45.6250 O   0  0  0  0  0  0  0  0  0  0  0  0
   57.4140   27.0240   47.4690 O   0  0  0  0  0  0  0  0  0  0  0  0
   57.2810   29.2520   46.0270 N   0  0  0  0  0  0  0  0  0  0  0  0
   56.5440   29.8460   44.5700 S   0  0  0  0  0  0  0  0  0  0  0  0
   57.2910   29.3230   43.3740 O   0  0  0  0  0  0  0  0  0  0  0  0
   55.1240   29.3620   44.4860 O   0  0  0  0  0  0  0  0  0  0  0  0
   56.5710   31.5810   44.5270 N   0  0  0  0  0  0  0  0  0  0  0  0
   57.5020   32.4250   45.2180 C   0  0  0  0  0  0  0  0  0  0  0  0
   58.1000   33.4770   44.5110 C   0  0  0  0  0  0  0  0  0  0  0  0
   59.0090   34.3290   45.1440 C   0  0  0  0  0  0  0  0  0  0  0  0
   59.3320   34.1350   46.4900 C   0  0  0  0  0  0  0  0  0  0  0  0
   60.2130   34.9640   47.1030 F   0  0  0  0  0  0  0  0  0  0  0  0
   58.7400   33.0900   47.2040 C   0  0  0  0  0  0  0  0  0  0  0  0
   57.8280   32.2370   46.5750 C   0  0  0  0  0  0  0  0  0  0  0  0
   60.0280   27.9660   47.8410 C   0  0  0  0  0  0  0  0  0  0  0  0
   59.5023   29.6640   51.7419 H   0  0  0  0  0  0  0  0  0  0  0  0
   59.1269   30.8275   50.4258 H   0  0  0  0  0  0  0  0  0  0  0  0
   58.3723   29.1974   50.4258 H   0  0  0  0  0  0  0  0  0  0  0  0
   61.0531   31.2018   48.2761 H   0  0  0  0  0  0  0  0  0  0  0  0
   61.0870   31.1032   45.7866 H   0  0  0  0  0  0  0  0  0  0  0  0
   60.4511   29.0034   44.6058 H   0  0  0  0  0  0  0  0  0  0  0  0
   60.4448   26.3896   44.9864 H   0  0  0  0  0  0  0  0  0  0  0  0
   59.5572   25.8355   46.4593 H   0  0  0  0  0  0  0  0  0  0  0  0
   58.2930   29.5040   45.9940 H   0  0  0  0  0  0  0  0  0  0  0  0
   57.8522   33.6331   43.4507 H   0  0  0  0  0  0  0  0  0  0  0  0
   59.4712   35.1539   44.5819 H   0  0  0  0  0  0  0  0  0  0  0  0
   58.9921   32.9380   48.2639 H   0  0  0  0  0  0  0  0  0  0  0  0
   57.3637   31.4166   47.1419 H   0  0  0  0  0  0  0  0  0  0  0  0
   59.7271   27.0809   48.4207 H   0  0  0  0  0  0  0  0  0  0  0  0
  1  2  1  0
  2  3  1  0
  3  4  2  0
  4  5  1  0
  5  6  2  0
  6  7  1  0
  7  8  1  0
  8  9  1  0
  9 10  1  0
 10 11  2  0
 10 12  2  0
 10 13  1  0
 13 14  1  0
 14 15  2  0
 14 16  2  0
 14 17  1  0
 17 18  1  0
 18 19  2  0
 19 20  1  0
 20 21  2  0
 21 22  1  0
 21 23  1  0
 23 24  2  0
  7 25  2  0
 25  3  1  0
 24 18  1  0
  1 26  1  0
  1 27  1  0
  1 28  1  0
  4 29  1  0
  5 30  1  0
  6 31  1  0
  8 32  1  0
  8 33  1  0
 13 34  1  0
 19 35  1  0
 20 36  1  0
 23 37  1  0
 24 38  1  0
 25 39  1  0
M  CHG  2   9  -1  17  -1
M  END
>  <UniqueID>  (1) 
1

>  <SMILES>  (1) 
COc1cccc(C[N-]S(=O)(=O)NS(=O)(=O)[N-]c2ccc(F)cc2)c1

>  <Energy>  (1) 
34.48021609414075

>  <Genealogy>  (1) 
COc1cccc(C[N-]S(=O)(=O)NS(=O)(=O)[N-]c2ccc(F)cc2)c1 (protonated)
COc1cccc(C[N-]S(=O)(=O)NS(=O)(=O)[N-]c2ccc(F)cc2)c1 (3D coordinates assigned)
COc1cccc(C[N-]S(=O)(=O)NS(=O)(=O)[N-]c2ccc(F)cc2)c1 (optimized conformer: 34.48021609414075 kcal/mol)

>  <smiles>  (1) 
COc1cccc(CNS(=O)(=O)NS(=O)(=O)Nc2ccc(F)cc2)c1

>  <score_type>  (1) 
oracle

>  <origin>  (1) 
adg

>  <m_score__min__energy>  (1) 
-11.25

>  <m_primary>  (1) 
energy

$$$$
1:0
     RDKit          3D

 53 55  0  0  0  0  0  0  0  0999 V2000
   58.5360   23.1590   45.5140 C   0  0  0  0  0  0  0  0  0  0  0  0
   57.6090   23.3730   46.6150 N   0  0  0  0  0  0  0  0  0  0  0  0
   56.9860   24.6350   46.8670 C   0  0  0  0  0  0  0  0  0  0  0  0
   55.8180   24.8650   46.4510 O   0  0  0  0  0  0  0  0  0  0  0  0
   57.7390   25.7020   47.5960 C   0  0  0  0  0  0  0  0  0  0  0  0
   58.1010   26.8100   46.6570 C   0  0  0  0  0  0  0  0  0  0  0  0
   59.3390   27.3350   46.5510 N   0  0  0  0  0  0  0  0  0  0  0  0
   59.1940   28.3070   45.6240 C   0  0  0  0  0  0  0  0  0  0  0  0
   60.1530   29.0230   45.2300 O   0  0  0  0  0  0  0  0  0  0  0  0
   57.9310   28.4320   45.1580 N   0  0  0  0  0  0  0  0  0  0  0  0
   57.4570   29.3450   44.1160 C   0  0  0  0  0  0  0  0  0  0  0  0
   56.1840   30.0190   44.5550 C   0  0  0  0  0  0  0  0  0  0  0  0
   55.1460   29.3240   44.7190 O   0  0  0  0  0  0  0  0  0  0  0  0
   56.1010   31.4380   44.7420 N   0  0  0  0  0  0  0  0  0  0  0  0
   57.2020   32.3350   44.9400 C   0  0  0  0  0  0  0  0  0  0  0  0
   57.8150   32.9960   43.8620 C   0  0  0  0  0  0  0  0  0  0  0  0
   58.9120   33.8330   44.0830 C   0  0  0  0  0  0  0  0  0  0  0  0
   59.4160   34.0030   45.3760 C   0  0  0  0  0  0  0  0  0  0  0  0
   58.8280   33.3270   46.4540 C   0  0  0  0  0  0  0  0  0  0  0  0
   59.4800   33.5150   48.0850 S   0  0  0  0  0  0  0  0  0  0  0  0
   59.2910   34.9370   48.5370 O   0  0  0  0  0  0  0  0  0  0  0  0
   58.7150   32.6250   49.0240 O   0  0  0  0  0  0  0  0  0  0  0  0
   61.1770   33.1060   48.1520 N   0  0  0  0  0  0  0  0  0  0  0  0
   61.9200   33.8400   47.1150 C   0  0  0  0  0  0  0  0  0  0  0  0
   63.3600   33.3010   47.0060 C   0  0  0  0  0  0  0  0  0  0  0  0
   63.8370   32.6340   48.3070 C   0  0  0  0  0  0  0  0  0  0  0  0
   63.2610   33.3460   49.5340 C   0  0  0  0  0  0  0  0  0  0  0  0
   61.7170   33.3930   49.4970 C   0  0  0  0  0  0  0  0  0  0  0  0
   57.7260   32.4900   46.2300 C   0  0  0  0  0  0  0  0  0  0  0  0
   57.2440   27.4760   45.8080 C   0  0  0  0  0  0  0  0  0  0  0  0
   55.8890   27.1970   45.6410 O   0  0  0  0  0  0  0  0  0  0  0  0
   59.5342   22.9286   45.9146 H   0  0  0  0  0  0  0  0  0  0  0  0
   58.1853   22.3182   44.8975 H   0  0  0  0  0  0  0  0  0  0  0  0
   58.5893   24.0685   44.8975 H   0  0  0  0  0  0  0  0  0  0  0  0
   57.1108   26.1020   48.4056 H   0  0  0  0  0  0  0  0  0  0  0  0
   58.6599   25.2702   48.0149 H   0  0  0  0  0  0  0  0  0  0  0  0
   58.2253   30.1087   43.9250 H   0  0  0  0  0  0  0  0  0  0  0  0
   57.2614   28.7714   43.1980 H   0  0  0  0  0  0  0  0  0  0  0  0
   57.4302   32.8542   42.8413 H   0  0  0  0  0  0  0  0  0  0  0  0
   59.3799   34.3592   43.2379 H   0  0  0  0  0  0  0  0  0  0  0  0
   60.2751   34.6682   45.5476 H   0  0  0  0  0  0  0  0  0  0  0  0
   61.4117   33.7153   46.1475 H   0  0  0  0  0  0  0  0  0  0  0  0
   61.9563   34.9052   47.3871 H   0  0  0  0  0  0  0  0  0  0  0  0
   63.3991   32.5598   46.1942 H   0  0  0  0  0  0  0  0  0  0  0  0
   64.0232   34.1552   46.8046 H   0  0  0  0  0  0  0  0  0  0  0  0
   63.5090   31.5841   48.3138 H   0  0  0  0  0  0  0  0  0  0  0  0
   64.9344   32.6961   48.3498 H   0  0  0  0  0  0  0  0  0  0  0  0
   63.5794   32.8089   50.4396 H   0  0  0  0  0  0  0  0  0  0  0  0
   63.6349   34.3805   49.5363 H   0  0  0  0  0  0  0  0  0  0  0  0
   61.3238   32.6461   50.2023 H   0  0  0  0  0  0  0  0  0  0  0  0
   61.4057   34.4112   49.7732 H   0  0  0  0  0  0  0  0  0  0  0  0
   57.2694   31.9510   47.0732 H   0  0  0  0  0  0  0  0  0  0  0  0
   55.5680   26.4660   45.0190 H   0  0  0  0  0  0  0  0  0  0  0  0
  1  2  1  0
  2  3  1  0
  3  4  2  0
  3  5  1  0
  5  6  1  0
  6  7  1  0
  7  8  1  0
  8  9  2  0
  8 10  1  0
 10 11  1  0
 11 12  1  0
 12 13  2  0
 12 14  1  0
 14 15  1  0
 15 16  2  0
 16 17  1  0
 17 18  2  0
 18 19  1  0
 19 20  1  0
 20 21  2  0
 20 22  2  0
 20 23  1  0
 23 24  1  0
 24 25  1  0
 25 26  1  0
 26 27  1  0
 27 28  1  0
 19 29  2  0
 10 30  1  0
 30 31  1  0
 30  6  2  0
 29 15  1  0
 28 23  1  0
  1 32  1  0
  1 33  1  0
  1 34  1  0
  5 35  1  0
  5 36  1  0
 11 37  1  0
 11 38  1  0
 16 39  1  0
 17 40  1  0
 18 41  1  0
 24 42  1  0
 24 43  1  0
 25 44  1  0
 25 45  1  0
 26 46  1  0
 26 47  1  0
 27 48  1  0
 27 49  1  0
 28 50  1  0
 28 51  1  0
 29 52  1  0
 31 53  1  0
M  CHG  3   2  -1   7  -1  14  -1
M  END
>  <UniqueID>  (2) 
2

>  <SMILES>  (2) 
C[N-]C(=O)Cc1[n-]c(=O)n(CC(=O)[N-]c2cccc(S(=O)(=O)N3CCCCC3)c2)c1O

>  <Energy>  (2) 
86.57264251233164

>  <Genealogy>  (2) 
C[N-]C(=O)Cc1[n-]c(=O)n(CC(=O)[N-]c2cccc(S(=O)(=O)N3CCCCC3)c2)c1O (protonated)
C[N-]C(=O)Cc1[n-]c(=O)n(CC(=O)[N-]c2cccc(S(=O)(=O)N3CCCCC3)c2)c1O (3D coordinates assigned)
C[N-]C(=O)Cc1[n-]c(=O)n(CC(=O)[N-]c2cccc(S(=O)(=O)N3CCCCC3)c2)c1O (nonaromatic ring conformer: 86.57264251233164 kcal/mol)

>  <smiles>  (2) 
CNC(=O)Cc1[nH]c(=O)n(CC(=O)Nc2cccc(S(=O)(=O)N3CCCCC3)c2)c1O

>  <score_type>  (2) 
oracle

>  <origin>  (2) 
adg

>  <m_score__min__energy>  (2) 
-14.859999999999999

>  <m_primary>  (2) 
energy

$$$$
2:0
     RDKit          3D

 36 37  0  0  0  0  0  0  0  0999 V2000
   55.1690   26.7020   46.0430 N   0  0  0  0  0  0  0  0  0  0  0  0
   56.0350   25.2060   46.0010 S   0  0  0  0  0  0  0  0  0  0  0  0
   55.1950   24.1340   46.6340 O   0  0  0  0  0  0  0  0  0  0  0  0
   56.3190   24.8300   44.5730 O   0  0  0  0  0  0  0  0  0  0  0  0
   57.5280   25.3490   46.8810 N   0  0  0  0  0  0  0  0  0  0  0  0
   57.6920   26.6950   47.4320 C   0  0  0  0  0  0  0  0  0  0  0  0
   59.1730   26.9890   47.6860 C   0  0  0  0  0  0  0  0  0  0  0  0
   59.3810   28.4250   47.9400 N   0  0  0  0  0  0  0  0  0  0  0  0
   60.0870   28.8340   49.1620 C   0  0  0  0  0  0  0  0  0  0  0  0
   61.1130   29.9150   48.8350 C   0  0  0  0  0  0  0  0  0  0  0  0
   60.4140   31.1370   48.2360 C   0  0  0  0  0  0  0  0  0  0  0  0
   59.4790   30.7620   47.1120 C   0  0  0  0  0  0  0  0  0  0  0  0
   59.0710   31.7550   46.2090 C   0  0  0  0  0  0  0  0  0  0  0  0
   58.1750   31.4570   45.1830 C   0  0  0  0  0  0  0  0  0  0  0  0
   57.6640   30.1630   45.0520 C   0  0  0  0  0  0  0  0  0  0  0  0
   56.5270   29.7770   43.7630 S   0  0  0  0  0  0  0  0  0  0  0  0
   55.0210   29.2840   44.4510 N   0  0  0  0  0  0  0  0  0  0  0  0
   57.0830   28.6670   42.9160 O   0  0  0  0  0  0  0  0  0  0  0  0
   56.3040   30.9820   42.8930 O   0  0  0  0  0  0  0  0  0  0  0  0
   58.0410   29.1710   45.9640 C   0  0  0  0  0  0  0  0  0  0  0  0
   58.9530   29.4510   47.0030 C   0  0  0  0  0  0  0  0  0  0  0  0
   55.5080   27.2740   45.2370 H   0  0  0  0  0  0  0  0  0  0  0  0
   57.2935   27.4305   46.7177 H   0  0  0  0  0  0  0  0  0  0  0  0
   57.1460   26.7604   48.3847 H   0  0  0  0  0  0  0  0  0  0  0  0
   59.5105   26.4146   48.5613 H   0  0  0  0  0  0  0  0  0  0  0  0
   59.7496   26.6996   46.7951 H   0  0  0  0  0  0  0  0  0  0  0  0
   59.3606   29.2288   49.8875 H   0  0  0  0  0  0  0  0  0  0  0  0
   60.6046   27.9623   49.5889 H   0  0  0  0  0  0  0  0  0  0  0  0
   61.6369   30.2103   49.7560 H   0  0  0  0  0  0  0  0  0  0  0  0
   61.8346   29.5186   48.1055 H   0  0  0  0  0  0  0  0  0  0  0  0
   59.8356   31.6377   49.0264 H   0  0  0  0  0  0  0  0  0  0  0  0
   61.1877   31.8024   47.8253 H   0  0  0  0  0  0  0  0  0  0  0  0
   59.4615   32.7782   46.3113 H   0  0  0  0  0  0  0  0  0  0  0  0
   57.8698   32.2420   44.4754 H   0  0  0  0  0  0  0  0  0  0  0  0
   54.7600   30.0040   45.1620 H   0  0  0  0  0  0  0  0  0  0  0  0
   57.6204   28.1590   45.8694 H   0  0  0  0  0  0  0  0  0  0  0  0
  1  2  1  0
  2  3  2  0
  2  4  2  0
  2  5  1  0
  5  6  1  0
  6  7  1  0
  7  8  1  0
  8  9  1  0
  9 10  1  0
 10 11  1  0
 11 12  1  0
 12 13  2  0
 13 14  1  0
 14 15  2  0
 15 16  1  0
 16 17  1  0
 16 18  2  0
 16 19  2  0
 15 20  1  0
 20 21  2  0
 21  8  1  0
 21 12  1  0
  1 22  1  0
  6 23  1  0
  6 24  1  0
  7 25  1  0
  7 26  1  0
  9 27  1  0
  9 28  1  0
 10 29  1  0
 10 30  1  0
 11 31  1  0
 11 32  1  0
 13 33  1  0
 14 34  1  0
 17 35  1  0
 20 36  1  0
M  CHG  3   1  -1   5  -1  17  -1
M  END
>  <UniqueID>  (3) 
3

>  <SMILES>  (3) 
[NH-]S(=O)(=O)[N-]CCN1CCCc2ccc(S([NH-])(=O)=O)cc21

>  <Energy>  (3) 
30.018418902265086

>  <Genealogy>  (3) 
[NH-]S(=O)(=O)[N-]CCN1CCCc2ccc(S([NH-])(=O)=O)cc21 (protonated)
[NH-]S(=O)(=O)[N-]CCN1CCCc2ccc(S([NH-])(=O)=O)cc21 (3D coordinates assigned)
[NH-]S(=O)(=O)[N-]CCN1CCCc2ccc(S([NH-])(=O)=O)cc21 (nonaromatic ring conformer: 30.018418902265086 kcal/mol)

>  <smiles>  (3) 
NS(=O)(=O)NCCN1CCCc2ccc(S(N)(=O)=O)cc21

>  <score_type>  (3) 
oracle

>  <origin>  (3) 
adg

>  <m_score__min__energy>  (3) 
-13.82

>  <m_primary>  (3) 
energy

$$$$
3:0
     RDKit          3D

 33 35  0  0  0  0  0  0  0  0999 V2000
   56.3970   23.5740   46.4400 C   0  0  0  0  0  0  0  0  0  0  0  0
   56.4330   25.0380   46.1680 C   0  0  0  0  0  0  0  0  0  0  0  0
   57.5260   25.6950   45.7230 N   0  0  0  0  0  0  0  0  0  0  0  0
   57.0540   26.9550   45.6130 C   0  0  0  0  0  0  0  0  0  0  0  0
   57.8730   28.1250   45.1430 C   0  0  0  0  0  0  0  0  0  0  0  0
   57.0300   29.3120   44.5410 C   0  0  2  0  0  0  0  0  0  0  0  0
   55.6940   29.2770   44.9960 O   0  0  0  0  0  0  0  0  0  0  0  0
   56.9900   29.1150   43.0010 C   0  0  0  0  0  0  0  0  0  0  0  0
   56.4070   30.3370   42.2980 C   0  0  0  0  0  0  0  0  0  0  0  0
   57.1960   31.4780   42.6040 O   0  0  0  0  0  0  0  0  0  0  0  0
   57.6990   31.7040   43.8900 C   0  0  0  0  0  0  0  0  0  0  0  0
   58.2590   32.9500   44.1810 C   0  0  0  0  0  0  0  0  0  0  0  0
   58.7170   33.2330   45.4670 C   0  0  0  0  0  0  0  0  0  0  0  0
   58.6000   32.2750   46.4730 C   0  0  0  0  0  0  0  0  0  0  0  0
   58.0540   31.0180   46.1940 C   0  0  0  0  0  0  0  0  0  0  0  0
   57.9110   30.1420   47.2160 F   0  0  0  0  0  0  0  0  0  0  0  0
   57.6410   30.6900   44.8800 C   0  0  0  0  0  0  0  0  0  0  0  0
   55.7580   27.0360   45.9610 N   0  0  0  0  0  0  0  0  0  0  0  0
   55.4010   25.8370   46.2980 O   0  0  0  0  0  0  0  0  0  0  0  0
   56.3928   23.4029   47.5266 H   0  0  0  0  0  0  0  0  0  0  0  0
   55.4879   23.1410   45.9971 H   0  0  0  0  0  0  0  0  0  0  0  0
   57.2837   23.0969   45.9971 H   0  0  0  0  0  0  0  0  0  0  0  0
   58.4456   28.5100   45.9997 H   0  0  0  0  0  0  0  0  0  0  0  0
   58.5138   27.7523   44.3303 H   0  0  0  0  0  0  0  0  0  0  0  0
   55.1540   28.7610   44.3420 H   0  0  0  0  0  0  0  0  0  0  0  0
   58.0136   28.9462   42.6352 H   0  0  0  0  0  0  0  0  0  0  0  0
   56.3483   28.2495   42.7795 H   0  0  0  0  0  0  0  0  0  0  0  0
   56.4086   30.1705   41.2107 H   0  0  0  0  0  0  0  0  0  0  0  0
   55.3749   30.5010   42.6412 H   0  0  0  0  0  0  0  0  0  0  0  0
   58.3391   33.7118   43.3916 H   0  0  0  0  0  0  0  0  0  0  0  0
   59.1700   34.2108   45.6876 H   0  0  0  0  0  0  0  0  0  0  0  0
   58.9393   32.5093   47.4928 H   0  0  0  0  0  0  0  0  0  0  0  0
   55.1450   27.8820   45.9660 H   0  0  0  0  0  0  0  0  0  0  0  0
  1  2  1  0
  2  3  2  0
  3  4  1  0
  4  5  1  0
  5  6  1  0
  6  7  1  1
  6  8  1  0
  8  9  1  0
  9 10  1  0
 10 11  1  0
 11 12  2  0
 12 13  1  0
 13 14  2  0
 14 15  1  0
 15 16  1  0
 15 17  2  0
  4 18  2  0
 18 19  1  0
 19  2  1  0
 17  6  1  0
 17 11  1  0
  1 20  1  0
  1 21  1  0
  1 22  1  0
  5 23  1  0
  5 24  1  0
  7 25  1  0
  8 26  1  0
  8 27  1  0
  9 28  1  0
  9 29  1  0
 12 30  1  0
 13 31  1  0
 14 32  1  0
 18 33  1  0
M  CHG  1  18   1
M  END
>  <UniqueID>  (4) 
4

>  <SMILES>  (4) 
Cc1nc(C[C@]2(O)CCOc3cccc(F)c32)[nH+]o1

>  <Energy>  (4) 
77.16584241867432

>  <Genealogy>  (4) 
Cc1nc(CC2(O)CCOc3cccc(F)c32)[nH+]o1 (protonated)
Cc1nc(C[C@]2(O)CCOc3cccc(F)c32)[nH+]o1 (chirality)
Cc1nc(C[C@]2(O)CCOc3cccc(F)c32)[nH+]o1 (3D coordinates assigned)
Cc1nc(C[C@]2(O)CCOc3cccc(F)c32)[nH+]o1 (nonaromatic ring conformer: 77.16584241867432 kcal/mol)

>  <smiles>  (4) 
Cc1nc(CC2(O)CCOc3cccc(F)c32)no1

>  <score_type>  (4) 
oracle

>  <origin>  (4) 
adg

>  <m_score__min__energy>  (4) 
-6.3799999999999999

>  <m_primary>  (4) 
energy

$$$$
4:0
     RDKit          3D

 47 49  0  0  0  0  0  0  0  0999 V2000
   63.9960   31.6760   49.5110 O   0  0  0  0  0  0  0  0  0  0  0  0
   62.9160   32.1290   49.0490 C   0  0  0  0  0  0  0  0  0  0  0  0
   62.9570   33.3410   48.1540 C   0  0  0  0  0  0  0  0  0  0  0  0
   61.5980   33.8300   47.8700 N   0  0  0  0  0  0  0  0  0  0  0  0
   61.3520   33.8600   46.4210 C   0  0  0  0  0  0  0  0  0  0  0  0
   59.8870   34.0050   46.1410 C   0  0  0  0  0  0  0  0  0  0  0  0
   59.3260   34.3540   44.9190 C   0  0  0  0  0  0  0  0  0  0  0  0
   57.9260   34.3330   44.9330 C   0  0  0  0  0  0  0  0  0  0  0  0
   57.3850   33.9540   46.1560 C   0  0  0  0  0  0  0  0  0  0  0  0
   58.6510   33.6420   47.2190 S   0  0  0  0  0  0  0  0  0  0  0  0
   61.7030   31.4030   49.2970 N   0  0  0  0  0  0  0  0  0  0  0  0
   60.9390   30.6510   48.3450 C   0  0  0  0  0  0  0  0  0  0  0  0
   61.3870   30.4610   47.0260 C   0  0  0  0  0  0  0  0  0  0  0  0
   60.6060   29.7500   46.1120 C   0  0  0  0  0  0  0  0  0  0  0  0
   59.3610   29.2340   46.4990 C   0  0  0  0  0  0  0  0  0  0  0  0
   58.3550   28.3520   45.3540 S   0  0  0  0  0  0  0  0  0  0  0  0
   57.0020   28.1410   45.9750 O   0  0  0  0  0  0  0  0  0  0  0  0
   58.9660   27.0100   45.0650 O   0  0  0  0  0  0  0  0  0  0  0  0
   58.2060   29.2910   43.8820 N   0  0  0  0  0  0  0  0  0  0  0  0
   56.9880   28.9340   43.1200 C   0  0  0  0  0  0  0  0  0  0  0  0
   55.8350   29.9290   43.3430 C   0  0  0  0  0  0  0  0  0  0  0  0
   55.8830   30.4500   44.6520 O   0  0  0  0  0  0  0  0  0  0  0  0
   57.0110   31.2970   44.7990 C   0  0  0  0  0  0  0  0  0  0  0  0
   58.2970   30.7370   44.1470 C   0  0  0  0  0  0  0  0  0  0  0  0
   58.8980   29.4550   47.8020 C   0  0  0  0  0  0  0  0  0  0  0  0
   59.6810   30.1650   48.7170 C   0  0  0  0  0  0  0  0  0  0  0  0
   63.5296   34.1373   48.6520 H   0  0  0  0  0  0  0  0  0  0  0  0
   63.4354   33.0606   47.2040 H   0  0  0  0  0  0  0  0  0  0  0  0
   61.4940   34.7990   48.2540 H   0  0  0  0  0  0  0  0  0  0  0  0
   60.8950   33.2040   48.3260 H   0  0  0  0  0  0  0  0  0  0  0  0
   61.8910   34.7113   45.9797 H   0  0  0  0  0  0  0  0  0  0  0  0
   61.7072   32.9170   45.9799 H   0  0  0  0  0  0  0  0  0  0  0  0
   59.9201   34.6194   44.0321 H   0  0  0  0  0  0  0  0  0  0  0  0
   57.3118   34.5922   44.0580 H   0  0  0  0  0  0  0  0  0  0  0  0
   56.3130   33.8721   46.3888 H   0  0  0  0  0  0  0  0  0  0  0  0
   62.3570   30.8742   46.7124 H   0  0  0  0  0  0  0  0  0  0  0  0
   60.9688   29.5944   45.0853 H   0  0  0  0  0  0  0  0  0  0  0  0
   57.2357   28.9168   42.0484 H   0  0  0  0  0  0  0  0  0  0  0  0
   56.6505   27.9492   43.4753 H   0  0  0  0  0  0  0  0  0  0  0  0
   55.9232   30.7541   42.6209 H   0  0  0  0  0  0  0  0  0  0  0  0
   54.8783   29.4047   43.2021 H   0  0  0  0  0  0  0  0  0  0  0  0
   56.7800   32.2670   44.3346 H   0  0  0  0  0  0  0  0  0  0  0  0
   57.2090   31.3851   45.8774 H   0  0  0  0  0  0  0  0  0  0  0  0
   58.4678   31.2609   43.1950 H   0  0  0  0  0  0  0  0  0  0  0  0
   59.1279   30.8985   44.8495 H   0  0  0  0  0  0  0  0  0  0  0  0
   57.9143   29.0684   48.1068 H   0  0  0  0  0  0  0  0  0  0  0  0
   59.3057   30.3426   49.7356 H   0  0  0  0  0  0  0  0  0  0  0  0
  1  2  2  0
  2  3  1  0
  3  4  1  0
  4  5  1  0
  5  6  1  0
  6  7  2  0
  7  8  1  0
  8  9  2  0
  9 10  1  0
  2 11  1  0
 11 12  1  0
 12 13  2  0
 13 14  1  0
 14 15  2  0
 15 16  1  0
 16 17  2  0
 16 18  2  0
 16 19  1  0
 19 20  1  0
 20 21  1  0
 21 22  1  0
 22 23  1  0
 23 24  1  0
 15 25  1  0
 25 26  2  0
 10  6  1  0
 26 12  1  0
 24 19  1  0
  3 27  1  0
  3 28  1  0
  4 29  1  0
  4 30  1  0
  5 31  1  0
  5 32  1  0
  7 33  1  0
  8 34  1  0
  9 35  1  0
 13 36  1  0
 14 37  1  0
 20 38  1  0
 20 39  1  0
 21 40  1  0
 21 41  1  0
 23 42  1  0
 23 43  1  0
 24 44  1  0
 24 45  1  0
 25 46  1  0
 26 47  1  0
M  CHG  2   4   1  11  -1
M  END
>  <UniqueID>  (5) 
5

>  <SMILES>  (5) 
O=C(C[NH2+]Cc1cccs1)[N-]c1ccc(S(=O)(=O)N2CCOCC2)cc1

>  <Energy>  (5) 
87.11747571142453

>  <Genealogy>  (5) 
O=C(C[NH2+]Cc1cccs1)[N-]c1ccc(S(=O)(=O)N2CCOCC2)cc1 (protonated)
O=C(C[NH2+]Cc1cccs1)[N-]c1ccc(S(=O)(=O)N2CCOCC2)cc1 (3D coordinates assigned)
O=C(C[NH2+]Cc1cccs1)[N-]c1ccc(S(=O)(=O)N2CCOCC2)cc1 (nonaromatic ring conformer: 87.11747571142453 kcal/mol)

>  <smiles>  (5) 
O=C(CNCc1cccs1)Nc1ccc(S(=O)(=O)N2CCOCC2)cc1

>  <score_type>  (5) 
oracle

>  <origin>  (5) 
adg

>  <m_score__min__energy>  (5) 
-8.6300000000000008

>  <m_primary>  (5) 
energy

$$$$
5:0
     RDKit          3D

 40 42  0  0  0  0  0  0  0  0999 V2000
   64.4810   32.7670   48.9650 C   0  0  0  0  0  0  0  0  0  0  0  0
   63.3490   32.6210   47.5990 S   0  0  0  0  0  0  0  0  0  0  0  0
   63.3820   33.8640   46.7540 O   0  0  0  0  0  0  0  0  0  0  0  0
   63.7680   31.4540   46.7520 O   0  0  0  0  0  0  0  0  0  0  0  0
   61.7380   32.3400   48.1820 N   0  0  0  0  0  0  0  0  0  0  0  0
   60.5400   32.7910   47.5250 C   0  0  0  0  0  0  0  0  0  0  0  0
   60.0830   34.1130   47.7680 C   0  0  0  0  0  0  0  0  0  0  0  0
   58.9170   34.6010   47.1530 C   0  0  0  0  0  0  0  0  0  0  0  0
   58.2240   33.7470   46.3000 C   0  0  0  0  0  0  0  0  0  0  0  0
   57.0920   34.0130   45.6250 N   0  0  0  0  0  0  0  0  0  0  0  0
   56.7920   32.8850   44.9420 C   0  0  0  0  0  0  0  0  0  0  0  0
   57.7410   31.8980   45.1910 C   0  0  0  0  0  0  0  0  0  0  0  0
   57.7450   30.5010   44.6410 C   0  0  0  0  0  0  0  0  0  0  0  0
   56.4020   29.8330   44.8030 C   0  0  0  0  0  0  0  0  0  0  0  0
   55.3640   30.4730   44.4870 O   0  0  0  0  0  0  0  0  0  0  0  0
   56.2660   28.4780   45.2550 N   0  0  0  0  0  0  0  0  0  0  0  0
   57.3250   27.6440   45.7380 C   0  0  0  0  0  0  0  0  0  0  0  0
   57.4680   26.3520   45.2180 C   0  0  0  0  0  0  0  0  0  0  0  0
   58.4990   25.5220   45.6700 C   0  0  0  0  0  0  0  0  0  0  0  0
   59.3780   25.9730   46.6570 C   0  0  0  0  0  0  0  0  0  0  0  0
   59.2210   27.2500   47.2040 C   0  0  0  0  0  0  0  0  0  0  0  0
   58.1920   28.0830   46.7520 C   0  0  0  0  0  0  0  0  0  0  0  0
   58.6530   32.4700   46.0580 C   0  0  0  0  0  0  0  0  0  0  0  0
   59.8050   31.9550   46.6510 C   0  0  0  0  0  0  0  0  0  0  0  0
   63.9249   32.6953   49.9113 H   0  0  0  0  0  0  0  0  0  0  0  0
   65.2237   31.9572   48.9139 H   0  0  0  0  0  0  0  0  0  0  0  0
   64.9939   33.7387   48.9139 H   0  0  0  0  0  0  0  0  0  0  0  0
   61.6520   31.8250   49.0870 H   0  0  0  0  0  0  0  0  0  0  0  0
   60.6502   34.7655   48.4481 H   0  0  0  0  0  0  0  0  0  0  0  0
   58.5634   35.6257   47.3400 H   0  0  0  0  0  0  0  0  0  0  0  0
   56.5480   34.9040   45.6300 H   0  0  0  0  0  0  0  0  0  0  0  0
   55.9202   32.7645   44.2822 H   0  0  0  0  0  0  0  0  0  0  0  0
   57.9968   30.5400   43.5709 H   0  0  0  0  0  0  0  0  0  0  0  0
   58.4890   29.9147   45.2003 H   0  0  0  0  0  0  0  0  0  0  0  0
   56.7674   25.9886   44.4517 H   0  0  0  0  0  0  0  0  0  0  0  0
   58.6176   24.5132   45.2477 H   0  0  0  0  0  0  0  0  0  0  0  0
   60.1946   25.3230   47.0044 H   0  0  0  0  0  0  0  0  0  0  0  0
   59.9066   27.5998   47.9898 H   0  0  0  0  0  0  0  0  0  0  0  0
   58.0618   29.0830   47.1913 H   0  0  0  0  0  0  0  0  0  0  0  0
   60.1340   30.9258   46.4449 H   0  0  0  0  0  0  0  0  0  0  0  0
  1  2  1  0
  2  3  2  0
  2  4  2  0
  2  5  1  0
  5  6  1  0
  6  7  2  0
  7  8  1  0
  8  9  2  0
  9 10  1  0
 10 11  1  0
 11 12  2  0
 12 13  1  0
 13 14  1  0
 14 15  2  0
 14 16  1  0
 16 17  1  0
 17 18  2  0
 18 19  1  0
 19 20  2  0
 20 21  1  0
 21 22  2  0
 12 23  1  0
 23 24  2  0
 24  6  1  0
 23  9  1  0
 22 17  1  0
  1 25  1  0
  1 26  1  0
  1 27  1  0
  5 28  1  0
  7 29  1  0
  8 30  1  0
 10 31  1  0
 11 32  1  0
 13 33  1  0
 13 34  1  0
 18 35  1  0
 19 36  1  0
 20 37  1  0
 21 38  1  0
 22 39  1  0
 24 40  1  0
M  CHG  1  16  -1
M  END
>  <UniqueID>  (6) 
6

>  <SMILES>  (6) 
CS(=O)(=O)Nc1ccc2[nH]cc(CC(=O)[N-]c3ccccc3)c2c1

>  <Energy>  (6) 
75.5705610556886

>  <Genealogy>  (6) 
CS(=O)(=O)Nc1ccc2[nH]cc(CC(=O)[N-]c3ccccc3)c2c1 (protonated)
CS(=O)(=O)Nc1ccc2[nH]cc(CC(=O)[N-]c3ccccc3)c2c1 (3D coordinates assigned)
CS(=O)(=O)Nc1ccc2[nH]cc(CC(=O)[N-]c3ccccc3)c2c1 (optimized conformer: 75.5705610556886 kcal/mol)

>  <smiles>  (6) 
CS(=O)(=O)Nc1ccc2[nH]cc(CC(=O)Nc3ccccc3)c2c1

>  <score_type>  (6) 
oracle

>  <origin>  (6) 
adg

>  <m_score__min__energy>  (6) 
-10.109999999999999

>  <m_primary>  (6) 
energy

$$$$
6:0
     RDKit          3D

 46 48  0  0  0  0  0  0  0  0999 V2000
   54.8760   23.1570   48.1460 N   0  0  0  0  0  0  0  0  0  0  0  0
   56.4860   22.7000   47.7160 S   0  0  0  0  0  0  0  0  0  0  0  0
   56.8630   21.4390   48.4400 O   0  0  0  0  0  0  0  0  0  0  0  0
   57.4220   23.7980   48.1380 O   0  0  0  0  0  0  0  0  0  0  0  0
   56.5960   22.4420   45.9670 C   0  0  0  0  0  0  0  0  0  0  0  0
   56.2190   21.1980   45.4320 C   0  0  0  0  0  0  0  0  0  0  0  0
   56.3120   20.9580   44.0590 C   0  0  0  0  0  0  0  0  0  0  0  0
   56.7830   21.9550   43.2050 C   0  0  0  0  0  0  0  0  0  0  0  0
   57.1590   23.1960   43.7190 C   0  0  0  0  0  0  0  0  0  0  0  0
   57.0640   23.4540   45.0950 C   0  0  0  0  0  0  0  0  0  0  0  0
   57.4620   24.7860   45.5900 C   0  0  0  0  0  0  0  0  0  0  0  0
   58.8160   25.1450   45.6010 C   0  0  0  0  0  0  0  0  0  0  0  0
   59.2060   26.4050   46.0610 C   0  0  0  0  0  0  0  0  0  0  0  0
   58.2470   27.3320   46.4840 C   0  0  0  0  0  0  0  0  0  0  0  0
   58.6780   28.6060   46.9740 N   0  0  0  0  0  0  0  0  0  0  0  0
   58.8940   29.7830   46.1820 C   0  0  0  0  0  0  0  0  0  0  0  0
   59.6330   30.6930   46.6410 O   0  0  0  0  0  0  0  0  0  0  0  0
   58.3470   29.9150   44.7840 C   0  0  0  0  0  0  0  0  0  0  0  0
   56.9320   30.4310   44.7970 C   0  0  0  0  0  0  0  0  0  0  0  0
   55.9790   29.6070   44.8450 O   0  0  0  0  0  0  0  0  0  0  0  0
   56.6330   31.8310   44.8870 N   0  0  0  0  0  0  0  0  0  0  0  0
   57.5200   32.8630   45.3380 C   0  0  0  0  0  0  0  0  0  0  0  0
   57.5810   33.2300   46.6940 C   0  0  0  0  0  0  0  0  0  0  0  0
   58.4750   34.2180   47.1150 C   0  0  0  0  0  0  0  0  0  0  0  0
   59.3260   34.8320   46.1910 C   0  0  0  0  0  0  0  0  0  0  0  0
   59.2920   34.4490   44.8480 C   0  0  0  0  0  0  0  0  0  0  0  0
   58.3980   33.4600   44.4230 C   0  0  0  0  0  0  0  0  0  0  0  0
   58.3770   33.0930   43.1180 F   0  0  0  0  0  0  0  0  0  0  0  0
   56.8920   26.9680   46.4920 C   0  0  0  0  0  0  0  0  0  0  0  0
   56.4930   25.7050   46.0320 C   0  0  0  0  0  0  0  0  0  0  0  0
   55.1420   25.3590   46.0140 O   0  0  0  0  0  0  0  0  0  0  0  0
   54.5190   23.7730   47.3820 H   0  0  0  0  0  0  0  0  0  0  0  0
   55.8477   20.4069   46.1001 H   0  0  0  0  0  0  0  0  0  0  0  0
   56.0133   19.9812   43.6508 H   0  0  0  0  0  0  0  0  0  0  0  0
   56.8581   21.7624   42.1246 H   0  0  0  0  0  0  0  0  0  0  0  0
   57.5325   23.9776   43.0411 H   0  0  0  0  0  0  0  0  0  0  0  0
   59.5749   24.4321   45.2461 H   0  0  0  0  0  0  0  0  0  0  0  0
   60.2732   26.6700   46.0909 H   0  0  0  0  0  0  0  0  0  0  0  0
   58.9784   30.6146   44.2166 H   0  0  0  0  0  0  0  0  0  0  0  0
   58.3497   28.9202   44.3145 H   0  0  0  0  0  0  0  0  0  0  0  0
   56.9231   32.7380   47.4255 H   0  0  0  0  0  0  0  0  0  0  0  0
   58.5093   34.5129   48.1742 H   0  0  0  0  0  0  0  0  0  0  0  0
   60.0224   35.6167   46.5216 H   0  0  0  0  0  0  0  0  0  0  0  0
   59.9689   34.9255   44.1236 H   0  0  0  0  0  0  0  0  0  0  0  0
   56.1377   27.6782   46.8616 H   0  0  0  0  0  0  0  0  0  0  0  0
   54.7240   24.8170   46.7610 H   0  0  0  0  0  0  0  0  0  0  0  0
  1  2  1  0
  2  3  2  0
  2  4  2  0
  2  5  1  0
  5  6  2  0
  6  7  1  0
  7  8  2  0
  8  9  1  0
  9 10  2  0
 10 11  1  0
 11 12  2  0
 12 13  1  0
 13 14  2  0
 14 15  1  0
 15 16  1  0
 16 17  2  0
 16 18  1  0
 18 19  1  0
 19 20  2  0
 19 21  1  0
 21 22  1  0
 22 23  2  0
 23 24  1  0
 24 25  2  0
 25 26  1  0
 26 27  2  0
 27 28  1  0
 14 29  1  0
 29 30  2  0
 30 31  1  0
 10  5  1  0
 30 11  1  0
 27 22  1  0
  1 32  1  0
  6 33  1  0
  7 34  1  0
  8 35  1  0
  9 36  1  0
 12 37  1  0
 13 38  1  0
 18 39  1  0
 18 40  1  0
 23 41  1  0
 24 42  1  0
 25 43  1  0
 26 44  1  0
 29 45  1  0
 31 46  1  0
M  CHG  3   1  -1  15  -1  21  -1
M  END
>  <UniqueID>  (7) 
7

>  <SMILES>  (7) 
[NH-]S(=O)(=O)c1ccccc1-c1ccc([N-]C(=O)CC(=O)[N-]c2ccccc2F)cc1O

>  <Energy>  (7) 
66.83159072308297

>  <Genealogy>  (7) 
[NH-]S(=O)(=O)c1ccccc1-c1ccc([N-]C(=O)CC(=O)[N-]c2ccccc2F)cc1O (protonated)
[NH-]S(=O)(=O)c1ccccc1-c1ccc([N-]C(=O)CC(=O)[N-]c2ccccc2F)cc1O (3D coordinates assigned)
[NH-]S(=O)(=O)c1ccccc1-c1ccc([N-]C(=O)CC(=O)[N-]c2ccccc2F)cc1O (optimized conformer: 66.83159072308297 kcal/mol)

>  <smiles>  (7) 
NS(=O)(=O)c1ccccc1-c1ccc(NC(=O)CC(=O)Nc2ccccc2F)cc1O

>  <score_type>  (7) 
oracle

>  <origin>  (7) 
adg

>  <m_score__min__energy>  (7) 
-12.84

>  <m_primary>  (7) 
energy

$$$$
7:0
     RDKit          3D

 49 49  0  0  0  0  0  0  0  0999 V2000
   54.0530   25.0960   45.6220 C   0  0  0  0  0  0  0  0  0  0  0  0
   54.8360   26.2730   45.9610 N   0  0  0  0  0  0  0  0  0  0  0  0
   56.2630   26.2450   46.0140 C   0  0  0  0  0  0  0  0  0  0  0  0
   56.8430   26.4390   47.1160 O   0  0  0  0  0  0  0  0  0  0  0  0
   57.0020   26.0060   44.8490 O   0  0  0  0  0  0  0  0  0  0  0  0
   57.8120   26.9960   44.2210 C   0  0  0  0  0  0  0  0  0  0  0  0
   58.4410   27.8910   45.2590 C   0  0  0  0  0  0  0  0  0  0  0  0
   59.4320   27.5110   46.1560 C   0  0  0  0  0  0  0  0  0  0  0  0
   60.1460   26.1870   46.2060 C   0  0  0  0  0  0  0  0  0  0  0  0
   59.2230   25.1320   46.4750 O   0  0  0  0  0  0  0  0  0  0  0  0
   59.1470   23.9660   45.7080 C   0  0  0  0  0  0  0  0  0  0  0  0
   60.1450   23.2010   45.6040 O   0  0  0  0  0  0  0  0  0  0  0  0
   57.9180   23.6440   45.0450 N   0  0  0  0  0  0  0  0  0  0  0  0
   57.7590   22.4440   44.2190 C   0  0  0  0  0  0  0  0  0  0  0  0
   57.4540   21.2290   45.1010 C   0  0  0  0  0  0  0  0  0  0  0  0
   56.6400   22.6550   43.1950 C   0  0  0  0  0  0  0  0  0  0  0  0
   59.6210   28.5830   47.0160 C   0  0  0  0  0  0  0  0  0  0  0  0
   60.6070   28.6320   48.1490 C   0  0  0  0  0  0  0  0  0  0  0  0
   58.8160   29.6100   46.6580 N   0  0  0  0  0  0  0  0  0  0  0  0
   58.7410   30.9200   47.3110 C   0  0  0  0  0  0  0  0  0  0  0  0
   58.0760   29.1910   45.6020 C   0  0  0  0  0  0  0  0  0  0  0  0
   57.0350   30.0060   44.9400 C   0  0  0  0  0  0  0  0  0  0  0  0
   55.8260   29.6590   45.0130 O   0  0  0  0  0  0  0  0  0  0  0  0
   57.3920   31.1690   44.2510 O   0  0  0  0  0  0  0  0  0  0  0  0
   57.3800   32.4550   44.8580 C   0  0  0  0  0  0  0  0  0  0  0  0
   53.7216   24.5978   46.5450 H   0  0  0  0  0  0  0  0  0  0  0  0
   53.1747   25.3973   45.0322 H   0  0  0  0  0  0  0  0  0  0  0  0
   54.6703   24.4023   45.0322 H   0  0  0  0  0  0  0  0  0  0  0  0
   58.6042   26.5017   43.6396 H   0  0  0  0  0  0  0  0  0  0  0  0
   57.1822   27.6055   43.5563 H   0  0  0  0  0  0  0  0  0  0  0  0
   60.6349   26.0024   45.2381 H   0  0  0  0  0  0  0  0  0  0  0  0
   60.8964   26.2172   47.0097 H   0  0  0  0  0  0  0  0  0  0  0  0
   57.1040   24.2830   45.1970 H   0  0  0  0  0  0  0  0  0  0  0  0
   58.6994   22.2567   43.6800 H   0  0  0  0  0  0  0  0  0  0  0  0
   57.5264   21.5173   46.1601 H   0  0  0  0  0  0  0  0  0  0  0  0
   56.4372   20.8673   44.8881 H   0  0  0  0  0  0  0  0  0  0  0  0
   58.1794   20.4300   44.8881 H   0  0  0  0  0  0  0  0  0  0  0  0
   55.6906   22.8340   43.7210 H   0  0  0  0  0  0  0  0  0  0  0  0
   56.8792   23.5239   42.5642 H   0  0  0  0  0  0  0  0  0  0  0  0
   56.5464   21.7587   42.5642 H   0  0  0  0  0  0  0  0  0  0  0  0
   60.0666   28.6051   49.1067 H   0  0  0  0  0  0  0  0  0  0  0  0
   61.2826   27.7663   48.0848 H   0  0  0  0  0  0  0  0  0  0  0  0
   61.1935   29.5604   48.0848 H   0  0  0  0  0  0  0  0  0  0  0  0
   58.7486   30.7864   48.4028 H   0  0  0  0  0  0  0  0  0  0  0  0
   59.6057   31.5297   47.0101 H   0  0  0  0  0  0  0  0  0  0  0  0
   57.8124   31.4270   47.0101 H   0  0  0  0  0  0  0  0  0  0  0  0
   57.3810   32.3439   45.9524 H   0  0  0  0  0  0  0  0  0  0  0  0
   58.2729   33.0163   44.5456 H   0  0  0  0  0  0  0  0  0  0  0  0
   56.4767   32.9995   44.5456 H   0  0  0  0  0  0  0  0  0  0  0  0
  1  2  1  0
  2  3  1  0
  3  4  2  0
  3  5  1  0
  5  6  1  0
  6  7  1  0
  7  8  1  0
  8  9  1  0
  9 10  1  0
 10 11  1  0
 11 12  2  0
 11 13  1  0
 13 14  1  0
 14 15  1  0
 14 16  1  0
  8 17  2  0
 17 18  1  0
 17 19  1  0
 19 20  1  0
 19 21  1  0
 21 22  1  0
 22 23  2  0
 22 24  1  0
 24 25  1  0
 21  7  2  0
  1 26  1  0
  1 27  1  0
  1 28  1  0
  6 29  1  0
  6 30  1  0
  9 31  1  0
  9 32  1  0
 13 33  1  0
 14 34  1  0
 15 35  1  0
 15 36  1  0
 15 37  1  0
 16 38  1  0
 16 39  1  0
 16 40  1  0
 18 41  1  0
 18 42  1  0
 18 43  1  0
 20 44  1  0
 20 45  1  0
 20 46  1  0
 25 47  1  0
 25 48  1  0
 25 49  1  0
M  CHG  1   2  -1
M  END
>  <UniqueID>  (8) 
8

>  <SMILES>  (8) 
C[N-]C(=O)OCc1c(COC(=O)NC(C)C)c(C)n(C)c1C(=O)OC

>  <Energy>  (8) 
59.316279425458816

>  <Genealogy>  (8) 
C[N-]C(=O)OCc1c(COC(=O)NC(C)C)c(C)n(C)c1C(=O)OC (protonated)
C[N-]C(=O)OCc1c(COC(=O)NC(C)C)c(C)n(C)c1C(=O)OC (3D coordinates assigned)
C[N-]C(=O)OCc1c(COC(=O)NC(C)C)c(C)n(C)c1C(=O)OC (optimized conformer: 59.316279425458816 kcal/mol)

>  <smiles>  (8) 
CNC(=O)OCc1c(COC(=O)NC(C)C)c(C)n(C)c1C(=O)OC

>  <score_type>  (8) 
oracle

>  <origin>  (8) 
adg

>  <m_score__min__energy>  (8) 
-8.5500000000000007

>  <m_primary>  (8) 
energy

$$$$
8:0
     RDKit          3D

 49 51  0  0  0  0  0  0  0  0999 V2000
   58.9370   26.3870   47.6310 O   0  0  0  0  0  0  0  0  0  0  0  0
   59.0280   27.5510   47.1530 C   0  0  0  0  0  0  0  0  0  0  0  0
   59.0160   28.6850   48.0290 N   0  0  0  0  0  0  0  0  0  0  0  0
   59.7550   28.7480   49.2820 C   0  0  0  0  0  0  0  0  0  0  0  0
   59.7380   30.1820   49.8250 C   0  0  0  0  0  0  0  0  0  0  0  0
   60.7020   31.0670   49.0690 C   0  0  0  0  0  0  0  0  0  0  0  0
   61.2750   30.6240   47.8670 C   0  0  0  0  0  0  0  0  0  0  0  0
   62.1020   31.4760   47.1270 C   0  0  0  0  0  0  0  0  0  0  0  0
   62.3580   32.7760   47.5780 C   0  0  0  0  0  0  0  0  0  0  0  0
   63.3810   33.8500   46.6340 Cl  0  0  0  0  0  0  0  0  0  0  0  0
   61.7910   33.2220   48.7760 C   0  0  0  0  0  0  0  0  0  0  0  0
   60.9670   32.3710   49.5180 C   0  0  0  0  0  0  0  0  0  0  0  0
   59.1950   27.7280   45.6610 C   0  0  1  0  0  0  0  0  0  0  0  0
   58.2510   26.8070   44.8450 C   0  0  0  0  0  0  0  0  0  0  0  0
   58.1210   27.3090   43.4090 C   0  0  0  0  0  0  0  0  0  0  0  0
   57.4140   28.6700   43.3980 C   0  0  0  0  0  0  0  0  0  0  0  0
   57.8070   29.5030   44.5480 N   0  0  0  0  0  0  0  0  0  0  0  0
   57.1340   30.7650   44.7370 C   0  0  0  0  0  0  0  0  0  0  0  0
   55.8850   30.8260   44.5800 O   0  0  0  0  0  0  0  0  0  0  0  0
   57.8790   31.9900   45.1230 C   0  0  0  0  0  0  0  0  0  0  0  0
   58.1140   32.9960   44.1720 C   0  0  0  0  0  0  0  0  0  0  0  0
   58.7940   34.1650   44.5270 C   0  0  0  0  0  0  0  0  0  0  0  0
   59.2860   34.3230   45.8220 C   0  0  0  0  0  0  0  0  0  0  0  0
   59.0860   33.3210   46.7720 C   0  0  0  0  0  0  0  0  0  0  0  0
   58.3760   32.1590   46.4350 C   0  0  0  0  0  0  0  0  0  0  0  0
   58.1510   31.1850   47.4080 O   0  0  0  0  0  0  0  0  0  0  0  0
   59.0680   29.2230   45.2570 C   0  0  0  0  0  0  0  0  0  0  0  0
   59.2878   28.0744   50.0155 H   0  0  0  0  0  0  0  0  0  0  0  0
   60.7959   28.4395   49.1050 H   0  0  0  0  0  0  0  0  0  0  0  0
   58.7219   30.5911   49.7245 H   0  0  0  0  0  0  0  0  0  0  0  0
   60.0449   30.1570   50.8810 H   0  0  0  0  0  0  0  0  0  0  0  0
   61.0735   29.6047   47.5059 H   0  0  0  0  0  0  0  0  0  0  0  0
   62.5525   31.1230   46.1876 H   0  0  0  0  0  0  0  0  0  0  0  0
   61.9934   34.2421   49.1343 H   0  0  0  0  0  0  0  0  0  0  0  0
   60.5231   32.7251   50.4601 H   0  0  0  0  0  0  0  0  0  0  0  0
   60.2158   27.4078   45.4051 H   0  0  0  0  0  0  0  0  0  0  0  0
   58.6609   25.7863   44.8356 H   0  0  0  0  0  0  0  0  0  0  0  0
   57.2563   26.8129   45.3145 H   0  0  0  0  0  0  0  0  0  0  0  0
   59.1226   27.4139   42.9665 H   0  0  0  0  0  0  0  0  0  0  0  0
   57.5315   26.5881   42.8235 H   0  0  0  0  0  0  0  0  0  0  0  0
   57.6757   29.1991   42.4698 H   0  0  0  0  0  0  0  0  0  0  0  0
   56.3304   28.4916   43.4610 H   0  0  0  0  0  0  0  0  0  0  0  0
   57.7601   32.8633   43.1390 H   0  0  0  0  0  0  0  0  0  0  0  0
   58.9411   34.9618   43.7830 H   0  0  0  0  0  0  0  0  0  0  0  0
   59.8321   35.2381   46.0948 H   0  0  0  0  0  0  0  0  0  0  0  0
   59.4866   33.4426   47.7892 H   0  0  0  0  0  0  0  0  0  0  0  0
   58.7070   30.3380   47.4530 H   0  0  0  0  0  0  0  0  0  0  0  0
   59.9099   29.4849   44.5992 H   0  0  0  0  0  0  0  0  0  0  0  0
   59.0778   29.8237   46.1784 H   0  0  0  0  0  0  0  0  0  0  0  0
  1  2  2  0
  2  3  1  0
  3  4  1  0
  4  5  1  0
  5  6  1  0
  6  7  2  0
  7  8  1  0
  8  9  2  0
  9 10  1  0
  9 11  1  0
 11 12  2  0
  2 13  1  0
 13 14  1  0
 14 15  1  0
 15 16  1  0
 16 17  1  0
 17 18  1  0
 18 19  2  0
 18 20  1  0
 20 21  2  0
 21 22  1  0
 22 23  2  0
 23 24  1  0
 24 25  2  0
 25 26  1  0
 17 27  1  0
 12  6  1  0
 27 13  1  0
 25 20  1  0
  4 28  1  0
  4 29  1  0
  5 30  1  0
  5 31  1  0
  7 32  1  0
  8 33  1  0
 11 34  1  0
 12 35  1  0
 13 36  1  6
 14 37  1  0
 14 38  1  0
 15 39  1  0
 15 40  1  0
 16 41  1  0
 16 42  1  0
 21 43  1  0
 22 44  1  0
 23 45  1  0
 24 46  1  0
 26 47  1  0
 27 48  1  0
 27 49  1  0
M  CHG  1   3  -1
M  END
>  <UniqueID>  (9) 
9

>  <SMILES>  (9) 
O=C([N-]CCc1ccc(Cl)cc1)[C@H]1CCCN(C(=O)c2ccccc2O)C1

>  <Energy>  (9) 
49.319931369622395

>  <Genealogy>  (9) 
O=C([N-]CCc1ccc(Cl)cc1)C1CCCN(C(=O)c2ccccc2O)C1 (protonated)
O=C([N-]CCc1ccc(Cl)cc1)[C@H]1CCCN(C(=O)c2ccccc2O)C1 (chirality)
O=C([N-]CCc1ccc(Cl)cc1)[C@H]1CCCN(C(=O)c2ccccc2O)C1 (3D coordinates assigned)
O=C([N-]CCc1ccc(Cl)cc1)[C@H]1CCCN(C(=O)c2ccccc2O)C1 (nonaromatic ring conformer: 49.319931369622395 kcal/mol)

>  <smiles>  (9) 
O=C(NCCc1ccc(Cl)cc1)C1CCCN(C(=O)c2ccccc2O)C1

>  <score_type>  (9) 
oracle

>  <origin>  (9) 
adg

>  <m_score__min__energy>  (9) 
-12.6

>  <m_primary>  (9) 
energy

$$$$
9:0
     RDKit          3D

 50 53  0  0  0  0  0  0  0  0999 V2000
   56.2850   30.4720   44.4870 N   0  0  0  0  0  0  0  0  0  0  0  0
   57.3140   30.6190   44.9940 C   0  0  0  0  0  0  0  0  0  0  0  0
   58.5940   30.8030   45.6270 C   0  0  0  0  0  0  0  0  0  0  0  0
   59.5390   29.7880   45.7540 C   0  0  0  0  0  0  0  0  0  0  0  0
   59.3630   28.4340   45.3040 N   0  0  0  0  0  0  0  0  0  0  0  0
   58.5770   27.4540   45.9990 C   0  0  0  0  0  0  0  0  0  0  0  0
   58.5330   27.4660   47.6430 S   0  0  0  0  0  0  0  0  0  0  0  0
   58.1160   26.3040   45.2710 N   0  0  0  0  0  0  0  0  0  0  0  0
   57.0670   25.4190   45.7220 C   0  0  0  0  0  0  0  0  0  0  0  0
   56.3670   25.7410   46.7220 O   0  0  0  0  0  0  0  0  0  0  0  0
   56.8020   24.1180   45.0490 C   0  0  0  0  0  0  0  0  0  0  0  0
   56.5430   24.1050   43.6640 C   0  0  0  0  0  0  0  0  0  0  0  0
   56.2700   22.9080   43.0000 C   0  0  0  0  0  0  0  0  0  0  0  0
   56.2630   21.7060   43.7030 C   0  0  0  0  0  0  0  0  0  0  0  0
   55.9750   20.5210   43.0390 O   0  0  0  0  0  0  0  0  0  0  0  0
   56.5440   21.6970   45.0730 C   0  0  0  0  0  0  0  0  0  0  0  0
   56.8170   22.8910   45.7450 C   0  0  0  0  0  0  0  0  0  0  0  0
   60.8900   30.3930   46.5600 S   0  0  0  0  0  0  0  0  0  0  0  0
   60.2940   31.9550   46.7270 C   0  0  0  0  0  0  0  0  0  0  0  0
   59.0430   32.0330   46.1410 C   0  0  0  0  0  0  0  0  0  0  0  0
   58.2680   33.3120   46.1290 C   0  0  0  0  0  0  0  0  0  0  0  0
   59.2010   34.5290   46.2740 C   0  0  0  0  0  0  0  0  0  0  0  0
   60.2300   34.3530   47.3230 N   0  0  0  0  0  0  0  0  0  0  0  0
   59.8930   34.8370   48.6720 C   0  0  0  0  0  0  0  0  0  0  0  0
   59.6610   33.7310   49.6700 C   0  0  0  0  0  0  0  0  0  0  0  0
   58.6970   32.7340   49.4280 C   0  0  0  0  0  0  0  0  0  0  0  0
   58.5470   31.6630   50.3190 C   0  0  0  0  0  0  0  0  0  0  0  0
   59.3470   31.5830   51.4630 C   0  0  0  0  0  0  0  0  0  0  0  0
   60.2920   32.5790   51.7240 C   0  0  0  0  0  0  0  0  0  0  0  0
   60.4510   33.6460   50.8330 C   0  0  0  0  0  0  0  0  0  0  0  0
   61.0550   33.1310   47.2420 C   0  0  0  0  0  0  0  0  0  0  0  0
   59.8380   28.1420   44.4180 H   0  0  0  0  0  0  0  0  0  0  0  0
   58.5790   26.1270   44.3530 H   0  0  0  0  0  0  0  0  0  0  0  0
   56.5561   25.0491   43.0996 H   0  0  0  0  0  0  0  0  0  0  0  0
   56.0602   22.9142   41.9202 H   0  0  0  0  0  0  0  0  0  0  0  0
   56.5501   20.7451   45.6242 H   0  0  0  0  0  0  0  0  0  0  0  0
   57.0446   22.8743   46.8211 H   0  0  0  0  0  0  0  0  0  0  0  0
   57.7202   33.3909   45.1784 H   0  0  0  0  0  0  0  0  0  0  0  0
   57.5698   33.3046   46.9790 H   0  0  0  0  0  0  0  0  0  0  0  0
   59.7075   34.6978   45.3122 H   0  0  0  0  0  0  0  0  0  0  0  0
   58.5772   35.3859   46.5684 H   0  0  0  0  0  0  0  0  0  0  0  0
   60.7217   35.4635   49.0337 H   0  0  0  0  0  0  0  0  0  0  0  0
   58.9505   35.3977   48.5872 H   0  0  0  0  0  0  0  0  0  0  0  0
   58.0581   32.7961   48.5347 H   0  0  0  0  0  0  0  0  0  0  0  0
   57.7978   30.8830   50.1179 H   0  0  0  0  0  0  0  0  0  0  0  0
   59.2327   30.7371   52.1568 H   0  0  0  0  0  0  0  0  0  0  0  0
   60.9117   32.5240   52.6312 H   0  0  0  0  0  0  0  0  0  0  0  0
   61.1990   34.4248   51.0425 H   0  0  0  0  0  0  0  0  0  0  0  0
   61.9035   33.3233   46.5688 H   0  0  0  0  0  0  0  0  0  0  0  0
   61.3908   32.8889   48.2611 H   0  0  0  0  0  0  0  0  0  0  0  0
  1  2  3  0
  2  3  1  0
  3  4  2  0
  4  5  1  0
  5  6  1  0
  6  7  2  0
  6  8  1  0
  8  9  1  0
  9 10  2  0
  9 11  1  0
 11 12  2  0
 12 13  1  0
 13 14  2  0
 14 15  1  0
 14 16  1  0
 16 17  2  0
  4 18  1  0
 18 19  1  0
 19 20  2  0
 20 21  1  0
 21 22  1  0
 22 23  1  0
 23 24  1  0
 24 25  1  0
 25 26  2  0
 26 27  1  0
 27 28  2  0
 28 29  1  0
 29 30  2  0
 23 31  1  0
 20  3  1  0
 30 25  1  0
 17 11  1  0
 31 19  1  0
  5 32  1  0
  8 33  1  0
 12 34  1  0
 13 35  1  0
 16 36  1  0
 17 37  1  0
 21 38  1  0
 21 39  1  0
 22 40  1  0
 22 41  1  0
 24 42  1  0
 24 43  1  0
 26 44  1  0
 27 45  1  0
 28 46  1  0
 29 47  1  0
 30 48  1  0
 31 49  1  0
 31 50  1  0
M  CHG  1  15  -1
M  END
>  <UniqueID>  (10) 
10

>  <SMILES>  (10) 
N#Cc1c(NC(=S)NC(=O)c2ccc([O-])cc2)sc2c1CCN(Cc1ccccc1)C2

>  <Energy>  (10) 
101.88503211280927

>  <Genealogy>  (10) 
N#Cc1c(NC(=S)NC(=O)c2ccc([O-])cc2)sc2c1CCN(Cc1ccccc1)C2 (protonated)
N#Cc1c(NC(=S)NC(=O)c2ccc([O-])cc2)sc2c1CCN(Cc1ccccc1)C2 (3D coordinates assigned)
N#Cc1c(NC(=S)NC(=O)c2ccc([O-])cc2)sc2c1CCN(Cc1ccccc1)C2 (nonaromatic ring conformer: 101.88503211280927 kcal/mol)

>  <smiles>  (10) 
N#Cc1c(NC(=S)NC(=O)c2ccc(O)cc2)sc2c1CCN(Cc1ccccc1)C2

>  <score_type>  (10) 
oracle

>  <origin>  (10) 
adg

>  <m_score__min__energy>  (10) 
-11.06

>  <m_primary>  (10) 
energy

$$$$
10:0
     RDKit          3D

 42 44  0  0  0  0  0  0  0  0999 V2000
   57.3880   33.6130   46.3300 C   0  0  0  0  0  0  0  0  0  0  0  0
   59.0520   34.2300   46.1840 S   0  0  0  0  0  0  0  0  0  0  0  0
   59.2530   34.7470   44.7880 O   0  0  0  0  0  0  0  0  0  0  0  0
   59.2820   35.3540   47.1550 O   0  0  0  0  0  0  0  0  0  0  0  0
   60.1880   32.9520   46.4730 N   0  0  0  0  0  0  0  0  0  0  0  0
   59.9210   31.7390   47.1900 C   0  0  0  0  0  0  0  0  0  0  0  0
   59.2760   31.7280   48.4400 C   0  0  0  0  0  0  0  0  0  0  0  0
   59.0400   30.5190   49.0990 C   0  0  0  0  0  0  0  0  0  0  0  0
   59.4340   29.3120   48.5170 C   0  0  0  0  0  0  0  0  0  0  0  0
   60.0630   29.3050   47.2630 C   0  0  0  0  0  0  0  0  0  0  0  0
   60.4850   28.0040   46.6300 C   0  0  0  0  0  0  0  0  0  0  0  0
   59.5290   26.9340   46.9310 N   0  0  0  0  0  0  0  0  0  0  0  0
   58.2650   26.8900   46.6080 C   0  0  0  0  0  0  0  0  0  0  0  0
   57.5270   25.7530   46.9530 C   0  0  0  0  0  0  0  0  0  0  0  0
   56.1680   25.6880   46.6450 C   0  0  0  0  0  0  0  0  0  0  0  0
   55.5660   26.7210   46.0000 N   0  0  0  0  0  0  0  0  0  0  0  0
   56.2510   27.8320   45.6210 C   0  0  0  0  0  0  0  0  0  0  0  0
   55.5360   28.8980   44.9790 N   0  0  0  0  0  0  0  0  0  0  0  0
   56.0620   29.8470   44.0440 C   0  0  0  0  0  0  0  0  0  0  0  0
   55.7700   29.7140   42.8250 O   0  0  0  0  0  0  0  0  0  0  0  0
   57.0100   30.9360   44.4860 C   0  0  0  0  0  0  0  0  0  0  0  0
   57.5940   31.7570   43.3450 C   0  0  0  0  0  0  0  0  0  0  0  0
   58.4780   30.7780   44.1000 C   0  0  0  0  0  0  0  0  0  0  0  0
   57.6140   27.9450   45.9380 C   0  0  0  0  0  0  0  0  0  0  0  0
   60.3210   30.5250   46.6170 C   0  0  0  0  0  0  0  0  0  0  0  0
   57.1251   33.5155   47.3937 H   0  0  0  0  0  0  0  0  0  0  0  0
   56.6932   34.3133   45.8433 H   0  0  0  0  0  0  0  0  0  0  0  0
   57.3178   32.6291   45.8433 H   0  0  0  0  0  0  0  0  0  0  0  0
   58.9563   32.6746   48.9002 H   0  0  0  0  0  0  0  0  0  0  0  0
   58.5421   30.5176   50.0798 H   0  0  0  0  0  0  0  0  0  0  0  0
   59.2505   28.3638   49.0436 H   0  0  0  0  0  0  0  0  0  0  0  0
   60.5428   28.1375   45.5397 H   0  0  0  0  0  0  0  0  0  0  0  0
   61.4662   27.7198   47.0382 H   0  0  0  0  0  0  0  0  0  0  0  0
   58.0170   24.9122   47.4659 H   0  0  0  0  0  0  0  0  0  0  0  0
   55.5832   24.7993   46.9247 H   0  0  0  0  0  0  0  0  0  0  0  0
   56.4865   31.1442   45.4308 H   0  0  0  0  0  0  0  0  0  0  0  0
   57.2989   31.5431   42.3071 H   0  0  0  0  0  0  0  0  0  0  0  0
   57.6487   32.8300   43.1092 H   0  0  0  0  0  0  0  0  0  0  0  0
   58.8215   29.8555   43.6090 H   0  0  0  0  0  0  0  0  0  0  0  0
   59.4356   30.8487   44.6367 H   0  0  0  0  0  0  0  0  0  0  0  0
   58.1713   28.8531   45.6646 H   0  0  0  0  0  0  0  0  0  0  0  0
   60.8436   30.5273   45.6491 H   0  0  0  0  0  0  0  0  0  0  0  0
  1  2  1  0
  2  3  2  0
  2  4  2  0
  2  5  1  0
  5  6  1  0
  6  7  2  0
  7  8  1  0
  8  9  2  0
  9 10  1  0
 10 11  1  0
 11 12  1  0
 12 13  2  3
 13 14  1  0
 14 15  2  0
 15 16  1  0
 16 17  1  0
 17 18  1  0
 18 19  1  0
 19 20  2  0
 19 21  1  0
 21 22  1  0
 22 23  1  0
 17 24  2  0
 10 25  2  0
 25  6  1  0
 24 13  1  0
 23 21  1  0
  1 26  1  0
  1 27  1  0
  1 28  1  0
  7 29  1  0
  8 30  1  0
  9 31  1  0
 11 32  1  0
 11 33  1  0
 14 34  1  0
 15 35  1  0
 21 36  1  0
 22 37  1  0
 22 38  1  0
 23 39  1  0
 23 40  1  0
 24 41  1  0
 25 42  1  0
M  CHG  3   5  -1  16  -1  18  -1
M  END
>  <UniqueID>  (11) 
11

>  <SMILES>  (11) 
CS(=O)(=O)[N-]c1cccc(CN=c2cc[n-]c([N-]C(=O)C3CC3)c2)c1

>  <Energy>  (11) 
311.60160641623116

>  <Genealogy>  (11) 
CS(=O)(=O)[N-]c1cccc(CN=c2cc[n-]c([N-]C(=O)C3CC3)c2)c1 (protonated)
CS(=O)(=O)[N-]c1cccc(CN=c2cc[n-]c([N-]C(=O)C3CC3)c2)c1 (3D coordinates assigned)
CS(=O)(=O)[N-]c1cccc(CN=c2cc[n-]c([N-]C(=O)C3CC3)c2)c1 (nonaromatic ring conformer: 311.60160641623116 kcal/mol)

>  <smiles>  (11) 
CS(=O)(=O)Nc1cccc(CN=c2cc[nH]c(NC(=O)C3CC3)c2)c1

>  <score_type>  (11) 
oracle

>  <origin>  (11) 
adg

>  <m_score__min__energy>  (11) 
-13.18

>  <m_primary>  (11) 
energy

$$$$
11:0
     RDKit          3D

 51 54  0  0  0  0  0  0  0  0999 V2000
   62.0690   34.2290   49.5220 C   0  0  0  0  0  0  0  0  0  0  0  0
   61.2780   33.0200   49.7290 N   0  0  0  0  0  0  0  0  0  0  0  0
   59.5860   33.4000   49.6210 S   0  0  0  0  0  0  0  0  0  0  0  0
   59.2920   34.5940   50.4860 O   0  0  0  0  0  0  0  0  0  0  0  0
   58.7700   32.2390   50.1210 O   0  0  0  0  0  0  0  0  0  0  0  0
   59.1510   33.7770   47.9550 C   0  0  0  0  0  0  0  0  0  0  0  0
   59.7520   34.8660   47.3100 C   0  0  0  0  0  0  0  0  0  0  0  0
   59.4100   35.1780   45.9930 C   0  0  0  0  0  0  0  0  0  0  0  0
   58.4790   34.3940   45.3070 C   0  0  0  0  0  0  0  0  0  0  0  0
   57.8930   33.2840   45.9280 C   0  0  0  0  0  0  0  0  0  0  0  0
   56.9300   32.5160   45.1920 N   0  0  0  0  0  0  0  0  0  0  0  0
   57.1360   31.2230   44.6110 C   0  0  0  0  0  0  0  0  0  0  0  0
   56.1910   30.3920   44.5320 O   0  0  0  0  0  0  0  0  0  0  0  0
   58.5140   30.8140   44.2010 C   0  0  0  0  0  0  0  0  0  0  0  0
   58.9540   29.6710   45.0000 N   0  0  0  0  0  0  0  0  0  0  0  0
   58.6030   28.3810   44.7880 C   0  0  0  0  0  0  0  0  0  0  0  0
   59.1360   27.5650   45.7800 C   0  0  0  0  0  0  0  0  0  0  0  0
   58.9460   26.1050   45.8870 C   0  0  0  0  0  0  0  0  0  0  0  0
   59.9420   25.3880   46.1720 O   0  0  0  0  0  0  0  0  0  0  0  0
   57.6220   25.4650   45.7020 C   0  0  0  0  0  0  0  0  0  0  0  0
   57.5200   24.1330   45.2580 C   0  0  0  0  0  0  0  0  0  0  0  0
   56.2660   23.5440   45.0740 C   0  0  0  0  0  0  0  0  0  0  0  0
   55.1030   24.2800   45.3180 C   0  0  0  0  0  0  0  0  0  0  0  0
   55.1920   25.6080   45.7420 C   0  0  0  0  0  0  0  0  0  0  0  0
   54.0350   26.3410   45.9770 O   0  0  0  0  0  0  0  0  0  0  0  0
   56.4450   26.2010   45.9290 C   0  0  0  0  0  0  0  0  0  0  0  0
   59.8040   28.4160   46.6480 C   0  0  0  0  0  0  0  0  0  0  0  0
   60.4450   28.1760   47.8670 C   0  0  0  0  0  0  0  0  0  0  0  0
   60.9970   29.2740   48.5500 C   0  0  0  0  0  0  0  0  0  0  0  0
   60.8830   30.5760   48.0210 C   0  0  0  0  0  0  0  0  0  0  0  0
   60.2100   30.7960   46.8060 C   0  0  0  0  0  0  0  0  0  0  0  0
   59.6760   29.6870   46.1410 C   0  0  0  0  0  0  0  0  0  0  0  0
   58.2210   32.9890   47.2630 C   0  0  0  0  0  0  0  0  0  0  0  0
   62.3482   34.6558   50.4966 H   0  0  0  0  0  0  0  0  0  0  0  0
   62.9790   33.9795   48.9567 H   0  0  0  0  0  0  0  0  0  0  0  0
   61.4759   34.9629   48.9567 H   0  0  0  0  0  0  0  0  0  0  0  0
   60.4955   35.4769   47.8429 H   0  0  0  0  0  0  0  0  0  0  0  0
   59.8740   36.0420   45.4948 H   0  0  0  0  0  0  0  0  0  0  0  0
   58.2047   34.6501   44.2730 H   0  0  0  0  0  0  0  0  0  0  0  0
   58.5099   30.5349   43.1370 H   0  0  0  0  0  0  0  0  0  0  0  0
   59.2040   31.6553   44.3629 H   0  0  0  0  0  0  0  0  0  0  0  0
   57.9840   28.0282   43.9499 H   0  0  0  0  0  0  0  0  0  0  0  0
   58.4321   23.5527   45.0548 H   0  0  0  0  0  0  0  0  0  0  0  0
   56.1941   22.4995   44.7366 H   0  0  0  0  0  0  0  0  0  0  0  0
   54.1171   23.8132   45.1761 H   0  0  0  0  0  0  0  0  0  0  0  0
   56.5103   27.2494   46.2556 H   0  0  0  0  0  0  0  0  0  0  0  0
   60.5154   27.1587   48.2794 H   0  0  0  0  0  0  0  0  0  0  0  0
   61.5216   29.1162   49.5039 H   0  0  0  0  0  0  0  0  0  0  0  0
   61.3237   31.4259   48.5627 H   0  0  0  0  0  0  0  0  0  0  0  0
   60.1066   31.8094   46.3910 H   0  0  0  0  0  0  0  0  0  0  0  0
   57.7451   32.1350   47.7672 H   0  0  0  0  0  0  0  0  0  0  0  0
  1  2  1  0
  2  3  1  0
  3  4  2  0
  3  5  2  0
  3  6  1  0
  6  7  2  0
  7  8  1  0
  8  9  2  0
  9 10  1  0
 10 11  1  0
 11 12  1  0
 12 13  2  0
 12 14  1  0
 14 15  1  0
 15 16  1  0
 16 17  2  0
 17 18  1  0
 18 19  2  0
 18 20  1  0
 20 21  2  0
 21 22  1  0
 22 23  2  0
 23 24  1  0
 24 25  1  0
 24 26  2  0
 17 27  1  0
 27 28  2  0
 28 29  1  0
 29 30  2  0
 30 31  1  0
 31 32  2  0
 10 33  2  0
 33  6  1  0
 32 15  1  0
 26 20  1  0
 32 27  1  0
  1 34  1  0
  1 35  1  0
  1 36  1  0
  7 37  1  0
  8 38  1  0
  9 39  1  0
 14 40  1  0
 14 41  1  0
 16 42  1  0
 21 43  1  0
 22 44  1  0
 23 45  1  0
 26 46  1  0
 28 47  1  0
 29 48  1  0
 30 49  1  0
 31 50  1  0
 33 51  1  0
M  CHG  3   2  -1  11  -1  25  -1
M  END
>  <UniqueID>  (12) 
12

>  <SMILES>  (12) 
C[N-]S(=O)(=O)c1cccc([N-]C(=O)Cn2cc(C(=O)c3cccc([O-])c3)c3ccccc32)c1

>  <Energy>  (12) 
94.07223997235673

>  <Genealogy>  (12) 
C[N-]S(=O)(=O)c1cccc([N-]C(=O)Cn2cc(C(=O)c3cccc([O-])c3)c3ccccc32)c1 (protonated)
C[N-]S(=O)(=O)c1cccc([N-]C(=O)Cn2cc(C(=O)c3cccc([O-])c3)c3ccccc32)c1 (3D coordinates assigned)
C[N-]S(=O)(=O)c1cccc([N-]C(=O)Cn2cc(C(=O)c3cccc([O-])c3)c3ccccc32)c1 (optimized conformer: 94.07223997235673 kcal/mol)

>  <smiles>  (12) 
CNS(=O)(=O)c1cccc(NC(=O)Cn2cc(C(=O)c3cccc(O)c3)c3ccccc32)c1

>  <score_type>  (12) 
oracle

>  <origin>  (12) 
adg

>  <m_score__min__energy>  (12) 
-17.170000000000002

>  <m_primary>  (12) 
energy

$$$$
12:0
     RDKit          3D

 46 49  0  0  0  0  0  0  0  0999 V2000
   54.7580   26.2780   45.2450 H   0  0  0  0  0  0  0  0  0  0  0  0
   53.8680   25.8760   45.6160 N   0  0  0  0  0  0  0  0  0  0  0  0
   53.9170   24.1740   45.3090 S   0  0  0  0  0  0  0  0  0  0  0  0
   53.0310   23.8660   44.1340 O   0  0  0  0  0  0  0  0  0  0  0  0
   53.4120   23.4280   46.5100 O   0  0  0  0  0  0  0  0  0  0  0  0
   55.5810   23.6880   44.9710 C   0  0  0  0  0  0  0  0  0  0  0  0
   55.8310   22.6050   44.1140 C   0  0  0  0  0  0  0  0  0  0  0  0
   54.9893   22.0647   43.6561 H   0  0  0  0  0  0  0  0  0  0  0  0
   57.1420   22.2090   43.8390 C   0  0  0  0  0  0  0  0  0  0  0  0
   57.3300   21.3643   43.1599 H   0  0  0  0  0  0  0  0  0  0  0  0
   58.2130   22.8840   44.4250 C   0  0  0  0  0  0  0  0  0  0  0  0
   59.2444   22.5651   44.2141 H   0  0  0  0  0  0  0  0  0  0  0  0
   57.9780   23.9640   45.2790 C   0  0  0  0  0  0  0  0  0  0  0  0
   58.8259   24.4836   45.7491 H   0  0  0  0  0  0  0  0  0  0  0  0
   56.6620   24.3920   45.5420 C   0  0  0  0  0  0  0  0  0  0  0  0
   56.4000   25.4790   46.4490 N   0  0  0  0  0  0  0  0  0  0  0  0
   56.9410   26.6610   46.4230 C   0  0  0  0  0  0  0  0  0  0  0  0
   56.4390   27.6520   45.6360 N   0  0  0  0  0  0  0  0  0  0  0  0
   57.0050   28.8840   45.6360 C   0  0  0  0  0  0  0  0  0  0  0  0
   56.4930   29.8230   44.8940 N   0  0  0  0  0  0  0  0  0  0  0  0
   57.1370   31.0420   44.4840 C   0  0  0  0  0  0  0  0  0  0  0  0
   57.4670   31.9900   45.4630 C   0  0  0  0  0  0  0  0  0  0  0  0
   57.2373   31.7873   46.5195 H   0  0  0  0  0  0  0  0  0  0  0  0
   58.0860   33.1910   45.1050 C   0  0  0  0  0  0  0  0  0  0  0  0
   58.3533   33.9235   45.8809 H   0  0  0  0  0  0  0  0  0  0  0  0
   58.3660   33.4630   43.7630 C   0  0  0  0  0  0  0  0  0  0  0  0
   58.8640   34.4034   43.4843 H   0  0  0  0  0  0  0  0  0  0  0  0
   58.0130   32.5400   42.7760 C   0  0  0  0  0  0  0  0  0  0  0  0
   58.2257   32.7580   41.7190 H   0  0  0  0  0  0  0  0  0  0  0  0
   57.3900   31.3400   43.1290 C   0  0  0  0  0  0  0  0  0  0  0  0
   57.0957   30.6249   42.3467 H   0  0  0  0  0  0  0  0  0  0  0  0
   58.0660   29.1290   46.4470 N   0  0  0  0  0  0  0  0  0  0  0  0
   58.5670   28.1540   47.2500 C   0  0  0  0  0  0  0  0  0  0  0  0
   59.6030   28.3700   48.0050 N   0  0  0  0  0  0  0  0  0  0  0  0
   60.3070   29.6160   48.1640 C   0  0  0  0  0  0  0  0  0  0  0  0
   60.5780   30.1680   49.4320 C   0  0  0  0  0  0  0  0  0  0  0  0
   60.2434   29.6455   50.3404 H   0  0  0  0  0  0  0  0  0  0  0  0
   61.2710   31.3780   49.5390 C   0  0  0  0  0  0  0  0  0  0  0  0
   61.4630   31.8150   50.5301 H   0  0  0  0  0  0  0  0  0  0  0  0
   61.7200   32.0330   48.3890 C   0  0  0  0  0  0  0  0  0  0  0  0
   62.2574   32.9890   48.4747 H   0  0  0  0  0  0  0  0  0  0  0  0
   61.4860   31.4730   47.1300 C   0  0  0  0  0  0  0  0  0  0  0  0
   61.8483   31.9836   46.2255 H   0  0  0  0  0  0  0  0  0  0  0  0
   60.7910   30.2630   47.0190 C   0  0  0  0  0  0  0  0  0  0  0  0
   60.6238   29.8174   46.0273 H   0  0  0  0  0  0  0  0  0  0  0  0
   58.0020   26.9210   47.2300 N   0  0  0  0  0  0  0  0  0  0  0  0
  1  2  1  0
  2  3  1  0
  3  4  2  0
  3  5  2  0
  3  6  1  0
  6  7  2  0
  7  8  1  0
  7  9  1  0
  9 10  1  0
  9 11  2  0
 11 12  1  0
 11 13  1  0
 13 14  1  0
 13 15  2  0
 15 16  1  0
 16 17  2  0
 17 18  1  0
 18 19  1  0
 19 20  2  3
 20 21  1  0
 21 22  2  0
 22 23  1  0
 22 24  1  0
 24 25  1  0
 24 26  2  0
 26 27  1  0
 26 28  1  0
 28 29  1  0
 28 30  2  0
 30 31  1  0
 19 32  1  0
 32 33  1  0
 33 34  2  0
 34 35  1  0
 35 36  2  0
 36 37  1  0
 36 38  1  0
 38 39  1  0
 38 40  2  0
 40 41  1  0
 40 42  1  0
 42 43  1  0
 42 44  2  0
 44 45  1  0
 33 46  1  0
 15  6  1  0
 46 17  1  0
 30 21  1  0
 44 35  1  0
M  CHG  4   2  -1  18  -1  32  -1  46  -1
M  END
>  <UniqueID>  (13) 
13

>  <SMILES>  (13) 
[NH-]S(=O)(=O)c1ccccc1/N=c1\[n-]c(=Nc2ccccc2)[n-]/c(=N\c2ccccc2)[n-]1

>  <Energy>  (13) 
69.57733997812637

>  <Genealogy>  (13) 
[NH-]S(=O)(=O)c1ccccc1N=c1[n-]c(=Nc2ccccc2)[n-]c(=Nc2ccccc2)[n-]1 (protonated)
[NH-]S(=O)(=O)c1ccccc1/N=c1\[n-]c(=Nc2ccccc2)[n-]/c(=N\c2ccccc2)[n-]1 (cis-trans isomerization)
[NH-]S(=O)(=O)c1ccccc1/N=c1\[n-]c(=Nc2ccccc2)[n-]/c(=N\c2ccccc2)[n-]1 (3D coordinates assigned)
[NH-]S(=O)(=O)c1ccccc1/N=c1\[n-]c(=Nc2ccccc2)[n-]/c(=N\c2ccccc2)[n-]1 (optimized conformer: 69.57733997812637 kcal/mol)

>  <smiles>  (13) 
NS(=O)(=O)c1ccccc1N=c1[nH]c(=Nc2ccccc2)[nH]c(=Nc2ccccc2)[nH]1

>  <score_type>  (13) 
oracle

>  <origin>  (13) 
adg

>  <m_score__min__energy>  (13) 
-15.779999999999999

>  <m_primary>  (13) 
energy

$$$$
13:0
     RDKit          3D

 39 42  0  0  0  0  0  0  0  0999 V2000
   56.6170   29.6420   42.6540 N   0  0  0  0  0  0  0  0  0  0  0  0
   56.3490   29.5660   44.0560 C   0  0  0  0  0  0  0  0  0  0  0  0
   55.1590   29.4230   44.4450 O   0  0  0  0  0  0  0  0  0  0  0  0
   57.4420   29.6770   45.0440 C   0  0  0  0  0  0  0  0  0  0  0  0
   58.2830   30.8030   45.1180 C   0  0  0  0  0  0  0  0  0  0  0  0
   59.1620   30.7870   46.2050 C   0  0  0  0  0  0  0  0  0  0  0  0
   60.1490   31.8380   46.5620 C   0  0  0  0  0  0  0  0  0  0  0  0
   59.8750   33.2000   46.3300 C   0  0  0  0  0  0  0  0  0  0  0  0
   60.8130   34.1810   46.6690 C   0  0  0  0  0  0  0  0  0  0  0  0
   62.0340   33.8160   47.2370 C   0  0  0  0  0  0  0  0  0  0  0  0
   62.3210   32.4690   47.4670 C   0  0  0  0  0  0  0  0  0  0  0  0
   61.3870   31.4840   47.1310 C   0  0  0  0  0  0  0  0  0  0  0  0
   58.8850   29.3700   47.0790 S   0  0  0  0  0  0  0  0  0  0  0  0
   57.6850   28.7660   46.0780 C   0  0  0  0  0  0  0  0  0  0  0  0
   57.0380   27.5080   46.2980 N   0  0  0  0  0  0  0  0  0  0  0  0
   57.7050   26.3140   46.7190 C   0  0  0  0  0  0  0  0  0  0  0  0
   58.5150   26.3530   47.6850 O   0  0  0  0  0  0  0  0  0  0  0  0
   57.4290   25.0230   46.0610 C   0  0  0  0  0  0  0  0  0  0  0  0
   57.0640   23.6040   46.9090 S   0  0  0  0  0  0  0  0  0  0  0  0
   56.9000   22.6400   45.5480 C   0  0  0  0  0  0  0  0  0  0  0  0
   56.5890   21.2830   45.4890 C   0  0  0  0  0  0  0  0  0  0  0  0
   56.5050   20.6770   44.2270 C   0  0  0  0  0  0  0  0  0  0  0  0
   56.7340   21.4320   43.0600 C   0  0  0  0  0  0  0  0  0  0  0  0
   57.0460   22.7990   43.1460 C   0  0  0  0  0  0  0  0  0  0  0  0
   57.1270   23.3980   44.4090 C   0  0  0  0  0  0  0  0  0  0  0  0
   57.4280   24.7440   44.6840 C   0  0  0  0  0  0  0  0  0  0  0  0
   57.7680   25.9210   43.4190 Cl  0  0  0  0  0  0  0  0  0  0  0  0
   55.8310   29.6040   41.9680 H   0  0  0  0  0  0  0  0  0  0  0  0
   57.5950   29.6830   42.2910 H   0  0  0  0  0  0  0  0  0  0  0  0
   58.2515   31.6230   44.3855 H   0  0  0  0  0  0  0  0  0  0  0  0
   58.9160   33.4946   45.8788 H   0  0  0  0  0  0  0  0  0  0  0  0
   60.5875   35.2422   46.4874 H   0  0  0  0  0  0  0  0  0  0  0  0
   62.7700   34.5888   47.5034 H   0  0  0  0  0  0  0  0  0  0  0  0
   63.2844   32.1819   47.9137 H   0  0  0  0  0  0  0  0  0  0  0  0
   61.6214   30.4247   47.3127 H   0  0  0  0  0  0  0  0  0  0  0  0
   56.4142   20.7029   46.4071 H   0  0  0  0  0  0  0  0  0  0  0  0
   56.2593   19.6077   44.1481 H   0  0  0  0  0  0  0  0  0  0  0  0
   56.6681   20.9478   42.0745 H   0  0  0  0  0  0  0  0  0  0  0  0
   57.2239   23.3897   42.2353 H   0  0  0  0  0  0  0  0  0  0  0  0
  1  2  1  0
  2  3  2  0
  2  4  1  0
  4  5  1  0
  5  6  2  0
  6  7  1  0
  7  8  2  0
  8  9  1  0
  9 10  2  0
 10 11  1  0
 11 12  2  0
  6 13  1  0
 13 14  1  0
 14 15  1  0
 15 16  1  0
 16 17  2  0
 16 18  1  0
 18 19  1  0
 19 20  1  0
 20 21  2  0
 21 22  1  0
 22 23  2  0
 23 24  1  0
 24 25  2  0
 25 26  1  0
 26 27  1  0
 14  4  2  0
 26 18  2  0
 12  7  1  0
 25 20  1  0
  1 28  1  0
  1 29  1  0
  5 30  1  0
  8 31  1  0
  9 32  1  0
 10 33  1  0
 11 34  1  0
 12 35  1  0
 21 36  1  0
 22 37  1  0
 23 38  1  0
 24 39  1  0
M  CHG  1  15  -1
M  END
>  <UniqueID>  (14) 
14

>  <SMILES>  (14) 
NC(=O)c1cc(-c2ccccc2)sc1[N-]C(=O)c1sc2ccccc2c1Cl

>  <Energy>  (14) 
111.42489005108145

>  <Genealogy>  (14) 
NC(=O)c1cc(-c2ccccc2)sc1[N-]C(=O)c1sc2ccccc2c1Cl (protonated)
NC(=O)c1cc(-c2ccccc2)sc1[N-]C(=O)c1sc2ccccc2c1Cl (3D coordinates assigned)
NC(=O)c1cc(-c2ccccc2)sc1[N-]C(=O)c1sc2ccccc2c1Cl (optimized conformer: 111.42489005108145 kcal/mol)

>  <smiles>  (14) 
NC(=O)c1cc(-c2ccccc2)sc1NC(=O)c1sc2ccccc2c1Cl

>  <score_type>  (14) 
oracle

>  <origin>  (14) 
adg

>  <m_score__min__energy>  (14) 
-10.720000000000001

>  <m_primary>  (14) 
energy

$$$$
14:0
     RDKit          3D

 33 34  0  0  0  0  0  0  0  0999 V2000
   59.5412   32.6779   50.6838 H   0  0  0  0  0  0  0  0  0  0  0  0
   59.5350   32.9830   49.6270 C   0  0  0  0  0  0  0  0  0  0  0  0
   59.0250   32.1500   48.6820 N   0  0  0  0  0  0  0  0  0  0  0  0
   58.9830   32.4880   47.3640 C   0  0  0  0  0  0  0  0  0  0  0  0
   58.4360   31.5180   46.3930 C   0  0  0  0  0  0  0  0  0  0  0  0
   57.9250   31.7620   45.1210 C   0  0  0  0  0  0  0  0  0  0  0  0
   57.7780   33.0970   44.4460 C   0  0  0  0  0  0  0  0  0  0  0  0
   57.6912   33.8856   45.2080 H   0  0  0  0  0  0  0  0  0  0  0  0
   58.6604   33.2895   43.8180 H   0  0  0  0  0  0  0  0  0  0  0  0
   56.8749   33.0929   43.8180 H   0  0  0  0  0  0  0  0  0  0  0  0
   57.5360   30.5810   44.5860 N   0  0  0  0  0  0  0  0  0  0  0  0
   56.9000   30.3460   43.2870 C   0  0  0  0  0  0  0  0  0  0  0  0
   57.5268   29.6628   42.6951 H   0  0  0  0  0  0  0  0  0  0  0  0
   56.7906   31.3079   42.7646 H   0  0  0  0  0  0  0  0  0  0  0  0
   55.5200   29.7260   43.4740 C   0  0  0  0  0  0  0  0  0  0  0  0
   55.3041   29.6290   44.5482 H   0  0  0  0  0  0  0  0  0  0  0  0
   54.7620   30.3701   43.0043 H   0  0  0  0  0  0  0  0  0  0  0  0
   55.4981   28.7315   43.0043 H   0  0  0  0  0  0  0  0  0  0  0  0
   57.7810   29.6600   45.5440 C   0  0  0  0  0  0  0  0  0  0  0  0
   57.4730   28.4010   45.4110 N   0  0  0  0  0  0  0  0  0  0  0  0
   57.4390   27.4280   46.4630 C   0  0  0  0  0  0  0  0  0  0  0  0
   58.2920   27.4970   47.3860 O   0  0  0  0  0  0  0  0  0  0  0  0
   56.3760   26.4110   46.5430 C   0  0  0  0  0  0  0  0  0  0  0  0
   56.5980   25.2940   47.0820 O   0  0  0  0  0  0  0  0  0  0  0  0
   55.1260   26.6680   45.9950 O   0  0  0  0  0  0  0  0  0  0  0  0
   58.3180   30.2020   46.6590 N   0  0  0  0  0  0  0  0  0  0  0  0
   58.5660   29.7260   47.5550 H   0  0  0  0  0  0  0  0  0  0  0  0
   59.5140   33.7220   46.9540 C   0  0  0  0  0  0  0  0  0  0  0  0
   59.5141   34.0000   45.8897 H   0  0  0  0  0  0  0  0  0  0  0  0
   60.0420   34.5930   47.9100 C   0  0  0  0  0  0  0  0  0  0  0  0
   60.4501   35.5669   47.6020 H   0  0  0  0  0  0  0  0  0  0  0  0
   60.0510   34.2260   49.2560 C   0  0  0  0  0  0  0  0  0  0  0  0
   60.4599   34.9081   50.0160 H   0  0  0  0  0  0  0  0  0  0  0  0
  1  2  1  0
  2  3  2  0
  3  4  1  0
  4  5  1  0
  5  6  2  0
  6  7  1  0
  7  8  1  0
  7  9  1  0
  7 10  1  0
  6 11  1  0
 11 12  1  0
 12 13  1  0
 12 14  1  0
 12 15  1  0
 15 16  1  0
 15 17  1  0
 15 18  1  0
 11 19  1  0
 19 20  2  0
 20 21  1  0
 21 22  2  0
 21 23  1  0
 23 24  2  0
 23 25  1  0
 19 26  1  0
 26 27  1  0
  4 28  2  0
 28 29  1  0
 28 30  1  0
 30 31  1  0
 30 32  2  0
 32 33  1  0
 32  2  1  0
 26  5  1  0
M  CHG  1  25  -1
M  END
>  <UniqueID>  (15) 
15

>  <SMILES>  (15) 
CCn1c(C)c(-c2ccccn2)[nH]/c1=N\C(=O)C(=O)[O-]

>  <Energy>  (15) 
71.97908349443233

>  <Genealogy>  (15) 
CCn1c(C)c(-c2ccccn2)[nH]c1=NC(=O)C(=O)[O-] (protonated)
CCn1c(C)c(-c2ccccn2)[nH]/c1=N\C(=O)C(=O)[O-] (cis-trans isomerization)
CCn1c(C)c(-c2ccccn2)[nH]/c1=N\C(=O)C(=O)[O-] (3D coordinates assigned)
CCn1c(C)c(-c2ccccn2)[nH]/c1=N\C(=O)C(=O)[O-] (optimized conformer: 71.97908349443233 kcal/mol)

>  <smiles>  (15) 
CCn1c(C)c(-c2ccccn2)[nH]c1=NC(=O)C(=O)O

>  <score_type>  (15) 
oracle

>  <origin>  (15) 
adg

>  <m_score__min__energy>  (15) 
-10.27

>  <m_primary>  (15) 
energy

$$$$
15:0
     RDKit          3D

 49 53  0  0  0  0  0  0  0  0999 V2000
   58.0642   26.8605   44.0638 H   0  0  0  0  0  0  0  0  0  0  0  0
   57.6130   27.1640   45.0200 C   0  0  0  0  0  0  0  0  0  0  0  0
   57.1530   26.0690   45.9050 C   0  0  0  0  0  0  0  0  0  0  0  0
   57.9160   25.1000   46.4410 N   0  0  0  0  0  0  0  0  0  0  0  0
   57.0480   24.3810   47.1830 C   0  0  0  0  0  0  0  0  0  0  0  0
   57.3960   23.3700   47.8450 O   0  0  0  0  0  0  0  0  0  0  0  0
   55.7780   24.8340   47.1620 N   0  0  0  0  0  0  0  0  0  0  0  0
   55.8620   25.9030   46.3520 C   0  0  0  0  0  0  0  0  0  0  0  0
   54.7800   26.7120   46.0300 O   0  0  0  0  0  0  0  0  0  0  0  0
   57.5420   28.4880   45.2520 C   0  0  0  0  0  0  0  0  0  0  0  0
   56.8960   29.4060   44.4210 C   0  0  0  0  0  0  0  0  0  0  0  0
   56.3561   29.1458   43.4986 H   0  0  0  0  0  0  0  0  0  0  0  0
   57.0280   30.6620   44.9110 N   0  0  0  0  0  0  0  0  0  0  0  0
   57.7350   30.5630   46.0230 N   0  0  0  0  0  0  0  0  0  0  0  0
   58.1390   31.5700   46.8390 C   0  0  0  0  0  0  0  0  0  0  0  0
   57.8190   32.8050   46.5570 N   0  0  0  0  0  0  0  0  0  0  0  0
   58.6050   33.9480   46.0520 C   0  0  0  0  0  0  0  0  0  0  0  0
   57.8388   34.2347   45.3167 H   0  0  0  0  0  0  0  0  0  0  0  0
   59.4610   34.7160   47.0470 C   0  0  0  0  0  0  0  0  0  0  0  0
   59.5804   35.8048   46.9456 H   0  0  0  0  0  0  0  0  0  0  0  0
   59.4822   34.8167   48.1422 H   0  0  0  0  0  0  0  0  0  0  0  0
   60.1150   33.7750   46.0310 C   0  0  0  0  0  0  0  0  0  0  0  0
   60.7049   34.1871   45.1990 H   0  0  0  0  0  0  0  0  0  0  0  0
   60.8020   32.9181   46.0925 H   0  0  0  0  0  0  0  0  0  0  0  0
   58.8870   31.2390   47.9280 N   0  0  0  0  0  0  0  0  0  0  0  0
   59.2160   29.9380   48.1770 C   0  0  0  0  0  0  0  0  0  0  0  0
   60.2080   29.5210   49.6050 S   0  0  0  0  0  0  0  0  0  0  0  0
   61.1900   31.0570   49.5200 C   0  0  0  0  0  0  0  0  0  0  0  0
   60.5358   31.9176   49.7235 H   0  0  0  0  0  0  0  0  0  0  0  0
   61.9942   31.0094   50.2691 H   0  0  0  0  0  0  0  0  0  0  0  0
   61.8110   31.2130   48.1340 C   0  0  0  0  0  0  0  0  0  0  0  0
   61.7874   30.2437   47.6145 H   0  0  0  0  0  0  0  0  0  0  0  0
   61.2358   31.9589   47.5658 H   0  0  0  0  0  0  0  0  0  0  0  0
   63.2150   31.6720   48.2490 N   0  0  0  0  0  0  0  0  0  0  0  0
   63.4250   32.5250   49.4340 C   0  0  0  0  0  0  0  0  0  0  0  0
   62.9996   32.0227   50.3153 H   0  0  0  0  0  0  0  0  0  0  0  0
   64.5066   32.6838   49.5564 H   0  0  0  0  0  0  0  0  0  0  0  0
   62.7480   33.9080   49.2680 C   0  0  0  0  0  0  0  0  0  0  0  0
   61.8214   33.9169   49.8607 H   0  0  0  0  0  0  0  0  0  0  0  0
   63.4663   34.6667   49.6122 H   0  0  0  0  0  0  0  0  0  0  0  0
   62.4250   34.2140   47.9230 O   0  0  0  0  0  0  0  0  0  0  0  0
   63.5040   33.8790   47.0750 C   0  0  0  0  0  0  0  0  0  0  0  0
   63.2984   34.2553   46.0620 H   0  0  0  0  0  0  0  0  0  0  0  0
   64.4225   34.3367   47.4710 H   0  0  0  0  0  0  0  0  0  0  0  0
   63.6940   32.3480   47.0190 C   0  0  0  0  0  0  0  0  0  0  0  0
   63.1333   31.9540   46.1585 H   0  0  0  0  0  0  0  0  0  0  0  0
   64.7715   32.1477   46.9249 H   0  0  0  0  0  0  0  0  0  0  0  0
   58.8050   28.9500   47.3350 N   0  0  0  0  0  0  0  0  0  0  0  0
   58.0590   29.2880   46.2610 C   0  0  0  0  0  0  0  0  0  0  0  0
  1  2  1  0
  2  3  1  0
  3  4  1  0
  4  5  1  0
  5  6  2  0
  5  7  1  0
  7  8  1  0
  8  9  1  0
  2 10  2  0
 10 11  1  0
 11 12  1  0
 11 13  2  0
 13 14  1  0
 14 15  1  0
 15 16  2  0
 16 17  1  0
 17 18  1  0
 17 19  1  0
 19 20  1  0
 19 21  1  0
 19 22  1  0
 22 23  1  0
 22 24  1  0
 15 25  1  0
 25 26  2  0
 26 27  1  0
 27 28  1  0
 28 29  1  0
 28 30  1  0
 28 31  1  0
 31 32  1  0
 31 33  1  0
 31 34  1  0
 34 35  1  0
 35 36  1  0
 35 37  1  0
 35 38  1  0
 38 39  1  0
 38 40  1  0
 38 41  1  0
 41 42  1  0
 42 43  1  0
 42 44  1  0
 42 45  1  0
 45 46  1  0
 45 47  1  0
 26 48  1  0
 48 49  2  0
  8  3  2  0
 49 10  1  0
 49 14  1  0
 22 17  1  0
 45 34  1  0
M  CHG  3   4  -1   7  -1   9  -1
M  END
>  <UniqueID>  (16) 
16

>  <SMILES>  (16) 
O=c1[n-]c([O-])c(/C=c2/cnn3/c(=N/C4CC4)nc(SCCN4CCOCC4)nc23)[n-]1

>  <Energy>  (16) 
406.4097285932746

>  <Genealogy>  (16) 
O=c1[n-]c([O-])c(C=c2cnn3c(=NC4CC4)nc(SCCN4CCOCC4)nc23)[n-]1 (protonated)
O=c1[n-]c([O-])c(/C=c2/cnn3/c(=N/C4CC4)nc(SCCN4CCOCC4)nc23)[n-]1 (cis-trans isomerization)
O=c1[n-]c([O-])c(/C=c2/cnn3/c(=N/C4CC4)nc(SCCN4CCOCC4)nc23)[n-]1 (3D coordinates assigned)
O=c1[n-]c([O-])c(/C=c2/cnn3/c(=N/C4CC4)nc(SCCN4CCOCC4)nc23)[n-]1 (nonaromatic ring conformer: 406.4097285932746 kcal/mol)

>  <smiles>  (16) 
O=c1[nH]c(O)c(C=c2cnn3c(=NC4CC4)nc(SCCN4CCOCC4)nc23)[nH]1

>  <score_type>  (16) 
oracle

>  <origin>  (16) 
adg

>  <m_score__min__energy>  (16) 
-16.829999999999998

>  <m_primary>  (16) 
energy

$$$$
16:0
     RDKit          3D

 38 42  0  0  0  0  0  0  0  0999 V2000
   53.2966   30.9868   50.1999 H   0  0  0  0  0  0  0  0  0  0  0  0
   53.1140   30.8500   51.2760 C   0  0  0  0  0  0  0  0  0  0  0  0
   51.9270   31.4940   51.8630 C   0  0  0  0  0  0  0  0  0  0  0  0
   51.6330   31.4380   53.1750 N   0  0  0  0  0  0  0  0  0  0  0  0
   50.5320   32.2130   53.2820 C   0  0  0  0  0  0  0  0  0  0  0  0
   49.9400   32.4010   54.3770 O   0  0  0  0  0  0  0  0  0  0  0  0
   50.1210   32.7770   52.1270 N   0  0  0  0  0  0  0  0  0  0  0  0
   51.0200   32.3230   51.2400 C   0  0  0  0  0  0  0  0  0  0  0  0
   51.0380   32.7020   49.9040 O   0  0  0  0  0  0  0  0  0  0  0  0
   57.2160   29.3360   53.1230 C   0  0  0  0  0  0  0  0  0  0  0  0
   53.7470   29.0250   52.8210 C   0  0  0  0  0  0  0  0  0  0  0  0
   52.7591   28.5860   53.0242 H   0  0  0  0  0  0  0  0  0  0  0  0
   54.9150   28.5970   53.3560 N   0  0  0  0  0  0  0  0  0  0  0  0
   55.8740   29.3730   52.8760 N   0  0  0  0  0  0  0  0  0  0  0  0
   53.9860   30.1070   51.9730 C   0  0  0  0  0  0  0  0  0  0  0  0
   57.7730   28.4630   53.9140 N   0  0  0  0  0  0  0  0  0  0  0  0
   58.7280   27.4280   53.5280 C   0  0  0  0  0  0  0  0  0  0  0  0
   58.0019   26.6508   53.2474 H   0  0  0  0  0  0  0  0  0  0  0  0
   60.0030   27.4820   54.3500 C   0  0  0  0  0  0  0  0  0  0  0  0
   60.0968   28.2056   55.1732 H   0  0  0  0  0  0  0  0  0  0  0  0
   60.5892   26.7510   54.9263 H   0  0  0  0  0  0  0  0  0  0  0  0
   60.0040   27.9660   52.9070 C   0  0  0  0  0  0  0  0  0  0  0  0
   60.0986   29.0396   52.6868 H   0  0  0  0  0  0  0  0  0  0  0  0
   60.5913   27.7300   52.0074 H   0  0  0  0  0  0  0  0  0  0  0  0
   58.0010   30.2610   52.5050 N   0  0  0  0  0  0  0  0  0  0  0  0
   57.4580   31.1940   51.6660 C   0  0  0  0  0  0  0  0  0  0  0  0
   58.3000   32.1520   51.0310 N   0  0  0  0  0  0  0  0  0  0  0  0
   58.8020   32.4310   49.6740 C   0  0  0  0  0  0  0  0  0  0  0  0
   59.4233   31.6158   49.2748 H   0  0  0  0  0  0  0  0  0  0  0  0
   58.0535   32.5530   48.8772 H   0  0  0  0  0  0  0  0  0  0  0  0
   59.6010   33.6350   50.0480 C   0  0  0  0  0  0  0  0  0  0  0  0
   59.5148   34.6128   49.5515 H   0  0  0  0  0  0  0  0  0  0  0  0
   60.9650   33.4210   49.9410 F   0  0  0  0  0  0  0  0  0  0  0  0
   59.0820   33.3390   51.4170 C   0  0  0  0  0  0  0  0  0  0  0  0
   59.8829   33.1057   52.1340 H   0  0  0  0  0  0  0  0  0  0  0  0
   58.5453   34.1468   51.9360 H   0  0  0  0  0  0  0  0  0  0  0  0
   56.1160   31.2130   51.4340 N   0  0  0  0  0  0  0  0  0  0  0  0
   55.3480   30.2860   52.0550 C   0  0  0  0  0  0  0  0  0  0  0  0
  1  2  1  0
  2  3  1  0
  3  4  1  0
  4  5  1  0
  5  6  2  0
  5  7  1  0
  7  8  1  0
  8  9  1  0
  2 10  2  0
 10 11  1  0
 11 12  1  0
 11 13  2  0
 13 14  1  0
 14 15  1  0
 15 16  2  0
 16 17  1  0
 17 18  1  0
 17 19  1  0
 19 20  1  0
 19 21  1  0
 19 22  1  0
 22 23  1  0
 22 24  1  0
 15 25  1  0
 25 26  2  0
 26 27  1  0
 27 28  1  0
 28 29  1  0
 28 30  1  0
 28 31  1  0
 31 32  1  0
 31 33  1  0
 31 34  1  0
 34 35  1  0
 34 36  1  0
 26 37  1  0
 37 38  2  0
  8  3  2  0
 38 10  1  0
 38 14  1  0
 22 17  1  0
 34 27  1  0
M  CHG  3   4  -1   7  -1   9  -1
M  END
>  <UniqueID>  (17) 
17

>  <SMILES>  (17) 
O=c1[n-]c([O-])c(/C=c2\cnn3/c(=N\C4CC4)nc(N4CC(F)C4)nc23)[n-]1

>  <Energy>  (17) 
426.6780701519655

>  <Genealogy>  (17) 
O=c1[n-]c([O-])c(C=c2cnn3c(=NC4CC4)nc(N4CC(F)C4)nc23)[n-]1 (protonated)
O=c1[n-]c([O-])c(/C=c2\cnn3/c(=N\C4CC4)nc(N4CC(F)C4)nc23)[n-]1 (cis-trans isomerization)
O=c1[n-]c([O-])c(/C=c2\cnn3/c(=N\C4CC4)nc(N4CC(F)C4)nc23)[n-]1 (3D coordinates assigned)
O=c1[n-]c([O-])c(/C=c2\cnn3/c(=N\C4CC4)nc(N4CC(F)C4)nc23)[n-]1 (nonaromatic ring conformer: 426.6780701519655 kcal/mol)

>  <smiles>  (17) 
O=c1[nH]c(O)c(C=c2cnn3c(=NC4CC4)nc(N4CC(F)C4)nc23)[nH]1

>  <score_type>  (17) 
oracle

>  <origin>  (17) 
adg

>  <m_score__min__energy>  (17) 
-15.49

>  <m_primary>  (17) 
energy

$$$$
17:0
     RDKit          3D

 50 53  0  0  0  0  0  0  0  0999 V2000
   57.0020   34.1340   44.9650 C   0  0  0  0  0  0  0  0  0  0  0  0
   58.2380   33.9140   45.7880 C   0  0  0  0  0  0  0  0  0  0  0  0
   59.2120   34.9180   45.8810 C   0  0  0  0  0  0  0  0  0  0  0  0
   60.3470   34.7260   46.6730 C   0  0  0  0  0  0  0  0  0  0  0  0
   60.5110   33.5370   47.3870 C   0  0  0  0  0  0  0  0  0  0  0  0
   59.5390   32.5250   47.3160 C   0  0  0  0  0  0  0  0  0  0  0  0
   59.7020   31.3070   48.0700 N   0  0  0  0  0  0  0  0  0  0  0  0
   58.6920   30.2480   47.9510 C   0  0  0  0  0  0  0  0  0  0  0  0
   58.7560   29.2580   49.1240 C   0  0  0  0  0  0  0  0  0  0  0  0
   60.1370   28.7940   49.4050 N   0  0  1  0  0  0  0  0  0  0  0  0
   60.7550   28.0300   48.2900 C   0  0  0  0  0  0  0  0  0  0  0  0
   59.8030   27.0220   47.6930 C   0  0  0  0  0  0  0  0  0  0  0  0
   59.2920   26.0080   48.4160 N   0  0  0  0  0  0  0  0  0  0  0  0
   58.4160   25.4280   47.5750 C   0  0  0  0  0  0  0  0  0  0  0  0
   57.7250   24.4260   47.8970 O   0  0  0  0  0  0  0  0  0  0  0  0
   58.3330   26.0100   46.3650 N   0  0  0  0  0  0  0  0  0  0  0  0
   59.2210   27.0190   46.4270 C   0  0  0  0  0  0  0  0  0  0  0  0
   59.4730   27.9520   45.3000 C   0  0  0  0  0  0  0  0  0  0  0  0
   60.5870   27.9460   44.7140 O   0  0  0  0  0  0  0  0  0  0  0  0
   58.4530   28.9230   44.8500 C   0  0  0  0  0  0  0  0  0  0  0  0
   58.8640   30.1120   44.2250 C   0  0  0  0  0  0  0  0  0  0  0  0
   57.9190   31.0440   43.7840 C   0  0  0  0  0  0  0  0  0  0  0  0
   56.5560   30.7910   43.9530 C   0  0  0  0  0  0  0  0  0  0  0  0
   56.1350   29.6010   44.5540 C   0  0  0  0  0  0  0  0  0  0  0  0
   54.7780   29.3440   44.7080 O   0  0  0  0  0  0  0  0  0  0  0  0
   57.0780   28.6680   44.9990 C   0  0  0  0  0  0  0  0  0  0  0  0
   60.9880   29.9370   49.7990 C   0  0  0  0  0  0  0  0  0  0  0  0
   60.9180   31.0620   48.8040 C   0  0  0  0  0  0  0  0  0  0  0  0
   61.9200   31.8130   48.6520 O   0  0  0  0  0  0  0  0  0  0  0  0
   58.3970   32.7270   46.5200 C   0  0  0  0  0  0  0  0  0  0  0  0
   56.1403   34.2874   45.6313 H   0  0  0  0  0  0  0  0  0  0  0  0
   57.1374   35.0222   44.3303 H   0  0  0  0  0  0  0  0  0  0  0  0
   56.8226   33.2537   44.3303 H   0  0  0  0  0  0  0  0  0  0  0  0
   59.0823   35.8603   45.3285 H   0  0  0  0  0  0  0  0  0  0  0  0
   61.1130   35.5131   46.7343 H   0  0  0  0  0  0  0  0  0  0  0  0
   61.4067   33.3919   48.0088 H   0  0  0  0  0  0  0  0  0  0  0  0
   57.6939   30.7098   47.9300 H   0  0  0  0  0  0  0  0  0  0  0  0
   58.8917   29.6903   47.0241 H   0  0  0  0  0  0  0  0  0  0  0  0
   58.3605   29.7520   50.0238 H   0  0  0  0  0  0  0  0  0  0  0  0
   58.1582   28.3766   48.8488 H   0  0  0  0  0  0  0  0  0  0  0  0
   60.0870   28.1550   50.2340 H   0  0  0  0  0  0  0  0  0  0  0  0
   61.0620   28.7359   47.5043 H   0  0  0  0  0  0  0  0  0  0  0  0
   61.6182   27.4810   48.6944 H   0  0  0  0  0  0  0  0  0  0  0  0
   59.9362   30.3114   44.0815 H   0  0  0  0  0  0  0  0  0  0  0  0
   58.2495   31.9768   43.3038 H   0  0  0  0  0  0  0  0  0  0  0  0
   55.8136   31.5281   43.6132 H   0  0  0  0  0  0  0  0  0  0  0  0
   56.7424   27.7310   45.4674 H   0  0  0  0  0  0  0  0  0  0  0  0
   60.6525   30.3082   50.7786 H   0  0  0  0  0  0  0  0  0  0  0  0
   62.0296   29.5858   49.8414 H   0  0  0  0  0  0  0  0  0  0  0  0
   57.6219   31.9480   46.4708 H   0  0  0  0  0  0  0  0  0  0  0  0
  1  2  1  0
  2  3  2  0
  3  4  1  0
  4  5  2  0
  5  6  1  0
  6  7  1  0
  7  8  1  0
  8  9  1  0
  9 10  1  0
 10 11  1  0
 11 12  1  0
 12 13  1  0
 13 14  1  0
 14 15  2  0
 14 16  1  0
 16 17  1  0
 17 18  1  0
 18 19  2  0
 18 20  1  0
 20 21  2  0
 21 22  1  0
 22 23  2  0
 23 24  1  0
 24 25  1  0
 24 26  2  0
 10 27  1  0
 27 28  1  0
 28 29  2  0
  6 30  2  0
 30  2  1  0
 28  7  1  0
 17 12  2  0
 26 20  1  0
  1 31  1  0
  1 32  1  0
  1 33  1  0
  3 34  1  0
  4 35  1  0
  5 36  1  0
  8 37  1  0
  8 38  1  0
  9 39  1  0
  9 40  1  0
 10 41  1  1
 11 42  1  0
 11 43  1  0
 21 44  1  0
 22 45  1  0
 23 46  1  0
 26 47  1  0
 27 48  1  0
 27 49  1  0
 30 50  1  0
M  CHG  4  10   1  13  -1  16  -1  25  -1
M  END
>  <UniqueID>  (18) 
18

>  <SMILES>  (18) 
Cc1cccc(N2CC[N@@H+](Cc3[n-]c(=O)[n-]c3C(=O)c3cccc([O-])c3)CC2=O)c1

>  <Energy>  (18) 
97.98488960233696

>  <Genealogy>  (18) 
Cc1cccc(N2CC[NH+](Cc3[n-]c(=O)[n-]c3C(=O)c3cccc([O-])c3)CC2=O)c1 (protonated)
Cc1cccc(N2CC[N@@H+](Cc3[n-]c(=O)[n-]c3C(=O)c3cccc([O-])c3)CC2=O)c1 (chirality)
Cc1cccc(N2CC[N@@H+](Cc3[n-]c(=O)[n-]c3C(=O)c3cccc([O-])c3)CC2=O)c1 (3D coordinates assigned)
Cc1cccc(N2CC[N@@H+](Cc3[n-]c(=O)[n-]c3C(=O)c3cccc([O-])c3)CC2=O)c1 (nonaromatic ring conformer: 97.98488960233696 kcal/mol)

>  <smiles>  (18) 
Cc1cccc(N2CCN(Cc3[nH]c(=O)[nH]c3C(=O)c3cccc(O)c3)CC2=O)c1

>  <score_type>  (18) 
oracle

>  <origin>  (18) 
adg

>  <m_score__min__energy>  (18) 
-13.140000000000001

>  <m_primary>  (18) 
energy

$$$$
18:0
     RDKit          3D

 44 47  0  0  1  0  0  0  0  0999 V2000
   59.2210   34.6340   45.7340 C   0  0  0  0  0  0  0  0  0  0  0  0
   58.7740   33.2090   45.8410 C   0  0  0  0  0  0  0  0  0  0  0  0
   59.4140   32.3950   46.7670 C   0  0  0  0  0  0  0  0  0  0  0  0
   58.9990   31.0780   46.8610 C   0  0  0  0  0  0  0  0  0  0  0  0
   57.9980   30.6120   46.0680 N   0  0  0  0  0  0  0  0  0  0  0  0
   57.3720   31.3910   45.1690 C   0  0  0  0  0  0  0  0  0  0  0  0
   56.4200   30.8810   44.4410 N   0  0  0  0  0  0  0  0  0  0  0  0
   56.4150   29.4420   44.3190 C   0  0  0  0  0  0  0  0  0  0  0  0
   55.9370   28.7040   45.2200 O   0  0  0  0  0  0  0  0  0  0  0  0
   57.0130   28.8560   43.0580 C   0  0  0  0  0  0  0  0  0  0  0  0
   58.1800   27.6430   43.3860 S   0  0  0  0  0  0  0  0  0  0  0  0
   57.8280   26.0580   43.9760 C   0  0  0  0  0  0  0  0  0  0  0  0
   57.2350   25.1920   43.0740 N   0  0  0  0  0  0  0  0  0  0  0  0
   56.9190   23.9450   43.3740 C   0  0  0  0  0  0  0  0  0  0  0  0
   56.3440   22.9640   42.6410 N   0  0  0  0  0  0  0  0  0  0  0  0
   56.2510   21.9020   43.4170 N   0  0  0  0  0  0  0  0  0  0  0  0
   56.7450   22.1520   44.6310 C   0  0  0  0  0  0  0  0  0  0  0  0
   57.1740   23.4410   44.6240 C   0  0  0  0  0  0  0  0  0  0  0  0
   57.7590   24.2690   45.5370 C   0  0  0  0  0  0  0  0  0  0  0  0
   57.9930   23.8120   46.6830 O   0  0  0  0  0  0  0  0  0  0  0  0
   58.0750   25.5600   45.1970 N   0  0  0  0  0  0  0  0  0  0  0  0
   58.7040   26.2870   46.2490 C   0  0  0  0  0  0  0  0  0  0  0  0
   60.0470   26.0910   46.5810 C   0  0  0  0  0  0  0  0  0  0  0  0
   60.6170   26.8580   47.5990 C   0  0  0  0  0  0  0  0  0  0  0  0
   59.8550   27.8010   48.2680 C   0  0  0  0  0  0  0  0  0  0  0  0
   60.5370   28.7740   49.5440 Cl  0  0  0  0  0  0  0  0  0  0  0  0
   58.5200   27.9910   47.9350 C   0  0  0  0  0  0  0  0  0  0  0  0
   57.9520   27.2290   46.9230 C   0  0  0  0  0  0  0  0  0  0  0  0
   57.7630   32.7120   45.0490 C   0  0  0  0  0  0  0  0  0  0  0  0
   59.3526   35.0537   46.7422 H   0  0  0  0  0  0  0  0  0  0  0  0
   60.1763   34.6788   45.1906 H   0  0  0  0  0  0  0  0  0  0  0  0
   58.4624   35.2164   45.1906 H   0  0  0  0  0  0  0  0  0  0  0  0
   60.2226   32.7837   47.4035 H   0  0  0  0  0  0  0  0  0  0  0  0
   59.4827   30.4034   47.5827 H   0  0  0  0  0  0  0  0  0  0  0  0
   57.7550   29.6060   46.2120 H   0  0  0  0  0  0  0  0  0  0  0  0
   56.2047   28.4143   42.4566 H   0  0  0  0  0  0  0  0  0  0  0  0
   57.5199   29.6701   42.5192 H   0  0  0  0  0  0  0  0  0  0  0  0
   56.0200   22.9970   41.6510 H   0  0  0  0  0  0  0  0  0  0  0  0
   56.7953   21.4491   45.4756 H   0  0  0  0  0  0  0  0  0  0  0  0
   60.6484   25.3410   46.0464 H   0  0  0  0  0  0  0  0  0  0  0  0
   61.6732   26.7129   47.8700 H   0  0  0  0  0  0  0  0  0  0  0  0
   57.9170   28.7399   48.4693 H   0  0  0  0  0  0  0  0  0  0  0  0
   56.8952   27.3767   46.6560 H   0  0  0  0  0  0  0  0  0  0  0  0
   57.2652   33.3674   44.3191 H   0  0  0  0  0  0  0  0  0  0  0  0
  1  2  1  0
  2  3  1  0
  3  4  2  0
  4  5  1  0
  5  6  1  0
  6  7  2  0
  7  8  1  0
  8  9  2  0
  8 10  1  0
 10 11  1  0
 11 12  1  0
 12 13  2  0
 13 14  1  0
 14 15  1  0
 15 16  1  0
 16 17  2  0
 17 18  1  0
 18 19  1  0
 19 20  2  0
 19 21  1  0
 21 22  1  0
 22 23  2  0
 23 24  1  0
 24 25  2  0
 25 26  1  0
 25 27  1  0
 27 28  2  0
  6 29  1  0
 29  2  2  0
 21 12  1  0
 28 22  1  0
 18 14  2  0
  1 30  1  0
  1 31  1  0
  1 32  1  0
  3 33  1  0
  4 34  1  0
  5 35  1  0
 10 36  1  0
 10 37  1  0
 15 38  1  0
 17 39  1  0
 23 40  1  0
 24 41  1  0
 27 42  1  0
 28 43  1  0
 29 44  1  0
M  END
>  <smiles>  (19) 
Cc1cc[nH]c(=NC(=O)CSc2nc3[nH]ncc3c(=O)n2-c2ccc(Cl)cc2)c1

>  <score_type>  (19) 
oracle

>  <origin>  (19) 
adg

>  <m_score__min__energy>  (19) 
-9.4700000000000006

>  <m_primary>  (19) 
energy

$$$$
19:0
     RDKit          3D

 40 42  0  0  0  0  0  0  0  0999 V2000
   56.3110   29.3600   42.8040 C   0  0  0  0  0  0  0  0  0  0  0  0
   55.1610   29.6910   43.7430 C   0  0  0  0  0  0  0  0  0  0  0  0
   55.6110   29.5840   45.0900 O   0  0  0  0  0  0  0  0  0  0  0  0
   56.6490   28.7600   45.5680 C   0  0  0  0  0  0  0  0  0  0  0  0
   57.9220   29.3470   45.7480 C   0  0  0  0  0  0  0  0  0  0  0  0
   58.1430   30.7900   45.4850 C   0  0  0  0  0  0  0  0  0  0  0  0
   58.1380   31.2800   44.1670 C   0  0  0  0  0  0  0  0  0  0  0  0
   58.3520   32.6380   43.9160 C   0  0  0  0  0  0  0  0  0  0  0  0
   58.5770   33.5200   44.9770 C   0  0  0  0  0  0  0  0  0  0  0  0
   58.7880   34.8700   44.7270 O   0  0  0  0  0  0  0  0  0  0  0  0
   58.5920   33.0420   46.2910 C   0  0  0  0  0  0  0  0  0  0  0  0
   58.3800   31.6830   46.5450 C   0  0  0  0  0  0  0  0  0  0  0  0
   59.0010   28.5570   46.1720 C   0  0  0  0  0  0  0  0  0  0  0  0
   58.8230   27.2020   46.4430 C   0  0  0  0  0  0  0  0  0  0  0  0
   57.5600   26.6110   46.3050 C   0  0  0  0  0  0  0  0  0  0  0  0
   57.3560   25.2460   46.5620 O   0  0  0  0  0  0  0  0  0  0  0  0
   57.0020   24.2820   45.6060 C   0  0  0  0  0  0  0  0  0  0  0  0
   56.6480   22.9690   45.9680 C   0  0  0  0  0  0  0  0  0  0  0  0
   56.2850   22.0420   44.9860 C   0  0  0  0  0  0  0  0  0  0  0  0
   56.2590   22.4200   43.6410 C   0  0  0  0  0  0  0  0  0  0  0  0
   55.8990   21.4990   42.6660 O   0  0  0  0  0  0  0  0  0  0  0  0
   56.5920   23.7280   43.2770 C   0  0  0  0  0  0  0  0  0  0  0  0
   56.9550   24.6570   44.2580 C   0  0  0  0  0  0  0  0  0  0  0  0
   56.4790   27.3810   45.8520 C   0  0  0  0  0  0  0  0  0  0  0  0
   55.2490   26.7540   45.6940 O   0  0  0  0  0  0  0  0  0  0  0  0
   57.2034   29.1031   43.3936 H   0  0  0  0  0  0  0  0  0  0  0  0
   56.0322   28.5056   42.1697 H   0  0  0  0  0  0  0  0  0  0  0  0
   56.5290   30.2319   42.1697 H   0  0  0  0  0  0  0  0  0  0  0  0
   54.8133   30.7169   43.5516 H   0  0  0  0  0  0  0  0  0  0  0  0
   54.3315   28.9888   43.5735 H   0  0  0  0  0  0  0  0  0  0  0  0
   57.9645   30.5899   43.3281 H   0  0  0  0  0  0  0  0  0  0  0  0
   58.3434   33.0134   42.8821 H   0  0  0  0  0  0  0  0  0  0  0  0
   58.7707   33.7356   47.1259 H   0  0  0  0  0  0  0  0  0  0  0  0
   58.3988   31.3107   47.5799 H   0  0  0  0  0  0  0  0  0  0  0  0
   59.9957   29.0111   46.2915 H   0  0  0  0  0  0  0  0  0  0  0  0
   59.6793   26.5924   46.7673 H   0  0  0  0  0  0  0  0  0  0  0  0
   56.6569   22.6709   47.0268 H   0  0  0  0  0  0  0  0  0  0  0  0
   56.0195   21.0137   45.2727 H   0  0  0  0  0  0  0  0  0  0  0  0
   56.5686   24.0269   42.2187 H   0  0  0  0  0  0  0  0  0  0  0  0
   57.2050   25.6883   43.9684 H   0  0  0  0  0  0  0  0  0  0  0  0
  1  2  1  0
  2  3  1  0
  3  4  1  0
  4  5  2  0
  5  6  1  0
  6  7  2  0
  7  8  1  0
  8  9  2  0
  9 10  1  0
  9 11  1  0
 11 12  2  0
  5 13  1  0
 13 14  2  0
 14 15  1  0
 15 16  1  0
 16 17  1  0
 17 18  2  0
 18 19  1  0
 19 20  2  0
 20 21  1  0
 20 22  1  0
 22 23  2  0
 15 24  2  0
 24 25  1  0
 24  4  1  0
 12  6  1  0
 23 17  1  0
  1 26  1  0
  1 27  1  0
  1 28  1  0
  2 29  1  0
  2 30  1  0
  7 31  1  0
  8 32  1  0
 11 33  1  0
 12 34  1  0
 13 35  1  0
 14 36  1  0
 18 37  1  0
 19 38  1  0
 22 39  1  0
 23 40  1  0
M  CHG  3  10  -1  21  -1  25  -1
M  END
>  <UniqueID>  (20) 
19

>  <SMILES>  (20) 
CCOc1c(-c2ccc([O-])cc2)ccc(Oc2ccc([O-])cc2)c1[O-]

>  <Energy>  (20) 
55.49776607112511

>  <Genealogy>  (20) 
CCOc1c(-c2ccc([O-])cc2)ccc(Oc2ccc([O-])cc2)c1[O-] (protonated)
CCOc1c(-c2ccc([O-])cc2)ccc(Oc2ccc([O-])cc2)c1[O-] (3D coordinates assigned)
CCOc1c(-c2ccc([O-])cc2)ccc(Oc2ccc([O-])cc2)c1[O-] (optimized conformer: 55.49776607112511 kcal/mol)

>  <smiles>  (20) 
CCOc1c(-c2ccc(O)cc2)ccc(Oc2ccc(O)cc2)c1O

>  <score_type>  (20) 
oracle

>  <origin>  (20) 
adg

>  <m_score__min__energy>  (20) 
-13.609999999999999

>  <m_primary>  (20) 
energy

$$$$
20:0
     RDKit          3D

 30 31  0  0  0  0  0  0  0  0999 V2000
   56.6910   31.7430   43.4520 H   0  0  0  0  0  0  0  0  0  0  0  0
   56.6470   31.4760   44.4610 N   0  0  0  0  0  0  0  0  0  0  0  0
   56.6330   30.2370   44.8320 C   0  0  0  0  0  0  0  0  0  0  0  0
   55.5300   29.4660   44.7930 N   0  0  0  0  0  0  0  0  0  0  0  0
   55.8800   28.2710   45.2420 N   0  0  0  0  0  0  0  0  0  0  0  0
   55.2280   27.4590   45.3250 H   0  0  0  0  0  0  0  0  0  0  0  0
   57.1870   28.2780   45.5600 C   0  0  0  0  0  0  0  0  0  0  0  0
   57.8590   27.1590   46.0660 O   0  0  0  0  0  0  0  0  0  0  0  0
   57.2160   26.0970   46.7680 C   0  0  0  0  0  0  0  0  0  0  0  0
   57.7943   25.8605   47.6734 H   0  0  0  0  0  0  0  0  0  0  0  0
   56.1985   26.4165   47.0374 H   0  0  0  0  0  0  0  0  0  0  0  0
   57.1240   24.8640   45.9030 C   0  0  0  0  0  0  0  0  0  0  0  0
   58.2710   24.0840   45.6740 C   0  0  0  0  0  0  0  0  0  0  0  0
   59.2274   24.3751   46.1329 H   0  0  0  0  0  0  0  0  0  0  0  0
   58.2090   22.9390   44.8670 C   0  0  0  0  0  0  0  0  0  0  0  0
   59.4290   22.1430   44.6370 C   0  0  0  0  0  0  0  0  0  0  0  0
   59.5132   21.5325   43.7258 H   0  0  0  0  0  0  0  0  0  0  0  0
   60.3770   22.1510   45.4680 O   0  0  0  0  0  0  0  0  0  0  0  0
   56.9840   22.5700   44.2920 C   0  0  0  0  0  0  0  0  0  0  0  0
   56.9261   21.6742   43.6562 H   0  0  0  0  0  0  0  0  0  0  0  0
   55.8380   23.3330   44.5220 C   0  0  0  0  0  0  0  0  0  0  0  0
   54.8825   23.0317   44.0680 H   0  0  0  0  0  0  0  0  0  0  0  0
   55.8940   24.4850   45.3300 C   0  0  0  0  0  0  0  0  0  0  0  0
   54.7560   25.2690   45.5830 O   0  0  0  0  0  0  0  0  0  0  0  0
   53.4200   24.7780   45.5770 C   0  0  0  0  0  0  0  0  0  0  0  0
   53.0717   24.6500   46.6125 H   0  0  0  0  0  0  0  0  0  0  0  0
   52.7681   25.4953   45.0569 H   0  0  0  0  0  0  0  0  0  0  0  0
   53.3877   23.8093   45.0569 H   0  0  0  0  0  0  0  0  0  0  0  0
   57.7180   29.5310   45.3140 C   0  0  0  0  0  0  0  0  0  0  0  0
   58.7503   29.8796   45.4650 H   0  0  0  0  0  0  0  0  0  0  0  0
  1  2  1  0
  2  3  2  0
  3  4  1  0
  4  5  1  0
  5  6  1  0
  5  7  1  0
  7  8  1  0
  8  9  1  0
  9 10  1  0
  9 11  1  0
  9 12  1  0
 12 13  2  0
 13 14  1  0
 13 15  1  0
 15 16  1  0
 16 17  1  0
 16 18  2  0
 15 19  2  0
 19 20  1  0
 19 21  1  0
 21 22  1  0
 21 23  2  0
 23 24  1  0
 24 25  1  0
 25 26  1  0
 25 27  1  0
 25 28  1  0
  7 29  2  0
 29 30  1  0
 29  3  1  0
 23 12  1  0
M  CHG  1   4  -1
M  END
>  <UniqueID>  (21) 
20

>  <SMILES>  (21) 
[H]/N=c1\cc(OCc2cc(C=O)ccc2OC)[nH][n-]1

>  <Energy>  (21) 
59.42401194850573

>  <Genealogy>  (21) 
COc1ccc(C=O)cc1COc1cc(=N)[n-][nH]1 (protonated)
[H]/N=c1\cc(OCc2cc(C=O)ccc2OC)[nH][n-]1 (cis-trans isomerization)
[H]/N=c1\cc(OCc2cc(C=O)ccc2OC)[nH][n-]1 (3D coordinates assigned)
[H]/N=c1\cc(OCc2cc(C=O)ccc2OC)[nH][n-]1 (optimized conformer: 59.42401194850573 kcal/mol)

>  <smiles>  (21) 
COc1ccc(C=O)cc1COc1cc(=N)[nH][nH]1

>  <score_type>  (21) 
oracle

>  <origin>  (21) 
adg

>  <m_score__min__energy>  (21) 
-7.9100000000000001

>  <m_primary>  (21) 
energy

$$$$
21:0
     RDKit          3D

 49 51  0  0  0  0  0  0  0  0999 V2000
   56.6440   21.8060   42.6220 C   0  0  0  0  0  0  0  0  0  0  0  0
   55.7700   22.8320   43.0830 O   0  0  0  0  0  0  0  0  0  0  0  0
   56.1440   23.8520   43.9700 C   0  0  0  0  0  0  0  0  0  0  0  0
   55.3850   24.1760   45.1120 C   0  0  0  0  0  0  0  0  0  0  0  0
   55.7970   25.2080   45.9620 C   0  0  0  0  0  0  0  0  0  0  0  0
   56.9700   25.9280   45.6900 C   0  0  0  0  0  0  0  0  0  0  0  0
   57.3790   27.0700   46.5810 C   0  0  0  0  0  0  0  0  0  0  0  0
   57.7230   28.2380   45.7720 N   0  0  0  0  0  0  0  0  0  0  0  0
   56.7190   29.0600   45.1550 C   0  0  0  0  0  0  0  0  0  0  0  0
   55.5230   28.6670   45.1160 O   0  0  0  0  0  0  0  0  0  0  0  0
   57.0520   30.3730   44.5830 C   0  0  0  0  0  0  0  0  0  0  0  0
   57.4220   30.6430   43.2760 C   0  0  0  0  0  0  0  0  0  0  0  0
   57.6710   31.9970   43.2280 C   0  0  0  0  0  0  0  0  0  0  0  0
   57.4370   32.4670   44.5050 C   0  0  0  0  0  0  0  0  0  0  0  0
   57.6490   33.8700   44.9730 C   0  0  0  0  0  0  0  0  0  0  0  0
   59.0660   33.9370   46.0560 S   0  0  0  0  0  0  0  0  0  0  0  0
   58.8850   35.0540   47.0480 O   0  0  0  0  0  0  0  0  0  0  0  0
   60.3040   34.2090   45.2460 O   0  0  0  0  0  0  0  0  0  0  0  0
   59.2410   32.4060   46.9150 C   0  0  0  0  0  0  0  0  0  0  0  0
   58.7020   32.2550   48.1990 C   0  0  0  0  0  0  0  0  0  0  0  0
   58.8870   31.0610   48.9040 C   0  0  0  0  0  0  0  0  0  0  0  0
   59.6090   30.0030   48.3270 C   0  0  0  0  0  0  0  0  0  0  0  0
   59.8500   28.7400   49.0990 C   0  0  0  0  0  0  0  0  0  0  0  0
   60.1670   30.1660   47.0490 C   0  0  0  0  0  0  0  0  0  0  0  0
   59.9800   31.3590   46.3450 C   0  0  0  0  0  0  0  0  0  0  0  0
   57.0670   31.4810   45.2880 O   0  0  0  0  0  0  0  0  0  0  0  0
   57.7250   25.6050   44.5510 C   0  0  0  0  0  0  0  0  0  0  0  0
   57.3140   24.5720   43.7020 C   0  0  0  0  0  0  0  0  0  0  0  0
   57.0866   21.2864   43.4846 H   0  0  0  0  0  0  0  0  0  0  0  0
   56.0764   21.0872   42.0127 H   0  0  0  0  0  0  0  0  0  0  0  0
   57.4439   22.2521   42.0127 H   0  0  0  0  0  0  0  0  0  0  0  0
   54.4653   23.6156   45.3360 H   0  0  0  0  0  0  0  0  0  0  0  0
   55.1970   25.4566   46.8498 H   0  0  0  0  0  0  0  0  0  0  0  0
   56.5456   27.3247   47.2523 H   0  0  0  0  0  0  0  0  0  0  0  0
   58.2565   26.7697   47.1724 H   0  0  0  0  0  0  0  0  0  0  0  0
   58.7320   28.4890   45.6810 H   0  0  0  0  0  0  0  0  0  0  0  0
   57.5008   29.9243   42.4470 H   0  0  0  0  0  0  0  0  0  0  0  0
   57.9902   32.5826   42.3533 H   0  0  0  0  0  0  0  0  0  0  0  0
   57.8217   34.5227   44.1046 H   0  0  0  0  0  0  0  0  0  0  0  0
   56.7570   34.2097   45.5198 H   0  0  0  0  0  0  0  0  0  0  0  0
   58.1315   33.0779   48.6544 H   0  0  0  0  0  0  0  0  0  0  0  0
   58.4655   30.9501   49.9140 H   0  0  0  0  0  0  0  0  0  0  0  0
   59.8089   28.9556   50.1769 H   0  0  0  0  0  0  0  0  0  0  0  0
   59.0767   28.0007   48.8432 H   0  0  0  0  0  0  0  0  0  0  0  0
   60.8412   28.3374   48.8432 H   0  0  0  0  0  0  0  0  0  0  0  0
   60.7539   29.3513   46.5998 H   0  0  0  0  0  0  0  0  0  0  0  0
   60.4137   31.4770   45.3410 H   0  0  0  0  0  0  0  0  0  0  0  0
   58.6435   26.1666   44.3254 H   0  0  0  0  0  0  0  0  0  0  0  0
   57.9159   24.3232   42.8155 H   0  0  0  0  0  0  0  0  0  0  0  0
  1  2  1  0
  2  3  1  0
  3  4  2  0
  4  5  1  0
  5  6  2  0
  6  7  1  0
  7  8  1  0
  8  9  1  0
  9 10  2  0
  9 11  1  0
 11 12  2  0
 12 13  1  0
 13 14  2  0
 14 15  1  0
 15 16  1  0
 16 17  2  0
 16 18  2  0
 16 19  1  0
 19 20  2  0
 20 21  1  0
 21 22  2  0
 22 23  1  0
 22 24  1  0
 24 25  2  0
 14 26  1  0
  6 27  1  0
 27 28  2  0
 28  3  1  0
 26 11  1  0
 25 19  1  0
  1 29  1  0
  1 30  1  0
  1 31  1  0
  4 32  1  0
  5 33  1  0
  7 34  1  0
  7 35  1  0
  8 36  1  0
 12 37  1  0
 13 38  1  0
 15 39  1  0
 15 40  1  0
 20 41  1  0
 21 42  1  0
 23 43  1  0
 23 44  1  0
 23 45  1  0
 24 46  1  0
 25 47  1  0
 27 48  1  0
 28 49  1  0
M  END
>  <UniqueID>  (22) 
21

>  <SMILES>  (22) 
COc1ccc(CNC(=O)c2ccc(CS(=O)(=O)c3ccc(C)cc3)o2)cc1

>  <Energy>  (22) 
67.02246840609799

>  <Genealogy>  (22) 
COc1ccc(CNC(=O)c2ccc(CS(=O)(=O)c3ccc(C)cc3)o2)cc1 (3D coordinates assigned)
COc1ccc(CNC(=O)c2ccc(CS(=O)(=O)c3ccc(C)cc3)o2)cc1 (optimized conformer: 67.02246840609799 kcal/mol)

>  <smiles>  (22) 
COc1ccc(CNC(=O)c2ccc(CS(=O)(=O)c3ccc(C)cc3)o2)cc1

>  <score_type>  (22) 
oracle

>  <origin>  (22) 
adg

>  <m_score__min__energy>  (22) 
-8.5899999999999999

>  <m_primary>  (22) 
energy

$$$$
22:0
     RDKit          3D

 27 28  0  0  0  0  0  0  0  0999 V2000
   55.0470   26.3500   45.9980 N   0  0  0  0  0  0  0  0  0  0  0  0
   56.6390   25.6780   46.0500 S   0  0  0  0  0  0  0  0  0  0  0  0
   57.2360   25.9090   47.4090 O   0  0  0  0  0  0  0  0  0  0  0  0
   56.5640   24.2000   45.7860 O   0  0  0  0  0  0  0  0  0  0  0  0
   57.6570   26.4470   44.8060 C   0  0  0  0  0  0  0  0  0  0  0  0
   57.7420   27.9200   45.0400 C   0  0  0  0  0  0  0  0  0  0  0  0
   58.6410   28.5610   45.8880 C   0  0  0  0  0  0  0  0  0  0  0  0
   58.4730   29.9060   45.9810 N   0  0  0  0  0  0  0  0  0  0  0  0
   57.4470   30.3330   45.2100 C   0  0  0  0  0  0  0  0  0  0  0  0
   57.0510   31.5690   45.1400 N   0  0  0  0  0  0  0  0  0  0  0  0
   57.8800   32.6960   44.8180 C   0  0  0  0  0  0  0  0  0  0  0  0
   57.9090   33.0990   43.6250 O   0  0  0  0  0  0  0  0  0  0  0  0
   58.7500   33.3410   45.8260 C   0  0  0  0  0  0  0  0  0  0  0  0
   58.3140   34.4590   46.5550 C   0  0  0  0  0  0  0  0  0  0  0  0
   59.1470   35.0380   47.4610 N   0  0  0  0  0  0  0  0  0  0  0  0
   60.4020   34.5580   47.6690 C   0  0  0  0  0  0  0  0  0  0  0  0
   60.8440   33.4520   46.9390 C   0  0  0  0  0  0  0  0  0  0  0  0
   62.4540   32.8090   47.1810 Cl  0  0  0  0  0  0  0  0  0  0  0  0
   60.0130   32.8750   46.0350 N   0  0  0  0  0  0  0  0  0  0  0  0
   56.6870   29.0700   44.4030 S   0  0  0  0  0  0  0  0  0  0  0  0
   55.1530   27.3880   46.0340 H   0  0  0  0  0  0  0  0  0  0  0  0
   58.6677   26.0147   44.8467 H   0  0  0  0  0  0  0  0  0  0  0  0
   57.2087   26.2681   43.8175 H   0  0  0  0  0  0  0  0  0  0  0  0
   59.4252   28.0213   46.4391 H   0  0  0  0  0  0  0  0  0  0  0  0
   57.3042   34.8644   46.3943 H   0  0  0  0  0  0  0  0  0  0  0  0
   58.8190   35.8670   48.0050 H   0  0  0  0  0  0  0  0  0  0  0  0
   61.0637   35.0366   48.4059 H   0  0  0  0  0  0  0  0  0  0  0  0
  1  2  1  0
  2  3  2  0
  2  4  2  0
  2  5  1  0
  5  6  1  0
  6  7  2  0
  7  8  1  0
  8  9  1  0
  9 10  2  3
 10 11  1  0
 11 12  2  0
 11 13  1  0
 13 14  2  0
 14 15  1  0
 15 16  2  0
 16 17  1  0
 17 18  1  0
 17 19  2  0
  9 20  1  0
 20  6  1  0
 19 13  1  0
  1 21  1  0
  5 22  1  0
  5 23  1  0
  7 24  1  0
 14 25  1  0
 15 26  1  0
 16 27  1  0
M  CHG  3   1  -1   8  -1  15   1
M  END
>  <UniqueID>  (23) 
22

>  <SMILES>  (23) 
[NH-]S(=O)(=O)Cc1c[n-]c(=NC(=O)c2c[nH+]cc(Cl)n2)s1

>  <Energy>  (23) 
58.20864343619109

>  <Genealogy>  (23) 
[NH-]S(=O)(=O)Cc1c[n-]c(=NC(=O)c2c[nH+]cc(Cl)n2)s1 (protonated)
[NH-]S(=O)(=O)Cc1c[n-]c(=NC(=O)c2c[nH+]cc(Cl)n2)s1 (3D coordinates assigned)
[NH-]S(=O)(=O)Cc1c[n-]c(=NC(=O)c2c[nH+]cc(Cl)n2)s1 (optimized conformer: 58.20864343619109 kcal/mol)

>  <smiles>  (23) 
NS(=O)(=O)Cc1c[nH]c(=NC(=O)c2cncc(Cl)n2)s1

>  <score_type>  (23) 
oracle

>  <origin>  (23) 
adg

>  <m_score__min__energy>  (23) 
-9.9399999999999995

>  <m_primary>  (23) 
energy

$$$$
23:0
     RDKit          3D

 36 38  0  0  0  0  0  0  0  0999 V2000
   60.0320   26.6040   46.1040 C   0  0  0  0  0  0  0  0  0  0  0  0
   58.9060   27.1960   45.6970 C   0  0  0  0  0  0  0  0  0  0  0  0
   58.8060   28.5250   45.3260 C   0  0  0  0  0  0  0  0  0  0  0  0
   57.4840   28.7250   44.9780 C   0  0  0  0  0  0  0  0  0  0  0  0
   56.9160   29.9950   44.5010 C   0  0  0  0  0  0  0  0  0  0  0  0
   55.6680   30.1710   44.5350 O   0  0  0  0  0  0  0  0  0  0  0  0
   57.7760   31.0140   44.0710 O   0  0  0  0  0  0  0  0  0  0  0  0
   58.0560   32.1930   44.7790 C   0  0  0  0  0  0  0  0  0  0  0  0
   58.1950   33.4400   44.1380 C   0  0  0  0  0  0  0  0  0  0  0  0
   58.4870   34.5860   44.8840 C   0  0  0  0  0  0  0  0  0  0  0  0
   58.6510   34.4990   46.2680 C   0  0  0  0  0  0  0  0  0  0  0  0
   58.5340   33.2620   46.9080 C   0  0  0  0  0  0  0  0  0  0  0  0
   58.2430   32.1140   46.1660 C   0  0  0  0  0  0  0  0  0  0  0  0
   58.1340   30.9170   46.7970 F   0  0  0  0  0  0  0  0  0  0  0  0
   56.7760   27.5870   45.1200 N   0  0  0  0  0  0  0  0  0  0  0  0
   57.6320   26.6410   45.5640 C   0  0  0  0  0  0  0  0  0  0  0  0
   57.2910   25.3590   45.7990 C   0  0  0  0  0  0  0  0  0  0  0  0
   55.9920   24.7750   45.3980 C   0  0  0  0  0  0  0  0  0  0  0  0
   54.8020   25.4770   45.6380 C   0  0  0  0  0  0  0  0  0  0  0  0
   54.8300   26.7080   46.2870 O   0  0  0  0  0  0  0  0  0  0  0  0
   53.6100   24.9520   45.2450 N   0  0  0  0  0  0  0  0  0  0  0  0
   53.5520   23.7540   44.6050 C   0  0  0  0  0  0  0  0  0  0  0  0
   52.4400   23.2790   44.2510 O   0  0  0  0  0  0  0  0  0  0  0  0
   54.6930   23.0700   44.3370 N   0  0  0  0  0  0  0  0  0  0  0  0
   55.9060   23.5520   44.7080 C   0  0  0  0  0  0  0  0  0  0  0  0
   56.9440   22.9030   44.4120 O   0  0  0  0  0  0  0  0  0  0  0  0
   60.0245   25.5396   46.3815 H   0  0  0  0  0  0  0  0  0  0  0  0
   60.9668   27.1808   46.1616 H   0  0  0  0  0  0  0  0  0  0  0  0
   59.6145   29.2707   45.3111 H   0  0  0  0  0  0  0  0  0  0  0  0
   58.0734   33.5122   43.0471 H   0  0  0  0  0  0  0  0  0  0  0  0
   58.5878   35.5583   44.3795 H   0  0  0  0  0  0  0  0  0  0  0  0
   58.8721   35.4033   46.8540 H   0  0  0  0  0  0  0  0  0  0  0  0
   58.6711   33.1919   47.9972 H   0  0  0  0  0  0  0  0  0  0  0  0
   55.7640   27.4680   44.8900 H   0  0  0  0  0  0  0  0  0  0  0  0
   58.0159   24.7129   46.3158 H   0  0  0  0  0  0  0  0  0  0  0  0
   52.7290   25.4810   45.4390 H   0  0  0  0  0  0  0  0  0  0  0  0
  1  2  2  0
  2  3  1  0
  3  4  2  0
  4  5  1  0
  5  6  2  0
  5  7  1  0
  7  8  1  0
  8  9  2  0
  9 10  1  0
 10 11  2  0
 11 12  1  0
 12 13  2  0
 13 14  1  0
  4 15  1  0
 15 16  1  0
 16 17  2  3
 17 18  1  0
 18 19  2  0
 19 20  1  0
 19 21  1  0
 21 22  1  0
 22 23  2  0
 22 24  1  0
 24 25  1  0
 25 26  2  0
 16  2  1  0
 25 18  1  0
 13  8  1  0
  1 27  1  0
  1 28  1  0
  3 29  1  0
  9 30  1  0
 10 31  1  0
 11 32  1  0
 12 33  1  0
 15 34  1  0
 17 35  1  0
 21 36  1  0
M  CHG  2  20  -1  24  -1
M  END
>  <UniqueID>  (24) 
23

>  <SMILES>  (24) 
C=c1cc(C(=O)Oc2ccccc2F)[nH]c1=Cc1c([O-])[nH]c(=O)[n-]c1=O

>  <Energy>  (24) 
79.43805410214543

>  <Genealogy>  (24) 
C=c1cc(C(=O)Oc2ccccc2F)[nH]c1=Cc1c([O-])[nH]c(=O)[n-]c1=O (protonated)
C=c1cc(C(=O)Oc2ccccc2F)[nH]c1=Cc1c([O-])[nH]c(=O)[n-]c1=O (3D coordinates assigned)
C=c1cc(C(=O)Oc2ccccc2F)[nH]c1=Cc1c([O-])[nH]c(=O)[n-]c1=O (optimized conformer: 79.43805410214543 kcal/mol)

>  <smiles>  (24) 
C=c1cc(C(=O)Oc2ccccc2F)[nH]c1=Cc1c(O)[nH]c(=O)[nH]c1=O

>  <score_type>  (24) 
oracle

>  <origin>  (24) 
adg

>  <m_score__min__energy>  (24) 
-13.93

>  <m_primary>  (24) 
energy

$$$$
24:0
     RDKit          3D

 34 36  0  0  0  0  0  0  0  0999 V2000
   60.2350   31.2350   51.1810 C   0  0  0  0  0  0  0  0  0  0  0  0
   59.4510   29.6390   51.0980 S   0  0  0  0  0  0  0  0  0  0  0  0
   58.0660   29.8060   50.5410 O   0  0  0  0  0  0  0  0  0  0  0  0
   60.2250   28.7250   50.1900 O   0  0  0  0  0  0  0  0  0  0  0  0
   59.3370   28.9480   52.6870 N   0  0  0  0  0  0  0  0  0  0  0  0
   58.1000   28.5300   53.2990 C   0  0  0  0  0  0  0  0  0  0  0  0
   56.9240   29.2870   53.1560 C   0  0  0  0  0  0  0  0  0  0  0  0
   55.7220   28.8650   53.7440 C   0  0  0  0  0  0  0  0  0  0  0  0
   54.4800   29.6680   53.5980 C   0  0  0  0  0  0  0  0  0  0  0  0
   53.6570   29.9160   54.7110 C   0  0  0  0  0  0  0  0  0  0  0  0
   52.4870   30.6680   54.5770 C   0  0  0  0  0  0  0  0  0  0  0  0
   52.1160   31.1880   53.3270 C   0  0  0  0  0  0  0  0  0  0  0  0
   50.9430   31.9500   53.1560 C   0  0  0  0  0  0  0  0  0  0  0  0
   50.1800   32.1910   54.1300 O   0  0  0  0  0  0  0  0  0  0  0  0
   50.6220   32.4360   51.9280 N   0  0  0  0  0  0  0  0  0  0  0  0
   51.4010   32.2120   50.8370 C   0  0  0  0  0  0  0  0  0  0  0  0
   51.0280   32.7320   49.6040 O   0  0  0  0  0  0  0  0  0  0  0  0
   52.5730   31.4630   50.9530 C   0  0  0  0  0  0  0  0  0  0  0  0
   52.9390   30.9450   52.2030 C   0  0  0  0  0  0  0  0  0  0  0  0
   54.1120   30.1880   52.3450 C   0  0  0  0  0  0  0  0  0  0  0  0
   55.7200   27.6650   54.4700 C   0  0  0  0  0  0  0  0  0  0  0  0
   56.8610   26.9390   54.5940 N   0  0  0  0  0  0  0  0  0  0  0  0
   58.0350   27.3300   54.0330 C   0  0  0  0  0  0  0  0  0  0  0  0
   59.4470   26.3140   54.2820 Cl  0  0  0  0  0  0  0  0  0  0  0  0
   60.3752   31.5203   52.2341 H   0  0  0  0  0  0  0  0  0  0  0  0
   61.2133   31.1895   50.6801 H   0  0  0  0  0  0  0  0  0  0  0  0
   59.6010   31.9814   50.6801 H   0  0  0  0  0  0  0  0  0  0  0  0
   60.2250   28.9080   53.2330 H   0  0  0  0  0  0  0  0  0  0  0  0
   56.9465   30.2215   52.5761 H   0  0  0  0  0  0  0  0  0  0  0  0
   53.9369   29.5143   55.6961 H   0  0  0  0  0  0  0  0  0  0  0  0
   51.8528   30.8537   55.4564 H   0  0  0  0  0  0  0  0  0  0  0  0
   53.2042   31.2807   50.0708 H   0  0  0  0  0  0  0  0  0  0  0  0
   54.7490   29.9999   51.4682 H   0  0  0  0  0  0  0  0  0  0  0  0
   54.7910   27.3107   54.9406 H   0  0  0  0  0  0  0  0  0  0  0  0
  1  2  1  0
  2  3  2  0
  2  4  2  0
  2  5  1  0
  5  6  1  0
  6  7  2  0
  7  8  1  0
  8  9  1  0
  9 10  2  0
 10 11  1  0
 11 12  2  0
 12 13  1  0
 13 14  2  0
 13 15  1  0
 15 16  1  0
 16 17  1  0
 16 18  2  0
 18 19  1  0
 19 20  2  0
  8 21  2  0
 21 22  1  0
 22 23  2  0
 23 24  1  0
 23  6  1  0
 20  9  1  0
 19 12  1  0
  1 25  1  0
  1 26  1  0
  1 27  1  0
  5 28  1  0
  7 29  1  0
 10 30  1  0
 11 31  1  0
 18 32  1  0
 20 33  1  0
 21 34  1  0
M  CHG  2  15  -1  17  -1
M  END
>  <UniqueID>  (25) 
24

>  <SMILES>  (25) 
CS(=O)(=O)Nc1cc(-c2ccc3c(=O)[n-]c([O-])cc3c2)cnc1Cl

>  <Energy>  (25) 
48.03542879159001

>  <Genealogy>  (25) 
CS(=O)(=O)Nc1cc(-c2ccc3c(=O)[n-]c([O-])cc3c2)cnc1Cl (protonated)
CS(=O)(=O)Nc1cc(-c2ccc3c(=O)[n-]c([O-])cc3c2)cnc1Cl (3D coordinates assigned)
CS(=O)(=O)Nc1cc(-c2ccc3c(=O)[n-]c([O-])cc3c2)cnc1Cl (optimized conformer: 48.03542879159001 kcal/mol)

>  <smiles>  (25) 
CS(=O)(=O)Nc1cc(-c2ccc3c(=O)[nH]c(O)cc3c2)cnc1Cl

>  <score_type>  (25) 
oracle

>  <origin>  (25) 
adg

>  <m_score__min__energy>  (25) 
-13.619999999999999

>  <m_primary>  (25) 
energy

$$$$
25:0
     RDKit          3D

 49 51  0  0  0  0  0  0  0  0999 V2000
   58.4830   33.3390   43.7610 O   0  0  0  0  0  0  0  0  0  0  0  0
   57.7900   32.3530   44.1250 C   0  0  0  0  0  0  0  0  0  0  0  0
   57.9210   31.0540   43.3780 C   0  0  0  0  0  0  0  0  0  0  0  0
   57.3640   29.9540   44.1660 N   0  0  0  0  0  0  0  0  0  0  0  0
   58.0480   28.9340   44.7160 C   0  0  0  0  0  0  0  0  0  0  0  0
   57.1430   28.1340   45.3850 C   0  0  0  0  0  0  0  0  0  0  0  0
   57.4610   26.8590   46.0960 C   0  0  0  0  0  0  0  0  0  0  0  0
   56.3160   26.3630   46.7300 O   0  0  0  0  0  0  0  0  0  0  0  0
   55.8920   28.6220   45.2400 N   0  0  0  0  0  0  0  0  0  0  0  0
   56.0750   29.7310   44.4940 C   0  0  0  0  0  0  0  0  0  0  0  0
   55.1240   30.4690   44.1250 O   0  0  0  0  0  0  0  0  0  0  0  0
   56.9320   32.4950   45.2640 N   0  0  0  0  0  0  0  0  0  0  0  0
   57.2800   33.2190   46.4790 C   0  0  0  0  0  0  0  0  0  0  0  0
   58.7570   33.1050   46.7230 C   0  0  0  0  0  0  0  0  0  0  0  0
   59.5880   34.2270   46.5840 C   0  0  0  0  0  0  0  0  0  0  0  0
   60.9650   34.1170   46.8000 C   0  0  0  0  0  0  0  0  0  0  0  0
   61.5280   32.8810   47.1430 C   0  0  0  0  0  0  0  0  0  0  0  0
   63.2520   32.7420   47.4780 S   0  0  0  0  0  0  0  0  0  0  0  0
   63.7500   31.4310   46.9340 O   0  0  0  0  0  0  0  0  0  0  0  0
   63.9990   33.8560   46.8000 O   0  0  0  0  0  0  0  0  0  0  0  0
   63.5200   32.8040   49.2020 N   0  0  0  0  0  0  0  0  0  0  0  0
   62.8920   34.0130   49.7750 C   0  0  0  0  0  0  0  0  0  0  0  0
   63.4260   34.3110   51.1900 C   0  0  0  0  0  0  0  0  0  0  0  0
   64.0410   33.1670   51.7470 O   0  0  0  0  0  0  0  0  0  0  0  0
   65.2130   32.8470   51.0170 C   0  0  0  0  0  0  0  0  0  0  0  0
   64.9630   32.7740   49.4930 C   0  0  0  0  0  0  0  0  0  0  0  0
   60.7050   31.7550   47.2650 C   0  0  0  0  0  0  0  0  0  0  0  0
   59.3270   31.8640   47.0480 C   0  0  0  0  0  0  0  0  0  0  0  0
   57.3779   31.1280   42.4243 H   0  0  0  0  0  0  0  0  0  0  0  0
   58.9868   30.8555   43.1916 H   0  0  0  0  0  0  0  0  0  0  0  0
   59.1330   28.7675   44.6453 H   0  0  0  0  0  0  0  0  0  0  0  0
   57.8241   26.1178   45.3688 H   0  0  0  0  0  0  0  0  0  0  0  0
   58.2360   27.0523   46.8523 H   0  0  0  0  0  0  0  0  0  0  0  0
   55.6910   27.1280   46.8250 H   0  0  0  0  0  0  0  0  0  0  0  0
   57.0077   34.2787   46.3652 H   0  0  0  0  0  0  0  0  0  0  0  0
   56.7330   32.7897   47.3314 H   0  0  0  0  0  0  0  0  0  0  0  0
   59.1539   35.1981   46.3037 H   0  0  0  0  0  0  0  0  0  0  0  0
   61.6082   35.0037   46.7003 H   0  0  0  0  0  0  0  0  0  0  0  0
   63.0710   31.9550   49.6190 H   0  0  0  0  0  0  0  0  0  0  0  0
   63.1093   34.8718   49.1229 H   0  0  0  0  0  0  0  0  0  0  0  0
   61.8082   33.8385   49.8450 H   0  0  0  0  0  0  0  0  0  0  0  0
   64.1638   35.1249   51.1327 H   0  0  0  0  0  0  0  0  0  0  0  0
   62.5810   34.6035   51.8307 H   0  0  0  0  0  0  0  0  0  0  0  0
   65.9718   33.6189   51.2129 H   0  0  0  0  0  0  0  0  0  0  0  0
   65.5502   31.8534   51.3472 H   0  0  0  0  0  0  0  0  0  0  0  0
   65.4479   33.6327   49.0057 H   0  0  0  0  0  0  0  0  0  0  0  0
   65.3823   31.8320   49.1098 H   0  0  0  0  0  0  0  0  0  0  0  0
   61.1429   30.7819   47.5322 H   0  0  0  0  0  0  0  0  0  0  0  0
   58.6874   30.9731   47.1325 H   0  0  0  0  0  0  0  0  0  0  0  0
  1  2  2  0
  2  3  1  0
  3  4  1  0
  4  5  1  0
  5  6  2  0
  6  7  1  0
  7  8  1  0
  6  9  1  0
  9 10  1  0
 10 11  2  0
  2 12  1  0
 12 13  1  0
 13 14  1  0
 14 15  2  0
 15 16  1  0
 16 17  2  0
 17 18  1  0
 18 19  2  0
 18 20  2  0
 18 21  1  0
 21 22  1  0
 22 23  1  0
 23 24  1  0
 24 25  1  0
 25 26  1  0
 17 27  1  0
 27 28  2  0
 10  4  1  0
 28 14  1  0
 26 21  1  0
  3 29  1  0
  3 30  1  0
  5 31  1  0
  7 32  1  0
  7 33  1  0
  8 34  1  0
 13 35  1  0
 13 36  1  0
 15 37  1  0
 16 38  1  0
 21 39  1  0
 22 40  1  0
 22 41  1  0
 23 42  1  0
 23 43  1  0
 25 44  1  0
 25 45  1  0
 26 46  1  0
 26 47  1  0
 27 48  1  0
 28 49  1  0
M  CHG  3   9  -1  12  -1  21   1
M  END
>  <UniqueID>  (26) 
25

>  <SMILES>  (26) 
O=C(Cn1cc(CO)[n-]c1=O)[N-]Cc1ccc(S(=O)(=O)[NH+]2CCOCC2)cc1

>  <Energy>  (26) 
82.57040177874819

>  <Genealogy>  (26) 
O=C(Cn1cc(CO)[n-]c1=O)[N-]Cc1ccc(S(=O)(=O)[NH+]2CCOCC2)cc1 (protonated)
O=C(Cn1cc(CO)[n-]c1=O)[N-]Cc1ccc(S(=O)(=O)[NH+]2CCOCC2)cc1 (3D coordinates assigned)
O=C(Cn1cc(CO)[n-]c1=O)[N-]Cc1ccc(S(=O)(=O)[NH+]2CCOCC2)cc1 (nonaromatic ring conformer: 82.57040177874819 kcal/mol)

>  <smiles>  (26) 
O=C(Cn1cc(CO)[nH]c1=O)NCc1ccc(S(=O)(=O)N2CCOCC2)cc1

>  <score_type>  (26) 
oracle

>  <origin>  (26) 
adg

>  <m_score__min__energy>  (26) 
-10.800000000000001

>  <m_primary>  (26) 
energy

$$$$
26:0
     RDKit          3D

 51 53  0  0  0  0  0  0  0  0999 V2000
   56.4800   30.1060   43.5800 C   0  0  0  0  0  0  0  0  0  0  0  0
   56.3600   30.9210   44.7420 O   0  0  0  0  0  0  0  0  0  0  0  0
   57.2970   31.8920   45.1270 C   0  0  0  0  0  0  0  0  0  0  0  0
   57.0280   33.2720   45.0560 C   0  0  0  0  0  0  0  0  0  0  0  0
   57.9950   34.2000   45.4530 C   0  0  0  0  0  0  0  0  0  0  0  0
   59.2470   33.7650   45.9140 C   0  0  0  0  0  0  0  0  0  0  0  0
   60.2760   34.7570   46.3770 C   0  0  0  0  0  0  0  0  0  0  0  0
   61.0360   34.1980   47.4900 N   0  0  0  0  0  0  0  0  0  0  0  0
   62.3580   33.6640   47.3400 C   0  0  0  0  0  0  0  0  0  0  0  0
   62.9920   33.8380   46.2640 O   0  0  0  0  0  0  0  0  0  0  0  0
   63.0020   32.9380   48.4580 C   0  0  0  0  0  0  0  0  0  0  0  0
   64.3800   33.1090   48.6770 C   0  0  0  0  0  0  0  0  0  0  0  0
   65.0100   32.4860   49.7560 C   0  0  0  0  0  0  0  0  0  0  0  0
   64.2730   31.6830   50.6270 C   0  0  0  0  0  0  0  0  0  0  0  0
   62.9080   31.4860   50.4120 C   0  0  0  0  0  0  0  0  0  0  0  0
   62.2610   32.0990   49.3280 C   0  0  0  0  0  0  0  0  0  0  0  0
   60.8780   31.7990   49.0790 N   0  0  0  0  0  0  0  0  0  0  0  0
   60.5010   30.5890   48.3500 C   0  0  0  0  0  0  0  0  0  0  0  0
   59.6290   32.7750   49.7910 S   0  0  0  0  0  0  0  0  0  0  0  0
   60.2490   33.9320   50.5260 O   0  0  0  0  0  0  0  0  0  0  0  0
   58.7330   33.3200   48.7130 O   0  0  0  0  0  0  0  0  0  0  0  0
   58.6700   31.8030   50.9050 C   0  0  0  0  0  0  0  0  0  0  0  0
   59.0390   30.4770   51.1730 C   0  0  0  0  0  0  0  0  0  0  0  0
   58.2630   29.6900   52.0300 C   0  0  0  0  0  0  0  0  0  0  0  0
   57.1160   30.2240   52.6240 C   0  0  0  0  0  0  0  0  0  0  0  0
   56.7450   31.5460   52.3650 C   0  0  0  0  0  0  0  0  0  0  0  0
   57.5190   32.3350   51.5090 C   0  0  0  0  0  0  0  0  0  0  0  0
   59.5100   32.3900   45.9970 C   0  0  0  0  0  0  0  0  0  0  0  0
   58.5420   31.4630   45.6010 C   0  0  0  0  0  0  0  0  0  0  0  0
   56.6341   29.0592   43.8807 H   0  0  0  0  0  0  0  0  0  0  0  0
   55.5607   30.1839   42.9810 H   0  0  0  0  0  0  0  0  0  0  0  0
   57.3378   30.4455   42.9810 H   0  0  0  0  0  0  0  0  0  0  0  0
   56.0526   33.6215   44.6865 H   0  0  0  0  0  0  0  0  0  0  0  0
   57.7735   35.2764   45.4038 H   0  0  0  0  0  0  0  0  0  0  0  0
   60.9601   34.9878   45.5471 H   0  0  0  0  0  0  0  0  0  0  0  0
   59.7709   35.6765   46.7077 H   0  0  0  0  0  0  0  0  0  0  0  0
   60.6470   34.3070   48.4510 H   0  0  0  0  0  0  0  0  0  0  0  0
   64.9669   33.7390   47.9924 H   0  0  0  0  0  0  0  0  0  0  0  0
   66.0884   32.6284   49.9196 H   0  0  0  0  0  0  0  0  0  0  0  0
   64.7685   31.2044   51.4846 H   0  0  0  0  0  0  0  0  0  0  0  0
   62.3347   30.8450   51.0979 H   0  0  0  0  0  0  0  0  0  0  0  0
   60.2526   29.7919   49.0662 H   0  0  0  0  0  0  0  0  0  0  0  0
   59.6259   30.7996   47.7177 H   0  0  0  0  0  0  0  0  0  0  0  0
   61.3409   30.2652   47.7177 H   0  0  0  0  0  0  0  0  0  0  0  0
   59.9417   30.0544   50.7077 H   0  0  0  0  0  0  0  0  0  0  0  0
   58.5556   28.6500   52.2367 H   0  0  0  0  0  0  0  0  0  0  0  0
   56.5050   29.6032   53.2958 H   0  0  0  0  0  0  0  0  0  0  0  0
   55.8435   31.9661   52.8349 H   0  0  0  0  0  0  0  0  0  0  0  0
   57.2256   33.3759   51.3078 H   0  0  0  0  0  0  0  0  0  0  0  0
   60.4818   32.0398   46.3752 H   0  0  0  0  0  0  0  0  0  0  0  0
   58.7606   30.3867   45.6624 H   0  0  0  0  0  0  0  0  0  0  0  0
  1  2  1  0
  2  3  1  0
  3  4  2  0
  4  5  1  0
  5  6  2  0
  6  7  1  0
  7  8  1  0
  8  9  1  0
  9 10  2  0
  9 11  1  0
 11 12  2  0
 12 13  1  0
 13 14  2  0
 14 15  1  0
 15 16  2  0
 16 17  1  0
 17 18  1  0
 17 19  1  0
 19 20  2  0
 19 21  2  0
 19 22  1  0
 22 23  2  0
 23 24  1  0
 24 25  2  0
 25 26  1  0
 26 27  2  0
  6 28  1  0
 28 29  2  0
 29  3  1  0
 16 11  1  0
 27 22  1  0
  1 30  1  0
  1 31  1  0
  1 32  1  0
  4 33  1  0
  5 34  1  0
  7 35  1  0
  7 36  1  0
  8 37  1  0
 12 38  1  0
 13 39  1  0
 14 40  1  0
 15 41  1  0
 18 42  1  0
 18 43  1  0
 18 44  1  0
 23 45  1  0
 24 46  1  0
 25 47  1  0
 26 48  1  0
 27 49  1  0
 28 50  1  0
 29 51  1  0
M  END
>  <UniqueID>  (27) 
26

>  <SMILES>  (27) 
COc1ccc(CNC(=O)c2ccccc2N(C)S(=O)(=O)c2ccccc2)cc1

>  <Energy>  (27) 
58.186752749955744

>  <Genealogy>  (27) 
COc1ccc(CNC(=O)c2ccccc2N(C)S(=O)(=O)c2ccccc2)cc1 (3D coordinates assigned)
COc1ccc(CNC(=O)c2ccccc2N(C)S(=O)(=O)c2ccccc2)cc1 (optimized conformer: 58.186752749955744 kcal/mol)

>  <smiles>  (27) 
COc1ccc(CNC(=O)c2ccccc2N(C)S(=O)(=O)c2ccccc2)cc1

>  <score_type>  (27) 
oracle

>  <origin>  (27) 
adg

>  <m_score__min__energy>  (27) 
-8.4100000000000001

>  <m_primary>  (27) 
energy

$$$$
27:0
     RDKit          3D

 22 23  0  0  0  0  0  0  0  0999 V2000
   58.5008   26.2693   44.6041 H   0  0  0  0  0  0  0  0  0  0  0  0
   57.5670   26.3320   45.1820 C   0  0  0  0  0  0  0  0  0  0  0  0
   57.3190   27.4330   45.8310 N   0  0  0  0  0  0  0  0  0  0  0  0
   57.5070   28.7280   45.3080 N   0  0  0  0  0  0  0  0  0  0  0  0
   56.4780   29.4720   44.8200 C   0  0  0  0  0  0  0  0  0  0  0  0
   55.1580   29.0430   44.8800 O   0  0  0  0  0  0  0  0  0  0  0  0
   56.8420   30.6910   44.2600 C   0  0  0  0  0  0  0  0  0  0  0  0
   56.1582   31.4438   43.8408 H   0  0  0  0  0  0  0  0  0  0  0  0
   58.5220   30.8060   44.3400 S   0  0  0  0  0  0  0  0  0  0  0  0
   58.7110   29.3200   45.1000 C   0  0  0  0  0  0  0  0  0  0  0  0
   60.1660   28.6140   45.3580 S   0  0  0  0  0  0  0  0  0  0  0  0
   56.6640   25.1610   45.1780 C   0  0  0  0  0  0  0  0  0  0  0  0
   57.1370   23.9450   44.6610 C   0  0  0  0  0  0  0  0  0  0  0  0
   58.1604   23.8819   44.2626 H   0  0  0  0  0  0  0  0  0  0  0  0
   56.3160   22.8130   44.6490 C   0  0  0  0  0  0  0  0  0  0  0  0
   56.9840   21.1550   43.9770 Br  0  0  0  0  0  0  0  0  0  0  0  0
   55.0070   22.8940   45.1350 C   0  0  0  0  0  0  0  0  0  0  0  0
   54.3658   22.0002   45.1400 H   0  0  0  0  0  0  0  0  0  0  0  0
   54.5140   24.1100   45.6140 C   0  0  0  0  0  0  0  0  0  0  0  0
   53.4807   24.1738   45.9857 H   0  0  0  0  0  0  0  0  0  0  0  0
   55.3290   25.2470   45.6230 C   0  0  0  0  0  0  0  0  0  0  0  0
   54.7950   26.4590   46.0460 O   0  0  0  0  0  0  0  0  0  0  0  0
  1  2  1  0
  2  3  2  0
  3  4  1  0
  4  5  1  0
  5  6  1  0
  5  7  2  0
  7  8  1  0
  7  9  1  0
  9 10  1  0
 10 11  2  0
  2 12  1  0
 12 13  2  0
 13 14  1  0
 13 15  1  0
 15 16  1  0
 15 17  2  0
 17 18  1  0
 17 19  1  0
 19 20  1  0
 19 21  2  0
 21 22  1  0
 10  4  1  0
 21 12  1  0
M  CHG  2   6  -1  22  -1
M  END
>  <UniqueID>  (28) 
27

>  <SMILES>  (28) 
[O-]c1ccc(Br)cc1/C=N\n1c([O-])csc1=S

>  <Energy>  (28) 
67.5722450072066

>  <Genealogy>  (28) 
[O-]c1ccc(Br)cc1C=Nn1c([O-])csc1=S (protonated)
[O-]c1ccc(Br)cc1/C=N\n1c([O-])csc1=S (cis-trans isomerization)
[O-]c1ccc(Br)cc1/C=N\n1c([O-])csc1=S (3D coordinates assigned)
[O-]c1ccc(Br)cc1/C=N\n1c([O-])csc1=S (optimized conformer: 67.5722450072066 kcal/mol)

>  <smiles>  (28) 
Oc1ccc(Br)cc1C=Nn1c(O)csc1=S

>  <score_type>  (28) 
oracle

>  <origin>  (28) 
adg

>  <m_score__min__energy>  (28) 
-14.300000000000001

>  <m_primary>  (28) 
energy

$$$$
28:0
     RDKit          3D

 34 36  0  0  0  0  0  0  0  0999 V2000
   58.1820   31.6962   41.3285 H   0  0  0  0  0  0  0  0  0  0  0  0
   58.1970   32.5540   42.0170 C   0  0  0  0  0  0  0  0  0  0  0  0
   58.4842   33.5499   41.6487 H   0  0  0  0  0  0  0  0  0  0  0  0
   57.8660   32.3860   43.3020 C   0  0  0  0  0  0  0  0  0  0  0  0
   57.8530   33.3970   44.2460 C   0  0  0  0  0  0  0  0  0  0  0  0
   58.1075   34.4552   44.0864 H   0  0  0  0  0  0  0  0  0  0  0  0
   57.4560   32.8080   45.4280 C   0  0  0  0  0  0  0  0  0  0  0  0
   57.3910   33.4960   46.7530 C   0  0  0  0  0  0  0  0  0  0  0  0
   57.4615   32.7493   47.5577 H   0  0  0  0  0  0  0  0  0  0  0  0
   58.2260   34.2070   46.8383 H   0  0  0  0  0  0  0  0  0  0  0  0
   56.4376   34.0381   46.8383 H   0  0  0  0  0  0  0  0  0  0  0  0
   57.2440   31.4890   45.2570 N   0  0  0  0  0  0  0  0  0  0  0  0
   57.0140   30.8200   46.0240 H   0  0  0  0  0  0  0  0  0  0  0  0
   57.4750   31.2140   43.9540 C   0  0  0  0  0  0  0  0  0  0  0  0
   57.3940   29.9870   43.4000 C   0  0  0  0  0  0  0  0  0  0  0  0
   57.4240   29.9202   42.3024 H   0  0  0  0  0  0  0  0  0  0  0  0
   57.2680   28.7270   44.1590 C   0  0  0  0  0  0  0  0  0  0  0  0
   58.4180   27.4980   44.2820 S   0  0  0  0  0  0  0  0  0  0  0  0
   57.5300   26.6410   45.4340 C   0  0  0  0  0  0  0  0  0  0  0  0
   57.8470   25.4880   45.9490 N   0  0  0  0  0  0  0  0  0  0  0  0
   57.8440   24.2220   45.2730 C   0  0  0  0  0  0  0  0  0  0  0  0
   58.9120   23.3140   45.4000 C   0  0  0  0  0  0  0  0  0  0  0  0
   59.7916   23.5835   46.0031 H   0  0  0  0  0  0  0  0  0  0  0  0
   58.8590   22.0720   44.7630 C   0  0  0  0  0  0  0  0  0  0  0  0
   59.7037   21.3729   44.8516 H   0  0  0  0  0  0  0  0  0  0  0  0
   57.7340   21.7160   44.0130 C   0  0  0  0  0  0  0  0  0  0  0  0
   57.6983   20.7422   43.5027 H   0  0  0  0  0  0  0  0  0  0  0  0
   56.6540   22.5990   43.9120 C   0  0  0  0  0  0  0  0  0  0  0  0
   55.5290   22.2390   43.1800 O   0  0  0  0  0  0  0  0  0  0  0  0
   56.7050   23.8440   44.5490 C   0  0  0  0  0  0  0  0  0  0  0  0
   55.8471   24.5292   44.4812 H   0  0  0  0  0  0  0  0  0  0  0  0
   56.3770   27.2700   45.7440 N   0  0  0  0  0  0  0  0  0  0  0  0
   56.2410   28.4340   45.0540 C   0  0  0  0  0  0  0  0  0  0  0  0
   55.1430   29.2640   45.2390 O   0  0  0  0  0  0  0  0  0  0  0  0
  1  2  1  0
  2  3  1  0
  2  4  2  0
  4  5  1  0
  5  6  1  0
  5  7  2  0
  7  8  1  0
  8  9  1  0
  8 10  1  0
  8 11  1  0
  7 12  1  0
 12 13  1  0
 12 14  1  0
 14 15  2  3
 15 16  1  0
 15 17  1  0
 17 18  1  0
 18 19  1  0
 19 20  2  0
 20 21  1  0
 21 22  2  0
 22 23  1  0
 22 24  1  0
 24 25  1  0
 24 26  2  0
 26 27  1  0
 26 28  1  0
 28 29  1  0
 28 30  2  0
 30 31  1  0
 19 32  1  0
 32 33  1  0
 33 34  1  0
 14  4  1  0
 33 17  2  0
 30 21  1  0
M  CHG  3  29  -1  32  -1  34  -1
M  END
>  <UniqueID>  (29) 
28

>  <SMILES>  (29) 
C=c1cc(C)[nH]c1=Cc1s/c(=N\c2cccc([O-])c2)[n-]c1[O-]

>  <Energy>  (29) 
105.96700872113291

>  <Genealogy>  (29) 
C=c1cc(C)[nH]c1=Cc1sc(=Nc2cccc([O-])c2)[n-]c1[O-] (protonated)
C=c1cc(C)[nH]c1=Cc1s/c(=N\c2cccc([O-])c2)[n-]c1[O-] (cis-trans isomerization)
C=c1cc(C)[nH]c1=Cc1s/c(=N\c2cccc([O-])c2)[n-]c1[O-] (3D coordinates assigned)
C=c1cc(C)[nH]c1=Cc1s/c(=N\c2cccc([O-])c2)[n-]c1[O-] (optimized conformer: 105.96700872113291 kcal/mol)

>  <smiles>  (29) 
C=c1cc(C)[nH]c1=Cc1sc(=Nc2cccc(O)c2)[nH]c1O

>  <score_type>  (29) 
oracle

>  <origin>  (29) 
adg

>  <m_score__min__energy>  (29) 
-14.460000000000001

>  <m_primary>  (29) 
energy

$$$$
29:0
     RDKit          3D

 46 49  0  0  0  0  0  0  0  0999 V2000
   55.8620   29.1500   45.2490 O   0  0  0  0  0  0  0  0  0  0  0  0
   57.1080   28.9750   45.2610 C   0  0  0  0  0  0  0  0  0  0  0  0
   57.6360   27.7220   44.8010 N   0  0  0  0  0  0  0  0  0  0  0  0
   57.5800   26.4730   45.5070 C   0  0  0  0  0  0  0  0  0  0  0  0
   58.7430   25.6940   45.5840 C   0  0  0  0  0  0  0  0  0  0  0  0
   58.7420   24.4890   46.2910 C   0  0  0  0  0  0  0  0  0  0  0  0
   57.5750   24.0440   46.9150 C   0  0  0  0  0  0  0  0  0  0  0  0
   56.4000   24.7940   46.8170 C   0  0  0  0  0  0  0  0  0  0  0  0
   56.3880   26.0000   46.1000 C   0  0  0  0  0  0  0  0  0  0  0  0
   55.1980   26.7120   45.9620 O   0  0  0  0  0  0  0  0  0  0  0  0
   57.9830   30.0670   45.7210 C   0  0  0  0  0  0  0  0  0  0  0  0
   58.0120   31.3670   45.2250 C   0  0  0  0  0  0  0  0  0  0  0  0
   59.0160   32.1540   45.7910 C   0  0  0  0  0  0  0  0  0  0  0  0
   59.7730   31.4770   46.7430 C   0  0  0  0  0  0  0  0  0  0  0  0
   60.9570   32.0170   47.4370 C   0  0  0  0  0  0  0  0  0  0  0  0
   62.2210   31.4890   47.1280 C   0  0  0  0  0  0  0  0  0  0  0  0
   63.3500   31.8970   47.8400 C   0  0  0  0  0  0  0  0  0  0  0  0
   63.2290   32.8350   48.8660 C   0  0  0  0  0  0  0  0  0  0  0  0
   61.9830   33.3870   49.1700 C   0  0  0  0  0  0  0  0  0  0  0  0
   60.8400   33.0050   48.4480 C   0  0  0  0  0  0  0  0  0  0  0  0
   59.5580   33.6910   48.7170 C   0  0  0  0  0  0  0  0  0  0  0  0
   59.3580   34.8470   48.2560 O   0  0  0  0  0  0  0  0  0  0  0  0
   58.5710   33.0650   49.5470 N   0  0  0  0  0  0  0  0  0  0  0  0
   58.7040   32.8080   50.9540 C   0  0  0  0  0  0  0  0  0  0  0  0
   58.7850   33.8580   51.8890 C   0  0  0  0  0  0  0  0  0  0  0  0
   58.8950   33.5810   53.2550 C   0  0  0  0  0  0  0  0  0  0  0  0
   58.9100   32.2580   53.7000 C   0  0  0  0  0  0  0  0  0  0  0  0
   58.8060   31.2090   52.7840 C   0  0  0  0  0  0  0  0  0  0  0  0
   58.6950   31.4800   51.4140 C   0  0  0  0  0  0  0  0  0  0  0  0
   58.5610   30.1380   50.2860 Cl  0  0  0  0  0  0  0  0  0  0  0  0
   59.1840   29.9090   46.8930 S   0  0  0  0  0  0  0  0  0  0  0  0
   59.6623   26.0337   45.0845 H   0  0  0  0  0  0  0  0  0  0  0  0
   59.6622   23.8898   46.3561 H   0  0  0  0  0  0  0  0  0  0  0  0
   57.5805   23.1026   47.4840 H   0  0  0  0  0  0  0  0  0  0  0  0
   55.4805   24.4373   47.3041 H   0  0  0  0  0  0  0  0  0  0  0  0
   55.1470   27.5610   45.4110 H   0  0  0  0  0  0  0  0  0  0  0  0
   57.3122   31.7379   44.4617 H   0  0  0  0  0  0  0  0  0  0  0  0
   59.1915   33.2037   45.5128 H   0  0  0  0  0  0  0  0  0  0  0  0
   62.3219   30.7494   46.3200 H   0  0  0  0  0  0  0  0  0  0  0  0
   64.3366   31.4785   47.5920 H   0  0  0  0  0  0  0  0  0  0  0  0
   64.1181   33.1405   49.4371 H   0  0  0  0  0  0  0  0  0  0  0  0
   61.8958   34.1259   49.9802 H   0  0  0  0  0  0  0  0  0  0  0  0
   58.7616   34.9018   51.5427 H   0  0  0  0  0  0  0  0  0  0  0  0
   58.9697   34.4057   53.9791 H   0  0  0  0  0  0  0  0  0  0  0  0
   59.0039   32.0413   54.7743 H   0  0  0  0  0  0  0  0  0  0  0  0
   58.8112   30.1678   53.1389 H   0  0  0  0  0  0  0  0  0  0  0  0
  1  2  2  0
  2  3  1  0
  3  4  1  0
  4  5  2  0
  5  6  1  0
  6  7  2  0
  7  8  1  0
  8  9  2  0
  9 10  1  0
  2 11  1  0
 11 12  2  0
 12 13  1  0
 13 14  2  0
 14 15  1  0
 15 16  2  0
 16 17  1  0
 17 18  2  0
 18 19  1  0
 19 20  2  0
 20 21  1  0
 21 22  2  0
 21 23  1  0
 23 24  1  0
 24 25  2  0
 25 26  1  0
 26 27  2  0
 27 28  1  0
 28 29  2  0
 29 30  1  0
 14 31  1  0
  9  4  1  0
 31 11  1  0
 20 15  1  0
 29 24  1  0
  5 32  1  0
  6 33  1  0
  7 34  1  0
  8 35  1  0
 10 36  1  0
 12 37  1  0
 13 38  1  0
 16 39  1  0
 17 40  1  0
 18 41  1  0
 19 42  1  0
 25 43  1  0
 26 44  1  0
 27 45  1  0
 28 46  1  0
M  CHG  2   3  -1  23  -1
M  END
>  <UniqueID>  (30) 
29

>  <SMILES>  (30) 
O=C([N-]c1ccccc1O)c1ccc(-c2ccccc2C(=O)[N-]c2ccccc2Cl)s1

>  <Energy>  (30) 
95.81158646513273

>  <Genealogy>  (30) 
O=C([N-]c1ccccc1O)c1ccc(-c2ccccc2C(=O)[N-]c2ccccc2Cl)s1 (protonated)
O=C([N-]c1ccccc1O)c1ccc(-c2ccccc2C(=O)[N-]c2ccccc2Cl)s1 (3D coordinates assigned)
O=C([N-]c1ccccc1O)c1ccc(-c2ccccc2C(=O)[N-]c2ccccc2Cl)s1 (optimized conformer: 95.81158646513273 kcal/mol)

>  <smiles>  (30) 
O=C(Nc1ccccc1O)c1ccc(-c2ccccc2C(=O)Nc2ccccc2Cl)s1

>  <score_type>  (30) 
oracle

>  <origin>  (30) 
adg

>  <m_score__min__energy>  (30) 
-12.6

>  <m_primary>  (30) 
energy

$$$$
30:0
     RDKit          3D

 56 59  0  0  1  0  0  0  0  0999 V2000
   58.8470   30.8170   48.5980 N   0  0  0  0  0  0  0  0  0  0  0  0
   60.1790   30.0920   47.7870 S   0  0  0  0  0  0  0  0  0  0  0  0
   60.7920   31.0470   46.8130 O   0  0  0  0  0  0  0  0  0  0  0  0
   61.1960   29.7130   48.8380 O   0  0  0  0  0  0  0  0  0  0  0  0
   59.5760   28.6540   46.9680 C   0  0  0  0  0  0  0  0  0  0  0  0
   60.3010   27.4930   46.9900 C   0  0  0  0  0  0  0  0  0  0  0  0
   59.8040   26.3720   46.3380 C   0  0  0  0  0  0  0  0  0  0  0  0
   58.5910   26.4660   45.6860 C   0  0  0  0  0  0  0  0  0  0  0  0
   57.8870   27.6390   45.6810 C   0  0  0  0  0  0  0  0  0  0  0  0
   58.3530   28.7780   46.3220 C   0  0  0  0  0  0  0  0  0  0  0  0
   59.4800   34.0520   45.7500 N   0  0  0  0  0  0  0  0  0  0  0  0
   58.8310   33.0710   45.2730 C   0  0  0  0  0  0  0  0  0  0  0  0
   58.5710   32.0280   46.0840 N   0  0  0  0  0  0  0  0  0  0  0  0
   57.8810   30.9960   45.5650 C   0  0  0  0  0  0  0  0  0  0  0  0
   57.6280   30.0030   46.3210 N   0  0  0  0  0  0  0  0  0  0  0  0
   60.4990   33.9710   46.7400 C   0  0  0  0  0  0  0  0  0  0  0  0
   61.8130   33.8040   46.3610 C   0  0  0  0  0  0  0  0  0  0  0  0
   62.8230   33.7210   47.2950 C   0  0  0  0  0  0  0  0  0  0  0  0
   62.5690   33.8020   48.6700 C   0  0  0  0  0  0  0  0  0  0  0  0
   63.6250   33.7150   49.6110 N   0  0  0  0  0  0  0  0  0  0  0  0
   64.8890   33.0870   49.3920 C   0  0  0  0  0  0  0  0  0  0  0  0
   65.0450   32.0290   50.4770 C   0  0  0  0  0  0  0  0  0  0  0  0
   64.9600   32.6110   51.7750 N   0  0  0  0  0  0  0  0  0  0  0  0
   64.5820   33.9860   51.8320 C   0  0  0  0  0  0  0  0  0  0  0  0
   63.4120   34.3220   50.9350 C   0  0  0  0  0  0  0  0  0  0  0  0
   61.2470   33.9680   49.0180 C   0  0  0  0  0  0  0  0  0  0  0  0
   60.2230   34.0520   48.0890 C   0  0  0  0  0  0  0  0  0  0  0  0
   58.4340   33.1170   43.9850 N   0  0  0  0  0  0  0  0  0  0  0  0
   57.7450   32.0970   43.4510 C   0  0  0  0  0  0  0  0  0  0  0  0
   57.4720   31.0250   44.2690 C   0  0  0  0  0  0  0  0  0  0  0  0
   56.7100   29.8710   43.7170 C   0  0  0  0  0  0  0  0  0  0  0  0
   57.6470   28.8940   43.4300 F   0  0  0  0  0  0  0  0  0  0  0  0
   55.8570   29.3320   44.6640 F   0  0  0  0  0  0  0  0  0  0  0  0
   55.9430   30.2140   42.6420 F   0  0  0  0  0  0  0  0  0  0  0  0
   58.6660   30.2800   49.4630 H   0  0  0  0  0  0  0  0  0  0  0  0
   58.0130   30.7910   47.9520 H   0  0  0  0  0  0  0  0  0  0  0  0
   61.2652   27.4485   47.5175 H   0  0  0  0  0  0  0  0  0  0  0  0
   60.3666   25.4267   46.3411 H   0  0  0  0  0  0  0  0  0  0  0  0
   58.1854   25.5868   45.1640 H   0  0  0  0  0  0  0  0  0  0  0  0
   56.9228   27.6805   45.1531 H   0  0  0  0  0  0  0  0  0  0  0  0
   58.8980   32.0300   47.0840 H   0  0  0  0  0  0  0  0  0  0  0  0
   62.0609   33.7355   45.2915 H   0  0  0  0  0  0  0  0  0  0  0  0
   63.8591   33.5872   46.9505 H   0  0  0  0  0  0  0  0  0  0  0  0
   64.9117   32.6169   48.3978 H   0  0  0  0  0  0  0  0  0  0  0  0
   65.7079   33.8202   49.4332 H   0  0  0  0  0  0  0  0  0  0  0  0
   64.2473   31.2798   50.3660 H   0  0  0  0  0  0  0  0  0  0  0  0
   66.0336   31.5590   50.3681 H   0  0  0  0  0  0  0  0  0  0  0  0
   64.4200   32.0030   52.4290 H   0  0  0  0  0  0  0  0  0  0  0  0
   64.3084   34.2302   52.8691 H   0  0  0  0  0  0  0  0  0  0  0  0
   65.4418   34.5752   51.4806 H   0  0  0  0  0  0  0  0  0  0  0  0
   62.4852   33.9263   51.3760 H   0  0  0  0  0  0  0  0  0  0  0  0
   63.3286   35.4139   50.8310 H   0  0  0  0  0  0  0  0  0  0  0  0
   60.9918   34.0373   50.0857 H   0  0  0  0  0  0  0  0  0  0  0  0
   59.1851   34.1839   48.4286 H   0  0  0  0  0  0  0  0  0  0  0  0
   58.6590   33.9540   43.3860 H   0  0  0  0  0  0  0  0  0  0  0  0
   57.4122   32.1170   42.4027 H   0  0  0  0  0  0  0  0  0  0  0  0
  1  2  1  0
  2  3  2  0
  2  4  2  0
  2  5  1  0
  5  6  2  0
  6  7  1  0
  7  8  2  0
  8  9  1  0
  9 10  2  0
 10 11  1  0
 11 12  2  0
 12 13  1  0
 13 14  1  0
 14 15  2  0
 15 16  1  0
 16 17  2  0
 17 18  1  0
 18 19  2  0
 19 20  1  0
 20 21  1  0
 21 22  1  0
 22 23  1  0
 23 24  1  0
 24 25  1  0
 19 26  1  0
 26 27  2  0
 14 28  1  0
 28 29  1  0
 29 30  2  0
 30 31  1  0
 31 32  1  0
 31 33  1  0
 31 34  1  0
 10  5  1  0
 30 12  1  0
 27 16  1  0
 25 20  1  0
  1 35  1  0
  1 36  1  0
  6 37  1  0
  7 38  1  0
  8 39  1  0
  9 40  1  0
 13 41  1  0
 17 42  1  0
 18 43  1  0
 21 44  1  0
 21 45  1  0
 22 46  1  0
 22 47  1  0
 23 48  1  0
 24 49  1  0
 24 50  1  0
 25 51  1  0
 25 52  1  0
 26 53  1  0
 27 54  1  0
 28 55  1  0
 29 56  1  0
M  END
>  <smiles>  (31) 
NS(=O)(=O)c1ccccc1N=c1[nH]c(=Nc2ccc(N3CCNCC3)cc2)[nH]cc1C(F)(F)F

>  <score_type>  (31) 
oracle

>  <origin>  (31) 
adg

>  <m_score__min__energy>  (31) 
-9.3000000000000007

>  <m_primary>  (31) 
energy

$$$$
31:0
     RDKit          3D

 17 17  0  0  0  0  0  0  0  0999 V2000
   56.9810   30.7360   44.5920 O   0  0  0  0  0  0  0  0  0  0  0  0
   55.9810   29.9760   44.4980 C   0  0  0  0  0  0  0  0  0  0  0  0
   55.9960   28.6530   45.0490 N   0  0  0  0  0  0  0  0  0  0  0  0
   57.0800   28.1260   45.8330 C   0  0  0  0  0  0  0  0  0  0  0  0
   57.9630   28.9020   46.2920 O   0  0  0  0  0  0  0  0  0  0  0  0
   57.1520   26.6800   46.1580 C   0  0  0  0  0  0  0  0  0  0  0  0
   58.4000   26.0660   46.3360 C   0  0  0  0  0  0  0  0  0  0  0  0
   58.4790   24.7440   46.6400 N   0  0  0  0  0  0  0  0  0  0  0  0
   57.3550   23.9900   46.7660 C   0  0  0  0  0  0  0  0  0  0  0  0
   57.4420   22.7670   47.0530 O   0  0  0  0  0  0  0  0  0  0  0  0
   56.1350   24.5540   46.5800 N   0  0  0  0  0  0  0  0  0  0  0  0
   56.0050   25.8710   46.2730 C   0  0  0  0  0  0  0  0  0  0  0  0
   54.8540   26.3410   46.0720 O   0  0  0  0  0  0  0  0  0  0  0  0
   55.0779   30.3349   43.9826 H   0  0  0  0  0  0  0  0  0  0  0  0
   55.1440   28.0660   44.9010 H   0  0  0  0  0  0  0  0  0  0  0  0
   59.3208   26.6582   46.2289 H   0  0  0  0  0  0  0  0  0  0  0  0
   59.4190   24.3070   46.7800 H   0  0  0  0  0  0  0  0  0  0  0  0
  1  2  2  0
  2  3  1  0
  3  4  1  0
  4  5  2  0
  4  6  1  0
  6  7  2  0
  7  8  1  0
  8  9  1  0
  9 10  2  0
  9 11  1  0
 11 12  1  0
 12 13  2  0
 12  6  1  0
  2 14  1  0
  3 15  1  0
  7 16  1  0
  8 17  1  0
M  CHG  1  11  -1
M  END
>  <UniqueID>  (32) 
30

>  <SMILES>  (32) 
O=CNC(=O)c1c[nH]c(=O)[n-]c1=O

>  <Energy>  (32) 
20.720346744235997

>  <Genealogy>  (32) 
O=CNC(=O)c1c[nH]c(=O)[n-]c1=O (protonated)
O=CNC(=O)c1c[nH]c(=O)[n-]c1=O (3D coordinates assigned)
O=CNC(=O)c1c[nH]c(=O)[n-]c1=O (optimized conformer: 20.720346744235997 kcal/mol)

>  <smiles>  (32) 
O=CNC(=O)c1c[nH]c(=O)[nH]c1=O

>  <score_type>  (32) 
oracle

>  <origin>  (32) 
adg

>  <m_score__min__energy>  (32) 
-7.2000000000000002

>  <m_primary>  (32) 
energy

$$$$
32:0
     RDKit          3D

 31 33  0  0  0  0  0  0  0  0999 V2000
   56.2100   30.7270   42.8210 O   0  0  0  0  0  0  0  0  0  0  0  0
   56.5450   30.7080   44.0360 C   0  0  0  0  0  0  0  0  0  0  0  0
   56.3350   31.8890   44.8230 N   0  0  0  0  0  0  0  0  0  0  0  0
   57.3540   32.7670   45.3210 C   0  0  0  0  0  0  0  0  0  0  0  0
   57.6310   32.7770   46.6940 C   0  0  0  0  0  0  0  0  0  0  0  0
   58.6220   33.6190   47.2080 C   0  0  0  0  0  0  0  0  0  0  0  0
   59.3570   34.4430   46.3490 C   0  0  0  0  0  0  0  0  0  0  0  0
   60.3390   35.2810   46.8600 O   0  0  0  0  0  0  0  0  0  0  0  0
   59.1060   34.4170   44.9730 C   0  0  0  0  0  0  0  0  0  0  0  0
   58.1170   33.5750   44.4570 C   0  0  0  0  0  0  0  0  0  0  0  0
   57.2090   29.5080   44.5950 C   0  0  0  0  0  0  0  0  0  0  0  0
   58.6080   29.4130   44.6450 C   0  0  0  0  0  0  0  0  0  0  0  0
   59.2090   28.2730   45.1870 C   0  0  0  0  0  0  0  0  0  0  0  0
   60.4670   28.1960   45.2220 O   0  0  0  0  0  0  0  0  0  0  0  0
   58.4070   27.2270   45.6820 C   0  0  0  0  0  0  0  0  0  0  0  0
   58.9630   26.0590   46.2320 C   0  0  0  0  0  0  0  0  0  0  0  0
   58.1320   25.0430   46.7090 C   0  0  0  0  0  0  0  0  0  0  0  0
   56.7440   25.1780   46.6420 C   0  0  0  0  0  0  0  0  0  0  0  0
   56.1690   26.3320   46.0970 C   0  0  0  0  0  0  0  0  0  0  0  0
   54.7790   26.4300   46.0370 O   0  0  0  0  0  0  0  0  0  0  0  0
   56.9990   27.3630   45.6190 C   0  0  0  0  0  0  0  0  0  0  0  0
   56.4550   28.4910   45.0920 N   0  0  0  0  0  0  0  0  0  0  0  0
   57.0662   32.1193   47.3711 H   0  0  0  0  0  0  0  0  0  0  0  0
   58.8239   33.6335   48.2892 H   0  0  0  0  0  0  0  0  0  0  0  0
   59.6878   35.0601   44.2963 H   0  0  0  0  0  0  0  0  0  0  0  0
   57.9343   33.5436   43.3727 H   0  0  0  0  0  0  0  0  0  0  0  0
   59.2304   30.2336   44.2587 H   0  0  0  0  0  0  0  0  0  0  0  0
   60.0557   25.9449   46.2868 H   0  0  0  0  0  0  0  0  0  0  0  0
   58.5732   24.1320   47.1396 H   0  0  0  0  0  0  0  0  0  0  0  0
   56.0979   24.3720   47.0201 H   0  0  0  0  0  0  0  0  0  0  0  0
   54.2910   26.7020   45.1920 H   0  0  0  0  0  0  0  0  0  0  0  0
  1  2  2  0
  2  3  1  0
  3  4  1  0
  4  5  2  0
  5  6  1  0
  6  7  2  0
  7  8  1  0
  7  9  1  0
  9 10  2  0
  2 11  1  0
 11 12  2  0
 12 13  1  0
 13 14  2  0
 13 15  1  0
 15 16  2  0
 16 17  1  0
 17 18  2  0
 18 19  1  0
 19 20  1  0
 19 21  2  0
 21 22  1  0
 10  4  1  0
 22 11  1  0
 21 15  1  0
  5 23  1  0
  6 24  1  0
  9 25  1  0
 10 26  1  0
 12 27  1  0
 16 28  1  0
 17 29  1  0
 18 30  1  0
 20 31  1  0
M  CHG  3   3  -1   8  -1  22  -1
M  END
>  <UniqueID>  (33) 
31

>  <SMILES>  (33) 
O=C([N-]c1ccc([O-])cc1)c1cc(=O)c2cccc(O)c2[n-]1

>  <Energy>  (33) 
43.704044187294514

>  <Genealogy>  (33) 
O=C([N-]c1ccc([O-])cc1)c1cc(=O)c2cccc(O)c2[n-]1 (protonated)
O=C([N-]c1ccc([O-])cc1)c1cc(=O)c2cccc(O)c2[n-]1 (3D coordinates assigned)
O=C([N-]c1ccc([O-])cc1)c1cc(=O)c2cccc(O)c2[n-]1 (optimized conformer: 43.704044187294514 kcal/mol)

>  <smiles>  (33) 
O=C(Nc1ccc(O)cc1)c1cc(=O)c2cccc(O)c2[nH]1

>  <score_type>  (33) 
oracle

>  <origin>  (33) 
adg

>  <m_score__min__energy>  (33) 
-12.609999999999999

>  <m_primary>  (33) 
energy

$$$$
33:0
     RDKit          3D

 40 42  0  0  0  0  0  0  0  0999 V2000
   55.0360   26.3750   46.1530 N   0  0  0  0  0  0  0  0  0  0  0  0
   56.4570   26.2790   46.1730 C   0  0  0  0  0  0  0  0  0  0  0  0
   57.0030   25.2530   46.6600 O   0  0  0  0  0  0  0  0  0  0  0  0
   57.2760   27.3830   45.6400 C   0  0  0  0  0  0  0  0  0  0  0  0
   56.7740   28.6920   45.5660 C   0  0  0  0  0  0  0  0  0  0  0  0
   57.5700   29.7100   45.0120 C   0  0  0  0  0  0  0  0  0  0  0  0
   57.0930   31.0190   44.8580 O   0  0  0  0  0  0  0  0  0  0  0  0
   57.8050   32.1760   45.2020 C   0  0  0  0  0  0  0  0  0  0  0  0
   57.2060   33.4250   45.0040 C   0  0  0  0  0  0  0  0  0  0  0  0
   57.8880   34.5940   45.3450 C   0  0  0  0  0  0  0  0  0  0  0  0
   59.1830   34.5230   45.8650 C   0  0  0  0  0  0  0  0  0  0  0  0
   59.8170   33.2830   46.0330 C   0  0  0  0  0  0  0  0  0  0  0  0
   61.1610   33.2420   46.5420 N   0  0  0  0  0  0  0  0  0  0  0  0
   61.6880   32.1260   47.7620 S   0  0  0  0  0  0  0  0  0  0  0  0
   62.0850   30.8330   47.1060 O   0  0  0  0  0  0  0  0  0  0  0  0
   62.8870   32.6950   48.4690 O   0  0  0  0  0  0  0  0  0  0  0  0
   60.4070   31.8600   48.9370 C   0  0  0  0  0  0  0  0  0  0  0  0
   59.8000   30.6000   49.0380 C   0  0  0  0  0  0  0  0  0  0  0  0
   58.7480   30.3970   49.9350 C   0  0  0  0  0  0  0  0  0  0  0  0
   58.3010   31.4510   50.7410 C   0  0  0  0  0  0  0  0  0  0  0  0
   56.9550   31.2090   51.8390 Cl  0  0  0  0  0  0  0  0  0  0  0  0
   58.9150   32.7040   50.6560 C   0  0  0  0  0  0  0  0  0  0  0  0
   59.9640   32.9090   49.7550 C   0  0  0  0  0  0  0  0  0  0  0  0
   59.1160   32.1080   45.7020 C   0  0  0  0  0  0  0  0  0  0  0  0
   58.8520   29.4000   44.5500 C   0  0  0  0  0  0  0  0  0  0  0  0
   59.3230   28.0890   44.6520 C   0  0  0  0  0  0  0  0  0  0  0  0
   58.5320   27.1210   45.1840 N   0  0  0  0  0  0  0  0  0  0  0  0
   54.5350   27.0780   46.7400 H   0  0  0  0  0  0  0  0  0  0  0  0
   55.7645   28.9197   45.9390 H   0  0  0  0  0  0  0  0  0  0  0  0
   56.1937   33.4858   44.5779 H   0  0  0  0  0  0  0  0  0  0  0  0
   57.4055   35.5724   45.2042 H   0  0  0  0  0  0  0  0  0  0  0  0
   59.7097   35.4472   46.1450 H   0  0  0  0  0  0  0  0  0  0  0  0
   61.8980   33.8160   46.0750 H   0  0  0  0  0  0  0  0  0  0  0  0
   60.1529   29.7692   48.4094 H   0  0  0  0  0  0  0  0  0  0  0  0
   58.2708   29.4086   50.0079 H   0  0  0  0  0  0  0  0  0  0  0  0
   58.5726   33.5288   51.2982 H   0  0  0  0  0  0  0  0  0  0  0  0
   60.4435   33.8967   49.6876 H   0  0  0  0  0  0  0  0  0  0  0  0
   59.5987   31.1287   45.8360 H   0  0  0  0  0  0  0  0  0  0  0  0
   59.4860   30.1833   44.1089 H   0  0  0  0  0  0  0  0  0  0  0  0
   60.3354   27.8401   44.3012 H   0  0  0  0  0  0  0  0  0  0  0  0
  1  2  1  0
  2  3  2  0
  2  4  1  0
  4  5  2  0
  5  6  1  0
  6  7  1  0
  7  8  1  0
  8  9  2  0
  9 10  1  0
 10 11  2  0
 11 12  1  0
 12 13  1  0
 13 14  1  0
 14 15  2  0
 14 16  2  0
 14 17  1  0
 17 18  2  0
 18 19  1  0
 19 20  2  0
 20 21  1  0
 20 22  1  0
 22 23  2  0
 12 24  2  0
  6 25  2  0
 25 26  1  0
 26 27  2  0
 27  4  1  0
 24  8  1  0
 23 17  1  0
  1 28  1  0
  5 29  1  0
  9 30  1  0
 10 31  1  0
 11 32  1  0
 13 33  1  0
 18 34  1  0
 19 35  1  0
 22 36  1  0
 23 37  1  0
 24 38  1  0
 25 39  1  0
 26 40  1  0
M  CHG  1   1  -1
M  END
>  <UniqueID>  (34) 
32

>  <SMILES>  (34) 
[NH-]C(=O)c1cc(Oc2cccc(NS(=O)(=O)c3ccc(Cl)cc3)c2)ccn1

>  <Energy>  (34) 
48.79063695364785

>  <Genealogy>  (34) 
[NH-]C(=O)c1cc(Oc2cccc(NS(=O)(=O)c3ccc(Cl)cc3)c2)ccn1 (protonated)
[NH-]C(=O)c1cc(Oc2cccc(NS(=O)(=O)c3ccc(Cl)cc3)c2)ccn1 (3D coordinates assigned)
[NH-]C(=O)c1cc(Oc2cccc(NS(=O)(=O)c3ccc(Cl)cc3)c2)ccn1 (optimized conformer: 48.79063695364785 kcal/mol)

>  <smiles>  (34) 
NC(=O)c1cc(Oc2cccc(NS(=O)(=O)c3ccc(Cl)cc3)c2)ccn1

>  <score_type>  (34) 
oracle

>  <origin>  (34) 
adg

>  <m_score__min__energy>  (34) 
-12.630000000000001

>  <m_primary>  (34) 
energy

$$$$
34:0
     RDKit          3D

 43 46  0  0  0  0  0  0  0  0999 V2000
   55.1750   30.4410   44.4300 O   0  0  0  0  0  0  0  0  0  0  0  0
   56.0350   29.5190   44.4190 C   0  0  0  0  0  0  0  0  0  0  0  0
   57.2030   29.6080   43.4890 C   0  0  0  0  0  0  0  0  0  0  0  0
   57.5910   31.3500   43.0990 S   0  0  0  0  0  0  0  0  0  0  0  0
   57.9450   31.8000   44.7990 C   0  0  0  0  0  0  0  0  0  0  0  0
   57.7530   30.9900   45.8610 N   0  0  0  0  0  0  0  0  0  0  0  0
   58.1340   31.6340   46.9590 N   0  0  0  0  0  0  0  0  0  0  0  0
   58.5540   32.8440   46.5340 C   0  0  0  0  0  0  0  0  0  0  0  0
   59.0460   33.8820   47.3220 C   0  0  0  0  0  0  0  0  0  0  0  0
   59.4210   35.0680   46.6670 C   0  0  0  0  0  0  0  0  0  0  0  0
   59.2930   35.1830   45.2670 C   0  0  0  0  0  0  0  0  0  0  0  0
   58.7910   34.1020   44.5270 C   0  0  0  0  0  0  0  0  0  0  0  0
   58.4480   32.9760   45.2030 N   0  0  0  0  0  0  0  0  0  0  0  0
   55.8810   28.3590   45.2460 N   0  0  0  0  0  0  0  0  0  0  0  0
   56.9010   27.4160   45.6100 C   0  0  0  0  0  0  0  0  0  0  0  0
   56.7660   26.0360   45.3700 C   0  0  0  0  0  0  0  0  0  0  0  0
   57.7580   25.1500   45.7950 C   0  0  0  0  0  0  0  0  0  0  0  0
   58.8930   25.6280   46.4560 C   0  0  0  0  0  0  0  0  0  0  0  0
   59.0470   26.9980   46.6910 C   0  0  0  0  0  0  0  0  0  0  0  0
   60.1940   27.4420   47.3660 O   0  0  0  0  0  0  0  0  0  0  0  0
   60.4540   28.7700   47.7370 C   0  0  0  0  0  0  0  0  0  0  0  0
   60.2300   29.2330   49.0480 C   0  0  0  0  0  0  0  0  0  0  0  0
   60.4800   30.5700   49.3740 C   0  0  0  0  0  0  0  0  0  0  0  0
   60.9460   31.4540   48.3970 C   0  0  0  0  0  0  0  0  0  0  0  0
   61.1550   31.0030   47.0900 C   0  0  0  0  0  0  0  0  0  0  0  0
   60.9020   29.6690   46.7600 C   0  0  0  0  0  0  0  0  0  0  0  0
   58.0340   27.8850   46.2870 C   0  0  0  0  0  0  0  0  0  0  0  0
   58.0785   29.1412   43.9640 H   0  0  0  0  0  0  0  0  0  0  0  0
   56.9501   29.0856   42.5546 H   0  0  0  0  0  0  0  0  0  0  0  0
   57.3790   30.0150   45.8440 H   0  0  0  0  0  0  0  0  0  0  0  0
   59.1374   33.7778   48.4132 H   0  0  0  0  0  0  0  0  0  0  0  0
   59.8170   35.9123   47.2504 H   0  0  0  0  0  0  0  0  0  0  0  0
   59.5848   36.1140   44.7589 H   0  0  0  0  0  0  0  0  0  0  0  0
   58.6790   34.1649   43.4345 H   0  0  0  0  0  0  0  0  0  0  0  0
   55.8770   25.6544   44.8464 H   0  0  0  0  0  0  0  0  0  0  0  0
   57.6458   24.0717   45.6089 H   0  0  0  0  0  0  0  0  0  0  0  0
   59.6681   24.9239   46.7927 H   0  0  0  0  0  0  0  0  0  0  0  0
   59.8574   28.5412   49.8178 H   0  0  0  0  0  0  0  0  0  0  0  0
   60.3096   30.9262   50.4007 H   0  0  0  0  0  0  0  0  0  0  0  0
   61.1482   32.5038   48.6560 H   0  0  0  0  0  0  0  0  0  0  0  0
   61.5192   31.6995   46.3204 H   0  0  0  0  0  0  0  0  0  0  0  0
   61.0554   29.3226   45.7273 H   0  0  0  0  0  0  0  0  0  0  0  0
   58.1321   28.9587   46.5048 H   0  0  0  0  0  0  0  0  0  0  0  0
  1  2  2  0
  2  3  1  0
  3  4  1  0
  4  5  1  0
  5  6  2  0
  6  7  1  0
  7  8  2  0
  8  9  1  0
  9 10  2  0
 10 11  1  0
 11 12  2  0
 12 13  1  0
  2 14  1  0
 14 15  1  0
 15 16  2  0
 16 17  1  0
 17 18  2  0
 18 19  1  0
 19 20  1  0
 20 21  1  0
 21 22  2  0
 22 23  1  0
 23 24  2  0
 24 25  1  0
 25 26  2  0
 19 27  2  0
 13  5  1  0
 27 15  1  0
 13  8  1  0
 26 21  1  0
  3 28  1  0
  3 29  1  0
  6 30  1  0
  9 31  1  0
 10 32  1  0
 11 33  1  0
 12 34  1  0
 16 35  1  0
 17 36  1  0
 18 37  1  0
 22 38  1  0
 23 39  1  0
 24 40  1  0
 25 41  1  0
 26 42  1  0
 27 43  1  0
M  CHG  2   6   1  14  -1
M  END
>  <UniqueID>  (35) 
33

>  <SMILES>  (35) 
O=C(CSc1[nH+]nc2ccccn12)[N-]c1cccc(Oc2ccccc2)c1

>  <Energy>  (35) 
92.44791006925503

>  <Genealogy>  (35) 
O=C(CSc1[nH+]nc2ccccn12)[N-]c1cccc(Oc2ccccc2)c1 (protonated)
O=C(CSc1[nH+]nc2ccccn12)[N-]c1cccc(Oc2ccccc2)c1 (3D coordinates assigned)
O=C(CSc1[nH+]nc2ccccn12)[N-]c1cccc(Oc2ccccc2)c1 (optimized conformer: 92.44791006925503 kcal/mol)

>  <smiles>  (35) 
O=C(CSc1nnc2ccccn12)Nc1cccc(Oc2ccccc2)c1

>  <score_type>  (35) 
oracle

>  <origin>  (35) 
adg

>  <m_score__min__energy>  (35) 
-9.3900000000000006

>  <m_primary>  (35) 
energy

$$$$
35:0
     RDKit          3D

 48 51  0  0  0  0  0  0  0  0999 V2000
   60.7390   26.7430   46.3040 C   0  0  0  0  0  0  0  0  0  0  0  0
   59.4180   26.0450   46.2650 C   0  0  0  0  0  0  0  0  0  0  0  0
   59.2790   24.7470   46.4660 O   0  0  0  0  0  0  0  0  0  0  0  0
   58.0010   24.4760   46.3620 C   0  0  0  0  0  0  0  0  0  0  0  0
   57.4290   23.2600   46.5000 N   0  0  0  0  0  0  0  0  0  0  0  0
   56.0740   23.1490   46.3810 C   0  0  0  0  0  0  0  0  0  0  0  0
   55.5480   22.0080   46.4870 O   0  0  0  0  0  0  0  0  0  0  0  0
   55.2920   24.2680   46.1510 N   0  0  0  0  0  0  0  0  0  0  0  0
   53.8340   24.1290   46.0060 C   0  0  0  0  0  0  0  0  0  0  0  0
   55.8850   25.5030   45.9920 C   0  0  0  0  0  0  0  0  0  0  0  0
   55.1930   26.5330   45.7710 O   0  0  0  0  0  0  0  0  0  0  0  0
   57.2700   25.5910   46.0940 C   0  0  0  0  0  0  0  0  0  0  0  0
   58.1740   26.6370   46.0250 C   0  0  0  0  0  0  0  0  0  0  0  0
   57.8990   28.0590   45.7400 C   0  0  0  0  0  0  0  0  0  0  0  0
   57.2670   28.4330   44.5440 C   0  0  0  0  0  0  0  0  0  0  0  0
   57.0110   29.7800   44.2740 C   0  0  0  0  0  0  0  0  0  0  0  0
   57.3800   30.7720   45.1870 C   0  0  0  0  0  0  0  0  0  0  0  0
   57.0800   32.1090   44.8740 O   0  0  0  0  0  0  0  0  0  0  0  0
   57.0640   33.1890   45.8090 C   0  0  0  0  0  0  0  0  0  0  0  0
   58.4560   33.6810   46.0730 C   0  0  0  0  0  0  0  0  0  0  0  0
   59.1170   34.2010   45.1330 O   0  0  0  0  0  0  0  0  0  0  0  0
   59.0030   33.6150   47.3960 N   0  0  0  0  0  0  0  0  0  0  0  0
   60.4110   33.6350   47.6830 C   0  0  0  0  0  0  0  0  0  0  0  0
   61.3460   33.0430   46.8120 C   0  0  0  0  0  0  0  0  0  0  0  0
   62.7080   33.0500   47.1280 C   0  0  0  0  0  0  0  0  0  0  0  0
   63.1480   33.6330   48.3190 C   0  0  0  0  0  0  0  0  0  0  0  0
   64.4690   33.6370   48.6260 F   0  0  0  0  0  0  0  0  0  0  0  0
   62.2250   34.2050   49.2000 C   0  0  0  0  0  0  0  0  0  0  0  0
   60.8620   34.1990   48.8870 C   0  0  0  0  0  0  0  0  0  0  0  0
   58.0310   30.3990   46.3800 C   0  0  0  0  0  0  0  0  0  0  0  0
   58.2870   29.0520   46.6510 C   0  0  0  0  0  0  0  0  0  0  0  0
   61.0391   26.9016   47.3503 H   0  0  0  0  0  0  0  0  0  0  0  0
   61.4946   26.1265   45.7952 H   0  0  0  0  0  0  0  0  0  0  0  0
   60.6555   27.7147   45.7952 H   0  0  0  0  0  0  0  0  0  0  0  0
   53.3691   24.0847   47.0019 H   0  0  0  0  0  0  0  0  0  0  0  0
   53.4364   24.9933   45.4539 H   0  0  0  0  0  0  0  0  0  0  0  0
   53.6069   23.2051   45.4539 H   0  0  0  0  0  0  0  0  0  0  0  0
   56.9720   27.6627   43.8162 H   0  0  0  0  0  0  0  0  0  0  0  0
   56.5144   30.0623   43.3340 H   0  0  0  0  0  0  0  0  0  0  0  0
   56.4613   34.0128   45.3991 H   0  0  0  0  0  0  0  0  0  0  0  0
   56.6292   32.8324   46.7544 H   0  0  0  0  0  0  0  0  0  0  0  0
   58.3350   33.5660   48.2000 H   0  0  0  0  0  0  0  0  0  0  0  0
   61.0031   32.5728   45.8785 H   0  0  0  0  0  0  0  0  0  0  0  0
   63.4342   32.5958   46.4378 H   0  0  0  0  0  0  0  0  0  0  0  0
   62.5712   34.6600   50.1398 H   0  0  0  0  0  0  0  0  0  0  0  0
   60.1384   34.6392   49.5889 H   0  0  0  0  0  0  0  0  0  0  0  0
   58.3388   31.1710   47.1006 H   0  0  0  0  0  0  0  0  0  0  0  0
   58.7958   28.7691   47.5843 H   0  0  0  0  0  0  0  0  0  0  0  0
  1  2  1  0
  2  3  1  0
  3  4  1  0
  4  5  1  0
  5  6  1  0
  6  7  2  0
  6  8  1  0
  8  9  1  0
  8 10  1  0
 10 11  2  0
 10 12  1  0
 12 13  1  0
 13 14  1  0
 14 15  2  0
 15 16  1  0
 16 17  2  0
 17 18  1  0
 18 19  1  0
 19 20  1  0
 20 21  2  0
 20 22  1  0
 22 23  1  0
 23 24  2  0
 24 25  1  0
 25 26  2  0
 26 27  1  0
 26 28  1  0
 28 29  2  0
 17 30  1  0
 30 31  2  0
 13  2  2  0
 31 14  1  0
 12  4  2  0
 29 23  1  0
  1 32  1  0
  1 33  1  0
  1 34  1  0
  9 35  1  0
  9 36  1  0
  9 37  1  0
 15 38  1  0
 16 39  1  0
 19 40  1  0
 19 41  1  0
 22 42  1  0
 24 43  1  0
 25 44  1  0
 28 45  1  0
 29 46  1  0
 30 47  1  0
 31 48  1  0
M  CHG  1   5  -1
M  END
>  <UniqueID>  (36) 
34

>  <SMILES>  (36) 
Cc1oc2[n-]c(=O)n(C)c(=O)c2c1-c1ccc(OCC(=O)Nc2ccc(F)cc2)cc1

>  <Energy>  (36) 
99.69955690542054

>  <Genealogy>  (36) 
Cc1oc2[n-]c(=O)n(C)c(=O)c2c1-c1ccc(OCC(=O)Nc2ccc(F)cc2)cc1 (protonated)
Cc1oc2[n-]c(=O)n(C)c(=O)c2c1-c1ccc(OCC(=O)Nc2ccc(F)cc2)cc1 (3D coordinates assigned)
Cc1oc2[n-]c(=O)n(C)c(=O)c2c1-c1ccc(OCC(=O)Nc2ccc(F)cc2)cc1 (optimized conformer: 99.69955690542054 kcal/mol)

>  <smiles>  (36) 
Cc1oc2[nH]c(=O)n(C)c(=O)c2c1-c1ccc(OCC(=O)Nc2ccc(F)cc2)cc1

>  <score_type>  (36) 
oracle

>  <origin>  (36) 
adg

>  <m_score__min__energy>  (36) 
-9.8599999999999994

>  <m_primary>  (36) 
energy

$$$$
36:0
     RDKit          3D

 47 49  0  0  0  0  0  0  0  0999 V2000
   57.7880   31.8900   43.1680 C   0  0  0  0  0  0  0  0  0  0  0  0
   56.7270   30.8450   43.4710 C   0  0  0  0  0  0  0  0  0  0  0  0
   56.6950   30.5940   44.8740 O   0  0  0  0  0  0  0  0  0  0  0  0
   57.5170   29.6680   45.5330 C   0  0  0  0  0  0  0  0  0  0  0  0
   57.4190   28.2810   45.3120 C   0  0  0  0  0  0  0  0  0  0  0  0
   58.2620   27.4010   45.9940 C   0  0  0  0  0  0  0  0  0  0  0  0
   59.2060   27.8900   46.9000 C   0  0  0  0  0  0  0  0  0  0  0  0
   59.3170   29.2710   47.1310 C   0  0  0  0  0  0  0  0  0  0  0  0
   60.3120   29.7960   48.0880 C   0  0  0  0  0  0  0  0  0  0  0  0
   61.3110   30.6390   47.7450 N   0  0  0  0  0  0  0  0  0  0  0  0
   61.9490   30.8460   48.9120 C   0  0  0  0  0  0  0  0  0  0  0  0
   63.1550   31.7280   49.0700 C   0  0  0  0  0  0  0  0  0  0  0  0
   63.5060   32.4140   47.8120 N   0  0  0  0  0  0  0  0  0  0  0  0
   62.9890   33.7950   47.7310 C   0  0  0  0  0  0  0  0  0  0  0  0
   61.5260   33.8350   47.3600 C   0  0  0  0  0  0  0  0  0  0  0  0
   60.5420   33.8270   48.3610 C   0  0  0  0  0  0  0  0  0  0  0  0
   59.1860   33.8440   48.0190 C   0  0  0  0  0  0  0  0  0  0  0  0
   58.7970   33.8800   46.6710 C   0  0  0  0  0  0  0  0  0  0  0  0
   57.3420   33.8560   46.3050 C   0  0  0  0  0  0  0  0  0  0  0  0
   59.7790   33.8710   45.6700 C   0  0  0  0  0  0  0  0  0  0  0  0
   61.1340   33.8550   46.0110 C   0  0  0  0  0  0  0  0  0  0  0  0
   61.3300   30.1310   49.9120 C   0  0  0  0  0  0  0  0  0  0  0  0
   60.3220   29.4950   49.3690 O   0  0  0  0  0  0  0  0  0  0  0  0
   58.4670   30.1510   46.4420 C   0  0  0  0  0  0  0  0  0  0  0  0
   58.1913   32.2872   44.1112 H   0  0  0  0  0  0  0  0  0  0  0  0
   58.6006   31.4297   42.5868 H   0  0  0  0  0  0  0  0  0  0  0  0
   57.3401   32.7095   42.5868 H   0  0  0  0  0  0  0  0  0  0  0  0
   55.7443   31.2139   43.1419 H   0  0  0  0  0  0  0  0  0  0  0  0
   56.9663   29.9136   42.9370 H   0  0  0  0  0  0  0  0  0  0  0  0
   56.6768   27.8897   44.6006 H   0  0  0  0  0  0  0  0  0  0  0  0
   58.1823   26.3183   45.8170 H   0  0  0  0  0  0  0  0  0  0  0  0
   59.8653   27.1906   47.4349 H   0  0  0  0  0  0  0  0  0  0  0  0
   62.9434   32.4845   49.8401 H   0  0  0  0  0  0  0  0  0  0  0  0
   64.0051   31.0928   49.3595 H   0  0  0  0  0  0  0  0  0  0  0  0
   64.5480   32.4270   47.7180 H   0  0  0  0  0  0  0  0  0  0  0  0
   63.1290   31.8670   47.0040 H   0  0  0  0  0  0  0  0  0  0  0  0
   63.1198   34.2803   48.7095 H   0  0  0  0  0  0  0  0  0  0  0  0
   63.5513   34.3207   46.9453 H   0  0  0  0  0  0  0  0  0  0  0  0
   60.8390   33.8073   49.4200 H   0  0  0  0  0  0  0  0  0  0  0  0
   58.4214   33.8291   48.8096 H   0  0  0  0  0  0  0  0  0  0  0  0
   56.7335   33.8460   47.2213 H   0  0  0  0  0  0  0  0  0  0  0  0
   57.0981   34.7502   45.7127 H   0  0  0  0  0  0  0  0  0  0  0  0
   57.1277   32.9542   45.7127 H   0  0  0  0  0  0  0  0  0  0  0  0
   59.4812   33.8766   44.6111 H   0  0  0  0  0  0  0  0  0  0  0  0
   61.8976   33.8581   45.2192 H   0  0  0  0  0  0  0  0  0  0  0  0
   61.6268   30.0996   50.9707 H   0  0  0  0  0  0  0  0  0  0  0  0
   58.5482   31.2337   46.6184 H   0  0  0  0  0  0  0  0  0  0  0  0
  1  2  1  0
  2  3  1  0
  3  4  1  0
  4  5  2  0
  5  6  1  0
  6  7  2  0
  7  8  1  0
  8  9  1  0
  9 10  2  0
 10 11  1  0
 11 12  1  0
 12 13  1  0
 13 14  1  0
 14 15  1  0
 15 16  2  0
 16 17  1  0
 17 18  2  0
 18 19  1  0
 18 20  1  0
 20 21  2  0
 11 22  2  0
 22 23  1  0
  8 24  2  0
 24  4  1  0
 23  9  1  0
 21 15  1  0
  1 25  1  0
  1 26  1  0
  1 27  1  0
  2 28  1  0
  2 29  1  0
  5 30  1  0
  6 31  1  0
  7 32  1  0
 12 33  1  0
 12 34  1  0
 13 35  1  0
 13 36  1  0
 14 37  1  0
 14 38  1  0
 16 39  1  0
 17 40  1  0
 19 41  1  0
 19 42  1  0
 19 43  1  0
 20 44  1  0
 21 45  1  0
 22 46  1  0
 24 47  1  0
M  CHG  1  13   1
M  END
>  <UniqueID>  (37) 
35

>  <SMILES>  (37) 
CCOc1cccc(-c2nc(C[NH2+]Cc3ccc(C)cc3)co2)c1

>  <Energy>  (37) 
73.51062892030943

>  <Genealogy>  (37) 
CCOc1cccc(-c2nc(C[NH2+]Cc3ccc(C)cc3)co2)c1 (protonated)
CCOc1cccc(-c2nc(C[NH2+]Cc3ccc(C)cc3)co2)c1 (3D coordinates assigned)
CCOc1cccc(-c2nc(C[NH2+]Cc3ccc(C)cc3)co2)c1 (optimized conformer: 73.51062892030943 kcal/mol)

>  <smiles>  (37) 
CCOc1cccc(-c2nc(CNCc3ccc(C)cc3)co2)c1

>  <score_type>  (37) 
oracle

>  <origin>  (37) 
adg

>  <m_score__min__energy>  (37) 
-6.1100000000000003

>  <m_primary>  (37) 
energy

$$$$
37:0
     RDKit          3D

 41 44  0  0  1  0  0  0  0  0999 V2000
   57.4450   32.3880   40.6970 C   0  0  0  0  0  0  0  0  0  0  0  0
   57.4790   32.1020   42.1510 C   0  0  0  0  0  0  0  0  0  0  0  0
   56.8800   31.0240   42.7730 C   0  0  0  0  0  0  0  0  0  0  0  0
   57.1700   31.1630   44.1140 C   0  0  0  0  0  0  0  0  0  0  0  0
   56.7940   30.3590   45.0500 N   0  0  0  0  0  0  0  0  0  0  0  0
   57.1410   28.9920   45.1420 C   0  0  0  0  0  0  0  0  0  0  0  0
   56.8360   28.2490   44.1600 O   0  0  0  0  0  0  0  0  0  0  0  0
   57.8260   28.3900   46.2960 C   0  0  0  0  0  0  0  0  0  0  0  0
   57.7840   26.8970   46.1950 C   0  0  0  0  0  0  0  0  0  0  0  0
   58.8080   26.0250   46.2310 N   0  0  0  0  0  0  0  0  0  0  0  0
   58.2730   24.8000   46.1040 C   0  0  0  0  0  0  0  0  0  0  0  0
   58.9220   23.7080   46.0920 O   0  0  0  0  0  0  0  0  0  0  0  0
   56.9220   24.9140   45.9890 N   0  0  0  0  0  0  0  0  0  0  0  0
   56.5810   26.2220   46.0430 C   0  0  0  0  0  0  0  0  0  0  0  0
   55.2940   26.7430   45.9600 O   0  0  0  0  0  0  0  0  0  0  0  0
   57.9210   32.2930   44.2840 N   0  0  0  0  0  0  0  0  0  0  0  0
   58.3750   32.7010   45.5680 C   0  0  0  0  0  0  0  0  0  0  0  0
   59.0140   33.8260   45.9390 N   0  0  0  0  0  0  0  0  0  0  0  0
   59.2420   33.7680   47.2670 C   0  0  0  0  0  0  0  0  0  0  0  0
   59.8350   34.5820   48.2090 C   0  0  0  0  0  0  0  0  0  0  0  0
   59.9030   34.2040   49.5370 C   0  0  0  0  0  0  0  0  0  0  0  0
   59.3840   33.0050   49.9850 C   0  0  0  0  0  0  0  0  0  0  0  0
   58.7900   32.1910   49.0390 C   0  0  0  0  0  0  0  0  0  0  0  0
   58.7170   32.5540   47.7180 C   0  0  0  0  0  0  0  0  0  0  0  0
   58.1880   31.9090   46.6640 N   0  0  0  0  0  0  0  0  0  0  0  0
   58.1010   32.8490   43.1030 N   0  0  0  0  0  0  0  0  0  0  0  0
   57.3165   33.4690   40.5388 H   0  0  0  0  0  0  0  0  0  0  0  0
   58.3885   32.0597   40.2366 H   0  0  0  0  0  0  0  0  0  0  0  0
   56.6048   31.8476   40.2366 H   0  0  0  0  0  0  0  0  0  0  0  0
   56.2945   30.2228   42.2983 H   0  0  0  0  0  0  0  0  0  0  0  0
   58.8737   28.7246   46.3128 H   0  0  0  0  0  0  0  0  0  0  0  0
   57.3192   28.7036   47.2205 H   0  0  0  0  0  0  0  0  0  0  0  0
   59.8320   26.2870   46.3410 H   0  0  0  0  0  0  0  0  0  0  0  0
   56.2240   24.1240   45.8740 H   0  0  0  0  0  0  0  0  0  0  0  0
   55.1460   27.5190   45.3250 H   0  0  0  0  0  0  0  0  0  0  0  0
   60.2608   35.5476   47.8987 H   0  0  0  0  0  0  0  0  0  0  0  0
   60.3854   34.8790   50.2593 H   0  0  0  0  0  0  0  0  0  0  0  0
   59.4407   32.7120   51.0438 H   0  0  0  0  0  0  0  0  0  0  0  0
   58.3645   31.2266   49.3536 H   0  0  0  0  0  0  0  0  0  0  0  0
   57.7170   30.9650   46.6870 H   0  0  0  0  0  0  0  0  0  0  0  0
   58.6490   33.7360   42.9630 H   0  0  0  0  0  0  0  0  0  0  0  0
  1  2  1  0
  2  3  2  0
  3  4  1  0
  4  5  2  0
  5  6  1  0
  6  7  2  0
  6  8  1  0
  8  9  1  0
  9 10  1  0
 10 11  1  0
 11 12  2  0
 11 13  1  0
 13 14  1  0
 14 15  1  0
  4 16  1  0
 16 17  1  0
 17 18  2  0
 18 19  1  0
 19 20  2  0
 20 21  1  0
 21 22  2  0
 22 23  1  0
 23 24  2  0
 24 25  1  0
 16 26  1  0
 26  2  1  0
 14  9  2  0
 25 17  1  0
 24 19  1  0
  1 27  1  0
  1 28  1  0
  1 29  1  0
  3 30  1  0
  8 31  1  0
  8 32  1  0
 10 33  1  0
 13 34  1  0
 15 35  1  0
 20 36  1  0
 21 37  1  0
 22 38  1  0
 23 39  1  0
 25 40  1  0
 26 41  1  0
M  END
>  <smiles>  (38) 
Cc1cc(=NC(=O)Cc2[nH]c(=O)[nH]c2O)n(-c2nc3ccccc3[nH]2)[nH]1

>  <score_type>  (38) 
oracle

>  <origin>  (38) 
adg

>  <m_score__min__energy>  (38) 
-8.25

>  <m_primary>  (38) 
energy

$$$$
38:0
     RDKit          3D

 61 64  0  0  1  0  0  0  0  0999 V2000
   54.9860   30.1310   52.3610 C   0  0  0  0  0  0  0  0  0  0  0  0
   55.6780   31.0740   51.5520 O   0  0  0  0  0  0  0  0  0  0  0  0
   57.0460   30.8520   51.3240 C   0  0  0  0  0  0  0  0  0  0  0  0
   57.8110   31.6980   50.5510 C   0  0  0  0  0  0  0  0  0  0  0  0
   59.1480   31.4740   50.3320 C   0  0  0  0  0  0  0  0  0  0  0  0
   57.9990   28.1050   43.9020 N   0  0  0  0  0  0  0  0  0  0  0  0
   56.9610   29.3430   44.3220 S   0  0  0  0  0  0  0  0  0  0  0  0
   56.5040   29.7180   42.8700 O   0  0  0  0  0  0  0  0  0  0  0  0
   55.5970   29.0610   44.8420 O   0  0  0  0  0  0  0  0  0  0  0  0
   57.6220   30.8950   44.7380 C   0  0  0  0  0  0  0  0  0  0  0  0
   57.9270   31.1570   46.0820 C   0  0  0  0  0  0  0  0  0  0  0  0
   60.6480   29.1430   45.6050 C   0  0  0  0  0  0  0  0  0  0  0  0
   59.8130   28.1270   46.1320 C   0  0  0  0  0  0  0  0  0  0  0  0
   59.5120   27.0570   45.2700 N   0  0  0  0  0  0  0  0  0  0  0  0
   58.2570   27.0810   44.6050 C   0  0  0  0  0  0  0  0  0  0  0  0
   59.9030   32.2340   49.6340 N   0  0  0  0  0  0  0  0  0  0  0  0
   61.2420   31.5680   48.7800 S   0  0  0  0  0  0  0  0  0  0  0  0
   61.9650   32.6370   47.9970 O   0  0  0  0  0  0  0  0  0  0  0  0
   62.2550   31.0560   49.7950 O   0  0  0  0  0  0  0  0  0  0  0  0
   60.7270   30.2750   47.7250 C   0  0  0  0  0  0  0  0  0  0  0  0
   61.0840   30.1840   46.3990 C   0  0  0  0  0  0  0  0  0  0  0  0
   58.5110   32.3550   46.4690 C   0  0  0  0  0  0  0  0  0  0  0  0
   58.8190   33.3420   45.5570 C   0  0  0  0  0  0  0  0  0  0  0  0
   59.6150   34.9760   46.0910 Br  0  0  0  0  0  0  0  0  0  0  0  0
   58.5170   33.0820   44.2360 C   0  0  0  0  0  0  0  0  0  0  0  0
   59.9170   29.2990   48.2630 C   0  0  0  0  0  0  0  0  0  0  0  0
   57.3420   25.9190   44.7150 C   0  0  0  0  0  0  0  0  0  0  0  0
   56.4700   25.7720   45.7510 C   0  0  0  0  0  0  0  0  0  0  0  0
   55.6150   24.6840   45.8420 C   0  0  0  0  0  0  0  0  0  0  0  0
   55.6790   23.7400   44.8340 C   0  0  0  0  0  0  0  0  0  0  0  0
   56.5690   23.9010   43.7900 C   0  0  0  0  0  0  0  0  0  0  0  0
   57.4070   24.9970   43.7280 C   0  0  0  0  0  0  0  0  0  0  0  0
   59.4960   28.2720   47.4510 C   0  0  0  0  0  0  0  0  0  0  0  0
   57.9350   31.8870   43.8520 C   0  0  0  0  0  0  0  0  0  0  0  0
   59.7040   30.3860   50.8980 N   0  0  0  0  0  0  0  0  0  0  0  0
   58.9850   29.5230   51.6690 C   0  0  0  0  0  0  0  0  0  0  0  0
   59.6670   28.4530   52.1910 O   0  0  0  0  0  0  0  0  0  0  0  0
   59.7300   28.1140   53.5630 C   0  0  0  0  0  0  0  0  0  0  0  0
   57.6790   29.7730   51.8650 N   0  0  0  0  0  0  0  0  0  0  0  0
   55.1566   30.3635   53.4225 H   0  0  0  0  0  0  0  0  0  0  0  0
   53.9090   30.1814   52.1431 H   0  0  0  0  0  0  0  0  0  0  0  0
   55.3572   29.1187   52.1431 H   0  0  0  0  0  0  0  0  0  0  0  0
   57.3363   32.5796   50.0955 H   0  0  0  0  0  0  0  0  0  0  0  0
   57.6987   30.3977   46.8444 H   0  0  0  0  0  0  0  0  0  0  0  0
   60.9528   29.1015   44.5489 H   0  0  0  0  0  0  0  0  0  0  0  0
   60.1600   26.2230   45.1170 H   0  0  0  0  0  0  0  0  0  0  0  0
   61.7315   30.9586   45.9622 H   0  0  0  0  0  0  0  0  0  0  0  0
   58.7344   32.5217   47.5331 H   0  0  0  0  0  0  0  0  0  0  0  0
   58.7437   33.8406   43.4723 H   0  0  0  0  0  0  0  0  0  0  0  0
   59.6135   29.3403   49.3195 H   0  0  0  0  0  0  0  0  0  0  0  0
   56.4432   26.5391   46.5389 H   0  0  0  0  0  0  0  0  0  0  0  0
   54.9138   24.5764   46.6827 H   0  0  0  0  0  0  0  0  0  0  0  0
   55.0203   22.8595   44.8634 H   0  0  0  0  0  0  0  0  0  0  0  0
   56.6110   23.1429   42.9940 H   0  0  0  0  0  0  0  0  0  0  0  0
   58.1128   25.1174   42.8929 H   0  0  0  0  0  0  0  0  0  0  0  0
   58.8504   27.5041   47.9022 H   0  0  0  0  0  0  0  0  0  0  0  0
   57.7145   31.7285   42.7861 H   0  0  0  0  0  0  0  0  0  0  0  0
   60.7330   30.2030   50.7360 H   0  0  0  0  0  0  0  0  0  0  0  0
   59.5626   29.0150   54.1714 H   0  0  0  0  0  0  0  0  0  0  0  0
   58.9552   27.3676   53.7922 H   0  0  0  0  0  0  0  0  0  0  0  0
   60.7212   27.6958   53.7922 H   0  0  0  0  0  0  0  0  0  0  0  0
  1  2  1  0
  2  3  1  0
  3  4  2  0
  4  5  1  0
  5  6  2  0
  6  7  1  0
  7  8  2  0
  7  9  2  0
  7 10  1  0
 10 11  2  0
 11 12  1  0
 12 13  2  0
 13 14  1  0
 14 15  1  0
 15 16  2  0
 16 17  1  0
 17 18  2  0
 17 19  2  0
 17 20  1  0
 20 21  2  0
 21 22  1  0
 22 23  2  0
 23 24  1  0
 23 25  1  0
 25 26  2  0
 15 27  1  0
 27 28  2  0
 28 29  1  0
 29 30  2  0
 30 31  1  0
 31 32  2  0
 13 33  1  0
 33 34  2  0
  5 35  1  0
 35 36  1  0
 36 37  1  0
 37 38  1  0
 36 39  2  0
 39  3  1  0
 34 10  1  0
 26 20  1  0
 32 27  1  0
  1 40  1  0
  1 41  1  0
  1 42  1  0
  4 43  1  0
 11 44  1  0
 12 45  1  0
 14 46  1  0
 21 47  1  0
 22 48  1  0
 25 49  1  0
 26 50  1  0
 28 51  1  0
 29 52  1  0
 30 53  1  0
 31 54  1  0
 32 55  1  0
 33 56  1  0
 34 57  1  0
 35 58  1  0
 38 59  1  0
 38 60  1  0
 38 61  1  0
M  END
>  <smiles>  (39) 
COc1cc(=NS(=O)(=O)c2ccc(NC(=NS(=O)(=O)c3ccc(Br)cc3)c3ccccc3)cc2)[nH]c(OC)n1

>  <score_type>  (39) 
oracle

>  <origin>  (39) 
adg

>  <m_score__min__energy>  (39) 
-11.01

>  <m_primary>  (39) 
energy

$$$$
39:0
     RDKit          3D

 48 50  0  0  0  0  0  0  0  0999 V2000
   58.2010   32.1960   49.8560 C   0  0  0  0  0  0  0  0  0  0  0  0
   58.9040   33.0290   48.8370 C   0  0  0  0  0  0  0  0  0  0  0  0
   60.0580   33.7550   49.1190 C   0  0  0  0  0  0  0  0  0  0  0  0
   60.5200   34.5510   47.7100 S   0  0  0  0  0  0  0  0  0  0  0  0
   59.2280   33.9530   46.8150 C   0  0  0  0  0  0  0  0  0  0  0  0
   58.9810   34.2390   45.3650 C   0  0  0  0  0  0  0  0  0  0  0  0
   57.5090   34.0150   44.9970 C   0  0  0  0  0  0  0  0  0  0  0  0
   57.0710   32.6600   45.3400 N   0  0  0  0  0  0  0  0  0  0  0  0
   57.0310   31.6180   44.3600 C   0  0  0  0  0  0  0  0  0  0  0  0
   57.2820   31.8750   43.1510 O   0  0  0  0  0  0  0  0  0  0  0  0
   56.6500   30.2960   44.7630 N   0  0  0  0  0  0  0  0  0  0  0  0
   57.3880   29.4070   45.6170 C   0  0  0  0  0  0  0  0  0  0  0  0
   58.3830   29.8680   46.4940 C   0  0  0  0  0  0  0  0  0  0  0  0
   59.0520   28.9790   47.3550 C   0  0  0  0  0  0  0  0  0  0  0  0
   60.0440   29.4670   48.2890 N   0  0  0  0  0  0  0  0  0  0  0  0
   61.1420   30.3150   47.8130 C   0  0  0  0  0  0  0  0  0  0  0  0
   61.7810   31.0560   48.9900 C   0  0  0  0  0  0  0  0  0  0  0  0
   62.2360   30.1450   49.9720 O   0  0  0  0  0  0  0  0  0  0  0  0
   61.2060   29.2910   50.4750 C   0  0  0  0  0  0  0  0  0  0  0  0
   59.8480   29.3290   49.7380 C   0  0  0  0  0  0  0  0  0  0  0  0
   58.7080   27.6150   47.3230 C   0  0  0  0  0  0  0  0  0  0  0  0
   57.7190   27.1400   46.4470 C   0  0  0  0  0  0  0  0  0  0  0  0
   57.3080   25.6880   46.4880 C   0  0  0  0  0  0  0  0  0  0  0  0
   55.9320   25.5720   46.4000 F   0  0  0  0  0  0  0  0  0  0  0  0
   57.7190   25.0920   47.6680 F   0  0  0  0  0  0  0  0  0  0  0  0
   57.8860   25.0230   45.4210 F   0  0  0  0  0  0  0  0  0  0  0  0
   57.0430   28.0510   45.6210 C   0  0  0  0  0  0  0  0  0  0  0  0
   58.4430   33.1450   47.5610 N   0  0  0  0  0  0  0  0  0  0  0  0
   58.4850   32.5326   50.8640 H   0  0  0  0  0  0  0  0  0  0  0  0
   57.1135   32.2999   49.7276 H   0  0  0  0  0  0  0  0  0  0  0  0
   58.4862   31.1414   49.7276 H   0  0  0  0  0  0  0  0  0  0  0  0
   60.5751   33.8002   50.0888 H   0  0  0  0  0  0  0  0  0  0  0  0
   59.2478   35.2854   45.1554 H   0  0  0  0  0  0  0  0  0  0  0  0
   59.5976   33.5533   44.7654 H   0  0  0  0  0  0  0  0  0  0  0  0
   56.8892   34.7405   45.5443 H   0  0  0  0  0  0  0  0  0  0  0  0
   57.4003   34.1486   43.9106 H   0  0  0  0  0  0  0  0  0  0  0  0
   56.8000   32.4250   46.3220 H   0  0  0  0  0  0  0  0  0  0  0  0
   58.6424   30.9369   46.5080 H   0  0  0  0  0  0  0  0  0  0  0  0
   61.9007   29.6872   47.3229 H   0  0  0  0  0  0  0  0  0  0  0  0
   60.7456   31.0498   47.0968 H   0  0  0  0  0  0  0  0  0  0  0  0
   62.6337   31.6466   48.6238 H   0  0  0  0  0  0  0  0  0  0  0  0
   61.0251   31.7138   49.4437 H   0  0  0  0  0  0  0  0  0  0  0  0
   61.5797   28.2574   50.4312 H   0  0  0  0  0  0  0  0  0  0  0  0
   60.9940   29.6617   51.4887 H   0  0  0  0  0  0  0  0  0  0  0  0
   59.3016   28.3961   49.9407 H   0  0  0  0  0  0  0  0  0  0  0  0
   59.2748   30.1952   50.1001 H   0  0  0  0  0  0  0  0  0  0  0  0
   59.2214   26.9106   47.9940 H   0  0  0  0  0  0  0  0  0  0  0  0
   56.2320   27.6948   44.9687 H   0  0  0  0  0  0  0  0  0  0  0  0
  1  2  1  0
  2  3  2  0
  3  4  1  0
  4  5  1  0
  5  6  1  0
  6  7  1  0
  7  8  1  0
  8  9  1  0
  9 10  2  0
  9 11  1  0
 11 12  1  0
 12 13  2  0
 13 14  1  0
 14 15  1  0
 15 16  1  0
 16 17  1  0
 17 18  1  0
 18 19  1  0
 19 20  1  0
 14 21  2  0
 21 22  1  0
 22 23  1  0
 23 24  1  0
 23 25  1  0
 23 26  1  0
 22 27  2  0
  5 28  2  0
 28  2  1  0
 27 12  1  0
 20 15  1  0
  1 29  1  0
  1 30  1  0
  1 31  1  0
  3 32  1  0
  6 33  1  0
  6 34  1  0
  7 35  1  0
  7 36  1  0
  8 37  1  0
 13 38  1  0
 16 39  1  0
 16 40  1  0
 17 41  1  0
 17 42  1  0
 19 43  1  0
 19 44  1  0
 20 45  1  0
 20 46  1  0
 21 47  1  0
 27 48  1  0
M  CHG  1  11  -1
M  END
>  <UniqueID>  (40) 
36

>  <SMILES>  (40) 
Cc1csc(CCNC(=O)[N-]c2cc(N3CCOCC3)cc(C(F)(F)F)c2)n1

>  <Energy>  (40) 
86.42984497404503

>  <Genealogy>  (40) 
Cc1csc(CCNC(=O)[N-]c2cc(N3CCOCC3)cc(C(F)(F)F)c2)n1 (protonated)
Cc1csc(CCNC(=O)[N-]c2cc(N3CCOCC3)cc(C(F)(F)F)c2)n1 (3D coordinates assigned)
Cc1csc(CCNC(=O)[N-]c2cc(N3CCOCC3)cc(C(F)(F)F)c2)n1 (nonaromatic ring conformer: 86.42984497404503 kcal/mol)

>  <smiles>  (40) 
Cc1csc(CCNC(=O)Nc2cc(N3CCOCC3)cc(C(F)(F)F)c2)n1

>  <score_type>  (40) 
oracle

>  <origin>  (40) 
adg

>  <m_score__min__energy>  (40) 
-8.4199999999999999

>  <m_primary>  (40) 
energy

$$$$
40:0
     RDKit          3D

 32 33  0  0  0  0  0  0  0  0999 V2000
   56.1350   30.1010   43.7600 C   0  0  0  0  0  0  0  0  0  0  0  0
   56.6390   30.4110   45.0400 O   0  0  0  0  0  0  0  0  0  0  0  0
   58.0490   30.2680   45.0660 C   0  0  0  0  0  0  0  0  0  0  0  0
   58.5470   30.0150   46.4930 C   0  0  0  0  0  0  0  0  0  0  0  0
   58.5280   31.2760   47.3140 C   0  0  0  0  0  0  0  0  0  0  0  0
   58.7010   31.1920   48.5600 O   0  0  0  0  0  0  0  0  0  0  0  0
   58.3300   32.5630   46.6990 N   0  0  0  0  0  0  0  0  0  0  0  0
   57.2160   32.9190   46.0750 N   0  0  0  0  0  0  0  0  0  0  0  0
   57.4100   34.1300   45.5310 C   0  0  0  0  0  0  0  0  0  0  0  0
   56.5400   34.7500   44.8650 O   0  0  0  0  0  0  0  0  0  0  0  0
   58.6820   34.5820   45.8030 C   0  0  0  0  0  0  0  0  0  0  0  0
   59.2400   33.5620   46.5580 C   0  0  0  0  0  0  0  0  0  0  0  0
   60.5850   33.6150   47.1710 C   0  0  0  0  0  0  0  0  0  0  0  0
   61.7300   33.4900   46.3660 C   0  0  0  0  0  0  0  0  0  0  0  0
   63.0050   33.5690   46.9360 C   0  0  0  0  0  0  0  0  0  0  0  0
   63.1460   33.7850   48.3090 C   0  0  0  0  0  0  0  0  0  0  0  0
   62.0130   33.9280   49.1140 C   0  0  0  0  0  0  0  0  0  0  0  0
   60.7370   33.8520   48.5480 C   0  0  0  0  0  0  0  0  0  0  0  0
   55.2021   29.5272   43.8623 H   0  0  0  0  0  0  0  0  0  0  0  0
   55.9343   31.0320   43.2096 H   0  0  0  0  0  0  0  0  0  0  0  0
   56.8754   29.5020   43.2096 H   0  0  0  0  0  0  0  0  0  0  0  0
   58.3367   29.4191   44.4284 H   0  0  0  0  0  0  0  0  0  0  0  0
   58.5034   31.1986   44.6951 H   0  0  0  0  0  0  0  0  0  0  0  0
   57.8975   29.2670   46.9712 H   0  0  0  0  0  0  0  0  0  0  0  0
   59.5846   29.6538   46.4381 H   0  0  0  0  0  0  0  0  0  0  0  0
   56.3490   32.3410   45.9950 H   0  0  0  0  0  0  0  0  0  0  0  0
   59.1464   35.5300   45.4938 H   0  0  0  0  0  0  0  0  0  0  0  0
   61.6232   33.3294   45.2830 H   0  0  0  0  0  0  0  0  0  0  0  0
   63.8977   33.4609   46.3024 H   0  0  0  0  0  0  0  0  0  0  0  0
   64.1492   33.8425   48.7564 H   0  0  0  0  0  0  0  0  0  0  0  0
   62.1252   34.1006   50.1946 H   0  0  0  0  0  0  0  0  0  0  0  0
   59.8479   33.9783   49.1832 H   0  0  0  0  0  0  0  0  0  0  0  0
  1  2  1  0
  2  3  1  0
  3  4  1  0
  4  5  1  0
  5  6  2  0
  5  7  1  0
  7  8  1  0
  8  9  1  0
  9 10  2  0
  9 11  1  0
 11 12  2  0
 12 13  1  0
 13 14  2  0
 14 15  1  0
 15 16  2  0
 16 17  1  0
 17 18  2  0
 12  7  1  0
 18 13  1  0
  1 19  1  0
  1 20  1  0
  1 21  1  0
  3 22  1  0
  3 23  1  0
  4 24  1  0
  4 25  1  0
  8 26  1  0
 11 27  1  0
 14 28  1  0
 15 29  1  0
 16 30  1  0
 17 31  1  0
 18 32  1  0
M  END
>  <UniqueID>  (41) 
37

>  <SMILES>  (41) 
COCCC(=O)n1[nH]c(=O)cc1-c1ccccc1

>  <Energy>  (41) 
70.83898739855276

>  <Genealogy>  (41) 
COCCC(=O)n1[nH]c(=O)cc1-c1ccccc1 (3D coordinates assigned)
COCCC(=O)n1[nH]c(=O)cc1-c1ccccc1 (optimized conformer: 70.83898739855276 kcal/mol)

>  <smiles>  (41) 
COCCC(=O)n1[nH]c(=O)cc1-c1ccccc1

>  <score_type>  (41) 
oracle

>  <origin>  (41) 
adg

>  <m_score__min__energy>  (41) 
-7.0899999999999999

>  <m_primary>  (41) 
energy

$$$$
41:0
     RDKit          3D

 37 38  0  0  0  0  0  0  0  0999 V2000
   57.7250   28.1130   44.3380 C   0  0  0  0  0  0  0  0  0  0  0  0
   56.8320   29.1450   44.6130 O   0  0  0  0  0  0  0  0  0  0  0  0
   57.1230   30.4700   44.3270 C   0  0  0  0  0  0  0  0  0  0  0  0
   57.0170   31.4630   45.2310 N   0  0  0  0  0  0  0  0  0  0  0  0
   57.3040   32.7430   44.9340 C   0  0  0  0  0  0  0  0  0  0  0  0
   57.2130   33.7140   45.7760 N   0  0  0  0  0  0  0  0  0  0  0  0
   58.1070   33.8200   46.9020 C   0  0  0  0  0  0  0  0  0  0  0  0
   57.8300   33.1010   47.8850 O   0  0  0  0  0  0  0  0  0  0  0  0
   59.2300   34.7480   46.7760 C   0  0  0  0  0  0  0  0  0  0  0  0
   60.5110   34.2140   46.2620 C   0  0  0  0  0  0  0  0  0  0  0  0
   61.5410   33.8610   47.2280 C   0  0  0  0  0  0  0  0  0  0  0  0
   61.4000   33.8630   48.5990 C   0  0  0  0  0  0  0  0  0  0  0  0
   62.4160   33.5020   49.4510 C   0  0  0  0  0  0  0  0  0  0  0  0
   63.6430   33.1150   48.9600 C   0  0  0  0  0  0  0  0  0  0  0  0
   63.8030   33.1080   47.5840 C   0  0  0  0  0  0  0  0  0  0  0  0
   62.7830   33.4700   46.7460 C   0  0  0  0  0  0  0  0  0  0  0  0
   57.7100   33.0210   43.6820 N   0  0  0  0  0  0  0  0  0  0  0  0
   57.8370   32.0740   42.7340 C   0  0  0  0  0  0  0  0  0  0  0  0
   58.2520   32.3370   41.4390 O   0  0  0  0  0  0  0  0  0  0  0  0
   57.3980   32.6950   40.3980 C   0  0  0  0  0  0  0  0  0  0  0  0
   57.5360   30.8150   43.0860 N   0  0  0  0  0  0  0  0  0  0  0  0
   58.0942   27.6863   45.2822 H   0  0  0  0  0  0  0  0  0  0  0  0
   57.2140   27.3310   43.7572 H   0  0  0  0  0  0  0  0  0  0  0  0
   58.5723   28.5063   43.7572 H   0  0  0  0  0  0  0  0  0  0  0  0
   58.9148   35.5546   46.0977 H   0  0  0  0  0  0  0  0  0  0  0  0
   59.4522   35.0564   47.8082 H   0  0  0  0  0  0  0  0  0  0  0  0
   60.2791   33.3067   45.6849 H   0  0  0  0  0  0  0  0  0  0  0  0
   60.9455   35.0464   45.6890 H   0  0  0  0  0  0  0  0  0  0  0  0
   60.4340   34.1662   49.0291 H   0  0  0  0  0  0  0  0  0  0  0  0
   62.2472   33.5224   50.5378 H   0  0  0  0  0  0  0  0  0  0  0  0
   64.4627   32.8233   49.6330 H   0  0  0  0  0  0  0  0  0  0  0  0
   64.7700   32.8052   47.1558 H   0  0  0  0  0  0  0  0  0  0  0  0
   62.9522   33.4506   45.6593 H   0  0  0  0  0  0  0  0  0  0  0  0
   56.4586   33.0888   40.8133 H   0  0  0  0  0  0  0  0  0  0  0  0
   57.8778   33.4677   39.7794 H   0  0  0  0  0  0  0  0  0  0  0  0
   57.1833   31.8111   39.7794 H   0  0  0  0  0  0  0  0  0  0  0  0
   57.6340   30.0690   42.3440 H   0  0  0  0  0  0  0  0  0  0  0  0
  1  2  1  0
  2  3  1  0
  3  4  2  0
  4  5  1  0
  5  6  2  3
  6  7  1  0
  7  8  2  0
  7  9  1  0
  9 10  1  0
 10 11  1  0
 11 12  2  0
 12 13  1  0
 13 14  2  0
 14 15  1  0
 15 16  2  0
  5 17  1  0
 17 18  2  0
 18 19  1  0
 19 20  1  0
 18 21  1  0
 21  3  1  0
 16 11  1  0
  1 22  1  0
  1 23  1  0
  1 24  1  0
  9 25  1  0
  9 26  1  0
 10 27  1  0
 10 28  1  0
 12 29  1  0
 13 30  1  0
 14 31  1  0
 15 32  1  0
 16 33  1  0
 20 34  1  0
 20 35  1  0
 20 36  1  0
 21 37  1  0
M  END
>  <smiles>  (42) 
COc1nc(=NC(=O)CCc2ccccc2)nc(OC)[nH]1

>  <score_type>  (42) 
oracle

>  <origin>  (42) 
adg

>  <m_score__min__energy>  (42) 
-7.0999999999999996

>  <m_primary>  (42) 
energy

$$$$
42:0
     RDKit          3D

 47 50  0  0  0  0  0  0  0  0999 V2000
   57.4800   31.2270   43.2430 C   0  0  0  0  0  0  0  0  0  0  0  0
   57.8560   30.5670   44.3370 C   0  0  0  0  0  0  0  0  0  0  0  0
   57.9880   29.2230   44.3720 N   0  0  0  0  0  0  0  0  0  0  0  0
   58.3510   28.9130   45.6370 C   0  0  0  0  0  0  0  0  0  0  0  0
   58.5730   27.6500   46.0240 C   0  0  0  0  0  0  0  0  0  0  0  0
   57.5190   26.6520   46.2680 C   0  0  0  0  0  0  0  0  0  0  0  0
   57.7050   25.5360   46.9950 N   0  0  0  0  0  0  0  0  0  0  0  0
   56.4720   24.9880   47.0470 C   0  0  0  0  0  0  0  0  0  0  0  0
   56.2390   23.9020   47.6390 O   0  0  0  0  0  0  0  0  0  0  0  0
   55.5080   25.6990   46.4240 N   0  0  0  0  0  0  0  0  0  0  0  0
   56.1830   26.7580   45.9490 C   0  0  0  0  0  0  0  0  0  0  0  0
   55.5890   27.8160   45.2680 O   0  0  0  0  0  0  0  0  0  0  0  0
   58.4160   30.0680   46.4070 C   0  0  0  0  0  0  0  0  0  0  0  0
   58.6870   30.1640   47.7670 O   0  0  0  0  0  0  0  0  0  0  0  0
   58.1220   31.1250   45.5790 C   0  0  0  0  0  0  0  0  0  0  0  0
   58.1130   32.5450   45.9670 C   0  0  0  0  0  0  0  0  0  0  0  0
   57.0040   33.1430   46.0230 O   0  0  0  0  0  0  0  0  0  0  0  0
   59.3280   33.2260   46.3520 N   0  0  0  0  0  0  0  0  0  0  0  0
   59.3280   34.6750   46.5950 C   0  0  0  0  0  0  0  0  0  0  0  0
   59.6140   34.9670   48.0760 C   0  0  0  0  0  0  0  0  0  0  0  0
   60.7270   34.0570   48.6800 C   0  0  0  0  0  0  0  0  0  0  0  0
   60.2230   33.1370   49.7860 C   0  0  0  0  0  0  0  0  0  0  0  0
   61.1290   32.6510   50.7470 C   0  0  0  0  0  0  0  0  0  0  0  0
   60.7050   31.7630   51.7400 C   0  0  0  0  0  0  0  0  0  0  0  0
   59.3760   31.3390   51.7800 C   0  0  0  0  0  0  0  0  0  0  0  0
   58.4670   31.8000   50.8270 C   0  0  0  0  0  0  0  0  0  0  0  0
   58.8850   32.6900   49.8330 C   0  0  0  0  0  0  0  0  0  0  0  0
   61.4860   33.2530   47.6020 C   0  0  0  0  0  0  0  0  0  0  0  0
   60.5300   32.4490   46.7050 C   0  0  0  0  0  0  0  0  0  0  0  0
   57.3874   32.3228   43.2664 H   0  0  0  0  0  0  0  0  0  0  0  0
   57.2621   30.6763   42.3161 H   0  0  0  0  0  0  0  0  0  0  0  0
   59.6172   27.3364   46.1698 H   0  0  0  0  0  0  0  0  0  0  0  0
   56.0640   28.2620   44.4920 H   0  0  0  0  0  0  0  0  0  0  0  0
   60.1048   35.1469   45.9755 H   0  0  0  0  0  0  0  0  0  0  0  0
   58.3397   35.0816   46.3344 H   0  0  0  0  0  0  0  0  0  0  0  0
   59.9313   36.0160   48.1701 H   0  0  0  0  0  0  0  0  0  0  0  0
   58.6879   34.7627   48.6333 H   0  0  0  0  0  0  0  0  0  0  0  0
   61.4400   34.7543   49.1441 H   0  0  0  0  0  0  0  0  0  0  0  0
   62.1804   32.9728   50.7165 H   0  0  0  0  0  0  0  0  0  0  0  0
   61.4205   31.3977   52.4914 H   0  0  0  0  0  0  0  0  0  0  0  0
   59.0449   30.6411   52.5631 H   0  0  0  0  0  0  0  0  0  0  0  0
   57.4204   31.4628   50.8578 H   0  0  0  0  0  0  0  0  0  0  0  0
   58.1649   33.0449   49.0811 H   0  0  0  0  0  0  0  0  0  0  0  0
   62.0584   33.9521   46.9746 H   0  0  0  0  0  0  0  0  0  0  0  0
   62.1515   32.5420   48.1134 H   0  0  0  0  0  0  0  0  0  0  0  0
   61.0581   32.1705   45.7811 H   0  0  0  0  0  0  0  0  0  0  0  0
   60.2090   31.5559   47.2611 H   0  0  0  0  0  0  0  0  0  0  0  0
  1  2  2  0
  2  3  1  0
  3  4  1  0
  4  5  2  3
  5  6  1  0
  6  7  1  0
  7  8  1  0
  8  9  2  0
  8 10  1  0
 10 11  1  0
 11 12  1  0
  4 13  1  0
 13 14  1  0
 13 15  2  0
 15 16  1  0
 16 17  2  0
 16 18  1  0
 18 19  1  0
 19 20  1  0
 20 21  1  0
 21 22  1  0
 22 23  2  0
 23 24  1  0
 24 25  2  0
 25 26  1  0
 26 27  2  0
 21 28  1  0
 28 29  1  0
 15  2  1  0
 29 18  1  0
 11  6  2  0
 27 22  1  0
  1 30  1  0
  1 31  1  0
  5 32  1  0
 12 33  1  0
 19 34  1  0
 19 35  1  0
 20 36  1  0
 20 37  1  0
 21 38  1  0
 23 39  1  0
 24 40  1  0
 25 41  1  0
 26 42  1  0
 27 43  1  0
 28 44  1  0
 28 45  1  0
 29 46  1  0
 29 47  1  0
M  CHG  4   3  -1   7  -1  10  -1  14  -1
M  END
>  <UniqueID>  (43) 
38

>  <SMILES>  (43) 
C=c1[n-]c(=Cc2[n-]c(=O)[n-]c2O)c([O-])c1C(=O)N1CCC(c2ccccc2)CC1

>  <Energy>  (43) 
123.79769709211223

>  <Genealogy>  (43) 
C=c1[n-]c(=Cc2[n-]c(=O)[n-]c2O)c([O-])c1C(=O)N1CCC(c2ccccc2)CC1 (protonated)
C=c1[n-]c(=Cc2[n-]c(=O)[n-]c2O)c([O-])c1C(=O)N1CCC(c2ccccc2)CC1 (3D coordinates assigned)
C=c1[n-]c(=Cc2[n-]c(=O)[n-]c2O)c([O-])c1C(=O)N1CCC(c2ccccc2)CC1 (nonaromatic ring conformer: 123.79769709211223 kcal/mol)

>  <smiles>  (43) 
C=c1[nH]c(=Cc2[nH]c(=O)[nH]c2O)c(O)c1C(=O)N1CCC(c2ccccc2)CC1

>  <score_type>  (43) 
oracle

>  <origin>  (43) 
adg

>  <m_score__min__energy>  (43) 
-16.27

>  <m_primary>  (43) 
energy

$$$$
43:0
     RDKit          3D

 80 82  0  0  1  0  0  0  0  0999 V2000
   57.6290   29.7070   52.2870 C   0  0  0  0  0  0  0  0  0  0  0  0
   57.7490   30.1310   50.9430 O   0  0  0  0  0  0  0  0  0  0  0  0
   57.9340   31.4770   50.6500 C   0  0  0  0  0  0  0  0  0  0  0  0
   58.1610   31.8490   49.4570 O   0  0  0  0  0  0  0  0  0  0  0  0
   57.8560   32.4650   51.7700 C   0  0  0  0  0  0  0  0  0  0  0  0
   59.0360   33.4020   51.6190 C   0  0  0  0  0  0  0  0  0  0  0  0
   59.9620   33.3510   52.7900 C   0  0  0  0  0  0  0  0  0  0  0  0
   60.9210   32.1930   52.7250 C   0  0  0  0  0  0  0  0  0  0  0  0
   61.2480   31.9230   51.2830 C   0  0  0  0  0  0  0  0  0  0  0  0
   61.6950   30.4980   51.0250 C   0  0  0  0  0  0  0  0  0  0  0  0
   61.0590   30.0520   49.7550 C   0  0  0  0  0  0  0  0  0  0  0  0
   61.5880   30.4890   48.6790 O   0  0  0  0  0  0  0  0  0  0  0  0
   59.9470   29.2060   49.6740 N   0  0  0  0  0  0  0  0  0  0  0  0
   59.4490   28.8660   48.3900 C   0  0  0  0  0  0  0  0  0  0  0  0
   58.6340   29.6890   47.6420 C   0  0  0  0  0  0  0  0  0  0  0  0
   60.1620   34.0050   47.6060 C   0  0  0  0  0  0  0  0  0  0  0  0
   58.8450   34.1360   47.0990 N   0  0  0  0  0  0  0  0  0  0  0  0
   58.5110   33.4430   46.0710 C   0  0  0  0  0  0  0  0  0  0  0  0
   57.7550   31.7910   44.0440 N   0  0  0  0  0  0  0  0  0  0  0  0
   58.1500   33.0500   43.7470 C   0  0  0  0  0  0  0  0  0  0  0  0
   58.5370   33.8970   44.7820 C   0  0  0  0  0  0  0  0  0  0  0  0
   58.9380   35.1540   44.5510 F   0  0  0  0  0  0  0  0  0  0  0  0
   57.7280   31.3350   45.3250 C   0  0  0  0  0  0  0  0  0  0  0  0
   57.3460   30.1190   45.6030 N   0  0  0  0  0  0  0  0  0  0  0  0
   58.1950   29.2620   46.3830 C   0  0  0  0  0  0  0  0  0  0  0  0
   60.5190   34.4310   48.8800 C   0  0  0  0  0  0  0  0  0  0  0  0
   62.4290   33.2490   47.1730 C   0  0  0  0  0  0  0  0  0  0  0  0
   62.7670   33.6770   48.4380 C   0  0  0  0  0  0  0  0  0  0  0  0
   64.0490   33.5340   48.8930 O   0  0  0  0  0  0  0  0  0  0  0  0
   64.4390   33.3200   50.2340 C   0  0  0  0  0  0  0  0  0  0  0  0
   64.8840   31.8940   50.4690 C   0  0  0  0  0  0  0  0  0  0  0  0
   66.3000   31.7270   50.3600 N   0  0  0  0  0  0  0  0  0  0  0  0
   66.8390   30.6650   51.1880 C   0  0  0  0  0  0  0  0  0  0  0  0
   67.0410   32.9460   50.4720 C   0  0  0  0  0  0  0  0  0  0  0  0
   61.8440   34.2630   49.3010 C   0  0  0  0  0  0  0  0  0  0  0  0
   58.5900   28.0110   45.9080 C   0  0  0  0  0  0  0  0  0  0  0  0
   58.1060   32.1730   46.3060 N   0  0  0  0  0  0  0  0  0  0  0  0
   61.1260   33.4220   46.7780 C   0  0  0  0  0  0  0  0  0  0  0  0
   59.4050   27.1770   46.6460 C   0  0  0  0  0  0  0  0  0  0  0  0
   59.8170   27.6320   47.8820 C   0  0  0  0  0  0  0  0  0  0  0  0
   60.7020   26.7170   48.6760 C   0  0  0  0  0  0  0  0  0  0  0  0
   57.8663   30.5453   52.9585 H   0  0  0  0  0  0  0  0  0  0  0  0
   56.5995   29.3676   52.4739 H   0  0  0  0  0  0  0  0  0  0  0  0
   58.3279   28.8784   52.4739 H   0  0  0  0  0  0  0  0  0  0  0  0
   56.9146   33.0307   51.7094 H   0  0  0  0  0  0  0  0  0  0  0  0
   57.8824   31.9555   52.7445 H   0  0  0  0  0  0  0  0  0  0  0  0
   59.5956   33.1212   50.7146 H   0  0  0  0  0  0  0  0  0  0  0  0
   58.6418   34.4266   51.5497 H   0  0  0  0  0  0  0  0  0  0  0  0
   60.5412   34.2857   52.8211 H   0  0  0  0  0  0  0  0  0  0  0  0
   59.3473   33.2217   53.6930 H   0  0  0  0  0  0  0  0  0  0  0  0
   61.8413   32.4425   53.2735 H   0  0  0  0  0  0  0  0  0  0  0  0
   60.4658   31.3014   53.1809 H   0  0  0  0  0  0  0  0  0  0  0  0
   60.3507   32.1221   50.6786 H   0  0  0  0  0  0  0  0  0  0  0  0
   62.0863   32.5812   51.0109 H   0  0  0  0  0  0  0  0  0  0  0  0
   62.7902   30.4594   50.9302 H   0  0  0  0  0  0  0  0  0  0  0  0
   61.3989   29.8426   51.8573 H   0  0  0  0  0  0  0  0  0  0  0  0
   59.5170   28.8520   50.5710 H   0  0  0  0  0  0  0  0  0  0  0  0
   58.3314   30.6724   48.0310 H   0  0  0  0  0  0  0  0  0  0  0  0
   57.4620   31.1400   43.2950 H   0  0  0  0  0  0  0  0  0  0  0  0
   58.1653   33.3993   42.7040 H   0  0  0  0  0  0  0  0  0  0  0  0
   59.7742   34.8918   49.5455 H   0  0  0  0  0  0  0  0  0  0  0  0
   63.1728   32.7876   46.5068 H   0  0  0  0  0  0  0  0  0  0  0  0
   65.2718   33.9971   50.4749 H   0  0  0  0  0  0  0  0  0  0  0  0
   63.5696   33.5173   50.8784 H   0  0  0  0  0  0  0  0  0  0  0  0
   64.5717   31.5910   51.4793 H   0  0  0  0  0  0  0  0  0  0  0  0
   64.4177   31.2707   49.6918 H   0  0  0  0  0  0  0  0  0  0  0  0
   66.7073   30.9245   52.2488 H   0  0  0  0  0  0  0  0  0  0  0  0
   66.3083   29.7261   50.9716 H   0  0  0  0  0  0  0  0  0  0  0  0
   67.9101   30.5391   50.9716 H   0  0  0  0  0  0  0  0  0  0  0  0
   67.1887   33.1890   51.5346 H   0  0  0  0  0  0  0  0  0  0  0  0
   68.0194   32.8265   49.9837 H   0  0  0  0  0  0  0  0  0  0  0  0
   66.4845   33.7596   49.9837 H   0  0  0  0  0  0  0  0  0  0  0  0
   62.1531   34.5909   50.3044 H   0  0  0  0  0  0  0  0  0  0  0  0
   58.2423   27.6804   44.9181 H   0  0  0  0  0  0  0  0  0  0  0  0
   58.0790   31.8050   47.2800 H   0  0  0  0  0  0  0  0  0  0  0  0
   60.8290   33.0895   45.7724 H   0  0  0  0  0  0  0  0  0  0  0  0
   59.7130   26.1919   46.2654 H   0  0  0  0  0  0  0  0  0  0  0  0
   60.5367   26.8879   49.7500 H   0  0  0  0  0  0  0  0  0  0  0  0
   60.4635   25.6717   48.4301 H   0  0  0  0  0  0  0  0  0  0  0  0
   61.7547   26.9205   48.4301 H   0  0  0  0  0  0  0  0  0  0  0  0
  1  2  1  0
  2  3  1  0
  3  4  2  0
  3  5  1  0
  5  6  1  0
  6  7  1  0
  7  8  1  0
  8  9  1  0
  9 10  1  0
 10 11  1  0
 11 12  2  0
 11 13  1  0
 13 14  1  0
 14 15  2  0
 15 16  1  0
 16 17  1  0
 17 18  2  0
 18 19  1  0
 19 20  1  0
 20 21  2  0
 21 22  1  0
 21 23  1  0
 23 24  2  0
 24 25  1  0
 25 26  2  0
 26 27  1  0
 27 28  2  0
 28 29  1  0
 29 30  1  0
 30 31  1  0
 31 32  1  0
 32 33  1  0
 32 34  1  0
 28 35  1  0
 35 36  2  0
 23 37  1  0
 16 38  2  0
 38 39  1  0
 39 40  2  0
 40 41  1  0
 40 14  1  0
 37 18  1  0
 36 25  1  0
  1 42  1  0
  1 43  1  0
  1 44  1  0
  5 45  1  0
  5 46  1  0
  6 47  1  0
  6 48  1  0
  7 49  1  0
  7 50  1  0
  8 51  1  0
  8 52  1  0
  9 53  1  0
  9 54  1  0
 10 55  1  0
 10 56  1  0
 13 57  1  0
 15 58  1  0
 19 59  1  0
 20 60  1  0
 26 61  1  0
 27 62  1  0
 30 63  1  0
 30 64  1  0
 31 65  1  0
 31 66  1  0
 33 67  1  0
 33 68  1  0
 33 69  1  0
 34 70  1  0
 34 71  1  0
 34 72  1  0
 35 73  1  0
 36 74  1  0
 37 75  1  0
 38 76  1  0
 39 77  1  0
 41 78  1  0
 41 79  1  0
 41 80  1  0
M  END
>  <smiles>  (44) 
COC(=O)CCCCCCC(=O)Nc1cc(N=c2[nH]cc(F)c(=Nc3ccc(OCCN(C)C)cc3)[nH]2)ccc1C

>  <score_type>  (44) 
oracle

>  <origin>  (44) 
adg

>  <m_score__min__energy>  (44) 
-8.9700000000000006

>  <m_primary>  (44) 
energy

$$$$
44:0
     RDKit          3D

 52 56  0  0  0  0  0  0  0  0999 V2000
   58.8964   28.2126   45.9397 H   0  0  0  0  0  0  0  0  0  0  0  0
   58.7110   29.2710   46.1750 C   0  0  0  0  0  0  0  0  0  0  0  0
   58.3950   30.1380   45.1810 N   0  0  0  0  0  0  0  0  0  0  0  0
   58.1600   31.4540   45.4250 C   0  0  0  0  0  0  0  0  0  0  0  0
   57.8360   32.3080   44.3650 C   0  0  0  0  0  0  0  0  0  0  0  0
   57.7765   31.9126   43.3403 H   0  0  0  0  0  0  0  0  0  0  0  0
   57.5880   33.6610   44.6050 C   0  0  0  0  0  0  0  0  0  0  0  0
   57.3329   34.3286   43.7688 H   0  0  0  0  0  0  0  0  0  0  0  0
   57.6630   34.1690   45.9040 C   0  0  0  0  0  0  0  0  0  0  0  0
   57.4673   35.2358   46.0875 H   0  0  0  0  0  0  0  0  0  0  0  0
   57.9860   33.3260   46.9720 C   0  0  0  0  0  0  0  0  0  0  0  0
   58.0421   33.7325   47.9926 H   0  0  0  0  0  0  0  0  0  0  0  0
   58.2400   31.9580   46.7470 C   0  0  0  0  0  0  0  0  0  0  0  0
   58.5640   31.0710   47.7990 C   0  0  0  0  0  0  0  0  0  0  0  0
   58.6390   31.5200   49.0240 N   0  0  0  0  0  0  0  0  0  0  0  0
   59.7000   32.3220   49.5610 C   0  0  0  0  0  0  0  0  0  0  0  0
   60.7550   32.7020   48.7200 C   0  0  0  0  0  0  0  0  0  0  0  0
   60.7524   32.3919   47.6646 H   0  0  0  0  0  0  0  0  0  0  0  0
   61.8090   33.4720   49.2150 C   0  0  0  0  0  0  0  0  0  0  0  0
   62.6359   33.7638   48.5509 H   0  0  0  0  0  0  0  0  0  0  0  0
   61.8140   33.8720   50.5530 C   0  0  0  0  0  0  0  0  0  0  0  0
   62.6487   34.4724   50.9440 H   0  0  0  0  0  0  0  0  0  0  0  0
   60.7590   33.5100   51.3960 C   0  0  0  0  0  0  0  0  0  0  0  0
   60.7690   33.8259   52.4496 H   0  0  0  0  0  0  0  0  0  0  0  0
   59.6880   32.7470   50.9080 C   0  0  0  0  0  0  0  0  0  0  0  0
   58.3520   32.3430   51.9940 S   0  0  0  0  0  0  0  0  0  0  0  0
   57.3630   33.4730   51.9900 O   0  0  0  0  0  0  0  0  0  0  0  0
   58.8440   32.1270   53.3990 O   0  0  0  0  0  0  0  0  0  0  0  0
   57.5580   30.8950   51.4570 N   0  0  0  0  0  0  0  0  0  0  0  0
   57.9550   30.4260   50.6110 H   0  0  0  0  0  0  0  0  0  0  0  0
   56.4250   30.3010   52.1180 C   0  0  0  0  0  0  0  0  0  0  0  0
   56.4980   29.0350   52.7300 C   0  0  0  0  0  0  0  0  0  0  0  0
   57.4425   28.4715   52.7101 H   0  0  0  0  0  0  0  0  0  0  0  0
   55.3780   28.4910   53.3620 C   0  0  0  0  0  0  0  0  0  0  0  0
   55.4443   27.5013   53.8375 H   0  0  0  0  0  0  0  0  0  0  0  0
   54.1740   29.1980   53.3930 C   0  0  0  0  0  0  0  0  0  0  0  0
   53.2979   28.7675   53.9001 H   0  0  0  0  0  0  0  0  0  0  0  0
   54.0790   30.4560   52.7790 C   0  0  0  0  0  0  0  0  0  0  0  0
   52.7940   31.2330   52.8410 C   0  0  0  0  0  0  0  0  0  0  0  0
   53.0053   32.2594   53.1754 H   0  0  0  0  0  0  0  0  0  0  0  0
   52.1102   30.7418   53.5490 H   0  0  0  0  0  0  0  0  0  0  0  0
   52.1520   31.2750   51.4890 C   0  0  0  0  0  0  0  0  0  0  0  0
   52.2060   30.2700   50.5960 N   0  0  0  0  0  0  0  0  0  0  0  0
   51.4460   30.7230   49.5740 C   0  0  0  0  0  0  0  0  0  0  0  0
   51.2550   30.0550   48.5250 O   0  0  0  0  0  0  0  0  0  0  0  0
   50.9060   31.9450   49.7660 N   0  0  0  0  0  0  0  0  0  0  0  0
   51.3580   32.2770   50.9870 C   0  0  0  0  0  0  0  0  0  0  0  0
   51.0470   33.4700   51.6280 O   0  0  0  0  0  0  0  0  0  0  0  0
   55.2110   31.0050   52.1530 C   0  0  0  0  0  0  0  0  0  0  0  0
   55.1450   31.9982   51.6848 H   0  0  0  0  0  0  0  0  0  0  0  0
   58.8020   29.7150   47.4940 C   0  0  0  0  0  0  0  0  0  0  0  0
   59.0593   29.0076   48.2961 H   0  0  0  0  0  0  0  0  0  0  0  0
  1  2  1  0
  2  3  1  0
  3  4  1  0
  4  5  2  0
  5  6  1  0
  5  7  1  0
  7  8  1  0
  7  9  2  0
  9 10  1  0
  9 11  1  0
 11 12  1  0
 11 13  2  0
 13 14  1  0
 14 15  2  0
 15 16  1  0
 16 17  2  0
 17 18  1  0
 17 19  1  0
 19 20  1  0
 19 21  2  0
 21 22  1  0
 21 23  1  0
 23 24  1  0
 23 25  2  0
 25 26  1  0
 26 27  2  0
 26 28  2  0
 26 29  1  0
 29 30  1  0
 29 31  1  0
 31 32  2  0
 32 33  1  0
 32 34  1  0
 34 35  1  0
 34 36  2  0
 36 37  1  0
 36 38  1  0
 38 39  1  0
 39 40  1  0
 39 41  1  0
 39 42  1  0
 42 43  1  0
 43 44  1  0
 44 45  2  0
 44 46  1  0
 46 47  1  0
 47 48  1  0
 38 49  2  0
 49 50  1  0
 14 51  1  0
 51 52  1  0
 51  2  2  0
 13  4  1  0
 25 16  1  0
 49 31  1  0
 47 42  2  0
M  CHG  4   3  -1  43  -1  46  -1  48  -1
M  END
>  <UniqueID>  (45) 
39

>  <SMILES>  (45) 
O=c1[n-]c([O-])c(Cc2cccc(NS(=O)(=O)c3ccccc3/N=c3\cc[n-]c4ccccc34)c2)[n-]1

>  <Energy>  (45) 
105.01527503861098

>  <Genealogy>  (45) 
O=c1[n-]c([O-])c(Cc2cccc(NS(=O)(=O)c3ccccc3N=c3cc[n-]c4ccccc34)c2)[n-]1 (protonated)
O=c1[n-]c([O-])c(Cc2cccc(NS(=O)(=O)c3ccccc3/N=c3\cc[n-]c4ccccc34)c2)[n-]1 (cis-trans isomerization)
O=c1[n-]c([O-])c(Cc2cccc(NS(=O)(=O)c3ccccc3/N=c3\cc[n-]c4ccccc34)c2)[n-]1 (3D coordinates assigned)
O=c1[n-]c([O-])c(Cc2cccc(NS(=O)(=O)c3ccccc3/N=c3\cc[n-]c4ccccc34)c2)[n-]1 (optimized conformer: 105.01527503861098 kcal/mol)

>  <smiles>  (45) 
O=c1[nH]c(O)c(Cc2cccc(NS(=O)(=O)c3ccccc3N=c3cc[nH]c4ccccc34)c2)[nH]1

>  <score_type>  (45) 
oracle

>  <origin>  (45) 
adg

>  <m_score__min__energy>  (45) 
-21.109999999999999

>  <m_primary>  (45) 
energy

$$$$
45:0
     RDKit          3D

 35 37  0  0  0  0  0  0  0  0999 V2000
   55.2019   22.1505   45.8899 H   0  0  0  0  0  0  0  0  0  0  0  0
   55.7740   23.0900   45.8970 C   0  0  0  0  0  0  0  0  0  0  0  0
   55.1040   24.3140   45.9490 C   0  0  0  0  0  0  0  0  0  0  0  0
   54.0049   24.3365   45.9877 H   0  0  0  0  0  0  0  0  0  0  0  0
   55.8270   25.5120   45.9520 C   0  0  0  0  0  0  0  0  0  0  0  0
   55.1400   26.7210   45.9930 O   0  0  0  0  0  0  0  0  0  0  0  0
   57.2340   25.4880   45.9020 C   0  0  0  0  0  0  0  0  0  0  0  0
   58.0040   26.7610   45.9010 C   0  0  0  0  0  0  0  0  0  0  0  0
   58.0280   27.5400   44.8530 N   0  0  0  0  0  0  0  0  0  0  0  0
   57.7830   28.9560   44.8110 C   0  0  0  0  0  0  0  0  0  0  0  0
   56.6960   29.4310   44.0670 C   0  0  0  0  0  0  0  0  0  0  0  0
   56.0402   28.7209   43.5420 H   0  0  0  0  0  0  0  0  0  0  0  0
   56.4400   30.8030   43.9880 C   0  0  0  0  0  0  0  0  0  0  0  0
   55.5743   31.1676   43.4156 H   0  0  0  0  0  0  0  0  0  0  0  0
   57.2820   31.7130   44.6350 C   0  0  0  0  0  0  0  0  0  0  0  0
   57.0150   33.0750   44.5550 O   0  0  0  0  0  0  0  0  0  0  0  0
   58.3920   31.2490   45.3540 C   0  0  0  0  0  0  0  0  0  0  0  0
   59.4750   32.3760   46.1540 Cl  0  0  0  0  0  0  0  0  0  0  0  0
   58.6490   29.8750   45.4290 C   0  0  0  0  0  0  0  0  0  0  0  0
   59.5330   29.5126   45.9742 H   0  0  0  0  0  0  0  0  0  0  0  0
   58.8260   27.1300   47.0860 C   0  0  0  0  0  0  0  0  0  0  0  0
   59.9950   26.4130   47.4130 C   0  0  0  0  0  0  0  0  0  0  0  0
   60.3078   25.5651   46.7859 H   0  0  0  0  0  0  0  0  0  0  0  0
   60.7600   26.7700   48.5270 C   0  0  0  0  0  0  0  0  0  0  0  0
   61.6686   26.2011   48.7735 H   0  0  0  0  0  0  0  0  0  0  0  0
   60.3740   27.8470   49.3280 C   0  0  0  0  0  0  0  0  0  0  0  0
   61.1360   28.2000   50.4350 O   0  0  0  0  0  0  0  0  0  0  0  0
   59.2210   28.5710   49.0140 C   0  0  0  0  0  0  0  0  0  0  0  0
   58.9174   29.4198   49.6444 H   0  0  0  0  0  0  0  0  0  0  0  0
   58.4520   28.2190   47.9000 C   0  0  0  0  0  0  0  0  0  0  0  0
   57.5479   28.7965   47.6568 H   0  0  0  0  0  0  0  0  0  0  0  0
   57.9020   24.2480   45.8630 C   0  0  0  0  0  0  0  0  0  0  0  0
   59.2920   24.1920   45.8430 O   0  0  0  0  0  0  0  0  0  0  0  0
   57.1700   23.0570   45.8540 C   0  0  0  0  0  0  0  0  0  0  0  0
   57.6947   22.0911   45.8129 H   0  0  0  0  0  0  0  0  0  0  0  0
  1  2  1  0
  2  3  2  0
  3  4  1  0
  3  5  1  0
  5  6  1  0
  5  7  2  0
  7  8  1  0
  8  9  2  0
  9 10  1  0
 10 11  2  0
 11 12  1  0
 11 13  1  0
 13 14  1  0
 13 15  2  0
 15 16  1  0
 15 17  1  0
 17 18  1  0
 17 19  2  0
 19 20  1  0
  8 21  1  0
 21 22  2  0
 22 23  1  0
 22 24  1  0
 24 25  1  0
 24 26  2  0
 26 27  1  0
 26 28  1  0
 28 29  1  0
 28 30  2  0
 30 31  1  0
  7 32  1  0
 32 33  1  0
 32 34  2  0
 34 35  1  0
 34  2  1  0
 19 10  1  0
 30 21  1  0
M  CHG  4   6  -1  16  -1  27  -1  33  -1
M  END
>  <UniqueID>  (46) 
40

>  <SMILES>  (46) 
[O-]c1ccc(/C(=N/c2ccc([O-])c(Cl)c2)c2c([O-])cccc2[O-])cc1

>  <Energy>  (46) 
54.348896670218366

>  <Genealogy>  (46) 
[O-]c1ccc(C(=Nc2ccc([O-])c(Cl)c2)c2c([O-])cccc2[O-])cc1 (protonated)
[O-]c1ccc(/C(=N/c2ccc([O-])c(Cl)c2)c2c([O-])cccc2[O-])cc1 (cis-trans isomerization)
[O-]c1ccc(/C(=N/c2ccc([O-])c(Cl)c2)c2c([O-])cccc2[O-])cc1 (3D coordinates assigned)
[O-]c1ccc(/C(=N/c2ccc([O-])c(Cl)c2)c2c([O-])cccc2[O-])cc1 (optimized conformer: 54.348896670218366 kcal/mol)

>  <smiles>  (46) 
Oc1ccc(C(=Nc2ccc(O)c(Cl)c2)c2c(O)cccc2O)cc1

>  <score_type>  (46) 
oracle

>  <origin>  (46) 
adg

>  <m_score__min__energy>  (46) 
-13.609999999999999

>  <m_primary>  (46) 
energy

$$$$
46:0
     RDKit          3D

 19 20  0  0  0  0  0  0  0  0999 V2000
   56.3609   28.4807   42.8418 H   0  0  0  0  0  0  0  0  0  0  0  0
   56.6420   29.4390   43.3030 C   0  0  0  0  0  0  0  0  0  0  0  0
   56.3370   30.3858   42.8334 H   0  0  0  0  0  0  0  0  0  0  0  0
   57.3560   29.4530   44.4370 C   0  0  0  0  0  0  0  0  0  0  0  0
   57.7290   30.6650   45.0480 C   0  0  0  0  0  0  0  0  0  0  0  0
   57.4601   31.6492   44.6368 H   0  0  0  0  0  0  0  0  0  0  0  0
   58.4640   30.5110   46.2120 C   0  0  0  0  0  0  0  0  0  0  0  0
   58.8538   31.3234   46.8429 H   0  0  0  0  0  0  0  0  0  0  0  0
   58.6550   28.8700   46.4900 S   0  0  0  0  0  0  0  0  0  0  0  0
   57.8080   28.3150   45.1370 C   0  0  0  0  0  0  0  0  0  0  0  0
   57.6100   27.0230   44.8010 C   0  0  0  0  0  0  0  0  0  0  0  0
   57.8056   26.7341   43.7578 H   0  0  0  0  0  0  0  0  0  0  0  0
   57.1500   25.9650   45.7280 C   0  0  0  0  0  0  0  0  0  0  0  0
   57.8970   24.9510   46.2030 N   0  0  0  0  0  0  0  0  0  0  0  0
   57.0400   24.2700   46.9940 C   0  0  0  0  0  0  0  0  0  0  0  0
   57.3770   23.2350   47.6260 O   0  0  0  0  0  0  0  0  0  0  0  0
   55.7940   24.7850   47.0530 N   0  0  0  0  0  0  0  0  0  0  0  0
   55.8810   25.8550   46.2470 C   0  0  0  0  0  0  0  0  0  0  0  0
   54.8200   26.7160   45.9920 O   0  0  0  0  0  0  0  0  0  0  0  0
  1  2  1  0
  2  3  1  0
  2  4  2  0
  4  5  1  0
  5  6  1  0
  5  7  2  0
  7  8  1  0
  7  9  1  0
  9 10  1  0
 10 11  2  0
 11 12  1  0
 11 13  1  0
 13 14  1  0
 14 15  1  0
 15 16  2  0
 15 17  1  0
 17 18  1  0
 18 19  1  0
 10  4  1  0
 18 13  2  0
M  CHG  3  14  -1  17  -1  19  -1
M  END
>  <UniqueID>  (47) 
41

>  <SMILES>  (47) 
C=c1ccs/c1=C\c1[n-]c(=O)[n-]c1[O-]

>  <Energy>  (47) 
79.8093535233457

>  <Genealogy>  (47) 
C=c1ccsc1=Cc1[n-]c(=O)[n-]c1[O-] (protonated)
C=c1ccs/c1=C\c1[n-]c(=O)[n-]c1[O-] (cis-trans isomerization)
C=c1ccs/c1=C\c1[n-]c(=O)[n-]c1[O-] (3D coordinates assigned)
C=c1ccs/c1=C\c1[n-]c(=O)[n-]c1[O-] (optimized conformer: 79.8093535233457 kcal/mol)

>  <smiles>  (47) 
C=c1ccsc1=Cc1[nH]c(=O)[nH]c1O

>  <score_type>  (47) 
oracle

>  <origin>  (47) 
adg

>  <m_score__min__energy>  (47) 
-14.859999999999999

>  <m_primary>  (47) 
energy

$$$$
47:0
     RDKit          3D

 45 47  0  0  0  0  0  0  0  0999 V2000
   63.7050   33.4130   47.0940 C   0  0  0  0  0  0  0  0  0  0  0  0
   63.0600   32.5890   48.1800 C   0  0  0  0  0  0  0  0  0  0  0  0
   63.8850   32.0190   49.1660 C   0  0  0  0  0  0  0  0  0  0  0  0
   63.3430   31.2160   50.1700 C   0  0  0  0  0  0  0  0  0  0  0  0
   61.9730   30.9740   50.2070 C   0  0  0  0  0  0  0  0  0  0  0  0
   61.1350   31.5420   49.2470 C   0  0  0  0  0  0  0  0  0  0  0  0
   61.6560   32.3670   48.2300 C   0  0  0  0  0  0  0  0  0  0  0  0
   60.7160   32.9730   47.2530 C   0  0  0  0  0  0  0  0  0  0  0  0
   60.7570   34.2680   46.8640 N   0  0  0  0  0  0  0  0  0  0  0  0
   59.7730   34.5810   45.9780 C   0  0  0  0  0  0  0  0  0  0  0  0
   59.6370   35.9630   45.4230 C   0  0  0  0  0  0  0  0  0  0  0  0
   58.9180   33.5230   45.6600 C   0  0  0  0  0  0  0  0  0  0  0  0
   57.7690   33.5410   44.6910 C   0  0  0  0  0  0  0  0  0  0  0  0
   57.5490   32.1730   44.0380 C   0  0  0  0  0  0  0  0  0  0  0  0
   56.4990   31.4250   44.7360 N   0  0  0  0  0  0  0  0  0  0  0  0
   56.6570   29.7310   44.3910 S   0  0  0  0  0  0  0  0  0  0  0  0
   56.7760   29.5340   42.9070 O   0  0  0  0  0  0  0  0  0  0  0  0
   55.4360   29.0010   44.8790 O   0  0  0  0  0  0  0  0  0  0  0  0
   58.1030   29.0940   45.1680 C   0  0  0  0  0  0  0  0  0  0  0  0
   57.9840   28.3650   46.3600 C   0  0  0  0  0  0  0  0  0  0  0  0
   59.1230   27.8410   46.9800 C   0  0  0  0  0  0  0  0  0  0  0  0
   60.3840   28.0420   46.4110 C   0  0  0  0  0  0  0  0  0  0  0  0
   60.5080   28.7670   45.2220 C   0  0  0  0  0  0  0  0  0  0  0  0
   59.3710   29.2930   44.6010 C   0  0  0  0  0  0  0  0  0  0  0  0
   59.4310   32.1680   46.5130 S   0  0  0  0  0  0  0  0  0  0  0  0
   64.3221   34.2014   47.5496 H   0  0  0  0  0  0  0  0  0  0  0  0
   64.3389   32.7657   46.4702 H   0  0  0  0  0  0  0  0  0  0  0  0
   62.9244   33.8729   46.4702 H   0  0  0  0  0  0  0  0  0  0  0  0
   64.9684   32.2081   49.1455 H   0  0  0  0  0  0  0  0  0  0  0  0
   63.9996   30.7735   50.9336 H   0  0  0  0  0  0  0  0  0  0  0  0
   61.5499   30.3335   50.9949 H   0  0  0  0  0  0  0  0  0  0  0  0
   60.0537   31.3434   49.2843 H   0  0  0  0  0  0  0  0  0  0  0  0
   59.5660   36.6849   46.2500 H   0  0  0  0  0  0  0  0  0  0  0  0
   60.5163   36.1983   44.8054 H   0  0  0  0  0  0  0  0  0  0  0  0
   58.7287   36.0224   44.8054 H   0  0  0  0  0  0  0  0  0  0  0  0
   56.8542   33.8288   45.2299 H   0  0  0  0  0  0  0  0  0  0  0  0
   58.0057   34.2634   43.8959 H   0  0  0  0  0  0  0  0  0  0  0  0
   57.2517   32.3179   42.9889 H   0  0  0  0  0  0  0  0  0  0  0  0
   58.4866   31.6005   44.0950 H   0  0  0  0  0  0  0  0  0  0  0  0
   56.6530   31.5290   45.7650 H   0  0  0  0  0  0  0  0  0  0  0  0
   56.9924   28.2049   46.8085 H   0  0  0  0  0  0  0  0  0  0  0  0
   59.0265   27.2706   47.9156 H   0  0  0  0  0  0  0  0  0  0  0  0
   61.2793   27.6295   46.8991 H   0  0  0  0  0  0  0  0  0  0  0  0
   61.5007   28.9237   44.7748 H   0  0  0  0  0  0  0  0  0  0  0  0
   59.4707   29.8640   43.6661 H   0  0  0  0  0  0  0  0  0  0  0  0
  1  2  1  0
  2  3  2  0
  3  4  1  0
  4  5  2  0
  5  6  1  0
  6  7  2  0
  7  8  1  0
  8  9  2  0
  9 10  1  0
 10 11  1  0
 10 12  2  0
 12 13  1  0
 13 14  1  0
 14 15  1  0
 15 16  1  0
 16 17  2  0
 16 18  2  0
 16 19  1  0
 19 20  2  0
 20 21  1  0
 21 22  2  0
 22 23  1  0
 23 24  2  0
 12 25  1  0
  7  2  1  0
 25  8  1  0
 24 19  1  0
  1 26  1  0
  1 27  1  0
  1 28  1  0
  3 29  1  0
  4 30  1  0
  5 31  1  0
  6 32  1  0
 11 33  1  0
 11 34  1  0
 11 35  1  0
 13 36  1  0
 13 37  1  0
 14 38  1  0
 14 39  1  0
 15 40  1  0
 20 41  1  0
 21 42  1  0
 22 43  1  0
 23 44  1  0
 24 45  1  0
M  END
>  <UniqueID>  (48) 
42

>  <SMILES>  (48) 
Cc1ccccc1-c1nc(C)c(CCNS(=O)(=O)c2ccccc2)s1

>  <Energy>  (48) 
74.7612122252151

>  <Genealogy>  (48) 
Cc1ccccc1-c1nc(C)c(CCNS(=O)(=O)c2ccccc2)s1 (3D coordinates assigned)
Cc1ccccc1-c1nc(C)c(CCNS(=O)(=O)c2ccccc2)s1 (optimized conformer: 74.7612122252151 kcal/mol)

>  <smiles>  (48) 
Cc1ccccc1-c1nc(C)c(CCNS(=O)(=O)c2ccccc2)s1

>  <score_type>  (48) 
oracle

>  <origin>  (48) 
adg

>  <m_score__min__energy>  (48) 
-9.8800000000000008

>  <m_primary>  (48) 
energy

$$$$
48:0
     RDKit          3D

 54 56  0  0  0  0  0  0  0  0999 V2000
   65.4090   33.4530   50.7640 C   0  0  0  0  0  0  0  0  0  0  0  0
   65.1770   32.7880   49.4100 C   0  0  0  0  0  0  0  0  0  0  0  0
   63.8720   33.1970   48.8520 N   0  0  0  0  0  0  0  0  0  0  0  0
   62.9580   33.7390   49.8910 C   0  0  0  0  0  0  0  0  0  0  0  0
   61.9030   32.7130   50.3400 C   0  0  0  0  0  0  0  0  0  0  0  0
   61.0900   32.2000   49.2120 N   0  0  0  0  0  0  0  0  0  0  0  0
   59.5340   32.9880   49.1460 S   0  0  0  0  0  0  0  0  0  0  0  0
   59.4600   34.0730   50.1840 O   0  0  0  0  0  0  0  0  0  0  0  0
   58.4420   31.9870   49.4110 O   0  0  0  0  0  0  0  0  0  0  0  0
   59.3240   33.7140   47.5570 C   0  0  0  0  0  0  0  0  0  0  0  0
   59.9300   34.9370   47.2370 C   0  0  0  0  0  0  0  0  0  0  0  0
   59.7270   35.5110   45.9790 C   0  0  0  0  0  0  0  0  0  0  0  0
   58.9180   34.8700   45.0370 C   0  0  0  0  0  0  0  0  0  0  0  0
   58.3090   33.6430   45.3460 C   0  0  0  0  0  0  0  0  0  0  0  0
   57.4080   32.9600   44.3550 C   0  0  0  0  0  0  0  0  0  0  0  0
   57.0580   31.6250   44.8360 N   0  0  0  0  0  0  0  0  0  0  0  0
   57.9410   30.5030   44.6860 C   0  0  0  0  0  0  0  0  0  0  0  0
   59.0530   30.6540   44.1090 O   0  0  0  0  0  0  0  0  0  0  0  0
   57.5530   29.1540   45.1660 C   0  0  0  0  0  0  0  0  0  0  0  0
   58.5440   28.2800   45.6370 C   0  0  0  0  0  0  0  0  0  0  0  0
   58.2070   26.9990   46.0700 C   0  0  0  0  0  0  0  0  0  0  0  0
   56.8690   26.5940   46.0420 C   0  0  0  0  0  0  0  0  0  0  0  0
   56.4770   25.2340   46.5200 C   0  0  0  0  0  0  0  0  0  0  0  0
   55.9130   27.4640   45.6210 N   0  0  0  0  0  0  0  0  0  0  0  0
   56.2100   28.7170   45.1890 C   0  0  0  0  0  0  0  0  0  0  0  0
   55.2740   29.4800   44.8350 O   0  0  0  0  0  0  0  0  0  0  0  0
   58.5170   33.0710   46.6110 C   0  0  0  0  0  0  0  0  0  0  0  0
   61.7610   32.2950   47.9010 C   0  0  0  0  0  0  0  0  0  0  0  0
   63.2730   32.1100   48.0460 C   0  0  0  0  0  0  0  0  0  0  0  0
   65.1617   32.7440   51.5679 H   0  0  0  0  0  0  0  0  0  0  0  0
   66.4643   33.7513   50.8500 H   0  0  0  0  0  0  0  0  0  0  0  0
   64.7682   34.3430   50.8500 H   0  0  0  0  0  0  0  0  0  0  0  0
   65.9773   33.0876   48.7173 H   0  0  0  0  0  0  0  0  0  0  0  0
   65.1815   31.6961   49.5434 H   0  0  0  0  0  0  0  0  0  0  0  0
   63.5550   34.0370   50.7655 H   0  0  0  0  0  0  0  0  0  0  0  0
   62.4257   34.5966   49.4538 H   0  0  0  0  0  0  0  0  0  0  0  0
   62.4167   31.8658   50.8179 H   0  0  0  0  0  0  0  0  0  0  0  0
   61.2211   33.2204   51.0382 H   0  0  0  0  0  0  0  0  0  0  0  0
   60.5659   35.4453   47.9768 H   0  0  0  0  0  0  0  0  0  0  0  0
   60.2052   36.4697   45.7298 H   0  0  0  0  0  0  0  0  0  0  0  0
   58.7577   35.3282   44.0499 H   0  0  0  0  0  0  0  0  0  0  0  0
   56.4906   33.5534   44.2272 H   0  0  0  0  0  0  0  0  0  0  0  0
   57.9317   32.8713   43.3917 H   0  0  0  0  0  0  0  0  0  0  0  0
   56.0770   31.4690   45.1580 H   0  0  0  0  0  0  0  0  0  0  0  0
   59.5936   28.6078   45.6647 H   0  0  0  0  0  0  0  0  0  0  0  0
   58.9870   26.3123   46.4307 H   0  0  0  0  0  0  0  0  0  0  0  0
   56.4727   25.2191   47.6199 H   0  0  0  0  0  0  0  0  0  0  0  0
   55.4718   24.9895   46.1460 H   0  0  0  0  0  0  0  0  0  0  0  0
   57.1978   24.4920   46.1460 H   0  0  0  0  0  0  0  0  0  0  0  0
   58.0424   32.1106   46.8607 H   0  0  0  0  0  0  0  0  0  0  0  0
   61.3648   31.5132   47.2363 H   0  0  0  0  0  0  0  0  0  0  0  0
   61.5681   33.2925   47.4793 H   0  0  0  0  0  0  0  0  0  0  0  0
   63.4706   31.1470   48.5396 H   0  0  0  0  0  0  0  0  0  0  0  0
   63.7237   32.1323   47.0428 H   0  0  0  0  0  0  0  0  0  0  0  0
  1  2  1  0
  2  3  1  0
  3  4  1  0
  4  5  1  0
  5  6  1  0
  6  7  1  0
  7  8  2  0
  7  9  2  0
  7 10  1  0
 10 11  2  0
 11 12  1  0
 12 13  2  0
 13 14  1  0
 14 15  1  0
 15 16  1  0
 16 17  1  0
 17 18  2  0
 17 19  1  0
 19 20  2  0
 20 21  1  0
 21 22  2  0
 22 23  1  0
 22 24  1  0
 24 25  1  0
 25 26  2  0
 14 27  2  0
  6 28  1  0
 28 29  1  0
 29  3  1  0
 27 10  1  0
 25 19  1  0
  1 30  1  0
  1 31  1  0
  1 32  1  0
  2 33  1  0
  2 34  1  0
  4 35  1  0
  4 36  1  0
  5 37  1  0
  5 38  1  0
 11 39  1  0
 12 40  1  0
 13 41  1  0
 15 42  1  0
 15 43  1  0
 16 44  1  0
 20 45  1  0
 21 46  1  0
 23 47  1  0
 23 48  1  0
 23 49  1  0
 27 50  1  0
 28 51  1  0
 28 52  1  0
 29 53  1  0
 29 54  1  0
M  CHG  1  24  -1
M  END
>  <UniqueID>  (49) 
43

>  <SMILES>  (49) 
CCN1CCN(S(=O)(=O)c2cccc(CNC(=O)c3ccc(C)[n-]c3=O)c2)CC1

>  <Energy>  (49) 
65.80695011926986

>  <Genealogy>  (49) 
CCN1CCN(S(=O)(=O)c2cccc(CNC(=O)c3ccc(C)[n-]c3=O)c2)CC1 (protonated)
CCN1CCN(S(=O)(=O)c2cccc(CNC(=O)c3ccc(C)[n-]c3=O)c2)CC1 (3D coordinates assigned)
CCN1CCN(S(=O)(=O)c2cccc(CNC(=O)c3ccc(C)[n-]c3=O)c2)CC1 (nonaromatic ring conformer: 65.80695011926986 kcal/mol)

>  <smiles>  (49) 
CCN1CCN(S(=O)(=O)c2cccc(CNC(=O)c3ccc(C)[nH]c3=O)c2)CC1

>  <score_type>  (49) 
oracle

>  <origin>  (49) 
adg

>  <m_score__min__energy>  (49) 
-11.220000000000001

>  <m_primary>  (49) 
energy

$$$$
49:0
     RDKit          3D

 55 56  0  0  0  0  0  0  0  0999 V2000
   60.1760   34.2110   45.8670 C   0  0  0  0  0  0  0  0  0  0  0  0
   58.8170   34.8550   45.7440 C   0  0  0  0  0  0  0  0  0  0  0  0
   57.6760   33.9040   45.8770 C   0  0  0  0  0  0  0  0  0  0  0  0
   57.5980   32.8610   44.8370 C   0  0  0  0  0  0  0  0  0  0  0  0
   58.1540   32.9500   43.5880 C   0  0  0  0  0  0  0  0  0  0  0  0
   58.0400   31.9190   42.6930 C   0  0  0  0  0  0  0  0  0  0  0  0
   58.5500   31.9840   41.5270 O   0  0  0  0  0  0  0  0  0  0  0  0
   57.3650   30.8030   43.0730 N   0  0  0  0  0  0  0  0  0  0  0  0
   56.8130   30.6830   44.2790 C   0  0  0  0  0  0  0  0  0  0  0  0
   55.9180   29.2590   44.8620 S   0  0  0  0  0  0  0  0  0  0  0  0
   57.0160   27.9100   45.2780 C   0  0  0  0  0  0  0  0  0  0  0  0
   58.3570   27.9890   44.6920 C   0  0  0  0  0  0  0  0  0  0  0  0
   58.3610   28.2180   43.4120 O   0  0  0  0  0  0  0  0  0  0  0  0
   59.6100   27.8530   45.2960 N   0  0  0  0  0  0  0  0  0  0  0  0
   60.1070   26.7230   46.0450 C   0  0  0  0  0  0  0  0  0  0  0  0
   59.8100   26.8140   47.5380 C   0  0  0  0  0  0  0  0  0  0  0  0
   60.5250   28.9970   45.2030 C   0  0  0  0  0  0  0  0  0  0  0  0
   60.2760   30.0700   46.1590 C   0  0  0  0  0  0  0  0  0  0  0  0
   59.0560   30.4470   46.2930 O   0  0  0  0  0  0  0  0  0  0  0  0
   61.2170   30.7420   46.9530 N   0  0  0  0  0  0  0  0  0  0  0  0
   60.8710   31.7870   47.8840 C   0  0  0  0  0  0  0  0  0  0  0  0
   59.5840   31.9700   48.3370 C   0  0  0  0  0  0  0  0  0  0  0  0
   59.3210   32.9980   49.2290 C   0  0  0  0  0  0  0  0  0  0  0  0
   60.3540   33.8130   49.6430 C   0  0  0  0  0  0  0  0  0  0  0  0
   61.6430   33.6300   49.1900 C   0  0  0  0  0  0  0  0  0  0  0  0
   61.9250   32.6120   48.3010 C   0  0  0  0  0  0  0  0  0  0  0  0
   63.1900   32.3720   47.8080 O   0  0  0  0  0  0  0  0  0  0  0  0
   63.7130   33.2010   46.7930 C   0  0  0  0  0  0  0  0  0  0  0  0
   56.9440   31.7190   45.1370 N   0  0  0  0  0  0  0  0  0  0  0  0
   60.4298   34.0907   46.9305 H   0  0  0  0  0  0  0  0  0  0  0  0
   60.1598   33.2248   45.3801 H   0  0  0  0  0  0  0  0  0  0  0  0
   60.9291   34.8480   45.3801 H   0  0  0  0  0  0  0  0  0  0  0  0
   58.7241   35.6177   46.5312 H   0  0  0  0  0  0  0  0  0  0  0  0
   58.7586   35.2793   44.7308 H   0  0  0  0  0  0  0  0  0  0  0  0
   57.7626   33.4043   46.8531 H   0  0  0  0  0  0  0  0  0  0  0  0
   56.7632   34.5084   45.7696 H   0  0  0  0  0  0  0  0  0  0  0  0
   58.6990   33.8611   43.3001 H   0  0  0  0  0  0  0  0  0  0  0  0
   57.3020   30.0550   42.3700 H   0  0  0  0  0  0  0  0  0  0  0  0
   57.1245   27.8856   46.3724 H   0  0  0  0  0  0  0  0  0  0  0  0
   56.5548   27.0031   44.8598 H   0  0  0  0  0  0  0  0  0  0  0  0
   59.6389   25.8090   45.6506 H   0  0  0  0  0  0  0  0  0  0  0  0
   61.2009   26.7101   45.9296 H   0  0  0  0  0  0  0  0  0  0  0  0
   60.7094   26.5384   48.1082 H   0  0  0  0  0  0  0  0  0  0  0  0
   59.5163   27.8433   47.7914 H   0  0  0  0  0  0  0  0  0  0  0  0
   58.9901   26.1259   47.7914 H   0  0  0  0  0  0  0  0  0  0  0  0
   61.5487   28.6281   45.3643 H   0  0  0  0  0  0  0  0  0  0  0  0
   60.3677   29.4337   44.2058 H   0  0  0  0  0  0  0  0  0  0  0  0
   62.2190   30.5150   46.8880 H   0  0  0  0  0  0  0  0  0  0  0  0
   58.7742   31.3086   47.9953 H   0  0  0  0  0  0  0  0  0  0  0  0
   58.2995   33.1621   49.6027 H   0  0  0  0  0  0  0  0  0  0  0  0
   60.1443   34.6281   50.3513 H   0  0  0  0  0  0  0  0  0  0  0  0
   62.4473   34.2954   49.5370 H   0  0  0  0  0  0  0  0  0  0  0  0
   64.2470   34.0474   47.2497 H   0  0  0  0  0  0  0  0  0  0  0  0
   64.4095   32.6217   46.1690 H   0  0  0  0  0  0  0  0  0  0  0  0
   62.8903   33.5802   46.1690 H   0  0  0  0  0  0  0  0  0  0  0  0
  1  2  1  0
  2  3  1  0
  3  4  1  0
  4  5  2  0
  5  6  1  0
  6  7  2  0
  6  8  1  0
  8  9  1  0
  9 10  1  0
 10 11  1  0
 11 12  1  0
 12 13  2  0
 12 14  1  0
 14 15  1  0
 15 16  1  0
 14 17  1  0
 17 18  1  0
 18 19  2  0
 18 20  1  0
 20 21  1  0
 21 22  2  0
 22 23  1  0
 23 24  2  0
 24 25  1  0
 25 26  2  0
 26 27  1  0
 27 28  1  0
  9 29  2  0
 29  4  1  0
 26 21  1  0
  1 30  1  0
  1 31  1  0
  1 32  1  0
  2 33  1  0
  2 34  1  0
  3 35  1  0
  3 36  1  0
  5 37  1  0
  8 38  1  0
 11 39  1  0
 11 40  1  0
 15 41  1  0
 15 42  1  0
 16 43  1  0
 16 44  1  0
 16 45  1  0
 17 46  1  0
 17 47  1  0
 20 48  1  0
 22 49  1  0
 23 50  1  0
 24 51  1  0
 25 52  1  0
 28 53  1  0
 28 54  1  0
 28 55  1  0
M  END
>  <smiles>  (50) 
CCCc1cc(=O)[nH]c(SCC(=O)N(CC)CC(=O)Nc2ccccc2OC)n1

>  <score_type>  (50) 
oracle

>  <origin>  (50) 
adg

>  <m_score__min__energy>  (50) 
-6.9699999999999998

>  <m_primary>  (50) 
energy

$$$$
50:0
     RDKit          3D

 51 53  0  0  0  0  0  0  0  0999 V2000
   58.7850   30.1740   46.0660 C   0  0  0  0  0  0  0  0  0  0  0  0
   58.6490   31.6110   45.6160 C   0  0  0  0  0  0  0  0  0  0  0  0
   59.5460   32.6050   46.0940 C   0  0  0  0  0  0  0  0  0  0  0  0
   60.7280   32.2650   46.9180 C   0  0  0  0  0  0  0  0  0  0  0  0
   61.1780   31.0880   46.8980 O   0  0  0  0  0  0  0  0  0  0  0  0
   61.3850   33.2770   47.7010 N   0  0  0  0  0  0  0  0  0  0  0  0
   62.4600   33.0000   48.6130 C   0  0  0  0  0  0  0  0  0  0  0  0
   63.7720   33.4100   48.3130 C   0  0  0  0  0  0  0  0  0  0  0  0
   64.8300   33.0780   49.1630 C   0  0  0  0  0  0  0  0  0  0  0  0
   64.5940   32.3210   50.3120 C   0  0  0  0  0  0  0  0  0  0  0  0
   63.2990   31.8950   50.6140 C   0  0  0  0  0  0  0  0  0  0  0  0
   62.2280   32.2310   49.7740 C   0  0  0  0  0  0  0  0  0  0  0  0
   60.9040   31.8020   50.1280 N   0  0  0  0  0  0  0  0  0  0  0  0
   60.6500   30.4030   50.4740 C   0  0  0  0  0  0  0  0  0  0  0  0
   59.2530   29.9640   50.0050 C   0  0  0  0  0  0  0  0  0  0  0  0
   58.1960   30.9630   50.2630 N   0  0  0  0  0  0  0  0  0  0  0  0
   57.4740   30.8570   51.8590 S   0  0  0  0  0  0  0  0  0  0  0  0
   58.6280   31.0550   53.2030 C   0  0  0  0  0  0  0  0  0  0  0  0
   56.8410   29.5010   51.9960 O   0  0  0  0  0  0  0  0  0  0  0  0
   56.3990   31.8970   52.0070 O   0  0  0  0  0  0  0  0  0  0  0  0
   58.5420   32.3310   49.8370 C   0  0  0  0  0  0  0  0  0  0  0  0
   59.8750   32.7980   50.4160 C   0  0  0  0  0  0  0  0  0  0  0  0
   59.3300   33.9500   45.7570 C   0  0  0  0  0  0  0  0  0  0  0  0
   58.2590   34.3170   44.9490 C   0  0  0  0  0  0  0  0  0  0  0  0
   57.4030   33.3450   44.4360 C   0  0  0  0  0  0  0  0  0  0  0  0
   57.5970   31.9880   44.7380 C   0  0  0  0  0  0  0  0  0  0  0  0
   56.7300   31.0110   44.1350 N   0  0  0  0  0  0  0  0  0  0  0  0
   55.8810   30.4120   44.8290 O   0  0  0  0  0  0  0  0  0  0  0  0
   56.6880   30.8670   42.7680 O   0  0  0  0  0  0  0  0  0  0  0  0
   58.7889   30.1328   47.1652 H   0  0  0  0  0  0  0  0  0  0  0  0
   57.9384   29.5872   45.6801 H   0  0  0  0  0  0  0  0  0  0  0  0
   59.7267   29.7565   45.6801 H   0  0  0  0  0  0  0  0  0  0  0  0
   61.0810   34.2710   47.5920 H   0  0  0  0  0  0  0  0  0  0  0  0
   63.9662   33.9962   47.4027 H   0  0  0  0  0  0  0  0  0  0  0  0
   65.8505   33.4136   48.9265 H   0  0  0  0  0  0  0  0  0  0  0  0
   65.4284   32.0601   50.9796 H   0  0  0  0  0  0  0  0  0  0  0  0
   63.1181   31.2923   51.5162 H   0  0  0  0  0  0  0  0  0  0  0  0
   61.4076   29.7694   49.9896 H   0  0  0  0  0  0  0  0  0  0  0  0
   60.7015   30.2977   51.5677 H   0  0  0  0  0  0  0  0  0  0  0  0
   59.2943   29.7747   48.9222 H   0  0  0  0  0  0  0  0  0  0  0  0
   58.9902   29.0639   50.5802 H   0  0  0  0  0  0  0  0  0  0  0  0
   58.0947   30.9635   54.1607 H   0  0  0  0  0  0  0  0  0  0  0  0
   59.4026   30.2766   53.1389 H   0  0  0  0  0  0  0  0  0  0  0  0
   59.0989   32.0471   53.1389 H   0  0  0  0  0  0  0  0  0  0  0  0
   58.6056   32.3542   48.7391 H   0  0  0  0  0  0  0  0  0  0  0  0
   57.7582   33.0076   50.2083 H   0  0  0  0  0  0  0  0  0  0  0  0
   60.1565   33.7589   49.9606 H   0  0  0  0  0  0  0  0  0  0  0  0
   59.7792   32.9235   51.5046 H   0  0  0  0  0  0  0  0  0  0  0  0
   60.0152   34.7225   46.1360 H   0  0  0  0  0  0  0  0  0  0  0  0
   58.0874   35.3779   44.7144 H   0  0  0  0  0  0  0  0  0  0  0  0
   56.5663   33.6440   43.7875 H   0  0  0  0  0  0  0  0  0  0  0  0
  1  2  1  0
  2  3  2  0
  3  4  1  0
  4  5  2  0
  4  6  1  0
  6  7  1  0
  7  8  2  0
  8  9  1  0
  9 10  2  0
 10 11  1  0
 11 12  2  0
 12 13  1  0
 13 14  1  0
 14 15  1  0
 15 16  1  0
 16 17  1  0
 17 18  1  0
 17 19  2  0
 17 20  2  0
 16 21  1  0
 21 22  1  0
  3 23  1  0
 23 24  2  0
 24 25  1  0
 25 26  2  0
 26 27  1  0
 27 28  2  0
 27 29  1  0
 26  2  1  0
 12  7  1  0
 22 13  1  0
  1 30  1  0
  1 31  1  0
  1 32  1  0
  6 33  1  0
  8 34  1  0
  9 35  1  0
 10 36  1  0
 11 37  1  0
 14 38  1  0
 14 39  1  0
 15 40  1  0
 15 41  1  0
 18 42  1  0
 18 43  1  0
 18 44  1  0
 21 45  1  0
 21 46  1  0
 22 47  1  0
 22 48  1  0
 23 49  1  0
 24 50  1  0
 25 51  1  0
M  CHG  2  27   1  29  -1
M  END
>  <UniqueID>  (51) 
44

>  <SMILES>  (51) 
Cc1c(C(=O)Nc2ccccc2N2CCN(S(C)(=O)=O)CC2)cccc1[N+](=O)[O-]

>  <Energy>  (51) 
72.73940133322277

>  <Genealogy>  (51) 
Cc1c(C(=O)Nc2ccccc2N2CCN(S(C)(=O)=O)CC2)cccc1[N+](=O)[O-] (3D coordinates assigned)
Cc1c(C(=O)Nc2ccccc2N2CCN(S(C)(=O)=O)CC2)cccc1[N+](=O)[O-] (nonaromatic ring conformer: 72.73940133322277 kcal/mol)

>  <smiles>  (51) 
Cc1c(C(=O)Nc2ccccc2N2CCN(S(C)(=O)=O)CC2)cccc1[N+](=O)[O-]

>  <score_type>  (51) 
oracle

>  <origin>  (51) 
adg

>  <m_score__min__energy>  (51) 
-8.6999999999999993

>  <m_primary>  (51) 
energy

$$$$
51:0
     RDKit          3D

 47 49  0  0  0  0  0  0  0  0999 V2000
   54.3790   27.0990   46.3610 H   0  0  0  0  0  0  0  0  0  0  0  0
   55.2320   26.8420   45.8790 O   0  0  0  0  0  0  0  0  0  0  0  0
   56.1010   25.9080   46.4300 C   0  0  0  0  0  0  0  0  0  0  0  0
   55.7060   24.7540   46.9940 N   0  0  0  0  0  0  0  0  0  0  0  0
   56.8780   24.1830   47.3470 C   0  0  0  0  0  0  0  0  0  0  0  0
   56.9430   23.0620   47.9150 O   0  0  0  0  0  0  0  0  0  0  0  0
   57.9760   24.9040   47.0350 N   0  0  0  0  0  0  0  0  0  0  0  0
   57.4680   26.0170   46.4790 C   0  0  0  0  0  0  0  0  0  0  0  0
   58.2720   27.0720   45.8470 C   0  0  0  0  0  0  0  0  0  0  0  0
   59.2469   26.7706   45.4362 H   0  0  0  0  0  0  0  0  0  0  0  0
   57.9370   28.3720   45.7190 C   0  0  0  0  0  0  0  0  0  0  0  0
   57.0530   28.8090   44.7600 C   0  0  0  0  0  0  0  0  0  0  0  0
   56.5459   28.1673   44.0244 H   0  0  0  0  0  0  0  0  0  0  0  0
   56.9050   30.1360   44.8600 N   0  0  0  0  0  0  0  0  0  0  0  0
   57.6850   30.5090   45.8980 C   0  0  0  0  0  0  0  0  0  0  0  0
   57.7460   31.8190   46.2320 C   0  0  0  0  0  0  0  0  0  0  0  0
   57.5036   32.0475   47.2803 H   0  0  0  0  0  0  0  0  0  0  0  0
   58.0960   33.0070   45.3820 C   0  0  0  0  0  0  0  0  0  0  0  0
   57.2443   33.2456   44.7280 H   0  0  0  0  0  0  0  0  0  0  0  0
   58.9839   32.7605   44.7812 H   0  0  0  0  0  0  0  0  0  0  0  0
   58.4170   34.2270   46.2540 C   0  0  0  0  0  0  0  0  0  0  0  0
   58.1981   33.9852   47.3045 H   0  0  0  0  0  0  0  0  0  0  0  0
   57.7989   35.0712   45.9145 H   0  0  0  0  0  0  0  0  0  0  0  0
   59.8860   34.6210   46.1290 C   0  0  0  0  0  0  0  0  0  0  0  0
   60.3210   34.7377   47.1326 H   0  0  0  0  0  0  0  0  0  0  0  0
   60.4306   33.8372   45.5822 H   0  0  0  0  0  0  0  0  0  0  0  0
   59.9653   35.5721   45.5822 H   0  0  0  0  0  0  0  0  0  0  0  0
   58.3330   29.4420   46.4720 N   0  0  0  0  0  0  0  0  0  0  0  0
   59.0760   29.3950   47.7440 C   0  0  0  0  0  0  0  0  0  0  0  0
   58.3644   29.5467   48.5690 H   0  0  0  0  0  0  0  0  0  0  0  0
   59.5696   28.4133   47.7951 H   0  0  0  0  0  0  0  0  0  0  0  0
   60.1610   30.4460   47.8470 C   0  0  0  0  0  0  0  0  0  0  0  0
   61.3190   30.4210   47.0490 C   0  0  0  0  0  0  0  0  0  0  0  0
   61.4574   29.6157   46.3126 H   0  0  0  0  0  0  0  0  0  0  0  0
   62.2950   31.4120   47.1850 C   0  0  0  0  0  0  0  0  0  0  0  0
   63.1981   31.3764   46.5580 H   0  0  0  0  0  0  0  0  0  0  0  0
   62.1340   32.4550   48.1160 C   0  0  0  0  0  0  0  0  0  0  0  0
   63.1660   33.5150   48.2770 C   0  0  0  0  0  0  0  0  0  0  0  0
   63.5170   34.2040   47.2800 O   0  0  0  0  0  0  0  0  0  0  0  0
   63.8120   33.7980   49.6010 C   0  0  0  0  0  0  0  0  0  0  0  0
   63.1315   33.4999   50.4122 H   0  0  0  0  0  0  0  0  0  0  0  0
   64.7495   33.2282   49.6808 H   0  0  0  0  0  0  0  0  0  0  0  0
   64.0287   34.8735   49.6808 H   0  0  0  0  0  0  0  0  0  0  0  0
   60.9700   32.4820   48.9020 C   0  0  0  0  0  0  0  0  0  0  0  0
   60.8252   33.2918   49.6323 H   0  0  0  0  0  0  0  0  0  0  0  0
   59.9940   31.4910   48.7660 C   0  0  0  0  0  0  0  0  0  0  0  0
   59.0863   31.5315   49.3860 H   0  0  0  0  0  0  0  0  0  0  0  0
  1  2  1  0
  2  3  1  0
  3  4  1  0
  4  5  1  0
  5  6  2  0
  5  7  1  0
  7  8  1  0
  8  9  1  0
  9 10  1  0
  9 11  2  0
 11 12  1  0
 12 13  1  0
 12 14  2  0
 14 15  1  0
 15 16  2  3
 16 17  1  0
 16 18  1  0
 18 19  1  0
 18 20  1  0
 18 21  1  0
 21 22  1  0
 21 23  1  0
 21 24  1  0
 24 25  1  0
 24 26  1  0
 24 27  1  0
 15 28  1  0
 28 29  1  0
 29 30  1  0
 29 31  1  0
 29 32  1  0
 32 33  2  0
 33 34  1  0
 33 35  1  0
 35 36  1  0
 35 37  2  0
 37 38  1  0
 38 39  2  0
 38 40  1  0
 40 41  1  0
 40 42  1  0
 40 43  1  0
 37 44  1  0
 44 45  1  0
 44 46  2  0
 46 47  1  0
  8  3  2  0
 28 11  1  0
 46 32  1  0
M  CHG  2   4  -1   7  -1
M  END
>  <UniqueID>  (52) 
45

>  <SMILES>  (52) 
CCCC=c1nc/c(=C/c2[n-]c(=O)[n-]c2O)n1Cc1ccc(C(C)=O)cc1

>  <Energy>  (52) 
123.78417879267786

>  <Genealogy>  (52) 
CCCC=c1ncc(=Cc2[n-]c(=O)[n-]c2O)n1Cc1ccc(C(C)=O)cc1 (protonated)
CCCC=c1nc/c(=C/c2[n-]c(=O)[n-]c2O)n1Cc1ccc(C(C)=O)cc1 (cis-trans isomerization)
CCCC=c1nc/c(=C/c2[n-]c(=O)[n-]c2O)n1Cc1ccc(C(C)=O)cc1 (3D coordinates assigned)
CCCC=c1nc/c(=C/c2[n-]c(=O)[n-]c2O)n1Cc1ccc(C(C)=O)cc1 (optimized conformer: 123.78417879267786 kcal/mol)

>  <smiles>  (52) 
CCCC=c1ncc(=Cc2[nH]c(=O)[nH]c2O)n1Cc1ccc(C(C)=O)cc1

>  <score_type>  (52) 
oracle

>  <origin>  (52) 
adg

>  <m_score__min__energy>  (52) 
-12.83

>  <m_primary>  (52) 
energy

$$$$
52:0
     RDKit          3D

 55 58  0  0  0  0  0  0  0  0999 V2000
   56.5540   30.8380   53.9240 N   0  0  0  0  0  0  0  0  0  0  0  0
   57.1730   31.4000   53.1240 C   0  0  0  0  0  0  0  0  0  0  0  0
   57.9430   32.0990   52.1270 C   0  0  0  0  0  0  0  0  0  0  0  0
   58.5230   33.3370   52.4290 C   0  0  0  0  0  0  0  0  0  0  0  0
   59.2680   34.0180   51.4620 C   0  0  0  0  0  0  0  0  0  0  0  0
   59.4350   33.4750   50.1720 C   0  0  0  0  0  0  0  0  0  0  0  0
   60.2780   34.1730   49.1120 C   0  0  0  0  0  0  0  0  0  0  0  0
   59.4170   34.5590   47.8850 C   0  0  0  0  0  0  0  0  0  0  0  0
   59.1340   33.3610   46.9650 C   0  0  0  0  0  0  0  0  0  0  0  0
   60.3250   32.5150   46.7850 N   0  0  0  0  0  0  0  0  0  0  0  0
   60.1720   31.1310   46.4050 C   0  0  0  0  0  0  0  0  0  0  0  0
   60.9500   30.2630   46.8850 O   0  0  0  0  0  0  0  0  0  0  0  0
   59.1000   30.6970   45.4860 C   0  0  0  0  0  0  0  0  0  0  0  0
   58.4120   31.6460   44.7120 C   0  0  0  0  0  0  0  0  0  0  0  0
   57.3920   31.2430   43.8470 C   0  0  0  0  0  0  0  0  0  0  0  0
   57.0480   29.8940   43.7470 C   0  0  0  0  0  0  0  0  0  0  0  0
   57.7250   28.9300   44.5140 C   0  0  0  0  0  0  0  0  0  0  0  0
   57.3650   27.5390   44.4530 N   0  0  0  0  0  0  0  0  0  0  0  0
   57.7630   26.5730   45.4390 C   0  0  0  0  0  0  0  0  0  0  0  0
   58.1230   26.9530   46.5860 O   0  0  0  0  0  0  0  0  0  0  0  0
   57.7140   25.1290   45.1400 C   0  0  0  0  0  0  0  0  0  0  0  0
   56.7070   24.4970   44.4310 C   0  0  0  0  0  0  0  0  0  0  0  0
   57.0500   23.1590   44.3990 C   0  0  0  0  0  0  0  0  0  0  0  0
   56.2900   22.0780   43.7540 C   0  0  0  0  0  0  0  0  0  0  0  0
   55.5630   21.1420   44.5450 N   0  0  0  0  0  0  0  0  0  0  0  0
   56.2800   21.9740   42.4980 O   0  0  0  0  0  0  0  0  0  0  0  0
   58.2400   23.0290   45.0900 C   0  0  0  0  0  0  0  0  0  0  0  0
   58.6390   24.2330   45.5390 N   0  0  0  0  0  0  0  0  0  0  0  0
   58.7350   29.3440   45.3980 C   0  0  0  0  0  0  0  0  0  0  0  0
   61.6290   33.0140   47.2410 C   0  0  0  0  0  0  0  0  0  0  0  0
   61.5620   33.3730   48.7310 C   0  0  0  0  0  0  0  0  0  0  0  0
   58.8600   32.2220   49.8870 C   0  0  0  0  0  0  0  0  0  0  0  0
   58.1140   31.5430   50.8550 C   0  0  0  0  0  0  0  0  0  0  0  0
   58.3921   33.7748   53.4296 H   0  0  0  0  0  0  0  0  0  0  0  0
   59.7279   34.9860   51.7099 H   0  0  0  0  0  0  0  0  0  0  0  0
   60.6496   35.1089   49.5546 H   0  0  0  0  0  0  0  0  0  0  0  0
   58.4585   34.9652   48.2403 H   0  0  0  0  0  0  0  0  0  0  0  0
   59.9800   35.3028   47.3020 H   0  0  0  0  0  0  0  0  0  0  0  0
   58.3303   32.7544   47.4078 H   0  0  0  0  0  0  0  0  0  0  0  0
   58.8394   33.7499   45.9791 H   0  0  0  0  0  0  0  0  0  0  0  0
   58.6775   32.7108   44.7874 H   0  0  0  0  0  0  0  0  0  0  0  0
   56.8581   31.9912   43.2427 H   0  0  0  0  0  0  0  0  0  0  0  0
   56.2431   29.5837   43.0645 H   0  0  0  0  0  0  0  0  0  0  0  0
   56.6890   27.2410   43.7140 H   0  0  0  0  0  0  0  0  0  0  0  0
   55.8167   24.9641   43.9848 H   0  0  0  0  0  0  0  0  0  0  0  0
   54.5960   21.3570   44.8770 H   0  0  0  0  0  0  0  0  0  0  0  0
   58.7796   22.0837   45.2489 H   0  0  0  0  0  0  0  0  0  0  0  0
   59.4980   24.4170   46.1030 H   0  0  0  0  0  0  0  0  0  0  0  0
   59.2453   28.6005   46.0279 H   0  0  0  0  0  0  0  0  0  0  0  0
   62.3907   32.2353   47.0879 H   0  0  0  0  0  0  0  0  0  0  0  0
   61.8931   33.9130   46.6647 H   0  0  0  0  0  0  0  0  0  0  0  0
   61.5806   32.4419   49.3164 H   0  0  0  0  0  0  0  0  0  0  0  0
   62.4263   34.0165   48.9519 H   0  0  0  0  0  0  0  0  0  0  0  0
   58.9991   31.7726   48.8926 H   0  0  0  0  0  0  0  0  0  0  0  0
   57.6607   30.5697   50.6158 H   0  0  0  0  0  0  0  0  0  0  0  0
  1  2  3  0
  2  3  1  0
  3  4  2  0
  4  5  1  0
  5  6  2  0
  6  7  1  0
  7  8  1  0
  8  9  1  0
  9 10  1  0
 10 11  1  0
 11 12  2  0
 11 13  1  0
 13 14  2  0
 14 15  1  0
 15 16  2  0
 16 17  1  0
 17 18  1  0
 18 19  1  0
 19 20  2  0
 19 21  1  0
 21 22  2  0
 22 23  1  0
 23 24  1  0
 24 25  1  0
 24 26  2  0
 23 27  2  0
 27 28  1  0
 17 29  2  0
 10 30  1  0
 30 31  1  0
  6 32  1  0
 32 33  2  0
 33  3  1  0
 31  7  1  0
 29 13  1  0
 28 21  1  0
  4 34  1  0
  5 35  1  0
  7 36  1  0
  8 37  1  0
  8 38  1  0
  9 39  1  0
  9 40  1  0
 14 41  1  0
 15 42  1  0
 16 43  1  0
 18 44  1  0
 22 45  1  0
 25 46  1  0
 27 47  1  0
 28 48  1  0
 29 49  1  0
 30 50  1  0
 30 51  1  0
 31 52  1  0
 31 53  1  0
 32 54  1  0
 33 55  1  0
M  CHG  1  25  -1
M  END
>  <UniqueID>  (53) 
46

>  <SMILES>  (53) 
N#Cc1ccc(C2CCN(C(=O)c3cccc(NC(=O)c4cc(C([NH-])=O)c[nH]4)c3)CC2)cc1

>  <Energy>  (53) 
95.04470957015428

>  <Genealogy>  (53) 
N#Cc1ccc(C2CCN(C(=O)c3cccc(NC(=O)c4cc(C([NH-])=O)c[nH]4)c3)CC2)cc1 (protonated)
N#Cc1ccc(C2CCN(C(=O)c3cccc(NC(=O)c4cc(C([NH-])=O)c[nH]4)c3)CC2)cc1 (3D coordinates assigned)
N#Cc1ccc(C2CCN(C(=O)c3cccc(NC(=O)c4cc(C([NH-])=O)c[nH]4)c3)CC2)cc1 (nonaromatic ring conformer: 95.04470957015428 kcal/mol)

>  <smiles>  (53) 
N#Cc1ccc(C2CCN(C(=O)c3cccc(NC(=O)c4cc(C(N)=O)c[nH]4)c3)CC2)cc1

>  <score_type>  (53) 
oracle

>  <origin>  (53) 
adg

>  <m_score__min__energy>  (53) 
-12.41

>  <m_primary>  (53) 
energy

$$$$
53:0
     RDKit          3D

 48 50  0  0  0  0  0  0  0  0999 V2000
   56.9501   31.1293   41.3411 H   0  0  0  0  0  0  0  0  0  0  0  0
   57.0970   31.0130   42.4250 C   0  0  0  0  0  0  0  0  0  0  0  0
   57.4150   32.1240   43.2080 C   0  0  0  0  0  0  0  0  0  0  0  0
   57.5165   33.1136   42.7386 H   0  0  0  0  0  0  0  0  0  0  0  0
   57.6060   31.9840   44.5930 C   0  0  0  0  0  0  0  0  0  0  0  0
   57.9120   33.1630   45.4330 C   0  0  0  0  0  0  0  0  0  0  0  0
   56.9950   33.9920   45.6810 O   0  0  0  0  0  0  0  0  0  0  0  0
   59.2250   33.3710   45.9880 N   0  0  0  0  0  0  0  0  0  0  0  0
   60.0110   32.2310   46.4840 C   0  0  0  0  0  0  0  0  0  0  0  0
   60.5687   31.7854   45.6471 H   0  0  0  0  0  0  0  0  0  0  0  0
   59.3243   31.4914   46.9216 H   0  0  0  0  0  0  0  0  0  0  0  0
   61.0000   32.6840   47.5630 C   0  0  0  0  0  0  0  0  0  0  0  0
   61.8917   33.1185   47.0875 H   0  0  0  0  0  0  0  0  0  0  0  0
   61.3027   31.8224   48.1762 H   0  0  0  0  0  0  0  0  0  0  0  0
   60.3480   33.6990   48.4140 N   0  0  0  0  0  0  0  0  0  0  0  0
   61.1150   33.9460   49.6510 C   0  0  0  0  0  0  0  0  0  0  0  0
   60.9809   33.0955   50.3356 H   0  0  0  0  0  0  0  0  0  0  0  0
   60.7470   34.8715   50.1179 H   0  0  0  0  0  0  0  0  0  0  0  0
   62.6000   34.1090   49.3380 C   0  0  0  0  0  0  0  0  0  0  0  0
   63.1681   34.1714   50.2779 H   0  0  0  0  0  0  0  0  0  0  0  0
   62.9490   33.2438   48.7553 H   0  0  0  0  0  0  0  0  0  0  0  0
   62.7530   35.0293   48.7553 H   0  0  0  0  0  0  0  0  0  0  0  0
   60.1370   34.9600   47.6640 C   0  0  0  0  0  0  0  0  0  0  0  0
   61.0697   35.5426   47.6897 H   0  0  0  0  0  0  0  0  0  0  0  0
   59.3045   35.4928   48.1467 H   0  0  0  0  0  0  0  0  0  0  0  0
   59.7420   34.7300   46.1890 C   0  0  0  0  0  0  0  0  0  0  0  0
   60.6274   34.8757   45.5527 H   0  0  0  0  0  0  0  0  0  0  0  0
   58.9527   35.4480   45.9218 H   0  0  0  0  0  0  0  0  0  0  0  0
   57.4530   30.7190   45.1830 C   0  0  0  0  0  0  0  0  0  0  0  0
   57.5640   30.6083   46.2718 H   0  0  0  0  0  0  0  0  0  0  0  0
   57.1590   29.5920   44.3940 C   0  0  0  0  0  0  0  0  0  0  0  0
   56.9910   28.2880   44.9790 N   0  0  0  0  0  0  0  0  0  0  0  0
   56.2930   27.6400   44.5490 H   0  0  0  0  0  0  0  0  0  0  0  0
   57.8030   27.7700   46.0420 C   0  0  0  0  0  0  0  0  0  0  0  0
   58.8600   28.3680   46.3860 O   0  0  0  0  0  0  0  0  0  0  0  0
   57.4160   26.5410   46.6750 N   0  0  0  0  0  0  0  0  0  0  0  0
   56.3480   25.8470   46.4110 C   0  0  0  0  0  0  0  0  0  0  0  0
   55.1740   26.3650   45.9980 N   0  0  0  0  0  0  0  0  0  0  0  0
   54.3650   25.3550   45.8450 O   0  0  0  0  0  0  0  0  0  0  0  0
   54.9640   24.2210   46.1340 C   0  0  0  0  0  0  0  0  0  0  0  0
   54.3080   22.8830   46.0850 C   0  0  0  0  0  0  0  0  0  0  0  0
   54.1317   22.5234   47.1095 H   0  0  0  0  0  0  0  0  0  0  0  0
   53.3477   22.9646   45.5547 H   0  0  0  0  0  0  0  0  0  0  0  0
   54.9606   22.1739   45.5547 H   0  0  0  0  0  0  0  0  0  0  0  0
   56.2650   24.4780   46.5160 C   0  0  0  0  0  0  0  0  0  0  0  0
   57.0427   23.7650   46.8272 H   0  0  0  0  0  0  0  0  0  0  0  0
   56.9650   29.7540   43.0150 C   0  0  0  0  0  0  0  0  0  0  0  0
   56.7071   28.8837   42.3936 H   0  0  0  0  0  0  0  0  0  0  0  0
  1  2  1  0
  2  3  2  0
  3  4  1  0
  3  5  1  0
  5  6  1  0
  6  7  2  0
  6  8  1  0
  8  9  1  0
  9 10  1  0
  9 11  1  0
  9 12  1  0
 12 13  1  0
 12 14  1  0
 12 15  1  0
 15 16  1  0
 16 17  1  0
 16 18  1  0
 16 19  1  0
 19 20  1  0
 19 21  1  0
 19 22  1  0
 15 23  1  0
 23 24  1  0
 23 25  1  0
 23 26  1  0
 26 27  1  0
 26 28  1  0
  5 29  2  0
 29 30  1  0
 29 31  1  0
 31 32  1  0
 32 33  1  0
 32 34  1  0
 34 35  2  0
 34 36  1  0
 36 37  2  0
 37 38  1  0
 38 39  1  0
 39 40  1  0
 40 41  1  0
 41 42  1  0
 41 43  1  0
 41 44  1  0
 40 45  2  0
 45 46  1  0
 31 47  2  0
 47 48  1  0
 47  2  1  0
 26  8  1  0
 45 37  1  0
M  CHG  1  38  -1
M  END
>  <UniqueID>  (54) 
47

>  <SMILES>  (54) 
CCN1CCN(C(=O)c2cccc(NC(=O)/N=c3/cc(C)o[n-]3)c2)CC1

>  <Energy>  (54) 
93.40274336886432

>  <Genealogy>  (54) 
CCN1CCN(C(=O)c2cccc(NC(=O)N=c3cc(C)o[n-]3)c2)CC1 (protonated)
CCN1CCN(C(=O)c2cccc(NC(=O)/N=c3/cc(C)o[n-]3)c2)CC1 (cis-trans isomerization)
CCN1CCN(C(=O)c2cccc(NC(=O)/N=c3/cc(C)o[n-]3)c2)CC1 (3D coordinates assigned)
CCN1CCN(C(=O)c2cccc(NC(=O)/N=c3/cc(C)o[n-]3)c2)CC1 (nonaromatic ring conformer: 93.40274336886432 kcal/mol)

>  <smiles>  (54) 
CCN1CCN(C(=O)c2cccc(NC(=O)N=c3cc(C)o[nH]3)c2)CC1

>  <score_type>  (54) 
oracle

>  <origin>  (54) 
adg

>  <m_score__min__energy>  (54) 
-10.81

>  <m_primary>  (54) 
energy

$$$$
54:0
     RDKit          3D

 77 82  0  0  0  0  0  0  0  0999 V2000
   58.7164   28.2733   51.7149 H   0  0  0  0  0  0  0  0  0  0  0  0
   58.3500   28.6960   52.6620 C   0  0  0  0  0  0  0  0  0  0  0  0
   59.1470   29.4370   53.3720 N   0  0  0  0  0  0  0  0  0  0  0  0
   60.1160   30.3460   52.8210 C   0  0  0  0  0  0  0  0  0  0  0  0
   61.1350   29.8300   52.0050 C   0  0  0  0  0  0  0  0  0  0  0  0
   61.2060   28.7450   51.8382 H   0  0  0  0  0  0  0  0  0  0  0  0
   62.0620   30.6900   51.4020 C   0  0  0  0  0  0  0  0  0  0  0  0
   62.8640   30.2789   50.7713 H   0  0  0  0  0  0  0  0  0  0  0  0
   61.9680   32.0740   51.6020 C   0  0  0  0  0  0  0  0  0  0  0  0
   62.8350   32.9590   50.9620 O   0  0  0  0  0  0  0  0  0  0  0  0
   62.8920   33.1530   49.5730 C   0  0  0  0  0  0  0  0  0  0  0  0
   64.1140   33.2770   48.8910 C   0  0  0  0  0  0  0  0  0  0  0  0
   65.0626   33.2165   49.4446 H   0  0  0  0  0  0  0  0  0  0  0  0
   64.1220   33.4770   47.5100 C   0  0  0  0  0  0  0  0  0  0  0  0
   65.0781   33.5970   46.9794 H   0  0  0  0  0  0  0  0  0  0  0  0
   62.9550   33.5240   46.8190 N   0  0  0  0  0  0  0  0  0  0  0  0
   61.7540   33.3940   47.4390 C   0  0  0  0  0  0  0  0  0  0  0  0
   60.5830   33.3950   46.6820 C   0  0  0  0  0  0  0  0  0  0  0  0
   60.6307   33.5898   45.6004 H   0  0  0  0  0  0  0  0  0  0  0  0
   59.3400   33.1480   47.2950 C   0  0  0  0  0  0  0  0  0  0  0  0
   58.1460   33.0310   46.5630 O   0  0  0  0  0  0  0  0  0  0  0  0
   58.0240   32.5390   45.2260 C   0  0  0  0  0  0  0  0  0  0  0  0
   56.9816   32.6676   44.8992 H   0  0  0  0  0  0  0  0  0  0  0  0
   58.7249   33.1111   44.6004 H   0  0  0  0  0  0  0  0  0  0  0  0
   58.3990   31.0520   45.0940 C   0  0  0  0  0  0  0  0  0  0  0  0
   57.7823   30.6065   44.2995 H   0  0  0  0  0  0  0  0  0  0  0  0
   59.4733   31.0085   44.8619 H   0  0  0  0  0  0  0  0  0  0  0  0
   58.1820   30.2460   46.3900 C   0  0  0  0  0  0  0  0  0  0  0  0
   58.3128   30.9179   47.2511 H   0  0  0  0  0  0  0  0  0  0  0  0
   57.1657   29.8262   46.3604 H   0  0  0  0  0  0  0  0  0  0  0  0
   59.1370   29.1180   46.5150 N   0  0  0  0  0  0  0  0  0  0  0  0
   60.5610   29.5210   46.5090 C   0  0  0  0  0  0  0  0  0  0  0  0
   61.1817   28.6329   46.3192 H   0  0  0  0  0  0  0  0  0  0  0  0
   60.6997   30.2757   45.7208 H   0  0  0  0  0  0  0  0  0  0  0  0
   60.9820   30.1450   47.8470 C   0  0  0  0  0  0  0  0  0  0  0  0
   62.0559   30.3806   47.8130 H   0  0  0  0  0  0  0  0  0  0  0  0
   60.3942   31.0604   48.0096 H   0  0  0  0  0  0  0  0  0  0  0  0
   60.7370   29.2540   48.9150 O   0  0  0  0  0  0  0  0  0  0  0  0
   59.3550   28.9720   48.9970 C   0  0  0  0  0  0  0  0  0  0  0  0
   59.1751   28.3010   49.8499 H   0  0  0  0  0  0  0  0  0  0  0  0
   58.8119   29.9193   49.1298 H   0  0  0  0  0  0  0  0  0  0  0  0
   58.8510   28.2950   47.7090 C   0  0  0  0  0  0  0  0  0  0  0  0
   59.3497   27.3207   47.5990 H   0  0  0  0  0  0  0  0  0  0  0  0
   57.7609   28.1711   47.7889 H   0  0  0  0  0  0  0  0  0  0  0  0
   59.2670   32.9820   48.6870 C   0  0  0  0  0  0  0  0  0  0  0  0
   58.0070   32.7510   49.2600 O   0  0  0  0  0  0  0  0  0  0  0  0
   57.7930   32.1500   50.5310 C   0  0  0  0  0  0  0  0  0  0  0  0
   58.0487   32.8682   51.3239 H   0  0  0  0  0  0  0  0  0  0  0  0
   56.7363   31.8597   50.6261 H   0  0  0  0  0  0  0  0  0  0  0  0
   58.4285   31.2572   50.6261 H   0  0  0  0  0  0  0  0  0  0  0  0
   60.4420   33.0320   49.4580 C   0  0  0  0  0  0  0  0  0  0  0  0
   60.3829   32.9298   50.5516 H   0  0  0  0  0  0  0  0  0  0  0  0
   61.6930   33.2120   48.8390 C   0  0  0  0  0  0  0  0  0  0  0  0
   60.9990   32.5880   52.4720 C   0  0  0  0  0  0  0  0  0  0  0  0
   60.9340   33.9260   52.7090 F   0  0  0  0  0  0  0  0  0  0  0  0
   60.0820   31.7310   53.0860 C   0  0  0  0  0  0  0  0  0  0  0  0
   59.3307   32.1380   53.7787 H   0  0  0  0  0  0  0  0  0  0  0  0
   56.9640   28.4040   53.0900 C   0  0  0  0  0  0  0  0  0  0  0  0
   56.6450   27.3220   53.9290 C   0  0  0  0  0  0  0  0  0  0  0  0
   57.6230   26.4330   54.3610 O   0  0  0  0  0  0  0  0  0  0  0  0
   55.3670   27.1500   54.3500 N   0  0  0  0  0  0  0  0  0  0  0  0
   54.3720   27.9970   53.9780 C   0  0  0  0  0  0  0  0  0  0  0  0
   53.2040   27.8000   54.4160 O   0  0  0  0  0  0  0  0  0  0  0  0
   54.6420   29.0560   53.1490 N   0  0  0  0  0  0  0  0  0  0  0  0
   53.5930   29.9600   52.7490 C   0  0  0  0  0  0  0  0  0  0  0  0
   53.4210   30.3060   51.3980 C   0  0  0  0  0  0  0  0  0  0  0  0
   54.0675   29.8554   50.6305 H   0  0  0  0  0  0  0  0  0  0  0  0
   52.4300   31.2220   51.0250 C   0  0  0  0  0  0  0  0  0  0  0  0
   52.3029   31.4931   49.9665 H   0  0  0  0  0  0  0  0  0  0  0  0
   51.6010   31.7930   51.9970 C   0  0  0  0  0  0  0  0  0  0  0  0
   50.6280   32.7150   51.6280 O   0  0  0  0  0  0  0  0  0  0  0  0
   51.7640   31.4470   53.3420 C   0  0  0  0  0  0  0  0  0  0  0  0
   51.1111   31.8928   54.1069 H   0  0  0  0  0  0  0  0  0  0  0  0
   52.7560   30.5350   53.7160 C   0  0  0  0  0  0  0  0  0  0  0  0
   52.8805   30.2670   54.7756 H   0  0  0  0  0  0  0  0  0  0  0  0
   55.9220   29.2660   52.7010 C   0  0  0  0  0  0  0  0  0  0  0  0
   56.1670   30.2260   51.9150 O   0  0  0  0  0  0  0  0  0  0  0  0
  1  2  1  0
  2  3  2  0
  3  4  1  0
  4  5  2  0
  5  6  1  0
  5  7  1  0
  7  8  1  0
  7  9  2  0
  9 10  1  0
 10 11  1  0
 11 12  2  0
 12 13  1  0
 12 14  1  0
 14 15  1  0
 14 16  2  0
 16 17  1  0
 17 18  2  0
 18 19  1  0
 18 20  1  0
 20 21  1  0
 21 22  1  0
 22 23  1  0
 22 24  1  0
 22 25  1  0
 25 26  1  0
 25 27  1  0
 25 28  1  0
 28 29  1  0
 28 30  1  0
 28 31  1  0
 31 32  1  0
 32 33  1  0
 32 34  1  0
 32 35  1  0
 35 36  1  0
 35 37  1  0
 35 38  1  0
 38 39  1  0
 39 40  1  0
 39 41  1  0
 39 42  1  0
 42 43  1  0
 42 44  1  0
 20 45  2  0
 45 46  1  0
 46 47  1  0
 47 48  1  0
 47 49  1  0
 47 50  1  0
 45 51  1  0
 51 52  1  0
 51 53  2  0
  9 54  1  0
 54 55  1  0
 54 56  2  0
 56 57  1  0
  2 58  1  0
 58 59  2  0
 59 60  1  0
 59 61  1  0
 61 62  1  0
 62 63  2  0
 62 64  1  0
 64 65  1  0
 65 66  2  0
 66 67  1  0
 66 68  1  0
 68 69  1  0
 68 70  2  0
 70 71  1  0
 70 72  1  0
 72 73  1  0
 72 74  2  0
 74 75  1  0
 64 76  1  0
 76 77  2  0
 56  4  1  0
 76 58  1  0
 53 11  1  0
 74 65  1  0
 53 17  1  0
 42 31  1  0
M  CHG  3  60  -1  61  -1  71  -1
M  END
>  <UniqueID>  (55) 
48

>  <SMILES>  (55) 
COc1cc2c(Oc3ccc(/N=C/c4c([O-])[n-]c(=O)n(-c5ccc([O-])cc5)c4=O)cc3F)ccnc2cc1OCCCN1CCOCC1

>  <Energy>  (55) 
124.48602965686058

>  <Genealogy>  (55) 
COc1cc2c(Oc3ccc(N=Cc4c([O-])[n-]c(=O)n(-c5ccc([O-])cc5)c4=O)cc3F)ccnc2cc1OCCCN1CCOCC1 (protonated)
COc1cc2c(Oc3ccc(/N=C/c4c([O-])[n-]c(=O)n(-c5ccc([O-])cc5)c4=O)cc3F)ccnc2cc1OCCCN1CCOCC1 (cis-trans isomerization)
COc1cc2c(Oc3ccc(/N=C/c4c([O-])[n-]c(=O)n(-c5ccc([O-])cc5)c4=O)cc3F)ccnc2cc1OCCCN1CCOCC1 (3D coordinates assigned)
COc1cc2c(Oc3ccc(/N=C/c4c([O-])[n-]c(=O)n(-c5ccc([O-])cc5)c4=O)cc3F)ccnc2cc1OCCCN1CCOCC1 (nonaromatic ring conformer: 124.48602965686058 kcal/mol)

>  <smiles>  (55) 
COc1cc2c(Oc3ccc(N=Cc4c(O)[nH]c(=O)n(-c5ccc(O)cc5)c4=O)cc3F)ccnc2cc1OCCCN1CCOCC1

>  <score_type>  (55) 
oracle

>  <origin>  (55) 
adg

>  <m_score__min__energy>  (55) 
-15.24

>  <m_primary>  (55) 
energy

$$$$
55:0
     RDKit          3D

 53 56  0  0  0  0  0  0  0  0999 V2000
   57.0580   25.5510   46.6000 O   0  0  0  0  0  0  0  0  0  0  0  0
   56.5580   26.5810   46.0740 C   0  0  0  0  0  0  0  0  0  0  0  0
   55.1760   26.6890   45.9880 O   0  0  0  0  0  0  0  0  0  0  0  0
   57.4340   27.6890   45.6210 C   0  0  0  0  0  0  0  0  0  0  0  0
   56.9660   28.5310   44.5960 C   0  0  0  0  0  0  0  0  0  0  0  0
   57.7760   29.5370   44.0530 C   0  0  0  0  0  0  0  0  0  0  0  0
   57.2510   30.3680   42.9990 N   0  0  0  0  0  0  0  0  0  0  0  0
   57.7640   31.6980   42.6630 C   0  0  0  0  0  0  0  0  0  0  0  0
   57.8440   32.5660   43.8950 C   0  0  0  0  0  0  0  0  0  0  0  0
   58.8430   33.5500   44.0020 C   0  0  0  0  0  0  0  0  0  0  0  0
   58.9250   34.3520   45.1440 C   0  0  0  0  0  0  0  0  0  0  0  0
   58.0090   34.1840   46.1860 C   0  0  0  0  0  0  0  0  0  0  0  0
   57.0070   33.2150   46.0870 C   0  0  0  0  0  0  0  0  0  0  0  0
   56.9190   32.4090   44.9460 C   0  0  0  0  0  0  0  0  0  0  0  0
   55.9080   31.4560   44.8650 O   0  0  0  0  0  0  0  0  0  0  0  0
   59.0840   29.6890   44.5330 C   0  0  0  0  0  0  0  0  0  0  0  0
   59.5590   28.8750   45.5600 C   0  0  0  0  0  0  0  0  0  0  0  0
   58.7440   27.8850   46.1330 C   0  0  0  0  0  0  0  0  0  0  0  0
   59.2740   27.1340   47.2920 C   0  0  0  0  0  0  0  0  0  0  0  0
   59.8650   26.0350   47.1150 O   0  0  0  0  0  0  0  0  0  0  0  0
   59.1130   27.6670   48.6130 N   0  0  0  0  0  0  0  0  0  0  0  0
   60.1050   28.3640   49.3790 C   0  0  0  0  0  0  0  0  0  0  0  0
   60.9090   27.7090   50.3300 C   0  0  0  0  0  0  0  0  0  0  0  0
   61.8360   28.4340   51.0820 C   0  0  0  0  0  0  0  0  0  0  0  0
   61.9650   29.8120   50.9010 C   0  0  0  0  0  0  0  0  0  0  0  0
   61.1650   30.4790   49.9570 C   0  0  0  0  0  0  0  0  0  0  0  0
   61.2440   31.8660   49.7640 O   0  0  0  0  0  0  0  0  0  0  0  0
   61.8620   32.5050   48.6780 C   0  0  0  0  0  0  0  0  0  0  0  0
   63.2570   32.4670   48.4880 C   0  0  0  0  0  0  0  0  0  0  0  0
   63.8320   33.1050   47.3840 C   0  0  0  0  0  0  0  0  0  0  0  0
   63.0230   33.7730   46.4610 C   0  0  0  0  0  0  0  0  0  0  0  0
   61.6370   33.7950   46.6340 C   0  0  0  0  0  0  0  0  0  0  0  0
   61.0590   33.1590   47.7370 C   0  0  0  0  0  0  0  0  0  0  0  0
   60.2240   29.7510   49.2200 C   0  0  0  0  0  0  0  0  0  0  0  0
   55.9436   28.3969   44.2131 H   0  0  0  0  0  0  0  0  0  0  0  0
   56.4030   30.0420   42.4830 H   0  0  0  0  0  0  0  0  0  0  0  0
   58.7685   31.5978   42.2261 H   0  0  0  0  0  0  0  0  0  0  0  0
   57.0796   32.1693   41.9423 H   0  0  0  0  0  0  0  0  0  0  0  0
   59.5637   33.6893   43.1827 H   0  0  0  0  0  0  0  0  0  0  0  0
   59.7119   35.1166   45.2226 H   0  0  0  0  0  0  0  0  0  0  0  0
   58.0768   34.8149   47.0846 H   0  0  0  0  0  0  0  0  0  0  0  0
   56.2859   33.0854   46.9075 H   0  0  0  0  0  0  0  0  0  0  0  0
   59.7403   30.4561   44.0962 H   0  0  0  0  0  0  0  0  0  0  0  0
   60.5871   29.0100   45.9270 H   0  0  0  0  0  0  0  0  0  0  0  0
   60.8072   26.6242   50.4814 H   0  0  0  0  0  0  0  0  0  0  0  0
   62.4670   27.9170   51.8199 H   0  0  0  0  0  0  0  0  0  0  0  0
   62.6948   30.3777   51.4988 H   0  0  0  0  0  0  0  0  0  0  0  0
   63.8952   31.9349   49.2088 H   0  0  0  0  0  0  0  0  0  0  0  0
   64.9226   33.0809   47.2422 H   0  0  0  0  0  0  0  0  0  0  0  0
   63.4776   34.2816   45.5981 H   0  0  0  0  0  0  0  0  0  0  0  0
   60.9999   34.3130   45.9020 H   0  0  0  0  0  0  0  0  0  0  0  0
   59.9666   33.1729   47.8657 H   0  0  0  0  0  0  0  0  0  0  0  0
   59.5697   30.2742   48.5071 H   0  0  0  0  0  0  0  0  0  0  0  0
  1  2  2  0
  2  3  1  0
  2  4  1  0
  4  5  2  0
  5  6  1  0
  6  7  1  0
  7  8  1  0
  8  9  1  0
  9 10  2  0
 10 11  1  0
 11 12  2  0
 12 13  1  0
 13 14  2  0
 14 15  1  0
  6 16  2  0
 16 17  1  0
 17 18  2  0
 18 19  1  0
 19 20  2  0
 19 21  1  0
 21 22  1  0
 22 23  2  0
 23 24  1  0
 24 25  2  0
 25 26  1  0
 26 27  1  0
 27 28  1  0
 28 29  2  0
 29 30  1  0
 30 31  2  0
 31 32  1  0
 32 33  2  0
 26 34  2  0
 18  4  1  0
 34 22  1  0
 14  9  1  0
 33 28  1  0
  5 35  1  0
  7 36  1  0
  8 37  1  0
  8 38  1  0
 10 39  1  0
 11 40  1  0
 12 41  1  0
 13 42  1  0
 16 43  1  0
 17 44  1  0
 23 45  1  0
 24 46  1  0
 25 47  1  0
 29 48  1  0
 30 49  1  0
 31 50  1  0
 32 51  1  0
 33 52  1  0
 34 53  1  0
M  CHG  3   3  -1  15  -1  21  -1
M  END
>  <UniqueID>  (56) 
49

>  <SMILES>  (56) 
O=C([O-])c1cc(NCc2ccccc2[O-])ccc1C(=O)[N-]c1cccc(Oc2ccccc2)c1

>  <Energy>  (56) 
77.43288853946586

>  <Genealogy>  (56) 
O=C([O-])c1cc(NCc2ccccc2[O-])ccc1C(=O)[N-]c1cccc(Oc2ccccc2)c1 (protonated)
O=C([O-])c1cc(NCc2ccccc2[O-])ccc1C(=O)[N-]c1cccc(Oc2ccccc2)c1 (3D coordinates assigned)
O=C([O-])c1cc(NCc2ccccc2[O-])ccc1C(=O)[N-]c1cccc(Oc2ccccc2)c1 (optimized conformer: 77.43288853946586 kcal/mol)

>  <smiles>  (56) 
O=C(O)c1cc(NCc2ccccc2O)ccc1C(=O)Nc1cccc(Oc2ccccc2)c1

>  <score_type>  (56) 
oracle

>  <origin>  (56) 
adg

>  <m_score__min__energy>  (56) 
-15.16

>  <m_primary>  (56) 
energy

$$$$
56:0
     RDKit          3D

 50 52  0  0  0  0  0  0  0  0999 V2000
   59.6520   33.7240   50.4290 C   0  0  0  0  0  0  0  0  0  0  0  0
   60.4190   34.2530   49.3530 O   0  0  0  0  0  0  0  0  0  0  0  0
   61.4540   33.5650   48.6970 C   0  0  0  0  0  0  0  0  0  0  0  0
   62.8100   33.8870   48.9100 C   0  0  0  0  0  0  0  0  0  0  0  0
   63.8170   33.1490   48.2820 C   0  0  0  0  0  0  0  0  0  0  0  0
   63.4860   32.0830   47.4440 C   0  0  0  0  0  0  0  0  0  0  0  0
   62.1460   31.7610   47.2200 C   0  0  0  0  0  0  0  0  0  0  0  0
   61.1260   32.5080   47.8210 C   0  0  0  0  0  0  0  0  0  0  0  0
   59.7950   32.1510   47.5620 O   0  0  0  0  0  0  0  0  0  0  0  0
   58.9930   32.7070   46.5530 C   0  0  0  0  0  0  0  0  0  0  0  0
   59.2050   34.0170   46.0840 C   0  0  0  0  0  0  0  0  0  0  0  0
   58.4020   34.5420   45.0690 C   0  0  0  0  0  0  0  0  0  0  0  0
   57.3980   33.7590   44.4970 C   0  0  0  0  0  0  0  0  0  0  0  0
   57.1910   32.4510   44.9420 C   0  0  0  0  0  0  0  0  0  0  0  0
   57.9770   31.9230   45.9830 C   0  0  0  0  0  0  0  0  0  0  0  0
   57.8000   30.5730   46.4380 N   0  0  0  0  0  0  0  0  0  0  0  0
   57.2680   29.4910   45.6640 C   0  0  0  0  0  0  0  0  0  0  0  0
   56.5430   29.7530   44.6690 O   0  0  0  0  0  0  0  0  0  0  0  0
   57.6080   28.1300   45.9720 N   0  0  0  0  0  0  0  0  0  0  0  0
   57.0230   26.9940   45.2560 C   0  0  1  0  0  0  0  0  0  0  0  0
   58.1430   26.0550   44.7740 C   0  0  0  0  0  0  0  0  0  0  0  0
   57.6160   24.6810   44.4460 C   0  0  0  0  0  0  0  0  0  0  0  0
   57.9660   23.5750   45.2400 C   0  0  0  0  0  0  0  0  0  0  0  0
   57.4520   22.3070   44.9490 C   0  0  0  0  0  0  0  0  0  0  0  0
   56.5810   22.1360   43.8690 C   0  0  0  0  0  0  0  0  0  0  0  0
   56.2200   23.2330   43.0810 C   0  0  0  0  0  0  0  0  0  0  0  0
   56.7320   24.5020   43.3680 C   0  0  0  0  0  0  0  0  0  0  0  0
   56.0590   26.2750   46.1610 C   0  0  0  0  0  0  0  0  0  0  0  0
   56.4880   25.6150   47.1440 O   0  0  0  0  0  0  0  0  0  0  0  0
   54.6910   26.3420   45.9250 O   0  0  0  0  0  0  0  0  0  0  0  0
   60.0998   34.0329   51.3851 H   0  0  0  0  0  0  0  0  0  0  0  0
   58.6218   34.1045   50.3667 H   0  0  0  0  0  0  0  0  0  0  0  0
   59.6416   32.6258   50.3667 H   0  0  0  0  0  0  0  0  0  0  0  0
   63.0765   34.7229   49.5735 H   0  0  0  0  0  0  0  0  0  0  0  0
   64.8728   33.4088   48.4485 H   0  0  0  0  0  0  0  0  0  0  0  0
   64.2809   31.4965   46.9600 H   0  0  0  0  0  0  0  0  0  0  0  0
   61.8899   30.9141   46.5664 H   0  0  0  0  0  0  0  0  0  0  0  0
   60.0075   34.6307   46.5192 H   0  0  0  0  0  0  0  0  0  0  0  0
   58.5609   35.5731   44.7202 H   0  0  0  0  0  0  0  0  0  0  0  0
   56.7690   34.1723   43.6948 H   0  0  0  0  0  0  0  0  0  0  0  0
   56.4104   31.8313   44.4767 H   0  0  0  0  0  0  0  0  0  0  0  0
   58.4210   27.9540   46.6040 H   0  0  0  0  0  0  0  0  0  0  0  0
   56.4703   27.3487   44.3736 H   0  0  0  0  0  0  0  0  0  0  0  0
   58.6048   26.4842   43.8726 H   0  0  0  0  0  0  0  0  0  0  0  0
   58.8796   25.9552   45.5849 H   0  0  0  0  0  0  0  0  0  0  0  0
   58.6469   23.7072   46.0937 H   0  0  0  0  0  0  0  0  0  0  0  0
   57.7333   21.4440   45.5703 H   0  0  0  0  0  0  0  0  0  0  0  0
   56.1795   21.1380   43.6391 H   0  0  0  0  0  0  0  0  0  0  0  0
   55.5318   23.0975   42.2336 H   0  0  0  0  0  0  0  0  0  0  0  0
   56.4420   25.3632   42.7481 H   0  0  0  0  0  0  0  0  0  0  0  0
  1  2  1  0
  2  3  1  0
  3  4  2  0
  4  5  1  0
  5  6  2  0
  6  7  1  0
  7  8  2  0
  8  9  1  0
  9 10  1  0
 10 11  2  0
 11 12  1  0
 12 13  2  0
 13 14  1  0
 14 15  2  0
 15 16  1  0
 16 17  1  0
 17 18  2  0
 17 19  1  0
 19 20  1  0
 20 21  1  0
 21 22  1  0
 22 23  2  0
 23 24  1  0
 24 25  2  0
 25 26  1  0
 26 27  2  0
 20 28  1  0
 28 29  2  0
 28 30  1  0
  8  3  1  0
 15 10  1  0
 27 22  1  0
  1 31  1  0
  1 32  1  0
  1 33  1  0
  4 34  1  0
  5 35  1  0
  6 36  1  0
  7 37  1  0
 11 38  1  0
 12 39  1  0
 13 40  1  0
 14 41  1  0
 19 42  1  0
 20 43  1  6
 21 44  1  0
 21 45  1  0
 23 46  1  0
 24 47  1  0
 25 48  1  0
 26 49  1  0
 27 50  1  0
M  CHG  2  16  -1  30  -1
M  END
>  <UniqueID>  (57) 
50

>  <SMILES>  (57) 
COc1ccccc1Oc1ccccc1[N-]C(=O)N[C@@H](Cc1ccccc1)C(=O)[O-]

>  <Energy>  (57) 
59.60728288777754

>  <Genealogy>  (57) 
COc1ccccc1Oc1ccccc1[N-]C(=O)NC(Cc1ccccc1)C(=O)[O-] (protonated)
COc1ccccc1Oc1ccccc1[N-]C(=O)N[C@@H](Cc1ccccc1)C(=O)[O-] (chirality)
COc1ccccc1Oc1ccccc1[N-]C(=O)N[C@@H](Cc1ccccc1)C(=O)[O-] (3D coordinates assigned)
COc1ccccc1Oc1ccccc1[N-]C(=O)N[C@@H](Cc1ccccc1)C(=O)[O-] (optimized conformer: 59.60728288777754 kcal/mol)

>  <smiles>  (57) 
COc1ccccc1Oc1ccccc1NC(=O)NC(Cc1ccccc1)C(=O)O

>  <score_type>  (57) 
oracle

>  <origin>  (57) 
adg

>  <m_score__min__energy>  (57) 
-13.199999999999999

>  <m_primary>  (57) 
energy

$$$$
57:0
     RDKit          3D

 37 38  0  0  0  0  0  0  0  0999 V2000
   57.2150   28.5440   43.0760 N   0  0  0  0  0  0  0  0  0  0  0  0
   56.2290   29.9090   43.4700 S   0  0  0  0  0  0  0  0  0  0  0  0
   54.8110   29.4540   43.6660 O   0  0  0  0  0  0  0  0  0  0  0  0
   56.2710   30.9120   42.3510 O   0  0  0  0  0  0  0  0  0  0  0  0
   56.7940   30.6410   44.9330 N   0  0  0  0  0  0  0  0  0  0  0  0
   58.0580   30.3220   45.5220 C   0  0  0  0  0  0  0  0  0  0  0  0
   58.5540   29.1760   45.3440 O   0  0  0  0  0  0  0  0  0  0  0  0
   58.7810   31.3340   46.3340 C   0  0  0  0  0  0  0  0  0  0  0  0
   58.8810   32.6610   45.8760 C   0  0  0  0  0  0  0  0  0  0  0  0
   59.5570   33.6330   46.6230 C   0  0  0  0  0  0  0  0  0  0  0  0
   59.6300   35.2680   45.9790 Cl  0  0  0  0  0  0  0  0  0  0  0  0
   60.1540   33.2920   47.8560 C   0  0  0  0  0  0  0  0  0  0  0  0
   60.8730   34.2720   48.6430 N   0  0  0  0  0  0  0  0  0  0  0  0
   62.1660   33.7660   49.0590 C   0  0  0  0  0  0  0  0  0  0  0  0
   62.4310   33.5690   50.4290 C   0  0  0  0  0  0  0  0  0  0  0  0
   63.6720   33.0980   50.8600 C   0  0  0  0  0  0  0  0  0  0  0  0
   64.6920   32.8460   49.9350 C   0  0  0  0  0  0  0  0  0  0  0  0
   66.0160   32.3030   50.3960 C   0  0  0  0  0  0  0  0  0  0  0  0
   67.0630   32.9910   49.7690 O   0  0  0  0  0  0  0  0  0  0  0  0
   64.4510   33.0580   48.5710 C   0  0  0  0  0  0  0  0  0  0  0  0
   63.2100   33.5310   48.1290 C   0  0  0  0  0  0  0  0  0  0  0  0
   63.0280   33.8380   46.4020 Cl  0  0  0  0  0  0  0  0  0  0  0  0
   60.0500   31.9670   48.3140 C   0  0  0  0  0  0  0  0  0  0  0  0
   59.3750   30.9980   47.5670 C   0  0  0  0  0  0  0  0  0  0  0  0
   59.3110   29.7350   48.0570 F   0  0  0  0  0  0  0  0  0  0  0  0
   58.2090   28.8360   43.2060 H   0  0  0  0  0  0  0  0  0  0  0  0
   57.0200   27.8120   43.7950 H   0  0  0  0  0  0  0  0  0  0  0  0
   58.4209   32.9387   44.9162 H   0  0  0  0  0  0  0  0  0  0  0  0
   60.9480   35.1490   48.0840 H   0  0  0  0  0  0  0  0  0  0  0  0
   60.3320   34.5200   49.5040 H   0  0  0  0  0  0  0  0  0  0  0  0
   61.6482   33.7897   51.1696 H   0  0  0  0  0  0  0  0  0  0  0  0
   63.8494   32.9240   51.9316 H   0  0  0  0  0  0  0  0  0  0  0  0
   66.1005   32.4267   51.4858 H   0  0  0  0  0  0  0  0  0  0  0  0
   66.0785   31.2364   50.1345 H   0  0  0  0  0  0  0  0  0  0  0  0
   67.0770   32.6860   48.8230 H   0  0  0  0  0  0  0  0  0  0  0  0
   65.2459   32.8504   47.8395 H   0  0  0  0  0  0  0  0  0  0  0  0
   60.5070   31.6887   49.2751 H   0  0  0  0  0  0  0  0  0  0  0  0
  1  2  1  0
  2  3  2  0
  2  4  2  0
  2  5  1  0
  5  6  1  0
  6  7  2  0
  6  8  1  0
  8  9  2  0
  9 10  1  0
 10 11  1  0
 10 12  2  0
 12 13  1  0
 13 14  1  0
 14 15  2  0
 15 16  1  0
 16 17  2  0
 17 18  1  0
 18 19  1  0
 17 20  1  0
 20 21  2  0
 21 22  1  0
 12 23  1  0
 23 24  2  0
 24 25  1  0
 24  8  1  0
 21 14  1  0
  1 26  1  0
  1 27  1  0
  9 28  1  0
 13 29  1  0
 13 30  1  0
 15 31  1  0
 16 32  1  0
 18 33  1  0
 18 34  1  0
 19 35  1  0
 20 36  1  0
 23 37  1  0
M  CHG  2   5  -1  13   1
M  END
>  <UniqueID>  (58) 
51

>  <SMILES>  (58) 
NS(=O)(=O)[N-]C(=O)c1cc(Cl)c([NH2+]c2ccc(CO)cc2Cl)cc1F

>  <Energy>  (58) 
43.707304495394965

>  <Genealogy>  (58) 
NS(=O)(=O)[N-]C(=O)c1cc(Cl)c([NH2+]c2ccc(CO)cc2Cl)cc1F (protonated)
NS(=O)(=O)[N-]C(=O)c1cc(Cl)c([NH2+]c2ccc(CO)cc2Cl)cc1F (3D coordinates assigned)
NS(=O)(=O)[N-]C(=O)c1cc(Cl)c([NH2+]c2ccc(CO)cc2Cl)cc1F (optimized conformer: 43.707304495394965 kcal/mol)

>  <smiles>  (58) 
NS(=O)(=O)NC(=O)c1cc(Cl)c(Nc2ccc(CO)cc2Cl)cc1F

>  <score_type>  (58) 
oracle

>  <origin>  (58) 
adg

>  <m_score__min__energy>  (58) 
-8.25

>  <m_primary>  (58) 
energy

$$$$
58:0
     RDKit          3D

 45 47  0  0  0  0  0  0  0  0999 V2000
   60.6640   33.7670   50.0420 C   0  0  0  0  0  0  0  0  0  0  0  0
   59.8740   33.6490   48.7730 C   0  0  0  0  0  0  0  0  0  0  0  0
   58.9420   32.6110   48.6170 C   0  0  0  0  0  0  0  0  0  0  0  0
   58.2310   32.4760   47.4210 C   0  0  0  0  0  0  0  0  0  0  0  0
   58.4540   33.3670   46.3640 C   0  0  0  0  0  0  0  0  0  0  0  0
   57.5710   33.1730   44.8530 S   0  0  0  0  0  0  0  0  0  0  0  0
   58.5140   33.1600   43.6820 O   0  0  0  0  0  0  0  0  0  0  0  0
   56.6180   34.3240   44.7000 O   0  0  0  0  0  0  0  0  0  0  0  0
   56.6760   31.6860   44.8770 N   0  0  0  0  0  0  0  0  0  0  0  0
   57.2900   30.3830   44.8200 C   0  0  0  0  0  0  0  0  0  0  0  0
   58.6700   30.2320   44.5930 C   0  0  0  0  0  0  0  0  0  0  0  0
   59.2490   28.9610   44.5500 C   0  0  0  0  0  0  0  0  0  0  0  0
   58.4570   27.8150   44.7220 C   0  0  0  0  0  0  0  0  0  0  0  0
   59.0080   26.4920   44.6780 N   0  0  0  0  0  0  0  0  0  0  0  0
   58.6760   25.2300   45.8200 S   0  0  0  0  0  0  0  0  0  0  0  0
   57.8580   25.7890   46.9480 O   0  0  0  0  0  0  0  0  0  0  0  0
   59.9760   24.7160   46.3740 O   0  0  0  0  0  0  0  0  0  0  0  0
   57.7620   23.9300   45.0410 C   0  0  0  0  0  0  0  0  0  0  0  0
   58.4510   22.8400   44.4860 C   0  0  0  0  0  0  0  0  0  0  0  0
   57.7520   21.8080   43.8530 C   0  0  0  0  0  0  0  0  0  0  0  0
   56.3600   21.8520   43.7710 C   0  0  0  0  0  0  0  0  0  0  0  0
   55.6610   22.9280   44.3240 C   0  0  0  0  0  0  0  0  0  0  0  0
   56.3520   23.9700   44.9600 C   0  0  0  0  0  0  0  0  0  0  0  0
   55.5930   25.0610   45.5200 C   0  0  0  0  0  0  0  0  0  0  0  0
   54.9820   25.9360   45.9690 N   0  0  0  0  0  0  0  0  0  0  0  0
   57.0840   27.9600   44.9410 C   0  0  0  0  0  0  0  0  0  0  0  0
   56.5000   29.2300   44.9890 C   0  0  0  0  0  0  0  0  0  0  0  0
   55.1310   29.3370   45.2130 O   0  0  0  0  0  0  0  0  0  0  0  0
   59.3930   34.3980   46.5120 C   0  0  0  0  0  0  0  0  0  0  0  0
   60.1040   34.5340   47.7080 C   0  0  0  0  0  0  0  0  0  0  0  0
   59.9891   33.6662   50.9048 H   0  0  0  0  0  0  0  0  0  0  0  0
   61.4239   32.9724   50.0761 H   0  0  0  0  0  0  0  0  0  0  0  0
   61.1585   34.7490   50.0761 H   0  0  0  0  0  0  0  0  0  0  0  0
   58.7704   31.9008   49.4393 H   0  0  0  0  0  0  0  0  0  0  0  0
   57.4939   31.6671   47.3098 H   0  0  0  0  0  0  0  0  0  0  0  0
   55.6460   31.7630   45.0320 H   0  0  0  0  0  0  0  0  0  0  0  0
   59.2991   31.1226   44.4480 H   0  0  0  0  0  0  0  0  0  0  0  0
   60.3310   28.8580   44.3805 H   0  0  0  0  0  0  0  0  0  0  0  0
   59.5483   22.7977   44.5496 H   0  0  0  0  0  0  0  0  0  0  0  0
   58.3008   20.9594   43.4186 H   0  0  0  0  0  0  0  0  0  0  0  0
   55.8127   21.0394   43.2709 H   0  0  0  0  0  0  0  0  0  0  0  0
   54.5633   22.9582   44.2603 H   0  0  0  0  0  0  0  0  0  0  0  0
   56.4568   27.0666   45.0769 H   0  0  0  0  0  0  0  0  0  0  0  0
   59.5705   35.1014   45.6851 H   0  0  0  0  0  0  0  0  0  0  0  0
   60.8470   35.3381   47.8149 H   0  0  0  0  0  0  0  0  0  0  0  0
  1  2  1  0
  2  3  2  0
  3  4  1  0
  4  5  2  0
  5  6  1  0
  6  7  2  0
  6  8  2  0
  6  9  1  0
  9 10  1  0
 10 11  2  0
 11 12  1  0
 12 13  2  0
 13 14  1  0
 14 15  1  0
 15 16  2  0
 15 17  2  0
 15 18  1  0
 18 19  2  0
 19 20  1  0
 20 21  2  0
 21 22  1  0
 22 23  2  0
 23 24  1  0
 24 25  3  0
 13 26  1  0
 26 27  2  0
 27 28  1  0
  5 29  1  0
 29 30  2  0
 30  2  1  0
 27 10  1  0
 23 18  1  0
  1 31  1  0
  1 32  1  0
  1 33  1  0
  3 34  1  0
  4 35  1  0
  9 36  1  0
 11 37  1  0
 12 38  1  0
 19 39  1  0
 20 40  1  0
 21 41  1  0
 22 42  1  0
 26 43  1  0
 29 44  1  0
 30 45  1  0
M  CHG  2  14  -1  28  -1
M  END
>  <UniqueID>  (59) 
52

>  <SMILES>  (59) 
Cc1ccc(S(=O)(=O)Nc2ccc([N-]S(=O)(=O)c3ccccc3C#N)cc2[O-])cc1

>  <Energy>  (59) 
53.85595612869729

>  <Genealogy>  (59) 
Cc1ccc(S(=O)(=O)Nc2ccc([N-]S(=O)(=O)c3ccccc3C#N)cc2[O-])cc1 (protonated)
Cc1ccc(S(=O)(=O)Nc2ccc([N-]S(=O)(=O)c3ccccc3C#N)cc2[O-])cc1 (3D coordinates assigned)
Cc1ccc(S(=O)(=O)Nc2ccc([N-]S(=O)(=O)c3ccccc3C#N)cc2[O-])cc1 (optimized conformer: 53.85595612869729 kcal/mol)

>  <smiles>  (59) 
Cc1ccc(S(=O)(=O)Nc2ccc(NS(=O)(=O)c3ccccc3C#N)cc2O)cc1

>  <score_type>  (59) 
oracle

>  <origin>  (59) 
adg

>  <m_score__min__energy>  (59) 
-14.890000000000001

>  <m_primary>  (59) 
energy

$$$$
59:0
     RDKit          3D

 42 44  0  0  0  0  0  0  0  0999 V2000
   59.5240   26.4590   46.4290 C   0  0  0  0  0  0  0  0  0  0  0  0
   58.2110   25.7380   46.2880 C   0  0  0  0  0  0  0  0  0  0  0  0
   58.1780   24.3340   46.2720 C   0  0  0  0  0  0  0  0  0  0  0  0
   56.9640   23.6570   46.1230 C   0  0  0  0  0  0  0  0  0  0  0  0
   55.7750   24.3750   45.9940 C   0  0  0  0  0  0  0  0  0  0  0  0
   55.7960   25.7720   46.0030 C   0  0  0  0  0  0  0  0  0  0  0  0
   57.0120   26.4620   46.1280 C   0  0  0  0  0  0  0  0  0  0  0  0
   57.0400   27.8970   46.1490 N   0  0  0  0  0  0  0  0  0  0  0  0
   56.5960   28.7700   45.1010 C   0  0  0  0  0  0  0  0  0  0  0  0
   55.4740   29.3300   45.2300 O   0  0  0  0  0  0  0  0  0  0  0  0
   57.4500   29.0940   43.8800 C   0  0  1  0  0  0  0  0  0  0  0  0
   57.7810   27.8640   43.0080 C   0  0  0  0  0  0  0  0  0  0  0  0
   56.9050   30.2450   43.0740 C   0  0  0  0  0  0  0  0  0  0  0  0
   58.1750   30.9100   43.4870 C   0  0  0  0  0  0  0  0  0  0  0  0
   58.6970   29.7870   44.2880 N   0  0  0  0  0  0  0  0  0  0  0  0
   59.7840   29.5980   45.1970 C   0  0  0  0  0  0  0  0  0  0  0  0
   60.8720   29.1260   44.7740 O   0  0  0  0  0  0  0  0  0  0  0  0
   59.6660   30.0010   46.6040 C   0  0  0  0  0  0  0  0  0  0  0  0
   60.4830   31.0240   47.1070 C   0  0  0  0  0  0  0  0  0  0  0  0
   60.3490   31.4130   48.4410 C   0  0  0  0  0  0  0  0  0  0  0  0
   59.4170   30.7760   49.2600 C   0  0  0  0  0  0  0  0  0  0  0  0
   58.6330   29.7480   48.7310 C   0  0  0  0  0  0  0  0  0  0  0  0
   58.7760   29.3790   47.4290 N   0  0  0  0  0  0  0  0  0  0  0  0
   59.7588   26.5879   47.4959 H   0  0  0  0  0  0  0  0  0  0  0  0
   60.3189   25.8708   45.9471 H   0  0  0  0  0  0  0  0  0  0  0  0
   59.4543   27.4454   45.9471 H   0  0  0  0  0  0  0  0  0  0  0  0
   59.1128   23.7638   46.3773 H   0  0  0  0  0  0  0  0  0  0  0  0
   56.9463   22.5573   46.1075 H   0  0  0  0  0  0  0  0  0  0  0  0
   54.8197   23.8407   45.8851 H   0  0  0  0  0  0  0  0  0  0  0  0
   54.8548   26.3340   45.9117 H   0  0  0  0  0  0  0  0  0  0  0  0
   58.0119   27.0061   43.6566 H   0  0  0  0  0  0  0  0  0  0  0  0
   56.9162   27.6213   42.3730 H   0  0  0  0  0  0  0  0  0  0  0  0
   58.6508   28.0881   42.3730 H   0  0  0  0  0  0  0  0  0  0  0  0
   56.7960   30.0591   41.9953 H   0  0  0  0  0  0  0  0  0  0  0  0
   55.9067   30.6815   43.2255 H   0  0  0  0  0  0  0  0  0  0  0  0
   58.8214   31.1560   42.6316 H   0  0  0  0  0  0  0  0  0  0  0  0
   58.0857   31.8828   43.9928 H   0  0  0  0  0  0  0  0  0  0  0  0
   61.2221   31.5150   46.4568 H   0  0  0  0  0  0  0  0  0  0  0  0
   60.9772   32.2203   48.8454 H   0  0  0  0  0  0  0  0  0  0  0  0
   59.3006   31.0797   50.3108 H   0  0  0  0  0  0  0  0  0  0  0  0
   57.8979   29.2353   49.3687 H   0  0  0  0  0  0  0  0  0  0  0  0
   58.2000   28.5850   47.0680 H   0  0  0  0  0  0  0  0  0  0  0  0
  1  2  1  0
  2  3  2  0
  3  4  1  0
  4  5  2  0
  5  6  1  0
  6  7  2  0
  7  8  1  0
  8  9  1  0
  9 10  2  0
  9 11  1  0
 11 12  1  6
 11 13  1  0
 13 14  1  0
 14 15  1  0
 15 16  1  0
 16 17  2  0
 16 18  1  0
 18 19  2  0
 19 20  1  0
 20 21  2  0
 21 22  1  0
 22 23  2  0
  7  2  1  0
 15 11  1  0
 23 18  1  0
  1 24  1  0
  1 25  1  0
  1 26  1  0
  3 27  1  0
  4 28  1  0
  5 29  1  0
  6 30  1  0
 12 31  1  0
 12 32  1  0
 12 33  1  0
 13 34  1  0
 13 35  1  0
 14 36  1  0
 14 37  1  0
 19 38  1  0
 20 39  1  0
 21 40  1  0
 22 41  1  0
 23 42  1  0
M  CHG  2   8  -1  23   1
M  END
>  <UniqueID>  (60) 
53

>  <SMILES>  (60) 
Cc1ccccc1[N-]C(=O)[C@@]1(C)CCN1C(=O)c1cccc[nH+]1

>  <Energy>  (60) 
99.24774731946911

>  <Genealogy>  (60) 
Cc1ccccc1[N-]C(=O)C1(C)CCN1C(=O)c1cccc[nH+]1 (protonated)
Cc1ccccc1[N-]C(=O)[C@@]1(C)CCN1C(=O)c1cccc[nH+]1 (chirality)
Cc1ccccc1[N-]C(=O)[C@@]1(C)CCN1C(=O)c1cccc[nH+]1 (3D coordinates assigned)
Cc1ccccc1[N-]C(=O)[C@@]1(C)CCN1C(=O)c1cccc[nH+]1 (nonaromatic ring conformer: 99.24774731946911 kcal/mol)

>  <smiles>  (60) 
Cc1ccccc1NC(=O)C1(C)CCN1C(=O)c1ccccn1

>  <score_type>  (60) 
oracle

>  <origin>  (60) 
adg

>  <m_score__min__energy>  (60) 
-8

>  <m_primary>  (60) 
energy

$$$$
60:0
     RDKit          3D

 47 49  0  0  0  0  0  0  0  0999 V2000
   56.1740   31.1980   52.2420 C   0  0  0  0  0  0  0  0  0  0  0  0
   57.4870   31.3170   51.5280 C   0  0  0  0  0  0  0  0  0  0  0  0
   58.1330   32.5570   51.4310 C   0  0  0  0  0  0  0  0  0  0  0  0
   59.3880   32.6580   50.8130 C   0  0  0  0  0  0  0  0  0  0  0  0
   60.0100   31.5160   50.2830 C   0  0  0  0  0  0  0  0  0  0  0  0
   61.3200   31.6030   49.6840 N   0  0  0  0  0  0  0  0  0  0  0  0
   61.4010   32.7260   48.7350 C   0  0  0  0  0  0  0  0  0  0  0  0
   61.5810   32.2440   47.3120 C   0  0  0  0  0  0  0  0  0  0  0  0
   61.8890   33.0830   46.4250 O   0  0  0  0  0  0  0  0  0  0  0  0
   61.5490   30.8540   46.9580 N   0  0  0  0  0  0  0  0  0  0  0  0
   60.3830   30.0400   46.7550 C   0  0  0  0  0  0  0  0  0  0  0  0
   60.3090   28.7960   47.3900 C   0  0  0  0  0  0  0  0  0  0  0  0
   59.1850   27.9850   47.2220 C   0  0  0  0  0  0  0  0  0  0  0  0
   58.1370   28.4050   46.4030 C   0  0  0  0  0  0  0  0  0  0  0  0
   58.2290   29.6240   45.7120 C   0  0  0  0  0  0  0  0  0  0  0  0
   56.9130   30.1340   44.6590 S   0  0  0  0  0  0  0  0  0  0  0  0
   57.2410   29.8700   43.2140 O   0  0  0  0  0  0  0  0  0  0  0  0
   55.6800   29.3560   45.0320 O   0  0  0  0  0  0  0  0  0  0  0  0
   56.5900   31.8270   44.8710 N   0  0  0  0  0  0  0  0  0  0  0  0
   57.3810   32.7120   45.4020 C   0  0  0  0  0  0  0  0  0  0  0  0
   58.1510   33.6010   44.6310 C   0  0  0  0  0  0  0  0  0  0  0  0
   58.9810   34.5190   45.2750 C   0  0  0  0  0  0  0  0  0  0  0  0
   59.0490   34.5480   46.6660 C   0  0  0  0  0  0  0  0  0  0  0  0
   58.2740   33.6570   47.4000 C   0  0  0  0  0  0  0  0  0  0  0  0
   57.4670   32.7730   46.7590 N   0  0  0  0  0  0  0  0  0  0  0  0
   59.3610   30.4330   45.8770 C   0  0  0  0  0  0  0  0  0  0  0  0
   59.3510   30.2800   50.3660 C   0  0  0  0  0  0  0  0  0  0  0  0
   58.1090   30.1770   51.0000 C   0  0  0  0  0  0  0  0  0  0  0  0
   56.3448   31.2135   53.3286 H   0  0  0  0  0  0  0  0  0  0  0  0
   55.5259   32.0411   51.9606 H   0  0  0  0  0  0  0  0  0  0  0  0
   55.6880   30.2521   51.9606 H   0  0  0  0  0  0  0  0  0  0  0  0
   57.6525   33.4570   51.8423 H   0  0  0  0  0  0  0  0  0  0  0  0
   59.8871   33.6358   50.7432 H   0  0  0  0  0  0  0  0  0  0  0  0
   61.5730   30.7110   49.2030 H   0  0  0  0  0  0  0  0  0  0  0  0
   62.0270   31.7620   50.4410 H   0  0  0  0  0  0  0  0  0  0  0  0
   60.4731   33.3135   48.7978 H   0  0  0  0  0  0  0  0  0  0  0  0
   62.2743   33.3389   49.0026 H   0  0  0  0  0  0  0  0  0  0  0  0
   61.1402   28.4550   48.0247 H   0  0  0  0  0  0  0  0  0  0  0  0
   59.1259   27.0142   47.7359 H   0  0  0  0  0  0  0  0  0  0  0  0
   57.2374   27.7806   46.2983 H   0  0  0  0  0  0  0  0  0  0  0  0
   58.0995   33.5729   43.5326 H   0  0  0  0  0  0  0  0  0  0  0  0
   59.5840   35.2225   44.6821 H   0  0  0  0  0  0  0  0  0  0  0  0
   59.7071   35.2662   47.1770 H   0  0  0  0  0  0  0  0  0  0  0  0
   58.3146   33.6683   48.4992 H   0  0  0  0  0  0  0  0  0  0  0  0
   59.4488   31.3764   45.3182 H   0  0  0  0  0  0  0  0  0  0  0  0
   59.8156   29.3841   49.9284 H   0  0  0  0  0  0  0  0  0  0  0  0
   57.6175   29.1966   51.0849 H   0  0  0  0  0  0  0  0  0  0  0  0
  1  2  1  0
  2  3  2  0
  3  4  1  0
  4  5  2  0
  5  6  1  0
  6  7  1  0
  7  8  1  0
  8  9  2  0
  8 10  1  0
 10 11  1  0
 11 12  2  0
 12 13  1  0
 13 14  2  0
 14 15  1  0
 15 16  1  0
 16 17  2  0
 16 18  2  0
 16 19  1  0
 19 20  2  3
 20 21  1  0
 21 22  2  0
 22 23  1  0
 23 24  2  0
 24 25  1  0
 15 26  2  0
  5 27  1  0
 27 28  2  0
 28  2  1  0
 26 11  1  0
 25 20  1  0
  1 29  1  0
  1 30  1  0
  1 31  1  0
  3 32  1  0
  4 33  1  0
  6 34  1  0
  6 35  1  0
  7 36  1  0
  7 37  1  0
 12 38  1  0
 13 39  1  0
 14 40  1  0
 21 41  1  0
 22 42  1  0
 23 43  1  0
 24 44  1  0
 26 45  1  0
 27 46  1  0
 28 47  1  0
M  CHG  3   6   1  10  -1  25  -1
M  END
>  <UniqueID>  (61) 
54

>  <SMILES>  (61) 
Cc1ccc([NH2+]CC(=O)[N-]c2cccc(S(=O)(=O)N=c3cccc[n-]3)c2)cc1

>  <Energy>  (61) 
55.39269275149922

>  <Genealogy>  (61) 
Cc1ccc([NH2+]CC(=O)[N-]c2cccc(S(=O)(=O)N=c3cccc[n-]3)c2)cc1 (protonated)
Cc1ccc([NH2+]CC(=O)[N-]c2cccc(S(=O)(=O)N=c3cccc[n-]3)c2)cc1 (3D coordinates assigned)
Cc1ccc([NH2+]CC(=O)[N-]c2cccc(S(=O)(=O)N=c3cccc[n-]3)c2)cc1 (optimized conformer: 55.39269275149922 kcal/mol)

>  <smiles>  (61) 
Cc1ccc(NCC(=O)Nc2cccc(S(=O)(=O)N=c3cccc[nH]3)c2)cc1

>  <score_type>  (61) 
oracle

>  <origin>  (61) 
adg

>  <m_score__min__energy>  (61) 
-10.42

>  <m_primary>  (61) 
energy

$$$$
61:0
     RDKit          3D

 51 52  0  0  0  0  0  0  0  0999 V2000
   62.2290   29.7830   50.8040 C   0  0  0  0  0  0  0  0  0  0  0  0
   62.9960   31.0700   51.1470 C   0  0  0  0  0  0  0  0  0  0  0  0
   64.5050   30.7640   51.1750 C   0  0  0  0  0  0  0  0  0  0  0  0
   62.6900   32.2280   50.1530 C   0  0  1  0  0  0  0  0  0  0  0  0
   62.5980   33.6090   50.8550 C   0  0  0  0  0  0  0  0  0  0  0  0
   63.0180   34.6400   50.0020 O   0  0  0  0  0  0  0  0  0  0  0  0
   63.7400   32.2490   49.1130 N   0  0  0  0  0  0  0  0  0  0  0  0
   63.3550   31.5310   47.8890 C   0  0  0  0  0  0  0  0  0  0  0  0
   62.1610   32.1990   47.2430 C   0  0  0  0  0  0  0  0  0  0  0  0
   61.0870   31.3780   46.8570 C   0  0  0  0  0  0  0  0  0  0  0  0
   59.9290   31.9190   46.2750 C   0  0  0  0  0  0  0  0  0  0  0  0
   58.7940   31.0400   45.8970 C   0  0  0  0  0  0  0  0  0  0  0  0
   57.8800   31.4400   44.9100 C   0  0  0  0  0  0  0  0  0  0  0  0
   56.8060   30.6160   44.5670 C   0  0  0  0  0  0  0  0  0  0  0  0
   56.6310   29.3800   45.1970 C   0  0  0  0  0  0  0  0  0  0  0  0
   55.5170   28.6200   44.8680 O   0  0  0  0  0  0  0  0  0  0  0  0
   57.5600   28.9470   46.1670 C   0  0  0  0  0  0  0  0  0  0  0  0
   57.4520   27.6880   46.8490 N   0  0  0  0  0  0  0  0  0  0  0  0
   56.8330   26.2060   46.1930 S   0  0  0  0  0  0  0  0  0  0  0  0
   57.5470   25.8890   44.5920 C   0  0  0  0  0  0  0  0  0  0  0  0
   55.3340   26.2600   46.1050 O   0  0  0  0  0  0  0  0  0  0  0  0
   57.2240   25.0800   47.1080 O   0  0  0  0  0  0  0  0  0  0  0  0
   58.6180   29.7940   46.5240 C   0  0  0  0  0  0  0  0  0  0  0  0
   59.8570   33.3040   46.0650 C   0  0  0  0  0  0  0  0  0  0  0  0
   60.9130   34.1310   46.4500 C   0  0  0  0  0  0  0  0  0  0  0  0
   62.0580   33.6010   47.0520 C   0  0  0  0  0  0  0  0  0  0  0  0
   63.0510   34.5010   47.4480 O   0  0  0  0  0  0  0  0  0  0  0  0
   61.9275   29.2772   51.7331 H   0  0  0  0  0  0  0  0  0  0  0  0
   61.3337   30.0352   50.2167 H   0  0  0  0  0  0  0  0  0  0  0  0
   62.8768   29.1156   50.2167 H   0  0  0  0  0  0  0  0  0  0  0  0
   62.6622   31.4129   52.1375 H   0  0  0  0  0  0  0  0  0  0  0  0
   64.8458   30.6949   52.2186 H   0  0  0  0  0  0  0  0  0  0  0  0
   64.6950   29.8090   50.6632 H   0  0  0  0  0  0  0  0  0  0  0  0
   65.0520   31.5695   50.6632 H   0  0  0  0  0  0  0  0  0  0  0  0
   61.7039   32.0418   49.7025 H   0  0  0  0  0  0  0  0  0  0  0  0
   61.5548   33.7917   51.1523 H   0  0  0  0  0  0  0  0  0  0  0  0
   63.2557   33.5963   51.7366 H   0  0  0  0  0  0  0  0  0  0  0  0
   62.9390   34.2920   49.0750 H   0  0  0  0  0  0  0  0  0  0  0  0
   63.9920   33.2360   48.8690 H   0  0  0  0  0  0  0  0  0  0  0  0
   64.1994   31.5364   47.1841 H   0  0  0  0  0  0  0  0  0  0  0  0
   63.0889   30.4960   48.1496 H   0  0  0  0  0  0  0  0  0  0  0  0
   61.1550   30.2914   47.0138 H   0  0  0  0  0  0  0  0  0  0  0  0
   58.0103   32.4079   44.4038 H   0  0  0  0  0  0  0  0  0  0  0  0
   56.0925   30.9416   43.7957 H   0  0  0  0  0  0  0  0  0  0  0  0
   58.5458   25.4455   44.7173 H   0  0  0  0  0  0  0  0  0  0  0  0
   56.9036   25.1920   44.0351 H   0  0  0  0  0  0  0  0  0  0  0  0
   57.6325   26.8337   44.0351 H   0  0  0  0  0  0  0  0  0  0  0  0
   59.3224   29.4787   47.3078 H   0  0  0  0  0  0  0  0  0  0  0  0
   58.9636   33.7404   45.5945 H   0  0  0  0  0  0  0  0  0  0  0  0
   60.8435   35.2151   46.2774 H   0  0  0  0  0  0  0  0  0  0  0  0
   63.8400   34.2620   48.0300 H   0  0  0  0  0  0  0  0  0  0  0  0
  1  2  1  0
  2  3  1  0
  2  4  1  0
  4  5  1  0
  5  6  1  0
  4  7  1  0
  7  8  1  0
  8  9  1  0
  9 10  2  0
 10 11  1  0
 11 12  1  0
 12 13  2  0
 13 14  1  0
 14 15  2  0
 15 16  1  0
 15 17  1  0
 17 18  1  0
 18 19  1  0
 19 20  1  0
 19 21  2  0
 19 22  2  0
 17 23  2  0
 11 24  2  0
 24 25  1  0
 25 26  2  0
 26 27  1  0
 26  9  1  0
 23 12  1  0
  1 28  1  0
  1 29  1  0
  1 30  1  0
  2 31  1  0
  3 32  1  0
  3 33  1  0
  3 34  1  0
  4 35  1  6
  5 36  1  0
  5 37  1  0
  6 38  1  0
  7 39  1  0
  8 40  1  0
  8 41  1  0
 10 42  1  0
 13 43  1  0
 14 44  1  0
 20 45  1  0
 20 46  1  0
 20 47  1  0
 23 48  1  0
 24 49  1  0
 25 50  1  0
 27 51  1  0
M  CHG  2  16  -1  18  -1
M  END
>  <UniqueID>  (62) 
55

>  <SMILES>  (62) 
CC(C)[C@@H](CO)NCc1cc(-c2ccc([O-])c([N-]S(C)(=O)=O)c2)ccc1O

>  <Energy>  (62) 
57.714589443048645

>  <Genealogy>  (62) 
CC(C)C(CO)NCc1cc(-c2ccc([O-])c([N-]S(C)(=O)=O)c2)ccc1O (protonated)
CC(C)[C@@H](CO)NCc1cc(-c2ccc([O-])c([N-]S(C)(=O)=O)c2)ccc1O (chirality)
CC(C)[C@@H](CO)NCc1cc(-c2ccc([O-])c([N-]S(C)(=O)=O)c2)ccc1O (3D coordinates assigned)
CC(C)[C@@H](CO)NCc1cc(-c2ccc([O-])c([N-]S(C)(=O)=O)c2)ccc1O (optimized conformer: 57.714589443048645 kcal/mol)

>  <smiles>  (62) 
CC(C)C(CO)NCc1cc(-c2ccc(O)c(NS(C)(=O)=O)c2)ccc1O

>  <score_type>  (62) 
oracle

>  <origin>  (62) 
adg

>  <m_score__min__energy>  (62) 
-11.08

>  <m_primary>  (62) 
energy

$$$$
62:0
     RDKit          3D

 47 49  0  0  0  0  0  0  0  0999 V2000
   58.0100   27.3090   43.1550 C   0  0  0  0  0  0  0  0  0  0  0  0
   57.9910   28.3920   44.1370 N   0  0  0  0  0  0  0  0  0  0  0  0
   58.6780   28.2290   45.3880 C   0  0  0  0  0  0  0  0  0  0  0  0
   59.6670   27.2460   45.5290 C   0  0  0  0  0  0  0  0  0  0  0  0
   60.3120   27.0640   46.7550 C   0  0  0  0  0  0  0  0  0  0  0  0
   59.9740   27.8650   47.8490 C   0  0  0  0  0  0  0  0  0  0  0  0
   58.9980   28.8630   47.7240 C   0  0  0  0  0  0  0  0  0  0  0  0
   58.6430   29.6500   48.8750 N   0  0  0  0  0  0  0  0  0  0  0  0
   59.4420   30.7410   49.3700 C   0  0  0  0  0  0  0  0  0  0  0  0
   60.6060   30.9190   48.9220 O   0  0  0  0  0  0  0  0  0  0  0  0
   58.9260   31.6670   50.4080 C   0  0  0  0  0  0  0  0  0  0  0  0
   57.7980   31.3480   51.1880 C   0  0  0  0  0  0  0  0  0  0  0  0
   57.3370   32.2390   52.1620 C   0  0  0  0  0  0  0  0  0  0  0  0
   57.9950   33.4530   52.3720 C   0  0  0  0  0  0  0  0  0  0  0  0
   59.1220   33.7750   51.6140 C   0  0  0  0  0  0  0  0  0  0  0  0
   59.5890   32.8870   50.6400 C   0  0  0  0  0  0  0  0  0  0  0  0
   58.3360   29.0250   46.4950 C   0  0  0  0  0  0  0  0  0  0  0  0
   57.0580   29.8320   43.8310 S   0  0  0  0  0  0  0  0  0  0  0  0
   56.1210   30.0820   44.9800 O   0  0  0  0  0  0  0  0  0  0  0  0
   56.2390   29.6640   42.5820 O   0  0  0  0  0  0  0  0  0  0  0  0
   58.1380   31.2390   43.6260 C   0  0  0  0  0  0  0  0  0  0  0  0
   58.1400   32.0920   44.8640 C   0  0  0  0  0  0  0  0  0  0  0  0
   59.2160   32.0330   45.7630 C   0  0  0  0  0  0  0  0  0  0  0  0
   59.2420   32.8690   46.8850 C   0  0  0  0  0  0  0  0  0  0  0  0
   58.1960   33.7680   47.1140 C   0  0  0  0  0  0  0  0  0  0  0  0
   57.1220   33.8310   46.2220 C   0  0  0  0  0  0  0  0  0  0  0  0
   57.0910   32.9960   45.1020 C   0  0  0  0  0  0  0  0  0  0  0  0
   58.0270   26.3409   43.6771 H   0  0  0  0  0  0  0  0  0  0  0  0
   57.1106   27.3699   42.5246 H   0  0  0  0  0  0  0  0  0  0  0  0
   58.9067   27.4014   42.5246 H   0  0  0  0  0  0  0  0  0  0  0  0
   59.9369   26.6144   44.6698 H   0  0  0  0  0  0  0  0  0  0  0  0
   61.0863   26.2897   46.8591 H   0  0  0  0  0  0  0  0  0  0  0  0
   60.4774   27.7112   48.8149 H   0  0  0  0  0  0  0  0  0  0  0  0
   57.7730   29.3770   49.3830 H   0  0  0  0  0  0  0  0  0  0  0  0
   57.2765   30.3924   51.0302 H   0  0  0  0  0  0  0  0  0  0  0  0
   56.4532   31.9830   52.7648 H   0  0  0  0  0  0  0  0  0  0  0  0
   57.6254   34.1548   53.1341 H   0  0  0  0  0  0  0  0  0  0  0  0
   59.6435   34.7286   51.7831 H   0  0  0  0  0  0  0  0  0  0  0  0
   60.4815   33.1438   50.0504 H   0  0  0  0  0  0  0  0  0  0  0  0
   57.5432   29.7814   46.3984 H   0  0  0  0  0  0  0  0  0  0  0  0
   59.1606   30.8839   43.4305 H   0  0  0  0  0  0  0  0  0  0  0  0
   57.7757   31.8429   42.7810 H   0  0  0  0  0  0  0  0  0  0  0  0
   60.0412   31.3277   45.5853 H   0  0  0  0  0  0  0  0  0  0  0  0
   60.0867   32.8187   47.5878 H   0  0  0  0  0  0  0  0  0  0  0  0
   58.2184   34.4253   47.9957 H   0  0  0  0  0  0  0  0  0  0  0  0
   56.2997   34.5391   46.4019 H   0  0  0  0  0  0  0  0  0  0  0  0
   56.2423   33.0466   44.4041 H   0  0  0  0  0  0  0  0  0  0  0  0
  1  2  1  0
  2  3  1  0
  3  4  2  0
  4  5  1  0
  5  6  2  0
  6  7  1  0
  7  8  1  0
  8  9  1  0
  9 10  2  0
  9 11  1  0
 11 12  2  0
 12 13  1  0
 13 14  2  0
 14 15  1  0
 15 16  2  0
  7 17  2  0
  2 18  1  0
 18 19  2  0
 18 20  2  0
 18 21  1  0
 21 22  1  0
 22 23  2  0
 23 24  1  0
 24 25  2  0
 25 26  1  0
 26 27  2  0
 17  3  1  0
 27 22  1  0
 16 11  1  0
  1 28  1  0
  1 29  1  0
  1 30  1  0
  4 31  1  0
  5 32  1  0
  6 33  1  0
  8 34  1  0
 12 35  1  0
 13 36  1  0
 14 37  1  0
 15 38  1  0
 16 39  1  0
 17 40  1  0
 21 41  1  0
 21 42  1  0
 23 43  1  0
 24 44  1  0
 25 45  1  0
 26 46  1  0
 27 47  1  0
M  END
>  <UniqueID>  (63) 
56

>  <SMILES>  (63) 
CN(c1cccc(NC(=O)c2ccccc2)c1)S(=O)(=O)Cc1ccccc1

>  <Energy>  (63) 
54.57382945067492

>  <Genealogy>  (63) 
CN(c1cccc(NC(=O)c2ccccc2)c1)S(=O)(=O)Cc1ccccc1 (3D coordinates assigned)
CN(c1cccc(NC(=O)c2ccccc2)c1)S(=O)(=O)Cc1ccccc1 (optimized conformer: 54.57382945067492 kcal/mol)

>  <smiles>  (63) 
CN(c1cccc(NC(=O)c2ccccc2)c1)S(=O)(=O)Cc1ccccc1

>  <score_type>  (63) 
oracle

>  <origin>  (63) 
adg

>  <m_score__min__energy>  (63) 
-8.8699999999999992

>  <m_primary>  (63) 
energy

$$$$
63:0
     RDKit          3D

 48 51  0  0  0  0  0  0  0  0999 V2000
   58.2000   29.7550   50.1650 C   0  0  0  0  0  0  0  0  0  0  0  0
   57.3210   29.9400   51.2680 O   0  0  0  0  0  0  0  0  0  0  0  0
   57.5900   30.7630   52.3750 C   0  0  0  0  0  0  0  0  0  0  0  0
   58.1690   32.0360   52.2320 C   0  0  0  0  0  0  0  0  0  0  0  0
   58.4490   32.8370   53.3520 C   0  0  0  0  0  0  0  0  0  0  0  0
   59.0720   34.1220   53.1600 N   0  0  0  0  0  0  0  0  0  0  0  0
   60.1990   34.1980   52.6290 O   0  0  0  0  0  0  0  0  0  0  0  0
   58.5200   35.2570   53.7070 O   0  0  0  0  0  0  0  0  0  0  0  0
   58.1090   32.3620   54.6420 C   0  0  0  0  0  0  0  0  0  0  0  0
   58.3280   33.1920   55.8790 C   0  0  0  0  0  0  0  0  0  0  0  0
   57.5430   31.0850   54.7790 C   0  0  0  0  0  0  0  0  0  0  0  0
   57.2800   30.2900   53.6590 C   0  0  0  0  0  0  0  0  0  0  0  0
   56.6500   29.0080   53.8310 N   0  0  0  0  0  0  0  0  0  0  0  0
   57.2440   27.8830   54.3010 C   0  0  0  0  0  0  0  0  0  0  0  0
   58.5760   27.7850   54.6980 O   0  0  0  0  0  0  0  0  0  0  0  0
   56.3420   26.8440   54.3010 C   0  0  0  0  0  0  0  0  0  0  0  0
   56.4810   25.5140   54.6960 C   0  0  0  0  0  0  0  0  0  0  0  0
   55.3540   24.6800   54.5910 C   0  0  0  0  0  0  0  0  0  0  0  0
   54.1300   25.1870   54.1030 C   0  0  0  0  0  0  0  0  0  0  0  0
   54.0210   26.5350   53.7100 C   0  0  0  0  0  0  0  0  0  0  0  0
   55.1590   27.3380   53.8110 C   0  0  0  0  0  0  0  0  0  0  0  0
   55.3630   28.6810   53.5250 C   0  0  0  0  0  0  0  0  0  0  0  0
   54.3520   29.6210   52.9930 C   0  0  0  0  0  0  0  0  0  0  0  0
   53.2930   30.0570   53.8030 C   0  0  0  0  0  0  0  0  0  0  0  0
   52.3620   30.9770   53.3140 C   0  0  0  0  0  0  0  0  0  0  0  0
   52.4740   31.4770   52.0050 C   0  0  0  0  0  0  0  0  0  0  0  0
   51.4880   32.4550   51.4930 C   0  0  0  0  0  0  0  0  0  0  0  0
   50.7130   33.0560   52.2830 O   0  0  0  0  0  0  0  0  0  0  0  0
   51.4030   32.7220   50.1320 O   0  0  0  0  0  0  0  0  0  0  0  0
   53.5350   31.0360   51.1960 C   0  0  0  0  0  0  0  0  0  0  0  0
   54.4660   30.1160   51.6860 C   0  0  0  0  0  0  0  0  0  0  0  0
   59.2135   29.5417   50.5356 H   0  0  0  0  0  0  0  0  0  0  0  0
   57.8481   28.9112   49.5532 H   0  0  0  0  0  0  0  0  0  0  0  0
   58.2181   30.6690   49.5532 H   0  0  0  0  0  0  0  0  0  0  0  0
   58.4070   32.4116   51.2259 H   0  0  0  0  0  0  0  0  0  0  0  0
   58.1640   32.5703   56.7715 H   0  0  0  0  0  0  0  0  0  0  0  0
   59.3584   33.5769   55.8846 H   0  0  0  0  0  0  0  0  0  0  0  0
   57.6216   34.0352   55.8846 H   0  0  0  0  0  0  0  0  0  0  0  0
   57.3027   30.7038   55.7824 H   0  0  0  0  0  0  0  0  0  0  0  0
   58.8550   27.2260   55.4940 H   0  0  0  0  0  0  0  0  0  0  0  0
   57.4392   25.1306   55.0766 H   0  0  0  0  0  0  0  0  0  0  0  0
   55.4264   23.6243   54.8914 H   0  0  0  0  0  0  0  0  0  0  0  0
   53.2551   24.5243   54.0292 H   0  0  0  0  0  0  0  0  0  0  0  0
   53.0702   26.9422   53.3356 H   0  0  0  0  0  0  0  0  0  0  0  0
   53.1949   29.6725   54.8289 H   0  0  0  0  0  0  0  0  0  0  0  0
   51.5356   31.3124   53.9579 H   0  0  0  0  0  0  0  0  0  0  0  0
   53.6335   31.4178   50.1691 H   0  0  0  0  0  0  0  0  0  0  0  0
   55.2923   29.7785   51.0431 H   0  0  0  0  0  0  0  0  0  0  0  0
  1  2  1  0
  2  3  1  0
  3  4  2  0
  4  5  1  0
  5  6  1  0
  6  7  2  0
  6  8  1  0
  5  9  2  0
  9 10  1  0
  9 11  1  0
 11 12  2  0
 12 13  1  0
 13 14  1  0
 14 15  1  0
 14 16  2  0
 16 17  1  0
 17 18  2  0
 18 19  1  0
 19 20  2  0
 20 21  1  0
 21 22  2  0
 22 23  1  0
 23 24  2  0
 24 25  1  0
 25 26  2  0
 26 27  1  0
 27 28  2  0
 27 29  1  0
 26 30  1  0
 30 31  2  0
 12  3  1  0
 22 13  1  0
 31 23  1  0
 21 16  1  0
  1 32  1  0
  1 33  1  0
  1 34  1  0
  4 35  1  0
 10 36  1  0
 10 37  1  0
 10 38  1  0
 11 39  1  0
 15 40  1  0
 17 41  1  0
 18 42  1  0
 19 43  1  0
 20 44  1  0
 24 45  1  0
 25 46  1  0
 30 47  1  0
 31 48  1  0
M  CHG  3   6   1   8  -1  29  -1
M  END
>  <UniqueID>  (64) 
57

>  <SMILES>  (64) 
COc1cc([N+](=O)[O-])c(C)cc1-n1c(O)c2ccccc2c1-c1ccc(C(=O)[O-])cc1

>  <Energy>  (64) 
102.59459331884355

>  <Genealogy>  (64) 
COc1cc([N+](=O)[O-])c(C)cc1-n1c(O)c2ccccc2c1-c1ccc(C(=O)[O-])cc1 (protonated)
COc1cc([N+](=O)[O-])c(C)cc1-n1c(O)c2ccccc2c1-c1ccc(C(=O)[O-])cc1 (3D coordinates assigned)
COc1cc([N+](=O)[O-])c(C)cc1-n1c(O)c2ccccc2c1-c1ccc(C(=O)[O-])cc1 (optimized conformer: 102.59459331884355 kcal/mol)

>  <smiles>  (64) 
COc1cc([N+](=O)[O-])c(C)cc1-n1c(O)c2ccccc2c1-c1ccc(C(=O)O)cc1

>  <score_type>  (64) 
oracle

>  <origin>  (64) 
adg

>  <m_score__min__energy>  (64) 
-10.18

>  <m_primary>  (64) 
energy

$$$$
64:0
     RDKit          3D

 31 33  0  0  0  0  0  0  0  0999 V2000
   62.4660   34.5220   49.6170 C   0  0  0  0  0  0  0  0  0  0  0  0
   61.6450   33.8030   48.8440 C   0  0  0  0  0  0  0  0  0  0  0  0
   60.2870   34.1420   48.7410 C   0  0  0  0  0  0  0  0  0  0  0  0
   59.4270   33.3910   47.9340 C   0  0  0  0  0  0  0  0  0  0  0  0
   59.9050   32.2780   47.2060 C   0  0  0  0  0  0  0  0  0  0  0  0
   59.0960   31.5320   46.4170 C   0  0  0  0  0  0  0  0  0  0  0  0
   57.9350   31.9540   45.8570 N   0  0  0  0  0  0  0  0  0  0  0  0
   57.4960   30.8880   45.1680 C   0  0  0  0  0  0  0  0  0  0  0  0
   56.4480   30.8910   44.4700 O   0  0  0  0  0  0  0  0  0  0  0  0
   58.3860   29.8420   45.3270 C   0  0  0  0  0  0  0  0  0  0  0  0
   58.3470   28.6040   44.8150 C   0  0  0  0  0  0  0  0  0  0  0  0
   57.6620   27.4620   45.4570 C   0  0  0  0  0  0  0  0  0  0  0  0
   56.2700   27.4760   45.6170 C   0  0  0  0  0  0  0  0  0  0  0  0
   55.5210   28.5750   45.2140 O   0  0  0  0  0  0  0  0  0  0  0  0
   55.6420   26.4100   46.1780 N   0  0  0  0  0  0  0  0  0  0  0  0
   56.3380   25.3170   46.5790 C   0  0  0  0  0  0  0  0  0  0  0  0
   55.5560   24.0530   47.2520 S   0  0  0  0  0  0  0  0  0  0  0  0
   57.6840   25.2680   46.4080 N   0  0  0  0  0  0  0  0  0  0  0  0
   58.3590   26.3060   45.8500 C   0  0  0  0  0  0  0  0  0  0  0  0
   59.6040   26.2150   45.6810 O   0  0  0  0  0  0  0  0  0  0  0  0
   59.3590   30.2760   46.0950 O   0  0  0  0  0  0  0  0  0  0  0  0
   61.2720   31.9470   47.3180 C   0  0  0  0  0  0  0  0  0  0  0  0
   62.1300   32.6990   48.1260 C   0  0  0  0  0  0  0  0  0  0  0  0
   63.5291   34.2499   49.6925 H   0  0  0  0  0  0  0  0  0  0  0  0
   62.0781   35.3855   50.1773 H   0  0  0  0  0  0  0  0  0  0  0  0
   59.8962   35.0053   49.2995 H   0  0  0  0  0  0  0  0  0  0  0  0
   58.3652   33.6699   47.8649 H   0  0  0  0  0  0  0  0  0  0  0  0
   57.4650   32.8830   45.9090 H   0  0  0  0  0  0  0  0  0  0  0  0
   58.8569   28.4265   43.8566 H   0  0  0  0  0  0  0  0  0  0  0  0
   61.6683   31.0849   46.7616 H   0  0  0  0  0  0  0  0  0  0  0  0
   63.1924   32.4235   48.1995 H   0  0  0  0  0  0  0  0  0  0  0  0
  1  2  2  0
  2  3  1  0
  3  4  2  0
  4  5  1  0
  5  6  2  3
  6  7  1  0
  7  8  1  0
  8  9  2  0
  8 10  1  0
 10 11  2  3
 11 12  1  0
 12 13  2  0
 13 14  1  0
 13 15  1  0
 15 16  1  0
 16 17  2  0
 16 18  1  0
 18 19  1  0
 19 20  2  0
 10 21  1  0
  5 22  1  0
 22 23  2  0
 23  2  1  0
 21  6  1  0
 19 12  1  0
  1 24  1  0
  1 25  1  0
  3 26  1  0
  4 27  1  0
  7 28  1  0
 11 29  1  0
 22 30  1  0
 23 31  1  0
M  CHG  3  14  -1  15  -1  18  -1
M  END
>  <UniqueID>  (65) 
58

>  <SMILES>  (65) 
C=c1ccc(=c2[nH]c(=O)c(=Cc3c([O-])[n-]c(=S)[n-]c3=O)o2)cc1

>  <Energy>  (65) 
83.12978226837747

>  <Genealogy>  (65) 
C=c1ccc(=c2[nH]c(=O)c(=Cc3c([O-])[n-]c(=S)[n-]c3=O)o2)cc1 (protonated)
C=c1ccc(=c2[nH]c(=O)c(=Cc3c([O-])[n-]c(=S)[n-]c3=O)o2)cc1 (3D coordinates assigned)
C=c1ccc(=c2[nH]c(=O)c(=Cc3c([O-])[n-]c(=S)[n-]c3=O)o2)cc1 (optimized conformer: 83.12978226837747 kcal/mol)

>  <smiles>  (65) 
C=c1ccc(=c2[nH]c(=O)c(=Cc3c(O)[nH]c(=S)[nH]c3=O)o2)cc1

>  <score_type>  (65) 
oracle

>  <origin>  (65) 
adg

>  <m_score__min__energy>  (65) 
-14.890000000000001

>  <m_primary>  (65) 
energy

$$$$
65:0
     RDKit          3D

 34 36  0  0  0  0  0  0  0  0999 V2000
   58.5636   21.2599   46.2963 H   0  0  0  0  0  0  0  0  0  0  0  0
   57.5570   21.6970   46.2210 C   0  0  0  0  0  0  0  0  0  0  0  0
   57.2950   22.9870   46.5610 N   0  0  0  0  0  0  0  0  0  0  0  0
   55.9890   23.2890   46.3820 C   0  0  0  0  0  0  0  0  0  0  0  0
   55.4640   24.4530   46.6260 N   0  0  0  0  0  0  0  0  0  0  0  0
   55.9730   25.7220   46.1870 C   0  0  0  0  0  0  0  0  0  0  0  0
   55.1970   26.6970   45.9930 O   0  0  0  0  0  0  0  0  0  0  0  0
   57.3780   25.8520   45.9280 N   0  0  0  0  0  0  0  0  0  0  0  0
   57.9340   24.9720   45.8390 H   0  0  0  0  0  0  0  0  0  0  0  0
   58.0420   27.1020   45.6720 C   0  0  0  0  0  0  0  0  0  0  0  0
   59.4410   27.1290   45.5740 C   0  0  0  0  0  0  0  0  0  0  0  0
   60.0148   26.1972   45.6852 H   0  0  0  0  0  0  0  0  0  0  0  0
   60.1100   28.3320   45.3360 C   0  0  0  0  0  0  0  0  0  0  0  0
   61.2058   28.3409   45.2405 H   0  0  0  0  0  0  0  0  0  0  0  0
   59.3910   29.5230   45.2190 C   0  0  0  0  0  0  0  0  0  0  0  0
   59.9203   30.4655   45.0151 H   0  0  0  0  0  0  0  0  0  0  0  0
   57.9930   29.5210   45.3610 C   0  0  0  0  0  0  0  0  0  0  0  0
   57.2350   30.6970   45.2500 O   0  0  0  0  0  0  0  0  0  0  0  0
   57.7020   31.9940   45.5060 C   0  0  0  0  0  0  0  0  0  0  0  0
   58.1780   32.2980   46.7880 C   0  0  0  0  0  0  0  0  0  0  0  0
   58.1668   31.5267   47.5722 H   0  0  0  0  0  0  0  0  0  0  0  0
   58.6670   33.5750   47.0770 C   0  0  0  0  0  0  0  0  0  0  0  0
   59.0301   33.8085   48.0887 H   0  0  0  0  0  0  0  0  0  0  0  0
   58.6950   34.5560   46.0810 C   0  0  0  0  0  0  0  0  0  0  0  0
   59.0734   35.5630   46.3106 H   0  0  0  0  0  0  0  0  0  0  0  0
   58.2420   34.2560   44.7940 C   0  0  0  0  0  0  0  0  0  0  0  0
   58.2710   35.0257   44.0087 H   0  0  0  0  0  0  0  0  0  0  0  0
   57.7520   32.9800   44.5020 C   0  0  0  0  0  0  0  0  0  0  0  0
   57.4045   32.7454   43.4851 H   0  0  0  0  0  0  0  0  0  0  0  0
   57.3250   28.3090   45.5750 C   0  0  0  0  0  0  0  0  0  0  0  0
   56.2290   28.3003   45.6682 H   0  0  0  0  0  0  0  0  0  0  0  0
   55.1140   21.9820   45.7990 S   0  0  0  0  0  0  0  0  0  0  0  0
   56.4600   20.9700   45.7710 C   0  0  0  0  0  0  0  0  0  0  0  0
   56.4698   19.9172   45.4523 H   0  0  0  0  0  0  0  0  0  0  0  0
  1  2  1  0
  2  3  1  0
  3  4  1  0
  4  5  2  0
  5  6  1  0
  6  7  2  0
  6  8  1  0
  8  9  1  0
  8 10  1  0
 10 11  2  0
 11 12  1  0
 11 13  1  0
 13 14  1  0
 13 15  2  0
 15 16  1  0
 15 17  1  0
 17 18  1  0
 18 19  1  0
 19 20  2  0
 20 21  1  0
 20 22  1  0
 22 23  1  0
 22 24  2  0
 24 25  1  0
 24 26  1  0
 26 27  1  0
 26 28  2  0
 28 29  1  0
 17 30  2  0
 30 31  1  0
  4 32  1  0
 32 33  1  0
 33 34  1  0
 33  2  2  0
 30 10  1  0
 28 19  1  0
M  CHG  1   3  -1
M  END
>  <UniqueID>  (66) 
59

>  <SMILES>  (66) 
O=C(/N=c1\[n-]ccs1)Nc1cccc(Oc2ccccc2)c1

>  <Energy>  (66) 
78.35280961759236

>  <Genealogy>  (66) 
O=C(N=c1[n-]ccs1)Nc1cccc(Oc2ccccc2)c1 (protonated)
O=C(/N=c1\[n-]ccs1)Nc1cccc(Oc2ccccc2)c1 (cis-trans isomerization)
O=C(/N=c1\[n-]ccs1)Nc1cccc(Oc2ccccc2)c1 (3D coordinates assigned)
O=C(/N=c1\[n-]ccs1)Nc1cccc(Oc2ccccc2)c1 (optimized conformer: 78.35280961759236 kcal/mol)

>  <smiles>  (66) 
O=C(N=c1[nH]ccs1)Nc1cccc(Oc2ccccc2)c1

>  <score_type>  (66) 
oracle

>  <origin>  (66) 
adg

>  <m_score__min__energy>  (66) 
-9.2899999999999991

>  <m_primary>  (66) 
energy

$$$$
66:0
     RDKit          3D

 44 46  0  0  0  0  0  0  0  0999 V2000
   55.5550   29.7460   44.9670 N   0  0  0  0  0  0  0  0  0  0  0  0
   56.9780   30.3490   44.1900 S   0  0  0  0  0  0  0  0  0  0  0  0
   58.0290   29.2730   44.1620 O   0  0  0  0  0  0  0  0  0  0  0  0
   56.6510   30.7430   42.7760 O   0  0  0  0  0  0  0  0  0  0  0  0
   57.5790   31.7510   45.0690 C   0  0  0  0  0  0  0  0  0  0  0  0
   57.6050   33.0070   44.4530 C   0  0  0  0  0  0  0  0  0  0  0  0
   58.0740   34.1230   45.1520 C   0  0  0  0  0  0  0  0  0  0  0  0
   58.4980   33.9930   46.4760 C   0  0  0  0  0  0  0  0  0  0  0  0
   58.4350   32.7450   47.1180 C   0  0  0  0  0  0  0  0  0  0  0  0
   58.8730   32.5750   48.4700 N   0  0  0  0  0  0  0  0  0  0  0  0
   59.5790   33.5380   49.2640 C   0  0  0  0  0  0  0  0  0  0  0  0
   60.5540   34.1460   48.7480 O   0  0  0  0  0  0  0  0  0  0  0  0
   59.2890   33.7420   50.7230 C   0  0  0  0  0  0  0  0  0  0  0  0
   60.3480   32.6410   51.7260 S   0  0  0  0  0  0  0  0  0  0  0  0
   59.9520   31.1400   50.8190 C   0  0  0  0  0  0  0  0  0  0  0  0
   58.6890   30.6830   50.6820 N   0  0  0  0  0  0  0  0  0  0  0  0
   58.8240   29.5560   49.9550 C   0  0  0  0  0  0  0  0  0  0  0  0
   60.1510   29.3530   49.6530 C   0  0  0  0  0  0  0  0  0  0  0  0
   60.8600   30.3600   50.1940 N   0  0  0  0  0  0  0  0  0  0  0  0
   62.3040   30.5660   50.0790 C   0  0  0  0  0  0  0  0  0  0  0  0
   62.6160   31.5720   49.0030 C   0  0  0  0  0  0  0  0  0  0  0  0
   61.8580   31.6000   47.8200 C   0  0  0  0  0  0  0  0  0  0  0  0
   62.1440   32.5380   46.8210 C   0  0  0  0  0  0  0  0  0  0  0  0
   63.1850   33.4550   46.9990 C   0  0  0  0  0  0  0  0  0  0  0  0
   63.4580   34.3660   46.0320 F   0  0  0  0  0  0  0  0  0  0  0  0
   63.9420   33.4350   48.1760 C   0  0  0  0  0  0  0  0  0  0  0  0
   63.6570   32.5010   49.1780 C   0  0  0  0  0  0  0  0  0  0  0  0
   58.0040   31.6220   46.4000 C   0  0  0  0  0  0  0  0  0  0  0  0
   54.8070   30.4630   44.8290 H   0  0  0  0  0  0  0  0  0  0  0  0
   55.7550   29.7170   45.9920 H   0  0  0  0  0  0  0  0  0  0  0  0
   57.2554   33.1165   43.4158 H   0  0  0  0  0  0  0  0  0  0  0  0
   58.1091   35.1053   44.6582 H   0  0  0  0  0  0  0  0  0  0  0  0
   58.8823   34.8699   47.0177 H   0  0  0  0  0  0  0  0  0  0  0  0
   59.4923   34.7889   50.9926 H   0  0  0  0  0  0  0  0  0  0  0  0
   58.2326   33.5065   50.9192 H   0  0  0  0  0  0  0  0  0  0  0  0
   57.9976   28.8976   49.6491 H   0  0  0  0  0  0  0  0  0  0  0  0
   60.5604   28.5141   49.0710 H   0  0  0  0  0  0  0  0  0  0  0  0
   62.6937   30.9330   51.0399 H   0  0  0  0  0  0  0  0  0  0  0  0
   62.7770   29.6087   49.8148 H   0  0  0  0  0  0  0  0  0  0  0  0
   61.0367   30.8820   47.6784 H   0  0  0  0  0  0  0  0  0  0  0  0
   61.5497   32.5539   45.8955 H   0  0  0  0  0  0  0  0  0  0  0  0
   64.7624   34.1548   48.3135 H   0  0  0  0  0  0  0  0  0  0  0  0
   64.2489   32.4934   50.1052 H   0  0  0  0  0  0  0  0  0  0  0  0
   57.9987   30.6334   46.8824 H   0  0  0  0  0  0  0  0  0  0  0  0
  1  2  1  0
  2  3  2  0
  2  4  2  0
  2  5  1  0
  5  6  2  0
  6  7  1  0
  7  8  2  0
  8  9  1  0
  9 10  1  0
 10 11  1  0
 11 12  2  0
 11 13  1  0
 13 14  1  0
 14 15  1  0
 15 16  2  0
 16 17  1  0
 17 18  2  0
 18 19  1  0
 19 20  1  0
 20 21  1  0
 21 22  2  0
 22 23  1  0
 23 24  2  0
 24 25  1  0
 24 26  1  0
 26 27  2  0
  9 28  2  0
 28  5  1  0
 19 15  1  0
 27 21  1  0
  1 29  1  0
  1 30  1  0
  6 31  1  0
  7 32  1  0
  8 33  1  0
 13 34  1  0
 13 35  1  0
 17 36  1  0
 18 37  1  0
 20 38  1  0
 20 39  1  0
 22 40  1  0
 23 41  1  0
 26 42  1  0
 27 43  1  0
 28 44  1  0
M  CHG  1  10  -1
M  END
>  <UniqueID>  (67) 
60

>  <SMILES>  (67) 
NS(=O)(=O)c1cccc([N-]C(=O)CSc2nccn2Cc2ccc(F)cc2)c1

>  <Energy>  (67) 
71.13875498678206

>  <Genealogy>  (67) 
NS(=O)(=O)c1cccc([N-]C(=O)CSc2nccn2Cc2ccc(F)cc2)c1 (protonated)
NS(=O)(=O)c1cccc([N-]C(=O)CSc2nccn2Cc2ccc(F)cc2)c1 (3D coordinates assigned)
NS(=O)(=O)c1cccc([N-]C(=O)CSc2nccn2Cc2ccc(F)cc2)c1 (optimized conformer: 71.13875498678206 kcal/mol)

>  <smiles>  (67) 
NS(=O)(=O)c1cccc(NC(=O)CSc2nccn2Cc2ccc(F)cc2)c1

>  <score_type>  (67) 
oracle

>  <origin>  (67) 
adg

>  <m_score__min__energy>  (67) 
-9.8599999999999994

>  <m_primary>  (67) 
energy

$$$$
67:0
     RDKit          3D

 41 44  0  0  0  0  0  0  0  0999 V2000
   57.7920   34.2450   46.0520 C   0  0  0  0  0  0  0  0  0  0  0  0
   57.9460   32.8330   45.7200 N   0  0  0  0  0  0  0  0  0  0  0  0
   56.9760   32.1230   45.1600 N   0  0  0  0  0  0  0  0  0  0  0  0
   57.4040   30.8480   45.0370 C   0  0  0  0  0  0  0  0  0  0  0  0
   56.5770   29.7740   44.4580 C   0  0  0  0  0  0  0  0  0  0  0  0
   56.3000   29.8140   43.2310 O   0  0  0  0  0  0  0  0  0  0  0  0
   56.0620   28.6940   45.2470 N   0  0  0  0  0  0  0  0  0  0  0  0
   56.6010   27.3650   45.3150 C   0  0  0  0  0  0  0  0  0  0  0  0
   55.8930   26.3820   46.0150 C   0  0  0  0  0  0  0  0  0  0  0  0
   56.3950   25.0810   46.1110 C   0  0  0  0  0  0  0  0  0  0  0  0
   57.6090   24.7480   45.4960 C   0  0  0  0  0  0  0  0  0  0  0  0
   58.2400   23.1080   45.6110 S   0  0  0  0  0  0  0  0  0  0  0  0
   57.6570   22.3700   47.0600 N   0  0  0  0  0  0  0  0  0  0  0  0
   57.7920   22.3060   44.4210 O   0  0  0  0  0  0  0  0  0  0  0  0
   59.7430   23.1420   45.6330 O   0  0  0  0  0  0  0  0  0  0  0  0
   58.3040   25.7200   44.7640 C   0  0  0  0  0  0  0  0  0  0  0  0
   57.8010   27.0200   44.6670 C   0  0  0  0  0  0  0  0  0  0  0  0
   58.6840   30.7500   45.5650 C   0  0  0  0  0  0  0  0  0  0  0  0
   59.0080   32.0280   45.9540 C   0  0  0  0  0  0  0  0  0  0  0  0
   60.3130   32.3630   46.5730 C   0  0  0  0  0  0  0  0  0  0  0  0
   60.9280   33.6140   46.3900 C   0  0  0  0  0  0  0  0  0  0  0  0
   62.2310   33.8340   46.8450 C   0  0  0  0  0  0  0  0  0  0  0  0
   62.9450   32.8010   47.4550 C   0  0  0  0  0  0  0  0  0  0  0  0
   62.3570   31.5450   47.6180 C   0  0  0  0  0  0  0  0  0  0  0  0
   61.0430   31.3220   47.1900 C   0  0  0  0  0  0  0  0  0  0  0  0
   60.2960   29.6980   47.4700 S   0  0  0  0  0  0  0  0  0  0  0  0
   59.5550   29.5540   45.8050 C   0  0  0  0  0  0  0  0  0  0  0  0
   57.7789   34.3653   47.1453 H   0  0  0  0  0  0  0  0  0  0  0  0
   58.6333   34.8146   45.6305 H   0  0  0  0  0  0  0  0  0  0  0  0
   56.8476   34.6199   45.6305 H   0  0  0  0  0  0  0  0  0  0  0  0
   54.9350   26.6347   46.4929 H   0  0  0  0  0  0  0  0  0  0  0  0
   55.8356   24.3169   46.6707 H   0  0  0  0  0  0  0  0  0  0  0  0
   57.7520   21.3380   46.9370 H   0  0  0  0  0  0  0  0  0  0  0  0
   59.2485   25.4588   44.2642 H   0  0  0  0  0  0  0  0  0  0  0  0
   58.3451   27.7761   44.0820 H   0  0  0  0  0  0  0  0  0  0  0  0
   60.3806   34.4241   45.8859 H   0  0  0  0  0  0  0  0  0  0  0  0
   62.6952   34.8237   46.7222 H   0  0  0  0  0  0  0  0  0  0  0  0
   63.9720   32.9767   47.8077 H   0  0  0  0  0  0  0  0  0  0  0  0
   62.9280   30.7285   48.0841 H   0  0  0  0  0  0  0  0  0  0  0  0
   60.3511   29.5171   45.0468 H   0  0  0  0  0  0  0  0  0  0  0  0
   58.9566   28.6334   45.7379 H   0  0  0  0  0  0  0  0  0  0  0  0
  1  2  1  0
  2  3  1  0
  3  4  2  0
  4  5  1  0
  5  6  2  0
  5  7  1  0
  7  8  1  0
  8  9  2  0
  9 10  1  0
 10 11  2  0
 11 12  1  0
 12 13  1  0
 12 14  2  0
 12 15  2  0
 11 16  1  0
 16 17  2  0
  4 18  1  0
 18 19  2  0
 19 20  1  0
 20 21  2  0
 21 22  1  0
 22 23  2  0
 23 24  1  0
 24 25  2  0
 25 26  1  0
 26 27  1  0
 19  2  1  0
 25 20  1  0
 17  8  1  0
 27 18  1  0
  1 28  1  0
  1 29  1  0
  1 30  1  0
  9 31  1  0
 10 32  1  0
 13 33  1  0
 16 34  1  0
 17 35  1  0
 21 36  1  0
 22 37  1  0
 23 38  1  0
 24 39  1  0
 27 40  1  0
 27 41  1  0
M  CHG  2   7  -1  13  -1
M  END
>  <UniqueID>  (68) 
61

>  <SMILES>  (68) 
Cn1nc(C(=O)[N-]c2ccc(S([NH-])(=O)=O)cc2)c2c1-c1ccccc1SC2

>  <Energy>  (68) 
91.86765820347895

>  <Genealogy>  (68) 
Cn1nc(C(=O)[N-]c2ccc(S([NH-])(=O)=O)cc2)c2c1-c1ccccc1SC2 (protonated)
Cn1nc(C(=O)[N-]c2ccc(S([NH-])(=O)=O)cc2)c2c1-c1ccccc1SC2 (3D coordinates assigned)
Cn1nc(C(=O)[N-]c2ccc(S([NH-])(=O)=O)cc2)c2c1-c1ccccc1SC2 (nonaromatic ring conformer: 91.86765820347895 kcal/mol)

>  <smiles>  (68) 
Cn1nc(C(=O)Nc2ccc(S(N)(=O)=O)cc2)c2c1-c1ccccc1SC2

>  <score_type>  (68) 
oracle

>  <origin>  (68) 
adg

>  <m_score__min__energy>  (68) 
-12.779999999999999

>  <m_primary>  (68) 
energy

$$$$
68:0
     RDKit          3D

 50 52  0  0  0  0  0  0  0  0999 V2000
   55.1510   27.6180   45.2640 H   0  0  0  0  0  0  0  0  0  0  0  0
   55.9670   27.1470   45.7100 N   0  0  0  0  0  0  0  0  0  0  0  0
   57.1010   27.7260   45.9720 C   0  0  0  0  0  0  0  0  0  0  0  0
   58.0740   26.9930   46.6610 C   0  0  0  0  0  0  0  0  0  0  0  0
   57.8485   25.9789   47.0227 H   0  0  0  0  0  0  0  0  0  0  0  0
   59.3310   27.5540   46.8870 C   0  0  0  0  0  0  0  0  0  0  0  0
   60.3650   26.8490   47.6450 C   0  0  0  0  0  0  0  0  0  0  0  0
   61.3160   26.2910   47.0320 O   0  0  0  0  0  0  0  0  0  0  0  0
   60.3990   26.9690   49.0710 N   0  0  0  0  0  0  0  0  0  0  0  0
   61.1270   28.0480   49.7330 C   0  0  0  0  0  0  0  0  0  0  0  0
   61.9940   27.6303   50.2658 H   0  0  0  0  0  0  0  0  0  0  0  0
   61.4689   28.7716   48.9783 H   0  0  0  0  0  0  0  0  0  0  0  0
   60.2200   28.7480   50.7210 C   0  0  0  0  0  0  0  0  0  0  0  0
   60.0210   28.2220   52.0100 C   0  0  0  0  0  0  0  0  0  0  0  0
   60.4482   27.2436   52.2752 H   0  0  0  0  0  0  0  0  0  0  0  0
   59.2810   28.9400   52.9560 C   0  0  0  0  0  0  0  0  0  0  0  0
   59.1196   28.5196   53.9596 H   0  0  0  0  0  0  0  0  0  0  0  0
   58.7460   30.1900   52.6300 C   0  0  0  0  0  0  0  0  0  0  0  0
   58.1745   30.7555   53.3807 H   0  0  0  0  0  0  0  0  0  0  0  0
   58.9370   30.7240   51.3470 C   0  0  0  0  0  0  0  0  0  0  0  0
   58.3120   32.3170   50.9310 S   0  0  0  0  0  0  0  0  0  0  0  0
   59.3920   33.3560   51.0670 O   0  0  0  0  0  0  0  0  0  0  0  0
   57.8260   32.3090   49.5080 O   0  0  0  0  0  0  0  0  0  0  0  0
   57.0040   32.7100   51.9900 N   0  0  0  0  0  0  0  0  0  0  0  0
   56.1320   32.3460   51.5410 H   0  0  0  0  0  0  0  0  0  0  0  0
   59.6530   29.9930   50.3920 C   0  0  0  0  0  0  0  0  0  0  0  0
   59.7735   30.3953   49.3753 H   0  0  0  0  0  0  0  0  0  0  0  0
   59.5800   28.8250   46.4930 N   0  0  0  0  0  0  0  0  0  0  0  0
   58.6640   29.5980   45.8540 C   0  0  0  0  0  0  0  0  0  0  0  0
   58.9760   30.9860   45.6030 N   0  0  0  0  0  0  0  0  0  0  0  0
   58.4670   31.4890   44.8420 H   0  0  0  0  0  0  0  0  0  0  0  0
   59.6690   31.8070   46.5580 C   0  0  0  0  0  0  0  0  0  0  0  0
   60.8540   31.3380   47.1450 C   0  0  0  0  0  0  0  0  0  0  0  0
   61.2154   30.3254   46.9126 H   0  0  0  0  0  0  0  0  0  0  0  0
   61.5790   32.1500   48.0240 C   0  0  0  0  0  0  0  0  0  0  0  0
   62.5174   31.7798   48.4625 H   0  0  0  0  0  0  0  0  0  0  0  0
   61.1160   33.4330   48.3490 C   0  0  0  0  0  0  0  0  0  0  0  0
   61.9290   34.3260   49.2390 C   0  0  0  0  0  0  0  0  0  0  0  0
   61.7135   34.0893   50.2914 H   0  0  0  0  0  0  0  0  0  0  0  0
   62.9990   34.1671   49.0391 H   0  0  0  0  0  0  0  0  0  0  0  0
   61.6707   35.3764   49.0391 H   0  0  0  0  0  0  0  0  0  0  0  0
   59.9210   33.8970   47.7770 C   0  0  0  0  0  0  0  0  0  0  0  0
   59.5549   34.9058   48.0183 H   0  0  0  0  0  0  0  0  0  0  0  0
   59.1930   33.0840   46.9020 C   0  0  0  0  0  0  0  0  0  0  0  0
   58.2433   33.4458   46.4810 H   0  0  0  0  0  0  0  0  0  0  0  0
   57.3860   29.0570   45.5600 C   0  0  0  0  0  0  0  0  0  0  0  0
   56.3760   29.8720   44.8500 C   0  0  0  0  0  0  0  0  0  0  0  0
   56.6510   31.0510   44.4990 O   0  0  0  0  0  0  0  0  0  0  0  0
   55.0890   29.3280   44.5610 N   0  0  0  0  0  0  0  0  0  0  0  0
   54.9910   28.3580   44.1800 H   0  0  0  0  0  0  0  0  0  0  0  0
  1  2  1  0
  2  3  2  0
  3  4  1  0
  4  5  1  0
  4  6  2  0
  6  7  1  0
  7  8  2  0
  7  9  1  0
  9 10  1  0
 10 11  1  0
 10 12  1  0
 10 13  1  0
 13 14  2  0
 14 15  1  0
 14 16  1  0
 16 17  1  0
 16 18  2  0
 18 19  1  0
 18 20  1  0
 20 21  1  0
 21 22  2  0
 21 23  2  0
 21 24  1  0
 24 25  1  0
 20 26  2  0
 26 27  1  0
  6 28  1  0
 28 29  1  0
 29 30  1  0
 30 31  1  0
 30 32  1  0
 32 33  2  0
 33 34  1  0
 33 35  1  0
 35 36  1  0
 35 37  2  0
 37 38  1  0
 38 39  1  0
 38 40  1  0
 38 41  1  0
 37 42  1  0
 42 43  1  0
 42 44  2  0
 44 45  1  0
 29 46  2  0
 46 47  1  0
 47 48  2  0
 47 49  1  0
 49 50  1  0
 46  3  1  0
 26 13  1  0
 44 32  1  0
M  CHG  4   9  -1  24  -1  28  -1  49  -1
M  END
>  <UniqueID>  (69) 
62

>  <SMILES>  (69) 
[H]/N=c1/cc(C(=O)[N-]Cc2cccc(S([NH-])(=O)=O)c2)[n-]c(Nc2ccc(C)cc2)c1C([NH-])=O

>  <Energy>  (69) 
67.91667305866785

>  <Genealogy>  (69) 
Cc1ccc(Nc2[n-]c(C(=O)[N-]Cc3cccc(S([NH-])(=O)=O)c3)cc(=N)c2C([NH-])=O)cc1 (protonated)
[H]/N=c1/cc(C(=O)[N-]Cc2cccc(S([NH-])(=O)=O)c2)[n-]c(Nc2ccc(C)cc2)c1C([NH-])=O (cis-trans isomerization)
[H]/N=c1/cc(C(=O)[N-]Cc2cccc(S([NH-])(=O)=O)c2)[n-]c(Nc2ccc(C)cc2)c1C([NH-])=O (3D coordinates assigned)
[H]/N=c1/cc(C(=O)[N-]Cc2cccc(S([NH-])(=O)=O)c2)[n-]c(Nc2ccc(C)cc2)c1C([NH-])=O (optimized conformer: 67.91667305866785 kcal/mol)

>  <smiles>  (69) 
Cc1ccc(Nc2[nH]c(C(=O)NCc3cccc(S(N)(=O)=O)c3)cc(=N)c2C(N)=O)cc1

>  <score_type>  (69) 
oracle

>  <origin>  (69) 
adg

>  <m_score__min__energy>  (69) 
-14.9

>  <m_primary>  (69) 
energy

$$$$
69:0
     RDKit          3D

 43 45  0  0  0  0  0  0  0  0999 V2000
   54.9450   25.4940   45.6210 C   0  0  0  0  0  0  0  0  0  0  0  0
   55.6110   26.7090   45.9570 O   0  0  0  0  0  0  0  0  0  0  0  0
   57.0060   26.8740   45.9910 C   0  0  0  0  0  0  0  0  0  0  0  0
   57.8460   25.8580   46.4990 C   0  0  0  0  0  0  0  0  0  0  0  0
   59.2310   26.0190   46.5020 C   0  0  0  0  0  0  0  0  0  0  0  0
   59.8020   27.1810   45.9890 C   0  0  0  0  0  0  0  0  0  0  0  0
   58.9910   28.2040   45.4960 C   0  0  0  0  0  0  0  0  0  0  0  0
   57.5830   28.0780   45.5030 C   0  0  0  0  0  0  0  0  0  0  0  0
   56.7340   29.2240   45.0540 C   0  0  0  0  0  0  0  0  0  0  0  0
   55.5020   29.0630   44.8500 O   0  0  0  0  0  0  0  0  0  0  0  0
   57.2840   30.5840   44.8860 C   0  0  0  0  0  0  0  0  0  0  0  0
   57.8500   31.2620   45.9690 C   0  0  0  0  0  0  0  0  0  0  0  0
   58.3540   32.5260   45.8180 N   0  0  0  0  0  0  0  0  0  0  0  0
   58.9620   33.1900   46.9840 C   0  0  0  0  0  0  0  0  0  0  0  0
   60.4590   32.9540   47.0310 C   0  0  0  0  0  0  0  0  0  0  0  0
   61.3180   33.9840   46.5910 C   0  0  0  0  0  0  0  0  0  0  0  0
   62.7050   33.8210   46.6220 C   0  0  0  0  0  0  0  0  0  0  0  0
   63.2550   32.6360   47.1070 C   0  0  0  0  0  0  0  0  0  0  0  0
   62.4240   31.6070   47.5620 C   0  0  0  0  0  0  0  0  0  0  0  0
   61.0240   31.7450   47.5210 C   0  0  0  0  0  0  0  0  0  0  0  0
   60.1720   30.6040   48.0210 C   0  0  0  0  0  0  0  0  0  0  0  0
   58.2570   33.1500   44.5990 C   0  0  0  0  0  0  0  0  0  0  0  0
   58.6520   34.3370   44.4450 O   0  0  0  0  0  0  0  0  0  0  0  0
   57.7250   32.4960   43.5350 N   0  0  0  0  0  0  0  0  0  0  0  0
   57.2500   31.2320   43.6460 C   0  0  0  0  0  0  0  0  0  0  0  0
   56.7600   30.6620   42.6320 O   0  0  0  0  0  0  0  0  0  0  0  0
   54.6562   24.9672   46.5425 H   0  0  0  0  0  0  0  0  0  0  0  0
   54.0449   25.7204   45.0306 H   0  0  0  0  0  0  0  0  0  0  0  0
   55.6200   24.8570   45.0306 H   0  0  0  0  0  0  0  0  0  0  0  0
   57.4037   24.9322   46.8955 H   0  0  0  0  0  0  0  0  0  0  0  0
   59.8744   25.2260   46.9107 H   0  0  0  0  0  0  0  0  0  0  0  0
   60.8962   27.2928   45.9724 H   0  0  0  0  0  0  0  0  0  0  0  0
   59.4528   29.1193   45.0972 H   0  0  0  0  0  0  0  0  0  0  0  0
   57.8911   30.7745   46.9542 H   0  0  0  0  0  0  0  0  0  0  0  0
   58.7711   34.2715   46.9209 H   0  0  0  0  0  0  0  0  0  0  0  0
   58.5144   32.7696   47.8967 H   0  0  0  0  0  0  0  0  0  0  0  0
   60.8900   34.9266   46.2191 H   0  0  0  0  0  0  0  0  0  0  0  0
   63.3623   34.6271   46.2640 H   0  0  0  0  0  0  0  0  0  0  0  0
   64.3474   32.5093   47.1321 H   0  0  0  0  0  0  0  0  0  0  0  0
   62.8689   30.6812   47.9556 H   0  0  0  0  0  0  0  0  0  0  0  0
   60.1706   30.6021   49.1210 H   0  0  0  0  0  0  0  0  0  0  0  0
   59.1426   30.7265   47.6532 H   0  0  0  0  0  0  0  0  0  0  0  0
   60.5819   29.6518   47.6532 H   0  0  0  0  0  0  0  0  0  0  0  0
  1  2  1  0
  2  3  1  0
  3  4  2  0
  4  5  1  0
  5  6  2  0
  6  7  1  0
  7  8  2  0
  8  9  1  0
  9 10  2  0
  9 11  1  0
 11 12  2  0
 12 13  1  0
 13 14  1  0
 14 15  1  0
 15 16  2  0
 16 17  1  0
 17 18  2  0
 18 19  1  0
 19 20  2  0
 20 21  1  0
 13 22  1  0
 22 23  2  0
 22 24  1  0
 24 25  1  0
 25 26  2  0
  8  3  1  0
 25 11  1  0
 20 15  1  0
  1 27  1  0
  1 28  1  0
  1 29  1  0
  4 30  1  0
  5 31  1  0
  6 32  1  0
  7 33  1  0
 12 34  1  0
 14 35  1  0
 14 36  1  0
 16 37  1  0
 17 38  1  0
 18 39  1  0
 19 40  1  0
 21 41  1  0
 21 42  1  0
 21 43  1  0
M  CHG  1  24  -1
M  END
>  <UniqueID>  (70) 
63

>  <SMILES>  (70) 
COc1ccccc1C(=O)c1cn(Cc2ccccc2C)c(=O)[n-]c1=O

>  <Energy>  (70) 
60.14147530289019

>  <Genealogy>  (70) 
COc1ccccc1C(=O)c1cn(Cc2ccccc2C)c(=O)[n-]c1=O (protonated)
COc1ccccc1C(=O)c1cn(Cc2ccccc2C)c(=O)[n-]c1=O (3D coordinates assigned)
COc1ccccc1C(=O)c1cn(Cc2ccccc2C)c(=O)[n-]c1=O (optimized conformer: 60.14147530289019 kcal/mol)

>  <smiles>  (70) 
COc1ccccc1C(=O)c1cn(Cc2ccccc2C)c(=O)[nH]c1=O

>  <score_type>  (70) 
oracle

>  <origin>  (70) 
adg

>  <m_score__min__energy>  (70) 
-10.140000000000001

>  <m_primary>  (70) 
energy

$$$$
70:0
     RDKit          3D

 48 50  0  0  0  0  0  0  0  0999 V2000
   66.0290   32.6380   50.3160 C   0  0  0  0  0  0  0  0  0  0  0  0
   64.6450   32.9650   50.2780 O   0  0  0  0  0  0  0  0  0  0  0  0
   63.7980   32.7350   49.1810 C   0  0  0  0  0  0  0  0  0  0  0  0
   63.8020   33.5860   48.0570 C   0  0  0  0  0  0  0  0  0  0  0  0
   62.9380   33.3490   46.9880 C   0  0  0  0  0  0  0  0  0  0  0  0
   62.0640   32.2670   47.0250 C   0  0  0  0  0  0  0  0  0  0  0  0
   62.0540   31.4080   48.1250 C   0  0  0  0  0  0  0  0  0  0  0  0
   62.9220   31.6270   49.2150 C   0  0  0  0  0  0  0  0  0  0  0  0
   62.9210   30.7640   50.3730 N   0  0  0  0  0  0  0  0  0  0  0  0
   61.6100   29.7470   50.8900 S   0  0  0  0  0  0  0  0  0  0  0  0
   61.4640   28.5480   49.9960 O   0  0  0  0  0  0  0  0  0  0  0  0
   61.9310   29.2580   52.2740 O   0  0  0  0  0  0  0  0  0  0  0  0
   60.1080   30.6720   50.9350 C   0  0  0  0  0  0  0  0  0  0  0  0
   59.4310   30.8660   52.1470 C   0  0  0  0  0  0  0  0  0  0  0  0
   58.2600   31.6260   52.1850 C   0  0  0  0  0  0  0  0  0  0  0  0
   57.7620   32.2060   51.0160 C   0  0  0  0  0  0  0  0  0  0  0  0
   58.4330   32.0340   49.8000 C   0  0  0  0  0  0  0  0  0  0  0  0
   57.8840   32.6340   48.6160 N   0  0  0  0  0  0  0  0  0  0  0  0
   58.6030   33.1090   47.4680 C   0  0  0  0  0  0  0  0  0  0  0  0
   59.5750   33.8900   47.6530 O   0  0  0  0  0  0  0  0  0  0  0  0
   58.2780   32.6760   46.0870 C   0  0  0  0  0  0  0  0  0  0  0  0
   58.4850   33.5540   45.0080 C   0  0  0  0  0  0  0  0  0  0  0  0
   58.1790   33.1560   43.7060 C   0  0  0  0  0  0  0  0  0  0  0  0
   57.6550   31.8860   43.4630 C   0  0  0  0  0  0  0  0  0  0  0  0
   57.4450   30.9990   44.5270 C   0  0  0  0  0  0  0  0  0  0  0  0
   56.7580   29.4020   44.2460 S   0  0  0  0  0  0  0  0  0  0  0  0
   55.1490   29.3450   44.8720 N   0  0  0  0  0  0  0  0  0  0  0  0
   56.7190   29.1020   42.7740 O   0  0  0  0  0  0  0  0  0  0  0  0
   57.6040   28.3670   44.9320 O   0  0  0  0  0  0  0  0  0  0  0  0
   57.7790   31.3860   45.8300 C   0  0  0  0  0  0  0  0  0  0  0  0
   59.5930   31.2390   49.7610 C   0  0  0  0  0  0  0  0  0  0  0  0
   66.3587   32.5601   51.3625 H   0  0  0  0  0  0  0  0  0  0  0  0
   66.1927   31.6765   49.8074 H   0  0  0  0  0  0  0  0  0  0  0  0
   66.6057   33.4246   49.8074 H   0  0  0  0  0  0  0  0  0  0  0  0
   64.4912   34.4427   48.0228 H   0  0  0  0  0  0  0  0  0  0  0  0
   62.9476   34.0181   46.1149 H   0  0  0  0  0  0  0  0  0  0  0  0
   61.3781   32.0879   46.1839 H   0  0  0  0  0  0  0  0  0  0  0  0
   61.3629   30.5524   48.1420 H   0  0  0  0  0  0  0  0  0  0  0  0
   63.7950   30.6730   50.9340 H   0  0  0  0  0  0  0  0  0  0  0  0
   59.8236   30.4179   53.0717 H   0  0  0  0  0  0  0  0  0  0  0  0
   57.7287   31.7682   53.1376 H   0  0  0  0  0  0  0  0  0  0  0  0
   56.8375   32.8011   51.0514 H   0  0  0  0  0  0  0  0  0  0  0  0
   58.8904   34.5600   45.1914 H   0  0  0  0  0  0  0  0  0  0  0  0
   58.3517   33.8467   42.8675 H   0  0  0  0  0  0  0  0  0  0  0  0
   57.4067   31.5810   42.4357 H   0  0  0  0  0  0  0  0  0  0  0  0
   55.1440   28.6450   45.6470 H   0  0  0  0  0  0  0  0  0  0  0  0
   57.6503   30.6756   46.6599 H   0  0  0  0  0  0  0  0  0  0  0  0
   60.1001   31.0608   48.8013 H   0  0  0  0  0  0  0  0  0  0  0  0
  1  2  1  0
  2  3  1  0
  3  4  2  0
  4  5  1  0
  5  6  2  0
  6  7  1  0
  7  8  2  0
  8  9  1  0
  9 10  1  0
 10 11  2  0
 10 12  2  0
 10 13  1  0
 13 14  2  0
 14 15  1  0
 15 16  2  0
 16 17  1  0
 17 18  1  0
 18 19  1  0
 19 20  2  0
 19 21  1  0
 21 22  2  0
 22 23  1  0
 23 24  2  0
 24 25  1  0
 25 26  1  0
 26 27  1  0
 26 28  2  0
 26 29  2  0
 25 30  2  0
 17 31  2  0
  8  3  1  0
 31 13  1  0
 30 21  1  0
  1 32  1  0
  1 33  1  0
  1 34  1  0
  4 35  1  0
  5 36  1  0
  6 37  1  0
  7 38  1  0
  9 39  1  0
 14 40  1  0
 15 41  1  0
 16 42  1  0
 22 43  1  0
 23 44  1  0
 24 45  1  0
 27 46  1  0
 30 47  1  0
 31 48  1  0
M  CHG  2  18  -1  27  -1
M  END
>  <UniqueID>  (71) 
64

>  <SMILES>  (71) 
COc1ccccc1NS(=O)(=O)c1cccc([N-]C(=O)c2cccc(S([NH-])(=O)=O)c2)c1

>  <Energy>  (71) 
55.03626561059174

>  <Genealogy>  (71) 
COc1ccccc1NS(=O)(=O)c1cccc([N-]C(=O)c2cccc(S([NH-])(=O)=O)c2)c1 (protonated)
COc1ccccc1NS(=O)(=O)c1cccc([N-]C(=O)c2cccc(S([NH-])(=O)=O)c2)c1 (3D coordinates assigned)
COc1ccccc1NS(=O)(=O)c1cccc([N-]C(=O)c2cccc(S([NH-])(=O)=O)c2)c1 (optimized conformer: 55.03626561059174 kcal/mol)

>  <smiles>  (71) 
COc1ccccc1NS(=O)(=O)c1cccc(NC(=O)c2cccc(S(N)(=O)=O)c2)c1

>  <score_type>  (71) 
oracle

>  <origin>  (71) 
adg

>  <m_score__min__energy>  (71) 
-13.69

>  <m_primary>  (71) 
energy

$$$$
71:0
     RDKit          3D

 46 48  0  0  0  0  0  0  0  0999 V2000
   62.1750   34.4210   49.5310 C   0  0  0  0  0  0  0  0  0  0  0  0
   60.9300   34.1980   48.7360 C   0  0  0  0  0  0  0  0  0  0  0  0
   59.8360   34.0250   49.3380 O   0  0  0  0  0  0  0  0  0  0  0  0
   60.9890   34.1780   47.3020 N   0  0  0  0  0  0  0  0  0  0  0  0
   59.8930   33.7790   46.4640 C   0  0  0  0  0  0  0  0  0  0  0  0
   59.1270   34.7580   45.8200 C   0  0  0  0  0  0  0  0  0  0  0  0
   58.0670   34.3900   44.9890 C   0  0  0  0  0  0  0  0  0  0  0  0
   57.7750   33.0420   44.7790 C   0  0  0  0  0  0  0  0  0  0  0  0
   58.5510   32.0410   45.3890 C   0  0  0  0  0  0  0  0  0  0  0  0
   58.2690   30.6100   45.1300 C   0  0  0  0  0  0  0  0  0  0  0  0
   57.7490   30.2640   44.0340 O   0  0  0  0  0  0  0  0  0  0  0  0
   58.5830   29.6260   46.1290 N   0  0  0  0  0  0  0  0  0  0  0  0
   58.3170   28.3540   46.0650 C   0  0  0  0  0  0  0  0  0  0  0  0
   59.2000   27.3760   46.3720 N   0  0  0  0  0  0  0  0  0  0  0  0
   58.5050   26.2340   46.1780 C   0  0  0  0  0  0  0  0  0  0  0  0
   57.2200   26.5330   45.7570 C   0  0  0  0  0  0  0  0  0  0  0  0
   56.1250   25.5570   45.5580 C   0  0  0  0  0  0  0  0  0  0  0  0
   54.9480   25.8640   45.8890 O   0  0  0  0  0  0  0  0  0  0  0  0
   56.3940   24.2110   45.0010 C   0  0  0  0  0  0  0  0  0  0  0  0
   56.3880   24.0410   43.6050 C   0  0  0  0  0  0  0  0  0  0  0  0
   56.5980   22.7820   43.0400 C   0  0  0  0  0  0  0  0  0  0  0  0
   56.8190   21.6770   43.8600 C   0  0  0  0  0  0  0  0  0  0  0  0
   56.8410   21.8270   45.2470 C   0  0  0  0  0  0  0  0  0  0  0  0
   56.6370   23.0890   45.8340 C   0  0  0  0  0  0  0  0  0  0  0  0
   56.6640   23.2080   47.3350 C   0  0  0  0  0  0  0  0  0  0  0  0
   57.1170   27.8750   45.6900 N   0  0  0  0  0  0  0  0  0  0  0  0
   56.0160   28.6390   45.2620 N   0  0  0  0  0  0  0  0  0  0  0  0
   59.6140   32.4210   46.2300 C   0  0  0  0  0  0  0  0  0  0  0  0
   61.9373   34.3784   50.6042 H   0  0  0  0  0  0  0  0  0  0  0  0
   62.9106   33.6403   49.2871 H   0  0  0  0  0  0  0  0  0  0  0  0
   62.5938   35.4085   49.2871 H   0  0  0  0  0  0  0  0  0  0  0  0
   61.8450   34.5600   46.8400 H   0  0  0  0  0  0  0  0  0  0  0  0
   59.3613   35.8223   45.9694 H   0  0  0  0  0  0  0  0  0  0  0  0
   57.4603   35.1653   44.4984 H   0  0  0  0  0  0  0  0  0  0  0  0
   56.9315   32.7604   44.1315 H   0  0  0  0  0  0  0  0  0  0  0  0
   58.9004   25.2190   46.3314 H   0  0  0  0  0  0  0  0  0  0  0  0
   56.2161   24.9091   42.9516 H   0  0  0  0  0  0  0  0  0  0  0  0
   56.5890   22.6619   41.9466 H   0  0  0  0  0  0  0  0  0  0  0  0
   56.9764   20.6844   43.4128 H   0  0  0  0  0  0  0  0  0  0  0  0
   57.0195   20.9505   45.8872 H   0  0  0  0  0  0  0  0  0  0  0  0
   56.4419   22.2289   47.7845 H   0  0  0  0  0  0  0  0  0  0  0  0
   57.6608   23.5423   47.6584 H   0  0  0  0  0  0  0  0  0  0  0  0
   55.9091   23.9397   47.6584 H   0  0  0  0  0  0  0  0  0  0  0  0
   56.0770   29.6780   45.2200 H   0  0  0  0  0  0  0  0  0  0  0  0
   55.1470   28.1900   44.9060 H   0  0  0  0  0  0  0  0  0  0  0  0
   60.2326   31.6477   46.7089 H   0  0  0  0  0  0  0  0  0  0  0  0
  1  2  1  0
  2  3  2  0
  2  4  1  0
  4  5  1  0
  5  6  2  0
  6  7  1  0
  7  8  2  0
  8  9  1  0
  9 10  1  0
 10 11  2  0
 10 12  1  0
 12 13  2  3
 13 14  1  0
 14 15  1  0
 15 16  2  0
 16 17  1  0
 17 18  2  0
 17 19  1  0
 19 20  2  0
 20 21  1  0
 21 22  2  0
 22 23  1  0
 23 24  2  0
 24 25  1  0
 16 26  1  0
 26 27  1  0
  9 28  2  0
 28  5  1  0
 26 13  1  0
 24 19  1  0
  1 29  1  0
  1 30  1  0
  1 31  1  0
  4 32  1  0
  6 33  1  0
  7 34  1  0
  8 35  1  0
 15 36  1  0
 20 37  1  0
 21 38  1  0
 22 39  1  0
 23 40  1  0
 25 41  1  0
 25 42  1  0
 25 43  1  0
 27 44  1  0
 27 45  1  0
 28 46  1  0
M  CHG  1  14  -1
M  END
>  <UniqueID>  (72) 
65

>  <SMILES>  (72) 
CC(=O)Nc1cccc(C(=O)N=c2[n-]cc(C(=O)c3ccccc3C)n2N)c1

>  <Energy>  (72) 
92.40125485577099

>  <Genealogy>  (72) 
CC(=O)Nc1cccc(C(=O)N=c2[n-]cc(C(=O)c3ccccc3C)n2N)c1 (protonated)
CC(=O)Nc1cccc(C(=O)N=c2[n-]cc(C(=O)c3ccccc3C)n2N)c1 (3D coordinates assigned)
CC(=O)Nc1cccc(C(=O)N=c2[n-]cc(C(=O)c3ccccc3C)n2N)c1 (optimized conformer: 92.40125485577099 kcal/mol)

>  <smiles>  (72) 
CC(=O)Nc1cccc(C(=O)N=c2[nH]cc(C(=O)c3ccccc3C)n2N)c1

>  <score_type>  (72) 
oracle

>  <origin>  (72) 
adg

>  <m_score__min__energy>  (72) 
-10.98

>  <m_primary>  (72) 
energy

$$$$
72:0
     RDKit          3D

 39 41  0  0  0  0  0  0  0  0999 V2000
   59.7889   33.7783   45.4866 H   0  0  0  0  0  0  0  0  0  0  0  0
   59.0480   33.0290   45.1710 C   0  0  0  0  0  0  0  0  0  0  0  0
   58.4460   33.1300   43.9180 C   0  0  0  0  0  0  0  0  0  0  0  0
   58.7164   33.9559   43.2437 H   0  0  0  0  0  0  0  0  0  0  0  0
   57.5010   32.1850   43.5180 C   0  0  0  0  0  0  0  0  0  0  0  0
   57.0259   32.2754   42.5300 H   0  0  0  0  0  0  0  0  0  0  0  0
   57.1490   31.1180   44.3640 C   0  0  0  0  0  0  0  0  0  0  0  0
   56.1190   30.1420   43.9190 C   0  0  0  0  0  0  0  0  0  0  0  0
   55.8300   30.0420   42.6960 O   0  0  0  0  0  0  0  0  0  0  0  0
   55.4480   29.2990   44.8590 N   0  0  0  0  0  0  0  0  0  0  0  0
   54.7710   28.5780   44.5230 H   0  0  0  0  0  0  0  0  0  0  0  0
   55.5540   29.4370   45.8880 H   0  0  0  0  0  0  0  0  0  0  0  0
   57.7790   31.0020   45.6280 C   0  0  0  0  0  0  0  0  0  0  0  0
   57.4280   29.9190   46.5040 N   0  0  0  0  0  0  0  0  0  0  0  0
   58.1550   28.6980   46.6930 C   0  0  0  0  0  0  0  0  0  0  0  0
   58.8020   28.4880   47.7540 O   0  0  0  0  0  0  0  0  0  0  0  0
   58.1820   27.6830   45.5950 C   0  0  0  0  0  0  0  0  0  0  0  0
   57.6028   28.0578   44.7382 H   0  0  0  0  0  0  0  0  0  0  0  0
   59.2246   27.5065   45.2921 H   0  0  0  0  0  0  0  0  0  0  0  0
   57.5850   26.3970   46.0720 C   0  0  0  0  0  0  0  0  0  0  0  0
   58.4590   25.0500   46.5770 S   0  0  0  0  0  0  0  0  0  0  0  0
   57.0690   24.2010   47.0310 C   0  0  0  0  0  0  0  0  0  0  0  0
   57.0280   22.9870   47.4940 N   0  0  0  0  0  0  0  0  0  0  0  0
   56.1960   21.9170   47.0170 C   0  0  0  0  0  0  0  0  0  0  0  0
   54.9930   21.5860   47.6690 C   0  0  0  0  0  0  0  0  0  0  0  0
   54.6961   22.1282   48.5789 H   0  0  0  0  0  0  0  0  0  0  0  0
   54.1740   20.5710   47.1650 C   0  0  0  0  0  0  0  0  0  0  0  0
   53.2440   20.3049   47.6887 H   0  0  0  0  0  0  0  0  0  0  0  0
   54.5350   19.8940   45.9970 C   0  0  0  0  0  0  0  0  0  0  0  0
   53.7380   18.9140   45.5080 F   0  0  0  0  0  0  0  0  0  0  0  0
   55.7120   20.2400   45.3260 C   0  0  0  0  0  0  0  0  0  0  0  0
   55.9910   19.7125   44.4019 H   0  0  0  0  0  0  0  0  0  0  0  0
   56.5360   21.2540   45.8250 C   0  0  0  0  0  0  0  0  0  0  0  0
   58.0060   21.6700   44.9540 Cl  0  0  0  0  0  0  0  0  0  0  0  0
   55.9470   24.9180   46.8040 N   0  0  0  0  0  0  0  0  0  0  0  0
   56.2330   26.1410   46.2850 C   0  0  0  0  0  0  0  0  0  0  0  0
   55.2340   27.0630   45.9990 O   0  0  0  0  0  0  0  0  0  0  0  0
   58.7120   31.9790   46.0250 C   0  0  0  0  0  0  0  0  0  0  0  0
   59.1803   31.9134   47.0182 H   0  0  0  0  0  0  0  0  0  0  0  0
  1  2  1  0
  2  3  2  0
  3  4  1  0
  3  5  1  0
  5  6  1  0
  5  7  2  0
  7  8  1  0
  8  9  2  0
  8 10  1  0
 10 11  1  0
 10 12  1  0
  7 13  1  0
 13 14  1  0
 14 15  1  0
 15 16  2  0
 15 17  1  0
 17 18  1  0
 17 19  1  0
 17 20  1  0
 20 21  1  0
 21 22  1  0
 22 23  2  0
 23 24  1  0
 24 25  2  0
 25 26  1  0
 25 27  1  0
 27 28  1  0
 27 29  2  0
 29 30  1  0
 29 31  1  0
 31 32  1  0
 31 33  2  0
 33 34  1  0
 22 35  1  0
 35 36  1  0
 36 37  1  0
 13 38  2  0
 38 39  1  0
 38  2  1  0
 36 20  2  0
 33 24  1  0
M  CHG  3  14  -1  35  -1  37  -1
M  END
>  <UniqueID>  (73) 
66

>  <SMILES>  (73) 
NC(=O)c1ccccc1[N-]C(=O)Cc1s/c(=N\c2ccc(F)cc2Cl)[n-]c1[O-]

>  <Energy>  (73) 
84.18502236536469

>  <Genealogy>  (73) 
NC(=O)c1ccccc1[N-]C(=O)Cc1sc(=Nc2ccc(F)cc2Cl)[n-]c1[O-] (protonated)
NC(=O)c1ccccc1[N-]C(=O)Cc1s/c(=N\c2ccc(F)cc2Cl)[n-]c1[O-] (cis-trans isomerization)
NC(=O)c1ccccc1[N-]C(=O)Cc1s/c(=N\c2ccc(F)cc2Cl)[n-]c1[O-] (3D coordinates assigned)
NC(=O)c1ccccc1[N-]C(=O)Cc1s/c(=N\c2ccc(F)cc2Cl)[n-]c1[O-] (optimized conformer: 84.18502236536469 kcal/mol)

>  <smiles>  (73) 
NC(=O)c1ccccc1NC(=O)Cc1sc(=Nc2ccc(F)cc2Cl)[nH]c1O

>  <score_type>  (73) 
oracle

>  <origin>  (73) 
adg

>  <m_score__min__energy>  (73) 
-15.029999999999999

>  <m_primary>  (73) 
energy

$$$$
73:0
     RDKit          3D

 27 29  0  0  0  0  0  0  0  0999 V2000
   55.1940   30.1470   44.0130 O   0  0  0  0  0  0  0  0  0  0  0  0
   56.3390   29.9900   44.5110 C   0  0  0  0  0  0  0  0  0  0  0  0
   56.9620   28.7440   44.4550 C   0  0  0  0  0  0  0  0  0  0  0  0
   58.2380   28.5630   45.0140 C   0  0  0  0  0  0  0  0  0  0  0  0
   58.8610   27.1880   44.8850 C   0  0  0  0  0  0  0  0  0  0  0  0
   58.6020   26.1990   46.4020 S   0  0  0  0  0  0  0  0  0  0  0  0
   56.8610   25.9010   46.1110 C   0  0  0  0  0  0  0  0  0  0  0  0
   55.9090   26.8380   46.2890 N   0  0  0  0  0  0  0  0  0  0  0  0
   54.7720   26.2530   45.9640 N   0  0  0  0  0  0  0  0  0  0  0  0
   55.0530   24.9920   45.6050 C   0  0  0  0  0  0  0  0  0  0  0  0
   53.9320   23.9130   45.1090 S   0  0  0  0  0  0  0  0  0  0  0  0
   56.3690   24.7190   45.6830 N   0  0  0  0  0  0  0  0  0  0  0  0
   58.8840   29.6740   45.6240 C   0  0  0  0  0  0  0  0  0  0  0  0
   60.1710   29.6060   46.2030 C   0  0  0  0  0  0  0  0  0  0  0  0
   60.7570   30.7380   46.7750 C   0  0  0  0  0  0  0  0  0  0  0  0
   60.0730   31.9540   46.7900 C   0  0  0  0  0  0  0  0  0  0  0  0
   58.7990   32.0460   46.2300 C   0  0  0  0  0  0  0  0  0  0  0  0
   58.2020   30.9210   45.6480 C   0  0  0  0  0  0  0  0  0  0  0  0
   56.9660   31.0380   45.1000 N   0  0  0  0  0  0  0  0  0  0  0  0
   56.4518   27.8984   43.9706 H   0  0  0  0  0  0  0  0  0  0  0  0
   58.4023   26.6648   44.0330 H   0  0  0  0  0  0  0  0  0  0  0  0
   59.9431   27.3093   44.7289 H   0  0  0  0  0  0  0  0  0  0  0  0
   53.8350   26.7150   45.9870 H   0  0  0  0  0  0  0  0  0  0  0  0
   60.7176   28.6514   46.2034 H   0  0  0  0  0  0  0  0  0  0  0  0
   61.7626   30.6702   47.2157 H   0  0  0  0  0  0  0  0  0  0  0  0
   60.5390   32.8410   47.2440 H   0  0  0  0  0  0  0  0  0  0  0  0
   58.2614   33.0055   46.2456 H   0  0  0  0  0  0  0  0  0  0  0  0
  1  2  2  0
  2  3  1  0
  3  4  2  0
  4  5  1  0
  5  6  1  0
  6  7  1  0
  7  8  2  0
  8  9  1  0
  9 10  1  0
 10 11  2  0
 10 12  1  0
  4 13  1  0
 13 14  2  0
 14 15  1  0
 15 16  2  0
 16 17  1  0
 17 18  2  0
 18 19  1  0
 19  2  1  0
 12  7  1  0
 18 13  1  0
  3 20  1  0
  5 21  1  0
  5 22  1  0
  9 23  1  0
 14 24  1  0
 15 25  1  0
 16 26  1  0
 17 27  1  0
M  CHG  2  12  -1  19  -1
M  END
>  <UniqueID>  (74) 
67

>  <SMILES>  (74) 
O=c1cc(CSc2n[nH]c(=S)[n-]2)c2ccccc2[n-]1

>  <Energy>  (74) 
64.4953910523522

>  <Genealogy>  (74) 
O=c1cc(CSc2n[nH]c(=S)[n-]2)c2ccccc2[n-]1 (protonated)
O=c1cc(CSc2n[nH]c(=S)[n-]2)c2ccccc2[n-]1 (3D coordinates assigned)
O=c1cc(CSc2n[nH]c(=S)[n-]2)c2ccccc2[n-]1 (optimized conformer: 64.4953910523522 kcal/mol)

>  <smiles>  (74) 
O=c1cc(CSc2n[nH]c(=S)[nH]2)c2ccccc2[nH]1

>  <score_type>  (74) 
oracle

>  <origin>  (74) 
adg

>  <m_score__min__energy>  (74) 
-10.57

>  <m_primary>  (74) 
energy

$$$$
74:0
     RDKit          3D

 49 51  0  0  1  0  0  0  0  0999 V2000
   60.0170   29.7360   47.4230 C   0  0  0  0  0  0  0  0  0  0  0  0
   60.0950   31.1520   46.9960 C   0  0  0  0  0  0  0  0  0  0  0  0
   61.2770   31.8230   47.1200 C   0  0  0  0  0  0  0  0  0  0  0  0
   61.4250   33.1680   46.7350 C   0  0  0  0  0  0  0  0  0  0  0  0
   62.7200   33.7410   46.9440 C   0  0  0  0  0  0  0  0  0  0  0  0
   63.3860   33.9090   48.0490 C   0  0  0  0  0  0  0  0  0  0  0  0
   63.9930   32.8460   48.7170 C   0  0  0  0  0  0  0  0  0  0  0  0
   64.4670   31.9840   49.2650 N   0  0  0  0  0  0  0  0  0  0  0  0
   60.2970   33.7360   46.2310 C   0  0  0  0  0  0  0  0  0  0  0  0
   59.0760   33.0570   46.0980 C   0  0  0  0  0  0  0  0  0  0  0  0
   57.8880   33.7490   45.5380 C   0  0  0  0  0  0  0  0  0  0  0  0
   58.9610   31.7400   46.4840 C   0  0  0  0  0  0  0  0  0  0  0  0
   57.8060   31.0140   46.3840 O   0  0  0  0  0  0  0  0  0  0  0  0
   57.4620   30.2550   45.2740 C   0  0  0  0  0  0  0  0  0  0  0  0
   58.0140   29.0330   44.9820 C   0  0  0  0  0  0  0  0  0  0  0  0
   57.5790   28.3820   43.8440 C   0  0  0  0  0  0  0  0  0  0  0  0
   58.0450   27.2330   43.4980 N   0  0  0  0  0  0  0  0  0  0  0  0
   57.8850   26.0400   44.2250 C   0  0  0  0  0  0  0  0  0  0  0  0
   58.2410   26.0330   45.5640 C   0  0  0  0  0  0  0  0  0  0  0  0
   58.1140   24.9020   46.3480 C   0  0  0  0  0  0  0  0  0  0  0  0
   57.6130   23.7320   45.7810 C   0  0  0  0  0  0  0  0  0  0  0  0
   57.2470   23.7120   44.4390 C   0  0  0  0  0  0  0  0  0  0  0  0
   56.6160   22.2260   43.7380 S   0  0  0  0  0  0  0  0  0  0  0  0
   57.8640   21.1220   43.3400 N   0  0  0  0  0  0  0  0  0  0  0  0
   55.6640   21.5930   44.7130 O   0  0  0  0  0  0  0  0  0  0  0  0
   55.9000   22.6220   42.4810 O   0  0  0  0  0  0  0  0  0  0  0  0
   57.3910   24.8640   43.6930 C   0  0  0  0  0  0  0  0  0  0  0  0
   56.6440   28.9280   43.0440 N   0  0  0  0  0  0  0  0  0  0  0  0
   56.1240   30.1250   43.3580 C   0  0  0  0  0  0  0  0  0  0  0  0
   56.5150   30.7970   44.4560 N   0  0  0  0  0  0  0  0  0  0  0  0
   60.0141   29.6840   48.5218 H   0  0  0  0  0  0  0  0  0  0  0  0
   59.0927   29.2856   47.0322 H   0  0  0  0  0  0  0  0  0  0  0  0
   60.8862   29.1868   47.0322 H   0  0  0  0  0  0  0  0  0  0  0  0
   62.1461   31.2925   47.5364 H   0  0  0  0  0  0  0  0  0  0  0  0
   63.2283   34.0919   46.0338 H   0  0  0  0  0  0  0  0  0  0  0  0
   63.4730   34.9217   48.4696 H   0  0  0  0  0  0  0  0  0  0  0  0
   60.3442   34.7869   45.9094 H   0  0  0  0  0  0  0  0  0  0  0  0
   57.2565   34.1168   46.3602 H   0  0  0  0  0  0  0  0  0  0  0  0
   58.2157   34.5975   44.9194 H   0  0  0  0  0  0  0  0  0  0  0  0
   57.3115   33.0454   44.9194 H   0  0  0  0  0  0  0  0  0  0  0  0
   58.7790   28.5859   45.6338 H   0  0  0  0  0  0  0  0  0  0  0  0
   58.6363   26.9546   46.0162 H   0  0  0  0  0  0  0  0  0  0  0  0
   58.4054   24.9252   47.4085 H   0  0  0  0  0  0  0  0  0  0  0  0
   57.5070   22.8248   46.3940 H   0  0  0  0  0  0  0  0  0  0  0  0
   58.3810   20.8800   44.2200 H   0  0  0  0  0  0  0  0  0  0  0  0
   57.4220   20.2460   42.9790 H   0  0  0  0  0  0  0  0  0  0  0  0
   57.1009   24.8455   42.6321 H   0  0  0  0  0  0  0  0  0  0  0  0
   56.3000   28.4670   42.1890 H   0  0  0  0  0  0  0  0  0  0  0  0
   55.3598   30.5671   42.7018 H   0  0  0  0  0  0  0  0  0  0  0  0
  1  2  1  0
  2  3  2  0
  3  4  1  0
  4  5  1  0
  5  6  2  0
  6  7  1  0
  7  8  3  0
  4  9  2  0
  9 10  1  0
 10 11  1  0
 10 12  2  0
 12 13  1  0
 13 14  1  0
 14 15  2  0
 15 16  1  0
 16 17  2  0
 17 18  1  0
 18 19  2  0
 19 20  1  0
 20 21  2  0
 21 22  1  0
 22 23  1  0
 23 24  1  0
 23 25  2  0
 23 26  2  0
 22 27  2  0
 16 28  1  0
 28 29  1  0
 29 30  2  0
 12  2  1  0
 30 14  1  0
 27 18  1  0
  1 31  1  0
  1 32  1  0
  1 33  1  0
  3 34  1  0
  5 35  1  0
  6 36  1  0
  9 37  1  0
 11 38  1  0
 11 39  1  0
 11 40  1  0
 15 41  1  0
 19 42  1  0
 20 43  1  0
 21 44  1  0
 24 45  1  0
 24 46  1  0
 27 47  1  0
 28 48  1  0
 29 49  1  0
M  END
>  <smiles>  (75) 
Cc1cc(C=CC#N)cc(C)c1Oc1cc(=Nc2cccc(S(N)(=O)=O)c2)[nH]cn1

>  <score_type>  (75) 
oracle

>  <origin>  (75) 
adg

>  <m_score__min__energy>  (75) 
-9.9600000000000009

>  <m_primary>  (75) 
energy

$$$$
75:0
     RDKit          3D

 36 38  0  0  0  0  0  0  0  0999 V2000
   54.7660   27.0810   46.5590 H   0  0  0  0  0  0  0  0  0  0  0  0
   54.8220   26.2000   46.0000 N   0  0  0  0  0  0  0  0  0  0  0  0
   56.4960   25.7990   45.8570 S   0  0  0  0  0  0  0  0  0  0  0  0
   56.6630   24.6820   44.8650 O   0  0  0  0  0  0  0  0  0  0  0  0
   57.0150   25.3410   47.1900 O   0  0  0  0  0  0  0  0  0  0  0  0
   57.3950   27.2140   45.3170 C   0  0  0  0  0  0  0  0  0  0  0  0
   58.7380   27.0930   44.9350 C   0  0  0  0  0  0  0  0  0  0  0  0
   59.2252   26.1068   44.9454 H   0  0  0  0  0  0  0  0  0  0  0  0
   59.4590   28.2230   44.5410 C   0  0  0  0  0  0  0  0  0  0  0  0
   60.5149   28.1258   44.2483 H   0  0  0  0  0  0  0  0  0  0  0  0
   58.8420   29.4760   44.5180 C   0  0  0  0  0  0  0  0  0  0  0  0
   59.4187   30.3638   44.2194 H   0  0  0  0  0  0  0  0  0  0  0  0
   57.4930   29.6090   44.8730 C   0  0  0  0  0  0  0  0  0  0  0  0
   56.9060   30.9220   44.8720 N   0  0  0  0  0  0  0  0  0  0  0  0
   57.4360   32.0150   45.3370 C   0  0  0  0  0  0  0  0  0  0  0  0
   58.6680   31.9620   45.9060 N   0  0  0  0  0  0  0  0  0  0  0  0
   59.2830   33.0750   46.3930 C   0  0  0  0  0  0  0  0  0  0  0  0
   60.6330   32.9540   47.0030 C   0  0  0  0  0  0  0  0  0  0  0  0
   60.9250   31.9480   47.9450 C   0  0  0  0  0  0  0  0  0  0  0  0
   60.1416   31.2365   48.2451 H   0  0  0  0  0  0  0  0  0  0  0  0
   62.2040   31.8480   48.5010 C   0  0  0  0  0  0  0  0  0  0  0  0
   62.4188   31.0624   49.2404 H   0  0  0  0  0  0  0  0  0  0  0  0
   63.2110   32.7400   48.1230 C   0  0  0  0  0  0  0  0  0  0  0  0
   64.4790   32.6270   48.6860 O   0  0  0  0  0  0  0  0  0  0  0  0
   65.3150   32.8610   48.1610 H   0  0  0  0  0  0  0  0  0  0  0  0
   62.9340   33.7370   47.1790 C   0  0  0  0  0  0  0  0  0  0  0  0
   63.7238   34.4400   46.8758 H   0  0  0  0  0  0  0  0  0  0  0  0
   61.6560   33.8410   46.6210 C   0  0  0  0  0  0  0  0  0  0  0  0
   61.4486   34.6237   45.8764 H   0  0  0  0  0  0  0  0  0  0  0  0
   58.6290   34.3130   46.2840 C   0  0  0  0  0  0  0  0  0  0  0  0
   59.1020   35.2322   46.6601 H   0  0  0  0  0  0  0  0  0  0  0  0
   57.3690   34.3540   45.6900 C   0  0  0  0  0  0  0  0  0  0  0  0
   56.8364   35.3119   45.5966 H   0  0  0  0  0  0  0  0  0  0  0  0
   56.7990   33.2140   45.2270 N   0  0  0  0  0  0  0  0  0  0  0  0
   56.7790   28.4730   45.3020 C   0  0  0  0  0  0  0  0  0  0  0  0
   55.7330   28.5744   45.6268 H   0  0  0  0  0  0  0  0  0  0  0  0
  1  2  1  0
  2  3  1  0
  3  4  2  0
  3  5  2  0
  3  6  1  0
  6  7  2  0
  7  8  1  0
  7  9  1  0
  9 10  1  0
  9 11  2  0
 11 12  1  0
 11 13  1  0
 13 14  1  0
 14 15  2  0
 15 16  1  0
 16 17  2  0
 17 18  1  0
 18 19  2  0
 19 20  1  0
 19 21  1  0
 21 22  1  0
 21 23  2  0
 23 24  1  0
 24 25  1  0
 23 26  1  0
 26 27  1  0
 26 28  2  0
 28 29  1  0
 17 30  1  0
 30 31  1  0
 30 32  2  0
 32 33  1  0
 32 34  1  0
 13 35  2  0
 35 36  1  0
 35  6  1  0
 34 15  1  0
 28 18  1  0
M  CHG  2   2  -1  34  -1
M  END
>  <UniqueID>  (76) 
68

>  <SMILES>  (76) 
[NH-]S(=O)(=O)c1cccc(/N=c2/nc(-c3ccc(O)cc3)cc[n-]2)c1

>  <Energy>  (76) 
49.39447000784805

>  <Genealogy>  (76) 
[NH-]S(=O)(=O)c1cccc(N=c2nc(-c3ccc(O)cc3)cc[n-]2)c1 (protonated)
[NH-]S(=O)(=O)c1cccc(/N=c2/nc(-c3ccc(O)cc3)cc[n-]2)c1 (cis-trans isomerization)
[NH-]S(=O)(=O)c1cccc(/N=c2/nc(-c3ccc(O)cc3)cc[n-]2)c1 (3D coordinates assigned)
[NH-]S(=O)(=O)c1cccc(/N=c2/nc(-c3ccc(O)cc3)cc[n-]2)c1 (optimized conformer: 49.39447000784805 kcal/mol)

>  <smiles>  (76) 
NS(=O)(=O)c1cccc(N=c2nc(-c3ccc(O)cc3)cc[nH]2)c1

>  <score_type>  (76) 
oracle

>  <origin>  (76) 
adg

>  <m_score__min__energy>  (76) 
-12.99

>  <m_primary>  (76) 
energy

$$$$
76:0
     RDKit          3D

 66 69  0  0  0  0  0  0  0  0999 V2000
   63.8890   33.2400   49.3340 N   0  0  0  0  0  0  0  0  0  0  0  0
   63.0800   32.7760   47.8770 S   0  0  0  0  0  0  0  0  0  0  0  0
   63.8900   33.2600   46.7080 O   0  0  0  0  0  0  0  0  0  0  0  0
   62.9760   31.2790   47.8130 O   0  0  0  0  0  0  0  0  0  0  0  0
   61.4630   33.4890   47.8270 C   0  0  0  0  0  0  0  0  0  0  0  0
   61.0070   34.0830   46.6420 C   0  0  0  0  0  0  0  0  0  0  0  0
   59.7400   34.6840   46.5830 C   0  0  0  0  0  0  0  0  0  0  0  0
   59.2850   35.3470   45.3460 C   0  0  0  0  0  0  0  0  0  0  0  0
   59.8150   36.4360   45.0030 O   0  0  0  0  0  0  0  0  0  0  0  0
   58.2680   34.7780   44.5090 N   0  0  0  0  0  0  0  0  0  0  0  0
   57.3460   33.7150   44.9070 C   0  0  0  0  0  0  0  0  0  0  0  0
   58.0630   32.3480   44.9850 C   0  0  0  0  0  0  0  0  0  0  0  0
   57.1710   31.1660   44.9050 N   0  0  0  0  0  0  0  0  0  0  0  0
   56.6280   30.9010   43.5610 C   0  0  0  0  0  0  0  0  0  0  0  0
   55.5810   29.7670   43.6250 C   0  0  0  0  0  0  0  0  0  0  0  0
   55.5520   29.1250   44.8880 O   0  0  0  0  0  0  0  0  0  0  0  0
   56.8590   28.7250   45.2520 C   0  0  0  0  0  0  0  0  0  0  0  0
   57.7570   29.9520   45.5090 C   0  0  0  0  0  0  0  0  0  0  0  0
   58.9390   34.7150   47.7330 C   0  0  0  0  0  0  0  0  0  0  0  0
   59.3830   34.1210   48.9150 C   0  0  0  0  0  0  0  0  0  0  0  0
   60.6320   33.4930   48.9660 C   0  0  0  0  0  0  0  0  0  0  0  0
   61.0420   32.9000   50.1650 O   0  0  0  0  0  0  0  0  0  0  0  0
   60.2550   32.0060   50.9040 C   0  0  0  0  0  0  0  0  0  0  0  0
   59.1680   31.3940   50.2730 C   0  0  0  0  0  0  0  0  0  0  0  0
   58.3570   30.4930   50.9690 C   0  0  0  0  0  0  0  0  0  0  0  0
   58.6230   30.1870   52.3140 C   0  0  0  0  0  0  0  0  0  0  0  0
   57.7860   29.2130   53.0500 C   0  0  0  0  0  0  0  0  0  0  0  0
   58.1970   28.0310   53.2050 O   0  0  0  0  0  0  0  0  0  0  0  0
   56.5190   29.6020   53.6040 N   0  0  0  0  0  0  0  0  0  0  0  0
   55.5080   28.6220   53.9970 C   0  0  0  0  0  0  0  0  0  0  0  0
   54.2020   28.9370   53.3200 C   0  0  0  0  0  0  0  0  0  0  0  0
   53.0930   28.0900   53.4790 C   0  0  0  0  0  0  0  0  0  0  0  0
   51.8960   28.3670   52.8080 C   0  0  0  0  0  0  0  0  0  0  0  0
   50.8270   27.5460   52.9570 F   0  0  0  0  0  0  0  0  0  0  0  0
   51.8010   29.4850   51.9730 C   0  0  0  0  0  0  0  0  0  0  0  0
   52.9030   30.3280   51.8050 C   0  0  0  0  0  0  0  0  0  0  0  0
   52.8110   31.4070   50.9880 F   0  0  0  0  0  0  0  0  0  0  0  0
   54.1030   30.0530   52.4710 C   0  0  0  0  0  0  0  0  0  0  0  0
   59.7220   30.7930   52.9440 C   0  0  0  0  0  0  0  0  0  0  0  0
   60.5310   31.6970   52.2480 C   0  0  0  0  0  0  0  0  0  0  0  0
   63.1740   33.2370   50.0950 H   0  0  0  0  0  0  0  0  0  0  0  0
   61.6490   34.0781   45.7488 H   0  0  0  0  0  0  0  0  0  0  0  0
   56.9264   33.9562   45.8948 H   0  0  0  0  0  0  0  0  0  0  0  0
   56.5495   33.6461   44.1514 H   0  0  0  0  0  0  0  0  0  0  0  0
   58.7801   32.2910   44.1529 H   0  0  0  0  0  0  0  0  0  0  0  0
   58.5389   32.3070   45.9759 H   0  0  0  0  0  0  0  0  0  0  0  0
   56.1519   31.8142   43.1745 H   0  0  0  0  0  0  0  0  0  0  0  0
   57.4487   30.5958   42.8951 H   0  0  0  0  0  0  0  0  0  0  0  0
   54.5871   30.1929   43.4230 H   0  0  0  0  0  0  0  0  0  0  0  0
   55.8588   29.0132   42.8735 H   0  0  0  0  0  0  0  0  0  0  0  0
   56.8081   28.1175   46.1676 H   0  0  0  0  0  0  0  0  0  0  0  0
   57.2906   28.1395   44.4268 H   0  0  0  0  0  0  0  0  0  0  0  0
   57.8602   30.1026   46.5937 H   0  0  0  0  0  0  0  0  0  0  0  0
   58.7412   29.7707   45.0525 H   0  0  0  0  0  0  0  0  0  0  0  0
   57.9568   35.2094   47.7035 H   0  0  0  0  0  0  0  0  0  0  0  0
   58.7470   34.1467   49.8121 H   0  0  0  0  0  0  0  0  0  0  0  0
   58.9490   31.6234   49.2197 H   0  0  0  0  0  0  0  0  0  0  0  0
   57.5043   30.0201   50.4598 H   0  0  0  0  0  0  0  0  0  0  0  0
   56.2970   30.6160   53.7280 H   0  0  0  0  0  0  0  0  0  0  0  0
   55.8398   27.6161   53.7002 H   0  0  0  0  0  0  0  0  0  0  0  0
   55.3700   28.6603   55.0876 H   0  0  0  0  0  0  0  0  0  0  0  0
   53.1651   27.2076   54.1318 H   0  0  0  0  0  0  0  0  0  0  0  0
   50.8586   29.7009   51.4483 H   0  0  0  0  0  0  0  0  0  0  0  0
   54.9718   30.7126   52.3295 H   0  0  0  0  0  0  0  0  0  0  0  0
   59.9485   30.5547   53.9937 H   0  0  0  0  0  0  0  0  0  0  0  0
   61.3866   32.1682   52.7538 H   0  0  0  0  0  0  0  0  0  0  0  0
  1  2  1  0
  2  3  2  0
  2  4  2  0
  2  5  1  0
  5  6  2  0
  6  7  1  0
  7  8  1  0
  8  9  2  0
  8 10  1  0
 10 11  1  0
 11 12  1  0
 12 13  1  0
 13 14  1  0
 14 15  1  0
 15 16  1  0
 16 17  1  0
 17 18  1  0
  7 19  2  0
 19 20  1  0
 20 21  2  0
 21 22  1  0
 22 23  1  0
 23 24  2  0
 24 25  1  0
 25 26  2  0
 26 27  1  0
 27 28  2  0
 27 29  1  0
 29 30  1  0
 30 31  1  0
 31 32  2  0
 32 33  1  0
 33 34  1  0
 33 35  2  0
 35 36  1  0
 36 37  1  0
 36 38  2  0
 26 39  1  0
 39 40  2  0
 21  5  1  0
 40 23  1  0
 18 13  1  0
 38 31  1  0
  1 41  1  0
  6 42  1  0
 11 43  1  0
 11 44  1  0
 12 45  1  0
 12 46  1  0
 14 47  1  0
 14 48  1  0
 15 49  1  0
 15 50  1  0
 17 51  1  0
 17 52  1  0
 18 53  1  0
 18 54  1  0
 19 55  1  0
 20 56  1  0
 24 57  1  0
 25 58  1  0
 29 59  1  0
 30 60  1  0
 30 61  1  0
 32 62  1  0
 35 63  1  0
 38 64  1  0
 39 65  1  0
 40 66  1  0
M  CHG  2   1  -1  10  -1
M  END
>  <UniqueID>  (77) 
69

>  <SMILES>  (77) 
[NH-]S(=O)(=O)c1cc(C(=O)[N-]CCN2CCOCC2)ccc1Oc1ccc(C(=O)NCc2cc(F)cc(F)c2)cc1

>  <Energy>  (77) 
94.82662903558342

>  <Genealogy>  (77) 
[NH-]S(=O)(=O)c1cc(C(=O)[N-]CCN2CCOCC2)ccc1Oc1ccc(C(=O)NCc2cc(F)cc(F)c2)cc1 (protonated)
[NH-]S(=O)(=O)c1cc(C(=O)[N-]CCN2CCOCC2)ccc1Oc1ccc(C(=O)NCc2cc(F)cc(F)c2)cc1 (3D coordinates assigned)
[NH-]S(=O)(=O)c1cc(C(=O)[N-]CCN2CCOCC2)ccc1Oc1ccc(C(=O)NCc2cc(F)cc(F)c2)cc1 (nonaromatic ring conformer: 94.82662903558342 kcal/mol)

>  <smiles>  (77) 
NS(=O)(=O)c1cc(C(=O)NCCN2CCOCC2)ccc1Oc1ccc(C(=O)NCc2cc(F)cc(F)c2)cc1

>  <score_type>  (77) 
oracle

>  <origin>  (77) 
adg

>  <m_score__min__energy>  (77) 
-14.25

>  <m_primary>  (77) 
energy

$$$$
77:0
     RDKit          3D

 52 53  0  0  0  0  0  0  0  0999 V2000
   56.9040   21.4910   42.9930 C   0  0  0  0  0  0  0  0  0  0  0  0
   55.8900   22.4350   43.3330 O   0  0  0  0  0  0  0  0  0  0  0  0
   55.9000   23.2230   44.4950 C   0  0  0  0  0  0  0  0  0  0  0  0
   55.3050   22.7990   45.7010 C   0  0  0  0  0  0  0  0  0  0  0  0
   55.3340   23.6260   46.8290 C   0  0  0  0  0  0  0  0  0  0  0  0
   55.9570   24.8770   46.7680 C   0  0  0  0  0  0  0  0  0  0  0  0
   56.5700   25.3050   45.5800 C   0  0  0  0  0  0  0  0  0  0  0  0
   57.2070   26.6650   45.5060 C   0  0  0  0  0  0  0  0  0  0  0  0
   56.1720   27.6890   45.5950 N   0  0  0  0  0  0  0  0  0  0  0  0
   56.1940   28.9320   44.8790 C   0  0  0  0  0  0  0  0  0  0  0  0
   55.1810   29.6800   44.9380 O   0  0  0  0  0  0  0  0  0  0  0  0
   57.3620   29.3250   44.0080 C   0  0  0  0  0  0  0  0  0  0  0  0
   57.6450   30.8020   44.1000 C   0  0  0  0  0  0  0  0  0  0  0  0
   57.4260   31.5120   43.0800 O   0  0  0  0  0  0  0  0  0  0  0  0
   58.1550   31.4090   45.3120 N   0  0  0  0  0  0  0  0  0  0  0  0
   57.6570   32.7160   45.7590 C   0  0  0  0  0  0  0  0  0  0  0  0
   59.0100   30.6550   46.1960 C   0  0  0  0  0  0  0  0  0  0  0  0
   60.2110   31.0090   46.3600 O   0  0  0  0  0  0  0  0  0  0  0  0
   58.5150   29.4870   46.8680 N   0  0  0  0  0  0  0  0  0  0  0  0
   59.2800   28.8100   47.8790 C   0  0  0  0  0  0  0  0  0  0  0  0
   60.0390   27.6570   47.5570 C   0  0  0  0  0  0  0  0  0  0  0  0
   60.0700   27.1080   46.1530 C   0  0  0  0  0  0  0  0  0  0  0  0
   60.7750   27.0100   48.5630 C   0  0  0  0  0  0  0  0  0  0  0  0
   60.7910   27.5150   49.8650 C   0  0  0  0  0  0  0  0  0  0  0  0
   60.0710   28.6670   50.1810 C   0  0  0  0  0  0  0  0  0  0  0  0
   59.3040   29.3190   49.1990 C   0  0  0  0  0  0  0  0  0  0  0  0
   58.5410   30.5680   49.5620 C   0  0  0  0  0  0  0  0  0  0  0  0
   56.5250   24.4780   44.4430 C   0  0  0  0  0  0  0  0  0  0  0  0
   57.3456   21.0799   43.9128 H   0  0  0  0  0  0  0  0  0  0  0  0
   56.4622   20.6752   42.4020 H   0  0  0  0  0  0  0  0  0  0  0  0
   57.6862   21.9899   42.4020 H   0  0  0  0  0  0  0  0  0  0  0  0
   54.8165   21.8149   45.7551 H   0  0  0  0  0  0  0  0  0  0  0  0
   54.8656   23.2916   47.7665 H   0  0  0  0  0  0  0  0  0  0  0  0
   55.9666   25.5280   47.6546 H   0  0  0  0  0  0  0  0  0  0  0  0
   57.9148   26.7848   46.3395 H   0  0  0  0  0  0  0  0  0  0  0  0
   57.7452   26.7678   44.5522 H   0  0  0  0  0  0  0  0  0  0  0  0
   58.2537   28.7690   44.3331 H   0  0  0  0  0  0  0  0  0  0  0  0
   57.1110   29.0853   42.9642 H   0  0  0  0  0  0  0  0  0  0  0  0
   57.6451   32.7473   46.8585 H   0  0  0  0  0  0  0  0  0  0  0  0
   58.3157   33.5097   45.3767 H   0  0  0  0  0  0  0  0  0  0  0  0
   56.6372   32.8701   45.3767 H   0  0  0  0  0  0  0  0  0  0  0  0
   57.6740   29.0070   46.4740 H   0  0  0  0  0  0  0  0  0  0  0  0
   60.1320   26.0104   46.1898 H   0  0  0  0  0  0  0  0  0  0  0  0
   59.1536   27.4059   45.6225 H   0  0  0  0  0  0  0  0  0  0  0  0
   60.9470   27.5072   45.6225 H   0  0  0  0  0  0  0  0  0  0  0  0
   61.3430   26.0989   48.3237 H   0  0  0  0  0  0  0  0  0  0  0  0
   61.3738   27.0022   50.6444 H   0  0  0  0  0  0  0  0  0  0  0  0
   60.1033   29.0681   51.2048 H   0  0  0  0  0  0  0  0  0  0  0  0
   58.4856   30.6587   50.6569 H   0  0  0  0  0  0  0  0  0  0  0  0
   59.0568   31.4464   49.1470 H   0  0  0  0  0  0  0  0  0  0  0  0
   57.5240   30.5100   49.1470 H   0  0  0  0  0  0  0  0  0  0  0  0
   56.9846   24.8188   43.5035 H   0  0  0  0  0  0  0  0  0  0  0  0
  1  2  1  0
  2  3  1  0
  3  4  2  0
  4  5  1  0
  5  6  2  0
  6  7  1  0
  7  8  1  0
  8  9  1  0
  9 10  1  0
 10 11  2  0
 10 12  1  0
 12 13  1  0
 13 14  2  0
 13 15  1  0
 15 16  1  0
 15 17  1  0
 17 18  2  0
 17 19  1  0
 19 20  1  0
 20 21  2  0
 21 22  1  0
 21 23  1  0
 23 24  2  0
 24 25  1  0
 25 26  2  0
 26 27  1  0
  7 28  2  0
 28  3  1  0
 26 20  1  0
  1 29  1  0
  1 30  1  0
  1 31  1  0
  4 32  1  0
  5 33  1  0
  6 34  1  0
  8 35  1  0
  8 36  1  0
 12 37  1  0
 12 38  1  0
 16 39  1  0
 16 40  1  0
 16 41  1  0
 19 42  1  0
 22 43  1  0
 22 44  1  0
 22 45  1  0
 23 46  1  0
 24 47  1  0
 25 48  1  0
 27 49  1  0
 27 50  1  0
 27 51  1  0
 28 52  1  0
M  CHG  1   9  -1
M  END
>  <UniqueID>  (78) 
70

>  <SMILES>  (78) 
COc1cccc(C[N-]C(=O)CC(=O)N(C)C(=O)Nc2c(C)cccc2C)c1

>  <Energy>  (78) 
56.88738854899282

>  <Genealogy>  (78) 
COc1cccc(C[N-]C(=O)CC(=O)N(C)C(=O)Nc2c(C)cccc2C)c1 (protonated)
COc1cccc(C[N-]C(=O)CC(=O)N(C)C(=O)Nc2c(C)cccc2C)c1 (3D coordinates assigned)
COc1cccc(C[N-]C(=O)CC(=O)N(C)C(=O)Nc2c(C)cccc2C)c1 (optimized conformer: 56.88738854899282 kcal/mol)

>  <smiles>  (78) 
COc1cccc(CNC(=O)CC(=O)N(C)C(=O)Nc2c(C)cccc2C)c1

>  <score_type>  (78) 
oracle

>  <origin>  (78) 
adg

>  <m_score__min__energy>  (78) 
-10.630000000000001

>  <m_primary>  (78) 
energy

$$$$
78:0
     RDKit          3D

 62 65  0  0  0  0  0  0  0  0999 V2000
   53.2520   21.3080   49.7890 C   0  0  0  0  0  0  0  0  0  0  0  0
   54.1880   21.1060   48.7350 O   0  0  0  0  0  0  0  0  0  0  0  0
   54.9080   22.1550   48.1510 C   0  0  0  0  0  0  0  0  0  0  0  0
   56.1530   22.5330   48.6860 C   0  0  0  0  0  0  0  0  0  0  0  0
   56.7900   21.8000   49.7980 C   0  0  0  0  0  0  0  0  0  0  0  0
   56.3180   20.6800   50.1360 O   0  0  0  0  0  0  0  0  0  0  0  0
   57.8910   22.3660   50.5290 N   0  0  0  0  0  0  0  0  0  0  0  0
   58.5770   21.6570   51.6080 C   0  0  0  0  0  0  0  0  0  0  0  0
   59.4640   22.6190   52.4080 C   0  0  1  0  0  0  0  0  0  0  0  0
   60.9450   22.3130   52.2510 C   0  0  0  0  0  0  0  0  0  0  0  0
   61.5730   23.6560   52.4490 C   0  0  0  0  0  0  0  0  0  0  0  0
   60.4790   24.6180   52.0210 C   0  0  0  0  0  0  0  0  0  0  0  0
   59.2400   23.9440   51.9810 O   0  0  0  0  0  0  0  0  0  0  0  0
   56.7730   23.6440   48.2090 N   0  0  0  0  0  0  0  0  0  0  0  0
   56.2490   24.3820   47.1950 C   0  0  0  0  0  0  0  0  0  0  0  0
   56.9550   25.5930   46.6880 C   0  0  0  0  0  0  0  0  0  0  0  0
   58.3610   25.6190   46.6950 C   0  0  0  0  0  0  0  0  0  0  0  0
   59.0550   26.7400   46.2450 C   0  0  0  0  0  0  0  0  0  0  0  0
   58.3610   27.8480   45.7690 C   0  0  0  0  0  0  0  0  0  0  0  0
   56.9620   27.8520   45.7240 C   0  0  0  0  0  0  0  0  0  0  0  0
   56.3280   29.0300   45.1980 N   0  0  0  0  0  0  0  0  0  0  0  0
   56.2940   29.5810   43.5530 S   0  0  0  0  0  0  0  0  0  0  0  0
   57.0900   31.1670   43.4670 C   0  0  0  0  0  0  0  0  0  0  0  0
   57.0420   28.6170   42.6730 O   0  0  0  0  0  0  0  0  0  0  0  0
   54.8730   29.7170   43.0830 O   0  0  0  0  0  0  0  0  0  0  0  0
   56.2510   26.7220   46.1970 C   0  0  0  0  0  0  0  0  0  0  0  0
   54.8620   26.7140   46.1880 O   0  0  0  0  0  0  0  0  0  0  0  0
   55.0840   23.9830   46.6210 N   0  0  0  0  0  0  0  0  0  0  0  0
   54.4070   22.8890   47.0570 C   0  0  0  0  0  0  0  0  0  0  0  0
   53.2250   22.4830   46.3500 N   0  0  0  0  0  0  0  0  0  0  0  0
   52.4410   23.4970   45.6270 C   0  0  0  0  0  0  0  0  0  0  0  0
   51.0270   23.0070   45.3110 C   0  0  0  0  0  0  0  0  0  0  0  0
   51.0510   21.6680   44.8660 O   0  0  0  0  0  0  0  0  0  0  0  0
   51.3970   20.8330   45.9490 C   0  0  0  0  0  0  0  0  0  0  0  0
   52.8470   21.0620   46.3860 C   0  0  0  0  0  0  0  0  0  0  0  0
   53.7613   21.1981   50.7578 H   0  0  0  0  0  0  0  0  0  0  0  0
   52.8253   22.3189   49.7117 H   0  0  0  0  0  0  0  0  0  0  0  0
   52.4464   20.5630   49.7117 H   0  0  0  0  0  0  0  0  0  0  0  0
   58.1280   23.3740   50.3910 H   0  0  0  0  0  0  0  0  0  0  0  0
   57.8292   21.2112   52.2803 H   0  0  0  0  0  0  0  0  0  0  0  0
   59.2108   20.8720   51.1696 H   0  0  0  0  0  0  0  0  0  0  0  0
   59.1937   22.4921   53.4667 H   0  0  0  0  0  0  0  0  0  0  0  0
   61.2866   21.5976   53.0136 H   0  0  0  0  0  0  0  0  0  0  0  0
   61.1979   21.8473   51.2871 H   0  0  0  0  0  0  0  0  0  0  0  0
   61.8453   23.8124   53.5032 H   0  0  0  0  0  0  0  0  0  0  0  0
   62.5060   23.7836   51.8804 H   0  0  0  0  0  0  0  0  0  0  0  0
   60.4203   25.4481   52.7404 H   0  0  0  0  0  0  0  0  0  0  0  0
   60.7115   25.0112   51.0204 H   0  0  0  0  0  0  0  0  0  0  0  0
   58.9192   24.7442   47.0600 H   0  0  0  0  0  0  0  0  0  0  0  0
   60.1548   26.7492   46.2661 H   0  0  0  0  0  0  0  0  0  0  0  0
   58.9184   28.7313   45.4239 H   0  0  0  0  0  0  0  0  0  0  0  0
   57.2768   31.5392   44.4851 H   0  0  0  0  0  0  0  0  0  0  0  0
   58.0457   31.0690   42.9313 H   0  0  0  0  0  0  0  0  0  0  0  0
   56.4403   31.8748   42.9313 H   0  0  0  0  0  0  0  0  0  0  0  0
   52.3730   24.4028   46.2474 H   0  0  0  0  0  0  0  0  0  0  0  0
   52.9500   23.7057   44.6745 H   0  0  0  0  0  0  0  0  0  0  0  0
   50.4100   23.0747   46.2191 H   0  0  0  0  0  0  0  0  0  0  0  0
   50.6041   23.6369   44.5145 H   0  0  0  0  0  0  0  0  0  0  0  0
   50.7290   21.0490   46.7958 H   0  0  0  0  0  0  0  0  0  0  0  0
   51.2919   19.7861   45.6281 H   0  0  0  0  0  0  0  0  0  0  0  0
   52.9693   20.6897   47.4138 H   0  0  0  0  0  0  0  0  0  0  0  0
   53.4987   20.5233   45.6824 H   0  0  0  0  0  0  0  0  0  0  0  0
  1  2  1  0
  2  3  1  0
  3  4  2  0
  4  5  1  0
  5  6  2  0
  5  7  1  0
  7  8  1  0
  8  9  1  0
  9 10  1  0
 10 11  1  0
 11 12  1  0
 12 13  1  0
  4 14  1  0
 14 15  2  0
 15 16  1  0
 16 17  2  0
 17 18  1  0
 18 19  2  0
 19 20  1  0
 20 21  1  0
 21 22  1  0
 22 23  1  0
 22 24  2  0
 22 25  2  0
 20 26  2  0
 26 27  1  0
 15 28  1  0
 28 29  2  0
 29 30  1  0
 30 31  1  0
 31 32  1  0
 32 33  1  0
 33 34  1  0
 34 35  1  0
 29  3  1  0
 35 30  1  0
 13  9  1  0
 26 16  1  0
  1 36  1  0
  1 37  1  0
  1 38  1  0
  7 39  1  0
  8 40  1  0
  8 41  1  0
  9 42  1  1
 10 43  1  0
 10 44  1  0
 11 45  1  0
 11 46  1  0
 12 47  1  0
 12 48  1  0
 17 49  1  0
 18 50  1  0
 19 51  1  0
 23 52  1  0
 23 53  1  0
 23 54  1  0
 31 55  1  0
 31 56  1  0
 32 57  1  0
 32 58  1  0
 34 59  1  0
 34 60  1  0
 35 61  1  0
 35 62  1  0
M  CHG  2  21  -1  27  -1
M  END
>  <UniqueID>  (79) 
71

>  <SMILES>  (79) 
COc1c(C(=O)NC[C@H]2CCCO2)nc(-c2cccc([N-]S(C)(=O)=O)c2[O-])nc1N1CCOCC1

>  <Energy>  (79) 
83.45913894175578

>  <Genealogy>  (79) 
COc1c(C(=O)NCC2CCCO2)nc(-c2cccc([N-]S(C)(=O)=O)c2[O-])nc1N1CCOCC1 (protonated)
COc1c(C(=O)NC[C@H]2CCCO2)nc(-c2cccc([N-]S(C)(=O)=O)c2[O-])nc1N1CCOCC1 (chirality)
COc1c(C(=O)NC[C@H]2CCCO2)nc(-c2cccc([N-]S(C)(=O)=O)c2[O-])nc1N1CCOCC1 (3D coordinates assigned)
COc1c(C(=O)NC[C@H]2CCCO2)nc(-c2cccc([N-]S(C)(=O)=O)c2[O-])nc1N1CCOCC1 (nonaromatic ring conformer: 83.45913894175578 kcal/mol)

>  <smiles>  (79) 
COc1c(C(=O)NCC2CCCO2)nc(-c2cccc(NS(C)(=O)=O)c2O)nc1N1CCOCC1

>  <score_type>  (79) 
oracle

>  <origin>  (79) 
adg

>  <m_score__min__energy>  (79) 
-13.92

>  <m_primary>  (79) 
energy

$$$$
79:0
     RDKit          3D

 42 44  0  0  0  0  0  0  0  0999 V2000
   61.6220   32.4060   49.3940 O   0  0  0  0  0  0  0  0  0  0  0  0
   61.5890   31.9450   48.2220 C   0  0  0  0  0  0  0  0  0  0  0  0
   61.5750   32.9150   47.0640 C   0  0  0  0  0  0  0  0  0  0  0  0
   60.1810   33.3480   46.6770 C   0  0  0  0  0  0  0  0  0  0  0  0
   59.9800   34.1890   45.5670 C   0  0  0  0  0  0  0  0  0  0  0  0
   58.6920   34.6080   45.2230 C   0  0  0  0  0  0  0  0  0  0  0  0
   57.5930   34.1770   45.9700 C   0  0  0  0  0  0  0  0  0  0  0  0
   57.7800   33.3190   47.0580 C   0  0  0  0  0  0  0  0  0  0  0  0
   59.0670   32.9010   47.4080 C   0  0  0  0  0  0  0  0  0  0  0  0
   61.5960   30.5190   48.0470 N   0  0  0  0  0  0  0  0  0  0  0  0
   60.5880   29.7470   47.3830 C   0  0  0  0  0  0  0  0  0  0  0  0
   59.4410   29.3700   48.0910 C   0  0  0  0  0  0  0  0  0  0  0  0
   58.4820   28.5490   47.4900 C   0  0  0  0  0  0  0  0  0  0  0  0
   58.6650   28.0940   46.1800 C   0  0  0  0  0  0  0  0  0  0  0  0
   57.7030   27.1980   45.6090 N   0  0  0  0  0  0  0  0  0  0  0  0
   56.2900   27.4170   45.6270 C   0  0  0  0  0  0  0  0  0  0  0  0
   55.5350   26.5120   46.0700 O   0  0  0  0  0  0  0  0  0  0  0  0
   55.7460   28.6530   45.1410 N   0  0  0  0  0  0  0  0  0  0  0  0
   56.4200   29.6640   44.3810 C   0  0  0  0  0  0  0  0  0  0  0  0
   57.3390   30.5570   44.9660 C   0  0  0  0  0  0  0  0  0  0  0  0
   57.9470   31.5470   44.1880 C   0  0  0  0  0  0  0  0  0  0  0  0
   57.6360   31.6650   42.8310 C   0  0  0  0  0  0  0  0  0  0  0  0
   56.7070   30.7990   42.2510 C   0  0  0  0  0  0  0  0  0  0  0  0
   56.0950   29.8080   43.0250 C   0  0  0  0  0  0  0  0  0  0  0  0
   59.7740   28.5420   45.4420 C   0  0  0  0  0  0  0  0  0  0  0  0
   60.7250   29.3710   46.0380 C   0  0  0  0  0  0  0  0  0  0  0  0
   62.1539   33.8068   47.3461 H   0  0  0  0  0  0  0  0  0  0  0  0
   62.0134   32.3999   46.1966 H   0  0  0  0  0  0  0  0  0  0  0  0
   60.8411   34.5183   44.9670 H   0  0  0  0  0  0  0  0  0  0  0  0
   58.5434   35.2778   44.3632 H   0  0  0  0  0  0  0  0  0  0  0  0
   56.5803   34.5127   45.7022 H   0  0  0  0  0  0  0  0  0  0  0  0
   56.9129   32.9724   47.6394 H   0  0  0  0  0  0  0  0  0  0  0  0
   59.2086   32.2191   48.2594 H   0  0  0  0  0  0  0  0  0  0  0  0
   59.2936   29.7206   49.1232 H   0  0  0  0  0  0  0  0  0  0  0  0
   57.5802   28.2598   48.0495 H   0  0  0  0  0  0  0  0  0  0  0  0
   57.5787   30.4754   46.0365 H   0  0  0  0  0  0  0  0  0  0  0  0
   58.6727   32.2353   44.6459 H   0  0  0  0  0  0  0  0  0  0  0  0
   58.1227   32.4396   42.2201 H   0  0  0  0  0  0  0  0  0  0  0  0
   56.4563   30.8963   41.1844 H   0  0  0  0  0  0  0  0  0  0  0  0
   55.3536   29.1370   42.5667 H   0  0  0  0  0  0  0  0  0  0  0  0
   59.8926   28.2382   44.3915 H   0  0  0  0  0  0  0  0  0  0  0  0
   61.5839   29.7306   45.4523 H   0  0  0  0  0  0  0  0  0  0  0  0
  1  2  2  0
  2  3  1  0
  3  4  1  0
  4  5  2  0
  5  6  1  0
  6  7  2  0
  7  8  1  0
  8  9  2  0
  2 10  1  0
 10 11  1  0
 11 12  2  0
 12 13  1  0
 13 14  2  0
 14 15  1  0
 15 16  1  0
 16 17  2  0
 16 18  1  0
 18 19  1  0
 19 20  2  0
 20 21  1  0
 21 22  2  0
 22 23  1  0
 23 24  2  0
 14 25  1  0
 25 26  2  0
  9  4  1  0
 26 11  1  0
 24 19  1  0
  3 27  1  0
  3 28  1  0
  5 29  1  0
  6 30  1  0
  7 31  1  0
  8 32  1  0
  9 33  1  0
 12 34  1  0
 13 35  1  0
 20 36  1  0
 21 37  1  0
 22 38  1  0
 23 39  1  0
 24 40  1  0
 25 41  1  0
 26 42  1  0
M  CHG  3  10  -1  15  -1  18  -1
M  END
>  <UniqueID>  (80) 
72

>  <SMILES>  (80) 
O=C(Cc1ccccc1)[N-]c1ccc([N-]C(=O)[N-]c2ccccc2)cc1

>  <Energy>  (80) 
53.7178285644629

>  <Genealogy>  (80) 
O=C(Cc1ccccc1)[N-]c1ccc([N-]C(=O)[N-]c2ccccc2)cc1 (protonated)
O=C(Cc1ccccc1)[N-]c1ccc([N-]C(=O)[N-]c2ccccc2)cc1 (3D coordinates assigned)
O=C(Cc1ccccc1)[N-]c1ccc([N-]C(=O)[N-]c2ccccc2)cc1 (optimized conformer: 53.7178285644629 kcal/mol)

>  <smiles>  (80) 
O=C(Cc1ccccc1)Nc1ccc(NC(=O)Nc2ccccc2)cc1

>  <score_type>  (80) 
oracle

>  <origin>  (80) 
adg

>  <m_score__min__energy>  (80) 
-12.42

>  <m_primary>  (80) 
energy

$$$$
80:0
     RDKit          3D

 37 39  0  0  0  0  0  0  0  0999 V2000
   60.6830   28.6910   47.5090 O   0  0  0  0  0  0  0  0  0  0  0  0
   59.8640   29.5830   47.1610 C   0  0  0  0  0  0  0  0  0  0  0  0
   58.5350   29.1960   46.7940 N   0  0  0  0  0  0  0  0  0  0  0  0
   57.8660   29.5330   45.5700 C   0  0  0  0  0  0  0  0  0  0  0  0
   57.6940   28.5940   44.5400 C   0  0  0  0  0  0  0  0  0  0  0  0
   57.0600   28.9670   43.3540 C   0  0  0  0  0  0  0  0  0  0  0  0
   56.6170   30.2790   43.2010 C   0  0  0  0  0  0  0  0  0  0  0  0
   56.8130   31.1840   44.1950 N   0  0  0  0  0  0  0  0  0  0  0  0
   57.4370   30.8520   45.3620 C   0  0  0  0  0  0  0  0  0  0  0  0
   57.6140   31.8010   46.3780 O   0  0  0  0  0  0  0  0  0  0  0  0
   58.2780   33.0290   46.2340 C   0  0  0  0  0  0  0  0  0  0  0  0
   58.5030   33.6140   44.9740 C   0  0  0  0  0  0  0  0  0  0  0  0
   59.1830   34.8330   44.8750 C   0  0  0  0  0  0  0  0  0  0  0  0
   59.6510   35.4690   46.0260 C   0  0  0  0  0  0  0  0  0  0  0  0
   59.4490   34.8840   47.2790 C   0  0  0  0  0  0  0  0  0  0  0  0
   58.7700   33.6650   47.3820 C   0  0  0  0  0  0  0  0  0  0  0  0
   58.5820   33.1050   48.6030 F   0  0  0  0  0  0  0  0  0  0  0  0
   60.2920   30.9480   47.0360 N   0  0  0  0  0  0  0  0  0  0  0  0
   61.4560   31.4890   47.6860 C   0  0  0  0  0  0  0  0  0  0  0  0
   61.8330   30.9970   48.9450 C   0  0  0  0  0  0  0  0  0  0  0  0
   62.9730   31.4890   49.5870 C   0  0  0  0  0  0  0  0  0  0  0  0
   63.7560   32.4690   48.9690 C   0  0  0  0  0  0  0  0  0  0  0  0
   65.1880   33.0850   49.7730 Cl  0  0  0  0  0  0  0  0  0  0  0  0
   63.4010   32.9510   47.7050 C   0  0  0  0  0  0  0  0  0  0  0  0
   62.2600   32.4600   47.0610 C   0  0  0  0  0  0  0  0  0  0  0  0
   58.0591   27.5643   44.6681 H   0  0  0  0  0  0  0  0  0  0  0  0
   56.9116   28.2328   42.5484 H   0  0  0  0  0  0  0  0  0  0  0  0
   56.1079   30.5824   42.2743 H   0  0  0  0  0  0  0  0  0  0  0  0
   58.1432   33.1114   44.0641 H   0  0  0  0  0  0  0  0  0  0  0  0
   59.3490   35.2907   43.8886 H   0  0  0  0  0  0  0  0  0  0  0  0
   60.1789   36.4308   45.9468 H   0  0  0  0  0  0  0  0  0  0  0  0
   59.8242   35.3823   48.1850 H   0  0  0  0  0  0  0  0  0  0  0  0
   59.7760   31.5580   46.3620 H   0  0  0  0  0  0  0  0  0  0  0  0
   61.2267   30.2181   49.4304 H   0  0  0  0  0  0  0  0  0  0  0  0
   63.2543   31.1051   50.5787 H   0  0  0  0  0  0  0  0  0  0  0  0
   64.0201   33.7177   47.2162 H   0  0  0  0  0  0  0  0  0  0  0  0
   61.9905   32.8345   46.0624 H   0  0  0  0  0  0  0  0  0  0  0  0
  1  2  2  0
  2  3  1  0
  3  4  1  0
  4  5  2  0
  5  6  1  0
  6  7  2  0
  7  8  1  0
  8  9  2  0
  9 10  1  0
 10 11  1  0
 11 12  2  0
 12 13  1  0
 13 14  2  0
 14 15  1  0
 15 16  2  0
 16 17  1  0
  2 18  1  0
 18 19  1  0
 19 20  2  0
 20 21  1  0
 21 22  2  0
 22 23  1  0
 22 24  1  0
 24 25  2  0
  9  4  1  0
 16 11  1  0
 25 19  1  0
  5 26  1  0
  6 27  1  0
  7 28  1  0
 12 29  1  0
 13 30  1  0
 14 31  1  0
 15 32  1  0
 18 33  1  0
 20 34  1  0
 21 35  1  0
 24 36  1  0
 25 37  1  0
M  CHG  1   3  -1
M  END
>  <UniqueID>  (81) 
73

>  <SMILES>  (81) 
O=C([N-]c1cccnc1Oc1ccccc1F)Nc1ccc(Cl)cc1

>  <Energy>  (81) 
52.55785148744846

>  <Genealogy>  (81) 
O=C([N-]c1cccnc1Oc1ccccc1F)Nc1ccc(Cl)cc1 (protonated)
O=C([N-]c1cccnc1Oc1ccccc1F)Nc1ccc(Cl)cc1 (3D coordinates assigned)
O=C([N-]c1cccnc1Oc1ccccc1F)Nc1ccc(Cl)cc1 (optimized conformer: 52.55785148744846 kcal/mol)

>  <smiles>  (81) 
O=C(Nc1ccc(Cl)cc1)Nc1cccnc1Oc1ccccc1F

>  <score_type>  (81) 
oracle

>  <origin>  (81) 
adg

>  <m_score__min__energy>  (81) 
-9.6500000000000004

>  <m_primary>  (81) 
energy

$$$$
81:0
     RDKit          3D

 29 31  0  0  0  0  0  0  0  0999 V2000
   53.4880   26.5650   45.9980 H   0  0  0  0  0  0  0  0  0  0  0  0
   54.3060   25.9210   45.9120 N   0  0  0  0  0  0  0  0  0  0  0  0
   55.5130   26.3400   46.1120 C   0  0  0  0  0  0  0  0  0  0  0  0
   56.4280   25.6260   46.8200 N   0  0  0  0  0  0  0  0  0  0  0  0
   57.4980   26.4300   46.7620 C   0  0  0  0  0  0  0  0  0  0  0  0
   58.7190   26.1790   47.2950 N   0  0  0  0  0  0  0  0  0  0  0  0
   59.7150   27.0960   47.1210 C   0  0  0  0  0  0  0  0  0  0  0  0
   60.7101   26.9077   47.5504 H   0  0  0  0  0  0  0  0  0  0  0  0
   59.4800   28.2840   46.3950 C   0  0  0  0  0  0  0  0  0  0  0  0
   60.2926   29.0125   46.2576 H   0  0  0  0  0  0  0  0  0  0  0  0
   58.2030   28.5400   45.8440 C   0  0  0  0  0  0  0  0  0  0  0  0
   57.9290   29.7790   45.0760 C   0  0  0  0  0  0  0  0  0  0  0  0
   57.3740   29.7140   43.7860 C   0  0  0  0  0  0  0  0  0  0  0  0
   57.1393   28.7364   43.3396 H   0  0  0  0  0  0  0  0  0  0  0  0
   57.1190   30.8860   43.0680 C   0  0  0  0  0  0  0  0  0  0  0  0
   56.6890   30.8269   42.0572 H   0  0  0  0  0  0  0  0  0  0  0  0
   57.4080   32.1310   43.6290 C   0  0  0  0  0  0  0  0  0  0  0  0
   57.2114   33.0499   43.0573 H   0  0  0  0  0  0  0  0  0  0  0  0
   57.9480   32.2120   44.9190 C   0  0  0  0  0  0  0  0  0  0  0  0
   58.3300   33.7810   45.6230 S   0  0  0  0  0  0  0  0  0  0  0  0
   57.6210   34.8650   44.8620 O   0  0  0  0  0  0  0  0  0  0  0  0
   59.8110   34.0290   45.5460 O   0  0  0  0  0  0  0  0  0  0  0  0
   57.8270   33.8120   47.2760 N   0  0  0  0  0  0  0  0  0  0  0  0
   56.8630   34.2130   47.2940 H   0  0  0  0  0  0  0  0  0  0  0  0
   58.4450   34.4940   47.7710 H   0  0  0  0  0  0  0  0  0  0  0  0
   58.2110   31.0370   45.6360 C   0  0  0  0  0  0  0  0  0  0  0  0
   58.6420   31.0998   46.6461 H   0  0  0  0  0  0  0  0  0  0  0  0
   57.2250   27.5600   46.0600 C   0  0  0  0  0  0  0  0  0  0  0  0
   55.9560   27.5270   45.6230 N   0  0  0  0  0  0  0  0  0  0  0  0
  1  2  1  0
  2  3  2  0
  3  4  1  0
  4  5  1  0
  5  6  2  0
  6  7  1  0
  7  8  1  0
  7  9  2  0
  9 10  1  0
  9 11  1  0
 11 12  1  0
 12 13  2  0
 13 14  1  0
 13 15  1  0
 15 16  1  0
 15 17  2  0
 17 18  1  0
 17 19  1  0
 19 20  1  0
 20 21  2  0
 20 22  2  0
 20 23  1  0
 23 24  1  0
 23 25  1  0
 19 26  2  0
 26 27  1  0
 11 28  2  0
 28 29  1  0
 29  3  1  0
 28  5  1  0
 26 12  1  0
M  CHG  2   4  -1  29  -1
M  END
>  <UniqueID>  (82) 
74

>  <SMILES>  (82) 
[H]/N=c1\[n-]c2nccc(-c3cccc(S(N)(=O)=O)c3)c2[n-]1

>  <Energy>  (82) 
72.52569377322034

>  <Genealogy>  (82) 
N=c1[n-]c2nccc(-c3cccc(S(N)(=O)=O)c3)c2[n-]1 (protonated)
[H]/N=c1\[n-]c2nccc(-c3cccc(S(N)(=O)=O)c3)c2[n-]1 (cis-trans isomerization)
[H]/N=c1\[n-]c2nccc(-c3cccc(S(N)(=O)=O)c3)c2[n-]1 (3D coordinates assigned)
[H]/N=c1\[n-]c2nccc(-c3cccc(S(N)(=O)=O)c3)c2[n-]1 (optimized conformer: 72.52569377322034 kcal/mol)

>  <smiles>  (82) 
N=c1[nH]c2nccc(-c3cccc(S(N)(=O)=O)c3)c2[nH]1

>  <score_type>  (82) 
oracle

>  <origin>  (82) 
adg

>  <m_score__min__energy>  (82) 
-11.539999999999999

>  <m_primary>  (82) 
energy

$$$$
82:0
     RDKit          3D

 34 36  0  0  0  0  0  0  0  0999 V2000
   59.7270   28.8280   46.3150 C   0  0  0  0  0  0  0  0  0  0  0  0
   58.5580   29.3410   45.9030 C   0  0  0  0  0  0  0  0  0  0  0  0
   57.5560   28.7030   45.1610 C   0  0  0  0  0  0  0  0  0  0  0  0
   57.3790   27.4130   44.8180 C   0  0  0  0  0  0  0  0  0  0  0  0
   57.2350   26.2880   45.7630 C   0  0  0  0  0  0  0  0  0  0  0  0
   55.9860   25.9570   46.3170 C   0  0  0  0  0  0  0  0  0  0  0  0
   54.8540   26.7040   46.0150 O   0  0  0  0  0  0  0  0  0  0  0  0
   55.8780   24.8910   47.1520 N   0  0  0  0  0  0  0  0  0  0  0  0
   56.9560   24.1220   47.4510 C   0  0  0  0  0  0  0  0  0  0  0  0
   56.8320   23.1420   48.2290 O   0  0  0  0  0  0  0  0  0  0  0  0
   58.1670   24.4070   46.9050 N   0  0  0  0  0  0  0  0  0  0  0  0
   58.3270   25.4620   46.0660 C   0  0  0  0  0  0  0  0  0  0  0  0
   59.4630   25.6920   45.5710 O   0  0  0  0  0  0  0  0  0  0  0  0
   56.6900   29.7200   44.8010 C   0  0  0  0  0  0  0  0  0  0  0  0
   57.1110   30.8840   45.3290 N   0  0  0  0  0  0  0  0  0  0  0  0
   58.2250   30.6540   46.0050 N   0  0  0  0  0  0  0  0  0  0  0  0
   58.9250   31.6980   46.7030 C   0  0  0  0  0  0  0  0  0  0  0  0
   59.2080   32.9100   46.0600 C   0  0  0  0  0  0  0  0  0  0  0  0
   59.8580   33.9340   46.7520 C   0  0  0  0  0  0  0  0  0  0  0  0
   60.2070   33.7460   48.0910 C   0  0  0  0  0  0  0  0  0  0  0  0
   60.8590   34.7700   48.7820 O   0  0  0  0  0  0  0  0  0  0  0  0
   62.1050   34.5820   49.4430 C   0  0  0  0  0  0  0  0  0  0  0  0
   59.9030   32.5690   48.7090 N   0  0  0  0  0  0  0  0  0  0  0  0
   59.2740   31.5570   48.0550 C   0  0  0  0  0  0  0  0  0  0  0  0
   60.4257   29.4482   46.8957 H   0  0  0  0  0  0  0  0  0  0  0  0
   59.9869   27.7871   46.0722 H   0  0  0  0  0  0  0  0  0  0  0  0
   57.3383   27.1778   43.7442 H   0  0  0  0  0  0  0  0  0  0  0  0
   55.7925   29.5959   44.1772 H   0  0  0  0  0  0  0  0  0  0  0  0
   58.9179   33.0552   45.0089 H   0  0  0  0  0  0  0  0  0  0  0  0
   60.0934   34.8819   46.2460 H   0  0  0  0  0  0  0  0  0  0  0  0
   61.9497   34.6054   50.5317 H   0  0  0  0  0  0  0  0  0  0  0  0
   62.5303   33.6095   49.1541 H   0  0  0  0  0  0  0  0  0  0  0  0
   62.7983   35.3857   49.1541 H   0  0  0  0  0  0  0  0  0  0  0  0
   59.0376   30.6239   48.5875 H   0  0  0  0  0  0  0  0  0  0  0  0
  1  2  2  0
  2  3  1  0
  3  4  2  3
  4  5  1  0
  5  6  2  0
  6  7  1  0
  6  8  1  0
  8  9  1  0
  9 10  2  0
  9 11  1  0
 11 12  1  0
 12 13  2  0
  3 14  1  0
 14 15  2  0
 15 16  1  0
 16 17  1  0
 17 18  2  0
 18 19  1  0
 19 20  2  0
 20 21  1  0
 21 22  1  0
 20 23  1  0
 23 24  2  0
 16  2  1  0
 24 17  1  0
 12  5  1  0
  1 25  1  0
  1 26  1  0
  4 27  1  0
 14 28  1  0
 18 29  1  0
 19 30  1  0
 22 31  1  0
 22 32  1  0
 22 33  1  0
 24 34  1  0
M  CHG  3   7  -1   8  -1  11  -1
M  END
>  <UniqueID>  (83) 
75

>  <SMILES>  (83) 
C=c1c(=Cc2c([O-])[n-]c(=O)[n-]c2=O)cnn1-c1ccc(OC)nc1

>  <Energy>  (83) 
88.09547173767312

>  <Genealogy>  (83) 
C=c1c(=Cc2c([O-])[n-]c(=O)[n-]c2=O)cnn1-c1ccc(OC)nc1 (protonated)
C=c1c(=Cc2c([O-])[n-]c(=O)[n-]c2=O)cnn1-c1ccc(OC)nc1 (3D coordinates assigned)
C=c1c(=Cc2c([O-])[n-]c(=O)[n-]c2=O)cnn1-c1ccc(OC)nc1 (optimized conformer: 88.09547173767312 kcal/mol)

>  <smiles>  (83) 
C=c1c(=Cc2c(O)[nH]c(=O)[nH]c2=O)cnn1-c1ccc(OC)nc1

>  <score_type>  (83) 
oracle

>  <origin>  (83) 
adg

>  <m_score__min__energy>  (83) 
-14.210000000000001

>  <m_primary>  (83) 
energy

$$$$
83:0
     RDKit          3D

 54 56  0  0  0  0  0  0  0  0999 V2000
   60.9360   33.4410   51.7030 C   0  0  0  0  0  0  0  0  0  0  0  0
   60.9650   34.0050   50.3960 O   0  0  0  0  0  0  0  0  0  0  0  0
   61.9050   33.6780   49.4070 C   0  0  0  0  0  0  0  0  0  0  0  0
   63.2680   33.4840   49.7070 C   0  0  0  0  0  0  0  0  0  0  0  0
   64.1700   33.1380   48.6990 C   0  0  0  0  0  0  0  0  0  0  0  0
   63.7270   32.9820   47.3850 C   0  0  0  0  0  0  0  0  0  0  0  0
   62.3800   33.1740   47.0740 C   0  0  0  0  0  0  0  0  0  0  0  0
   61.4640   33.5250   48.0780 C   0  0  0  0  0  0  0  0  0  0  0  0
   60.0800   33.7220   47.7440 N   0  0  0  0  0  0  0  0  0  0  0  0
   59.6430   34.9720   47.1170 C   0  0  0  0  0  0  0  0  0  0  0  0
   59.2780   34.7570   45.6760 C   0  0  0  0  0  0  0  0  0  0  0  0
   59.3250   35.7330   44.8780 O   0  0  0  0  0  0  0  0  0  0  0  0
   58.8270   33.4720   45.2230 N   0  0  0  0  0  0  0  0  0  0  0  0
   58.1440   33.2770   43.9480 C   0  0  0  0  0  0  0  0  0  0  0  0
   57.6360   31.8650   43.8660 C   0  0  0  0  0  0  0  0  0  0  0  0
   57.1690   31.3520   42.6460 C   0  0  0  0  0  0  0  0  0  0  0  0
   56.6410   30.0580   42.5830 C   0  0  0  0  0  0  0  0  0  0  0  0
   56.5660   29.2750   43.7380 C   0  0  0  0  0  0  0  0  0  0  0  0
   57.0160   29.7860   44.9590 C   0  0  0  0  0  0  0  0  0  0  0  0
   57.5430   31.0800   45.0270 C   0  0  0  0  0  0  0  0  0  0  0  0
   58.8950   32.5600   48.2650 S   0  0  0  0  0  0  0  0  0  0  0  0
   57.5620   32.8940   47.6550 O   0  0  0  0  0  0  0  0  0  0  0  0
   58.7530   32.6150   49.7600 O   0  0  0  0  0  0  0  0  0  0  0  0
   59.3830   30.9370   47.7760 C   0  0  0  0  0  0  0  0  0  0  0  0
   58.9010   29.8210   48.4730 C   0  0  0  0  0  0  0  0  0  0  0  0
   59.2400   28.5300   48.0560 C   0  0  0  0  0  0  0  0  0  0  0  0
   60.0760   28.3430   46.9450 C   0  0  0  0  0  0  0  0  0  0  0  0
   60.4230   26.9640   46.4710 C   0  0  0  0  0  0  0  0  0  0  0  0
   60.5540   29.4620   46.2470 C   0  0  0  0  0  0  0  0  0  0  0  0
   60.2140   30.7510   46.6640 C   0  0  0  0  0  0  0  0  0  0  0  0
   60.9774   34.2465   52.4509 H   0  0  0  0  0  0  0  0  0  0  0  0
   60.0071   32.8665   51.8339 H   0  0  0  0  0  0  0  0  0  0  0  0
   61.8010   32.7743   51.8339 H   0  0  0  0  0  0  0  0  0  0  0  0
   63.6233   33.6058   50.7409 H   0  0  0  0  0  0  0  0  0  0  0  0
   65.2325   32.9880   48.9413 H   0  0  0  0  0  0  0  0  0  0  0  0
   64.4400   32.7075   46.5936 H   0  0  0  0  0  0  0  0  0  0  0  0
   62.0346   33.0497   46.0371 H   0  0  0  0  0  0  0  0  0  0  0  0
   58.7647   35.3562   47.6563 H   0  0  0  0  0  0  0  0  0  0  0  0
   60.4720   35.6936   47.1629 H   0  0  0  0  0  0  0  0  0  0  0  0
   58.8220   32.6720   45.8900 H   0  0  0  0  0  0  0  0  0  0  0  0
   57.2982   33.9764   43.8738 H   0  0  0  0  0  0  0  0  0  0  0  0
   58.8461   33.4639   43.1221 H   0  0  0  0  0  0  0  0  0  0  0  0
   57.2183   31.9691   41.7367 H   0  0  0  0  0  0  0  0  0  0  0  0
   56.2844   29.6564   41.6230 H   0  0  0  0  0  0  0  0  0  0  0  0
   56.1530   28.2568   43.6865 H   0  0  0  0  0  0  0  0  0  0  0  0
   56.9555   29.1694   45.8679 H   0  0  0  0  0  0  0  0  0  0  0  0
   57.8852   31.4835   45.9914 H   0  0  0  0  0  0  0  0  0  0  0  0
   58.2537   29.9610   49.3513 H   0  0  0  0  0  0  0  0  0  0  0  0
   58.8497   27.6579   48.6011 H   0  0  0  0  0  0  0  0  0  0  0  0
   60.5879   26.3086   47.3389 H   0  0  0  0  0  0  0  0  0  0  0  0
   59.5969   26.5665   45.8631 H   0  0  0  0  0  0  0  0  0  0  0  0
   61.3389   27.0049   45.8631 H   0  0  0  0  0  0  0  0  0  0  0  0
   61.1996   29.3237   45.3672 H   0  0  0  0  0  0  0  0  0  0  0  0
   60.6004   31.6235   46.1169 H   0  0  0  0  0  0  0  0  0  0  0  0
  1  2  1  0
  2  3  1  0
  3  4  2  0
  4  5  1  0
  5  6  2  0
  6  7  1  0
  7  8  2  0
  8  9  1  0
  9 10  1  0
 10 11  1  0
 11 12  2  0
 11 13  1  0
 13 14  1  0
 14 15  1  0
 15 16  2  0
 16 17  1  0
 17 18  2  0
 18 19  1  0
 19 20  2  0
  9 21  1  0
 21 22  2  0
 21 23  2  0
 21 24  1  0
 24 25  2  0
 25 26  1  0
 26 27  2  0
 27 28  1  0
 27 29  1  0
 29 30  2  0
  8  3  1  0
 20 15  1  0
 30 24  1  0
  1 31  1  0
  1 32  1  0
  1 33  1  0
  4 34  1  0
  5 35  1  0
  6 36  1  0
  7 37  1  0
 10 38  1  0
 10 39  1  0
 13 40  1  0
 14 41  1  0
 14 42  1  0
 16 43  1  0
 17 44  1  0
 18 45  1  0
 19 46  1  0
 20 47  1  0
 25 48  1  0
 26 49  1  0
 28 50  1  0
 28 51  1  0
 28 52  1  0
 29 53  1  0
 30 54  1  0
M  END
>  <UniqueID>  (84) 
76

>  <SMILES>  (84) 
COc1ccccc1N(CC(=O)NCc1ccccc1)S(=O)(=O)c1ccc(C)cc1

>  <Energy>  (84) 
51.819858147799174

>  <Genealogy>  (84) 
COc1ccccc1N(CC(=O)NCc1ccccc1)S(=O)(=O)c1ccc(C)cc1 (3D coordinates assigned)
COc1ccccc1N(CC(=O)NCc1ccccc1)S(=O)(=O)c1ccc(C)cc1 (optimized conformer: 51.819858147799174 kcal/mol)

>  <smiles>  (84) 
COc1ccccc1N(CC(=O)NCc1ccccc1)S(=O)(=O)c1ccc(C)cc1

>  <score_type>  (84) 
oracle

>  <origin>  (84) 
adg

>  <m_score__min__energy>  (84) 
-9.0800000000000001

>  <m_primary>  (84) 
energy

$$$$
84:0
     RDKit          3D

 28 28  0  0  0  0  0  0  0  0999 V2000
   57.4310   32.3830   44.5190 C   0  0  0  0  0  0  0  0  0  0  0  0
   56.4220   31.3790   44.5010 O   0  0  0  0  0  0  0  0  0  0  0  0
   56.6750   30.0510   44.8520 C   0  0  0  0  0  0  0  0  0  0  0  0
   55.7290   29.2960   45.2120 O   0  0  0  0  0  0  0  0  0  0  0  0
   58.0230   29.5670   44.8260 N   0  0  0  0  0  0  0  0  0  0  0  0
   58.3840   28.1950   45.0470 C   0  0  0  0  0  0  0  0  0  0  0  0
   59.9540   27.8340   45.3590 S   0  0  0  0  0  0  0  0  0  0  0  0
   57.4610   27.1430   44.7220 N   0  0  0  0  0  0  0  0  0  0  0  0
   57.4220   25.8680   45.3860 C   0  0  0  0  0  0  0  0  0  0  0  0
   57.2670   25.8210   46.7790 C   0  0  0  0  0  0  0  0  0  0  0  0
   57.2490   24.5950   47.4510 C   0  0  0  0  0  0  0  0  0  0  0  0
   57.4000   23.3920   46.7350 C   0  0  0  0  0  0  0  0  0  0  0  0
   57.3870   22.1370   47.3610 O   0  0  0  0  0  0  0  0  0  0  0  0
   57.0290   20.9190   46.7160 C   0  0  0  0  0  0  0  0  0  0  0  0
   57.5740   23.4410   45.3480 C   0  0  0  0  0  0  0  0  0  0  0  0
   57.5930   24.6670   44.6770 C   0  0  0  0  0  0  0  0  0  0  0  0
   57.6816   32.6324   45.5606 H   0  0  0  0  0  0  0  0  0  0  0  0
   58.3290   32.0096   44.0051 H   0  0  0  0  0  0  0  0  0  0  0  0
   57.0620   33.2829   44.0051 H   0  0  0  0  0  0  0  0  0  0  0  0
   58.7850   30.2720   44.7020 H   0  0  0  0  0  0  0  0  0  0  0  0
   56.8070   27.3030   43.9210 H   0  0  0  0  0  0  0  0  0  0  0  0
   57.1587   26.7564   47.3476 H   0  0  0  0  0  0  0  0  0  0  0  0
   57.1164   24.5702   48.5427 H   0  0  0  0  0  0  0  0  0  0  0  0
   56.8043   20.1547   47.4745 H   0  0  0  0  0  0  0  0  0  0  0  0
   56.1414   21.0840   46.0876 H   0  0  0  0  0  0  0  0  0  0  0  0
   57.8647   20.5774   46.0876 H   0  0  0  0  0  0  0  0  0  0  0  0
   57.6969   22.5068   44.7805 H   0  0  0  0  0  0  0  0  0  0  0  0
   57.7427   24.6918   43.5875 H   0  0  0  0  0  0  0  0  0  0  0  0
  1  2  1  0
  2  3  1  0
  3  4  2  0
  3  5  1  0
  5  6  1  0
  6  7  2  0
  6  8  1  0
  8  9  1  0
  9 10  2  0
 10 11  1  0
 11 12  2  0
 12 13  1  0
 13 14  1  0
 12 15  1  0
 15 16  2  0
 16  9  1  0
  1 17  1  0
  1 18  1  0
  1 19  1  0
  5 20  1  0
  8 21  1  0
 10 22  1  0
 11 23  1  0
 14 24  1  0
 14 25  1  0
 14 26  1  0
 15 27  1  0
 16 28  1  0
M  END
>  <UniqueID>  (85) 
77

>  <SMILES>  (85) 
COC(=O)NC(=S)Nc1ccc(OC)cc1

>  <Energy>  (85) 
28.725102236248816

>  <Genealogy>  (85) 
COC(=O)NC(=S)Nc1ccc(OC)cc1 (3D coordinates assigned)
COC(=O)NC(=S)Nc1ccc(OC)cc1 (optimized conformer: 28.725102236248816 kcal/mol)

>  <smiles>  (85) 
COC(=O)NC(=S)Nc1ccc(OC)cc1

>  <score_type>  (85) 
oracle

>  <origin>  (85) 
adg

>  <m_score__min__energy>  (85) 
-5.4800000000000004

>  <m_primary>  (85) 
energy

$$$$
85:0
     RDKit          3D

 50 52  0  0  0  0  0  0  0  0999 V2000
   55.0470   22.8796   48.0029 H   0  0  0  0  0  0  0  0  0  0  0  0
   55.4180   23.3100   47.0610 C   0  0  0  0  0  0  0  0  0  0  0  0
   55.3640   22.5590   45.8830 C   0  0  0  0  0  0  0  0  0  0  0  0
   54.9571   21.5372   45.9022 H   0  0  0  0  0  0  0  0  0  0  0  0
   55.8290   23.1070   44.6720 C   0  0  0  0  0  0  0  0  0  0  0  0
   55.7870   22.4000   43.4620 O   0  0  0  0  0  0  0  0  0  0  0  0
   56.8490   21.5920   42.9660 C   0  0  0  0  0  0  0  0  0  0  0  0
   57.4101   21.1651   43.8104 H   0  0  0  0  0  0  0  0  0  0  0  0
   56.4349   20.7785   42.3522 H   0  0  0  0  0  0  0  0  0  0  0  0
   57.5226   22.2081   42.3522 H   0  0  0  0  0  0  0  0  0  0  0  0
   56.3530   24.4070   44.6660 C   0  0  0  0  0  0  0  0  0  0  0  0
   56.7093   24.8456   43.7223 H   0  0  0  0  0  0  0  0  0  0  0  0
   56.4280   25.1550   45.8510 C   0  0  0  0  0  0  0  0  0  0  0  0
   56.9520   26.5370   45.8360 C   0  0  0  0  0  0  0  0  0  0  0  0
   58.2730   26.8980   46.1520 C   0  0  0  0  0  0  0  0  0  0  0  0
   59.3540   26.0470   46.6770 C   0  0  0  0  0  0  0  0  0  0  0  0
   59.8070   25.0910   45.9910 O   0  0  0  0  0  0  0  0  0  0  0  0
   59.8540   26.2960   47.9600 O   0  0  0  0  0  0  0  0  0  0  0  0
   60.6600   27.4260   48.2850 C   0  0  0  0  0  0  0  0  0  0  0  0
   61.1074   27.8277   47.3639 H   0  0  0  0  0  0  0  0  0  0  0  0
   61.4478   27.1099   48.9846 H   0  0  0  0  0  0  0  0  0  0  0  0
   59.8200   28.5120   48.9490 C   0  0  0  0  0  0  0  0  0  0  0  0
   59.8943   28.4159   50.0423 H   0  0  0  0  0  0  0  0  0  0  0  0
   60.1903   29.5012   48.6418 H   0  0  0  0  0  0  0  0  0  0  0  0
   58.7695   28.4022   48.6418 H   0  0  0  0  0  0  0  0  0  0  0  0
   58.4190   28.5650   45.9500 S   0  0  0  0  0  0  0  0  0  0  0  0
   56.8240   28.7650   45.4750 C   0  0  0  0  0  0  0  0  0  0  0  0
   56.3130   29.9270   45.1870 N   0  0  0  0  0  0  0  0  0  0  0  0
   56.2520   30.5750   43.9090 C   0  0  0  0  0  0  0  0  0  0  0  0
   55.5440   30.1070   42.9770 O   0  0  0  0  0  0  0  0  0  0  0  0
   57.1070   31.6990   43.6700 N   0  0  0  0  0  0  0  0  0  0  0  0
   57.8360   32.4430   44.6570 C   0  0  0  0  0  0  0  0  0  0  0  0
   58.6090   31.8110   45.6480 C   0  0  0  0  0  0  0  0  0  0  0  0
   58.6533   30.7127   45.6912 H   0  0  0  0  0  0  0  0  0  0  0  0
   59.3210   32.5740   46.5780 C   0  0  0  0  0  0  0  0  0  0  0  0
   59.9123   32.0704   47.3569 H   0  0  0  0  0  0  0  0  0  0  0  0
   59.2890   33.9720   46.5280 C   0  0  0  0  0  0  0  0  0  0  0  0
   60.0200   34.6910   47.4850 O   0  0  0  0  0  0  0  0  0  0  0  0
   60.2930   34.2260   48.8030 C   0  0  0  0  0  0  0  0  0  0  0  0
   59.8773   34.9340   49.5351 H   0  0  0  0  0  0  0  0  0  0  0  0
   59.8317   33.2377   48.9460 H   0  0  0  0  0  0  0  0  0  0  0  0
   61.3808   34.1471   48.9460 H   0  0  0  0  0  0  0  0  0  0  0  0
   58.5340   34.6050   45.5220 C   0  0  0  0  0  0  0  0  0  0  0  0
   58.5042   35.7032   45.4675 H   0  0  0  0  0  0  0  0  0  0  0  0
   57.8220   33.8410   44.5920 C   0  0  0  0  0  0  0  0  0  0  0  0
   57.2453   34.3437   43.8016 H   0  0  0  0  0  0  0  0  0  0  0  0
   56.1560   27.5850   45.4760 N   0  0  0  0  0  0  0  0  0  0  0  0
   55.1470   27.4610   45.2460 H   0  0  0  0  0  0  0  0  0  0  0  0
   55.9410   24.6040   47.0460 C   0  0  0  0  0  0  0  0  0  0  0  0
   55.9715   25.1938   47.9740 H   0  0  0  0  0  0  0  0  0  0  0  0
  1  2  1  0
  2  3  2  0
  3  4  1  0
  3  5  1  0
  5  6  1  0
  6  7  1  0
  7  8  1  0
  7  9  1  0
  7 10  1  0
  5 11  2  0
 11 12  1  0
 11 13  1  0
 13 14  1  0
 14 15  2  0
 15 16  1  0
 16 17  2  0
 16 18  1  0
 18 19  1  0
 19 20  1  0
 19 21  1  0
 19 22  1  0
 22 23  1  0
 22 24  1  0
 22 25  1  0
 15 26  1  0
 26 27  1  0
 27 28  2  0
 28 29  1  0
 29 30  2  0
 29 31  1  0
 31 32  1  0
 32 33  2  0
 33 34  1  0
 33 35  1  0
 35 36  1  0
 35 37  2  0
 37 38  1  0
 38 39  1  0
 39 40  1  0
 39 41  1  0
 39 42  1  0
 37 43  1  0
 43 44  1  0
 43 45  2  0
 45 46  1  0
 27 47  1  0
 47 48  1  0
 13 49  2  0
 49 50  1  0
 49  2  1  0
 47 14  1  0
 45 32  1  0
M  CHG  1  31  -1
M  END
>  <UniqueID>  (86) 
78

>  <SMILES>  (86) 
CCOC(=O)c1s/c(=N/C(=O)[N-]c2ccc(OC)cc2)[nH]c1-c1cccc(OC)c1

>  <Energy>  (86) 
91.34688136561472

>  <Genealogy>  (86) 
CCOC(=O)c1sc(=NC(=O)[N-]c2ccc(OC)cc2)[nH]c1-c1cccc(OC)c1 (protonated)
CCOC(=O)c1s/c(=N/C(=O)[N-]c2ccc(OC)cc2)[nH]c1-c1cccc(OC)c1 (cis-trans isomerization)
CCOC(=O)c1s/c(=N/C(=O)[N-]c2ccc(OC)cc2)[nH]c1-c1cccc(OC)c1 (3D coordinates assigned)
CCOC(=O)c1s/c(=N/C(=O)[N-]c2ccc(OC)cc2)[nH]c1-c1cccc(OC)c1 (optimized conformer: 91.34688136561472 kcal/mol)

>  <smiles>  (86) 
CCOC(=O)c1sc(=NC(=O)Nc2ccc(OC)cc2)[nH]c1-c1cccc(OC)c1

>  <score_type>  (86) 
oracle

>  <origin>  (86) 
adg

>  <m_score__min__energy>  (86) 
-9.0899999999999999

>  <m_primary>  (86) 
energy

$$$$
86:0
     RDKit          3D

 71 76  0  0  1  0  0  0  0  0999 V2000
   61.6710   30.7980   47.9110 C   0  0  0  0  0  0  0  0  0  0  0  0
   61.9850   32.1510   47.2890 C   0  0  0  0  0  0  0  0  0  0  0  0
   63.3280   32.4860   47.1080 C   0  0  0  0  0  0  0  0  0  0  0  0
   63.2530   34.1830   46.3380 S   0  0  0  0  0  0  0  0  0  0  0  0
   61.3730   34.1620   46.3890 C   0  0  0  0  0  0  0  0  0  0  0  0
   60.6560   35.0940   45.9930 N   0  0  0  0  0  0  0  0  0  0  0  0
   59.2700   35.1720   46.1240 C   0  0  0  0  0  0  0  0  0  0  0  0
   58.6450   35.4540   47.1760 O   0  0  0  0  0  0  0  0  0  0  0  0
   58.3760   34.9090   44.9230 C   0  0  0  0  0  0  0  0  0  0  0  0
   58.2670   33.4140   44.7630 C   0  0  0  0  0  0  0  0  0  0  0  0
   58.2250   32.7630   43.5720 C   0  0  0  0  0  0  0  0  0  0  0  0
   58.1690   31.3590   43.5790 C   0  0  0  0  0  0  0  0  0  0  0  0
   58.1540   30.6520   44.7250 C   0  0  0  0  0  0  0  0  0  0  0  0
   58.1330   29.2410   44.8680 N   0  0  0  0  0  0  0  0  0  0  0  0
   57.6600   28.3330   43.8980 C   0  0  0  0  0  0  0  0  0  0  0  0
   57.2170   28.6730   42.7630 O   0  0  0  0  0  0  0  0  0  0  0  0
   57.6970   26.8760   44.2870 C   0  0  0  0  0  0  0  0  0  0  0  0
   58.3930   26.6650   45.5670 C   0  0  0  0  0  0  0  0  0  0  0  0
   57.8270   26.0900   46.6830 C   0  0  0  0  0  0  0  0  0  0  0  0
   58.5140   25.9270   47.8650 C   0  0  0  0  0  0  0  0  0  0  0  0
   59.8260   26.3690   47.9160 C   0  0  0  0  0  0  0  0  0  0  0  0
   60.6550   26.2470   49.0520 N   0  0  0  0  0  0  0  0  0  0  0  0
   60.7480   27.0560   50.0210 C   0  0  0  0  0  0  0  0  0  0  0  0
   61.4930   26.7620   51.0970 N   0  0  0  0  0  0  0  0  0  0  0  0
   61.5910   27.6520   52.0690 C   0  0  0  0  0  0  0  0  0  0  0  0
   60.9680   28.8420   52.0100 N   0  0  0  0  0  0  0  0  0  0  0  0
   60.2000   29.1760   50.9320 C   0  0  0  0  0  0  0  0  0  0  0  0
   60.0780   28.2680   49.9040 C   0  0  0  0  0  0  0  0  0  0  0  0
   59.2770   28.8080   48.9560 N   0  0  0  0  0  0  0  0  0  0  0  0
   58.9170   30.0280   49.4020 C   0  0  0  0  0  0  0  0  0  0  0  0
   59.4770   30.2520   50.6010 N   0  0  0  0  0  0  0  0  0  0  0  0
   59.3930   31.4280   51.4590 C   0  0  0  0  0  0  0  0  0  0  0  0
   60.1810   32.5220   50.8070 C   0  0  0  0  0  0  0  0  0  0  0  0
   61.5340   32.5410   51.0820 C   0  0  0  0  0  0  0  0  0  0  0  0
   62.3540   33.5300   50.5320 C   0  0  0  0  0  0  0  0  0  0  0  0
   61.7730   34.4790   49.7090 C   0  0  0  0  0  0  0  0  0  0  0  0
   60.4230   34.4560   49.4370 C   0  0  0  0  0  0  0  0  0  0  0  0
   59.6150   33.4710   49.9880 C   0  0  0  0  0  0  0  0  0  0  0  0
   60.4120   26.9560   46.7890 C   0  0  0  0  0  0  0  0  0  0  0  0
   59.7230   27.1140   45.6130 C   0  0  0  0  0  0  0  0  0  0  0  0
   58.1940   31.3420   45.9550 C   0  0  0  0  0  0  0  0  0  0  0  0
   58.2500   32.7070   45.9600 C   0  0  0  0  0  0  0  0  0  0  0  0
   61.0780   32.9990   46.9230 N   0  0  0  0  0  0  0  0  0  0  0  0
   61.6912   30.8849   49.0074 H   0  0  0  0  0  0  0  0  0  0  0  0
   60.6725   30.4686   47.5876 H   0  0  0  0  0  0  0  0  0  0  0  0
   62.4223   30.0625   47.5876 H   0  0  0  0  0  0  0  0  0  0  0  0
   64.2183   31.8909   47.3596 H   0  0  0  0  0  0  0  0  0  0  0  0
   57.3796   35.3428   45.0934 H   0  0  0  0  0  0  0  0  0  0  0  0
   58.7975   35.3676   44.0164 H   0  0  0  0  0  0  0  0  0  0  0  0
   58.2346   33.3215   42.6244 H   0  0  0  0  0  0  0  0  0  0  0  0
   58.1364   30.8214   42.6199 H   0  0  0  0  0  0  0  0  0  0  0  0
   58.5150   28.8840   45.7970 H   0  0  0  0  0  0  0  0  0  0  0  0
   56.6650   26.5065   44.3787 H   0  0  0  0  0  0  0  0  0  0  0  0
   58.2471   26.3296   43.5067 H   0  0  0  0  0  0  0  0  0  0  0  0
   56.7833   25.7469   46.6278 H   0  0  0  0  0  0  0  0  0  0  0  0
   58.0369   25.4612   48.7399 H   0  0  0  0  0  0  0  0  0  0  0  0
   61.9500   25.8460   51.1310 H   0  0  0  0  0  0  0  0  0  0  0  0
   62.2005   27.4120   52.9527 H   0  0  0  0  0  0  0  0  0  0  0  0
   58.2642   30.7322   48.8654 H   0  0  0  0  0  0  0  0  0  0  0  0
   58.3431   31.7370   51.5700 H   0  0  0  0  0  0  0  0  0  0  0  0
   59.7945   31.2060   52.4588 H   0  0  0  0  0  0  0  0  0  0  0  0
   61.9692   31.7728   51.7381 H   0  0  0  0  0  0  0  0  0  0  0  0
   63.4324   33.5536   50.7475 H   0  0  0  0  0  0  0  0  0  0  0  0
   62.4005   35.2655   49.2643 H   0  0  0  0  0  0  0  0  0  0  0  0
   59.9834   35.2213   48.7805 H   0  0  0  0  0  0  0  0  0  0  0  0
   58.5365   33.4497   49.7725 H   0  0  0  0  0  0  0  0  0  0  0  0
   61.4550   27.3007   46.8475 H   0  0  0  0  0  0  0  0  0  0  0  0
   60.1968   27.5772   44.7349 H   0  0  0  0  0  0  0  0  0  0  0  0
   58.1802   30.7848   46.9033 H   0  0  0  0  0  0  0  0  0  0  0  0
   58.2818   33.2497   46.9163 H   0  0  0  0  0  0  0  0  0  0  0  0
   60.0130   32.7610   47.0540 H   0  0  0  0  0  0  0  0  0  0  0  0
  1  2  1  0
  2  3  2  0
  3  4  1  0
  4  5  1  0
  5  6  2  0
  6  7  1  0
  7  8  2  0
  7  9  1  0
  9 10  1  0
 10 11  2  0
 11 12  1  0
 12 13  2  0
 13 14  1  0
 14 15  1  0
 15 16  2  0
 15 17  1  0
 17 18  1  0
 18 19  2  0
 19 20  1  0
 20 21  2  0
 21 22  1  0
 22 23  2  0
 23 24  1  0
 24 25  1  0
 25 26  2  0
 26 27  1  0
 27 28  2  0
 28 29  1  0
 29 30  2  0
 30 31  1  0
 31 32  1  0
 32 33  1  0
 33 34  2  0
 34 35  1  0
 35 36  2  0
 36 37  1  0
 37 38  2  0
 21 39  1  0
 39 40  2  0
 13 41  1  0
 41 42  2  0
  5 43  1  0
 43  2  1  0
 42 10  1  0
 40 18  1  0
 28 23  1  0
 38 33  1  0
 31 27  1  0
  1 44  1  0
  1 45  1  0
  1 46  1  0
  3 47  1  0
  9 48  1  0
  9 49  1  0
 11 50  1  0
 12 51  1  0
 14 52  1  0
 17 53  1  0
 17 54  1  0
 19 55  1  0
 20 56  1  0
 24 57  1  0
 25 58  1  0
 30 59  1  0
 32 60  1  0
 32 61  1  0
 34 62  1  0
 35 63  1  0
 36 64  1  0
 37 65  1  0
 38 66  1  0
 39 67  1  0
 40 68  1  0
 41 69  1  0
 42 70  1  0
 43 71  1  0
M  END
>  <smiles>  (87) 
Cc1csc(=NC(=O)Cc2ccc(NC(=O)Cc3ccc(N=c4[nH]cnc5c4ncn5Cc4ccccc4)cc3)cc2)[nH]1

>  <score_type>  (87) 
oracle

>  <origin>  (87) 
adg

>  <m_score__min__energy>  (87) 
-11.960000000000001

>  <m_primary>  (87) 
energy

$$$$
87:0
     RDKit          3D

 37 39  0  0  0  0  0  0  0  0999 V2000
   57.9660   27.3120   43.3210 O   0  0  0  0  0  0  0  0  0  0  0  0
   57.7500   27.7610   44.4780 C   0  0  0  0  0  0  0  0  0  0  0  0
   57.7340   26.8430   45.5790 N   0  0  0  0  0  0  0  0  0  0  0  0
   57.1000   25.5550   45.6020 C   0  0  0  0  0  0  0  0  0  0  0  0
   57.8410   24.3670   45.4520 C   0  0  0  0  0  0  0  0  0  0  0  0
   57.1980   23.1270   45.4930 C   0  0  0  0  0  0  0  0  0  0  0  0
   55.8190   23.0580   45.6980 C   0  0  0  0  0  0  0  0  0  0  0  0
   55.0790   24.2290   45.8710 C   0  0  0  0  0  0  0  0  0  0  0  0
   55.7160   25.4790   45.8300 C   0  0  0  0  0  0  0  0  0  0  0  0
   54.9790   26.6490   46.0080 O   0  0  0  0  0  0  0  0  0  0  0  0
   57.5560   29.2190   44.6630 C   0  0  0  0  0  0  0  0  0  0  0  0
   58.6640   30.0490   44.8780 C   0  0  0  0  0  0  0  0  0  0  0  0
   58.4960   31.3880   45.0370 N   0  0  0  0  0  0  0  0  0  0  0  0
   57.2620   31.9500   45.0070 C   0  0  0  0  0  0  0  0  0  0  0  0
   57.1420   33.2360   45.1600 N   0  0  0  0  0  0  0  0  0  0  0  0
   58.1850   34.2130   44.8540 C   0  0  0  0  0  0  0  0  0  0  0  0
   59.2850   34.1370   45.8650 C   0  0  0  0  0  0  0  0  0  0  0  0
   59.1560   34.3730   47.2230 C   0  0  0  0  0  0  0  0  0  0  0  0
   60.4080   34.1700   47.7620 C   0  0  0  0  0  0  0  0  0  0  0  0
   61.2140   33.8240   46.6940 C   0  0  0  0  0  0  0  0  0  0  0  0
   62.6070   33.5140   46.7660 N   0  0  0  0  0  0  0  0  0  0  0  0
   63.4390   34.1740   46.1100 O   0  0  0  0  0  0  0  0  0  0  0  0
   63.0390   32.4820   47.5650 O   0  0  0  0  0  0  0  0  0  0  0  0
   60.5240   33.8100   45.5790 O   0  0  0  0  0  0  0  0  0  0  0  0
   56.1680   31.1610   44.8200 N   0  0  0  0  0  0  0  0  0  0  0  0
   56.2830   29.8190   44.6580 C   0  0  0  0  0  0  0  0  0  0  0  0
   55.2390   29.1250   44.5250 O   0  0  0  0  0  0  0  0  0  0  0  0
   58.9297   24.4152   45.3020 H   0  0  0  0  0  0  0  0  0  0  0  0
   57.7802   22.2027   45.3634 H   0  0  0  0  0  0  0  0  0  0  0  0
   55.3152   22.0805   45.7232 H   0  0  0  0  0  0  0  0  0  0  0  0
   53.9935   24.1719   46.0399 H   0  0  0  0  0  0  0  0  0  0  0  0
   55.1470   27.4720   45.4430 H   0  0  0  0  0  0  0  0  0  0  0  0
   59.6740   29.6150   44.9183 H   0  0  0  0  0  0  0  0  0  0  0  0
   58.5958   34.0036   43.8553 H   0  0  0  0  0  0  0  0  0  0  0  0
   57.7469   35.2217   44.8792 H   0  0  0  0  0  0  0  0  0  0  0  0
   58.2417   34.6631   47.7614 H   0  0  0  0  0  0  0  0  0  0  0  0
   60.7030   34.2635   48.8176 H   0  0  0  0  0  0  0  0  0  0  0  0
  1  2  2  0
  2  3  1  0
  3  4  1  0
  4  5  2  0
  5  6  1  0
  6  7  2  0
  7  8  1  0
  8  9  2  0
  9 10  1  0
  2 11  1  0
 11 12  2  0
 12 13  1  0
 13 14  1  0
 14 15  2  3
 15 16  1  0
 16 17  1  0
 17 18  2  0
 18 19  1  0
 19 20  2  0
 20 21  1  0
 21 22  2  0
 21 23  1  0
 20 24  1  0
 14 25  1  0
 25 26  1  0
 26 27  2  0
  9  4  1  0
 26 11  1  0
 24 17  1  0
  5 28  1  0
  6 29  1  0
  7 30  1  0
  8 31  1  0
 10 32  1  0
 12 33  1  0
 16 34  1  0
 16 35  1  0
 18 36  1  0
 19 37  1  0
M  CHG  5   3  -1  13  -1  21   1  23  -1  25  -1
M  END
>  <UniqueID>  (88) 
79

>  <SMILES>  (88) 
O=C([N-]c1ccccc1O)c1c[n-]c(=NCc2ccc([N+](=O)[O-])o2)[n-]c1=O

>  <Energy>  (88) 
73.80412489280074

>  <Genealogy>  (88) 
O=C([N-]c1ccccc1O)c1c[n-]c(=NCc2ccc([N+](=O)[O-])o2)[n-]c1=O (protonated)
O=C([N-]c1ccccc1O)c1c[n-]c(=NCc2ccc([N+](=O)[O-])o2)[n-]c1=O (3D coordinates assigned)
O=C([N-]c1ccccc1O)c1c[n-]c(=NCc2ccc([N+](=O)[O-])o2)[n-]c1=O (optimized conformer: 73.80412489280074 kcal/mol)

>  <smiles>  (88) 
O=C(Nc1ccccc1O)c1c[nH]c(=NCc2ccc([N+](=O)[O-])o2)[nH]c1=O

>  <score_type>  (88) 
oracle

>  <origin>  (88) 
adg

>  <m_score__min__energy>  (88) 
-13.08

>  <m_primary>  (88) 
energy

$$$$
88:0
     RDKit          3D

 67 71  0  0  0  0  0  0  0  0999 V2000
   64.1450   32.4830   46.9160 N   0  0  0  0  0  0  0  0  0  0  0  0
   62.9310   33.2090   47.1240 C   0  0  0  0  0  0  0  0  0  0  0  0
   62.6440   34.1560   46.3450 O   0  0  0  0  0  0  0  0  0  0  0  0
   61.9830   32.8470   48.1930 C   0  0  0  0  0  0  0  0  0  0  0  0
   62.1330   33.3960   49.7900 S   0  0  0  0  0  0  0  0  0  0  0  0
   60.8010   32.5590   50.3740 C   0  0  0  0  0  0  0  0  0  0  0  0
   60.2910   32.5420   51.6700 C   0  0  0  0  0  0  0  0  0  0  0  0
   59.1470   31.7700   51.9260 C   0  0  0  0  0  0  0  0  0  0  0  0
   58.5300   31.0340   50.8920 C   0  0  0  0  0  0  0  0  0  0  0  0
   57.3760   30.2320   51.1910 N   0  0  0  0  0  0  0  0  0  0  0  0
   56.2720   30.6630   52.0000 C   0  0  0  0  0  0  0  0  0  0  0  0
   56.3880   31.6740   52.7490 O   0  0  0  0  0  0  0  0  0  0  0  0
   55.0600   29.9000   52.0000 N   0  0  0  0  0  0  0  0  0  0  0  0
   53.7310   30.4470   52.0210 C   0  0  0  0  0  0  0  0  0  0  0  0
   53.0920   30.9010   50.8480 C   0  0  0  0  0  0  0  0  0  0  0  0
   51.7850   31.3960   50.9050 C   0  0  0  0  0  0  0  0  0  0  0  0
   51.0970   31.4230   52.1200 C   0  0  0  0  0  0  0  0  0  0  0  0
   51.7120   30.9460   53.2810 C   0  0  0  0  0  0  0  0  0  0  0  0
   53.0250   30.4620   53.2320 C   0  0  0  0  0  0  0  0  0  0  0  0
   59.0920   31.0470   49.5970 C   0  0  0  0  0  0  0  0  0  0  0  0
   60.2260   31.8280   49.3490 C   0  0  0  0  0  0  0  0  0  0  0  0
   60.8880   31.9700   48.1180 C   0  0  0  0  0  0  0  0  0  0  0  0
   60.3850   31.0390   46.6580 S   0  0  0  0  0  0  0  0  0  0  0  0
   59.2280   32.2880   46.0610 C   0  0  0  0  0  0  0  0  0  0  0  0
   59.3960   33.6270   46.4440 C   0  0  0  0  0  0  0  0  0  0  0  0
   58.4560   34.5920   46.0700 C   0  0  0  0  0  0  0  0  0  0  0  0
   57.3540   34.2300   45.2910 C   0  0  0  0  0  0  0  0  0  0  0  0
   57.2010   32.9090   44.8660 C   0  0  0  0  0  0  0  0  0  0  0  0
   58.1440   31.9370   45.2240 C   0  0  0  0  0  0  0  0  0  0  0  0
   58.0310   30.6260   44.6480 N   0  0  0  0  0  0  0  0  0  0  0  0
   56.9280   29.7360   44.8940 C   0  0  0  0  0  0  0  0  0  0  0  0
   55.7580   30.1060   44.6000 O   0  0  0  0  0  0  0  0  0  0  0  0
   57.1590   28.3900   45.4630 C   0  0  0  0  0  0  0  0  0  0  0  0
   58.3330   28.0340   45.9930 C   0  0  0  0  0  0  0  0  0  0  0  0
   58.5840   26.6090   46.3990 C   0  0  0  0  0  0  0  0  0  0  0  0
   57.3120   25.8570   46.4020 N   0  0  0  0  0  0  0  0  0  0  0  0
   57.0520   25.2610   45.0760 C   0  0  0  0  0  0  0  0  0  0  0  0
   55.8560   24.2890   45.1360 C   0  0  0  0  0  0  0  0  0  0  0  0
   55.1480   24.4200   46.3530 O   0  0  0  0  0  0  0  0  0  0  0  0
   55.9810   24.0350   47.4330 C   0  0  0  0  0  0  0  0  0  0  0  0
   57.3160   24.8090   47.4420 C   0  0  0  0  0  0  0  0  0  0  0  0
   64.8050   32.7820   46.1640 H   0  0  0  0  0  0  0  0  0  0  0  0
   64.3380   31.5930   47.4280 H   0  0  0  0  0  0  0  0  0  0  0  0
   60.7728   33.1192   52.4729 H   0  0  0  0  0  0  0  0  0  0  0  0
   58.7274   31.7384   52.9423 H   0  0  0  0  0  0  0  0  0  0  0  0
   53.6233   30.8656   49.8855 H   0  0  0  0  0  0  0  0  0  0  0  0
   51.2978   31.7650   49.9904 H   0  0  0  0  0  0  0  0  0  0  0  0
   50.0718   31.8194   52.1633 H   0  0  0  0  0  0  0  0  0  0  0  0
   51.1637   30.9508   54.2346 H   0  0  0  0  0  0  0  0  0  0  0  0
   53.5055   30.0912   54.1494 H   0  0  0  0  0  0  0  0  0  0  0  0
   58.6426   30.4488   48.7907 H   0  0  0  0  0  0  0  0  0  0  0  0
   60.2719   33.9193   47.0417 H   0  0  0  0  0  0  0  0  0  0  0  0
   58.5841   35.6368   46.3892 H   0  0  0  0  0  0  0  0  0  0  0  0
   56.6060   34.9868   45.0122 H   0  0  0  0  0  0  0  0  0  0  0  0
   56.3356   32.6301   44.2469 H   0  0  0  0  0  0  0  0  0  0  0  0
   56.3376   27.6584   45.4494 H   0  0  0  0  0  0  0  0  0  0  0  0
   59.1207   28.7889   46.1330 H   0  0  0  0  0  0  0  0  0  0  0  0
   59.2813   26.1439   45.6866 H   0  0  0  0  0  0  0  0  0  0  0  0
   59.0186   26.5908   47.4093 H   0  0  0  0  0  0  0  0  0  0  0  0
   56.8285   26.0635   44.3577 H   0  0  0  0  0  0  0  0  0  0  0  0
   57.9449   24.7015   44.7603 H   0  0  0  0  0  0  0  0  0  0  0  0
   55.1750   24.5068   44.3001 H   0  0  0  0  0  0  0  0  0  0  0  0
   56.2405   23.2607   45.0670 H   0  0  0  0  0  0  0  0  0  0  0  0
   55.4511   24.2310   48.3768 H   0  0  0  0  0  0  0  0  0  0  0  0
   56.2107   22.9654   47.3185 H   0  0  0  0  0  0  0  0  0  0  0  0
   57.4566   25.2772   48.4274 H   0  0  0  0  0  0  0  0  0  0  0  0
   58.1367   24.1061   47.2362 H   0  0  0  0  0  0  0  0  0  0  0  0
  1  2  1  0
  2  3  2  0
  2  4  1  0
  4  5  1  0
  5  6  1  0
  6  7  2  0
  7  8  1  0
  8  9  2  0
  9 10  1  0
 10 11  1  0
 11 12  2  0
 11 13  1  0
 13 14  1  0
 14 15  2  0
 15 16  1  0
 16 17  2  0
 17 18  1  0
 18 19  2  0
  9 20  1  0
 20 21  2  0
 21 22  1  0
 22 23  1  0
 23 24  1  0
 24 25  2  0
 25 26  1  0
 26 27  2  0
 27 28  1  0
 28 29  2  0
 29 30  1  0
 30 31  1  0
 31 32  2  0
 31 33  1  0
 33 34  2  3
 34 35  1  0
 35 36  1  0
 36 37  1  0
 37 38  1  0
 38 39  1  0
 39 40  1  0
 40 41  1  0
 22  4  2  0
 29 24  1  0
 41 36  1  0
 21  6  1  0
 19 14  1  0
  1 42  1  0
  1 43  1  0
  7 44  1  0
  8 45  1  0
 15 46  1  0
 16 47  1  0
 17 48  1  0
 18 49  1  0
 19 50  1  0
 20 51  1  0
 25 52  1  0
 26 53  1  0
 27 54  1  0
 28 55  1  0
 33 56  1  0
 34 57  1  0
 35 58  1  0
 35 59  1  0
 37 60  1  0
 37 61  1  0
 38 62  1  0
 38 63  1  0
 40 64  1  0
 40 65  1  0
 41 66  1  0
 41 67  1  0
M  CHG  3  10  -1  13  -1  30  -1
M  END
>  <UniqueID>  (89) 
80

>  <SMILES>  (89) 
NC(=O)c1sc2ccc([N-]C(=O)[N-]c3ccccc3)cc2c1Sc1ccccc1[N-]C(=O)C=CCN1CCOCC1

>  <Energy>  (89) 
124.42226179747679

>  <Genealogy>  (89) 
NC(=O)c1sc2ccc([N-]C(=O)[N-]c3ccccc3)cc2c1Sc1ccccc1[N-]C(=O)C=CCN1CCOCC1 (protonated)
NC(=O)c1sc2ccc([N-]C(=O)[N-]c3ccccc3)cc2c1Sc1ccccc1[N-]C(=O)C=CCN1CCOCC1 (3D coordinates assigned)
NC(=O)c1sc2ccc([N-]C(=O)[N-]c3ccccc3)cc2c1Sc1ccccc1[N-]C(=O)C=CCN1CCOCC1 (nonaromatic ring conformer: 124.42226179747679 kcal/mol)

>  <smiles>  (89) 
NC(=O)c1sc2ccc(NC(=O)Nc3ccccc3)cc2c1Sc1ccccc1NC(=O)C=CCN1CCOCC1

>  <score_type>  (89) 
oracle

>  <origin>  (89) 
adg

>  <m_score__min__energy>  (89) 
-14.43

>  <m_primary>  (89) 
energy

$$$$
89:0
     RDKit          3D

 89 94  0  0  0  0  0  0  0  0999 V2000
   54.4560   30.8080   51.5370 C   0  0  0  0  0  0  0  0  0  0  0  0
   55.8850   30.8540   51.9590 C   0  0  0  0  0  0  0  0  0  0  0  0
   56.5610   29.8500   52.6200 C   0  0  0  0  0  0  0  0  0  0  0  0
   57.8580   30.3260   52.7450 C   0  0  0  0  0  0  0  0  0  0  0  0
   59.0270   29.6420   53.4380 C   0  0  0  0  0  0  0  0  0  0  0  0
   60.3900   30.3250   53.1890 C   0  0  0  0  0  0  0  0  0  0  0  0
   61.0630   29.9580   51.8410 C   0  0  0  0  0  0  0  0  0  0  0  0
   60.6760   28.6350   51.2900 N   0  0  0  0  0  0  0  0  0  0  0  0
   59.6840   28.7270   50.1880 C   0  0  0  0  0  0  0  0  0  0  0  0
   60.3400   28.5650   48.7940 C   0  0  1  0  0  0  0  0  0  0  0  0
   59.7050   27.4540   47.9370 C   0  0  0  0  0  0  0  0  0  0  0  0
   59.3130   28.0090   46.6270 N   0  0  0  0  0  0  0  0  0  0  0  0
   57.8450   28.0590   46.3560 C   0  0  1  0  0  0  0  0  0  0  0  0
   57.5160   28.6280   44.9510 C   0  0  0  0  0  0  0  0  0  0  0  0
   57.1660   30.1310   44.8700 C   0  0  0  0  0  0  0  0  0  0  0  0
   58.2970   30.9640   44.2640 C   0  0  0  0  0  0  0  0  0  0  0  0
   57.4020   31.3440   43.0960 C   0  0  0  0  0  0  0  0  0  0  0  0
   56.2710   30.5170   43.6900 C   0  0  0  0  0  0  0  0  0  0  0  0
   57.0970   26.7820   46.6940 C   0  0  0  0  0  0  0  0  0  0  0  0
   57.6700   25.8160   47.2590 O   0  0  0  0  0  0  0  0  0  0  0  0
   55.7500   26.6700   46.3710 O   0  0  0  0  0  0  0  0  0  0  0  0
   59.9640   29.3250   46.5250 C   0  0  0  0  0  0  0  0  0  0  0  0
   60.1790   29.8300   47.9450 C   0  0  2  0  0  0  0  0  0  0  0  0
   61.3410   30.8000   48.0750 C   0  0  0  0  0  0  0  0  0  0  0  0
   61.6340   31.6820   47.0190 C   0  0  0  0  0  0  0  0  0  0  0  0
   62.6970   32.5840   47.1210 C   0  0  0  0  0  0  0  0  0  0  0  0
   63.4770   32.6190   48.2800 C   0  0  0  0  0  0  0  0  0  0  0  0
   63.1920   31.7560   49.3390 C   0  0  0  0  0  0  0  0  0  0  0  0
   62.1300   30.8520   49.2420 C   0  0  0  0  0  0  0  0  0  0  0  0
   60.3180   27.6830   52.3580 C   0  0  0  0  0  0  0  0  0  0  0  0
   59.0690   28.1210   53.1410 C   0  0  0  0  0  0  0  0  0  0  0  0
   57.9140   31.5480   52.1570 N   0  0  0  0  0  0  0  0  0  0  0  0
   59.0930   32.3910   51.9590 C   0  0  0  0  0  0  0  0  0  0  0  0
   59.1610   32.8750   50.5350 C   0  0  0  0  0  0  0  0  0  0  0  0
   59.8660   34.0470   50.2210 C   0  0  0  0  0  0  0  0  0  0  0  0
   59.9160   34.5100   48.9050 C   0  0  0  0  0  0  0  0  0  0  0  0
   59.2710   33.8040   47.8790 C   0  0  0  0  0  0  0  0  0  0  0  0
   59.3150   34.4140   46.2260 S   0  0  0  0  0  0  0  0  0  0  0  0
   57.7230   34.1780   45.4700 C   0  0  0  0  0  0  0  0  0  0  0  0
   60.3650   33.6850   45.4390 O   0  0  0  0  0  0  0  0  0  0  0  0
   59.6490   35.8810   46.2300 O   0  0  0  0  0  0  0  0  0  0  0  0
   58.5670   32.6290   48.1890 C   0  0  0  0  0  0  0  0  0  0  0  0
   57.9130   31.9400   47.2210 F   0  0  0  0  0  0  0  0  0  0  0  0
   58.5180   32.1660   49.5080 C   0  0  0  0  0  0  0  0  0  0  0  0
   56.7240   31.8630   51.6690 N   0  0  0  0  0  0  0  0  0  0  0  0
   53.8111   30.7872   52.4279 H   0  0  0  0  0  0  0  0  0  0  0  0
   54.2223   31.6991   50.9359 H   0  0  0  0  0  0  0  0  0  0  0  0
   54.2801   29.9037   50.9359 H   0  0  0  0  0  0  0  0  0  0  0  0
   56.1611   28.8869   52.9699 H   0  0  0  0  0  0  0  0  0  0  0  0
   58.8390   29.7611   54.5152 H   0  0  0  0  0  0  0  0  0  0  0  0
   60.2362   31.4140   53.2097 H   0  0  0  0  0  0  0  0  0  0  0  0
   61.0653   29.9677   53.9804 H   0  0  0  0  0  0  0  0  0  0  0  0
   60.7929   30.7279   51.1032 H   0  0  0  0  0  0  0  0  0  0  0  0
   62.1437   29.9059   52.0394 H   0  0  0  0  0  0  0  0  0  0  0  0
   58.9332   27.9341   50.3203 H   0  0  0  0  0  0  0  0  0  0  0  0
   59.2242   29.7254   50.2305 H   0  0  0  0  0  0  0  0  0  0  0  0
   61.3890   28.3320   49.0290 H   0  0  0  0  0  0  0  0  0  0  0  0
   60.4334   26.6432   47.7889 H   0  0  0  0  0  0  0  0  0  0  0  0
   58.8157   27.0579   48.4492 H   0  0  0  0  0  0  0  0  0  0  0  0
   57.4458   28.7882   47.0764 H   0  0  0  0  0  0  0  0  0  0  0  0
   58.3925   28.4558   44.3091 H   0  0  0  0  0  0  0  0  0  0  0  0
   56.6020   28.1033   44.6358 H   0  0  0  0  0  0  0  0  0  0  0  0
   56.8141   30.2934   45.8995 H   0  0  0  0  0  0  0  0  0  0  0  0
   58.6081   31.8164   44.8857 H   0  0  0  0  0  0  0  0  0  0  0  0
   59.2827   30.5109   44.0822 H   0  0  0  0  0  0  0  0  0  0  0  0
   57.1839   32.4201   43.0294 H   0  0  0  0  0  0  0  0  0  0  0  0
   57.7340   31.1700   42.0618 H   0  0  0  0  0  0  0  0  0  0  0  0
   55.3857   31.1056   43.9725 H   0  0  0  0  0  0  0  0  0  0  0  0
   55.7781   29.7384   43.0893 H   0  0  0  0  0  0  0  0  0  0  0  0
   60.9304   29.2288   46.0085 H   0  0  0  0  0  0  0  0  0  0  0  0
   59.3410   30.0262   45.9505 H   0  0  0  0  0  0  0  0  0  0  0  0
   59.3275   30.4364   48.2874 H   0  0  0  0  0  0  0  0  0  0  0  0
   61.0216   31.6617   46.1055 H   0  0  0  0  0  0  0  0  0  0  0  0
   62.9198   33.2670   46.2880 H   0  0  0  0  0  0  0  0  0  0  0  0
   64.3155   33.3267   48.3575 H   0  0  0  0  0  0  0  0  0  0  0  0
   63.8044   31.7871   50.2522 H   0  0  0  0  0  0  0  0  0  0  0  0
   61.9086   30.1769   50.0818 H   0  0  0  0  0  0  0  0  0  0  0  0
   60.1234   26.7001   51.9041 H   0  0  0  0  0  0  0  0  0  0  0  0
   61.1593   27.6416   53.0655 H   0  0  0  0  0  0  0  0  0  0  0  0
   58.1784   27.8566   52.5520 H   0  0  0  0  0  0  0  0  0  0  0  0
   59.0969   27.6027   54.1108 H   0  0  0  0  0  0  0  0  0  0  0  0
   59.0358   33.2578   52.6338 H   0  0  0  0  0  0  0  0  0  0  0  0
   59.9944   31.7996   52.1775 H   0  0  0  0  0  0  0  0  0  0  0  0
   60.3823   34.6042   51.0166 H   0  0  0  0  0  0  0  0  0  0  0  0
   60.4647   35.4343   48.6712 H   0  0  0  0  0  0  0  0  0  0  0  0
   56.9585   34.0647   46.2528 H   0  0  0  0  0  0  0  0  0  0  0  0
   57.4811   35.0501   44.8448 H   0  0  0  0  0  0  0  0  0  0  0  0
   57.7445   33.2732   44.8448 H   0  0  0  0  0  0  0  0  0  0  0  0
   57.9720   31.2402   49.7421 H   0  0  0  0  0  0  0  0  0  0  0  0
  1  2  1  0
  2  3  1  0
  3  4  2  0
  4  5  1  0
  5  6  1  0
  6  7  1  0
  7  8  1  0
  8  9  1  0
  9 10  1  0
 10 11  1  0
 11 12  1  0
 12 13  1  0
 13 14  1  0
 14 15  1  0
 15 16  1  0
 16 17  1  0
 17 18  1  0
 13 19  1  0
 19 20  2  0
 19 21  1  0
 12 22  1  0
 22 23  1  0
 23 24  1  0
 24 25  2  0
 25 26  1  0
 26 27  2  0
 27 28  1  0
 28 29  2  0
  8 30  1  0
 30 31  1  0
  4 32  1  0
 32 33  1  0
 33 34  1  0
 34 35  2  0
 35 36  1  0
 36 37  2  0
 37 38  1  0
 38 39  1  0
 38 40  2  0
 38 41  2  0
 37 42  1  0
 42 43  1  0
 42 44  2  0
 32 45  1  0
 45  2  2  0
 31  5  1  0
 44 34  1  0
 23 10  1  0
 29 24  1  0
 18 15  1  0
  1 46  1  0
  1 47  1  0
  1 48  1  0
  3 49  1  0
  5 50  1  0
  6 51  1  0
  6 52  1  0
  7 53  1  0
  7 54  1  0
  9 55  1  0
  9 56  1  0
 10 57  1  1
 11 58  1  0
 11 59  1  0
 13 60  1  1
 14 61  1  0
 14 62  1  0
 15 63  1  0
 16 64  1  0
 16 65  1  0
 17 66  1  0
 17 67  1  0
 18 68  1  0
 18 69  1  0
 22 70  1  0
 22 71  1  0
 23 72  1  1
 25 73  1  0
 26 74  1  0
 27 75  1  0
 28 76  1  0
 29 77  1  0
 30 78  1  0
 30 79  1  0
 31 80  1  0
 31 81  1  0
 33 82  1  0
 33 83  1  0
 35 84  1  0
 36 85  1  0
 39 86  1  0
 39 87  1  0
 39 88  1  0
 44 89  1  0
M  CHG  1  21  -1
M  END
>  <UniqueID>  (90) 
81

>  <SMILES>  (90) 
Cc1cc(C2CCN(C[C@H]3CN([C@@H](CC4CCC4)C(=O)[O-])CC3c3ccccc3)CC2)n(Cc2ccc(S(C)(=O)=O)c(F)c2)n1

>  <Energy>  (90) 
202.94948499153236

>  <Genealogy>  (90) 
Cc1cc(C2CCN(CC3CN(C(CC4CCC4)C(=O)[O-])CC3c3ccccc3)CC2)n(Cc2ccc(S(C)(=O)=O)c(F)c2)n1 (protonated)
Cc1cc(C2CCN(C[C@H]3CN([C@@H](CC4CCC4)C(=O)[O-])CC3c3ccccc3)CC2)n(Cc2ccc(S(C)(=O)=O)c(F)c2)n1 (chirality)
Cc1cc(C2CCN(C[C@H]3CN([C@@H](CC4CCC4)C(=O)[O-])CC3c3ccccc3)CC2)n(Cc2ccc(S(C)(=O)=O)c(F)c2)n1 (3D coordinates assigned)
Cc1cc(C2CCN(C[C@H]3CN([C@@H](CC4CCC4)C(=O)[O-])CC3c3ccccc3)CC2)n(Cc2ccc(S(C)(=O)=O)c(F)c2)n1 (nonaromatic ring conformer: 202.94948499153236 kcal/mol)

>  <smiles>  (90) 
Cc1cc(C2CCN(CC3CN(C(CC4CCC4)C(=O)O)CC3c3ccccc3)CC2)n(Cc2ccc(S(C)(=O)=O)c(F)c2)n1

>  <score_type>  (90) 
oracle

>  <origin>  (90) 
adg

>  <m_score__min__energy>  (90) 
-14.300000000000001

>  <m_primary>  (90) 
energy

$$$$
90:0
     RDKit          3D

 63 67  0  0  0  0  0  0  0  0999 V2000
   58.1370   31.9860   42.2130 C   0  0  0  0  0  0  0  0  0  0  0  0
   57.4790   32.9500   43.0270 O   0  0  0  0  0  0  0  0  0  0  0  0
   57.7640   33.1770   44.3830 C   0  0  0  0  0  0  0  0  0  0  0  0
   58.3660   34.3710   44.8260 C   0  0  0  0  0  0  0  0  0  0  0  0
   58.6910   34.5410   46.1740 C   0  0  0  0  0  0  0  0  0  0  0  0
   58.4260   33.5230   47.0920 C   0  0  0  0  0  0  0  0  0  0  0  0
   57.8210   32.3390   46.6660 C   0  0  0  0  0  0  0  0  0  0  0  0
   57.4610   32.1700   45.3240 C   0  0  0  0  0  0  0  0  0  0  0  0
   56.8390   30.9420   44.9270 N   0  0  0  0  0  0  0  0  0  0  0  0
   57.4530   29.6480   44.9680 C   0  0  0  0  0  0  0  0  0  0  0  0
   58.0820   29.2450   43.9550 O   0  0  0  0  0  0  0  0  0  0  0  0
   57.3850   28.7780   46.1990 C   0  0  0  0  0  0  0  0  0  0  0  0
   58.0820   27.5000   45.9870 N   0  0  0  0  0  0  0  0  0  0  0  0
   59.4210   27.2630   45.8390 C   0  0  0  0  0  0  0  0  0  0  0  0
   60.5130   28.3160   45.8300 C   0  0  0  0  0  0  0  0  0  0  0  0
   60.3100   29.4020   46.8140 N   0  0  0  0  0  0  0  0  0  0  0  0
   60.1560   28.9070   48.1910 C   0  0  0  0  0  0  0  0  0  0  0  0
   59.5740   30.0170   49.0700 C   0  0  0  0  0  0  0  0  0  0  0  0
   60.2830   31.3330   48.8610 C   0  0  0  0  0  0  0  0  0  0  0  0
   60.0800   32.3770   49.7780 C   0  0  0  0  0  0  0  0  0  0  0  0
   60.6900   33.6170   49.5810 C   0  0  0  0  0  0  0  0  0  0  0  0
   61.4990   33.8310   48.4630 C   0  0  0  0  0  0  0  0  0  0  0  0
   61.6980   32.8050   47.5360 C   0  0  0  0  0  0  0  0  0  0  0  0
   61.0780   31.5590   47.7150 C   0  0  0  0  0  0  0  0  0  0  0  0
   61.3580   30.4400   46.7430 C   0  0  0  0  0  0  0  0  0  0  0  0
   59.7090   25.9540   45.6190 N   0  0  0  0  0  0  0  0  0  0  0  0
   58.4990   25.3670   45.6280 C   0  0  0  0  0  0  0  0  0  0  0  0
   57.5240   26.2800   45.8330 C   0  0  0  0  0  0  0  0  0  0  0  0
   56.1880   25.8840   45.8320 C   0  0  0  0  0  0  0  0  0  0  0  0
   55.2650   26.7290   45.9950 O   0  0  0  0  0  0  0  0  0  0  0  0
   55.9010   24.5510   45.6450 N   0  0  0  0  0  0  0  0  0  0  0  0
   54.5030   24.0890   45.6900 C   0  0  0  0  0  0  0  0  0  0  0  0
   56.9250   23.6320   45.4890 C   0  0  0  0  0  0  0  0  0  0  0  0
   56.6560   22.4020   45.3880 O   0  0  0  0  0  0  0  0  0  0  0  0
   58.2380   24.0450   45.4420 N   0  0  0  0  0  0  0  0  0  0  0  0
   59.3350   23.0800   45.2810 C   0  0  0  0  0  0  0  0  0  0  0  0
   58.6410   31.2476   42.8539 H   0  0  0  0  0  0  0  0  0  0  0  0
   57.3975   31.4763   41.5779 H   0  0  0  0  0  0  0  0  0  0  0  0
   58.8811   32.4889   41.5779 H   0  0  0  0  0  0  0  0  0  0  0  0
   58.5815   35.1744   44.1062 H   0  0  0  0  0  0  0  0  0  0  0  0
   59.1564   35.4784   46.5127 H   0  0  0  0  0  0  0  0  0  0  0  0
   58.6939   33.6538   48.1508 H   0  0  0  0  0  0  0  0  0  0  0  0
   57.6260   31.5338   47.3897 H   0  0  0  0  0  0  0  0  0  0  0  0
   57.8562   29.3084   47.0396 H   0  0  0  0  0  0  0  0  0  0  0  0
   56.3280   28.5660   46.4174 H   0  0  0  0  0  0  0  0  0  0  0  0
   61.4709   27.8228   46.0519 H   0  0  0  0  0  0  0  0  0  0  0  0
   60.4973   28.7822   44.8338 H   0  0  0  0  0  0  0  0  0  0  0  0
   59.4771   28.0415   48.1958 H   0  0  0  0  0  0  0  0  0  0  0  0
   61.1379   28.6048   48.5841 H   0  0  0  0  0  0  0  0  0  0  0  0
   58.5095   30.1439   48.8236 H   0  0  0  0  0  0  0  0  0  0  0  0
   59.7063   29.7227   50.1216 H   0  0  0  0  0  0  0  0  0  0  0  0
   59.4370   32.2168   50.6560 H   0  0  0  0  0  0  0  0  0  0  0  0
   60.5331   34.4274   50.3080 H   0  0  0  0  0  0  0  0  0  0  0  0
   61.9801   34.8086   48.3121 H   0  0  0  0  0  0  0  0  0  0  0  0
   62.3437   32.9747   46.6618 H   0  0  0  0  0  0  0  0  0  0  0  0
   61.3899   30.8496   45.7226 H   0  0  0  0  0  0  0  0  0  0  0  0
   62.3231   29.9818   47.0050 H   0  0  0  0  0  0  0  0  0  0  0  0
   54.1851   23.9839   46.7378 H   0  0  0  0  0  0  0  0  0  0  0  0
   53.8581   24.8218   45.1829 H   0  0  0  0  0  0  0  0  0  0  0  0
   54.4218   23.1162   45.1829 H   0  0  0  0  0  0  0  0  0  0  0  0
   59.6939   22.7643   46.2717 H   0  0  0  0  0  0  0  0  0  0  0  0
   58.9728   22.2024   44.7254 H   0  0  0  0  0  0  0  0  0  0  0  0
   60.1592   23.5512   44.7254 H   0  0  0  0  0  0  0  0  0  0  0  0
  1  2  1  0
  2  3  1  0
  3  4  2  0
  4  5  1  0
  5  6  2  0
  6  7  1  0
  7  8  2  0
  8  9  1  0
  9 10  1  0
 10 11  2  0
 10 12  1  0
 12 13  1  0
 13 14  1  0
 14 15  1  0
 15 16  1  0
 16 17  1  0
 17 18  1  0
 18 19  1  0
 19 20  2  0
 20 21  1  0
 21 22  2  0
 22 23  1  0
 23 24  2  0
 24 25  1  0
 14 26  2  0
 26 27  1  0
 27 28  2  0
 28 29  1  0
 29 30  2  0
 29 31  1  0
 31 32  1  0
 31 33  1  0
 33 34  2  0
 33 35  1  0
 35 36  1  0
  8  3  1  0
 28 13  1  0
 25 16  1  0
 35 27  1  0
 24 19  1  0
  1 37  1  0
  1 38  1  0
  1 39  1  0
  4 40  1  0
  5 41  1  0
  6 42  1  0
  7 43  1  0
 12 44  1  0
 12 45  1  0
 15 46  1  0
 15 47  1  0
 17 48  1  0
 17 49  1  0
 18 50  1  0
 18 51  1  0
 20 52  1  0
 21 53  1  0
 22 54  1  0
 23 55  1  0
 25 56  1  0
 25 57  1  0
 32 58  1  0
 32 59  1  0
 32 60  1  0
 36 61  1  0
 36 62  1  0
 36 63  1  0
M  CHG  1   9  -1
M  END
>  <UniqueID>  (91) 
82

>  <SMILES>  (91) 
COc1ccccc1[N-]C(=O)Cn1c(CN2CCc3ccccc3C2)nc2c1c(=O)n(C)c(=O)n2C

>  <Energy>  (91) 
124.48463603346049

>  <Genealogy>  (91) 
COc1ccccc1[N-]C(=O)Cn1c(CN2CCc3ccccc3C2)nc2c1c(=O)n(C)c(=O)n2C (protonated)
COc1ccccc1[N-]C(=O)Cn1c(CN2CCc3ccccc3C2)nc2c1c(=O)n(C)c(=O)n2C (3D coordinates assigned)
COc1ccccc1[N-]C(=O)Cn1c(CN2CCc3ccccc3C2)nc2c1c(=O)n(C)c(=O)n2C (nonaromatic ring conformer: 124.48463603346049 kcal/mol)

>  <smiles>  (91) 
COc1ccccc1NC(=O)Cn1c(CN2CCc3ccccc3C2)nc2c1c(=O)n(C)c(=O)n2C

>  <score_type>  (91) 
oracle

>  <origin>  (91) 
adg

>  <m_score__min__energy>  (91) 
-10.27

>  <m_primary>  (91) 
energy

$$$$
91:0
     RDKit          3D

 25 26  0  0  0  0  0  0  0  0999 V2000
   55.5120   25.9380   47.1520 H   0  0  0  0  0  0  0  0  0  0  0  0
   55.5470   26.2420   46.1860 O   0  0  0  0  0  0  0  0  0  0  0  0
   56.3010   27.3530   45.8120 C   0  0  0  0  0  0  0  0  0  0  0  0
   55.6810   28.4180   45.2390 N   0  0  0  0  0  0  0  0  0  0  0  0
   56.3730   29.5330   44.8970 C   0  0  0  0  0  0  0  0  0  0  0  0
   55.7780   30.5050   44.3660 O   0  0  0  0  0  0  0  0  0  0  0  0
   57.7080   29.6030   45.1330 N   0  0  0  0  0  0  0  0  0  0  0  0
   58.3760   28.5650   45.7000 C   0  0  0  0  0  0  0  0  0  0  0  0
   59.6150   28.6670   45.9050 O   0  0  0  0  0  0  0  0  0  0  0  0
   57.6890   27.3890   46.0370 C   0  0  0  0  0  0  0  0  0  0  0  0
   58.4080   26.2570   46.6660 C   0  0  0  0  0  0  0  0  0  0  0  0
   58.5587   26.2930   47.7550 H   0  0  0  0  0  0  0  0  0  0  0  0
   58.8900   25.1900   46.0080 C   0  0  0  0  0  0  0  0  0  0  0  0
   59.9671   24.9854   46.0977 H   0  0  0  0  0  0  0  0  0  0  0  0
   58.0900   24.2670   45.1720 C   0  0  0  0  0  0  0  0  0  0  0  0
   57.3390   24.7250   44.0720 C   0  0  0  0  0  0  0  0  0  0  0  0
   57.3262   25.7970   43.8258 H   0  0  0  0  0  0  0  0  0  0  0  0
   56.6100   23.8230   43.2920 C   0  0  0  0  0  0  0  0  0  0  0  0
   56.0122   24.1888   42.4442 H   0  0  0  0  0  0  0  0  0  0  0  0
   56.6390   22.4570   43.5870 C   0  0  0  0  0  0  0  0  0  0  0  0
   55.9130   21.5630   42.8100 O   0  0  0  0  0  0  0  0  0  0  0  0
   57.4050   21.9910   44.6590 C   0  0  0  0  0  0  0  0  0  0  0  0
   57.4335   20.9153   44.8870 H   0  0  0  0  0  0  0  0  0  0  0  0
   58.1350   22.8900   45.4420 C   0  0  0  0  0  0  0  0  0  0  0  0
   58.7486   22.5162   46.2749 H   0  0  0  0  0  0  0  0  0  0  0  0
  1  2  1  0
  2  3  1  0
  3  4  1  0
  4  5  1  0
  5  6  2  0
  5  7  1  0
  7  8  1  0
  8  9  2  0
  8 10  1  0
 10 11  1  0
 11 12  1  0
 11 13  2  0
 13 14  1  0
 13 15  1  0
 15 16  2  0
 16 17  1  0
 16 18  1  0
 18 19  1  0
 18 20  2  0
 20 21  1  0
 20 22  1  0
 22 23  1  0
 22 24  2  0
 24 25  1  0
 10  3  2  0
 24 15  1  0
M  CHG  3   4  -1   7  -1  21  -1
M  END
>  <UniqueID>  (92) 
83

>  <SMILES>  (92) 
O=c1[n-]c(O)c(/C=C\c2ccc([O-])cc2)c(=O)[n-]1

>  <Energy>  (92) 
38.138439481784125

>  <Genealogy>  (92) 
O=c1[n-]c(O)c(C=Cc2ccc([O-])cc2)c(=O)[n-]1 (protonated)
O=c1[n-]c(O)c(/C=C\c2ccc([O-])cc2)c(=O)[n-]1 (cis-trans isomerization)
O=c1[n-]c(O)c(/C=C\c2ccc([O-])cc2)c(=O)[n-]1 (3D coordinates assigned)
O=c1[n-]c(O)c(/C=C\c2ccc([O-])cc2)c(=O)[n-]1 (optimized conformer: 38.138439481784125 kcal/mol)

>  <smiles>  (92) 
O=c1[nH]c(O)c(C=Cc2ccc(O)cc2)c(=O)[nH]1

>  <score_type>  (92) 
oracle

>  <origin>  (92) 
adg

>  <m_score__min__energy>  (92) 
-12.27

>  <m_primary>  (92) 
energy

$$$$
92:0
     RDKit          3D

 46 49  0  0  0  0  0  0  0  0999 V2000
   58.3683   33.3450   43.2749 H   0  0  0  0  0  0  0  0  0  0  0  0
   58.4500   33.3010   44.3710 C   0  0  0  0  0  0  0  0  0  0  0  0
   58.0600   32.1470   45.0540 C   0  0  0  0  0  0  0  0  0  0  0  0
   57.6630   31.2858   44.4965 H   0  0  0  0  0  0  0  0  0  0  0  0
   58.1740   32.0860   46.4460 C   0  0  0  0  0  0  0  0  0  0  0  0
   57.8608   31.1772   46.9808 H   0  0  0  0  0  0  0  0  0  0  0  0
   58.6860   33.1780   47.1660 C   0  0  0  0  0  0  0  0  0  0  0  0
   58.7940   33.0960   48.6680 C   0  0  0  0  0  0  0  0  0  0  0  0
   57.9234   32.5523   49.0634 H   0  0  0  0  0  0  0  0  0  0  0  0
   58.8244   34.1169   49.0766 H   0  0  0  0  0  0  0  0  0  0  0  0
   59.9880   32.4120   49.0520 O   0  0  0  0  0  0  0  0  0  0  0  0
   61.2420   32.5490   48.4300 C   0  0  0  0  0  0  0  0  0  0  0  0
   61.9770   33.7500   48.4800 C   0  0  0  0  0  0  0  0  0  0  0  0
   61.5694   34.6193   49.0168 H   0  0  0  0  0  0  0  0  0  0  0  0
   63.2210   33.8420   47.8510 C   0  0  0  0  0  0  0  0  0  0  0  0
   63.7844   34.7862   47.8828 H   0  0  0  0  0  0  0  0  0  0  0  0
   63.7490   32.7380   47.1830 C   0  0  0  0  0  0  0  0  0  0  0  0
   64.7328   32.8104   46.6963 H   0  0  0  0  0  0  0  0  0  0  0  0
   63.0320   31.5400   47.1300 C   0  0  0  0  0  0  0  0  0  0  0  0
   63.4589   30.6681   46.6127 H   0  0  0  0  0  0  0  0  0  0  0  0
   61.7660   31.4450   47.7360 C   0  0  0  0  0  0  0  0  0  0  0  0
   61.0080   30.2240   47.7080 N   0  0  0  0  0  0  0  0  0  0  0  0
   60.6200   29.4810   46.5440 C   0  0  0  0  0  0  0  0  0  0  0  0
   61.1230   29.7580   45.4200 O   0  0  0  0  0  0  0  0  0  0  0  0
   59.5840   28.4300   46.6490 C   0  0  0  0  0  0  0  0  0  0  0  0
   59.8360   27.2440   47.3970 C   0  0  0  0  0  0  0  0  0  0  0  0
   60.8053   27.1149   47.9008 H   0  0  0  0  0  0  0  0  0  0  0  0
   58.8600   26.2360   47.4990 C   0  0  0  0  0  0  0  0  0  0  0  0
   59.0481   25.3181   48.0753 H   0  0  0  0  0  0  0  0  0  0  0  0
   57.6490   26.4400   46.8460 C   0  0  0  0  0  0  0  0  0  0  0  0
   57.3950   27.5690   46.1280 C   0  0  0  0  0  0  0  0  0  0  0  0
   56.1590   27.5210   45.5950 N   0  0  0  0  0  0  0  0  0  0  0  0
   55.7000   26.3180   46.0290 C   0  0  0  0  0  0  0  0  0  0  0  0
   54.5150   25.8840   45.7200 N   0  0  0  0  0  0  0  0  0  0  0  0
   54.1930   24.4820   45.4800 C   0  0  0  0  0  0  0  0  0  0  0  0
   54.0738   23.9632   46.4426 H   0  0  0  0  0  0  0  0  0  0  0  0
   53.2558   24.4137   44.9082 H   0  0  0  0  0  0  0  0  0  0  0  0
   55.0065   24.0116   44.9082 H   0  0  0  0  0  0  0  0  0  0  0  0
   56.5850   25.6290   46.7970 N   0  0  0  0  0  0  0  0  0  0  0  0
   56.4770   24.6930   47.2460 H   0  0  0  0  0  0  0  0  0  0  0  0
   58.3330   28.5890   46.0030 C   0  0  0  0  0  0  0  0  0  0  0  0
   58.1095   29.4939   45.4188 H   0  0  0  0  0  0  0  0  0  0  0  0
   59.0580   34.3460   46.4720 C   0  0  0  0  0  0  0  0  0  0  0  0
   59.5330   35.4300   47.1370 F   0  0  0  0  0  0  0  0  0  0  0  0
   58.9440   34.4000   45.0790 C   0  0  0  0  0  0  0  0  0  0  0  0
   59.2441   35.3102   44.5391 H   0  0  0  0  0  0  0  0  0  0  0  0
  1  2  1  0
  2  3  2  0
  3  4  1  0
  3  5  1  0
  5  6  1  0
  5  7  2  0
  7  8  1  0
  8  9  1  0
  8 10  1  0
  8 11  1  0
 11 12  1  0
 12 13  2  0
 13 14  1  0
 13 15  1  0
 15 16  1  0
 15 17  2  0
 17 18  1  0
 17 19  1  0
 19 20  1  0
 19 21  2  0
 21 22  1  0
 22 23  1  0
 23 24  2  0
 23 25  1  0
 25 26  2  0
 26 27  1  0
 26 28  1  0
 28 29  1  0
 28 30  2  0
 30 31  1  0
 31 32  1  0
 32 33  1  0
 33 34  2  0
 34 35  1  0
 35 36  1  0
 35 37  1  0
 35 38  1  0
 33 39  1  0
 39 40  1  0
 31 41  2  0
 41 42  1  0
  7 43  1  0
 43 44  1  0
 43 45  2  0
 45 46  1  0
 45  2  1  0
 21 12  1  0
 41 25  1  0
 39 30  1  0
M  CHG  2  22  -1  32  -1
M  END
>  <UniqueID>  (93) 
84

>  <SMILES>  (93) 
C/N=c1/[n-]c2cc(C(=O)[N-]c3ccccc3OCc3ccccc3F)ccc2[nH]1

>  <Energy>  (93) 
91.16057825655051

>  <Genealogy>  (93) 
CN=c1[n-]c2cc(C(=O)[N-]c3ccccc3OCc3ccccc3F)ccc2[nH]1 (protonated)
C/N=c1/[n-]c2cc(C(=O)[N-]c3ccccc3OCc3ccccc3F)ccc2[nH]1 (cis-trans isomerization)
C/N=c1/[n-]c2cc(C(=O)[N-]c3ccccc3OCc3ccccc3F)ccc2[nH]1 (3D coordinates assigned)
C/N=c1/[n-]c2cc(C(=O)[N-]c3ccccc3OCc3ccccc3F)ccc2[nH]1 (optimized conformer: 91.16057825655051 kcal/mol)

>  <smiles>  (93) 
CN=c1[nH]c2ccc(C(=O)Nc3ccccc3OCc3ccccc3F)cc2[nH]1

>  <score_type>  (93) 
oracle

>  <origin>  (93) 
adg

>  <m_score__min__energy>  (93) 
-11.130000000000001

>  <m_primary>  (93) 
energy

$$$$
93:0
     RDKit          3D

 65 68  0  0  0  0  0  0  0  0999 V2000
   63.7240   33.6860   47.0280 C   0  0  0  0  0  0  0  0  0  0  0  0
   62.3300   33.5150   46.4210 C   0  0  0  0  0  0  0  0  0  0  0  0
   61.2300   34.1050   47.3370 C   0  0  2  0  0  0  0  0  0  0  0  0
   61.3190   33.5420   48.6880 N   0  0  0  0  0  0  0  0  0  0  0  0
   61.6370   32.1810   49.0180 C   0  0  0  0  0  0  0  0  0  0  0  0
   62.8330   31.8340   49.2110 O   0  0  0  0  0  0  0  0  0  0  0  0
   60.5490   31.2000   49.2340 C   0  0  0  0  0  0  0  0  0  0  0  0
   60.6050   29.9890   48.5200 C   0  0  0  0  0  0  0  0  0  0  0  0
   59.6890   28.9620   48.7930 C   0  0  0  0  0  0  0  0  0  0  0  0
   59.7550   27.6680   48.0750 C   0  0  0  0  0  0  0  0  0  0  0  0
   60.8730   27.1320   47.8590 O   0  0  0  0  0  0  0  0  0  0  0  0
   58.5530   27.0230   47.6230 N   0  0  0  0  0  0  0  0  0  0  0  0
   58.5740   25.8030   46.8160 C   0  0  0  0  0  0  0  0  0  0  0  0
   57.6840   25.9310   45.5730 C   0  0  0  0  0  0  0  0  0  0  0  0
   56.2990   26.4330   45.9050 C   0  0  0  0  0  0  0  0  0  0  0  0
   55.4350   25.6160   46.3180 O   0  0  0  0  0  0  0  0  0  0  0  0
   55.8870   27.7780   45.6120 N   0  0  0  0  0  0  0  0  0  0  0  0
   56.6920   28.8300   45.0600 C   0  0  0  0  0  0  0  0  0  0  0  0
   58.0130   29.0480   45.4950 C   0  0  0  0  0  0  0  0  0  0  0  0
   58.7660   30.1000   44.9620 C   0  0  0  0  0  0  0  0  0  0  0  0
   58.1990   30.9540   44.0080 C   0  0  0  0  0  0  0  0  0  0  0  0
   56.8770   30.7620   43.5960 C   0  0  0  0  0  0  0  0  0  0  0  0
   56.1210   29.7110   44.1280 C   0  0  0  0  0  0  0  0  0  0  0  0
   54.8350   29.5410   43.7250 F   0  0  0  0  0  0  0  0  0  0  0  0
   58.7370   29.1550   49.7440 N   0  0  0  0  0  0  0  0  0  0  0  0
   58.6160   30.3220   50.4280 C   0  0  0  0  0  0  0  0  0  0  0  0
   57.5980   30.4590   51.3760 C   0  0  0  0  0  0  0  0  0  0  0  0
   57.4300   31.6640   52.0590 C   0  0  0  0  0  0  0  0  0  0  0  0
   58.2630   32.7560   51.7810 C   0  0  0  0  0  0  0  0  0  0  0  0
   58.0800   34.0540   52.5100 C   0  0  0  0  0  0  0  0  0  0  0  0
   59.3040   32.6190   50.8470 C   0  0  0  0  0  0  0  0  0  0  0  0
   59.5080   31.3930   50.1770 C   0  0  0  0  0  0  0  0  0  0  0  0
   59.8180   33.9730   46.7740 C   0  0  0  0  0  0  0  0  0  0  0  0
   59.5500   34.4400   45.4680 C   0  0  0  0  0  0  0  0  0  0  0  0
   58.2640   34.3180   44.9160 C   0  0  0  0  0  0  0  0  0  0  0  0
   57.2320   33.7310   45.6580 C   0  0  0  0  0  0  0  0  0  0  0  0
   57.4800   33.2830   46.9610 C   0  0  0  0  0  0  0  0  0  0  0  0
   58.7610   33.4040   47.5190 C   0  0  0  0  0  0  0  0  0  0  0  0
   63.6497   33.6769   48.1254 H   0  0  0  0  0  0  0  0  0  0  0  0
   64.3716   32.8606   46.6975 H   0  0  0  0  0  0  0  0  0  0  0  0
   64.1529   34.6435   46.6975 H   0  0  0  0  0  0  0  0  0  0  0  0
   62.2987   34.0298   45.4494 H   0  0  0  0  0  0  0  0  0  0  0  0
   62.1371   32.4385   46.3033 H   0  0  0  0  0  0  0  0  0  0  0  0
   61.4258   35.1863   47.3868 H   0  0  0  0  0  0  0  0  0  0  0  0
   61.3711   29.8466   47.7436 H   0  0  0  0  0  0  0  0  0  0  0  0
   57.6270   27.4660   47.8120 H   0  0  0  0  0  0  0  0  0  0  0  0
   59.6075   25.6048   46.4958 H   0  0  0  0  0  0  0  0  0  0  0  0
   58.1875   24.9773   47.4316 H   0  0  0  0  0  0  0  0  0  0  0  0
   58.1560   26.6348   44.8717 H   0  0  0  0  0  0  0  0  0  0  0  0
   57.5802   24.9292   45.1306 H   0  0  0  0  0  0  0  0  0  0  0  0
   58.4549   28.3889   46.2568 H   0  0  0  0  0  0  0  0  0  0  0  0
   59.8035   30.2562   45.2924 H   0  0  0  0  0  0  0  0  0  0  0  0
   58.7938   31.7759   43.5828 H   0  0  0  0  0  0  0  0  0  0  0  0
   56.4301   31.4382   42.8523 H   0  0  0  0  0  0  0  0  0  0  0  0
   56.9264   29.6131   51.5845 H   0  0  0  0  0  0  0  0  0  0  0  0
   56.6402   31.7572   52.8190 H   0  0  0  0  0  0  0  0  0  0  0  0
   58.1056   33.8722   53.5946 H   0  0  0  0  0  0  0  0  0  0  0  0
   58.8894   34.7463   52.2350 H   0  0  0  0  0  0  0  0  0  0  0  0
   57.1107   34.4955   52.2350 H   0  0  0  0  0  0  0  0  0  0  0  0
   59.9646   33.4729   50.6364 H   0  0  0  0  0  0  0  0  0  0  0  0
   60.3550   34.9030   44.8784 H   0  0  0  0  0  0  0  0  0  0  0  0
   58.0672   34.6848   43.8978 H   0  0  0  0  0  0  0  0  0  0  0  0
   56.2295   33.6221   45.2186 H   0  0  0  0  0  0  0  0  0  0  0  0
   56.6665   32.8341   47.5498 H   0  0  0  0  0  0  0  0  0  0  0  0
   58.9443   33.0530   48.5452 H   0  0  0  0  0  0  0  0  0  0  0  0
  1  2  1  0
  2  3  1  0
  3  4  1  0
  4  5  1  0
  5  6  2  0
  5  7  1  0
  7  8  2  0
  8  9  1  0
  9 10  1  0
 10 11  2  0
 10 12  1  0
 12 13  1  0
 13 14  1  0
 14 15  1  0
 15 16  2  0
 15 17  1  0
 17 18  1  0
 18 19  2  0
 19 20  1  0
 20 21  2  0
 21 22  1  0
 22 23  2  0
 23 24  1  0
  9 25  2  0
 25 26  1  0
 26 27  2  0
 27 28  1  0
 28 29  2  0
 29 30  1  0
 29 31  1  0
 31 32  2  0
  3 33  1  0
 33 34  2  0
 34 35  1  0
 35 36  2  0
 36 37  1  0
 37 38  2  0
 32  7  1  0
 38 33  1  0
 23 18  1  0
 32 26  1  0
  1 39  1  0
  1 40  1  0
  1 41  1  0
  2 42  1  0
  2 43  1  0
  3 44  1  1
  8 45  1  0
 12 46  1  0
 13 47  1  0
 13 48  1  0
 14 49  1  0
 14 50  1  0
 19 51  1  0
 20 52  1  0
 21 53  1  0
 22 54  1  0
 27 55  1  0
 28 56  1  0
 30 57  1  0
 30 58  1  0
 30 59  1  0
 31 60  1  0
 34 61  1  0
 35 62  1  0
 36 63  1  0
 37 64  1  0
 38 65  1  0
M  CHG  2   4  -1  17  -1
M  END
>  <UniqueID>  (94) 
85

>  <SMILES>  (94) 
CC[C@H]([N-]C(=O)c1cc(C(=O)NCCC(=O)[N-]c2ccccc2F)nc2ccc(C)cc12)c1ccccc1

>  <Energy>  (94) 
79.71240748895266

>  <Genealogy>  (94) 
CCC([N-]C(=O)c1cc(C(=O)NCCC(=O)[N-]c2ccccc2F)nc2ccc(C)cc12)c1ccccc1 (protonated)
CC[C@H]([N-]C(=O)c1cc(C(=O)NCCC(=O)[N-]c2ccccc2F)nc2ccc(C)cc12)c1ccccc1 (chirality)
CC[C@H]([N-]C(=O)c1cc(C(=O)NCCC(=O)[N-]c2ccccc2F)nc2ccc(C)cc12)c1ccccc1 (3D coordinates assigned)
CC[C@H]([N-]C(=O)c1cc(C(=O)NCCC(=O)[N-]c2ccccc2F)nc2ccc(C)cc12)c1ccccc1 (optimized conformer: 79.71240748895266 kcal/mol)

>  <smiles>  (94) 
CCC(NC(=O)c1cc(C(=O)NCCC(=O)Nc2ccccc2F)nc2ccc(C)cc12)c1ccccc1

>  <score_type>  (94) 
oracle

>  <origin>  (94) 
adg

>  <m_score__min__energy>  (94) 
-13.49

>  <m_primary>  (94) 
energy

$$$$
94:0
     RDKit          3D

 33 34  0  0  0  0  0  0  0  0999 V2000
   57.0170   34.0250   45.2410 C   0  0  0  0  0  0  0  0  0  0  0  0
   58.2590   34.0670   46.0690 C   0  0  0  0  0  0  0  0  0  0  0  0
   59.5210   34.2960   45.5300 C   0  0  0  0  0  0  0  0  0  0  0  0
   60.6410   34.2040   46.7800 S   0  0  0  0  0  0  0  0  0  0  0  0
   59.4760   33.8560   47.9380 C   0  0  0  0  0  0  0  0  0  0  0  0
   59.8210   33.5760   49.6750 S   0  0  0  0  0  0  0  0  0  0  0  0
   58.5150   32.3180   49.8940 C   0  0  0  0  0  0  0  0  0  0  0  0
   58.9730   30.9860   49.3950 C   0  0  0  0  0  0  0  0  0  0  0  0
   58.5790   29.9360   49.9680 O   0  0  0  0  0  0  0  0  0  0  0  0
   59.8430   30.9230   48.2570 N   0  0  0  0  0  0  0  0  0  0  0  0
   59.6180   30.1800   47.0500 C   0  0  0  0  0  0  0  0  0  0  0  0
   60.6170   29.3780   46.4680 C   0  0  0  0  0  0  0  0  0  0  0  0
   60.3630   28.6960   45.2770 C   0  0  0  0  0  0  0  0  0  0  0  0
   59.1240   28.8210   44.6440 C   0  0  0  0  0  0  0  0  0  0  0  0
   58.1330   29.6430   45.1970 C   0  0  0  0  0  0  0  0  0  0  0  0
   56.5680   29.8070   44.4080 S   0  0  0  0  0  0  0  0  0  0  0  0
   56.7090   29.3360   42.7510 N   0  0  0  0  0  0  0  0  0  0  0  0
   55.5610   28.9290   45.0960 O   0  0  0  0  0  0  0  0  0  0  0  0
   56.1000   31.2330   44.4870 O   0  0  0  0  0  0  0  0  0  0  0  0
   58.3850   30.3190   46.3990 C   0  0  0  0  0  0  0  0  0  0  0  0
   58.2360   33.8140   47.4070 N   0  0  0  0  0  0  0  0  0  0  0  0
   56.1373   33.9953   45.9008 H   0  0  0  0  0  0  0  0  0  0  0  0
   56.9690   34.9220   44.6062 H   0  0  0  0  0  0  0  0  0  0  0  0
   57.0297   33.1268   44.6062 H   0  0  0  0  0  0  0  0  0  0  0  0
   59.7460   34.5010   44.4730 H   0  0  0  0  0  0  0  0  0  0  0  0
   58.2675   32.2372   50.9628 H   0  0  0  0  0  0  0  0  0  0  0  0
   57.6294   32.6250   49.3183 H   0  0  0  0  0  0  0  0  0  0  0  0
   61.6004   29.2883   46.9527 H   0  0  0  0  0  0  0  0  0  0  0  0
   61.1418   28.0573   44.8349 H   0  0  0  0  0  0  0  0  0  0  0  0
   58.9261   28.2737   43.7106 H   0  0  0  0  0  0  0  0  0  0  0  0
   57.6950   29.5300   42.4610 H   0  0  0  0  0  0  0  0  0  0  0  0
   56.5840   28.2990   42.7150 H   0  0  0  0  0  0  0  0  0  0  0  0
   57.6080   30.9642   46.8349 H   0  0  0  0  0  0  0  0  0  0  0  0
  1  2  1  0
  2  3  2  0
  3  4  1  0
  4  5  1  0
  5  6  1  0
  6  7  1  0
  7  8  1  0
  8  9  2  0
  8 10  1  0
 10 11  1  0
 11 12  2  0
 12 13  1  0
 13 14  2  0
 14 15  1  0
 15 16  1  0
 16 17  1  0
 16 18  2  0
 16 19  2  0
 15 20  2  0
  5 21  2  0
 21  2  1  0
 20 11  1  0
  1 22  1  0
  1 23  1  0
  1 24  1  0
  3 25  1  0
  7 26  1  0
  7 27  1  0
 12 28  1  0
 13 29  1  0
 14 30  1  0
 17 31  1  0
 17 32  1  0
 20 33  1  0
M  CHG  1  10  -1
M  END
>  <UniqueID>  (95) 
86

>  <SMILES>  (95) 
Cc1csc(SCC(=O)[N-]c2cccc(S(N)(=O)=O)c2)n1

>  <Energy>  (95) 
57.410741650626214

>  <Genealogy>  (95) 
Cc1csc(SCC(=O)[N-]c2cccc(S(N)(=O)=O)c2)n1 (protonated)
Cc1csc(SCC(=O)[N-]c2cccc(S(N)(=O)=O)c2)n1 (3D coordinates assigned)
Cc1csc(SCC(=O)[N-]c2cccc(S(N)(=O)=O)c2)n1 (optimized conformer: 57.410741650626214 kcal/mol)

>  <smiles>  (95) 
Cc1csc(SCC(=O)Nc2cccc(S(N)(=O)=O)c2)n1

>  <score_type>  (95) 
oracle

>  <origin>  (95) 
adg

>  <m_score__min__energy>  (95) 
-10

>  <m_primary>  (95) 
energy

$$$$
95:0
     RDKit          3D

 64 67  0  0  0  0  0  0  0  0999 V2000
   57.4320   25.6340   46.9020 C   0  0  0  0  0  0  0  0  0  0  0  0
   58.1780   26.6170   46.1010 N   0  0  0  0  0  0  0  0  0  0  0  0
   58.5530   27.7820   46.9190 C   0  0  0  0  0  0  0  0  0  0  0  0
   57.4630   26.9930   44.8620 C   0  0  0  0  0  0  0  0  0  0  0  0
   57.1270   28.4600   44.7670 C   0  0  0  0  0  0  0  0  0  0  0  0
   56.0260   28.8700   45.2260 O   0  0  0  0  0  0  0  0  0  0  0  0
   58.0340   29.3680   44.1230 N   0  0  0  0  0  0  0  0  0  0  0  0
   58.0310   30.7970   44.3060 C   0  0  0  0  0  0  0  0  0  0  0  0
   58.0980   31.6840   43.2130 C   0  0  0  0  0  0  0  0  0  0  0  0
   58.0410   33.0670   43.4190 C   0  0  0  0  0  0  0  0  0  0  0  0
   57.8780   33.5780   44.7090 C   0  0  0  0  0  0  0  0  0  0  0  0
   57.7690   32.7050   45.8010 C   0  0  0  0  0  0  0  0  0  0  0  0
   57.5440   33.2140   47.0830 O   0  0  0  0  0  0  0  0  0  0  0  0
   58.4900   33.0910   48.1100 C   0  0  0  0  0  0  0  0  0  0  0  0
   59.7680   33.6730   47.9950 C   0  0  0  0  0  0  0  0  0  0  0  0
   60.6860   33.5580   49.0390 C   0  0  0  0  0  0  0  0  0  0  0  0
   60.3490   32.8470   50.1960 C   0  0  0  0  0  0  0  0  0  0  0  0
   59.0820   32.2480   50.3160 C   0  0  0  0  0  0  0  0  0  0  0  0
   58.6920   31.5430   51.5030 N   0  0  0  0  0  0  0  0  0  0  0  0
   57.9630   30.3050   51.5340 C   0  0  0  0  0  0  0  0  0  0  0  0
   58.3050   29.3570   50.7760 O   0  0  0  0  0  0  0  0  0  0  0  0
   56.7790   30.1580   52.4170 C   0  0  0  0  0  0  0  0  0  0  0  0
   56.9080   29.5880   53.6930 C   0  0  0  0  0  0  0  0  0  0  0  0
   55.7910   29.4450   54.5120 C   0  0  0  0  0  0  0  0  0  0  0  0
   54.5340   29.8680   54.0790 C   0  0  0  0  0  0  0  0  0  0  0  0
   54.3630   30.4560   52.8050 C   0  0  0  0  0  0  0  0  0  0  0  0
   53.0480   30.9040   52.3470 N   0  0  0  0  0  0  0  0  0  0  0  0
   52.0030   31.2280   53.3420 C   0  0  0  0  0  0  0  0  0  0  0  0
   50.6430   31.5390   52.7140 C   0  0  0  0  0  0  0  0  0  0  0  0
   50.8000   32.3340   51.5620 O   0  0  0  0  0  0  0  0  0  0  0  0
   51.3870   31.5450   50.5560 C   0  0  0  0  0  0  0  0  0  0  0  0
   52.8310   31.1690   50.9060 C   0  0  0  0  0  0  0  0  0  0  0  0
   55.5090   30.5810   51.9810 C   0  0  0  0  0  0  0  0  0  0  0  0
   58.1490   32.4000   49.2800 C   0  0  0  0  0  0  0  0  0  0  0  0
   57.8630   31.3200   45.6000 C   0  0  0  0  0  0  0  0  0  0  0  0
   57.5874   25.8388   47.9715 H   0  0  0  0  0  0  0  0  0  0  0  0
   56.3600   25.7071   46.6667 H   0  0  0  0  0  0  0  0  0  0  0  0
   57.7908   24.6212   46.6667 H   0  0  0  0  0  0  0  0  0  0  0  0
   58.4698   27.5236   47.9850 H   0  0  0  0  0  0  0  0  0  0  0  0
   59.5896   28.0713   46.6916 H   0  0  0  0  0  0  0  0  0  0  0  0
   57.8798   28.6217   46.6916 H   0  0  0  0  0  0  0  0  0  0  0  0
   58.0968   26.7273   44.0031 H   0  0  0  0  0  0  0  0  0  0  0  0
   56.5074   26.4482   44.8690 H   0  0  0  0  0  0  0  0  0  0  0  0
   58.7190   28.9670   43.4450 H   0  0  0  0  0  0  0  0  0  0  0  0
   58.1957   31.2869   42.1918 H   0  0  0  0  0  0  0  0  0  0  0  0
   58.1247   33.7532   42.5634 H   0  0  0  0  0  0  0  0  0  0  0  0
   57.8351   34.6656   44.8682 H   0  0  0  0  0  0  0  0  0  0  0  0
   60.0423   34.2190   47.0803 H   0  0  0  0  0  0  0  0  0  0  0  0
   61.6771   34.0273   48.9525 H   0  0  0  0  0  0  0  0  0  0  0  0
   61.0777   32.7561   51.0149 H   0  0  0  0  0  0  0  0  0  0  0  0
   57.8942   29.2533   54.0471 H   0  0  0  0  0  0  0  0  0  0  0  0
   55.9007   28.9944   55.5095 H   0  0  0  0  0  0  0  0  0  0  0  0
   53.6630   29.7420   54.7389 H   0  0  0  0  0  0  0  0  0  0  0  0
   51.8866   30.3682   54.0182 H   0  0  0  0  0  0  0  0  0  0  0  0
   52.3302   32.1335   53.8740 H   0  0  0  0  0  0  0  0  0  0  0  0
   50.1479   30.5962   52.4381 H   0  0  0  0  0  0  0  0  0  0  0  0
   50.0321   32.0894   53.4446 H   0  0  0  0  0  0  0  0  0  0  0  0
   50.7975   30.6242   50.4347 H   0  0  0  0  0  0  0  0  0  0  0  0
   51.3993   32.1286   49.6237 H   0  0  0  0  0  0  0  0  0  0  0  0
   53.0996   30.2632   50.3426 H   0  0  0  0  0  0  0  0  0  0  0  0
   53.4596   32.0320   50.6411 H   0  0  0  0  0  0  0  0  0  0  0  0
   55.4039   31.0187   50.9773 H   0  0  0  0  0  0  0  0  0  0  0  0
   57.1409   31.9730   49.3870 H   0  0  0  0  0  0  0  0  0  0  0  0
   57.8048   30.6381   46.4612 H   0  0  0  0  0  0  0  0  0  0  0  0
  1  2  1  0
  2  3  1  0
  2  4  1  0
  4  5  1  0
  5  6  2  0
  5  7  1  0
  7  8  1  0
  8  9  2  0
  9 10  1  0
 10 11  2  0
 11 12  1  0
 12 13  1  0
 13 14  1  0
 14 15  2  0
 15 16  1  0
 16 17  2  0
 17 18  1  0
 18 19  1  0
 19 20  1  0
 20 21  2  0
 20 22  1  0
 22 23  2  0
 23 24  1  0
 24 25  2  0
 25 26  1  0
 26 27  1  0
 27 28  1  0
 28 29  1  0
 29 30  1  0
 30 31  1  0
 31 32  1  0
 26 33  2  0
 18 34  2  0
 12 35  2  0
 35  8  1  0
 34 14  1  0
 33 22  1  0
 32 27  1  0
  1 36  1  0
  1 37  1  0
  1 38  1  0
  3 39  1  0
  3 40  1  0
  3 41  1  0
  4 42  1  0
  4 43  1  0
  7 44  1  0
  9 45  1  0
 10 46  1  0
 11 47  1  0
 15 48  1  0
 16 49  1  0
 17 50  1  0
 23 51  1  0
 24 52  1  0
 25 53  1  0
 28 54  1  0
 28 55  1  0
 29 56  1  0
 29 57  1  0
 31 58  1  0
 31 59  1  0
 32 60  1  0
 32 61  1  0
 33 62  1  0
 34 63  1  0
 35 64  1  0
M  CHG  1  19  -1
M  END
>  <UniqueID>  (96) 
87

>  <SMILES>  (96) 
CN(C)CC(=O)Nc1cccc(Oc2cccc([N-]C(=O)c3cccc(N4CCOCC4)c3)c2)c1

>  <Energy>  (96) 
94.24586275737869

>  <Genealogy>  (96) 
CN(C)CC(=O)Nc1cccc(Oc2cccc([N-]C(=O)c3cccc(N4CCOCC4)c3)c2)c1 (protonated)
CN(C)CC(=O)Nc1cccc(Oc2cccc([N-]C(=O)c3cccc(N4CCOCC4)c3)c2)c1 (3D coordinates assigned)
CN(C)CC(=O)Nc1cccc(Oc2cccc([N-]C(=O)c3cccc(N4CCOCC4)c3)c2)c1 (nonaromatic ring conformer: 94.24586275737869 kcal/mol)

>  <smiles>  (96) 
CN(C)CC(=O)Nc1cccc(Oc2cccc(NC(=O)c3cccc(N4CCOCC4)c3)c2)c1

>  <score_type>  (96) 
oracle

>  <origin>  (96) 
adg

>  <m_score__min__energy>  (96) 
-10.84

>  <m_primary>  (96) 
energy

$$$$
