0:0
     RDKit          3D

 37 38  0  0  0  0  0  0  0  0999 V2000
   57.8480   25.1630   45.9350 H   0  0  0  0  0  0  0  0  0  0  0  0
   58.8300   25.1480   46.1820 O   0  0  0  0  0  0  0  0  0  0  0  0
   59.4610   26.3090   46.5600 N   0  0  0  0  0  0  0  0  0  0  0  0
   59.1160   27.4450   46.0430 C   0  0  0  0  0  0  0  0  0  0  0  0
   59.8847   28.0798   45.5781 H   0  0  0  0  0  0  0  0  0  0  0  0
   57.6840   27.9170   46.0640 C   0  0  2  0  0  0  0  0  0  0  0  0
   57.3950   28.0084   47.1214 H   0  0  0  0  0  0  0  0  0  0  0  0
   56.7720   26.9630   45.4330 N   0  0  0  0  0  0  0  0  0  0  0  0
   55.8710   26.1190   46.1620 C   0  0  0  0  0  0  0  0  0  0  0  0
   56.2650   25.5040   47.1880 O   0  0  0  0  0  0  0  0  0  0  0  0
   54.5160   25.9670   45.7330 N   0  0  0  0  0  0  0  0  0  0  0  0
   53.9030   24.6780   45.4230 C   0  0  0  0  0  0  0  0  0  0  0  0
   53.4100   24.2881   46.3257 H   0  0  0  0  0  0  0  0  0  0  0  0
   53.1705   24.8242   44.6155 H   0  0  0  0  0  0  0  0  0  0  0  0
   54.9370   23.6840   44.9580 C   0  0  0  0  0  0  0  0  0  0  0  0
   55.3870   23.6960   43.6260 C   0  0  0  0  0  0  0  0  0  0  0  0
   54.9733   24.4260   42.9146 H   0  0  0  0  0  0  0  0  0  0  0  0
   56.3580   22.7840   43.2020 C   0  0  0  0  0  0  0  0  0  0  0  0
   56.6969   22.7885   42.1555 H   0  0  0  0  0  0  0  0  0  0  0  0
   56.8980   21.8670   44.1070 C   0  0  0  0  0  0  0  0  0  0  0  0
   57.6609   21.1490   43.7716 H   0  0  0  0  0  0  0  0  0  0  0  0
   56.4710   21.8600   45.4370 C   0  0  0  0  0  0  0  0  0  0  0  0
   56.9028   21.1413   46.1490 H   0  0  0  0  0  0  0  0  0  0  0  0
   55.4950   22.7660   45.8640 C   0  0  0  0  0  0  0  0  0  0  0  0
   55.1629   22.7601   46.9127 H   0  0  0  0  0  0  0  0  0  0  0  0
   57.5620   29.2620   45.3760 C   0  0  0  0  0  0  0  0  0  0  0  0
   58.7030   30.0870   45.2990 C   0  0  0  0  0  0  0  0  0  0  0  0
   59.6537   29.7418   45.7316 H   0  0  0  0  0  0  0  0  0  0  0  0
   58.6400   31.3370   44.6800 C   0  0  0  0  0  0  0  0  0  0  0  0
   59.5385   31.9695   44.6281 H   0  0  0  0  0  0  0  0  0  0  0  0
   57.4420   31.7850   44.1280 C   0  0  0  0  0  0  0  0  0  0  0  0
   57.3955   32.7704   43.6414 H   0  0  0  0  0  0  0  0  0  0  0  0
   56.3020   30.9850   44.1920 C   0  0  0  0  0  0  0  0  0  0  0  0
   55.3594   31.3442   43.7534 H   0  0  0  0  0  0  0  0  0  0  0  0
   56.3450   29.7290   44.8090 C   0  0  0  0  0  0  0  0  0  0  0  0
   55.1670   28.9780   44.8330 O   0  0  0  0  0  0  0  0  0  0  0  0
   55.1420   27.9780   44.9700 H   0  0  0  0  0  0  0  0  0  0  0  0
  1  2  1  0
  2  3  1  0
  3  4  2  0
  4  5  1  0
  4  6  1  0
  6  7  1  1
  6  8  1  0
  8  9  1  0
  9 10  2  0
  9 11  1  0
 11 12  1  0
 12 13  1  0
 12 14  1  0
 12 15  1  0
 15 16  2  0
 16 17  1  0
 16 18  1  0
 18 19  1  0
 18 20  2  0
 20 21  1  0
 20 22  1  0
 22 23  1  0
 22 24  2  0
 24 25  1  0
  6 26  1  0
 26 27  2  0
 27 28  1  0
 27 29  1  0
 29 30  1  0
 29 31  2  0
 31 32  1  0
 31 33  1  0
 33 34  1  0
 33 35  2  0
 35 36  1  0
 36 37  1  0
 24 15  1  0
 35 26  1  0
M  CHG  2   8  -1  11  -1
M  END
>  <UniqueID>  (1) 
1

>  <SMILES>  (1) 
O=C([N-]Cc1ccccc1)[N-][C@@H](/C=N/O)c1ccccc1O

>  <Energy>  (1) 
32.96848678769896

>  <Genealogy>  (1) 
O=C([N-]Cc1ccccc1)[N-]C(C=NO)c1ccccc1O (protonated)
O=C([N-]Cc1ccccc1)[N-][C@@H](C=NO)c1ccccc1O (chirality)
O=C([N-]Cc1ccccc1)[N-][C@@H](/C=N/O)c1ccccc1O (cis-trans isomerization)
O=C([N-]Cc1ccccc1)[N-][C@@H](/C=N/O)c1ccccc1O (3D coordinates assigned)
O=C([N-]Cc1ccccc1)[N-][C@@H](/C=N/O)c1ccccc1O (optimized conformer: 32.96848678769896 kcal/mol)

>  <smiles>  (1) 
O=C(NCc1ccccc1)NC(C=NO)c1ccccc1O

>  <score_type>  (1) 
oracle

>  <origin>  (1) 
adg

>  <m_score__min__energy>  (1) 
-11.59

>  <m_primary>  (1) 
energy

$$$$
1:0
     RDKit          3D

 34 36  0  0  0  0  0  0  0  0999 V2000
   55.1470   29.3610   44.8470 N   0  0  0  0  0  0  0  0  0  0  0  0
   56.6460   30.1040   44.4180 S   0  0  0  0  0  0  0  0  0  0  0  0
   56.6800   31.5100   44.9480 O   0  0  0  0  0  0  0  0  0  0  0  0
   56.7690   30.1510   42.9210 O   0  0  0  0  0  0  0  0  0  0  0  0
   57.9800   29.1780   45.1000 C   0  0  0  0  0  0  0  0  0  0  0  0
   59.2400   29.7680   45.2600 C   0  0  0  0  0  0  0  0  0  0  0  0
   60.2960   29.0280   45.7990 C   0  0  0  0  0  0  0  0  0  0  0  0
   60.1040   27.6950   46.1690 C   0  0  0  0  0  0  0  0  0  0  0  0
   58.8510   27.0820   45.9850 C   0  0  0  0  0  0  0  0  0  0  0  0
   58.6200   25.7180   46.3750 N   0  0  0  0  0  0  0  0  0  0  0  0
   57.3150   25.1360   46.5280 C   0  0  0  0  0  0  0  0  0  0  0  0
   56.3090   25.8740   46.7060 O   0  0  0  0  0  0  0  0  0  0  0  0
   57.1500   23.6710   46.6110 C   0  0  0  0  0  0  0  0  0  0  0  0
   57.1910   23.1010   47.8450 N   0  0  0  0  0  0  0  0  0  0  0  0
   57.1070   21.7840   48.0240 N   0  0  0  0  0  0  0  0  0  0  0  0
   56.9740   20.9300   46.9800 C   0  0  0  0  0  0  0  0  0  0  0  0
   56.9110   19.6900   47.2040 O   0  0  0  0  0  0  0  0  0  0  0  0
   56.9010   21.4380   45.6740 C   0  0  0  0  0  0  0  0  0  0  0  0
   56.7400   20.5850   44.5660 C   0  0  0  0  0  0  0  0  0  0  0  0
   56.6240   21.1150   43.2790 C   0  0  0  0  0  0  0  0  0  0  0  0
   56.6540   22.4940   43.0850 C   0  0  0  0  0  0  0  0  0  0  0  0
   56.8180   23.3550   44.1730 C   0  0  0  0  0  0  0  0  0  0  0  0
   56.9730   22.8400   45.4790 C   0  0  0  0  0  0  0  0  0  0  0  0
   57.7890   27.8380   45.4630 C   0  0  0  0  0  0  0  0  0  0  0  0
   55.3460   28.7100   45.6400 H   0  0  0  0  0  0  0  0  0  0  0  0
   59.3987   30.8147   44.9612 H   0  0  0  0  0  0  0  0  0  0  0  0
   61.2820   29.4971   45.9323 H   0  0  0  0  0  0  0  0  0  0  0  0
   60.9354   27.1223   46.6058 H   0  0  0  0  0  0  0  0  0  0  0  0
   59.4460   25.1310   46.6340 H   0  0  0  0  0  0  0  0  0  0  0  0
   56.7054   19.4956   44.7144 H   0  0  0  0  0  0  0  0  0  0  0  0
   56.5087   20.4419   42.4167 H   0  0  0  0  0  0  0  0  0  0  0  0
   56.5481   22.9069   42.0709 H   0  0  0  0  0  0  0  0  0  0  0  0
   56.8265   24.4430   44.0111 H   0  0  0  0  0  0  0  0  0  0  0  0
   56.7992   27.3747   45.3380 H   0  0  0  0  0  0  0  0  0  0  0  0
  1  2  1  0
  2  3  2  0
  2  4  2  0
  2  5  1  0
  5  6  2  0
  6  7  1  0
  7  8  2  0
  8  9  1  0
  9 10  1  0
 10 11  1  0
 11 12  2  0
 11 13  1  0
 13 14  2  0
 14 15  1  0
 15 16  1  0
 16 17  2  0
 16 18  1  0
 18 19  2  0
 19 20  1  0
 20 21  2  0
 21 22  1  0
 22 23  2  0
  9 24  2  0
 24  5  1  0
 23 13  1  0
 23 18  1  0
  1 25  1  0
  6 26  1  0
  7 27  1  0
  8 28  1  0
 10 29  1  0
 19 30  1  0
 20 31  1  0
 21 32  1  0
 22 33  1  0
 24 34  1  0
M  CHG  2   1  -1  15  -1
M  END
>  <UniqueID>  (2) 
2

>  <SMILES>  (2) 
[NH-]S(=O)(=O)c1cccc(NC(=O)c2n[n-]c(=O)c3ccccc23)c1

>  <Energy>  (2) 
52.04293793044405

>  <Genealogy>  (2) 
[NH-]S(=O)(=O)c1cccc(NC(=O)c2n[n-]c(=O)c3ccccc23)c1 (protonated)
[NH-]S(=O)(=O)c1cccc(NC(=O)c2n[n-]c(=O)c3ccccc23)c1 (3D coordinates assigned)
[NH-]S(=O)(=O)c1cccc(NC(=O)c2n[n-]c(=O)c3ccccc23)c1 (optimized conformer: 52.04293793044405 kcal/mol)

>  <smiles>  (2) 
NS(=O)(=O)c1cccc(NC(=O)c2n[nH]c(=O)c3ccccc23)c1

>  <score_type>  (2) 
oracle

>  <origin>  (2) 
adg

>  <m_score__min__energy>  (2) 
-12.93

>  <m_primary>  (2) 
energy

$$$$
2:0
     RDKit          3D

 27 29  0  0  0  0  0  0  0  0999 V2000
   57.6440   32.4490   41.4100 O   0  0  0  0  0  0  0  0  0  0  0  0
   57.3800   31.7300   42.4100 C   0  0  0  0  0  0  0  0  0  0  0  0
   56.6350   30.4690   42.2250 C   0  0  0  0  0  0  0  0  0  0  0  0
   56.3400   29.6840   43.2670 C   0  0  0  0  0  0  0  0  0  0  0  0
   56.7490   30.0560   44.6350 C   0  0  0  0  0  0  0  0  0  0  0  0
   56.4610   29.3030   45.6020 O   0  0  0  0  0  0  0  0  0  0  0  0
   57.4960   31.3080   44.8600 C   0  0  0  0  0  0  0  0  0  0  0  0
   57.8800   31.6650   46.1140 N   0  0  0  0  0  0  0  0  0  0  0  0
   58.5720   32.8110   46.3800 C   0  0  0  0  0  0  0  0  0  0  0  0
   58.9490   33.1110   47.7990 C   0  0  0  0  0  0  0  0  0  0  0  0
   59.7570   34.2350   48.0790 C   0  0  0  0  0  0  0  0  0  0  0  0
   60.1270   34.5440   49.3910 C   0  0  0  0  0  0  0  0  0  0  0  0
   59.6990   33.7420   50.4480 C   0  0  0  0  0  0  0  0  0  0  0  0
   58.9010   32.6270   50.1950 C   0  0  0  0  0  0  0  0  0  0  0  0
   58.5260   32.3100   48.8860 C   0  0  0  0  0  0  0  0  0  0  0  0
   58.9000   33.6610   45.3020 C   0  0  0  0  0  0  0  0  0  0  0  0
   58.5160   33.3180   44.0040 C   0  0  0  0  0  0  0  0  0  0  0  0
   57.8070   32.1340   43.7690 C   0  0  0  0  0  0  0  0  0  0  0  0
   56.3177   30.1705   41.2149 H   0  0  0  0  0  0  0  0  0  0  0  0
   55.7851   28.7487   43.1019 H   0  0  0  0  0  0  0  0  0  0  0  0
   60.0998   34.8760   47.2534 H   0  0  0  0  0  0  0  0  0  0  0  0
   60.7579   35.4228   49.5902 H   0  0  0  0  0  0  0  0  0  0  0  0
   59.9903   33.9884   51.4797 H   0  0  0  0  0  0  0  0  0  0  0  0
   58.5649   31.9937   51.0293 H   0  0  0  0  0  0  0  0  0  0  0  0
   57.8953   31.4284   48.6991 H   0  0  0  0  0  0  0  0  0  0  0  0
   59.4571   34.5919   45.4840 H   0  0  0  0  0  0  0  0  0  0  0  0
   58.7714   33.9802   43.1636 H   0  0  0  0  0  0  0  0  0  0  0  0
  1  2  2  0
  2  3  1  0
  3  4  2  0
  4  5  1  0
  5  6  2  0
  5  7  1  0
  7  8  2  0
  8  9  1  0
  9 10  1  0
 10 11  2  0
 11 12  1  0
 12 13  2  0
 13 14  1  0
 14 15  2  0
  9 16  2  0
 16 17  1  0
 17 18  2  0
 18  2  1  0
 18  7  1  0
 15 10  1  0
  3 19  1  0
  4 20  1  0
 11 21  1  0
 12 22  1  0
 13 23  1  0
 14 24  1  0
 15 25  1  0
 16 26  1  0
 17 27  1  0
M  END
>  <UniqueID>  (3) 
3

>  <SMILES>  (3) 
O=C1C=CC(=O)c2nc(-c3ccccc3)ccc21

>  <Energy>  (3) 
35.21642570264478

>  <Genealogy>  (3) 
O=C1C=CC(=O)c2nc(-c3ccccc3)ccc21 (3D coordinates assigned)
O=C1C=CC(=O)c2nc(-c3ccccc3)ccc21 (nonaromatic ring conformer: 35.21642570264478 kcal/mol)

>  <smiles>  (3) 
O=C1C=CC(=O)c2nc(-c3ccccc3)ccc21

>  <score_type>  (3) 
oracle

>  <origin>  (3) 
adg

>  <m_score__min__energy>  (3) 
-7.4000000000000004

>  <m_primary>  (3) 
energy

$$$$
3:0
     RDKit          3D

 30 31  0  0  0  0  0  0  0  0999 V2000
   60.0910   27.4640   46.9740 N   0  0  0  0  0  0  0  0  0  0  0  0
   58.7370   27.5140   46.4880 C   0  0  0  0  0  0  0  0  0  0  0  0
   57.8990   26.4420   46.8000 C   0  0  0  0  0  0  0  0  0  0  0  0
   56.5910   26.4480   46.3470 C   0  0  0  0  0  0  0  0  0  0  0  0
   55.8250   25.4850   46.6190 O   0  0  0  0  0  0  0  0  0  0  0  0
   56.1390   27.4930   45.6140 N   0  0  0  0  0  0  0  0  0  0  0  0
   56.9430   28.5470   45.3040 C   0  0  0  0  0  0  0  0  0  0  0  0
   56.2840   29.7630   44.4040 S   0  0  0  0  0  0  0  0  0  0  0  0
   58.2590   28.5740   45.7380 N   0  0  0  0  0  0  0  0  0  0  0  0
   59.1610   29.6980   45.3850 C   0  0  0  0  0  0  0  0  0  0  0  0
   59.2900   30.7080   46.5390 C   0  0  0  0  0  0  0  0  0  0  0  0
   59.1330   32.1270   46.0610 C   0  0  0  0  0  0  0  0  0  0  0  0
   60.0620   33.1100   46.4440 C   0  0  0  0  0  0  0  0  0  0  0  0
   59.8910   34.4360   46.0350 C   0  0  0  0  0  0  0  0  0  0  0  0
   58.7910   34.7910   45.2480 C   0  0  0  0  0  0  0  0  0  0  0  0
   57.8590   33.8210   44.8700 C   0  0  0  0  0  0  0  0  0  0  0  0
   58.0270   32.4930   45.2750 C   0  0  0  0  0  0  0  0  0  0  0  0
   60.4300   27.9800   47.8130 H   0  0  0  0  0  0  0  0  0  0  0  0
   60.8070   26.8960   46.4690 H   0  0  0  0  0  0  0  0  0  0  0  0
   58.2746   25.6003   47.4003 H   0  0  0  0  0  0  0  0  0  0  0  0
   55.1460   27.4790   45.2820 H   0  0  0  0  0  0  0  0  0  0  0  0
   60.1575   29.2954   45.1505 H   0  0  0  0  0  0  0  0  0  0  0  0
   58.7333   30.2215   44.5172 H   0  0  0  0  0  0  0  0  0  0  0  0
   58.5112   30.4959   47.2864 H   0  0  0  0  0  0  0  0  0  0  0  0
   60.2949   30.6032   46.9740 H   0  0  0  0  0  0  0  0  0  0  0  0
   60.9258   32.8352   47.0672 H   0  0  0  0  0  0  0  0  0  0  0  0
   60.6230   35.2012   46.3328 H   0  0  0  0  0  0  0  0  0  0  0  0
   58.6593   35.8346   44.9263 H   0  0  0  0  0  0  0  0  0  0  0  0
   56.9925   34.1021   44.2534 H   0  0  0  0  0  0  0  0  0  0  0  0
   57.2906   31.7320   44.9772 H   0  0  0  0  0  0  0  0  0  0  0  0
  1  2  1  0
  2  3  2  0
  3  4  1  0
  4  5  2  0
  4  6  1  0
  6  7  1  0
  7  8  2  0
  7  9  1  0
  9 10  1  0
 10 11  1  0
 11 12  1  0
 12 13  2  0
 13 14  1  0
 14 15  2  0
 15 16  1  0
 16 17  2  0
  9  2  1  0
 17 12  1  0
  1 18  1  0
  1 19  1  0
  3 20  1  0
  6 21  1  0
 10 22  1  0
 10 23  1  0
 11 24  1  0
 11 25  1  0
 13 26  1  0
 14 27  1  0
 15 28  1  0
 16 29  1  0
 17 30  1  0
M  END
>  <UniqueID>  (4) 
4

>  <SMILES>  (4) 
Nc1cc(=O)[nH]c(=S)n1CCc1ccccc1

>  <Energy>  (4) 
35.69091444814215

>  <Genealogy>  (4) 
Nc1cc(=O)[nH]c(=S)n1CCc1ccccc1 (3D coordinates assigned)
Nc1cc(=O)[nH]c(=S)n1CCc1ccccc1 (optimized conformer: 35.69091444814215 kcal/mol)

>  <smiles>  (4) 
Nc1cc(=O)[nH]c(=S)n1CCc1ccccc1

>  <score_type>  (4) 
oracle

>  <origin>  (4) 
adg

>  <m_score__min__energy>  (4) 
-6.3799999999999999

>  <m_primary>  (4) 
energy

$$$$
4:0
     RDKit          3D

 58 61  0  0  0  0  0  0  0  0999 V2000
   65.1400   32.7420   49.6820 C   0  0  0  0  0  0  0  0  0  0  0  0
   64.0900   33.5730   49.2030 O   0  0  0  0  0  0  0  0  0  0  0  0
   62.7310   33.2360   49.2610 C   0  0  0  0  0  0  0  0  0  0  0  0
   62.0550   32.9750   48.0640 C   0  0  0  0  0  0  0  0  0  0  0  0
   60.6960   32.6630   48.0660 C   0  0  0  0  0  0  0  0  0  0  0  0
   59.9870   32.5840   49.2730 C   0  0  0  0  0  0  0  0  0  0  0  0
   58.5000   32.3040   49.2350 C   0  0  0  0  0  0  0  0  0  0  0  0
   58.1340   31.0200   49.8560 N   0  0  0  0  0  0  0  0  0  0  0  0
   58.6500   29.7730   49.2620 C   0  0  0  0  0  0  0  0  0  0  0  0
   58.9030   29.9080   47.7450 C   0  0  0  0  0  0  0  0  0  0  0  0
   57.9160   29.1090   46.8680 C   0  0  0  0  0  0  0  0  0  0  0  0
   57.5930   29.8050   45.5660 C   0  0  0  0  0  0  0  0  0  0  0  0
   58.4340   30.8380   45.1160 C   0  0  0  0  0  0  0  0  0  0  0  0
   58.1450   31.5250   43.9350 C   0  0  0  0  0  0  0  0  0  0  0  0
   57.0120   31.1920   43.1940 C   0  0  0  0  0  0  0  0  0  0  0  0
   56.1640   30.1730   43.6340 C   0  0  0  0  0  0  0  0  0  0  0  0
   56.4430   29.4830   44.8180 C   0  0  0  0  0  0  0  0  0  0  0  0
   55.5680   28.4920   45.2460 O   0  0  0  0  0  0  0  0  0  0  0  0
   57.4660   30.9570   51.1420 C   0  0  0  0  0  0  0  0  0  0  0  0
   58.1790   31.0120   52.3560 C   0  0  0  0  0  0  0  0  0  0  0  0
   57.4670   30.9730   53.5530 C   0  0  0  0  0  0  0  0  0  0  0  0
   56.1120   30.8850   53.5350 N   0  0  0  0  0  0  0  0  0  0  0  0
   55.4240   30.8220   52.3620 C   0  0  0  0  0  0  0  0  0  0  0  0
   53.9420   30.7390   52.3610 C   0  0  0  0  0  0  0  0  0  0  0  0
   53.2860   29.6220   52.9160 C   0  0  0  0  0  0  0  0  0  0  0  0
   51.8910   29.5420   52.9040 C   0  0  0  0  0  0  0  0  0  0  0  0
   51.1360   30.5710   52.3350 C   0  0  0  0  0  0  0  0  0  0  0  0
   51.7720   31.6840   51.7780 C   0  0  0  0  0  0  0  0  0  0  0  0
   51.0190   32.7050   51.2100 O   0  0  0  0  0  0  0  0  0  0  0  0
   53.1670   31.7700   51.7910 C   0  0  0  0  0  0  0  0  0  0  0  0
   56.1080   30.8540   51.1860 N   0  0  0  0  0  0  0  0  0  0  0  0
   60.6650   32.8460   50.4770 C   0  0  0  0  0  0  0  0  0  0  0  0
   62.0270   33.1610   50.4720 C   0  0  0  0  0  0  0  0  0  0  0  0
   65.1368   32.7445   50.7820 H   0  0  0  0  0  0  0  0  0  0  0  0
   64.9903   31.7151   49.3173 H   0  0  0  0  0  0  0  0  0  0  0  0
   66.1050   33.1236   49.3173 H   0  0  0  0  0  0  0  0  0  0  0  0
   62.6019   33.0164   47.1105 H   0  0  0  0  0  0  0  0  0  0  0  0
   60.1767   32.4776   47.1142 H   0  0  0  0  0  0  0  0  0  0  0  0
   57.9787   33.1117   49.7696 H   0  0  0  0  0  0  0  0  0  0  0  0
   58.2051   32.2503   48.1766 H   0  0  0  0  0  0  0  0  0  0  0  0
   59.5969   29.5108   49.7567 H   0  0  0  0  0  0  0  0  0  0  0  0
   57.8905   28.9909   49.4084 H   0  0  0  0  0  0  0  0  0  0  0  0
   58.8226   30.9712   47.4747 H   0  0  0  0  0  0  0  0  0  0  0  0
   59.9042   29.4952   47.5524 H   0  0  0  0  0  0  0  0  0  0  0  0
   58.3612   28.1290   46.6415 H   0  0  0  0  0  0  0  0  0  0  0  0
   56.9770   29.0103   47.4323 H   0  0  0  0  0  0  0  0  0  0  0  0
   59.3270   31.1073   45.6991 H   0  0  0  0  0  0  0  0  0  0  0  0
   58.8114   32.3290   43.5894 H   0  0  0  0  0  0  0  0  0  0  0  0
   56.7858   31.7318   42.2627 H   0  0  0  0  0  0  0  0  0  0  0  0
   55.2718   29.9118   43.0460 H   0  0  0  0  0  0  0  0  0  0  0  0
   59.2766   31.0843   52.3587 H   0  0  0  0  0  0  0  0  0  0  0  0
   58.0026   31.0135   54.5129 H   0  0  0  0  0  0  0  0  0  0  0  0
   53.8761   28.8076   53.3616 H   0  0  0  0  0  0  0  0  0  0  0  0
   51.3868   28.6684   53.3428 H   0  0  0  0  0  0  0  0  0  0  0  0
   50.0380   30.5049   52.3254 H   0  0  0  0  0  0  0  0  0  0  0  0
   53.6640   32.6484   51.3534 H   0  0  0  0  0  0  0  0  0  0  0  0
   60.1189   32.8027   51.4309 H   0  0  0  0  0  0  0  0  0  0  0  0
   62.5488   33.3508   51.4216 H   0  0  0  0  0  0  0  0  0  0  0  0
  1  2  1  0
  2  3  1  0
  3  4  2  0
  4  5  1  0
  5  6  2  0
  6  7  1  0
  7  8  1  0
  8  9  1  0
  9 10  1  0
 10 11  1  0
 11 12  1  0
 12 13  2  0
 13 14  1  0
 14 15  2  0
 15 16  1  0
 16 17  2  0
 17 18  1  0
  8 19  1  0
 19 20  2  0
 20 21  1  0
 21 22  2  0
 22 23  1  0
 23 24  1  0
 24 25  2  0
 25 26  1  0
 26 27  2  0
 27 28  1  0
 28 29  1  0
 28 30  2  0
 23 31  2  0
  6 32  1  0
 32 33  2  0
 33  3  1  0
 17 12  1  0
 31 19  1  0
 30 24  1  0
  1 34  1  0
  1 35  1  0
  1 36  1  0
  4 37  1  0
  5 38  1  0
  7 39  1  0
  7 40  1  0
  9 41  1  0
  9 42  1  0
 10 43  1  0
 10 44  1  0
 11 45  1  0
 11 46  1  0
 13 47  1  0
 14 48  1  0
 15 49  1  0
 16 50  1  0
 20 51  1  0
 21 52  1  0
 25 53  1  0
 26 54  1  0
 27 55  1  0
 30 56  1  0
 32 57  1  0
 33 58  1  0
M  CHG  2  18  -1  29  -1
M  END
>  <UniqueID>  (5) 
5

>  <SMILES>  (5) 
COc1ccc(CN(CCCc2ccccc2[O-])c2ccnc(-c3cccc([O-])c3)n2)cc1

>  <Energy>  (5) 
62.84466898073879

>  <Genealogy>  (5) 
COc1ccc(CN(CCCc2ccccc2[O-])c2ccnc(-c3cccc([O-])c3)n2)cc1 (protonated)
COc1ccc(CN(CCCc2ccccc2[O-])c2ccnc(-c3cccc([O-])c3)n2)cc1 (3D coordinates assigned)
COc1ccc(CN(CCCc2ccccc2[O-])c2ccnc(-c3cccc([O-])c3)n2)cc1 (optimized conformer: 62.84466898073879 kcal/mol)

>  <smiles>  (5) 
COc1ccc(CN(CCCc2ccccc2O)c2ccnc(-c3cccc(O)c3)n2)cc1

>  <score_type>  (5) 
oracle

>  <origin>  (5) 
adg

>  <m_score__min__energy>  (5) 
-15.99

>  <m_primary>  (5) 
energy

$$$$
5:0
     RDKit          3D

 36 39  0  0  0  0  0  0  0  0999 V2000
   54.1740   25.5910   46.3570 H   0  0  0  0  0  0  0  0  0  0  0  0
   54.6450   26.3160   45.8290 O   0  0  0  0  0  0  0  0  0  0  0  0
   55.9920   26.5860   46.0440 C   0  0  0  0  0  0  0  0  0  0  0  0
   56.7990   25.8120   46.7960 N   0  0  0  0  0  0  0  0  0  0  0  0
   57.9970   26.4350   46.7830 C   0  0  0  0  0  0  0  0  0  0  0  0
   58.8937   26.0654   47.3020 H   0  0  0  0  0  0  0  0  0  0  0  0
   57.9530   27.5970   46.0340 C   0  0  0  0  0  0  0  0  0  0  0  0
   58.7704   28.3149   45.8711 H   0  0  0  0  0  0  0  0  0  0  0  0
   56.6690   27.6670   45.5340 C   0  0  0  0  0  0  0  0  0  0  0  0
   56.0650   28.7680   44.8410 N   0  0  0  0  0  0  0  0  0  0  0  0
   56.6260   29.8840   44.4670 C   0  0  0  0  0  0  0  0  0  0  0  0
   57.0750   30.7370   45.4390 N   0  0  0  0  0  0  0  0  0  0  0  0
   57.6520   31.9090   45.0810 C   0  0  0  0  0  0  0  0  0  0  0  0
   57.8070   32.2870   43.7860 C   0  0  0  0  0  0  0  0  0  0  0  0
   58.4290   33.4790   43.7130 N   0  0  0  0  0  0  0  0  0  0  0  0
   58.6340   33.7800   45.0230 C   0  0  0  0  0  0  0  0  0  0  0  0
   59.2180   34.8330   45.3940 O   0  0  0  0  0  0  0  0  0  0  0  0
   58.1600   32.8480   45.8890 N   0  0  0  0  0  0  0  0  0  0  0  0
   58.2880   32.8110   47.3450 C   0  0  0  0  0  0  0  0  0  0  0  0
   57.6714   33.6086   47.7852 H   0  0  0  0  0  0  0  0  0  0  0  0
   57.9488   31.8312   47.7122 H   0  0  0  0  0  0  0  0  0  0  0  0
   59.7240   33.0160   47.7410 C   0  0  0  0  0  0  0  0  0  0  0  0
   60.0670   34.0190   48.6640 C   0  0  0  0  0  0  0  0  0  0  0  0
   59.2793   34.6342   49.1234 H   0  0  0  0  0  0  0  0  0  0  0  0
   61.4070   34.2370   49.0000 C   0  0  0  0  0  0  0  0  0  0  0  0
   61.6702   35.0167   49.7299 H   0  0  0  0  0  0  0  0  0  0  0  0
   62.4120   33.4660   48.4100 C   0  0  0  0  0  0  0  0  0  0  0  0
   63.4652   33.6378   48.6771 H   0  0  0  0  0  0  0  0  0  0  0  0
   62.0790   32.4760   47.4800 C   0  0  0  0  0  0  0  0  0  0  0  0
   62.8710   31.8713   47.0140 H   0  0  0  0  0  0  0  0  0  0  0  0
   60.7410   32.2540   47.1420 C   0  0  0  0  0  0  0  0  0  0  0  0
   60.4834   31.4798   46.4043 H   0  0  0  0  0  0  0  0  0  0  0  0
   57.3590   31.4810   42.7490 C   0  0  0  0  0  0  0  0  0  0  0  0
   57.4762   31.7841   41.6981 H   0  0  0  0  0  0  0  0  0  0  0  0
   56.7490   30.2610   43.0940 C   0  0  0  0  0  0  0  0  0  0  0  0
   56.3661   29.5963   42.3056 H   0  0  0  0  0  0  0  0  0  0  0  0
  1  2  1  0
  2  3  1  0
  3  4  1  0
  4  5  1  0
  5  6  1  0
  5  7  2  0
  7  8  1  0
  7  9  1  0
  9 10  1  0
 10 11  2  0
 11 12  1  0
 12 13  1  0
 13 14  2  0
 14 15  1  0
 15 16  1  0
 16 17  2  0
 16 18  1  0
 18 19  1  0
 19 20  1  0
 19 21  1  0
 19 22  1  0
 22 23  2  0
 23 24  1  0
 23 25  1  0
 25 26  1  0
 25 27  2  0
 27 28  1  0
 27 29  1  0
 29 30  1  0
 29 31  2  0
 31 32  1  0
 14 33  1  0
 33 34  1  0
 33 35  2  0
 35 36  1  0
  9  3  2  0
 35 11  1  0
 18 13  1  0
 31 22  1  0
M  CHG  3   4  -1  12  -1  15  -1
M  END
>  <UniqueID>  (6) 
6

>  <SMILES>  (6) 
O=c1[n-]c2cc/c(=N\c3cc[n-]c3O)[n-]c2n1Cc1ccccc1

>  <Energy>  (6) 
113.84698330187253

>  <Genealogy>  (6) 
O=c1[n-]c2ccc(=Nc3cc[n-]c3O)[n-]c2n1Cc1ccccc1 (protonated)
O=c1[n-]c2cc/c(=N\c3cc[n-]c3O)[n-]c2n1Cc1ccccc1 (cis-trans isomerization)
O=c1[n-]c2cc/c(=N\c3cc[n-]c3O)[n-]c2n1Cc1ccccc1 (3D coordinates assigned)
O=c1[n-]c2cc/c(=N\c3cc[n-]c3O)[n-]c2n1Cc1ccccc1 (optimized conformer: 113.84698330187253 kcal/mol)

>  <smiles>  (6) 
O=c1[nH]c2ccc(=Nc3cc[nH]c3O)[nH]c2n1Cc1ccccc1

>  <score_type>  (6) 
oracle

>  <origin>  (6) 
adg

>  <m_score__min__energy>  (6) 
-13.84

>  <m_primary>  (6) 
energy

$$$$
6:0
     RDKit          3D

 53 55  0  0  0  0  0  0  0  0999 V2000
   55.5260   28.9130   45.1250 N   0  0  0  0  0  0  0  0  0  0  0  0
   56.7340   29.9280   44.4200 S   0  0  0  0  0  0  0  0  0  0  0  0
   56.9070   29.5660   42.9700 O   0  0  0  0  0  0  0  0  0  0  0  0
   56.2970   31.3620   44.5080 O   0  0  0  0  0  0  0  0  0  0  0  0
   58.2560   29.7150   45.2800 C   0  0  0  0  0  0  0  0  0  0  0  0
   59.3940   29.2770   44.5910 C   0  0  0  0  0  0  0  0  0  0  0  0
   60.5960   29.0820   45.2760 C   0  0  0  0  0  0  0  0  0  0  0  0
   60.6710   29.3370   46.6470 C   0  0  0  0  0  0  0  0  0  0  0  0
   59.5480   29.8040   47.3470 C   0  0  0  0  0  0  0  0  0  0  0  0
   59.6430   30.0320   48.7630 N   0  0  0  0  0  0  0  0  0  0  0  0
   60.1230   29.0580   49.7010 C   0  0  0  0  0  0  0  0  0  0  0  0
   60.0340   27.8260   49.4430 O   0  0  0  0  0  0  0  0  0  0  0  0
   60.6720   29.4920   51.0280 C   0  0  0  0  0  0  0  0  0  0  0  0
   61.5390   30.6550   50.8690 N   0  0  0  0  0  0  0  0  0  0  0  0
   62.9610   30.5680   50.7410 C   0  0  0  0  0  0  0  0  0  0  0  0
   63.6360   29.9100   51.5780 O   0  0  0  0  0  0  0  0  0  0  0  0
   63.6060   31.2610   49.6690 N   0  0  0  0  0  0  0  0  0  0  0  0
   62.9660   32.1000   48.6960 C   0  0  0  0  0  0  0  0  0  0  0  0
   63.7590   32.7550   47.7470 C   0  0  0  0  0  0  0  0  0  0  0  0
   63.1800   33.6210   46.8160 C   0  0  0  0  0  0  0  0  0  0  0  0
   61.8040   33.8550   46.8410 C   0  0  0  0  0  0  0  0  0  0  0  0
   60.9990   33.2270   47.8020 C   0  0  0  0  0  0  0  0  0  0  0  0
   59.2670   33.5610   47.8670 S   0  0  0  0  0  0  0  0  0  0  0  0
   59.0600   35.0500   47.8300 O   0  0  0  0  0  0  0  0  0  0  0  0
   58.7160   33.0550   49.1700 O   0  0  0  0  0  0  0  0  0  0  0  0
   58.3870   32.8170   46.5470 N   0  0  0  0  0  0  0  0  0  0  0  0
   57.0510   33.4120   46.3380 C   0  0  0  0  0  0  0  0  0  0  0  0
   56.9940   34.3490   45.1220 C   0  0  0  0  0  0  0  0  0  0  0  0
   58.2390   34.9780   44.9330 O   0  0  0  0  0  0  0  0  0  0  0  0
   59.1920   34.0330   44.4890 C   0  0  0  0  0  0  0  0  0  0  0  0
   59.1930   32.7240   45.3160 C   0  0  0  0  0  0  0  0  0  0  0  0
   61.5800   32.3450   48.7230 C   0  0  0  0  0  0  0  0  0  0  0  0
   58.3330   29.9750   46.6560 C   0  0  0  0  0  0  0  0  0  0  0  0
   54.6010   29.3470   44.9110 H   0  0  0  0  0  0  0  0  0  0  0  0
   59.3414   29.0862   43.5089 H   0  0  0  0  0  0  0  0  0  0  0  0
   61.4851   28.7269   44.7343 H   0  0  0  0  0  0  0  0  0  0  0  0
   61.6175   29.1705   47.1822 H   0  0  0  0  0  0  0  0  0  0  0  0
   59.3410   30.9610   49.1370 H   0  0  0  0  0  0  0  0  0  0  0  0
   59.8382   29.7513   51.6970 H   0  0  0  0  0  0  0  0  0  0  0  0
   61.2602   28.6667   51.4558 H   0  0  0  0  0  0  0  0  0  0  0  0
   64.8460   32.5868   47.7340 H   0  0  0  0  0  0  0  0  0  0  0  0
   63.8087   34.1187   46.0630 H   0  0  0  0  0  0  0  0  0  0  0  0
   61.3499   34.5342   46.1045 H   0  0  0  0  0  0  0  0  0  0  0  0
   56.3250   32.5993   46.1884 H   0  0  0  0  0  0  0  0  0  0  0  0
   56.8164   34.0141   47.2282 H   0  0  0  0  0  0  0  0  0  0  0  0
   56.7424   33.7646   44.2247 H   0  0  0  0  0  0  0  0  0  0  0  0
   56.2270   35.1177   45.2974 H   0  0  0  0  0  0  0  0  0  0  0  0
   58.9723   33.7827   43.4406 H   0  0  0  0  0  0  0  0  0  0  0  0
   60.1843   34.4926   44.6082 H   0  0  0  0  0  0  0  0  0  0  0  0
   58.7862   31.9150   44.6915 H   0  0  0  0  0  0  0  0  0  0  0  0
   60.2323   32.5279   45.6185 H   0  0  0  0  0  0  0  0  0  0  0  0
   60.9498   31.8415   49.4709 H   0  0  0  0  0  0  0  0  0  0  0  0
   57.4386   30.3147   47.1989 H   0  0  0  0  0  0  0  0  0  0  0  0
  1  2  1  0
  2  3  2  0
  2  4  2  0
  2  5  1  0
  5  6  2  0
  6  7  1  0
  7  8  2  0
  8  9  1  0
  9 10  1  0
 10 11  1  0
 11 12  2  0
 11 13  1  0
 13 14  1  0
 14 15  1  0
 15 16  2  0
 15 17  1  0
 17 18  1  0
 18 19  2  0
 19 20  1  0
 20 21  2  0
 21 22  1  0
 22 23  1  0
 23 24  2  0
 23 25  2  0
 23 26  1  0
 26 27  1  0
 27 28  1  0
 28 29  1  0
 29 30  1  0
 30 31  1  0
 22 32  2  0
  9 33  2  0
 33  5  1  0
 32 18  1  0
 31 26  1  0
  1 34  1  0
  6 35  1  0
  7 36  1  0
  8 37  1  0
 10 38  1  0
 13 39  1  0
 13 40  1  0
 19 41  1  0
 20 42  1  0
 21 43  1  0
 27 44  1  0
 27 45  1  0
 28 46  1  0
 28 47  1  0
 30 48  1  0
 30 49  1  0
 31 50  1  0
 31 51  1  0
 32 52  1  0
 33 53  1  0
M  CHG  3   1  -1  14  -1  17  -1
M  END
>  <UniqueID>  (7) 
7

>  <SMILES>  (7) 
[NH-]S(=O)(=O)c1cccc(NC(=O)C[N-]C(=O)[N-]c2cccc(S(=O)(=O)N3CCOCC3)c2)c1

>  <Energy>  (7) 
62.68172275521768

>  <Genealogy>  (7) 
[NH-]S(=O)(=O)c1cccc(NC(=O)C[N-]C(=O)[N-]c2cccc(S(=O)(=O)N3CCOCC3)c2)c1 (protonated)
[NH-]S(=O)(=O)c1cccc(NC(=O)C[N-]C(=O)[N-]c2cccc(S(=O)(=O)N3CCOCC3)c2)c1 (3D coordinates assigned)
[NH-]S(=O)(=O)c1cccc(NC(=O)C[N-]C(=O)[N-]c2cccc(S(=O)(=O)N3CCOCC3)c2)c1 (nonaromatic ring conformer: 62.68172275521768 kcal/mol)

>  <smiles>  (7) 
NS(=O)(=O)c1cccc(NC(=O)CNC(=O)Nc2cccc(S(=O)(=O)N3CCOCC3)c2)c1

>  <score_type>  (7) 
oracle

>  <origin>  (7) 
adg

>  <m_score__min__energy>  (7) 
-15.17

>  <m_primary>  (7) 
energy

$$$$
7:0
     RDKit          3D

 46 49  0  0  0  0  0  0  0  0999 V2000
   56.9110   22.9200   48.2750 O   0  0  0  0  0  0  0  0  0  0  0  0
   56.2550   23.4710   47.3500 C   0  0  0  0  0  0  0  0  0  0  0  0
   55.3220   22.6560   46.5100 C   0  0  0  0  0  0  0  0  0  0  0  0
   54.0100   22.4700   47.2060 C   0  0  0  0  0  0  0  0  0  0  0  0
   53.8570   22.4620   48.5410 N   0  0  0  0  0  0  0  0  0  0  0  0
   52.5280   22.2740   48.7000 C   0  0  0  0  0  0  0  0  0  0  0  0
   51.9820   22.2130   49.8310 O   0  0  0  0  0  0  0  0  0  0  0  0
   51.8280   22.1620   47.5510 N   0  0  0  0  0  0  0  0  0  0  0  0
   52.7840   22.2870   46.6150 C   0  0  0  0  0  0  0  0  0  0  0  0
   52.5410   22.2260   45.2490 O   0  0  0  0  0  0  0  0  0  0  0  0
   56.3860   24.8730   47.1090 N   0  0  0  0  0  0  0  0  0  0  0  0
   57.2010   25.3140   46.2370 N   0  0  0  0  0  0  0  0  0  0  0  0
   57.1830   26.6700   45.7610 C   0  0  0  0  0  0  0  0  0  0  0  0
   55.9460   27.3150   45.6230 C   0  0  0  0  0  0  0  0  0  0  0  0
   54.7720   26.6590   45.9730 O   0  0  0  0  0  0  0  0  0  0  0  0
   55.8820   28.5800   45.1290 N   0  0  0  0  0  0  0  0  0  0  0  0
   56.9930   29.2740   44.7620 C   0  0  0  0  0  0  0  0  0  0  0  0
   56.8280   30.6040   44.1330 C   0  0  0  0  0  0  0  0  0  0  0  0
   56.9260   30.7030   42.8820 O   0  0  0  0  0  0  0  0  0  0  0  0
   56.5350   31.7810   44.9030 N   0  0  0  0  0  0  0  0  0  0  0  0
   57.4180   32.6190   45.3670 C   0  0  0  0  0  0  0  0  0  0  0  0
   57.9180   33.6300   44.6240 N   0  0  0  0  0  0  0  0  0  0  0  0
   58.7610   34.4180   45.3470 C   0  0  0  0  0  0  0  0  0  0  0  0
   58.9320   34.0320   46.6740 C   0  0  0  0  0  0  0  0  0  0  0  0
   59.7210   34.7650   47.7200 C   0  0  0  0  0  0  0  0  0  0  0  0
   61.1010   34.1700   47.8370 C   0  0  0  0  0  0  0  0  0  0  0  0
   61.8220   33.8190   46.6830 C   0  0  0  0  0  0  0  0  0  0  0  0
   63.0360   33.1340   46.7930 C   0  0  0  0  0  0  0  0  0  0  0  0
   63.5340   32.7850   48.0520 C   0  0  0  0  0  0  0  0  0  0  0  0
   62.8240   33.1340   49.2040 C   0  0  0  0  0  0  0  0  0  0  0  0
   61.6130   33.8230   49.0990 C   0  0  0  0  0  0  0  0  0  0  0  0
   58.0430   32.6280   46.9330 S   0  0  0  0  0  0  0  0  0  0  0  0
   58.2600   28.6910   44.9380 C   0  0  0  0  0  0  0  0  0  0  0  0
   59.4190   29.3990   44.6330 O   0  0  0  0  0  0  0  0  0  0  0  0
   58.3550   27.3820   45.4250 C   0  0  0  0  0  0  0  0  0  0  0  0
   59.4940   26.8540   45.5560 O   0  0  0  0  0  0  0  0  0  0  0  0
   55.1534   23.1719   45.5532 H   0  0  0  0  0  0  0  0  0  0  0  0
   55.7736   21.6681   46.3363 H   0  0  0  0  0  0  0  0  0  0  0  0
   59.2685   35.2933   44.9154 H   0  0  0  0  0  0  0  0  0  0  0  0
   59.8042   35.8248   47.4373 H   0  0  0  0  0  0  0  0  0  0  0  0
   59.2065   34.6761   48.6882 H   0  0  0  0  0  0  0  0  0  0  0  0
   61.4301   34.0840   45.6899 H   0  0  0  0  0  0  0  0  0  0  0  0
   63.6006   32.8691   45.8869 H   0  0  0  0  0  0  0  0  0  0  0  0
   64.4837   32.2363   48.1357 H   0  0  0  0  0  0  0  0  0  0  0  0
   63.2191   32.8659   50.1949 H   0  0  0  0  0  0  0  0  0  0  0  0
   61.0576   34.0952   50.0086 H   0  0  0  0  0  0  0  0  0  0  0  0
  1  2  2  0
  2  3  1  0
  3  4  1  0
  4  5  1  0
  5  6  1  0
  6  7  2  0
  6  8  1  0
  8  9  1  0
  9 10  1  0
  2 11  1  0
 11 12  2  3
 12 13  1  0
 13 14  2  0
 14 15  1  0
 14 16  1  0
 16 17  1  0
 17 18  1  0
 18 19  2  0
 18 20  1  0
 20 21  2  3
 21 22  1  0
 22 23  1  0
 23 24  2  0
 24 25  1  0
 25 26  1  0
 26 27  2  0
 27 28  1  0
 28 29  2  0
 29 30  1  0
 30 31  2  0
 24 32  1  0
 17 33  2  0
 33 34  1  0
 33 35  1  0
 35 36  2  0
  9  4  2  0
 35 13  1  0
 32 21  1  0
 31 26  1  0
  3 37  1  0
  3 38  1  0
 23 39  1  0
 25 40  1  0
 25 41  1  0
 27 42  1  0
 28 43  1  0
 29 44  1  0
 30 45  1  0
 31 46  1  0
M  CHG  7   5  -1   8  -1  10  -1  15  -1  16  -1  22  -1  34  -1
M  END
>  <UniqueID>  (8) 
8

>  <SMILES>  (8) 
O=C(Cc1[n-]c(=O)[n-]c1[O-])N=Nc1c([O-])[n-]c(C(=O)N=c2[n-]cc(Cc3ccccc3)s2)c([O-])c1=O

>  <Energy>  (8) 
116.37338829737652

>  <Genealogy>  (8) 
O=C(Cc1[n-]c(=O)[n-]c1[O-])N=Nc1c([O-])[n-]c(C(=O)N=c2[n-]cc(Cc3ccccc3)s2)c([O-])c1=O (protonated)
O=C(Cc1[n-]c(=O)[n-]c1[O-])N=Nc1c([O-])[n-]c(C(=O)N=c2[n-]cc(Cc3ccccc3)s2)c([O-])c1=O (3D coordinates assigned)
O=C(Cc1[n-]c(=O)[n-]c1[O-])N=Nc1c([O-])[n-]c(C(=O)N=c2[n-]cc(Cc3ccccc3)s2)c([O-])c1=O (optimized conformer: 116.37338829737652 kcal/mol)

>  <smiles>  (8) 
O=C(Cc1[nH]c(=O)[nH]c1O)N=Nc1c(O)[nH]c(C(=O)N=c2[nH]cc(Cc3ccccc3)s2)c(O)c1=O

>  <score_type>  (8) 
oracle

>  <origin>  (8) 
adg

>  <m_score__min__energy>  (8) 
-22.760000000000002

>  <m_primary>  (8) 
energy

$$$$
8:0
     RDKit          3D

 52 54  0  0  0  0  0  0  0  0999 V2000
   56.6080   19.8520   43.0050 H   0  0  0  0  0  0  0  0  0  0  0  0
   56.2620   20.8000   43.0870 O   0  0  0  0  0  0  0  0  0  0  0  0
   56.9630   21.7710   43.7980 C   0  0  0  0  0  0  0  0  0  0  0  0
   58.3020   21.5670   44.1520 C   0  0  0  0  0  0  0  0  0  0  0  0
   58.8070   20.6309   43.8716 H   0  0  0  0  0  0  0  0  0  0  0  0
   58.9990   22.5500   44.8610 C   0  0  0  0  0  0  0  0  0  0  0  0
   60.0512   22.3856   45.1365 H   0  0  0  0  0  0  0  0  0  0  0  0
   58.3580   23.7490   45.2230 C   0  0  0  0  0  0  0  0  0  0  0  0
   58.9940   24.7490   45.9770 C   0  0  0  0  0  0  0  0  0  0  0  0
   60.2020   24.6000   46.3120 O   0  0  0  0  0  0  0  0  0  0  0  0
   58.2980   25.8670   46.3760 N   0  0  0  0  0  0  0  0  0  0  0  0
   58.7730   26.6010   47.5790 C   0  0  0  0  0  0  0  0  0  0  0  0
   58.8016   25.9028   48.4285 H   0  0  0  0  0  0  0  0  0  0  0  0
   58.0747   27.4319   47.7579 H   0  0  0  0  0  0  0  0  0  0  0  0
   60.1810   27.2080   47.3910 C   0  0  0  0  0  0  0  0  0  0  0  0
   60.2963   27.4998   46.3367 H   0  0  0  0  0  0  0  0  0  0  0  0
   60.9075   26.4393   47.6933 H   0  0  0  0  0  0  0  0  0  0  0  0
   60.4390   28.4440   48.2690 C   0  0  0  0  0  0  0  0  0  0  0  0
   61.5035   28.4723   48.5447 H   0  0  0  0  0  0  0  0  0  0  0  0
   59.8075   28.3713   49.1667 H   0  0  0  0  0  0  0  0  0  0  0  0
   60.0920   29.6940   47.5510 N   0  0  0  0  0  0  0  0  0  0  0  0
   58.8860   30.3380   48.1250 C   0  0  0  0  0  0  0  0  0  0  0  0
   57.9933   29.8107   47.7575 H   0  0  0  0  0  0  0  0  0  0  0  0
   58.8833   31.3925   47.8120 H   0  0  0  0  0  0  0  0  0  0  0  0
   58.8870   30.3000   49.6550 C   0  0  0  0  0  0  0  0  0  0  0  0
   58.8600   31.3273   50.0473 H   0  0  0  0  0  0  0  0  0  0  0  0
   58.0030   29.7491   50.0087 H   0  0  0  0  0  0  0  0  0  0  0  0
   59.7987   29.7963   50.0087 H   0  0  0  0  0  0  0  0  0  0  0  0
   61.2600   30.6030   47.3980 C   0  0  0  0  0  0  0  0  0  0  0  0
   61.8488   30.5629   48.3263 H   0  0  0  0  0  0  0  0  0  0  0  0
   61.8149   30.2488   46.5167 H   0  0  0  0  0  0  0  0  0  0  0  0
   60.9010   32.0730   47.1220 C   0  0  0  0  0  0  0  0  0  0  0  0
   60.7713   32.6042   48.0765 H   0  0  0  0  0  0  0  0  0  0  0  0
   61.7100   32.5461   46.5461 H   0  0  0  0  0  0  0  0  0  0  0  0
   59.9650   32.1200   46.5461 H   0  0  0  0  0  0  0  0  0  0  0  0
   57.0700   26.1300   45.7920 C   0  0  0  0  0  0  0  0  0  0  0  0
   56.5230   27.3170   45.7550 N   0  0  0  0  0  0  0  0  0  0  0  0
   57.0430   28.5520   45.2360 C   0  0  0  0  0  0  0  0  0  0  0  0
   58.4260   28.7360   45.0570 C   0  0  0  0  0  0  0  0  0  0  0  0
   59.1271   27.9455   45.3629 H   0  0  0  0  0  0  0  0  0  0  0  0
   58.9140   29.9170   44.4930 C   0  0  0  0  0  0  0  0  0  0  0  0
   59.9979   30.0642   44.3773 H   0  0  0  0  0  0  0  0  0  0  0  0
   58.0260   30.9110   44.0760 C   0  0  0  0  0  0  0  0  0  0  0  0
   58.4108   31.8464   43.6437 H   0  0  0  0  0  0  0  0  0  0  0  0
   56.6500   30.7170   44.2080 C   0  0  0  0  0  0  0  0  0  0  0  0
   55.9512   31.4954   43.8677 H   0  0  0  0  0  0  0  0  0  0  0  0
   56.1570   29.5350   44.7720 C   0  0  0  0  0  0  0  0  0  0  0  0
   54.7850   29.3410   44.8640 O   0  0  0  0  0  0  0  0  0  0  0  0
   56.4240   25.1400   45.1250 N   0  0  0  0  0  0  0  0  0  0  0  0
   57.0160   23.9520   44.8590 C   0  0  0  0  0  0  0  0  0  0  0  0
   56.3220   22.9640   44.1530 C   0  0  0  0  0  0  0  0  0  0  0  0
   55.2697   23.1247   43.8759 H   0  0  0  0  0  0  0  0  0  0  0  0
  1  2  1  0
  2  3  1  0
  3  4  2  0
  4  5  1  0
  4  6  1  0
  6  7  1  0
  6  8  2  0
  8  9  1  0
  9 10  2  0
  9 11  1  0
 11 12  1  0
 12 13  1  0
 12 14  1  0
 12 15  1  0
 15 16  1  0
 15 17  1  0
 15 18  1  0
 18 19  1  0
 18 20  1  0
 18 21  1  0
 21 22  1  0
 22 23  1  0
 22 24  1  0
 22 25  1  0
 25 26  1  0
 25 27  1  0
 25 28  1  0
 21 29  1  0
 29 30  1  0
 29 31  1  0
 29 32  1  0
 32 33  1  0
 32 34  1  0
 32 35  1  0
 11 36  1  0
 36 37  2  0
 37 38  1  0
 38 39  2  0
 39 40  1  0
 39 41  1  0
 41 42  1  0
 41 43  2  0
 43 44  1  0
 43 45  1  0
 45 46  1  0
 45 47  2  0
 47 48  1  0
 36 49  1  0
 49 50  1  0
 50 51  2  0
 51 52  1  0
 51  3  1  0
 50  8  1  0
 47 38  1  0
M  CHG  2  48  -1  49  -1
M  END
>  <UniqueID>  (9) 
9

>  <SMILES>  (9) 
CCN(CC)CCCn1c(=O)c2ccc(O)cc2[n-]/c1=N/c1ccccc1[O-]

>  <Energy>  (9) 
83.38689697965673

>  <Genealogy>  (9) 
CCN(CC)CCCn1c(=Nc2ccccc2[O-])[n-]c2cc(O)ccc2c1=O (protonated)
CCN(CC)CCCn1c(=O)c2ccc(O)cc2[n-]/c1=N/c1ccccc1[O-] (cis-trans isomerization)
CCN(CC)CCCn1c(=O)c2ccc(O)cc2[n-]/c1=N/c1ccccc1[O-] (3D coordinates assigned)
CCN(CC)CCCn1c(=O)c2ccc(O)cc2[n-]/c1=N/c1ccccc1[O-] (optimized conformer: 83.38689697965673 kcal/mol)

>  <smiles>  (9) 
CCN(CC)CCCn1c(=Nc2ccccc2O)[nH]c2cc(O)ccc2c1=O

>  <score_type>  (9) 
oracle

>  <origin>  (9) 
adg

>  <m_score__min__energy>  (9) 
-12.42

>  <m_primary>  (9) 
energy

$$$$
9:0
     RDKit          3D

 55 59  0  0  0  0  0  0  0  0999 V2000
   58.5810   30.3930   44.9450 C   0  0  0  0  0  0  0  0  0  0  0  0
   59.7940   29.3750   45.8000 S   0  0  1  0  0  4  0  0  0  0  0  0
   59.7850   29.8800   47.4660 N   0  0  0  0  0  0  0  0  0  0  0  0
   59.2100   28.8460   48.2780 C   0  0  0  0  0  0  0  0  0  0  0  0
   59.0100   28.9800   49.6930 N   0  0  0  0  0  0  0  0  0  0  0  0
   58.8900   30.0930   50.3520 C   0  0  0  0  0  0  0  0  0  0  0  0
   58.1570   30.2190   51.4910 N   0  0  0  0  0  0  0  0  0  0  0  0
   58.3010   31.5200   51.7810 C   0  0  0  0  0  0  0  0  0  0  0  0
   57.7590   32.2190   52.8580 C   0  0  0  0  0  0  0  0  0  0  0  0
   58.0450   33.5930   52.9550 C   0  0  0  0  0  0  0  0  0  0  0  0
   58.8550   34.2250   51.9830 C   0  0  0  0  0  0  0  0  0  0  0  0
   59.3830   33.4870   50.9070 C   0  0  0  0  0  0  0  0  0  0  0  0
   59.0790   32.1290   50.8450 C   0  0  0  0  0  0  0  0  0  0  0  0
   59.4680   31.2430   49.9170 N   0  0  0  0  0  0  0  0  0  0  0  0
   58.7970   27.7840   47.6560 N   0  0  0  0  0  0  0  0  0  0  0  0
   59.0400   27.8560   46.2520 C   0  0  0  0  0  0  0  0  0  0  0  0
   58.6630   26.9210   45.3760 C   0  0  0  0  0  0  0  0  0  0  0  0
   57.4670   26.0700   45.5650 C   0  0  0  0  0  0  0  0  0  0  0  0
   56.1840   26.6220   45.6720 C   0  0  0  0  0  0  0  0  0  0  0  0
   55.9920   27.9990   45.6070 O   0  0  0  0  0  0  0  0  0  0  0  0
   55.1200   25.8100   45.8710 N   0  0  0  0  0  0  0  0  0  0  0  0
   55.2550   24.4650   45.9780 C   0  0  0  0  0  0  0  0  0  0  0  0
   54.2220   23.7700   46.1800 O   0  0  0  0  0  0  0  0  0  0  0  0
   56.4950   23.8770   45.8780 N   0  0  0  0  0  0  0  0  0  0  0  0
   56.6250   22.4030   46.0170 C   0  0  1  0  0  0  0  0  0  0  0  0
   55.7860   21.9260   47.0580 O   0  0  0  0  0  0  0  0  0  0  0  0
   56.1260   20.5930   47.4130 C   0  0  0  0  0  0  0  0  0  0  0  0
   56.2760   19.6450   46.1970 C   0  0  2  0  0  0  0  0  0  0  0  0
   57.6370   19.3610   45.9910 O   0  0  0  0  0  0  0  0  0  0  0  0
   55.6700   20.2960   44.9370 C   0  0  2  0  0  0  0  0  0  0  0  0
   55.8550   19.4710   43.8160 O   0  0  0  0  0  0  0  0  0  0  0  0
   56.3080   21.6780   44.6770 C   0  0  1  0  0  0  0  0  0  0  0  0
   55.4410   22.4460   43.8810 O   0  0  0  0  0  0  0  0  0  0  0  0
   57.6040   24.6790   45.7110 C   0  0  0  0  0  0  0  0  0  0  0  0
   58.7610   24.1730   45.6860 O   0  0  0  0  0  0  0  0  0  0  0  0
   57.9564   30.9172   45.6834 H   0  0  0  0  0  0  0  0  0  0  0  0
   59.0999   31.1300   44.3145 H   0  0  0  0  0  0  0  0  0  0  0  0
   57.9452   29.7541   44.3145 H   0  0  0  0  0  0  0  0  0  0  0  0
   61.1020   29.2660   45.3380 H   0  0  0  0  0  0  0  0  0  0  0  0
   59.9090   30.8730   47.7590 H   0  0  0  0  0  0  0  0  0  0  0  0
   57.1298   31.7142   53.6058 H   0  0  0  0  0  0  0  0  0  0  0  0
   57.6364   34.1790   53.7914 H   0  0  0  0  0  0  0  0  0  0  0  0
   59.0736   35.2997   52.0684 H   0  0  0  0  0  0  0  0  0  0  0  0
   60.0130   33.9654   50.1426 H   0  0  0  0  0  0  0  0  0  0  0  0
   59.2706   26.7765   44.4705 H   0  0  0  0  0  0  0  0  0  0  0  0
   56.5840   28.6340   46.1280 H   0  0  0  0  0  0  0  0  0  0  0  0
   57.6694   22.1782   46.2790 H   0  0  0  0  0  0  0  0  0  0  0  0
   57.0807   20.6116   47.9590 H   0  0  0  0  0  0  0  0  0  0  0  0
   55.3003   20.2024   48.0259 H   0  0  0  0  0  0  0  0  0  0  0  0
   55.7368   18.7076   46.3982 H   0  0  0  0  0  0  0  0  0  0  0  0
   57.7600   19.2210   45.0160 H   0  0  0  0  0  0  0  0  0  0  0  0
   54.5916   20.4279   45.1092 H   0  0  0  0  0  0  0  0  0  0  0  0
   56.6390   18.8930   44.0100 H   0  0  0  0  0  0  0  0  0  0  0  0
   57.2603   21.5427   44.1434 H   0  0  0  0  0  0  0  0  0  0  0  0
   54.7200   22.7790   44.4760 H   0  0  0  0  0  0  0  0  0  0  0  0
  1  2  1  0
  2  3  1  0
  3  4  1  0
  4  5  1  0
  5  6  2  3
  6  7  1  0
  7  8  1  0
  8  9  2  0
  9 10  1  0
 10 11  2  0
 11 12  1  0
 12 13  2  0
 13 14  1  0
  4 15  2  0
 15 16  1  0
 16 17  2  3
 17 18  1  0
 18 19  2  0
 19 20  1  0
 19 21  1  0
 21 22  1  0
 22 23  2  0
 22 24  1  0
 24 25  1  0
 25 26  1  0
 26 27  1  0
 27 28  1  0
 28 29  1  0
 28 30  1  0
 30 31  1  0
 30 32  1  0
 32 33  1  0
 24 34  1  0
 34 35  2  0
 16  2  1  0
 34 18  1  0
 14  6  1  0
 32 25  1  0
 13  8  1  0
  1 36  1  0
  1 37  1  0
  1 38  1  0
  2 39  1  6
  3 40  1  0
  9 41  1  0
 10 42  1  0
 11 43  1  0
 12 44  1  0
 17 45  1  0
 20 46  1  0
 25 47  1  1
 27 48  1  0
 27 49  1  0
 28 50  1  1
 29 51  1  0
 30 52  1  1
 31 53  1  0
 32 54  1  6
 33 55  1  0
M  CHG  3   7  -1  14  -1  21  -1
M  END
>  <UniqueID>  (10) 
10

>  <SMILES>  (10) 
C[S@H]1NC(N=c2[n-]c3ccccc3[n-]2)=NC1=Cc1c(O)[n-]c(=O)n([C@H]2OCC(O)C(O)C2O)c1=O

>  <Energy>  (10) 
138.85183715904424

>  <Genealogy>  (10) 
C[SH]1NC(N=c2[n-]c3ccccc3[n-]2)=NC1=Cc1c(O)[n-]c(=O)n(C2OCC(O)C(O)C2O)c1=O (protonated)
C[S@H]1NC(N=c2[n-]c3ccccc3[n-]2)=NC1=Cc1c(O)[n-]c(=O)n([C@H]2OCC(O)C(O)C2O)c1=O (chirality)
C[S@H]1NC(N=c2[n-]c3ccccc3[n-]2)=NC1=Cc1c(O)[n-]c(=O)n([C@H]2OCC(O)C(O)C2O)c1=O (3D coordinates assigned)
C[S@H]1NC(N=c2[n-]c3ccccc3[n-]2)=NC1=Cc1c(O)[n-]c(=O)n([C@H]2OCC(O)C(O)C2O)c1=O (nonaromatic ring conformer: 138.85183715904424 kcal/mol)

>  <smiles>  (10) 
C[SH]1NC(N=c2[nH]c3ccccc3[nH]2)=NC1=Cc1c(O)[nH]c(=O)n(C2OCC(O)C(O)C2O)c1=O

>  <score_type>  (10) 
oracle

>  <origin>  (10) 
adg

>  <m_score__min__energy>  (10) 
-12.49

>  <m_primary>  (10) 
energy

$$$$
10:0
     RDKit          3D

 25 26  0  0  0  0  0  0  0  0999 V2000
   52.2914   30.7198   53.4025 H   0  0  0  0  0  0  0  0  0  0  0  0
   52.9120   30.8710   52.5070 C   0  0  0  0  0  0  0  0  0  0  0  0
   54.2400   30.9440   52.6870 C   0  0  0  0  0  0  0  0  0  0  0  0
   54.5962   31.1983   53.6962 H   0  0  0  0  0  0  0  0  0  0  0  0
   55.2870   30.7080   51.6270 C   0  0  0  0  0  0  0  0  0  0  0  0
   55.3320   29.6321   51.4026 H   0  0  0  0  0  0  0  0  0  0  0  0
   55.0076   31.2838   50.7323 H   0  0  0  0  0  0  0  0  0  0  0  0
   56.6190   31.1610   52.0710 N   0  0  0  0  0  0  0  0  0  0  0  0
   56.8390   32.4920   52.2970 C   0  0  0  0  0  0  0  0  0  0  0  0
   56.0202   33.2116   52.1495 H   0  0  0  0  0  0  0  0  0  0  0  0
   58.0890   32.9460   52.7120 C   0  0  0  0  0  0  0  0  0  0  0  0
   58.2960   34.2650   52.9530 F   0  0  0  0  0  0  0  0  0  0  0  0
   59.1170   32.0190   52.8670 C   0  0  0  0  0  0  0  0  0  0  0  0
   60.2590   32.3910   53.2430 O   0  0  0  0  0  0  0  0  0  0  0  0
   58.8850   30.7100   52.6030 N   0  0  0  0  0  0  0  0  0  0  0  0
   57.6620   30.2750   52.2000 C   0  0  0  0  0  0  0  0  0  0  0  0
   57.5040   29.0510   51.9450 O   0  0  0  0  0  0  0  0  0  0  0  0
   52.2120   30.9760   51.2120 C   0  0  0  0  0  0  0  0  0  0  0  0
   52.2470   30.0600   50.2240 N   0  0  0  0  0  0  0  0  0  0  0  0
   51.4100   30.5640   49.2910 C   0  0  0  0  0  0  0  0  0  0  0  0
   51.1810   29.9880   48.1940 O   0  0  0  0  0  0  0  0  0  0  0  0
   50.8410   31.7330   49.6390 N   0  0  0  0  0  0  0  0  0  0  0  0
   50.1610   32.3080   49.0940 H   0  0  0  0  0  0  0  0  0  0  0  0
   51.3420   31.9840   50.8560 C   0  0  0  0  0  0  0  0  0  0  0  0
   51.0170   33.0980   51.6200 O   0  0  0  0  0  0  0  0  0  0  0  0
  1  2  1  0
  2  3  2  0
  3  4  1  0
  3  5  1  0
  5  6  1  0
  5  7  1  0
  5  8  1  0
  8  9  1  0
  9 10  1  0
  9 11  2  0
 11 12  1  0
 11 13  1  0
 13 14  2  0
 13 15  1  0
 15 16  1  0
 16 17  2  0
  2 18  1  0
 18 19  1  0
 19 20  1  0
 20 21  2  0
 20 22  1  0
 22 23  1  0
 22 24  1  0
 24 25  1  0
 16  8  1  0
 24 18  2  0
M  CHG  3  15  -1  19  -1  25  -1
M  END
>  <UniqueID>  (11) 
11

>  <SMILES>  (11) 
O=c1[n-]c(/C=C\Cn2cc(F)c(=O)[n-]c2=O)c([O-])[nH]1

>  <Energy>  (11) 
61.29207413443925

>  <Genealogy>  (11) 
O=c1[n-]c(C=CCn2cc(F)c(=O)[n-]c2=O)c([O-])[nH]1 (protonated)
O=c1[n-]c(/C=C\Cn2cc(F)c(=O)[n-]c2=O)c([O-])[nH]1 (cis-trans isomerization)
O=c1[n-]c(/C=C\Cn2cc(F)c(=O)[n-]c2=O)c([O-])[nH]1 (3D coordinates assigned)
O=c1[n-]c(/C=C\Cn2cc(F)c(=O)[n-]c2=O)c([O-])[nH]1 (optimized conformer: 61.29207413443925 kcal/mol)

>  <smiles>  (11) 
O=c1[nH]c(O)c(C=CCn2cc(F)c(=O)[nH]c2=O)[nH]1

>  <score_type>  (11) 
oracle

>  <origin>  (11) 
adg

>  <m_score__min__energy>  (11) 
-13.550000000000001

>  <m_primary>  (11) 
energy

$$$$
11:0
     RDKit          3D

 51 54  0  0  0  0  0  0  0  0999 V2000
   56.3030   19.0090   45.7600 O   0  0  0  0  0  0  0  0  0  0  0  0
   56.4650   20.1820   45.3280 C   0  0  0  0  0  0  0  0  0  0  0  0
   56.7020   20.3560   43.9250 N   0  0  0  0  0  0  0  0  0  0  0  0
   57.2080   21.5860   43.3430 C   0  0  0  0  0  0  0  0  0  0  0  0
   58.4250   22.0470   44.1300 C   0  0  0  0  0  0  0  0  0  0  0  0
   58.0250   22.8500   45.2300 O   0  0  0  0  0  0  0  0  0  0  0  0
   57.0660   22.5420   46.2110 C   0  0  0  0  0  0  0  0  0  0  0  0
   56.8270   23.5430   47.1690 C   0  0  0  0  0  0  0  0  0  0  0  0
   57.4970   24.8000   47.0610 N   0  0  0  0  0  0  0  0  0  0  0  0
   56.9680   25.9710   45.9030 S   0  0  0  0  0  0  0  0  0  0  0  0
   55.4800   26.1420   46.0260 O   0  0  0  0  0  0  0  0  0  0  0  0
   57.2870   25.4990   44.5120 O   0  0  0  0  0  0  0  0  0  0  0  0
   57.7810   27.4990   46.2250 C   0  0  0  0  0  0  0  0  0  0  0  0
   58.9030   27.5550   47.0640 C   0  0  0  0  0  0  0  0  0  0  0  0
   59.5730   28.7660   47.2590 C   0  0  0  0  0  0  0  0  0  0  0  0
   59.1340   29.9240   46.6100 C   0  0  0  0  0  0  0  0  0  0  0  0
   58.0100   29.8780   45.7730 C   0  0  0  0  0  0  0  0  0  0  0  0
   57.5000   31.3140   44.8880 S   0  0  0  0  0  0  0  0  0  0  0  0
   56.1540   31.0480   44.2700 O   0  0  0  0  0  0  0  0  0  0  0  0
   58.4710   31.5640   43.7680 O   0  0  0  0  0  0  0  0  0  0  0  0
   57.4000   32.7460   45.8900 N   0  0  0  0  0  0  0  0  0  0  0  0
   58.3320   32.7280   47.0360 C   0  0  0  0  0  0  0  0  0  0  0  0
   59.6840   33.3790   46.7110 C   0  0  0  0  0  0  0  0  0  0  0  0
   59.5040   34.6680   46.1650 O   0  0  0  0  0  0  0  0  0  0  0  0
   58.8390   34.5550   44.9270 C   0  0  0  0  0  0  0  0  0  0  0  0
   57.4200   34.0040   45.1200 C   0  0  0  0  0  0  0  0  0  0  0  0
   57.3390   28.6630   45.5840 C   0  0  0  0  0  0  0  0  0  0  0  0
   55.8910   23.3530   48.1870 C   0  0  0  0  0  0  0  0  0  0  0  0
   55.1860   22.1580   48.2710 C   0  0  0  0  0  0  0  0  0  0  0  0
   55.4030   21.1530   47.3310 C   0  0  0  0  0  0  0  0  0  0  0  0
   56.3290   21.3190   46.2800 C   0  0  0  0  0  0  0  0  0  0  0  0
   56.6390   19.5150   43.3070 H   0  0  0  0  0  0  0  0  0  0  0  0
   57.4929   21.4076   42.2956 H   0  0  0  0  0  0  0  0  0  0  0  0
   56.4282   22.3609   43.3801 H   0  0  0  0  0  0  0  0  0  0  0  0
   58.9709   21.1676   44.5022 H   0  0  0  0  0  0  0  0  0  0  0  0
   59.0737   22.6416   43.4700 H   0  0  0  0  0  0  0  0  0  0  0  0
   59.2565   26.6443   47.5696 H   0  0  0  0  0  0  0  0  0  0  0  0
   60.4477   28.8081   47.9246 H   0  0  0  0  0  0  0  0  0  0  0  0
   59.6713   30.8727   46.7563 H   0  0  0  0  0  0  0  0  0  0  0  0
   57.8711   33.2732   47.8729 H   0  0  0  0  0  0  0  0  0  0  0  0
   58.5232   31.6754   47.2920 H   0  0  0  0  0  0  0  0  0  0  0  0
   60.2767   33.4585   47.6343 H   0  0  0  0  0  0  0  0  0  0  0  0
   60.2064   32.7540   45.9718 H   0  0  0  0  0  0  0  0  0  0  0  0
   58.7797   35.5479   44.4574 H   0  0  0  0  0  0  0  0  0  0  0  0
   59.4027   33.8616   44.2856 H   0  0  0  0  0  0  0  0  0  0  0  0
   56.8204   34.7546   45.6558 H   0  0  0  0  0  0  0  0  0  0  0  0
   57.0067   33.7911   44.1231 H   0  0  0  0  0  0  0  0  0  0  0  0
   56.4578   28.6229   44.9268 H   0  0  0  0  0  0  0  0  0  0  0  0
   55.7111   24.1499   48.9236 H   0  0  0  0  0  0  0  0  0  0  0  0
   54.4564   22.0058   49.0801 H   0  0  0  0  0  0  0  0  0  0  0  0
   54.8408   20.2108   47.4100 H   0  0  0  0  0  0  0  0  0  0  0  0
  1  2  2  0
  2  3  1  0
  3  4  1  0
  4  5  1  0
  5  6  1  0
  6  7  1  0
  7  8  2  0
  8  9  1  0
  9 10  1  0
 10 11  2  0
 10 12  2  0
 10 13  1  0
 13 14  2  0
 14 15  1  0
 15 16  2  0
 16 17  1  0
 17 18  1  0
 18 19  2  0
 18 20  2  0
 18 21  1  0
 21 22  1  0
 22 23  1  0
 23 24  1  0
 24 25  1  0
 25 26  1  0
 17 27  2  0
  8 28  1  0
 28 29  2  0
 29 30  1  0
 30 31  2  0
 31  2  1  0
 31  7  1  0
 27 13  1  0
 26 21  1  0
  3 32  1  0
  4 33  1  0
  4 34  1  0
  5 35  1  0
  5 36  1  0
 14 37  1  0
 15 38  1  0
 16 39  1  0
 22 40  1  0
 22 41  1  0
 23 42  1  0
 23 43  1  0
 25 44  1  0
 25 45  1  0
 26 46  1  0
 26 47  1  0
 27 48  1  0
 28 49  1  0
 29 50  1  0
 30 51  1  0
M  CHG  1   9  -1
M  END
>  <UniqueID>  (12) 
12

>  <SMILES>  (12) 
O=C1NCCOc2c([N-]S(=O)(=O)c3cccc(S(=O)(=O)N4CCOCC4)c3)cccc21

>  <Energy>  (12) 
73.37263534059765

>  <Genealogy>  (12) 
O=C1NCCOc2c([N-]S(=O)(=O)c3cccc(S(=O)(=O)N4CCOCC4)c3)cccc21 (protonated)
O=C1NCCOc2c([N-]S(=O)(=O)c3cccc(S(=O)(=O)N4CCOCC4)c3)cccc21 (3D coordinates assigned)
O=C1NCCOc2c([N-]S(=O)(=O)c3cccc(S(=O)(=O)N4CCOCC4)c3)cccc21 (nonaromatic ring conformer: 73.37263534059765 kcal/mol)

>  <smiles>  (12) 
O=C1NCCOc2c(NS(=O)(=O)c3cccc(S(=O)(=O)N4CCOCC4)c3)cccc21

>  <score_type>  (12) 
oracle

>  <origin>  (12) 
adg

>  <m_score__min__energy>  (12) 
-9.5500000000000007

>  <m_primary>  (12) 
energy

$$$$
12:0
     RDKit          3D

 56 59  0  0  0  0  0  0  0  0999 V2000
   56.8320   29.4750   43.3170 O   0  0  0  0  0  0  0  0  0  0  0  0
   57.1240   29.2320   44.5190 C   0  0  0  0  0  0  0  0  0  0  0  0
   56.3080   28.3070   45.2500 N   0  0  0  0  0  0  0  0  0  0  0  0
   56.6410   27.1340   45.7130 C   0  0  0  0  0  0  0  0  0  0  0  0
   57.9660   26.8750   45.8910 N   0  0  0  0  0  0  0  0  0  0  0  0
   58.4250   25.6840   46.3550 C   0  0  0  0  0  0  0  0  0  0  0  0
   57.5270   24.6680   46.6740 C   0  0  0  0  0  0  0  0  0  0  0  0
   56.1600   24.8950   46.5240 C   0  0  0  0  0  0  0  0  0  0  0  0
   55.6990   26.1290   46.0570 C   0  0  0  0  0  0  0  0  0  0  0  0
   54.3260   26.3350   45.9780 O   0  0  0  0  0  0  0  0  0  0  0  0
   58.2470   29.9560   45.1690 C   0  0  0  0  0  0  0  0  0  0  0  0
   59.4620   29.3050   45.4370 C   0  0  0  0  0  0  0  0  0  0  0  0
   60.5170   29.9980   46.0320 C   0  0  0  0  0  0  0  0  0  0  0  0
   60.3670   31.3390   46.3820 C   0  0  0  0  0  0  0  0  0  0  0  0
   59.1600   32.0020   46.1340 C   0  0  0  0  0  0  0  0  0  0  0  0
   58.9680   33.7010   46.5750 S   0  0  0  0  0  0  0  0  0  0  0  0
   60.1190   34.4910   46.0140 O   0  0  0  0  0  0  0  0  0  0  0  0
   57.7020   34.2300   45.9630 O   0  0  0  0  0  0  0  0  0  0  0  0
   58.9050   33.9180   48.3090 N   0  0  0  0  0  0  0  0  0  0  0  0
   58.3890   32.7120   49.0020 C   0  0  0  0  0  0  0  0  0  0  0  0
   59.4950   31.8080   49.5780 C   0  0  0  0  0  0  0  0  0  0  0  0
   60.4870   32.5860   50.3260 N   0  0  0  0  0  0  0  0  0  0  0  0
   61.4910   31.8930   51.0840 C   0  0  0  0  0  0  0  0  0  0  0  0
   61.1500   30.9570   51.8620 O   0  0  0  0  0  0  0  0  0  0  0  0
   62.9510   32.1940   50.9030 C   0  0  0  0  0  0  0  0  0  0  0  0
   63.2270   32.5350   49.4650 C   0  0  0  0  0  0  0  0  0  0  0  0
   63.1510   31.5470   48.4710 C   0  0  0  0  0  0  0  0  0  0  0  0
   63.3780   31.8790   47.1320 C   0  0  0  0  0  0  0  0  0  0  0  0
   63.6700   33.1970   46.7780 C   0  0  0  0  0  0  0  0  0  0  0  0
   63.7320   34.1880   47.7610 C   0  0  0  0  0  0  0  0  0  0  0  0
   63.5070   33.8610   49.1000 C   0  0  0  0  0  0  0  0  0  0  0  0
   60.4420   34.0470   50.2720 C   0  0  0  0  0  0  0  0  0  0  0  0
   60.1790   34.4680   48.8280 C   0  0  0  0  0  0  0  0  0  0  0  0
   58.1080   31.3110   45.5210 C   0  0  0  0  0  0  0  0  0  0  0  0
   59.5059   25.5217   46.4789 H   0  0  0  0  0  0  0  0  0  0  0  0
   57.8927   23.6973   47.0402 H   0  0  0  0  0  0  0  0  0  0  0  0
   55.4416   24.1003   46.7740 H   0  0  0  0  0  0  0  0  0  0  0  0
   59.5828   28.2431   45.1765 H   0  0  0  0  0  0  0  0  0  0  0  0
   61.4703   29.4843   46.2255 H   0  0  0  0  0  0  0  0  0  0  0  0
   61.2009   31.8782   46.8551 H   0  0  0  0  0  0  0  0  0  0  0  0
   57.7407   33.0374   49.8289 H   0  0  0  0  0  0  0  0  0  0  0  0
   57.8463   32.1178   48.2520 H   0  0  0  0  0  0  0  0  0  0  0  0
   59.0379   31.0687   50.2521 H   0  0  0  0  0  0  0  0  0  0  0  0
   60.0058   31.3100   48.7407 H   0  0  0  0  0  0  0  0  0  0  0  0
   63.2298   33.0462   51.5402 H   0  0  0  0  0  0  0  0  0  0  0  0
   63.5415   31.3102   51.1861 H   0  0  0  0  0  0  0  0  0  0  0  0
   62.9123   30.5091   48.7461 H   0  0  0  0  0  0  0  0  0  0  0  0
   63.3264   31.1005   46.3566 H   0  0  0  0  0  0  0  0  0  0  0  0
   63.8515   33.4558   45.7244 H   0  0  0  0  0  0  0  0  0  0  0  0
   63.9583   35.2271   47.4799 H   0  0  0  0  0  0  0  0  0  0  0  0
   63.5493   34.6448   49.8706 H   0  0  0  0  0  0  0  0  0  0  0  0
   59.6344   34.4180   50.9201 H   0  0  0  0  0  0  0  0  0  0  0  0
   61.3968   34.4677   50.6204 H   0  0  0  0  0  0  0  0  0  0  0  0
   60.1362   35.5662   48.7812 H   0  0  0  0  0  0  0  0  0  0  0  0
   60.9960   34.0729   48.2064 H   0  0  0  0  0  0  0  0  0  0  0  0
   57.1626   31.8331   45.3123 H   0  0  0  0  0  0  0  0  0  0  0  0
  1  2  2  0
  2  3  1  0
  3  4  2  3
  4  5  1  0
  5  6  1  0
  6  7  2  0
  7  8  1  0
  8  9  2  0
  9 10  1  0
  2 11  1  0
 11 12  2  0
 12 13  1  0
 13 14  2  0
 14 15  1  0
 15 16  1  0
 16 17  2  0
 16 18  2  0
 16 19  1  0
 19 20  1  0
 20 21  1  0
 21 22  1  0
 22 23  1  0
 23 24  2  0
 23 25  1  0
 25 26  1  0
 26 27  2  0
 27 28  1  0
 28 29  2  0
 29 30  1  0
 30 31  2  0
 22 32  1  0
 32 33  1  0
 15 34  2  0
  9  4  1  0
 34 11  1  0
 33 19  1  0
 31 26  1  0
  6 35  1  0
  7 36  1  0
  8 37  1  0
 12 38  1  0
 13 39  1  0
 14 40  1  0
 20 41  1  0
 20 42  1  0
 21 43  1  0
 21 44  1  0
 25 45  1  0
 25 46  1  0
 27 47  1  0
 28 48  1  0
 29 49  1  0
 30 50  1  0
 31 51  1  0
 32 52  1  0
 32 53  1  0
 33 54  1  0
 33 55  1  0
 34 56  1  0
M  CHG  2   5  -1  10  -1
M  END
>  <UniqueID>  (13) 
13

>  <SMILES>  (13) 
O=C(N=c1[n-]cccc1[O-])c1cccc(S(=O)(=O)N2CCN(C(=O)Cc3ccccc3)CC2)c1

>  <Energy>  (13) 
79.1689334595643

>  <Genealogy>  (13) 
O=C(N=c1[n-]cccc1[O-])c1cccc(S(=O)(=O)N2CCN(C(=O)Cc3ccccc3)CC2)c1 (protonated)
O=C(N=c1[n-]cccc1[O-])c1cccc(S(=O)(=O)N2CCN(C(=O)Cc3ccccc3)CC2)c1 (3D coordinates assigned)
O=C(N=c1[n-]cccc1[O-])c1cccc(S(=O)(=O)N2CCN(C(=O)Cc3ccccc3)CC2)c1 (nonaromatic ring conformer: 79.1689334595643 kcal/mol)

>  <smiles>  (13) 
O=C(N=c1[nH]cccc1O)c1cccc(S(=O)(=O)N2CCN(C(=O)Cc3ccccc3)CC2)c1

>  <score_type>  (13) 
oracle

>  <origin>  (13) 
adg

>  <m_score__min__energy>  (13) 
-16.170000000000002

>  <m_primary>  (13) 
energy

$$$$
13:0
     RDKit          3D

 38 40  0  0  0  0  0  0  0  0999 V2000
   56.2586   25.4601   46.3736 H   0  0  0  0  0  0  0  0  0  0  0  0
   56.6790   26.4120   46.0170 C   0  0  0  0  0  0  0  0  0  0  0  0
   55.8960   27.4490   45.6140 N   0  0  0  0  0  0  0  0  0  0  0  0
   56.6330   28.5050   45.2080 C   0  0  0  0  0  0  0  0  0  0  0  0
   56.0830   29.6180   44.8200 N   0  0  0  0  0  0  0  0  0  0  0  0
   56.7440   30.7730   44.2810 C   0  0  0  0  0  0  0  0  0  0  0  0
   56.4760   31.1280   43.1030 O   0  0  0  0  0  0  0  0  0  0  0  0
   57.7810   31.5400   45.0600 C   0  0  0  0  0  0  0  0  0  0  0  0
   57.8607   31.1141   46.0711 H   0  0  0  0  0  0  0  0  0  0  0  0
   58.7449   31.4630   44.5356 H   0  0  0  0  0  0  0  0  0  0  0  0
   57.4090   32.9690   45.1630 N   0  0  0  0  0  0  0  0  0  0  0  0
   57.1760   33.3980   46.5460 C   0  0  0  0  0  0  0  0  0  0  0  0
   56.8293   34.4419   46.5379 H   0  0  0  0  0  0  0  0  0  0  0  0
   56.4230   32.7253   46.9824 H   0  0  0  0  0  0  0  0  0  0  0  0
   58.4400   33.3060   47.4100 C   0  0  0  0  0  0  0  0  0  0  0  0
   58.3064   33.9592   48.2849 H   0  0  0  0  0  0  0  0  0  0  0  0
   58.5588   32.2460   47.6787 H   0  0  0  0  0  0  0  0  0  0  0  0
   59.6850   33.7070   46.7200 N   0  0  0  0  0  0  0  0  0  0  0  0
   60.9300   33.7520   47.4860 C   0  0  0  0  0  0  0  0  0  0  0  0
   60.9380   34.1080   48.8570 C   0  0  0  0  0  0  0  0  0  0  0  0
   59.9902   34.3571   49.3566 H   0  0  0  0  0  0  0  0  0  0  0  0
   62.1310   34.1480   49.5860 C   0  0  0  0  0  0  0  0  0  0  0  0
   62.1139   34.4283   50.6496 H   0  0  0  0  0  0  0  0  0  0  0  0
   63.3420   33.8340   48.9700 C   0  0  0  0  0  0  0  0  0  0  0  0
   64.4950   33.8740   49.6810 F   0  0  0  0  0  0  0  0  0  0  0  0
   63.3620   33.4750   47.6240 C   0  0  0  0  0  0  0  0  0  0  0  0
   64.3168   33.2250   47.1383 H   0  0  0  0  0  0  0  0  0  0  0  0
   62.1750   33.4310   46.8880 C   0  0  0  0  0  0  0  0  0  0  0  0
   62.2069   33.1425   45.8270 H   0  0  0  0  0  0  0  0  0  0  0  0
   59.7390   33.9180   45.2550 C   0  0  0  0  0  0  0  0  0  0  0  0
   60.1915   34.9034   45.0701 H   0  0  0  0  0  0  0  0  0  0  0  0
   60.3250   33.0805   44.8486 H   0  0  0  0  0  0  0  0  0  0  0  0
   58.3810   33.8760   44.5340 C   0  0  0  0  0  0  0  0  0  0  0  0
   57.9576   34.8912   44.5302 H   0  0  0  0  0  0  0  0  0  0  0  0
   58.5663   33.4966   43.5183 H   0  0  0  0  0  0  0  0  0  0  0  0
   58.2860   28.1980   45.3580 S   0  0  0  0  0  0  0  0  0  0  0  0
   58.0480   26.6410   45.9460 C   0  0  0  0  0  0  0  0  0  0  0  0
   58.8377   25.9282   46.2256 H   0  0  0  0  0  0  0  0  0  0  0  0
  1  2  1  0
  2  3  1  0
  3  4  1  0
  4  5  2  0
  5  6  1  0
  6  7  2  0
  6  8  1  0
  8  9  1  0
  8 10  1  0
  8 11  1  0
 11 12  1  0
 12 13  1  0
 12 14  1  0
 12 15  1  0
 15 16  1  0
 15 17  1  0
 15 18  1  0
 18 19  1  0
 19 20  2  0
 20 21  1  0
 20 22  1  0
 22 23  1  0
 22 24  2  0
 24 25  1  0
 24 26  1  0
 26 27  1  0
 26 28  2  0
 28 29  1  0
 18 30  1  0
 30 31  1  0
 30 32  1  0
 30 33  1  0
 33 34  1  0
 33 35  1  0
  4 36  1  0
 36 37  1  0
 37 38  1  0
 37  2  2  0
 33 11  1  0
 28 19  1  0
M  CHG  1   3  -1
M  END
>  <UniqueID>  (14) 
14

>  <SMILES>  (14) 
O=C(CN1CCN(c2ccc(F)cc2)CC1)/N=c1/[n-]ccs1

>  <Energy>  (14) 
86.86032453162758

>  <Genealogy>  (14) 
O=C(CN1CCN(c2ccc(F)cc2)CC1)N=c1[n-]ccs1 (protonated)
O=C(CN1CCN(c2ccc(F)cc2)CC1)/N=c1/[n-]ccs1 (cis-trans isomerization)
O=C(CN1CCN(c2ccc(F)cc2)CC1)/N=c1/[n-]ccs1 (3D coordinates assigned)
O=C(CN1CCN(c2ccc(F)cc2)CC1)/N=c1/[n-]ccs1 (nonaromatic ring conformer: 86.86032453162758 kcal/mol)

>  <smiles>  (14) 
O=C(CN1CCN(c2ccc(F)cc2)CC1)N=c1[nH]ccs1

>  <score_type>  (14) 
oracle

>  <origin>  (14) 
adg

>  <m_score__min__energy>  (14) 
-9.2400000000000002

>  <m_primary>  (14) 
energy

$$$$
14:0
     RDKit          3D

 24 25  0  0  0  0  0  0  0  0999 V2000
   54.7710   27.4780   46.2910 H   0  0  0  0  0  0  0  0  0  0  0  0
   55.1210   26.5640   46.0350 O   0  0  0  0  0  0  0  0  0  0  0  0
   56.4800   26.2940   45.8690 C   0  0  0  0  0  0  0  0  0  0  0  0
   56.8470   24.9640   45.6350 C   0  0  0  0  0  0  0  0  0  0  0  0
   56.0726   24.2138   45.4172 H   0  0  0  0  0  0  0  0  0  0  0  0
   58.1860   24.5840   45.6760 C   0  0  0  0  0  0  0  0  0  0  0  0
   58.4737   23.5380   45.4941 H   0  0  0  0  0  0  0  0  0  0  0  0
   59.1560   25.5440   45.9500 C   0  0  0  0  0  0  0  0  0  0  0  0
   60.2119   25.2492   46.0402 H   0  0  0  0  0  0  0  0  0  0  0  0
   58.7980   26.8450   46.1060 N   0  0  0  0  0  0  0  0  0  0  0  0
   57.5060   27.2690   46.0250 C   0  0  0  0  0  0  0  0  0  0  0  0
   57.2980   28.5560   46.0720 N   0  0  0  0  0  0  0  0  0  0  0  0
   56.5250   29.3900   45.1970 C   0  0  0  0  0  0  0  0  0  0  0  0
   55.3230   29.1080   44.9460 O   0  0  0  0  0  0  0  0  0  0  0  0
   57.1220   30.5210   44.5570 N   0  0  0  0  0  0  0  0  0  0  0  0
   57.7350   31.6210   45.2390 C   0  0  0  0  0  0  0  0  0  0  0  0
   57.1540   33.1940   45.1750 S   0  0  0  0  0  0  0  0  0  0  0  0
   58.4010   33.8830   46.0700 C   0  0  0  0  0  0  0  0  0  0  0  0
   58.4838   34.9449   46.3447 H   0  0  0  0  0  0  0  0  0  0  0  0
   59.3090   32.8850   46.4040 C   0  0  0  0  0  0  0  0  0  0  0  0
   60.2247   33.0728   46.9839 H   0  0  0  0  0  0  0  0  0  0  0  0
   58.9460   31.6160   45.9310 C   0  0  0  0  0  0  0  0  0  0  0  0
   59.8120   30.4740   46.0610 C   0  0  0  0  0  0  0  0  0  0  0  0
   60.5100   29.5560   46.1650 N   0  0  0  0  0  0  0  0  0  0  0  0
  1  2  1  0
  2  3  1  0
  3  4  2  0
  4  5  1  0
  4  6  1  0
  6  7  1  0
  6  8  2  0
  8  9  1  0
  8 10  1  0
 10 11  1  0
 11 12  2  0
 12 13  1  0
 13 14  2  0
 13 15  1  0
 15 16  1  0
 16 17  1  0
 17 18  1  0
 18 19  1  0
 18 20  2  0
 20 21  1  0
 20 22  1  0
 22 23  1  0
 23 24  3  0
 11  3  1  0
 22 16  2  0
M  CHG  2  10  -1  15  -1
M  END
>  <UniqueID>  (15) 
15

>  <SMILES>  (15) 
N#Cc1ccsc1[N-]C(=O)/N=c1/[n-]cccc1O

>  <Energy>  (15) 
72.33148741422988

>  <Genealogy>  (15) 
N#Cc1ccsc1[N-]C(=O)N=c1[n-]cccc1O (protonated)
N#Cc1ccsc1[N-]C(=O)/N=c1/[n-]cccc1O (cis-trans isomerization)
N#Cc1ccsc1[N-]C(=O)/N=c1/[n-]cccc1O (3D coordinates assigned)
N#Cc1ccsc1[N-]C(=O)/N=c1/[n-]cccc1O (optimized conformer: 72.33148741422988 kcal/mol)

>  <smiles>  (15) 
N#Cc1ccsc1NC(=O)N=c1[nH]cccc1O

>  <score_type>  (15) 
oracle

>  <origin>  (15) 
adg

>  <m_score__min__energy>  (15) 
-9.9700000000000006

>  <m_primary>  (15) 
energy

$$$$
15:0
     RDKit          3D

 51 53  0  0  0  0  0  0  0  0999 V2000
   55.2740   30.4480   44.0750 O   0  0  0  0  0  0  0  0  0  0  0  0
   56.4650   30.3770   44.4840 C   0  0  0  0  0  0  0  0  0  0  0  0
   57.5430   31.1470   43.7810 C   0  0  0  0  0  0  0  0  0  0  0  0
   57.4500   32.6560   44.0560 C   0  0  0  0  0  0  0  0  0  0  0  0
   58.1790   33.0450   45.3170 C   0  0  0  0  0  0  0  0  0  0  0  0
   59.2550   33.9430   45.2710 C   0  0  0  0  0  0  0  0  0  0  0  0
   59.9090   34.3230   46.4480 C   0  0  0  0  0  0  0  0  0  0  0  0
   59.4940   33.8130   47.6900 C   0  0  0  0  0  0  0  0  0  0  0  0
   60.1880   34.2240   48.9350 C   0  0  0  0  0  0  0  0  0  0  0  0
   59.5880   34.1240   50.0390 O   0  0  0  0  0  0  0  0  0  0  0  0
   61.5480   34.6800   48.9340 N   0  0  0  0  0  0  0  0  0  0  0  0
   62.6890   33.9440   49.3980 C   0  0  0  0  0  0  0  0  0  0  0  0
   63.3980   33.0700   48.5540 C   0  0  0  0  0  0  0  0  0  0  0  0
   64.5140   32.3780   49.0350 C   0  0  0  0  0  0  0  0  0  0  0  0
   64.9380   32.5650   50.3530 C   0  0  0  0  0  0  0  0  0  0  0  0
   64.2470   33.4440   51.1920 C   0  0  0  0  0  0  0  0  0  0  0  0
   63.1320   34.1370   50.7130 C   0  0  0  0  0  0  0  0  0  0  0  0
   58.3950   32.9390   47.7350 C   0  0  0  0  0  0  0  0  0  0  0  0
   57.7510   32.5540   46.5590 C   0  0  0  0  0  0  0  0  0  0  0  0
   56.7890   29.5780   45.6260 N   0  0  0  0  0  0  0  0  0  0  0  0
   57.5040   28.3120   45.5280 C   0  0  0  0  0  0  0  0  0  0  0  0
   59.0040   28.5620   45.3600 C   0  0  0  0  0  0  0  0  0  0  0  0
   59.5710   29.3010   46.5460 C   0  0  0  0  0  0  0  0  0  0  0  0
   58.9370   29.2250   47.7970 C   0  0  0  0  0  0  0  0  0  0  0  0
   59.4260   29.9590   48.8830 C   0  0  0  0  0  0  0  0  0  0  0  0
   60.5500   30.7770   48.7290 C   0  0  0  0  0  0  0  0  0  0  0  0
   61.0270   31.5020   49.8170 O   0  0  0  0  0  0  0  0  0  0  0  0
   61.1830   30.8610   47.4820 C   0  0  0  0  0  0  0  0  0  0  0  0
   60.6950   30.1310   46.3950 C   0  0  0  0  0  0  0  0  0  0  0  0
   58.5217   30.7832   44.1271 H   0  0  0  0  0  0  0  0  0  0  0  0
   57.4188   30.9920   42.6991 H   0  0  0  0  0  0  0  0  0  0  0  0
   57.8919   33.1997   43.2080 H   0  0  0  0  0  0  0  0  0  0  0  0
   56.3883   32.9139   44.1834 H   0  0  0  0  0  0  0  0  0  0  0  0
   59.5866   34.3507   44.3047 H   0  0  0  0  0  0  0  0  0  0  0  0
   60.7539   35.0258   46.4009 H   0  0  0  0  0  0  0  0  0  0  0  0
   63.0735   32.9304   47.5123 H   0  0  0  0  0  0  0  0  0  0  0  0
   65.0582   31.6861   48.3753 H   0  0  0  0  0  0  0  0  0  0  0  0
   65.8159   32.0203   50.7306 H   0  0  0  0  0  0  0  0  0  0  0  0
   64.5811   33.5903   52.2298 H   0  0  0  0  0  0  0  0  0  0  0  0
   62.5991   34.8380   51.3722 H   0  0  0  0  0  0  0  0  0  0  0  0
   58.0403   32.5560   48.7032 H   0  0  0  0  0  0  0  0  0  0  0  0
   56.8997   31.8590   46.6063 H   0  0  0  0  0  0  0  0  0  0  0  0
   57.3338   27.7271   46.4439 H   0  0  0  0  0  0  0  0  0  0  0  0
   57.1330   27.7579   44.6532 H   0  0  0  0  0  0  0  0  0  0  0  0
   59.5196   27.5955   45.2597 H   0  0  0  0  0  0  0  0  0  0  0  0
   59.1555   29.1781   44.4614 H   0  0  0  0  0  0  0  0  0  0  0  0
   58.0513   28.5850   47.9235 H   0  0  0  0  0  0  0  0  0  0  0  0
   58.9253   29.8926   49.8602 H   0  0  0  0  0  0  0  0  0  0  0  0
   61.0350   32.5160   49.8170 H   0  0  0  0  0  0  0  0  0  0  0  0
   62.0671   31.5037   47.3582 H   0  0  0  0  0  0  0  0  0  0  0  0
   61.1927   30.2063   45.4169 H   0  0  0  0  0  0  0  0  0  0  0  0
  1  2  2  0
  2  3  1  0
  3  4  1  0
  4  5  1  0
  5  6  2  0
  6  7  1  0
  7  8  2  0
  8  9  1  0
  9 10  2  0
  9 11  1  0
 11 12  1  0
 12 13  2  0
 13 14  1  0
 14 15  2  0
 15 16  1  0
 16 17  2  0
  8 18  1  0
 18 19  2  0
  2 20  1  0
 20 21  1  0
 21 22  1  0
 22 23  1  0
 23 24  2  0
 24 25  1  0
 25 26  2  0
 26 27  1  0
 26 28  1  0
 28 29  2  0
 19  5  1  0
 29 23  1  0
 17 12  1  0
  3 30  1  0
  3 31  1  0
  4 32  1  0
  4 33  1  0
  6 34  1  0
  7 35  1  0
 13 36  1  0
 14 37  1  0
 15 38  1  0
 16 39  1  0
 17 40  1  0
 18 41  1  0
 19 42  1  0
 21 43  1  0
 21 44  1  0
 22 45  1  0
 22 46  1  0
 24 47  1  0
 25 48  1  0
 27 49  1  0
 28 50  1  0
 29 51  1  0
M  CHG  2  11  -1  20  -1
M  END
>  <UniqueID>  (16) 
16

>  <SMILES>  (16) 
O=C(CCc1ccc(C(=O)[N-]c2ccccc2)cc1)[N-]CCc1ccc(O)cc1

>  <Energy>  (16) 
46.46444581556373

>  <Genealogy>  (16) 
O=C(CCc1ccc(C(=O)[N-]c2ccccc2)cc1)[N-]CCc1ccc(O)cc1 (protonated)
O=C(CCc1ccc(C(=O)[N-]c2ccccc2)cc1)[N-]CCc1ccc(O)cc1 (3D coordinates assigned)
O=C(CCc1ccc(C(=O)[N-]c2ccccc2)cc1)[N-]CCc1ccc(O)cc1 (optimized conformer: 46.46444581556373 kcal/mol)

>  <smiles>  (16) 
O=C(CCc1ccc(C(=O)Nc2ccccc2)cc1)NCCc1ccc(O)cc1

>  <score_type>  (16) 
oracle

>  <origin>  (16) 
adg

>  <m_score__min__energy>  (16) 
-12.1

>  <m_primary>  (16) 
energy

$$$$
16:0
     RDKit          3D

 45 47  0  0  0  0  0  0  0  0999 V2000
   63.0580   34.0290   49.8660 C   0  0  0  0  0  0  0  0  0  0  0  0
   62.0440   33.3220   49.0150 C   0  0  0  0  0  0  0  0  0  0  0  0
   60.6880   33.3350   49.3730 C   0  0  0  0  0  0  0  0  0  0  0  0
   59.7490   32.6460   48.6020 C   0  0  0  0  0  0  0  0  0  0  0  0
   60.1550   31.9060   47.4810 C   0  0  0  0  0  0  0  0  0  0  0  0
   58.9670   31.0320   46.4960 S   0  0  0  0  0  0  0  0  0  0  0  0
   59.6550   30.4310   45.3020 O   0  0  0  0  0  0  0  0  0  0  0  0
   58.4380   29.8910   47.3200 O   0  0  0  0  0  0  0  0  0  0  0  0
   57.6110   32.0270   45.9590 N   0  0  0  0  0  0  0  0  0  0  0  0
   57.9310   33.4510   46.1520 C   0  0  0  0  0  0  0  0  0  0  0  0
   58.3890   33.9320   44.8250 C   0  0  0  0  0  0  0  0  0  0  0  0
   58.9090   35.0190   44.6340 O   0  0  0  0  0  0  0  0  0  0  0  0
   58.1380   32.9390   43.7620 C   0  0  0  0  0  0  0  0  0  0  0  0
   57.2750   31.9250   44.5120 C   0  0  1  0  0  0  0  0  0  0  0  0
   57.2910   30.5140   43.8830 C   0  0  0  0  0  0  0  0  0  0  0  0
   56.2130   29.6100   44.4180 C   0  0  0  0  0  0  0  0  0  0  0  0
   55.1290   29.5160   43.7800 O   0  0  0  0  0  0  0  0  0  0  0  0
   56.4390   28.8330   45.6080 N   0  0  0  0  0  0  0  0  0  0  0  0
   56.6170   27.5450   45.6870 C   0  0  0  0  0  0  0  0  0  0  0  0
   55.5680   26.7020   45.9060 N   0  0  0  0  0  0  0  0  0  0  0  0
   55.7280   25.3550   45.9940 C   0  0  0  0  0  0  0  0  0  0  0  0
   56.9970   24.7930   45.8580 C   0  0  0  0  0  0  0  0  0  0  0  0
   58.0920   25.6260   45.6320 C   0  0  0  0  0  0  0  0  0  0  0  0
   57.9130   27.0110   45.5450 C   0  0  0  0  0  0  0  0  0  0  0  0
   59.0250   27.8240   45.3180 O   0  0  0  0  0  0  0  0  0  0  0  0
   61.5090   31.9100   47.1130 C   0  0  0  0  0  0  0  0  0  0  0  0
   62.4500   32.5980   47.8850 C   0  0  0  0  0  0  0  0  0  0  0  0
   62.8233   33.8654   50.9282 H   0  0  0  0  0  0  0  0  0  0  0  0
   64.0606   33.6332   49.6468 H   0  0  0  0  0  0  0  0  0  0  0  0
   63.0333   35.1067   49.6468 H   0  0  0  0  0  0  0  0  0  0  0  0
   60.3625   33.8903   50.2650 H   0  0  0  0  0  0  0  0  0  0  0  0
   58.6842   32.6837   48.8754 H   0  0  0  0  0  0  0  0  0  0  0  0
   57.0384   34.0061   46.4761 H   0  0  0  0  0  0  0  0  0  0  0  0
   58.6962   33.5981   46.9284 H   0  0  0  0  0  0  0  0  0  0  0  0
   57.5958   33.3827   42.9139 H   0  0  0  0  0  0  0  0  0  0  0  0
   59.0478   32.5161   43.3110 H   0  0  0  0  0  0  0  0  0  0  0  0
   56.2065   32.1669   44.4134 H   0  0  0  0  0  0  0  0  0  0  0  0
   57.1542   30.6149   42.7962 H   0  0  0  0  0  0  0  0  0  0  0  0
   58.2572   30.0548   44.1389 H   0  0  0  0  0  0  0  0  0  0  0  0
   54.8564   24.7082   46.1725 H   0  0  0  0  0  0  0  0  0  0  0  0
   57.1327   23.7037   45.9283 H   0  0  0  0  0  0  0  0  0  0  0  0
   59.0976   25.1940   45.5220 H   0  0  0  0  0  0  0  0  0  0  0  0
   59.0250   28.8140   45.5330 H   0  0  0  0  0  0  0  0  0  0  0  0
   61.8321   31.3686   46.2116 H   0  0  0  0  0  0  0  0  0  0  0  0
   63.5133   32.5712   47.6047 H   0  0  0  0  0  0  0  0  0  0  0  0
  1  2  1  0
  2  3  2  0
  3  4  1  0
  4  5  2  0
  5  6  1  0
  6  7  2  0
  6  8  2  0
  6  9  1  0
  9 10  1  0
 10 11  1  0
 11 12  2  0
 11 13  1  0
 13 14  1  0
 14 15  1  0
 15 16  1  0
 16 17  2  0
 16 18  1  0
 18 19  2  3
 19 20  1  0
 20 21  1  0
 21 22  2  0
 22 23  1  0
 23 24  2  0
 24 25  1  0
  5 26  1  0
 26 27  2  0
 27  2  1  0
 14  9  1  0
 24 19  1  0
  1 28  1  0
  1 29  1  0
  1 30  1  0
  3 31  1  0
  4 32  1  0
 10 33  1  0
 10 34  1  0
 13 35  1  0
 13 36  1  0
 14 37  1  1
 15 38  1  0
 15 39  1  0
 21 40  1  0
 22 41  1  0
 23 42  1  0
 25 43  1  0
 26 44  1  0
 27 45  1  0
M  CHG  1  20  -1
M  END
>  <UniqueID>  (17) 
17

>  <SMILES>  (17) 
Cc1ccc(S(=O)(=O)N2CC(=O)C[C@H]2CC(=O)N=c2[n-]cccc2O)cc1

>  <Energy>  (17) 
58.33716856950326

>  <Genealogy>  (17) 
Cc1ccc(S(=O)(=O)N2CC(=O)CC2CC(=O)N=c2[n-]cccc2O)cc1 (protonated)
Cc1ccc(S(=O)(=O)N2CC(=O)C[C@H]2CC(=O)N=c2[n-]cccc2O)cc1 (chirality)
Cc1ccc(S(=O)(=O)N2CC(=O)C[C@H]2CC(=O)N=c2[n-]cccc2O)cc1 (3D coordinates assigned)
Cc1ccc(S(=O)(=O)N2CC(=O)C[C@H]2CC(=O)N=c2[n-]cccc2O)cc1 (nonaromatic ring conformer: 58.33716856950326 kcal/mol)

>  <smiles>  (17) 
Cc1ccc(S(=O)(=O)N2CC(=O)CC2CC(=O)N=c2[nH]cccc2O)cc1

>  <score_type>  (17) 
oracle

>  <origin>  (17) 
adg

>  <m_score__min__energy>  (17) 
-11.220000000000001

>  <m_primary>  (17) 
energy

$$$$
17:0
     RDKit          3D

 41 43  0  0  0  0  0  0  0  0999 V2000
   58.1290   33.7890   45.7250 C   0  0  0  0  0  0  0  0  0  0  0  0
   58.4220   32.3180   45.8210 C   0  0  0  0  0  0  0  0  0  0  0  0
   59.6450   31.8770   46.3480 C   0  0  0  0  0  0  0  0  0  0  0  0
   59.9250   30.5130   46.4290 C   0  0  0  0  0  0  0  0  0  0  0  0
   58.9860   29.5760   45.9970 C   0  0  0  0  0  0  0  0  0  0  0  0
   57.7490   29.9950   45.4790 C   0  0  0  0  0  0  0  0  0  0  0  0
   56.7600   28.9760   45.0560 C   0  0  0  0  0  0  0  0  0  0  0  0
   55.5340   29.2620   45.0780 O   0  0  0  0  0  0  0  0  0  0  0  0
   57.1530   27.6580   44.6460 N   0  0  0  0  0  0  0  0  0  0  0  0
   57.1490   26.4830   45.4710 C   0  0  0  0  0  0  0  0  0  0  0  0
   58.3550   25.8000   45.6700 C   0  0  0  0  0  0  0  0  0  0  0  0
   58.3920   24.6400   46.4480 C   0  0  0  0  0  0  0  0  0  0  0  0
   57.2340   24.1670   47.0710 C   0  0  0  0  0  0  0  0  0  0  0  0
   57.3040   22.9590   47.8390 N   0  0  0  0  0  0  0  0  0  0  0  0
   56.9210   21.6570   47.3860 C   0  0  0  0  0  0  0  0  0  0  0  0
   57.4530   20.6230   47.8740 O   0  0  0  0  0  0  0  0  0  0  0  0
   55.8970   21.5210   46.3040 C   0  0  0  0  0  0  0  0  0  0  0  0
   56.5630   21.5360   44.9660 C   0  0  0  0  0  0  0  0  0  0  0  0
   57.9240   21.4920   44.7390 C   0  0  0  0  0  0  0  0  0  0  0  0
   58.0710   21.4880   43.3690 C   0  0  0  0  0  0  0  0  0  0  0  0
   56.7940   21.5300   42.8470 C   0  0  0  0  0  0  0  0  0  0  0  0
   55.9160   21.5550   43.8240 O   0  0  0  0  0  0  0  0  0  0  0  0
   56.0230   24.8580   46.8860 C   0  0  0  0  0  0  0  0  0  0  0  0
   55.9810   26.0190   46.1070 C   0  0  0  0  0  0  0  0  0  0  0  0
   54.7820   26.7130   45.9940 O   0  0  0  0  0  0  0  0  0  0  0  0
   57.4830   31.3760   45.3630 C   0  0  0  0  0  0  0  0  0  0  0  0
   56.3000   31.8160   44.7740 O   0  0  0  0  0  0  0  0  0  0  0  0
   58.0446   34.2128   46.7366 H   0  0  0  0  0  0  0  0  0  0  0  0
   58.9448   34.2908   45.1841 H   0  0  0  0  0  0  0  0  0  0  0  0
   57.1831   33.9399   45.1841 H   0  0  0  0  0  0  0  0  0  0  0  0
   60.3863   32.6100   46.6988 H   0  0  0  0  0  0  0  0  0  0  0  0
   60.8898   30.1748   46.8350 H   0  0  0  0  0  0  0  0  0  0  0  0
   59.2156   28.5022   46.0624 H   0  0  0  0  0  0  0  0  0  0  0  0
   59.2797   26.1793   45.2106 H   0  0  0  0  0  0  0  0  0  0  0  0
   59.3396   24.0951   46.5710 H   0  0  0  0  0  0  0  0  0  0  0  0
   55.3563   20.5716   46.4313 H   0  0  0  0  0  0  0  0  0  0  0  0
   55.1917   22.3628   46.3661 H   0  0  0  0  0  0  0  0  0  0  0  0
   58.7237   21.4657   45.4938 H   0  0  0  0  0  0  0  0  0  0  0  0
   59.0151   21.4575   42.8053 H   0  0  0  0  0  0  0  0  0  0  0  0
   56.5484   21.5409   41.7748 H   0  0  0  0  0  0  0  0  0  0  0  0
   55.1026   24.4828   47.3572 H   0  0  0  0  0  0  0  0  0  0  0  0
  1  2  1  0
  2  3  2  0
  3  4  1  0
  4  5  2  0
  5  6  1  0
  6  7  1  0
  7  8  2  0
  7  9  1  0
  9 10  1  0
 10 11  2  0
 11 12  1  0
 12 13  2  0
 13 14  1  0
 14 15  1  0
 15 16  2  0
 15 17  1  0
 17 18  1  0
 18 19  2  0
 19 20  1  0
 20 21  2  0
 21 22  1  0
 13 23  1  0
 23 24  2  0
 24 25  1  0
  6 26  2  0
 26 27  1  0
 26  2  1  0
 24 10  1  0
 22 18  1  0
  1 28  1  0
  1 29  1  0
  1 30  1  0
  3 31  1  0
  4 32  1  0
  5 33  1  0
 11 34  1  0
 12 35  1  0
 17 36  1  0
 17 37  1  0
 19 38  1  0
 20 39  1  0
 21 40  1  0
 23 41  1  0
M  CHG  4   9  -1  14  -1  25  -1  27  -1
M  END
>  <UniqueID>  (18) 
18

>  <SMILES>  (18) 
Cc1cccc(C(=O)[N-]c2ccc([N-]C(=O)Cc3ccco3)cc2[O-])c1[O-]

>  <Energy>  (18) 
80.7807752212023

>  <Genealogy>  (18) 
Cc1cccc(C(=O)[N-]c2ccc([N-]C(=O)Cc3ccco3)cc2[O-])c1[O-] (protonated)
Cc1cccc(C(=O)[N-]c2ccc([N-]C(=O)Cc3ccco3)cc2[O-])c1[O-] (3D coordinates assigned)
Cc1cccc(C(=O)[N-]c2ccc([N-]C(=O)Cc3ccco3)cc2[O-])c1[O-] (optimized conformer: 80.7807752212023 kcal/mol)

>  <smiles>  (18) 
Cc1cccc(C(=O)Nc2ccc(NC(=O)Cc3ccco3)cc2O)c1O

>  <score_type>  (18) 
oracle

>  <origin>  (18) 
adg

>  <m_score__min__energy>  (18) 
-17.59

>  <m_primary>  (18) 
energy

$$$$
18:0
     RDKit          3D

 40 42  0  0  0  0  0  0  0  0999 V2000
   56.6990   29.4110   43.1120 O   0  0  0  0  0  0  0  0  0  0  0  0
   56.7490   29.5670   44.3610 C   0  0  0  0  0  0  0  0  0  0  0  0
   56.6540   28.3640   45.2540 C   0  0  0  0  0  0  0  0  0  0  0  0
   58.2230   27.4280   45.2550 S   0  0  0  0  0  0  0  0  0  0  0  0
   59.1860   28.7400   46.0070 C   0  0  0  0  0  0  0  0  0  0  0  0
   58.7320   29.3850   47.1560 C   0  0  0  0  0  0  0  0  0  0  0  0
   59.5050   30.4000   47.7160 C   0  0  0  0  0  0  0  0  0  0  0  0
   60.7230   30.7530   47.1130 C   0  0  0  0  0  0  0  0  0  0  0  0
   61.5960   31.8220   47.6600 C   0  0  0  0  0  0  0  0  0  0  0  0
   61.1570   32.6620   48.7010 C   0  0  0  0  0  0  0  0  0  0  0  0
   62.0000   33.6640   49.1820 C   0  0  0  0  0  0  0  0  0  0  0  0
   63.2670   33.8310   48.6280 C   0  0  0  0  0  0  0  0  0  0  0  0
   63.6740   32.9920   47.5910 C   0  0  0  0  0  0  0  0  0  0  0  0
   62.8410   32.0190   47.1290 N   0  0  0  0  0  0  0  0  0  0  0  0
   61.1200   30.0730   46.0010 N   0  0  0  0  0  0  0  0  0  0  0  0
   60.3780   29.1010   45.4660 N   0  0  0  0  0  0  0  0  0  0  0  0
   56.8630   30.8950   44.8870 N   0  0  0  0  0  0  0  0  0  0  0  0
   57.4090   32.0300   44.1530 C   0  0  0  0  0  0  0  0  0  0  0  0
   58.0710   32.9720   45.1160 C   0  0  0  0  0  0  0  0  0  0  0  0
   58.9570   33.9570   44.6460 C   0  0  0  0  0  0  0  0  0  0  0  0
   59.5470   34.8560   45.5400 C   0  0  0  0  0  0  0  0  0  0  0  0
   59.2490   34.7860   46.9030 C   0  0  0  0  0  0  0  0  0  0  0  0
   58.3560   33.8200   47.3750 C   0  0  0  0  0  0  0  0  0  0  0  0
   57.7630   32.9190   46.4850 C   0  0  0  0  0  0  0  0  0  0  0  0
   56.4303   28.6933   46.2794 H   0  0  0  0  0  0  0  0  0  0  0  0
   55.8541   27.7092   44.8779 H   0  0  0  0  0  0  0  0  0  0  0  0
   57.7750   29.0963   47.6152 H   0  0  0  0  0  0  0  0  0  0  0  0
   59.1639   30.9205   48.6230 H   0  0  0  0  0  0  0  0  0  0  0  0
   60.1542   32.5289   49.1330 H   0  0  0  0  0  0  0  0  0  0  0  0
   61.6646   34.3214   49.9977 H   0  0  0  0  0  0  0  0  0  0  0  0
   63.9393   34.6161   49.0043 H   0  0  0  0  0  0  0  0  0  0  0  0
   64.6716   33.1167   47.1447 H   0  0  0  0  0  0  0  0  0  0  0  0
   63.1860   31.4070   46.3550 H   0  0  0  0  0  0  0  0  0  0  0  0
   58.1486   31.6728   43.4213 H   0  0  0  0  0  0  0  0  0  0  0  0
   56.5973   32.5526   43.6258 H   0  0  0  0  0  0  0  0  0  0  0  0
   59.1868   34.0208   43.5722 H   0  0  0  0  0  0  0  0  0  0  0  0
   60.2468   35.6195   45.1694 H   0  0  0  0  0  0  0  0  0  0  0  0
   59.7174   35.4915   47.6051 H   0  0  0  0  0  0  0  0  0  0  0  0
   58.1193   33.7684   48.4480 H   0  0  0  0  0  0  0  0  0  0  0  0
   57.0530   32.1664   46.8585 H   0  0  0  0  0  0  0  0  0  0  0  0
  1  2  2  0
  2  3  1  0
  3  4  1  0
  4  5  1  0
  5  6  2  0
  6  7  1  0
  7  8  2  0
  8  9  1  0
  9 10  2  0
 10 11  1  0
 11 12  2  0
 12 13  1  0
 13 14  2  0
  8 15  1  0
 15 16  2  0
  2 17  1  0
 17 18  1  0
 18 19  1  0
 19 20  2  0
 20 21  1  0
 21 22  2  0
 22 23  1  0
 23 24  2  0
 16  5  1  0
 24 19  1  0
 14  9  1  0
  3 25  1  0
  3 26  1  0
  6 27  1  0
  7 28  1  0
 10 29  1  0
 11 30  1  0
 12 31  1  0
 13 32  1  0
 14 33  1  0
 18 34  1  0
 18 35  1  0
 20 36  1  0
 21 37  1  0
 22 38  1  0
 23 39  1  0
 24 40  1  0
M  CHG  2  14   1  17  -1
M  END
>  <UniqueID>  (19) 
19

>  <SMILES>  (19) 
O=C(CSc1ccc(-c2cccc[nH+]2)nn1)[N-]Cc1ccccc1

>  <Energy>  (19) 
40.596443443443356

>  <Genealogy>  (19) 
O=C(CSc1ccc(-c2cccc[nH+]2)nn1)[N-]Cc1ccccc1 (protonated)
O=C(CSc1ccc(-c2cccc[nH+]2)nn1)[N-]Cc1ccccc1 (3D coordinates assigned)
O=C(CSc1ccc(-c2cccc[nH+]2)nn1)[N-]Cc1ccccc1 (optimized conformer: 40.596443443443356 kcal/mol)

>  <smiles>  (19) 
O=C(CSc1ccc(-c2ccccn2)nn1)NCc1ccccc1

>  <score_type>  (19) 
oracle

>  <origin>  (19) 
adg

>  <m_score__min__energy>  (19) 
-8.5500000000000007

>  <m_primary>  (19) 
energy

$$$$
19:0
     RDKit          3D

 65 68  0  0  0  0  0  0  0  0999 V2000
   51.1774   29.8193   50.9768 H   0  0  0  0  0  0  0  0  0  0  0  0
   52.1600   29.8760   51.4680 C   0  0  0  0  0  0  0  0  0  0  0  0
   53.1240   30.7780   51.0050 C   0  0  0  0  0  0  0  0  0  0  0  0
   52.8939   31.4400   50.1571 H   0  0  0  0  0  0  0  0  0  0  0  0
   54.3820   30.8400   51.6190 C   0  0  0  0  0  0  0  0  0  0  0  0
   55.1348   31.5548   51.2552 H   0  0  0  0  0  0  0  0  0  0  0  0
   54.6850   29.9930   52.6970 C   0  0  0  0  0  0  0  0  0  0  0  0
   56.0430   30.0480   53.3450 C   0  0  0  0  0  0  0  0  0  0  0  0
   56.0285   29.4404   54.2618 H   0  0  0  0  0  0  0  0  0  0  0  0
   56.2758   31.0970   53.5803 H   0  0  0  0  0  0  0  0  0  0  0  0
   57.1240   29.5090   52.4050 C   0  0  0  0  0  0  0  0  0  0  0  0
   56.6616   29.2073   51.4536 H   0  0  0  0  0  0  0  0  0  0  0  0
   57.6111   28.6421   52.8753 H   0  0  0  0  0  0  0  0  0  0  0  0
   58.1250   30.5400   52.1500 N   0  0  0  0  0  0  0  0  0  0  0  0
   57.8160   31.8370   51.6310 C   0  0  0  0  0  0  0  0  0  0  0  0
   56.9390   32.5360   52.2090 O   0  0  0  0  0  0  0  0  0  0  0  0
   58.5410   32.3970   50.4520 C   0  0  0  0  0  0  0  0  0  0  0  0
   58.1500   31.9620   49.1700 C   0  0  0  0  0  0  0  0  0  0  0  0
   57.3533   31.2094   49.0755 H   0  0  0  0  0  0  0  0  0  0  0  0
   58.7570   32.4700   48.0120 C   0  0  0  0  0  0  0  0  0  0  0  0
   58.2990   32.0720   46.7130 N   0  0  0  0  0  0  0  0  0  0  0  0
   58.1990   30.8770   46.1910 C   0  0  0  0  0  0  0  0  0  0  0  0
   57.0450   30.5950   45.5460 N   0  0  0  0  0  0  0  0  0  0  0  0
   56.7540   29.3420   45.1360 C   0  0  0  0  0  0  0  0  0  0  0  0
   55.6600   29.1340   44.5450 O   0  0  0  0  0  0  0  0  0  0  0  0
   57.6190   28.3200   45.3960 N   0  0  0  0  0  0  0  0  0  0  0  0
   57.2630   26.9300   45.0470 C   0  0  0  0  0  0  0  0  0  0  0  0
   56.8079   26.9120   44.0457 H   0  0  0  0  0  0  0  0  0  0  0  0
   58.1737   26.3131   45.0570 H   0  0  0  0  0  0  0  0  0  0  0  0
   56.2900   26.3800   46.0420 C   0  0  0  0  0  0  0  0  0  0  0  0
   55.0750   26.7100   45.9880 O   0  0  0  0  0  0  0  0  0  0  0  0
   56.7300   25.5410   47.0590 O   0  0  0  0  0  0  0  0  0  0  0  0
   58.8170   28.6000   46.0000 C   0  0  0  0  0  0  0  0  0  0  0  0
   59.6200   27.6570   46.2490 O   0  0  0  0  0  0  0  0  0  0  0  0
   59.1670   29.8950   46.3100 N   0  0  0  0  0  0  0  0  0  0  0  0
   60.6170   30.2090   46.3560 C   0  0  0  0  0  0  0  0  0  0  0  0
   60.8034   31.1504   45.8184 H   0  0  0  0  0  0  0  0  0  0  0  0
   61.1793   29.3914   45.8813 H   0  0  0  0  0  0  0  0  0  0  0  0
   61.0670   30.3540   47.7890 C   0  0  0  0  0  0  0  0  0  0  0  0
   62.1090   31.2350   48.1180 C   0  0  0  0  0  0  0  0  0  0  0  0
   62.5692   31.8548   47.3344 H   0  0  0  0  0  0  0  0  0  0  0  0
   62.5650   31.3290   49.4360 C   0  0  0  0  0  0  0  0  0  0  0  0
   63.3710   32.0340   49.6878 H   0  0  0  0  0  0  0  0  0  0  0  0
   61.9990   30.5280   50.4390 C   0  0  0  0  0  0  0  0  0  0  0  0
   62.4610   30.6600   51.8610 C   0  0  0  0  0  0  0  0  0  0  0  0
   61.6291   30.4223   52.5404 H   0  0  0  0  0  0  0  0  0  0  0  0
   63.2930   29.9636   52.0424 H   0  0  0  0  0  0  0  0  0  0  0  0
   62.7995   31.6908   52.0424 H   0  0  0  0  0  0  0  0  0  0  0  0
   60.9530   29.6520   50.1140 C   0  0  0  0  0  0  0  0  0  0  0  0
   60.4912   29.0350   50.8989 H   0  0  0  0  0  0  0  0  0  0  0  0
   60.4950   29.5600   48.7960 C   0  0  0  0  0  0  0  0  0  0  0  0
   59.6823   28.8619   48.5467 H   0  0  0  0  0  0  0  0  0  0  0  0
   59.7230   33.4660   48.1240 C   0  0  0  0  0  0  0  0  0  0  0  0
   60.1559   33.9132   47.2170 H   0  0  0  0  0  0  0  0  0  0  0  0
   60.1440   33.8990   49.3790 C   0  0  0  0  0  0  0  0  0  0  0  0
   60.9267   34.6683   49.4530 H   0  0  0  0  0  0  0  0  0  0  0  0
   59.5820   33.3660   50.5530 C   0  0  0  0  0  0  0  0  0  0  0  0
   60.1050   33.8670   51.8740 C   0  0  0  0  0  0  0  0  0  0  0  0
   59.5756   33.3599   52.6941 H   0  0  0  0  0  0  0  0  0  0  0  0
   61.1819   33.6549   51.9462 H   0  0  0  0  0  0  0  0  0  0  0  0
   59.9393   34.9521   51.9462 H   0  0  0  0  0  0  0  0  0  0  0  0
   53.7020   29.1080   53.1740 C   0  0  0  0  0  0  0  0  0  0  0  0
   53.9196   28.4609   54.0365 H   0  0  0  0  0  0  0  0  0  0  0  0
   52.4480   29.0470   52.5560 C   0  0  0  0  0  0  0  0  0  0  0  0
   51.6870   28.3449   52.9273 H   0  0  0  0  0  0  0  0  0  0  0  0
  1  2  1  0
  2  3  2  0
  3  4  1  0
  3  5  1  0
  5  6  1  0
  5  7  2  0
  7  8  1  0
  8  9  1  0
  8 10  1  0
  8 11  1  0
 11 12  1  0
 11 13  1  0
 11 14  1  0
 14 15  1  0
 15 16  2  0
 15 17  1  0
 17 18  2  0
 18 19  1  0
 18 20  1  0
 20 21  1  0
 21 22  2  0
 22 23  1  0
 23 24  1  0
 24 25  2  0
 24 26  1  0
 26 27  1  0
 27 28  1  0
 27 29  1  0
 27 30  1  0
 30 31  2  0
 30 32  1  0
 26 33  1  0
 33 34  2  0
 33 35  1  0
 35 36  1  0
 36 37  1  0
 36 38  1  0
 36 39  1  0
 39 40  2  0
 40 41  1  0
 40 42  1  0
 42 43  1  0
 42 44  2  0
 44 45  1  0
 45 46  1  0
 45 47  1  0
 45 48  1  0
 44 49  1  0
 49 50  1  0
 49 51  2  0
 51 52  1  0
 20 53  2  0
 53 54  1  0
 53 55  1  0
 55 56  1  0
 55 57  2  0
 57 58  1  0
 58 59  1  0
 58 60  1  0
 58 61  1  0
  7 62  1  0
 62 63  1  0
 62 64  2  0
 64 65  1  0
 64  2  1  0
 57 17  1  0
 35 22  1  0
 51 39  1  0
M  CHG  3  14  -1  23  -1  32  -1
M  END
>  <UniqueID>  (20) 
20

>  <SMILES>  (20) 
Cc1ccc(Cn2c(=O)n(CC(=O)[O-])c(=O)[n-]/c2=N/c2ccc(C)c(C(=O)[N-]CCc3ccccc3)c2)cc1

>  <Energy>  (20) 
98.38407797259525

>  <Genealogy>  (20) 
Cc1ccc(Cn2c(=Nc3ccc(C)c(C(=O)[N-]CCc4ccccc4)c3)[n-]c(=O)n(CC(=O)[O-])c2=O)cc1 (protonated)
Cc1ccc(Cn2c(=O)n(CC(=O)[O-])c(=O)[n-]/c2=N/c2ccc(C)c(C(=O)[N-]CCc3ccccc3)c2)cc1 (cis-trans isomerization)
Cc1ccc(Cn2c(=O)n(CC(=O)[O-])c(=O)[n-]/c2=N/c2ccc(C)c(C(=O)[N-]CCc3ccccc3)c2)cc1 (3D coordinates assigned)
Cc1ccc(Cn2c(=O)n(CC(=O)[O-])c(=O)[n-]/c2=N/c2ccc(C)c(C(=O)[N-]CCc3ccccc3)c2)cc1 (optimized conformer: 98.38407797259525 kcal/mol)

>  <smiles>  (20) 
Cc1ccc(Cn2c(=Nc3ccc(C)c(C(=O)NCCc4ccccc4)c3)[nH]c(=O)n(CC(=O)O)c2=O)cc1

>  <score_type>  (20) 
oracle

>  <origin>  (20) 
adg

>  <m_score__min__energy>  (20) 
-14.73

>  <m_primary>  (20) 
energy

$$$$
20:0
     RDKit          3D

 39 41  0  0  0  0  0  0  0  0999 V2000
   55.6780   29.7150   44.8870 O   0  0  0  0  0  0  0  0  0  0  0  0
   56.3780   30.4050   44.0990 C   0  0  0  0  0  0  0  0  0  0  0  0
   56.1040   30.4540   42.7170 N   0  0  0  0  0  0  0  0  0  0  0  0
   57.0470   31.3590   42.1090 C   0  0  0  0  0  0  0  0  0  0  0  0
   58.0800   31.6340   43.2160 C   0  0  0  0  0  0  0  0  0  0  0  0
   57.4740   31.2340   44.5270 N   0  0  2  0  0  0  0  0  0  0  0  0
   58.4890   30.4490   45.3020 C   0  0  0  0  0  0  0  0  0  0  0  0
   58.3220   28.9400   45.2560 C   0  0  0  0  0  0  0  0  0  0  0  0
   58.4350   28.2470   44.0350 C   0  0  0  0  0  0  0  0  0  0  0  0
   58.2560   26.8620   43.9890 C   0  0  0  0  0  0  0  0  0  0  0  0
   57.9430   26.1560   45.1530 C   0  0  0  0  0  0  0  0  0  0  0  0
   57.7980   26.8380   46.3650 C   0  0  0  0  0  0  0  0  0  0  0  0
   57.9760   28.2230   46.4150 C   0  0  0  0  0  0  0  0  0  0  0  0
   56.9810   32.4210   45.3010 C   0  0  0  0  0  0  0  0  0  0  0  0
   58.0530   33.4320   45.7080 C   0  0  0  0  0  0  0  0  0  0  0  0
   58.4180   34.4490   44.8020 C   0  0  0  0  0  0  0  0  0  0  0  0
   59.3690   35.4110   45.1510 C   0  0  0  0  0  0  0  0  0  0  0  0
   59.9940   35.3560   46.3950 C   0  0  0  0  0  0  0  0  0  0  0  0
   59.6910   34.3240   47.2820 C   0  0  0  0  0  0  0  0  0  0  0  0
   58.7420   33.3510   46.9450 C   0  0  0  0  0  0  0  0  0  0  0  0
   58.5300   32.0100   48.0640 Cl  0  0  0  0  0  0  0  0  0  0  0  0
   55.2760   30.0260   42.2450 H   0  0  0  0  0  0  0  0  0  0  0  0
   57.5267   30.8928   41.2358 H   0  0  0  0  0  0  0  0  0  0  0  0
   56.5691   32.2796   41.7428 H   0  0  0  0  0  0  0  0  0  0  0  0
   58.9906   31.0454   43.0310 H   0  0  0  0  0  0  0  0  0  0  0  0
   58.3494   32.7004   43.2299 H   0  0  0  0  0  0  0  0  0  0  0  0
   59.4840   30.6923   44.9010 H   0  0  0  0  0  0  0  0  0  0  0  0
   58.3533   30.7361   46.3552 H   0  0  0  0  0  0  0  0  0  0  0  0
   58.6655   28.7994   43.1121 H   0  0  0  0  0  0  0  0  0  0  0  0
   58.3618   26.3264   43.0340 H   0  0  0  0  0  0  0  0  0  0  0  0
   57.8107   25.0646   45.1162 H   0  0  0  0  0  0  0  0  0  0  0  0
   57.5435   26.2835   47.2803 H   0  0  0  0  0  0  0  0  0  0  0  0
   57.8445   28.7563   47.3680 H   0  0  0  0  0  0  0  0  0  0  0  0
   56.2385   32.9452   44.6814 H   0  0  0  0  0  0  0  0  0  0  0  0
   56.5712   32.0205   46.2400 H   0  0  0  0  0  0  0  0  0  0  0  0
   57.9481   34.4853   43.8081 H   0  0  0  0  0  0  0  0  0  0  0  0
   59.6247   36.2129   44.4428 H   0  0  0  0  0  0  0  0  0  0  0  0
   60.7264   36.1267   46.6772 H   0  0  0  0  0  0  0  0  0  0  0  0
   60.2018   34.2736   48.2549 H   0  0  0  0  0  0  0  0  0  0  0  0
  1  2  2  0
  2  3  1  0
  3  4  1  0
  4  5  1  0
  5  6  1  0
  6  7  1  1
  7  8  1  0
  8  9  2  0
  9 10  1  0
 10 11  2  0
 11 12  1  0
 12 13  2  0
  6 14  1  0
 14 15  1  0
 15 16  2  0
 16 17  1  0
 17 18  2  0
 18 19  1  0
 19 20  2  0
 20 21  1  0
  6  2  1  0
 13  8  1  0
 20 15  1  0
  3 22  1  0
  4 23  1  0
  4 24  1  0
  5 25  1  0
  5 26  1  0
  7 27  1  0
  7 28  1  0
  9 29  1  0
 10 30  1  0
 11 31  1  0
 12 32  1  0
 13 33  1  0
 14 34  1  0
 14 35  1  0
 16 36  1  0
 17 37  1  0
 18 38  1  0
 19 39  1  0
M  CHG  1   6   1
M  END
>  <UniqueID>  (21) 
21

>  <SMILES>  (21) 
O=C1NCC[N@@+]1(Cc1ccccc1)Cc1ccccc1Cl

>  <Energy>  (21) 
65.07375581245773

>  <Genealogy>  (21) 
O=C1NCC[N@@+]1(Cc1ccccc1)Cc1ccccc1Cl (chirality)
O=C1NCC[N@@+]1(Cc1ccccc1)Cc1ccccc1Cl (3D coordinates assigned)
O=C1NCC[N@@+]1(Cc1ccccc1)Cc1ccccc1Cl (nonaromatic ring conformer: 65.07375581245773 kcal/mol)

>  <smiles>  (21) 
O=C1NCC[N+]1(Cc1ccccc1)Cc1ccccc1Cl

>  <score_type>  (21) 
oracle

>  <origin>  (21) 
adg

>  <m_score__min__energy>  (21) 
-6.6299999999999999

>  <m_primary>  (21) 
energy

$$$$
21:0
     RDKit          3D

 61 63  0  0  0  0  0  0  0  0999 V2000
   57.8050   25.4070   46.7590 C   0  0  0  0  0  0  0  0  0  0  0  0
   59.0110   26.1940   47.2960 C   0  0  0  0  0  0  0  0  0  0  0  0
   58.9300   27.6560   47.0850 N   0  0  0  0  0  0  0  0  0  0  0  0
   58.8900   28.5120   48.2900 C   0  0  0  0  0  0  0  0  0  0  0  0
   60.3030   28.9600   48.6910 C   0  0  0  0  0  0  0  0  0  0  0  0
   60.2710   30.0420   49.7810 C   0  0  0  0  0  0  0  0  0  0  0  0
   59.0970   31.0030   49.5750 C   0  0  0  0  0  0  0  0  0  0  0  0
   58.4480   31.2890   50.8510 N   0  0  0  0  0  0  0  0  0  0  0  0
   57.3570   30.5550   51.4210 C   0  0  0  0  0  0  0  0  0  0  0  0
   57.5640   29.3690   51.7850 O   0  0  0  0  0  0  0  0  0  0  0  0
   56.0010   31.1870   51.6290 C   0  0  0  0  0  0  0  0  0  0  0  0
   54.8880   30.1780   51.9530 C   0  0  0  0  0  0  0  0  0  0  0  0
   53.5680   30.5680   51.3360 C   0  0  0  0  0  0  0  0  0  0  0  0
   52.9030   31.7290   51.7670 C   0  0  0  0  0  0  0  0  0  0  0  0
   51.6820   32.0980   51.1930 C   0  0  0  0  0  0  0  0  0  0  0  0
   51.0290   33.2470   51.6240 O   0  0  0  0  0  0  0  0  0  0  0  0
   51.1180   31.3120   50.1810 C   0  0  0  0  0  0  0  0  0  0  0  0
   51.7730   30.1570   49.7420 C   0  0  0  0  0  0  0  0  0  0  0  0
   51.1980   29.3820   48.7340 O   0  0  0  0  0  0  0  0  0  0  0  0
   52.9960   29.7860   50.3180 C   0  0  0  0  0  0  0  0  0  0  0  0
   59.6600   28.2050   45.9180 C   0  0  0  0  0  0  0  0  0  0  0  0
   59.0440   29.4890   45.3090 C   0  0  1  0  0  0  0  0  0  0  0  0
   57.5000   29.5020   45.3990 C   0  0  0  0  0  0  0  0  0  0  0  0
   56.9970   30.7800   44.9990 O   0  0  0  0  0  0  0  0  0  0  0  0
   57.6430   31.9580   45.3840 C   0  0  0  0  0  0  0  0  0  0  0  0
   57.0160   33.2000   45.2430 C   0  0  0  0  0  0  0  0  0  0  0  0
   57.6700   34.3610   45.6710 C   0  0  0  0  0  0  0  0  0  0  0  0
   58.9490   34.2790   46.2360 C   0  0  0  0  0  0  0  0  0  0  0  0
   59.5840   33.0370   46.3600 C   0  0  0  0  0  0  0  0  0  0  0  0
   58.9360   31.8790   45.9190 C   0  0  0  0  0  0  0  0  0  0  0  0
   59.5610   30.6310   46.0050 O   0  0  0  0  0  0  0  0  0  0  0  0
   57.2138   25.0212   47.6026 H   0  0  0  0  0  0  0  0  0  0  0  0
   57.1782   26.0704   46.1450 H   0  0  0  0  0  0  0  0  0  0  0  0
   58.1599   24.5661   46.1450 H   0  0  0  0  0  0  0  0  0  0  0  0
   59.0905   26.0063   48.3770 H   0  0  0  0  0  0  0  0  0  0  0  0
   59.8895   25.8440   46.7341 H   0  0  0  0  0  0  0  0  0  0  0  0
   58.2764   29.4005   48.0804 H   0  0  0  0  0  0  0  0  0  0  0  0
   58.4566   27.9326   49.1185 H   0  0  0  0  0  0  0  0  0  0  0  0
   60.8584   28.0894   49.0698 H   0  0  0  0  0  0  0  0  0  0  0  0
   60.7920   29.3849   47.8020 H   0  0  0  0  0  0  0  0  0  0  0  0
   60.1701   29.5581   50.7637 H   0  0  0  0  0  0  0  0  0  0  0  0
   61.2061   30.6187   49.7260 H   0  0  0  0  0  0  0  0  0  0  0  0
   59.4685   31.9417   49.1381 H   0  0  0  0  0  0  0  0  0  0  0  0
   58.3664   30.5362   48.8980 H   0  0  0  0  0  0  0  0  0  0  0  0
   56.0754   31.9005   52.4629 H   0  0  0  0  0  0  0  0  0  0  0  0
   55.7260   31.6731   50.6813 H   0  0  0  0  0  0  0  0  0  0  0  0
   55.1815   29.1907   51.5669 H   0  0  0  0  0  0  0  0  0  0  0  0
   54.7576   30.1583   53.0451 H   0  0  0  0  0  0  0  0  0  0  0  0
   53.3451   32.3505   52.5597 H   0  0  0  0  0  0  0  0  0  0  0  0
   50.1578   31.6035   49.7303 H   0  0  0  0  0  0  0  0  0  0  0  0
   50.1940   29.3510   48.5980 H   0  0  0  0  0  0  0  0  0  0  0  0
   53.5108   28.8778   49.9713 H   0  0  0  0  0  0  0  0  0  0  0  0
   60.6875   28.4363   46.2355 H   0  0  0  0  0  0  0  0  0  0  0  0
   59.6097   27.4362   45.1329 H   0  0  0  0  0  0  0  0  0  0  0  0
   59.3169   29.5164   44.2437 H   0  0  0  0  0  0  0  0  0  0  0  0
   57.0900   28.7256   44.7364 H   0  0  0  0  0  0  0  0  0  0  0  0
   57.1973   29.3040   46.4378 H   0  0  0  0  0  0  0  0  0  0  0  0
   56.0124   33.2642   44.7973 H   0  0  0  0  0  0  0  0  0  0  0  0
   57.1788   35.3394   45.5635 H   0  0  0  0  0  0  0  0  0  0  0  0
   59.4556   35.1917   46.5829 H   0  0  0  0  0  0  0  0  0  0  0  0
   60.5889   32.9726   46.8027 H   0  0  0  0  0  0  0  0  0  0  0  0
  1  2  1  0
  2  3  1  0
  3  4  1  0
  4  5  1  0
  5  6  1  0
  6  7  1  0
  7  8  1  0
  8  9  1  0
  9 10  2  0
  9 11  1  0
 11 12  1  0
 12 13  1  0
 13 14  2  0
 14 15  1  0
 15 16  1  0
 15 17  2  0
 17 18  1  0
 18 19  1  0
 18 20  2  0
  3 21  1  0
 21 22  1  0
 22 23  1  0
 23 24  1  0
 24 25  1  0
 25 26  2  0
 26 27  1  0
 27 28  2  0
 28 29  1  0
 29 30  2  0
 30 31  1  0
 20 13  1  0
 31 22  1  0
 30 25  1  0
  1 32  1  0
  1 33  1  0
  1 34  1  0
  2 35  1  0
  2 36  1  0
  4 37  1  0
  4 38  1  0
  5 39  1  0
  5 40  1  0
  6 41  1  0
  6 42  1  0
  7 43  1  0
  7 44  1  0
 11 45  1  0
 11 46  1  0
 12 47  1  0
 12 48  1  0
 14 49  1  0
 17 50  1  0
 19 51  1  0
 20 52  1  0
 21 53  1  0
 21 54  1  0
 22 55  1  6
 23 56  1  0
 23 57  1  0
 26 58  1  0
 27 59  1  0
 28 60  1  0
 29 61  1  0
M  CHG  2   8  -1  16  -1
M  END
>  <UniqueID>  (22) 
22

>  <SMILES>  (22) 
CCN(CCCC[N-]C(=O)CCc1cc([O-])cc(O)c1)C[C@H]1COc2ccccc2O1

>  <Energy>  (22) 
66.29510640665647

>  <Genealogy>  (22) 
CCN(CCCC[N-]C(=O)CCc1cc([O-])cc(O)c1)CC1COc2ccccc2O1 (protonated)
CCN(CCCC[N-]C(=O)CCc1cc([O-])cc(O)c1)C[C@H]1COc2ccccc2O1 (chirality)
CCN(CCCC[N-]C(=O)CCc1cc([O-])cc(O)c1)C[C@H]1COc2ccccc2O1 (3D coordinates assigned)
CCN(CCCC[N-]C(=O)CCc1cc([O-])cc(O)c1)C[C@H]1COc2ccccc2O1 (nonaromatic ring conformer: 66.29510640665647 kcal/mol)

>  <smiles>  (22) 
CCN(CCCCNC(=O)CCc1cc(O)cc(O)c1)CC1COc2ccccc2O1

>  <score_type>  (22) 
oracle

>  <origin>  (22) 
adg

>  <m_score__min__energy>  (22) 
-13.74

>  <m_primary>  (22) 
energy

$$$$
22:0
     RDKit          3D

 49 51  0  0  0  0  0  0  0  0999 V2000
   56.7530   31.8570   52.3950 C   0  0  0  0  0  0  0  0  0  0  0  0
   57.9070   31.7090   51.5010 N   0  0  0  0  0  0  0  0  0  0  0  0
   58.5260   32.8220   51.0030 C   0  0  0  0  0  0  0  0  0  0  0  0
   59.5930   32.6910   50.1140 C   0  0  0  0  0  0  0  0  0  0  0  0
   60.2610   33.8230   49.6460 O   0  0  0  0  0  0  0  0  0  0  0  0
   61.3060   33.7430   48.7170 C   0  0  0  0  0  0  0  0  0  0  0  0
   62.6120   33.4920   49.1700 C   0  0  0  0  0  0  0  0  0  0  0  0
   62.9310   33.2680   50.8800 Cl  0  0  0  0  0  0  0  0  0  0  0  0
   63.6650   33.3990   48.2530 C   0  0  0  0  0  0  0  0  0  0  0  0
   63.4230   33.5600   46.8880 C   0  0  0  0  0  0  0  0  0  0  0  0
   62.1220   33.8040   46.4330 C   0  0  0  0  0  0  0  0  0  0  0  0
   61.0650   33.8980   47.3420 C   0  0  0  0  0  0  0  0  0  0  0  0
   59.4540   34.2460   46.7390 Cl  0  0  0  0  0  0  0  0  0  0  0  0
   59.9830   31.4500   49.7320 N   0  0  0  0  0  0  0  0  0  0  0  0
   59.3930   30.3260   50.2110 C   0  0  0  0  0  0  0  0  0  0  0  0
   59.7620   29.1380   49.8050 N   0  0  0  0  0  0  0  0  0  0  0  0
   59.4440   28.4620   48.5700 C   0  0  0  0  0  0  0  0  0  0  0  0
   59.9750   27.1810   48.3730 C   0  0  0  0  0  0  0  0  0  0  0  0
   59.6760   26.4510   47.2180 C   0  0  0  0  0  0  0  0  0  0  0  0
   58.8180   26.9850   46.2440 C   0  0  0  0  0  0  0  0  0  0  0  0
   58.4370   26.1990   45.0590 C   0  0  0  0  0  0  0  0  0  0  0  0
   57.9130   26.7790   44.0670 O   0  0  0  0  0  0  0  0  0  0  0  0
   58.6420   24.7820   45.0390 N   0  0  0  0  0  0  0  0  0  0  0  0
   57.5580   23.8010   45.0580 C   0  0  0  0  0  0  0  0  0  0  0  0
   56.2290   24.4180   44.6150 C   0  0  0  0  0  0  0  0  0  0  0  0
   55.2500   24.9970   45.9950 S   0  0  0  0  0  0  0  0  0  0  0  0
   55.1950   26.7190   45.9540 N   0  0  0  0  0  0  0  0  0  0  0  0
   55.8890   24.5670   47.2870 O   0  0  0  0  0  0  0  0  0  0  0  0
   53.8540   24.4500   45.9150 O   0  0  0  0  0  0  0  0  0  0  0  0
   58.2890   28.2710   46.4340 C   0  0  0  0  0  0  0  0  0  0  0  0
   58.6270   29.0190   47.5640 C   0  0  0  0  0  0  0  0  0  0  0  0
   58.3230   30.4580   51.1110 C   0  0  0  0  0  0  0  0  0  0  0  0
   57.7380   29.4280   51.5470 O   0  0  0  0  0  0  0  0  0  0  0  0
   57.0914   31.8136   53.4408 H   0  0  0  0  0  0  0  0  0  0  0  0
   56.2655   32.8250   52.2072 H   0  0  0  0  0  0  0  0  0  0  0  0
   56.0370   31.0433   52.2072 H   0  0  0  0  0  0  0  0  0  0  0  0
   58.1819   33.8225   51.3040 H   0  0  0  0  0  0  0  0  0  0  0  0
   64.6863   33.1984   48.6091 H   0  0  0  0  0  0  0  0  0  0  0  0
   64.2540   33.4952   46.1703 H   0  0  0  0  0  0  0  0  0  0  0  0
   61.9310   33.9222   45.3562 H   0  0  0  0  0  0  0  0  0  0  0  0
   60.6354   26.7436   49.1362 H   0  0  0  0  0  0  0  0  0  0  0  0
   60.1156   25.4532   47.0722 H   0  0  0  0  0  0  0  0  0  0  0  0
   57.8123   22.9753   44.3772 H   0  0  0  0  0  0  0  0  0  0  0  0
   57.4411   23.4388   46.0900 H   0  0  0  0  0  0  0  0  0  0  0  0
   56.4391   25.2686   43.9499 H   0  0  0  0  0  0  0  0  0  0  0  0
   55.6520   23.6356   44.1004 H   0  0  0  0  0  0  0  0  0  0  0  0
   54.5750   27.0160   46.7390 H   0  0  0  0  0  0  0  0  0  0  0  0
   57.6019   28.6937   45.6861 H   0  0  0  0  0  0  0  0  0  0  0  0
   58.2540   30.0484   47.6701 H   0  0  0  0  0  0  0  0  0  0  0  0
  1  2  1  0
  2  3  1  0
  3  4  2  0
  4  5  1  0
  5  6  1  0
  6  7  2  0
  7  8  1  0
  7  9  1  0
  9 10  2  0
 10 11  1  0
 11 12  2  0
 12 13  1  0
  4 14  1  0
 14 15  1  0
 15 16  2  3
 16 17  1  0
 17 18  2  0
 18 19  1  0
 19 20  2  0
 20 21  1  0
 21 22  2  0
 21 23  1  0
 23 24  1  0
 24 25  1  0
 25 26  1  0
 26 27  1  0
 26 28  2  0
 26 29  2  0
 20 30  1  0
 30 31  2  0
 15 32  1  0
 32 33  2  0
 32  2  1  0
 12  6  1  0
 31 17  1  0
  1 34  1  0
  1 35  1  0
  1 36  1  0
  3 37  1  0
  9 38  1  0
 10 39  1  0
 11 40  1  0
 18 41  1  0
 19 42  1  0
 24 43  1  0
 24 44  1  0
 25 45  1  0
 25 46  1  0
 27 47  1  0
 30 48  1  0
 31 49  1  0
M  CHG  3  14  -1  23  -1  27  -1
M  END
>  <UniqueID>  (23) 
23

>  <SMILES>  (23) 
Cn1cc(Oc2c(Cl)cccc2Cl)[n-]c(=Nc2ccc(C(=O)[N-]CCS([NH-])(=O)=O)cc2)c1=O

>  <Energy>  (23) 
62.11776345179429

>  <Genealogy>  (23) 
Cn1cc(Oc2c(Cl)cccc2Cl)[n-]c(=Nc2ccc(C(=O)[N-]CCS([NH-])(=O)=O)cc2)c1=O (protonated)
Cn1cc(Oc2c(Cl)cccc2Cl)[n-]c(=Nc2ccc(C(=O)[N-]CCS([NH-])(=O)=O)cc2)c1=O (3D coordinates assigned)
Cn1cc(Oc2c(Cl)cccc2Cl)[n-]c(=Nc2ccc(C(=O)[N-]CCS([NH-])(=O)=O)cc2)c1=O (optimized conformer: 62.11776345179429 kcal/mol)

>  <smiles>  (23) 
Cn1cc(Oc2c(Cl)cccc2Cl)[nH]c(=Nc2ccc(C(=O)NCCS(N)(=O)=O)cc2)c1=O

>  <score_type>  (23) 
oracle

>  <origin>  (23) 
adg

>  <m_score__min__energy>  (23) 
-13.970000000000001

>  <m_primary>  (23) 
energy

$$$$
23:0
     RDKit          3D

 39 41  0  0  0  0  0  0  0  0999 V2000
   55.1700   29.7180   43.0290 O   0  0  0  0  0  0  0  0  0  0  0  0
   56.3070   30.0040   43.4960 C   0  0  0  0  0  0  0  0  0  0  0  0
   56.9120   31.2790   43.2140 N   0  0  0  0  0  0  0  0  0  0  0  0
   57.4800   32.1190   44.0340 C   0  0  0  0  0  0  0  0  0  0  0  0
   58.3990   33.1060   43.6160 C   0  0  0  0  0  0  0  0  0  0  0  0
   58.9520   33.9740   44.5600 C   0  0  0  0  0  0  0  0  0  0  0  0
   58.5880   33.8690   45.9030 C   0  0  0  0  0  0  0  0  0  0  0  0
   59.2730   34.9590   47.0960 Cl  0  0  0  0  0  0  0  0  0  0  0  0
   57.6640   32.8960   46.2830 C   0  0  0  0  0  0  0  0  0  0  0  0
   57.1370   32.0590   45.3510 N   0  0  0  0  0  0  0  0  0  0  0  0
   57.0610   28.9850   44.2640 C   0  0  0  0  0  0  0  0  0  0  0  0
   57.7800   27.9750   43.6000 C   0  0  0  0  0  0  0  0  0  0  0  0
   58.4930   27.0160   44.3270 C   0  0  0  0  0  0  0  0  0  0  0  0
   58.4970   27.0510   45.7260 C   0  0  0  0  0  0  0  0  0  0  0  0
   59.3880   25.8400   46.6440 S   0  0  0  0  0  0  0  0  0  0  0  0
   60.7230   25.5710   46.0100 O   0  0  0  0  0  0  0  0  0  0  0  0
   59.6020   26.3500   48.0410 O   0  0  0  0  0  0  0  0  0  0  0  0
   58.4850   24.3600   46.7130 N   0  0  0  0  0  0  0  0  0  0  0  0
   57.8580   23.7220   45.5930 C   0  0  0  0  0  0  0  0  0  0  0  0
   58.4040   22.5790   44.9790 C   0  0  0  0  0  0  0  0  0  0  0  0
   57.7610   21.9930   43.8850 C   0  0  0  0  0  0  0  0  0  0  0  0
   56.5670   22.5380   43.3940 C   0  0  0  0  0  0  0  0  0  0  0  0
   55.9170   21.9610   42.3040 O   0  0  0  0  0  0  0  0  0  0  0  0
   56.0220   23.6710   44.0030 C   0  0  0  0  0  0  0  0  0  0  0  0
   56.6640   24.2600   45.0970 C   0  0  0  0  0  0  0  0  0  0  0  0
   57.7900   28.0560   46.3950 C   0  0  0  0  0  0  0  0  0  0  0  0
   57.0750   29.0150   45.6720 C   0  0  0  0  0  0  0  0  0  0  0  0
   58.6772   33.1906   42.5551 H   0  0  0  0  0  0  0  0  0  0  0  0
   59.6749   34.7408   44.2447 H   0  0  0  0  0  0  0  0  0  0  0  0
   57.3618   32.8060   47.3368 H   0  0  0  0  0  0  0  0  0  0  0  0
   57.7817   27.9389   42.5006 H   0  0  0  0  0  0  0  0  0  0  0  0
   59.0527   26.2313   43.7970 H   0  0  0  0  0  0  0  0  0  0  0  0
   59.3399   22.1455   45.3615 H   0  0  0  0  0  0  0  0  0  0  0  0
   58.1936   21.1012   43.4079 H   0  0  0  0  0  0  0  0  0  0  0  0
   56.1670   22.2010   41.3520 H   0  0  0  0  0  0  0  0  0  0  0  0
   55.0846   24.1014   43.6207 H   0  0  0  0  0  0  0  0  0  0  0  0
   56.2282   25.1518   45.5710 H   0  0  0  0  0  0  0  0  0  0  0  0
   57.7969   28.0916   47.4944 H   0  0  0  0  0  0  0  0  0  0  0  0
   56.5190   29.7991   46.2068 H   0  0  0  0  0  0  0  0  0  0  0  0
  1  2  2  0
  2  3  1  0
  3  4  2  3
  4  5  1  0
  5  6  2  0
  6  7  1  0
  7  8  1  0
  7  9  2  0
  9 10  1  0
  2 11  1  0
 11 12  2  0
 12 13  1  0
 13 14  2  0
 14 15  1  0
 15 16  2  0
 15 17  2  0
 15 18  1  0
 18 19  1  0
 19 20  2  0
 20 21  1  0
 21 22  2  0
 22 23  1  0
 22 24  1  0
 24 25  2  0
 14 26  1  0
 26 27  2  0
 10  4  1  0
 27 11  1  0
 25 19  1  0
  5 28  1  0
  6 29  1  0
  9 30  1  0
 12 31  1  0
 13 32  1  0
 20 33  1  0
 21 34  1  0
 23 35  1  0
 24 36  1  0
 25 37  1  0
 26 38  1  0
 27 39  1  0
M  CHG  2  10  -1  18  -1
M  END
>  <UniqueID>  (24) 
24

>  <SMILES>  (24) 
O=C(N=c1ccc(Cl)c[n-]1)c1ccc(S(=O)(=O)[N-]c2ccc(O)cc2)cc1

>  <Energy>  (24) 
53.784045616070706

>  <Genealogy>  (24) 
O=C(N=c1ccc(Cl)c[n-]1)c1ccc(S(=O)(=O)[N-]c2ccc(O)cc2)cc1 (protonated)
O=C(N=c1ccc(Cl)c[n-]1)c1ccc(S(=O)(=O)[N-]c2ccc(O)cc2)cc1 (3D coordinates assigned)
O=C(N=c1ccc(Cl)c[n-]1)c1ccc(S(=O)(=O)[N-]c2ccc(O)cc2)cc1 (optimized conformer: 53.784045616070706 kcal/mol)

>  <smiles>  (24) 
O=C(N=c1ccc(Cl)c[nH]1)c1ccc(S(=O)(=O)Nc2ccc(O)cc2)cc1

>  <score_type>  (24) 
oracle

>  <origin>  (24) 
adg

>  <m_score__min__energy>  (24) 
-12.02

>  <m_primary>  (24) 
energy

$$$$
24:0
     RDKit          3D

 38 40  0  0  0  0  0  0  0  0999 V2000
   56.8280   29.4660   43.2670 O   0  0  0  0  0  0  0  0  0  0  0  0
   56.2940   29.7780   44.3660 C   0  0  0  0  0  0  0  0  0  0  0  0
   56.2090   31.1480   44.7750 N   0  0  0  0  0  0  0  0  0  0  0  0
   57.3010   31.9930   45.1700 C   0  0  0  0  0  0  0  0  0  0  0  0
   58.2960   31.4590   45.9970 C   0  0  0  0  0  0  0  0  0  0  0  0
   59.3680   32.2510   46.4200 C   0  0  0  0  0  0  0  0  0  0  0  0
   59.4580   33.5950   46.0210 C   0  0  0  0  0  0  0  0  0  0  0  0
   60.5330   34.4380   46.4680 N   0  0  0  0  0  0  0  0  0  0  0  0
   61.6300   33.9910   47.2840 C   0  0  0  0  0  0  0  0  0  0  0  0
   61.5240   34.0640   48.6820 C   0  0  0  0  0  0  0  0  0  0  0  0
   62.5880   33.6600   49.4940 C   0  0  0  0  0  0  0  0  0  0  0  0
   63.7720   33.1950   48.9160 C   0  0  0  0  0  0  0  0  0  0  0  0
   63.8960   33.1400   47.5250 C   0  0  0  0  0  0  0  0  0  0  0  0
   62.8350   33.5430   46.7110 C   0  0  0  0  0  0  0  0  0  0  0  0
   58.4350   34.1430   45.2330 C   0  0  0  0  0  0  0  0  0  0  0  0
   57.3640   33.3500   44.8080 C   0  0  0  0  0  0  0  0  0  0  0  0
   55.7640   28.7650   45.2260 N   0  0  0  0  0  0  0  0  0  0  0  0
   56.4560   27.5780   45.6380 C   0  0  0  0  0  0  0  0  0  0  0  0
   57.8570   27.5720   45.5980 C   0  0  0  0  0  0  0  0  0  0  0  0
   58.5710   26.4330   45.9830 C   0  0  0  0  0  0  0  0  0  0  0  0
   57.8890   25.2860   46.3960 C   0  0  0  0  0  0  0  0  0  0  0  0
   56.4920   25.2710   46.4080 C   0  0  0  0  0  0  0  0  0  0  0  0
   55.7710   26.4040   46.0180 C   0  0  0  0  0  0  0  0  0  0  0  0
   54.3830   26.3400   45.9750 O   0  0  0  0  0  0  0  0  0  0  0  0
   58.2342   30.4083   46.3166 H   0  0  0  0  0  0  0  0  0  0  0  0
   60.1447   31.8195   47.0684 H   0  0  0  0  0  0  0  0  0  0  0  0
   60.5180   35.4440   46.1810 H   0  0  0  0  0  0  0  0  0  0  0  0
   60.5984   34.4413   49.1412 H   0  0  0  0  0  0  0  0  0  0  0  0
   62.4929   33.7083   50.5888 H   0  0  0  0  0  0  0  0  0  0  0  0
   64.6066   32.8722   49.5558 H   0  0  0  0  0  0  0  0  0  0  0  0
   64.8304   32.7788   47.0707 H   0  0  0  0  0  0  0  0  0  0  0  0
   62.9416   33.5101   45.6167 H   0  0  0  0  0  0  0  0  0  0  0  0
   58.4754   35.2044   44.9471 H   0  0  0  0  0  0  0  0  0  0  0  0
   56.5684   33.7896   44.1885 H   0  0  0  0  0  0  0  0  0  0  0  0
   58.3981   28.4687   45.2617 H   0  0  0  0  0  0  0  0  0  0  0  0
   59.6707   26.4402   45.9606 H   0  0  0  0  0  0  0  0  0  0  0  0
   58.4516   24.3950   46.7116 H   0  0  0  0  0  0  0  0  0  0  0  0
   55.9569   24.3640   46.7256 H   0  0  0  0  0  0  0  0  0  0  0  0
  1  2  2  0
  2  3  1  0
  3  4  1  0
  4  5  2  0
  5  6  1  0
  6  7  2  0
  7  8  1  0
  8  9  1  0
  9 10  2  0
 10 11  1  0
 11 12  2  0
 12 13  1  0
 13 14  2  0
  7 15  1  0
 15 16  2  0
  2 17  1  0
 17 18  1  0
 18 19  2  0
 19 20  1  0
 20 21  2  0
 21 22  1  0
 22 23  2  0
 23 24  1  0
 16  4  1  0
 23 18  1  0
 14  9  1  0
  5 25  1  0
  6 26  1  0
  8 27  1  0
 10 28  1  0
 11 29  1  0
 12 30  1  0
 13 31  1  0
 14 32  1  0
 15 33  1  0
 16 34  1  0
 19 35  1  0
 20 36  1  0
 21 37  1  0
 22 38  1  0
M  CHG  3   3  -1  17  -1  24  -1
M  END
>  <UniqueID>  (25) 
25

>  <SMILES>  (25) 
O=C([N-]c1ccc(Nc2ccccc2)cc1)[N-]c1ccccc1[O-]

>  <Energy>  (25) 
55.43936787352636

>  <Genealogy>  (25) 
O=C([N-]c1ccc(Nc2ccccc2)cc1)[N-]c1ccccc1[O-] (protonated)
O=C([N-]c1ccc(Nc2ccccc2)cc1)[N-]c1ccccc1[O-] (3D coordinates assigned)
O=C([N-]c1ccc(Nc2ccccc2)cc1)[N-]c1ccccc1[O-] (optimized conformer: 55.43936787352636 kcal/mol)

>  <smiles>  (25) 
O=C(Nc1ccc(Nc2ccccc2)cc1)Nc1ccccc1O

>  <score_type>  (25) 
oracle

>  <origin>  (25) 
adg

>  <m_score__min__energy>  (25) 
-16.140000000000001

>  <m_primary>  (25) 
energy

$$$$
25:0
     RDKit          3D

 53 56  0  0  0  0  0  0  0  0999 V2000
   60.8130   33.8120   46.6340 O   0  0  0  0  0  0  0  0  0  0  0  0
   59.9670   33.4620   47.5040 C   0  0  0  0  0  0  0  0  0  0  0  0
   58.6380   33.1010   47.0970 N   0  0  0  0  0  0  0  0  0  0  0  0
   58.3130   32.6820   45.7610 C   0  0  0  0  0  0  0  0  0  0  0  0
   58.6830   33.4870   44.6740 C   0  0  0  0  0  0  0  0  0  0  0  0
   58.3780   33.0930   43.3670 C   0  0  0  0  0  0  0  0  0  0  0  0
   57.6870   31.9000   43.1390 C   0  0  0  0  0  0  0  0  0  0  0  0
   57.2850   31.1010   44.2160 C   0  0  0  0  0  0  0  0  0  0  0  0
   56.4130   29.6000   43.9160 S   0  0  0  0  0  0  0  0  0  0  0  0
   55.2240   29.4810   44.8270 O   0  0  0  0  0  0  0  0  0  0  0  0
   55.9230   29.5940   42.4960 O   0  0  0  0  0  0  0  0  0  0  0  0
   57.4710   28.2450   44.1560 N   0  0  0  0  0  0  0  0  0  0  0  0
   57.3520   27.3810   45.1170 C   0  0  0  0  0  0  0  0  0  0  0  0
   56.1540   27.0400   45.6340 N   0  0  0  0  0  0  0  0  0  0  0  0
   56.2770   26.1150   46.6230 C   0  0  0  0  0  0  0  0  0  0  0  0
   57.5800   25.7160   46.8990 C   0  0  0  0  0  0  0  0  0  0  0  0
   58.6130   26.5500   45.8670 S   0  0  0  0  0  0  0  0  0  0  0  0
   57.5920   31.4980   45.5250 C   0  0  0  0  0  0  0  0  0  0  0  0
   60.3490   33.4750   48.9370 C   0  0  0  0  0  0  0  0  0  0  0  0
   61.5390   34.1040   49.3440 C   0  0  0  0  0  0  0  0  0  0  0  0
   61.9100   34.1090   50.6880 C   0  0  0  0  0  0  0  0  0  0  0  0
   61.1110   33.4760   51.6410 C   0  0  0  0  0  0  0  0  0  0  0  0
   59.9290   32.8230   51.2540 C   0  0  0  0  0  0  0  0  0  0  0  0
   59.0940   32.1190   52.1870 N   0  0  0  0  0  0  0  0  0  0  0  0
   58.5460   30.4730   52.0680 S   0  0  0  0  0  0  0  0  0  0  0  0
   57.3420   30.4470   51.1690 O   0  0  0  0  0  0  0  0  0  0  0  0
   58.1360   29.9520   53.4150 O   0  0  0  0  0  0  0  0  0  0  0  0
   59.8010   29.4280   51.3420 C   0  0  0  0  0  0  0  0  0  0  0  0
   59.8800   29.6180   49.8540 C   0  0  0  0  0  0  0  0  0  0  0  0
   58.8010   29.2500   49.0310 C   0  0  0  0  0  0  0  0  0  0  0  0
   58.8990   29.3810   47.6430 C   0  0  0  0  0  0  0  0  0  0  0  0
   60.0690   29.8800   47.0670 C   0  0  0  0  0  0  0  0  0  0  0  0
   61.1450   30.2510   47.8780 C   0  0  0  0  0  0  0  0  0  0  0  0
   61.0530   30.1210   49.2660 C   0  0  0  0  0  0  0  0  0  0  0  0
   59.5520   32.8340   49.9050 C   0  0  0  0  0  0  0  0  0  0  0  0
   57.8520   33.2700   47.7650 H   0  0  0  0  0  0  0  0  0  0  0  0
   59.2158   34.4331   44.8501 H   0  0  0  0  0  0  0  0  0  0  0  0
   58.6823   33.7227   42.5180 H   0  0  0  0  0  0  0  0  0  0  0  0
   57.4581   31.5875   42.1095 H   0  0  0  0  0  0  0  0  0  0  0  0
   55.4090   25.7118   47.1652 H   0  0  0  0  0  0  0  0  0  0  0  0
   57.8826   24.9820   47.6604 H   0  0  0  0  0  0  0  0  0  0  0  0
   57.2665   30.8787   46.3738 H   0  0  0  0  0  0  0  0  0  0  0  0
   62.1809   34.5949   48.5977 H   0  0  0  0  0  0  0  0  0  0  0  0
   62.8365   34.6141   50.9985 H   0  0  0  0  0  0  0  0  0  0  0  0
   61.4081   33.4884   52.7000 H   0  0  0  0  0  0  0  0  0  0  0  0
   60.7756   29.6776   51.7868 H   0  0  0  0  0  0  0  0  0  0  0  0
   59.5368   28.3793   51.5432 H   0  0  0  0  0  0  0  0  0  0  0  0
   57.8770   28.8578   49.4809 H   0  0  0  0  0  0  0  0  0  0  0  0
   58.0528   29.0904   47.0031 H   0  0  0  0  0  0  0  0  0  0  0  0
   60.1439   29.9812   45.9742 H   0  0  0  0  0  0  0  0  0  0  0  0
   62.0654   30.6458   47.4230 H   0  0  0  0  0  0  0  0  0  0  0  0
   61.9022   30.4136   49.9011 H   0  0  0  0  0  0  0  0  0  0  0  0
   58.6210   32.3353   49.5977 H   0  0  0  0  0  0  0  0  0  0  0  0
  1  2  2  0
  2  3  1  0
  3  4  1  0
  4  5  2  0
  5  6  1  0
  6  7  2  0
  7  8  1  0
  8  9  1  0
  9 10  2  0
  9 11  2  0
  9 12  1  0
 12 13  2  3
 13 14  1  0
 14 15  1  0
 15 16  2  0
 16 17  1  0
  8 18  2  0
  2 19  1  0
 19 20  2  0
 20 21  1  0
 21 22  2  0
 22 23  1  0
 23 24  1  0
 24 25  1  0
 25 26  2  0
 25 27  2  0
 25 28  1  0
 28 29  1  0
 29 30  2  0
 30 31  1  0
 31 32  2  0
 32 33  1  0
 33 34  2  0
 23 35  2  0
 18  4  1  0
 35 19  1  0
 17 13  1  0
 34 29  1  0
  3 36  1  0
  5 37  1  0
  6 38  1  0
  7 39  1  0
 15 40  1  0
 16 41  1  0
 18 42  1  0
 20 43  1  0
 21 44  1  0
 22 45  1  0
 28 46  1  0
 28 47  1  0
 30 48  1  0
 31 49  1  0
 32 50  1  0
 33 51  1  0
 34 52  1  0
 35 53  1  0
M  CHG  2  14  -1  24  -1
M  END
>  <UniqueID>  (26) 
26

>  <SMILES>  (26) 
O=C(Nc1cccc(S(=O)(=O)N=c2[n-]ccs2)c1)c1cccc([N-]S(=O)(=O)Cc2ccccc2)c1

>  <Energy>  (26) 
93.63225235520686

>  <Genealogy>  (26) 
O=C(Nc1cccc(S(=O)(=O)N=c2[n-]ccs2)c1)c1cccc([N-]S(=O)(=O)Cc2ccccc2)c1 (protonated)
O=C(Nc1cccc(S(=O)(=O)N=c2[n-]ccs2)c1)c1cccc([N-]S(=O)(=O)Cc2ccccc2)c1 (3D coordinates assigned)
O=C(Nc1cccc(S(=O)(=O)N=c2[n-]ccs2)c1)c1cccc([N-]S(=O)(=O)Cc2ccccc2)c1 (optimized conformer: 93.63225235520686 kcal/mol)

>  <smiles>  (26) 
O=C(Nc1cccc(S(=O)(=O)N=c2[nH]ccs2)c1)c1cccc(NS(=O)(=O)Cc2ccccc2)c1

>  <score_type>  (26) 
oracle

>  <origin>  (26) 
adg

>  <m_score__min__energy>  (26) 
-13.369999999999999

>  <m_primary>  (26) 
energy

$$$$
26:0
     RDKit          3D

 37 38  0  0  0  0  0  0  0  0999 V2000
   61.9890   33.4400   47.2840 C   0  0  0  0  0  0  0  0  0  0  0  0
   61.1880   34.2060   48.3300 C   0  0  0  0  0  0  0  0  0  0  0  0
   59.8890   34.5240   47.8360 O   0  0  0  0  0  0  0  0  0  0  0  0
   58.8770   33.5730   47.6540 C   0  0  0  0  0  0  0  0  0  0  0  0
   58.2850   33.0780   48.6540 O   0  0  0  0  0  0  0  0  0  0  0  0
   58.4990   33.1530   46.2860 C   0  0  0  0  0  0  0  0  0  0  0  0
   59.2340   33.5920   45.1720 C   0  0  0  0  0  0  0  0  0  0  0  0
   58.8620   33.2070   43.8830 C   0  0  0  0  0  0  0  0  0  0  0  0
   57.7630   32.3660   43.6820 C   0  0  0  0  0  0  0  0  0  0  0  0
   57.2770   32.0130   42.0300 Cl  0  0  0  0  0  0  0  0  0  0  0  0
   57.0350   31.8900   44.7940 C   0  0  0  0  0  0  0  0  0  0  0  0
   55.9010   31.0270   44.6480 N   0  0  0  0  0  0  0  0  0  0  0  0
   55.9460   29.7140   44.0810 C   0  0  0  0  0  0  0  0  0  0  0  0
   56.0570   29.5610   42.8340 O   0  0  0  0  0  0  0  0  0  0  0  0
   55.9350   28.5780   44.9510 N   0  0  0  0  0  0  0  0  0  0  0  0
   57.1030   28.0800   45.6140 C   0  0  0  0  0  0  0  0  0  0  0  0
   58.2560   28.8770   45.6100 C   0  0  0  0  0  0  0  0  0  0  0  0
   59.4440   28.4080   46.1710 C   0  0  0  0  0  0  0  0  0  0  0  0
   59.4910   27.1390   46.7470 C   0  0  0  0  0  0  0  0  0  0  0  0
   58.3430   26.3450   46.7870 C   0  0  0  0  0  0  0  0  0  0  0  0
   57.1310   26.8080   46.2430 C   0  0  0  0  0  0  0  0  0  0  0  0
   55.9150   25.9780   46.4050 C   0  0  0  0  0  0  0  0  0  0  0  0
   54.8030   26.3710   45.9650 O   0  0  0  0  0  0  0  0  0  0  0  0
   55.9790   24.7710   47.0910 O   0  0  0  0  0  0  0  0  0  0  0  0
   57.3930   32.3090   46.0820 C   0  0  0  0  0  0  0  0  0  0  0  0
   62.6962   32.7637   47.7866 H   0  0  0  0  0  0  0  0  0  0  0  0
   61.3037   32.8526   46.6552 H   0  0  0  0  0  0  0  0  0  0  0  0
   62.5452   34.1508   46.6552 H   0  0  0  0  0  0  0  0  0  0  0  0
   61.0891   33.5869   49.2338 H   0  0  0  0  0  0  0  0  0  0  0  0
   61.7162   35.1419   48.5646 H   0  0  0  0  0  0  0  0  0  0  0  0
   60.1085   34.2435   45.3166 H   0  0  0  0  0  0  0  0  0  0  0  0
   59.4380   33.5681   43.0182 H   0  0  0  0  0  0  0  0  0  0  0  0
   58.2238   29.8806   45.1608 H   0  0  0  0  0  0  0  0  0  0  0  0
   60.3444   29.0398   46.1590 H   0  0  0  0  0  0  0  0  0  0  0  0
   60.4339   26.7628   47.1706 H   0  0  0  0  0  0  0  0  0  0  0  0
   58.3868   25.3475   47.2485 H   0  0  0  0  0  0  0  0  0  0  0  0
   56.8006   31.9730   46.9458 H   0  0  0  0  0  0  0  0  0  0  0  0
  1  2  1  0
  2  3  1  0
  3  4  1  0
  4  5  2  0
  4  6  1  0
  6  7  2  0
  7  8  1  0
  8  9  2  0
  9 10  1  0
  9 11  1  0
 11 12  1  0
 12 13  1  0
 13 14  2  0
 13 15  1  0
 15 16  1  0
 16 17  2  0
 17 18  1  0
 18 19  2  0
 19 20  1  0
 20 21  2  0
 21 22  1  0
 22 23  2  0
 22 24  1  0
 11 25  2  0
 25  6  1  0
 21 16  1  0
  1 26  1  0
  1 27  1  0
  1 28  1  0
  2 29  1  0
  2 30  1  0
  7 31  1  0
  8 32  1  0
 17 33  1  0
 18 34  1  0
 19 35  1  0
 20 36  1  0
 25 37  1  0
M  CHG  3  12  -1  15  -1  24  -1
M  END
>  <UniqueID>  (27) 
27

>  <SMILES>  (27) 
CCOC(=O)c1ccc(Cl)c([N-]C(=O)[N-]c2ccccc2C(=O)[O-])c1

>  <Energy>  (27) 
50.863579067712394

>  <Genealogy>  (27) 
CCOC(=O)c1ccc(Cl)c([N-]C(=O)[N-]c2ccccc2C(=O)[O-])c1 (protonated)
CCOC(=O)c1ccc(Cl)c([N-]C(=O)[N-]c2ccccc2C(=O)[O-])c1 (3D coordinates assigned)
CCOC(=O)c1ccc(Cl)c([N-]C(=O)[N-]c2ccccc2C(=O)[O-])c1 (optimized conformer: 50.863579067712394 kcal/mol)

>  <smiles>  (27) 
CCOC(=O)c1ccc(Cl)c(NC(=O)Nc2ccccc2C(=O)O)c1

>  <score_type>  (27) 
oracle

>  <origin>  (27) 
adg

>  <m_score__min__energy>  (27) 
-14.300000000000001

>  <m_primary>  (27) 
energy

$$$$
27:0
     RDKit          3D

 42 44  0  0  0  0  0  0  0  0999 V2000
   56.6273   33.6895   46.5819 H   0  0  0  0  0  0  0  0  0  0  0  0
   57.0740   33.2600   45.6730 C   0  0  0  0  0  0  0  0  0  0  0  0
   56.7750   31.9850   45.3070 N   0  0  0  0  0  0  0  0  0  0  0  0
   57.3000   31.4070   44.1920 C   0  0  0  0  0  0  0  0  0  0  0  0
   56.9870   30.1680   43.9280 N   0  0  0  0  0  0  0  0  0  0  0  0
   56.0880   29.2980   44.6930 C   0  0  0  0  0  0  0  0  0  0  0  0
   55.5448   28.6408   43.9980 H   0  0  0  0  0  0  0  0  0  0  0  0
   55.3831   29.9278   45.2555 H   0  0  0  0  0  0  0  0  0  0  0  0
   56.8650   28.4490   45.6720 C   0  0  0  0  0  0  0  0  0  0  0  0
   58.0940   28.9170   46.1670 C   0  0  0  0  0  0  0  0  0  0  0  0
   58.4196   29.9415   45.9337 H   0  0  0  0  0  0  0  0  0  0  0  0
   58.9060   28.0970   46.9510 C   0  0  0  0  0  0  0  0  0  0  0  0
   60.2170   28.5550   47.2990 N   0  0  0  0  0  0  0  0  0  0  0  0
   60.5120   29.6690   48.5940 S   0  0  0  0  0  0  0  0  0  0  0  0
   59.2220   29.9590   49.3080 O   0  0  0  0  0  0  0  0  0  0  0  0
   61.4870   29.0590   49.5630 O   0  0  0  0  0  0  0  0  0  0  0  0
   61.1450   31.1720   47.9220 C   0  0  0  0  0  0  0  0  0  0  0  0
   62.5270   31.3520   47.7610 C   0  0  0  0  0  0  0  0  0  0  0  0
   63.2239   30.5692   48.0949 H   0  0  0  0  0  0  0  0  0  0  0  0
   63.0220   32.5220   47.1780 C   0  0  0  0  0  0  0  0  0  0  0  0
   64.1067   32.6586   47.0561 H   0  0  0  0  0  0  0  0  0  0  0  0
   62.1410   33.5180   46.7500 C   0  0  0  0  0  0  0  0  0  0  0  0
   62.5321   34.4358   46.2868 H   0  0  0  0  0  0  0  0  0  0  0  0
   60.7630   33.3490   46.9100 C   0  0  0  0  0  0  0  0  0  0  0  0
   60.0706   34.1348   46.5738 H   0  0  0  0  0  0  0  0  0  0  0  0
   60.2630   32.1820   47.4970 C   0  0  0  0  0  0  0  0  0  0  0  0
   58.9220   32.0340   47.6390 F   0  0  0  0  0  0  0  0  0  0  0  0
   58.4520   26.8230   47.3200 C   0  0  0  0  0  0  0  0  0  0  0  0
   59.0900   26.1747   47.9386 H   0  0  0  0  0  0  0  0  0  0  0  0
   57.1910   26.3680   46.9070 C   0  0  0  0  0  0  0  0  0  0  0  0
   56.7410   24.9850   47.2830 C   0  0  0  0  0  0  0  0  0  0  0  0
   56.7115   24.8943   48.3789 H   0  0  0  0  0  0  0  0  0  0  0  0
   55.7369   24.8019   46.8727 H   0  0  0  0  0  0  0  0  0  0  0  0
   57.4451   24.2461   46.8727 H   0  0  0  0  0  0  0  0  0  0  0  0
   56.4040   27.1750   46.0650 C   0  0  0  0  0  0  0  0  0  0  0  0
   55.1760   26.7050   45.6090 O   0  0  0  0  0  0  0  0  0  0  0  0
   58.1730   32.1600   43.3780 C   0  0  0  0  0  0  0  0  0  0  0  0
   58.5957   31.7195   42.4629 H   0  0  0  0  0  0  0  0  0  0  0  0
   58.4960   33.4680   43.7430 C   0  0  0  0  0  0  0  0  0  0  0  0
   59.1834   34.0596   43.1205 H   0  0  0  0  0  0  0  0  0  0  0  0
   57.9460   34.0240   44.8980 C   0  0  0  0  0  0  0  0  0  0  0  0
   58.1972   35.0532   45.1941 H   0  0  0  0  0  0  0  0  0  0  0  0
  1  2  1  0
  2  3  1  0
  3  4  1  0
  4  5  2  0
  5  6  1  0
  6  7  1  0
  6  8  1  0
  6  9  1  0
  9 10  2  0
 10 11  1  0
 10 12  1  0
 12 13  1  0
 13 14  1  0
 14 15  2  0
 14 16  2  0
 14 17  1  0
 17 18  2  0
 18 19  1  0
 18 20  1  0
 20 21  1  0
 20 22  2  0
 22 23  1  0
 22 24  1  0
 24 25  1  0
 24 26  2  0
 26 27  1  0
 12 28  2  0
 28 29  1  0
 28 30  1  0
 30 31  1  0
 31 32  1  0
 31 33  1  0
 31 34  1  0
 30 35  2  0
 35 36  1  0
  4 37  1  0
 37 38  1  0
 37 39  2  0
 39 40  1  0
 39 41  1  0
 41 42  1  0
 41  2  2  0
 35  9  1  0
 26 17  1  0
M  CHG  3   3  -1  13  -1  36  -1
M  END
>  <UniqueID>  (28) 
28

>  <SMILES>  (28) 
Cc1cc([N-]S(=O)(=O)c2ccccc2F)cc(C/N=c2\cccc[n-]2)c1[O-]

>  <Energy>  (28) 
51.57722636532299

>  <Genealogy>  (28) 
Cc1cc([N-]S(=O)(=O)c2ccccc2F)cc(CN=c2cccc[n-]2)c1[O-] (protonated)
Cc1cc([N-]S(=O)(=O)c2ccccc2F)cc(C/N=c2\cccc[n-]2)c1[O-] (cis-trans isomerization)
Cc1cc([N-]S(=O)(=O)c2ccccc2F)cc(C/N=c2\cccc[n-]2)c1[O-] (3D coordinates assigned)
Cc1cc([N-]S(=O)(=O)c2ccccc2F)cc(C/N=c2\cccc[n-]2)c1[O-] (optimized conformer: 51.57722636532299 kcal/mol)

>  <smiles>  (28) 
Cc1cc(NS(=O)(=O)c2ccccc2F)cc(CN=c2cccc[nH]2)c1O

>  <score_type>  (28) 
oracle

>  <origin>  (28) 
adg

>  <m_score__min__energy>  (28) 
-14.050000000000001

>  <m_primary>  (28) 
energy

$$$$
28:0
     RDKit          3D

 28 29  0  0  0  0  0  0  0  0999 V2000
   60.7879   29.7445   44.1227 H   0  0  0  0  0  0  0  0  0  0  0  0
   59.9370   29.2540   44.6180 C   0  0  0  0  0  0  0  0  0  0  0  0
   60.1630   28.2750   45.5860 C   0  0  0  0  0  0  0  0  0  0  0  0
   61.1936   28.0082   45.8630 H   0  0  0  0  0  0  0  0  0  0  0  0
   59.0870   27.6300   46.2070 C   0  0  0  0  0  0  0  0  0  0  0  0
   59.4410   26.5000   47.5100 Cl  0  0  0  0  0  0  0  0  0  0  0  0
   57.7630   27.9560   45.8340 C   0  0  0  0  0  0  0  0  0  0  0  0
   56.6290   27.2920   46.4140 N   0  0  0  0  0  0  0  0  0  0  0  0
   56.2340   25.9380   46.1510 C   0  0  0  0  0  0  0  0  0  0  0  0
   55.0540   25.7040   45.7880 O   0  0  0  0  0  0  0  0  0  0  0  0
   57.1360   24.8380   46.3460 N   0  0  0  0  0  0  0  0  0  0  0  0
   57.3690   23.8590   45.5170 C   0  0  0  0  0  0  0  0  0  0  0  0
   58.4910   23.0510   45.7340 C   0  0  0  0  0  0  0  0  0  0  0  0
   59.1429   23.2324   46.6013 H   0  0  0  0  0  0  0  0  0  0  0  0
   58.7790   22.0150   44.8460 C   0  0  0  0  0  0  0  0  0  0  0  0
   59.6661   21.3841   45.0039 H   0  0  0  0  0  0  0  0  0  0  0  0
   57.9400   21.7810   43.7580 C   0  0  0  0  0  0  0  0  0  0  0  0
   58.1674   20.9741   43.0459 H   0  0  0  0  0  0  0  0  0  0  0  0
   56.8060   22.5810   43.5790 C   0  0  0  0  0  0  0  0  0  0  0  0
   55.9270   22.3390   42.4780 N   0  0  0  0  0  0  0  0  0  0  0  0
   56.3000   22.2760   41.5040 H   0  0  0  0  0  0  0  0  0  0  0  0
   54.9010   22.2150   42.6270 H   0  0  0  0  0  0  0  0  0  0  0  0
   56.5370   23.5870   44.4610 N   0  0  0  0  0  0  0  0  0  0  0  0
   55.6560   24.1280   44.3280 H   0  0  0  0  0  0  0  0  0  0  0  0
   57.5450   28.9770   44.8910 C   0  0  0  0  0  0  0  0  0  0  0  0
   55.9150   29.4540   44.4380 Cl  0  0  0  0  0  0  0  0  0  0  0  0
   58.6310   29.6110   44.2780 C   0  0  0  0  0  0  0  0  0  0  0  0
   58.4552   30.3937   43.5253 H   0  0  0  0  0  0  0  0  0  0  0  0
  1  2  1  0
  2  3  2  0
  3  4  1  0
  3  5  1  0
  5  6  1  0
  5  7  2  0
  7  8  1  0
  8  9  1  0
  9 10  2  0
  9 11  1  0
 11 12  2  0
 12 13  1  0
 13 14  1  0
 13 15  2  0
 15 16  1  0
 15 17  1  0
 17 18  1  0
 17 19  2  0
 19 20  1  0
 20 21  1  0
 20 22  1  0
 19 23  1  0
 23 24  1  0
  7 25  1  0
 25 26  1  0
 25 27  2  0
 27 28  1  0
 27  2  1  0
 23 12  1  0
M  CHG  1   8  -1
M  END
>  <UniqueID>  (29) 
29

>  <SMILES>  (29) 
Nc1ccc/c(=N/C(=O)[N-]c2c(Cl)cccc2Cl)[nH]1

>  <Energy>  (29) 
41.552370688554625

>  <Genealogy>  (29) 
Nc1cccc(=NC(=O)[N-]c2c(Cl)cccc2Cl)[nH]1 (protonated)
Nc1ccc/c(=N/C(=O)[N-]c2c(Cl)cccc2Cl)[nH]1 (cis-trans isomerization)
Nc1ccc/c(=N/C(=O)[N-]c2c(Cl)cccc2Cl)[nH]1 (3D coordinates assigned)
Nc1ccc/c(=N/C(=O)[N-]c2c(Cl)cccc2Cl)[nH]1 (optimized conformer: 41.552370688554625 kcal/mol)

>  <smiles>  (29) 
Nc1cccc(=NC(=O)Nc2c(Cl)cccc2Cl)[nH]1

>  <score_type>  (29) 
oracle

>  <origin>  (29) 
adg

>  <m_score__min__energy>  (29) 
-8.5600000000000005

>  <m_primary>  (29) 
energy

$$$$
29:0
     RDKit          3D

 51 53  0  0  0  0  0  0  0  0999 V2000
   61.3200   33.7920   48.5270 C   0  0  0  0  0  0  0  0  0  0  0  0
   60.0020   34.1250   49.2160 C   0  0  0  0  0  0  0  0  0  0  0  0
   58.9760   34.3660   48.2530 O   0  0  0  0  0  0  0  0  0  0  0  0
   59.2260   34.5470   46.8860 C   0  0  0  0  0  0  0  0  0  0  0  0
   59.6700   35.6510   46.4620 O   0  0  0  0  0  0  0  0  0  0  0  0
   58.9600   33.4740   45.9650 N   0  0  0  0  0  0  0  0  0  0  0  0
   58.5450   32.1600   46.4700 C   0  0  0  0  0  0  0  0  0  0  0  0
   58.9010   31.0610   45.4560 C   0  0  0  0  0  0  0  0  0  0  0  0
   58.3740   31.3190   44.0940 N   0  0  0  0  0  0  0  0  0  0  0  0
   56.9470   30.3620   43.7810 S   0  0  0  0  0  0  0  0  0  0  0  0
   55.7730   30.9310   44.5300 O   0  0  0  0  0  0  0  0  0  0  0  0
   56.6280   30.3770   42.3100 O   0  0  0  0  0  0  0  0  0  0  0  0
   57.2320   28.6960   44.2780 C   0  0  0  0  0  0  0  0  0  0  0  0
   57.8150   27.7770   43.3970 C   0  0  0  0  0  0  0  0  0  0  0  0
   58.0330   26.4570   43.7990 C   0  0  0  0  0  0  0  0  0  0  0  0
   57.6680   26.0340   45.0900 C   0  0  0  0  0  0  0  0  0  0  0  0
   57.9160   24.6380   45.5210 C   0  0  0  0  0  0  0  0  0  0  0  0
   59.0210   24.3280   46.0470 O   0  0  0  0  0  0  0  0  0  0  0  0
   56.9430   23.6160   45.2550 N   0  0  0  0  0  0  0  0  0  0  0  0
   55.9360   23.2320   45.9930 C   0  0  0  0  0  0  0  0  0  0  0  0
   54.6820   23.4520   45.5080 N   0  0  0  0  0  0  0  0  0  0  0  0
   53.5590   23.0950   46.1860 C   0  0  0  0  0  0  0  0  0  0  0  0
   53.6620   22.4810   47.4330 C   0  0  0  0  0  0  0  0  0  0  0  0
   54.9250   22.2600   47.9790 C   0  0  0  0  0  0  0  0  0  0  0  0
   56.0780   22.6470   47.2800 C   0  0  0  0  0  0  0  0  0  0  0  0
   57.3230   22.4890   47.8890 O   0  0  0  0  0  0  0  0  0  0  0  0
   57.0800   26.9620   45.9680 C   0  0  0  0  0  0  0  0  0  0  0  0
   56.8600   28.2810   45.5620 C   0  0  0  0  0  0  0  0  0  0  0  0
   58.1030   32.7420   43.7870 C   0  0  0  0  0  0  0  0  0  0  0  0
   59.0640   33.6850   44.5160 C   0  0  0  0  0  0  0  0  0  0  0  0
   62.0917   33.5970   49.2863 H   0  0  0  0  0  0  0  0  0  0  0  0
   61.1898   32.8985   47.8987 H   0  0  0  0  0  0  0  0  0  0  0  0
   61.6298   34.6401   47.8987 H   0  0  0  0  0  0  0  0  0  0  0  0
   59.7056   33.2807   49.8558 H   0  0  0  0  0  0  0  0  0  0  0  0
   60.1390   35.0330   49.8216 H   0  0  0  0  0  0  0  0  0  0  0  0
   59.0604   31.9574   47.4204 H   0  0  0  0  0  0  0  0  0  0  0  0
   57.4560   32.1643   46.6249 H   0  0  0  0  0  0  0  0  0  0  0  0
   59.9967   30.9840   45.3965 H   0  0  0  0  0  0  0  0  0  0  0  0
   58.4358   30.1298   45.8117 H   0  0  0  0  0  0  0  0  0  0  0  0
   58.1025   28.0957   42.3842 H   0  0  0  0  0  0  0  0  0  0  0  0
   58.4937   25.7428   43.1006 H   0  0  0  0  0  0  0  0  0  0  0  0
   52.5682   23.2909   45.7501 H   0  0  0  0  0  0  0  0  0  0  0  0
   52.7577   22.1747   47.9793 H   0  0  0  0  0  0  0  0  0  0  0  0
   55.0183   21.7792   48.9640 H   0  0  0  0  0  0  0  0  0  0  0  0
   58.1580   22.9300   47.5210 H   0  0  0  0  0  0  0  0  0  0  0  0
   56.7912   26.6474   46.9817 H   0  0  0  0  0  0  0  0  0  0  0  0
   56.3924   28.9963   46.2546 H   0  0  0  0  0  0  0  0  0  0  0  0
   58.2091   32.8968   42.7031 H   0  0  0  0  0  0  0  0  0  0  0  0
   57.0823   32.9719   44.1266 H   0  0  0  0  0  0  0  0  0  0  0  0
   60.0945   33.4808   44.1898 H   0  0  0  0  0  0  0  0  0  0  0  0
   58.8014   34.7267   44.2798 H   0  0  0  0  0  0  0  0  0  0  0  0
  1  2  1  0
  2  3  1  0
  3  4  1  0
  4  5  2  0
  4  6  1  0
  6  7  1  0
  7  8  1  0
  8  9  1  0
  9 10  1  0
 10 11  2  0
 10 12  2  0
 10 13  1  0
 13 14  2  0
 14 15  1  0
 15 16  2  0
 16 17  1  0
 17 18  2  0
 17 19  1  0
 19 20  2  3
 20 21  1  0
 21 22  1  0
 22 23  2  0
 23 24  1  0
 24 25  2  0
 25 26  1  0
 16 27  1  0
 27 28  2  0
  9 29  1  0
 29 30  1  0
 30  6  1  0
 28 13  1  0
 25 20  1  0
  1 31  1  0
  1 32  1  0
  1 33  1  0
  2 34  1  0
  2 35  1  0
  7 36  1  0
  7 37  1  0
  8 38  1  0
  8 39  1  0
 14 40  1  0
 15 41  1  0
 22 42  1  0
 23 43  1  0
 24 44  1  0
 26 45  1  0
 27 46  1  0
 28 47  1  0
 29 48  1  0
 29 49  1  0
 30 50  1  0
 30 51  1  0
M  CHG  1  21  -1
M  END
>  <UniqueID>  (30) 
30

>  <SMILES>  (30) 
CCOC(=O)N1CCN(S(=O)(=O)c2ccc(C(=O)N=c3[n-]cccc3O)cc2)CC1

>  <Energy>  (30) 
66.5171146501476

>  <Genealogy>  (30) 
CCOC(=O)N1CCN(S(=O)(=O)c2ccc(C(=O)N=c3[n-]cccc3O)cc2)CC1 (protonated)
CCOC(=O)N1CCN(S(=O)(=O)c2ccc(C(=O)N=c3[n-]cccc3O)cc2)CC1 (3D coordinates assigned)
CCOC(=O)N1CCN(S(=O)(=O)c2ccc(C(=O)N=c3[n-]cccc3O)cc2)CC1 (nonaromatic ring conformer: 66.5171146501476 kcal/mol)

>  <smiles>  (30) 
CCOC(=O)N1CCN(S(=O)(=O)c2ccc(C(=O)N=c3[nH]cccc3O)cc2)CC1

>  <score_type>  (30) 
oracle

>  <origin>  (30) 
adg

>  <m_score__min__energy>  (30) 
-11.279999999999999

>  <m_primary>  (30) 
energy

$$$$
30:0
     RDKit          3D

 51 54  0  0  0  0  0  0  0  0999 V2000
   55.5180   25.2090   47.5660 H   0  0  0  0  0  0  0  0  0  0  0  0
   56.5190   25.3680   47.6120 O   0  0  0  0  0  0  0  0  0  0  0  0
   57.1120   26.4660   46.9890 C   0  0  0  0  0  0  0  0  0  0  0  0
   58.3980   26.8760   47.3520 C   0  0  0  0  0  0  0  0  0  0  0  0
   58.9431   26.3327   48.1379 H   0  0  0  0  0  0  0  0  0  0  0  0
   58.9950   27.9700   46.7240 C   0  0  0  0  0  0  0  0  0  0  0  0
   60.0119   28.2766   47.0104 H   0  0  0  0  0  0  0  0  0  0  0  0
   58.3040   28.6840   45.7260 C   0  0  0  0  0  0  0  0  0  0  0  0
   56.9990   28.2800   45.3690 C   0  0  0  0  0  0  0  0  0  0  0  0
   56.4170   27.1580   45.9930 C   0  0  0  0  0  0  0  0  0  0  0  0
   55.1480   26.7230   45.6260 O   0  0  0  0  0  0  0  0  0  0  0  0
   56.2780   28.9920   44.2430 C   0  0  0  0  0  0  0  0  0  0  0  0
   56.5807   28.5280   43.2927 H   0  0  0  0  0  0  0  0  0  0  0  0
   55.2015   28.8907   44.4454 H   0  0  0  0  0  0  0  0  0  0  0  0
   56.5710   30.5100   44.1560 C   0  0  0  0  0  0  0  0  0  0  0  0
   56.7274   30.7656   43.0976 H   0  0  0  0  0  0  0  0  0  0  0  0
   55.7035   31.0132   44.6079 H   0  0  0  0  0  0  0  0  0  0  0  0
   57.8060   30.9920   44.9510 C   0  0  1  0  0  0  0  0  0  0  0  0
   58.2296   31.8663   44.4352 H   0  0  0  0  0  0  0  0  0  0  0  0
   57.4180   31.3490   46.2550 O   0  0  0  0  0  0  0  0  0  0  0  0
   58.1320   31.9350   46.6200 H   0  0  0  0  0  0  0  0  0  0  0  0
   58.8920   29.8930   45.0140 C   0  0  1  0  0  0  0  0  0  0  0  0
   59.1785   29.6141   43.9892 H   0  0  0  0  0  0  0  0  0  0  0  0
   60.1490   30.3560   45.6300 N   0  0  0  0  0  0  0  0  0  0  0  0
   61.0360   30.1680   45.1100 H   0  0  0  0  0  0  0  0  0  0  0  0
   60.2170   31.3810   46.6360 C   0  0  0  0  0  0  0  0  0  0  0  0
   60.2960   32.6400   46.3060 N   0  0  0  0  0  0  0  0  0  0  0  0
   60.6730   33.7430   47.1500 C   0  0  0  0  0  0  0  0  0  0  0  0
   60.0220   34.8230   47.1250 O   0  0  0  0  0  0  0  0  0  0  0  0
   61.8500   33.6210   48.0430 C   0  0  0  0  0  0  0  0  0  0  0  0
   63.0490   33.0470   47.5770 C   0  0  0  0  0  0  0  0  0  0  0  0
   63.1195   32.6992   46.5358 H   0  0  0  0  0  0  0  0  0  0  0  0
   64.1520   32.9160   48.4300 C   0  0  0  0  0  0  0  0  0  0  0  0
   65.0829   32.4637   48.0575 H   0  0  0  0  0  0  0  0  0  0  0  0
   64.0730   33.3580   49.7520 C   0  0  0  0  0  0  0  0  0  0  0  0
   64.9404   33.2539   50.4204 H   0  0  0  0  0  0  0  0  0  0  0  0
   62.8900   33.9330   50.2250 C   0  0  0  0  0  0  0  0  0  0  0  0
   62.8291   34.2844   51.2656 H   0  0  0  0  0  0  0  0  0  0  0  0
   61.7830   34.0630   49.3790 C   0  0  0  0  0  0  0  0  0  0  0  0
   60.8544   34.5133   49.7596 H   0  0  0  0  0  0  0  0  0  0  0  0
   60.1930   30.9900   48.0730 C   0  0  0  0  0  0  0  0  0  0  0  0
   61.1630   30.0880   48.5580 C   0  0  0  0  0  0  0  0  0  0  0  0
   61.9319   29.6965   47.8757 H   0  0  0  0  0  0  0  0  0  0  0  0
   61.1570   29.6870   49.8960 C   0  0  0  0  0  0  0  0  0  0  0  0
   61.9157   28.9784   50.2596 H   0  0  0  0  0  0  0  0  0  0  0  0
   60.1930   30.1820   50.7710 C   0  0  0  0  0  0  0  0  0  0  0  0
   60.1922   29.8660   51.8246 H   0  0  0  0  0  0  0  0  0  0  0  0
   59.2270   31.0800   50.3100 C   0  0  0  0  0  0  0  0  0  0  0  0
   58.4691   31.4712   51.0047 H   0  0  0  0  0  0  0  0  0  0  0  0
   59.2170   31.4850   48.9710 C   0  0  0  0  0  0  0  0  0  0  0  0
   58.2230   32.3640   48.5480 O   0  0  0  0  0  0  0  0  0  0  0  0
  1  2  1  0
  2  3  1  0
  3  4  2  0
  4  5  1  0
  4  6  1  0
  6  7  1  0
  6  8  2  0
  8  9  1  0
  9 10  2  0
 10 11  1  0
  9 12  1  0
 12 13  1  0
 12 14  1  0
 12 15  1  0
 15 16  1  0
 15 17  1  0
 15 18  1  0
 18 19  1  6
 18 20  1  0
 20 21  1  0
 18 22  1  0
 22 23  1  6
 22 24  1  0
 24 25  1  0
 24 26  1  0
 26 27  2  0
 27 28  1  0
 28 29  2  0
 28 30  1  0
 30 31  2  0
 31 32  1  0
 31 33  1  0
 33 34  1  0
 33 35  2  0
 35 36  1  0
 35 37  1  0
 37 38  1  0
 37 39  2  0
 39 40  1  0
 26 41  1  0
 41 42  2  0
 42 43  1  0
 42 44  1  0
 44 45  1  0
 44 46  2  0
 46 47  1  0
 46 48  1  0
 48 49  1  0
 48 50  2  0
 50 51  1  0
 10  3  1  0
 39 30  1  0
 50 41  1  0
 22  8  1  0
M  CHG  2  11  -1  51  -1
M  END
>  <UniqueID>  (31) 
31

>  <SMILES>  (31) 
O=C(/N=C(\N[C@H]1c2ccc(O)c([O-])c2CC[C@H]1O)c1ccccc1[O-])c1ccccc1

>  <Energy>  (31) 
78.89240835188365

>  <Genealogy>  (31) 
O=C(N=C(NC1c2ccc(O)c([O-])c2CCC1O)c1ccccc1[O-])c1ccccc1 (protonated)
O=C(N=C(N[C@H]1c2ccc(O)c([O-])c2CC[C@H]1O)c1ccccc1[O-])c1ccccc1 (chirality)
O=C(/N=C(\N[C@H]1c2ccc(O)c([O-])c2CC[C@H]1O)c1ccccc1[O-])c1ccccc1 (cis-trans isomerization)
O=C(/N=C(\N[C@H]1c2ccc(O)c([O-])c2CC[C@H]1O)c1ccccc1[O-])c1ccccc1 (3D coordinates assigned)
O=C(/N=C(\N[C@H]1c2ccc(O)c([O-])c2CC[C@H]1O)c1ccccc1[O-])c1ccccc1 (nonaromatic ring conformer: 78.89240835188365 kcal/mol)

>  <smiles>  (31) 
O=C(N=C(NC1c2ccc(O)c(O)c2CCC1O)c1ccccc1O)c1ccccc1

>  <score_type>  (31) 
oracle

>  <origin>  (31) 
adg

>  <m_score__min__energy>  (31) 
-13.09

>  <m_primary>  (31) 
energy

$$$$
31:0
     RDKit          3D

 39 41  0  0  0  0  0  0  0  0999 V2000
   59.1950   35.1300   48.9930 H   0  0  0  0  0  0  0  0  0  0  0  0
   59.1450   34.2140   48.5640 O   0  0  0  0  0  0  0  0  0  0  0  0
   58.9140   34.0590   47.1990 C   0  0  0  0  0  0  0  0  0  0  0  0
   59.4650   34.9760   46.2990 C   0  0  0  0  0  0  0  0  0  0  0  0
   60.0835   35.8064   46.6704 H   0  0  0  0  0  0  0  0  0  0  0  0
   59.2310   34.8390   44.9280 C   0  0  0  0  0  0  0  0  0  0  0  0
   59.6599   35.5660   44.2227 H   0  0  0  0  0  0  0  0  0  0  0  0
   58.4530   33.7800   44.4510 C   0  0  0  0  0  0  0  0  0  0  0  0
   58.2582   33.6858   43.3725 H   0  0  0  0  0  0  0  0  0  0  0  0
   57.9180   32.8340   45.3450 C   0  0  0  0  0  0  0  0  0  0  0  0
   57.0720   31.7130   44.8780 C   0  0  0  0  0  0  0  0  0  0  0  0
   55.9814   31.8418   44.9414 H   0  0  0  0  0  0  0  0  0  0  0  0
   57.5290   30.5510   44.3830 C   0  0  0  0  0  0  0  0  0  0  0  0
   57.9270   30.5561   43.3576 H   0  0  0  0  0  0  0  0  0  0  0  0
   57.5370   29.2630   45.1150 C   0  0  0  0  0  0  0  0  0  0  0  0
   56.3620   28.5250   45.3080 C   0  0  0  0  0  0  0  0  0  0  0  0
   55.1450   28.9690   44.8030 O   0  0  0  0  0  0  0  0  0  0  0  0
   56.4090   27.3500   45.9790 N   0  0  0  0  0  0  0  0  0  0  0  0
   57.5750   26.8490   46.4590 C   0  0  0  0  0  0  0  0  0  0  0  0
   57.5550   25.7430   47.0650 O   0  0  0  0  0  0  0  0  0  0  0  0
   58.7530   27.5260   46.2650 N   0  0  0  0  0  0  0  0  0  0  0  0
   59.9950   26.9790   46.7670 C   0  0  0  0  0  0  0  0  0  0  0  0
   60.4790   25.9380   46.2440 O   0  0  0  0  0  0  0  0  0  0  0  0
   60.6520   27.5930   47.8850 N   0  0  0  0  0  0  0  0  0  0  0  0
   60.3680   28.8860   48.4400 C   0  0  0  0  0  0  0  0  0  0  0  0
   59.2990   29.0120   49.3370 C   0  0  0  0  0  0  0  0  0  0  0  0
   58.7091   28.1252   49.6121 H   0  0  0  0  0  0  0  0  0  0  0  0
   58.9770   30.2580   49.8850 C   0  0  0  0  0  0  0  0  0  0  0  0
   58.1436   30.3463   50.5975 H   0  0  0  0  0  0  0  0  0  0  0  0
   59.7130   31.3900   49.5280 C   0  0  0  0  0  0  0  0  0  0  0  0
   59.4643   32.3684   49.9649 H   0  0  0  0  0  0  0  0  0  0  0  0
   60.7660   31.2790   48.6150 C   0  0  0  0  0  0  0  0  0  0  0  0
   61.3400   32.1724   48.3280 H   0  0  0  0  0  0  0  0  0  0  0  0
   61.0910   30.0350   48.0660 C   0  0  0  0  0  0  0  0  0  0  0  0
   61.9135   29.9536   47.3401 H   0  0  0  0  0  0  0  0  0  0  0  0
   58.7440   28.7260   45.5950 C   0  0  0  0  0  0  0  0  0  0  0  0
   59.8130   29.3760   45.4290 O   0  0  0  0  0  0  0  0  0  0  0  0
   58.1340   32.9960   46.7230 C   0  0  0  0  0  0  0  0  0  0  0  0
   57.6883   32.2842   47.4334 H   0  0  0  0  0  0  0  0  0  0  0  0
  1  2  1  0
  2  3  1  0
  3  4  2  0
  4  5  1  0
  4  6  1  0
  6  7  1  0
  6  8  2  0
  8  9  1  0
  8 10  1  0
 10 11  1  0
 11 12  1  0
 11 13  2  0
 13 14  1  0
 13 15  1  0
 15 16  2  0
 16 17  1  0
 16 18  1  0
 18 19  1  0
 19 20  2  0
 19 21  1  0
 21 22  1  0
 22 23  2  0
 22 24  1  0
 24 25  1  0
 25 26  2  0
 26 27  1  0
 26 28  1  0
 28 29  1  0
 28 30  2  0
 30 31  1  0
 30 32  1  0
 32 33  1  0
 32 34  2  0
 34 35  1  0
 21 36  1  0
 36 37  2  0
 10 38  2  0
 38 39  1  0
 38  3  1  0
 36 15  1  0
 34 25  1  0
M  CHG  3  17  -1  18  -1  24  -1
M  END
>  <UniqueID>  (32) 
32

>  <SMILES>  (32) 
O=C([N-]c1ccccc1)n1c(=O)[n-]c([O-])c(/C=C\c2cccc(O)c2)c1=O

>  <Energy>  (32) 
65.92569804427826

>  <Genealogy>  (32) 
O=C([N-]c1ccccc1)n1c(=O)[n-]c([O-])c(C=Cc2cccc(O)c2)c1=O (protonated)
O=C([N-]c1ccccc1)n1c(=O)[n-]c([O-])c(/C=C\c2cccc(O)c2)c1=O (cis-trans isomerization)
O=C([N-]c1ccccc1)n1c(=O)[n-]c([O-])c(/C=C\c2cccc(O)c2)c1=O (3D coordinates assigned)
O=C([N-]c1ccccc1)n1c(=O)[n-]c([O-])c(/C=C\c2cccc(O)c2)c1=O (optimized conformer: 65.92569804427826 kcal/mol)

>  <smiles>  (32) 
O=C(Nc1ccccc1)n1c(=O)[nH]c(O)c(C=Cc2cccc(O)c2)c1=O

>  <score_type>  (32) 
oracle

>  <origin>  (32) 
adg

>  <m_score__min__energy>  (32) 
-14.289999999999999

>  <m_primary>  (32) 
energy

$$$$
32:0
     RDKit          3D

 38 40  0  0  0  0  0  0  0  0999 V2000
   60.3000   26.3420   49.0380 O   0  0  0  0  0  0  0  0  0  0  0  0
   60.2860   27.5260   48.6100 C   0  0  0  0  0  0  0  0  0  0  0  0
   59.9490   28.6590   49.5330 C   0  0  0  0  0  0  0  0  0  0  0  0
   60.7000   29.9310   49.1210 C   0  0  0  0  0  0  0  0  0  0  0  0
   60.5240   30.2190   47.6900 N   0  0  0  0  0  0  0  0  0  0  0  0
   60.5610   31.5840   47.2410 C   0  0  0  0  0  0  0  0  0  0  0  0
   61.6160   32.4210   47.6290 C   0  0  0  0  0  0  0  0  0  0  0  0
   61.6570   33.7470   47.1930 C   0  0  0  0  0  0  0  0  0  0  0  0
   60.6550   34.2440   46.3560 C   0  0  0  0  0  0  0  0  0  0  0  0
   59.6050   33.4120   45.9350 C   0  0  0  0  0  0  0  0  0  0  0  0
   58.5420   33.9530   45.0530 C   0  0  0  0  0  0  0  0  0  0  0  0
   58.4930   35.1950   44.8500 O   0  0  0  0  0  0  0  0  0  0  0  0
   57.5160   33.1030   44.4110 C   0  0  0  0  0  0  0  0  0  0  0  0
   57.8090   31.9330   43.8270 C   0  0  0  0  0  0  0  0  0  0  0  0
   57.3240   30.6240   44.3250 C   0  0  0  0  0  0  0  0  0  0  0  0
   55.9410   30.4020   44.4140 C   0  0  0  0  0  0  0  0  0  0  0  0
   55.4770   29.2100   44.8730 N   0  0  0  0  0  0  0  0  0  0  0  0
   56.3280   28.2270   45.2590 C   0  0  0  0  0  0  0  0  0  0  0  0
   55.8740   27.1310   45.6810 O   0  0  0  0  0  0  0  0  0  0  0  0
   57.7060   28.4430   45.1900 C   0  0  0  0  0  0  0  0  0  0  0  0
   58.1760   29.6340   44.7310 N   0  0  0  0  0  0  0  0  0  0  0  0
   59.5570   32.0840   46.3960 C   0  0  0  0  0  0  0  0  0  0  0  0
   60.5620   29.1280   46.7490 C   0  0  0  0  0  0  0  0  0  0  0  0
   60.6080   29.3430   45.5090 O   0  0  0  0  0  0  0  0  0  0  0  0
   60.5190   27.7840   47.2260 N   0  0  0  0  0  0  0  0  0  0  0  0
   58.8663   28.8490   49.4922 H   0  0  0  0  0  0  0  0  0  0  0  0
   60.2485   28.3852   50.5554 H   0  0  0  0  0  0  0  0  0  0  0  0
   60.3154   30.7791   49.7066 H   0  0  0  0  0  0  0  0  0  0  0  0
   61.7721   29.7774   49.3136 H   0  0  0  0  0  0  0  0  0  0  0  0
   62.4140   32.0324   48.2788 H   0  0  0  0  0  0  0  0  0  0  0  0
   62.4814   34.4027   47.5098 H   0  0  0  0  0  0  0  0  0  0  0  0
   60.6887   35.2925   46.0250 H   0  0  0  0  0  0  0  0  0  0  0  0
   56.4705   33.4449   44.4130 H   0  0  0  0  0  0  0  0  0  0  0  0
   58.4441   31.9448   42.9290 H   0  0  0  0  0  0  0  0  0  0  0  0
   55.2351   31.1902   44.1133 H   0  0  0  0  0  0  0  0  0  0  0  0
   58.4065   27.6554   45.5047 H   0  0  0  0  0  0  0  0  0  0  0  0
   59.2100   29.7760   44.7270 H   0  0  0  0  0  0  0  0  0  0  0  0
   58.7255   31.4312   46.0919 H   0  0  0  0  0  0  0  0  0  0  0  0
  1  2  2  0
  2  3  1  0
  3  4  1  0
  4  5  1  0
  5  6  1  0
  6  7  2  0
  7  8  1  0
  8  9  2  0
  9 10  1  0
 10 11  1  0
 11 12  2  0
 11 13  1  0
 13 14  2  3
 14 15  1  0
 15 16  2  0
 16 17  1  0
 17 18  1  0
 18 19  2  0
 18 20  1  0
 20 21  2  0
 10 22  2  0
  5 23  1  0
 23 24  2  0
 23 25  1  0
 25  2  1  0
 22  6  1  0
 21 15  1  0
  3 26  1  0
  3 27  1  0
  4 28  1  0
  4 29  1  0
  7 30  1  0
  8 31  1  0
  9 32  1  0
 13 33  1  0
 14 34  1  0
 16 35  1  0
 20 36  1  0
 21 37  1  0
 22 38  1  0
M  CHG  3  17  -1  21   1  25  -1
M  END
>  <UniqueID>  (33) 
33

>  <SMILES>  (33) 
O=C1CCN(c2cccc(C(=O)C=Cc3c[n-]c(=O)c[nH+]3)c2)C(=O)[N-]1

>  <Energy>  (33) 
52.65826633383081

>  <Genealogy>  (33) 
O=C1CCN(c2cccc(C(=O)C=Cc3c[n-]c(=O)c[nH+]3)c2)C(=O)[N-]1 (protonated)
O=C1CCN(c2cccc(C(=O)C=Cc3c[n-]c(=O)c[nH+]3)c2)C(=O)[N-]1 (3D coordinates assigned)
O=C1CCN(c2cccc(C(=O)C=Cc3c[n-]c(=O)c[nH+]3)c2)C(=O)[N-]1 (nonaromatic ring conformer: 52.65826633383081 kcal/mol)

>  <smiles>  (33) 
O=C1CCN(c2cccc(C(=O)C=Cc3c[nH]c(=O)cn3)c2)C(=O)N1

>  <score_type>  (33) 
oracle

>  <origin>  (33) 
adg

>  <m_score__min__energy>  (33) 
-9.6899999999999995

>  <m_primary>  (33) 
energy

$$$$
33:0
     RDKit          3D

 51 54  0  0  0  0  0  0  0  0999 V2000
   61.4270   26.3650   48.3790 O   0  0  0  0  0  0  0  0  0  0  0  0
   60.4650   26.4780   47.5740 C   0  0  0  0  0  0  0  0  0  0  0  0
   60.6220   27.2150   46.3540 N   0  0  0  0  0  0  0  0  0  0  0  0
   59.6470   28.0730   45.7460 C   0  0  0  0  0  0  0  0  0  0  0  0
   59.1280   27.8240   44.4620 C   0  0  0  0  0  0  0  0  0  0  0  0
   58.1570   28.6700   43.9180 C   0  0  0  0  0  0  0  0  0  0  0  0
   57.6860   29.7670   44.6520 C   0  0  0  0  0  0  0  0  0  0  0  0
   56.4690   30.8410   43.9720 S   0  0  0  0  0  0  0  0  0  0  0  0
   56.7900   31.1820   42.5430 O   0  0  0  0  0  0  0  0  0  0  0  0
   55.1350   30.1510   44.0180 O   0  0  0  0  0  0  0  0  0  0  0  0
   56.3810   32.3080   44.9020 N   0  0  0  0  0  0  0  0  0  0  0  0
   57.3850   33.0370   45.2960 C   0  0  0  0  0  0  0  0  0  0  0  0
   58.2800   33.6510   44.3960 C   0  0  0  0  0  0  0  0  0  0  0  0
   59.3370   34.4170   44.8930 C   0  0  0  0  0  0  0  0  0  0  0  0
   59.4980   34.5700   46.2700 C   0  0  0  0  0  0  0  0  0  0  0  0
   58.5950   33.9520   47.1340 C   0  0  0  0  0  0  0  0  0  0  0  0
   57.5720   33.2090   46.6340 N   0  0  0  0  0  0  0  0  0  0  0  0
   58.1830   30.0020   45.9390 C   0  0  0  0  0  0  0  0  0  0  0  0
   59.1520   29.1550   46.4850 C   0  0  0  0  0  0  0  0  0  0  0  0
   59.1850   25.9570   47.9460 N   0  0  0  0  0  0  0  0  0  0  0  0
   58.2910   25.2250   47.0960 C   0  0  0  0  0  0  0  0  0  0  0  0
   56.9320   25.1770   47.4300 C   0  0  0  0  0  0  0  0  0  0  0  0
   56.0340   24.4510   46.6410 C   0  0  0  0  0  0  0  0  0  0  0  0
   56.4890   23.7510   45.5170 C   0  0  0  0  0  0  0  0  0  0  0  0
   55.3500   22.8260   44.5440 S   0  0  0  0  0  0  0  0  0  0  0  0
   56.0760   21.9610   43.5520 O   0  0  0  0  0  0  0  0  0  0  0  0
   54.4580   23.7790   43.8000 O   0  0  0  0  0  0  0  0  0  0  0  0
   54.3810   21.8180   45.5720 N   0  0  0  0  0  0  0  0  0  0  0  0
   53.1990   22.1440   45.9940 C   0  0  0  0  0  0  0  0  0  0  0  0
   52.8410   21.9550   47.2950 N   0  0  0  0  0  0  0  0  0  0  0  0
   51.6060   22.3010   47.7400 C   0  0  0  0  0  0  0  0  0  0  0  0
   50.6810   22.8590   46.8590 C   0  0  0  0  0  0  0  0  0  0  0  0
   51.0600   23.0460   45.5300 C   0  0  0  0  0  0  0  0  0  0  0  0
   52.3060   22.6870   45.1230 N   0  0  0  0  0  0  0  0  0  0  0  0
   57.8510   23.7790   45.1900 C   0  0  0  0  0  0  0  0  0  0  0  0
   58.7510   24.5040   45.9790 C   0  0  0  0  0  0  0  0  0  0  0  0
   59.4878   26.9601   43.8839 H   0  0  0  0  0  0  0  0  0  0  0  0
   57.7614   28.4740   42.9105 H   0  0  0  0  0  0  0  0  0  0  0  0
   58.1469   33.5278   43.3111 H   0  0  0  0  0  0  0  0  0  0  0  0
   60.0416   34.8990   44.1993 H   0  0  0  0  0  0  0  0  0  0  0  0
   60.3279   35.1713   46.6697 H   0  0  0  0  0  0  0  0  0  0  0  0
   58.7104   34.0657   48.2220 H   0  0  0  0  0  0  0  0  0  0  0  0
   57.8099   30.8562   46.5231 H   0  0  0  0  0  0  0  0  0  0  0  0
   59.5283   29.3396   47.5020 H   0  0  0  0  0  0  0  0  0  0  0  0
   56.5684   25.7137   48.3186 H   0  0  0  0  0  0  0  0  0  0  0  0
   54.9662   24.4299   46.9045 H   0  0  0  0  0  0  0  0  0  0  0  0
   51.3356   22.1413   48.7942 H   0  0  0  0  0  0  0  0  0  0  0  0
   49.6763   23.1449   47.2038 H   0  0  0  0  0  0  0  0  0  0  0  0
   50.3511   23.4837   44.8118 H   0  0  0  0  0  0  0  0  0  0  0  0
   58.2144   23.2289   44.3095 H   0  0  0  0  0  0  0  0  0  0  0  0
   59.8213   24.5102   45.7251 H   0  0  0  0  0  0  0  0  0  0  0  0
  1  2  2  0
  2  3  1  0
  3  4  1  0
  4  5  2  0
  5  6  1  0
  6  7  2  0
  7  8  1  0
  8  9  2  0
  8 10  2  0
  8 11  1  0
 11 12  2  3
 12 13  1  0
 13 14  2  0
 14 15  1  0
 15 16  2  0
 16 17  1  0
  7 18  1  0
 18 19  2  0
  2 20  1  0
 20 21  1  0
 21 22  2  0
 22 23  1  0
 23 24  2  0
 24 25  1  0
 25 26  2  0
 25 27  2  0
 25 28  1  0
 28 29  2  3
 29 30  1  0
 30 31  2  0
 31 32  1  0
 32 33  2  0
 33 34  1  0
 24 35  1  0
 35 36  2  0
 19  4  1  0
 36 21  1  0
 17 12  1  0
 34 29  1  0
  5 37  1  0
  6 38  1  0
 13 39  1  0
 14 40  1  0
 15 41  1  0
 16 42  1  0
 18 43  1  0
 19 44  1  0
 22 45  1  0
 23 46  1  0
 31 47  1  0
 32 48  1  0
 33 49  1  0
 35 50  1  0
 36 51  1  0
M  CHG  4   3  -1  17  -1  20  -1  34  -1
M  END
>  <UniqueID>  (34) 
34

>  <SMILES>  (34) 
O=C([N-]c1ccc(S(=O)(=O)N=c2cccc[n-]2)cc1)[N-]c1ccc(S(=O)(=O)N=c2nccc[n-]2)cc1

>  <Energy>  (34) 
72.75057189028043

>  <Genealogy>  (34) 
O=C([N-]c1ccc(S(=O)(=O)N=c2cccc[n-]2)cc1)[N-]c1ccc(S(=O)(=O)N=c2nccc[n-]2)cc1 (protonated)
O=C([N-]c1ccc(S(=O)(=O)N=c2cccc[n-]2)cc1)[N-]c1ccc(S(=O)(=O)N=c2nccc[n-]2)cc1 (3D coordinates assigned)
O=C([N-]c1ccc(S(=O)(=O)N=c2cccc[n-]2)cc1)[N-]c1ccc(S(=O)(=O)N=c2nccc[n-]2)cc1 (optimized conformer: 72.75057189028043 kcal/mol)

>  <smiles>  (34) 
O=C(Nc1ccc(S(=O)(=O)N=c2cccc[nH]2)cc1)Nc1ccc(S(=O)(=O)N=c2nccc[nH]2)cc1

>  <score_type>  (34) 
oracle

>  <origin>  (34) 
adg

>  <m_score__min__energy>  (34) 
-14.279999999999999

>  <m_primary>  (34) 
energy

$$$$
34:0
     RDKit          3D

 47 50  0  0  0  0  0  0  0  0999 V2000
   59.0050   34.7870   46.5010 C   0  0  0  0  0  0  0  0  0  0  0  0
   58.9460   33.3380   46.7890 N   0  0  0  0  0  0  0  0  0  0  0  0
   59.3860   32.8940   48.0170 C   0  0  0  0  0  0  0  0  0  0  0  0
   59.8230   33.6990   48.8850 O   0  0  0  0  0  0  0  0  0  0  0  0
   59.3620   31.5430   48.3380 C   0  0  0  0  0  0  0  0  0  0  0  0
   58.8930   30.6220   47.4210 C   0  0  0  0  0  0  0  0  0  0  0  0
   58.4280   31.0410   46.1650 C   0  0  0  0  0  0  0  0  0  0  0  0
   57.9410   30.0970   45.2210 C   0  0  0  0  0  0  0  0  0  0  0  0
   57.9090   28.6520   45.5400 C   0  0  0  0  0  0  0  0  0  0  0  0
   59.1020   27.9630   45.7980 C   0  0  0  0  0  0  0  0  0  0  0  0
   59.0690   26.6080   46.1370 C   0  0  0  0  0  0  0  0  0  0  0  0
   57.8460   25.9360   46.2210 C   0  0  0  0  0  0  0  0  0  0  0  0
   56.6440   26.6150   45.9520 C   0  0  0  0  0  0  0  0  0  0  0  0
   55.3700   25.9620   46.0180 N   0  0  0  0  0  0  0  0  0  0  0  0
   55.1260   24.2730   46.3240 S   0  0  0  0  0  0  0  0  0  0  0  0
   53.6610   23.9600   46.2030 O   0  0  0  0  0  0  0  0  0  0  0  0
   55.5650   23.9580   47.7260 O   0  0  0  0  0  0  0  0  0  0  0  0
   56.0040   23.3200   45.1240 C   0  0  0  0  0  0  0  0  0  0  0  0
   55.5550   23.3320   43.7960 C   0  0  0  0  0  0  0  0  0  0  0  0
   56.2330   22.6000   42.8160 C   0  0  0  0  0  0  0  0  0  0  0  0
   57.3610   21.8540   43.1550 C   0  0  0  0  0  0  0  0  0  0  0  0
   57.8140   21.8350   44.4760 C   0  0  0  0  0  0  0  0  0  0  0  0
   57.1420   22.5650   45.4620 C   0  0  0  0  0  0  0  0  0  0  0  0
   57.6060   22.5300   46.7350 F   0  0  0  0  0  0  0  0  0  0  0  0
   56.6840   27.9740   45.6140 C   0  0  0  0  0  0  0  0  0  0  0  0
   57.4850   30.5370   43.9630 C   0  0  0  0  0  0  0  0  0  0  0  0
   56.9780   29.6180   42.9830 N   0  0  0  0  0  0  0  0  0  0  0  0
   57.5130   31.8960   43.6590 C   0  0  0  0  0  0  0  0  0  0  0  0
   57.9850   32.8350   44.5710 C   0  0  0  0  0  0  0  0  0  0  0  0
   57.9610   34.1280   44.1660 F   0  0  0  0  0  0  0  0  0  0  0  0
   58.4600   32.4340   45.8520 C   0  0  0  0  0  0  0  0  0  0  0  0
   59.0279   35.3482   47.4468 H   0  0  0  0  0  0  0  0  0  0  0  0
   59.9129   35.0089   45.9210 H   0  0  0  0  0  0  0  0  0  0  0  0
   58.1181   35.0820   45.9210 H   0  0  0  0  0  0  0  0  0  0  0  0
   59.7167   31.2059   49.3232 H   0  0  0  0  0  0  0  0  0  0  0  0
   58.8840   29.5523   47.6774 H   0  0  0  0  0  0  0  0  0  0  0  0
   60.0655   28.4898   45.7335 H   0  0  0  0  0  0  0  0  0  0  0  0
   60.0067   26.0692   46.3381 H   0  0  0  0  0  0  0  0  0  0  0  0
   57.8237   24.8718   46.4986 H   0  0  0  0  0  0  0  0  0  0  0  0
   54.6658   23.9195   43.5237 H   0  0  0  0  0  0  0  0  0  0  0  0
   55.8756   22.6129   41.7758 H   0  0  0  0  0  0  0  0  0  0  0  0
   57.8940   21.2806   42.3823 H   0  0  0  0  0  0  0  0  0  0  0  0
   58.7026   21.2437   44.7421 H   0  0  0  0  0  0  0  0  0  0  0  0
   55.7480   28.5128   45.4052 H   0  0  0  0  0  0  0  0  0  0  0  0
   57.3770   29.5530   42.0220 H   0  0  0  0  0  0  0  0  0  0  0  0
   56.1990   28.9650   43.2200 H   0  0  0  0  0  0  0  0  0  0  0  0
   57.1539   32.2345   42.6759 H   0  0  0  0  0  0  0  0  0  0  0  0
  1  2  1  0
  2  3  1  0
  3  4  2  0
  3  5  1  0
  5  6  2  0
  6  7  1  0
  7  8  2  0
  8  9  1  0
  9 10  2  0
 10 11  1  0
 11 12  2  0
 12 13  1  0
 13 14  1  0
 14 15  1  0
 15 16  2  0
 15 17  2  0
 15 18  1  0
 18 19  2  0
 19 20  1  0
 20 21  2  0
 21 22  1  0
 22 23  2  0
 23 24  1  0
 13 25  2  0
  8 26  1  0
 26 27  1  0
 26 28  2  0
 28 29  1  0
 29 30  1  0
 29 31  2  0
 31  2  1  0
 31  7  1  0
 25  9  1  0
 23 18  1  0
  1 32  1  0
  1 33  1  0
  1 34  1  0
  5 35  1  0
  6 36  1  0
 10 37  1  0
 11 38  1  0
 12 39  1  0
 19 40  1  0
 20 41  1  0
 21 42  1  0
 22 43  1  0
 25 44  1  0
 27 45  1  0
 27 46  1  0
 28 47  1  0
M  CHG  1  14  -1
M  END
>  <UniqueID>  (35) 
35

>  <SMILES>  (35) 
Cn1c(=O)ccc2c(-c3cccc([N-]S(=O)(=O)c4ccccc4F)c3)c(N)cc(F)c21

>  <Energy>  (35) 
79.82335978462538

>  <Genealogy>  (35) 
Cn1c(=O)ccc2c(-c3cccc([N-]S(=O)(=O)c4ccccc4F)c3)c(N)cc(F)c21 (protonated)
Cn1c(=O)ccc2c(-c3cccc([N-]S(=O)(=O)c4ccccc4F)c3)c(N)cc(F)c21 (3D coordinates assigned)
Cn1c(=O)ccc2c(-c3cccc([N-]S(=O)(=O)c4ccccc4F)c3)c(N)cc(F)c21 (optimized conformer: 79.82335978462538 kcal/mol)

>  <smiles>  (35) 
Cn1c(=O)ccc2c(-c3cccc(NS(=O)(=O)c4ccccc4F)c3)c(N)cc(F)c21

>  <score_type>  (35) 
oracle

>  <origin>  (35) 
adg

>  <m_score__min__energy>  (35) 
-11.33

>  <m_primary>  (35) 
energy

$$$$
35:0
     RDKit          3D

 53 56  0  0  0  0  0  0  0  0999 V2000
   59.3450   33.4610   50.5070 C   0  0  0  0  0  0  0  0  0  0  0  0
   58.5660   32.3060   49.8840 C   0  0  0  0  0  0  0  0  0  0  0  0
   58.1170   31.3280   50.9440 C   0  0  0  0  0  0  0  0  0  0  0  0
   56.9140   31.5630   51.6320 C   0  0  0  0  0  0  0  0  0  0  0  0
   56.4650   30.6640   52.6010 C   0  0  0  0  0  0  0  0  0  0  0  0
   57.2090   29.5200   52.8920 C   0  0  0  0  0  0  0  0  0  0  0  0
   58.3960   29.2640   52.2050 C   0  0  0  0  0  0  0  0  0  0  0  0
   58.8500   30.1490   51.2080 C   0  0  0  0  0  0  0  0  0  0  0  0
   60.0760   29.9050   50.4990 N   0  0  0  0  0  0  0  0  0  0  0  0
   60.2090   29.2610   49.2260 C   0  0  0  0  0  0  0  0  0  0  0  0
   59.6540   28.1520   48.9980 O   0  0  0  0  0  0  0  0  0  0  0  0
   60.9980   29.9280   48.1440 C   0  0  0  0  0  0  0  0  0  0  0  0
   60.1010   30.6900   47.2600 N   0  0  0  0  0  0  0  0  0  0  0  0
   59.2390   30.0080   46.4500 C   0  0  0  0  0  0  0  0  0  0  0  0
   58.3600   30.6760   45.5880 C   0  0  0  0  0  0  0  0  0  0  0  0
   57.3880   29.8690   44.8190 C   0  0  0  0  0  0  0  0  0  0  0  0
   57.3040   30.0170   43.5690 O   0  0  0  0  0  0  0  0  0  0  0  0
   56.6380   28.8380   45.4720 N   0  0  0  0  0  0  0  0  0  0  0  0
   57.0620   27.4770   45.6300 C   0  0  0  0  0  0  0  0  0  0  0  0
   58.4340   27.1950   45.6010 C   0  0  0  0  0  0  0  0  0  0  0  0
   58.8910   25.8820   45.7570 C   0  0  0  0  0  0  0  0  0  0  0  0
   57.9780   24.8440   45.9610 C   0  0  0  0  0  0  0  0  0  0  0  0
   56.6090   25.1200   46.0250 C   0  0  0  0  0  0  0  0  0  0  0  0
   56.1460   26.4320   45.8760 C   0  0  0  0  0  0  0  0  0  0  0  0
   54.7850   26.6880   46.0050 O   0  0  0  0  0  0  0  0  0  0  0  0
   58.4150   32.0880   45.5150 C   0  0  0  0  0  0  0  0  0  0  0  0
   57.6290   32.8240   44.5990 C   0  0  0  0  0  0  0  0  0  0  0  0
   57.7060   34.2170   44.5540 C   0  0  0  0  0  0  0  0  0  0  0  0
   58.5700   34.9000   45.4060 C   0  0  0  0  0  0  0  0  0  0  0  0
   59.3770   34.1930   46.2990 C   0  0  0  0  0  0  0  0  0  0  0  0
   59.3180   32.7860   46.3560 C   0  0  0  0  0  0  0  0  0  0  0  0
   60.1540   32.0600   47.2280 C   0  0  0  0  0  0  0  0  0  0  0  0
   60.9640   32.6770   47.9770 O   0  0  0  0  0  0  0  0  0  0  0  0
   59.2954   33.3875   51.6034 H   0  0  0  0  0  0  0  0  0  0  0  0
   60.3951   33.4118   50.1833 H   0  0  0  0  0  0  0  0  0  0  0  0
   58.9059   34.4162   50.1833 H   0  0  0  0  0  0  0  0  0  0  0  0
   57.6825   32.7056   49.3646 H   0  0  0  0  0  0  0  0  0  0  0  0
   59.2221   31.7803   49.1747 H   0  0  0  0  0  0  0  0  0  0  0  0
   56.3220   32.4619   51.4052 H   0  0  0  0  0  0  0  0  0  0  0  0
   55.5235   30.8577   53.1358 H   0  0  0  0  0  0  0  0  0  0  0  0
   56.8592   28.8190   53.6641 H   0  0  0  0  0  0  0  0  0  0  0  0
   58.9817   28.3641   52.4439 H   0  0  0  0  0  0  0  0  0  0  0  0
   61.7302   30.6126   48.5970 H   0  0  0  0  0  0  0  0  0  0  0  0
   61.5190   29.1603   47.5530 H   0  0  0  0  0  0  0  0  0  0  0  0
   59.2347   28.9083   46.4750 H   0  0  0  0  0  0  0  0  0  0  0  0
   59.1566   28.0113   45.4546 H   0  0  0  0  0  0  0  0  0  0  0  0
   59.9691   25.6667   45.7191 H   0  0  0  0  0  0  0  0  0  0  0  0
   58.3364   23.8099   46.0712 H   0  0  0  0  0  0  0  0  0  0  0  0
   55.8927   24.3023   46.1932 H   0  0  0  0  0  0  0  0  0  0  0  0
   56.9501   32.2937   43.9150 H   0  0  0  0  0  0  0  0  0  0  0  0
   57.0816   34.7774   43.8426 H   0  0  0  0  0  0  0  0  0  0  0  0
   58.6167   35.9986   45.3753 H   0  0  0  0  0  0  0  0  0  0  0  0
   60.0640   34.7380   46.9631 H   0  0  0  0  0  0  0  0  0  0  0  0
  1  2  1  0
  2  3  1  0
  3  4  2  0
  4  5  1  0
  5  6  2  0
  6  7  1  0
  7  8  2  0
  8  9  1  0
  9 10  1  0
 10 11  2  0
 10 12  1  0
 12 13  1  0
 13 14  1  0
 14 15  2  0
 15 16  1  0
 16 17  2  0
 16 18  1  0
 18 19  1  0
 19 20  2  0
 20 21  1  0
 21 22  2  0
 22 23  1  0
 23 24  2  0
 24 25  1  0
 15 26  1  0
 26 27  2  0
 27 28  1  0
 28 29  2  0
 29 30  1  0
 30 31  2  0
 31 32  1  0
 32 33  2  0
  8  3  1  0
 32 13  1  0
 24 19  1  0
 31 26  1  0
  1 34  1  0
  1 35  1  0
  1 36  1  0
  2 37  1  0
  2 38  1  0
  4 39  1  0
  5 40  1  0
  6 41  1  0
  7 42  1  0
 12 43  1  0
 12 44  1  0
 14 45  1  0
 20 46  1  0
 21 47  1  0
 22 48  1  0
 23 49  1  0
 27 50  1  0
 28 51  1  0
 29 52  1  0
 30 53  1  0
M  CHG  3   9  -1  18  -1  25  -1
M  END
>  <UniqueID>  (36) 
36

>  <SMILES>  (36) 
CCc1ccccc1[N-]C(=O)Cn1cc(C(=O)[N-]c2ccccc2[O-])c2ccccc2c1=O

>  <Energy>  (36) 
76.72258878339036

>  <Genealogy>  (36) 
CCc1ccccc1[N-]C(=O)Cn1cc(C(=O)[N-]c2ccccc2[O-])c2ccccc2c1=O (protonated)
CCc1ccccc1[N-]C(=O)Cn1cc(C(=O)[N-]c2ccccc2[O-])c2ccccc2c1=O (3D coordinates assigned)
CCc1ccccc1[N-]C(=O)Cn1cc(C(=O)[N-]c2ccccc2[O-])c2ccccc2c1=O (optimized conformer: 76.72258878339036 kcal/mol)

>  <smiles>  (36) 
CCc1ccccc1NC(=O)Cn1cc(C(=O)Nc2ccccc2O)c2ccccc2c1=O

>  <score_type>  (36) 
oracle

>  <origin>  (36) 
adg

>  <m_score__min__energy>  (36) 
-15.33

>  <m_primary>  (36) 
energy

$$$$
36:0
     RDKit          3D

 44 46  0  0  1  0  0  0  0  0999 V2000
   59.6570   26.7930   45.6410 C   0  0  0  0  0  0  0  0  0  0  0  0
   58.1860   26.7330   45.8710 C   0  0  0  0  0  0  0  0  0  0  0  0
   57.4680   26.0500   46.8230 C   0  0  0  0  0  0  0  0  0  0  0  0
   56.1670   26.3270   46.6360 N   0  0  0  0  0  0  0  0  0  0  0  0
   56.0680   27.1490   45.6080 N   0  0  0  0  0  0  0  0  0  0  0  0
   57.2940   27.4290   45.1000 C   0  0  0  0  0  0  0  0  0  0  0  0
   57.4790   28.1710   44.1080 N   0  0  0  0  0  0  0  0  0  0  0  0
   56.8970   29.7170   43.8880 S   0  0  0  0  0  0  0  0  0  0  0  0
   55.6280   29.6070   44.7980 O   0  0  0  0  0  0  0  0  0  0  0  0
   56.1550   30.0490   42.6330 O   0  0  0  0  0  0  0  0  0  0  0  0
   57.6650   31.0420   44.6900 C   0  0  0  0  0  0  0  0  0  0  0  0
   58.6130   30.8480   45.6930 C   0  0  0  0  0  0  0  0  0  0  0  0
   59.2250   31.8710   46.3700 C   0  0  0  0  0  0  0  0  0  0  0  0
   58.9260   33.1720   46.0880 C   0  0  0  0  0  0  0  0  0  0  0  0
   59.5600   34.2320   46.7890 N   0  0  0  0  0  0  0  0  0  0  0  0
   61.0080   34.4300   46.7590 C   0  0  0  0  0  0  0  0  0  0  0  0
   61.6480   33.9470   47.9930 C   0  0  0  0  0  0  0  0  0  0  0  0
   60.9790   34.1230   49.2080 C   0  0  0  0  0  0  0  0  0  0  0  0
   61.5720   33.6750   50.3670 C   0  0  0  0  0  0  0  0  0  0  0  0
   62.8030   33.0630   50.3450 C   0  0  0  0  0  0  0  0  0  0  0  0
   63.4890   32.8760   49.1580 C   0  0  0  0  0  0  0  0  0  0  0  0
   64.7380   32.2520   49.1480 O   0  0  0  0  0  0  0  0  0  0  0  0
   62.8860   33.3290   47.9960 C   0  0  0  0  0  0  0  0  0  0  0  0
   63.5560   33.1530   46.7920 O   0  0  0  0  0  0  0  0  0  0  0  0
   57.9950   33.4160   45.1040 C   0  0  0  0  0  0  0  0  0  0  0  0
   57.3810   32.3800   44.4250 C   0  0  0  0  0  0  0  0  0  0  0  0
   60.1789   26.8143   46.6091 H   0  0  0  0  0  0  0  0  0  0  0  0
   59.9756   25.9071   45.0721 H   0  0  0  0  0  0  0  0  0  0  0  0
   59.9024   27.7019   45.0721 H   0  0  0  0  0  0  0  0  0  0  0  0
   57.8848   25.3929   47.6005 H   0  0  0  0  0  0  0  0  0  0  0  0
   55.3750   25.9510   47.2100 H   0  0  0  0  0  0  0  0  0  0  0  0
   55.1470   27.5090   45.2680 H   0  0  0  0  0  0  0  0  0  0  0  0
   58.8857   29.8154   45.9564 H   0  0  0  0  0  0  0  0  0  0  0  0
   59.9658   31.6402   47.1497 H   0  0  0  0  0  0  0  0  0  0  0  0
   58.9940   34.8950   47.3450 H   0  0  0  0  0  0  0  0  0  0  0  0
   61.4254   33.8808   45.9022 H   0  0  0  0  0  0  0  0  0  0  0  0
   61.2053   35.5084   46.6693 H   0  0  0  0  0  0  0  0  0  0  0  0
   59.9940   34.6119   49.2375 H   0  0  0  0  0  0  0  0  0  0  0  0
   61.0520   33.8090   51.3270 H   0  0  0  0  0  0  0  0  0  0  0  0
   63.2505   32.7158   51.2880 H   0  0  0  0  0  0  0  0  0  0  0  0
   65.2270   32.1410   48.2680 H   0  0  0  0  0  0  0  0  0  0  0  0
   64.4700   32.7240   46.8370 H   0  0  0  0  0  0  0  0  0  0  0  0
   57.7346   34.4549   44.8531 H   0  0  0  0  0  0  0  0  0  0  0  0
   56.6413   32.6208   43.6472 H   0  0  0  0  0  0  0  0  0  0  0  0
  1  2  1  0
  2  3  2  0
  3  4  1  0
  4  5  1  0
  5  6  1  0
  6  7  2  0
  7  8  1  0
  8  9  2  0
  8 10  2  0
  8 11  1  0
 11 12  2  0
 12 13  1  0
 13 14  2  0
 14 15  1  0
 15 16  1  0
 16 17  1  0
 17 18  2  0
 18 19  1  0
 19 20  2  0
 20 21  1  0
 21 22  1  0
 21 23  2  0
 23 24  1  0
 14 25  1  0
 25 26  2  0
  6  2  1  0
 26 11  1  0
 23 17  1  0
  1 27  1  0
  1 28  1  0
  1 29  1  0
  3 30  1  0
  4 31  1  0
  5 32  1  0
 12 33  1  0
 13 34  1  0
 15 35  1  0
 16 36  1  0
 16 37  1  0
 18 38  1  0
 19 39  1  0
 20 40  1  0
 22 41  1  0
 24 42  1  0
 25 43  1  0
 26 44  1  0
M  END
>  <smiles>  (37) 
Cc1c[nH][nH]c1=NS(=O)(=O)c1ccc(NCc2cccc(O)c2O)cc1

>  <score_type>  (37) 
oracle

>  <origin>  (37) 
adg

>  <m_score__min__energy>  (37) 
-9.4700000000000006

>  <m_primary>  (37) 
energy

$$$$
37:0
     RDKit          3D

 41 43  0  0  0  0  0  0  0  0999 V2000
   53.2900   24.0800   44.6390 C   0  0  0  0  0  0  0  0  0  0  0  0
   54.0850   24.0710   45.8200 O   0  0  0  0  0  0  0  0  0  0  0  0
   55.4500   24.4040   45.8660 C   0  0  0  0  0  0  0  0  0  0  0  0
   56.4600   23.4310   45.8010 C   0  0  0  0  0  0  0  0  0  0  0  0
   57.8200   23.7910   45.8520 C   0  0  0  0  0  0  0  0  0  0  0  0
   58.8300   22.8140   45.7890 O   0  0  0  0  0  0  0  0  0  0  0  0
   59.3210   22.2220   44.5910 C   0  0  0  0  0  0  0  0  0  0  0  0
   58.1720   25.1580   45.9700 C   0  0  0  0  0  0  0  0  0  0  0  0
   59.5200   25.5930   46.0370 C   0  0  0  0  0  0  0  0  0  0  0  0
   60.4760   24.7740   45.9920 O   0  0  0  0  0  0  0  0  0  0  0  0
   59.8050   26.9150   46.1590 N   0  0  0  0  0  0  0  0  0  0  0  0
   58.8410   27.8690   46.2060 C   0  0  0  0  0  0  0  0  0  0  0  0
   59.2300   29.3070   46.4050 C   0  0  0  0  0  0  0  0  0  0  0  0
   59.0220   30.1310   45.1260 C   0  0  0  0  0  0  0  0  0  0  0  0
   58.6510   31.5630   45.4350 C   0  0  0  0  0  0  0  0  0  0  0  0
   59.6160   32.4340   45.9720 C   0  0  0  0  0  0  0  0  0  0  0  0
   59.2730   33.7450   46.3140 C   0  0  0  0  0  0  0  0  0  0  0  0
   57.9660   34.1980   46.1250 C   0  0  0  0  0  0  0  0  0  0  0  0
   56.9970   33.3400   45.5970 C   0  0  0  0  0  0  0  0  0  0  0  0
   57.3320   32.0250   45.2550 C   0  0  0  0  0  0  0  0  0  0  0  0
   56.3490   31.1840   44.7430 O   0  0  0  0  0  0  0  0  0  0  0  0
   57.4950   27.4950   46.1470 C   0  0  0  0  0  0  0  0  0  0  0  0
   57.1490   26.1400   46.0300 C   0  0  0  0  0  0  0  0  0  0  0  0
   55.7970   25.7530   45.9810 C   0  0  0  0  0  0  0  0  0  0  0  0
   54.7860   26.7070   46.0460 O   0  0  0  0  0  0  0  0  0  0  0  0
   52.2250   24.0921   44.9140 H   0  0  0  0  0  0  0  0  0  0  0  0
   53.5255   24.9755   44.0453 H   0  0  0  0  0  0  0  0  0  0  0  0
   53.5052   23.1794   44.0453 H   0  0  0  0  0  0  0  0  0  0  0  0
   56.1842   22.3701   45.7087 H   0  0  0  0  0  0  0  0  0  0  0  0
   60.0046   21.3978   44.8427 H   0  0  0  0  0  0  0  0  0  0  0  0
   58.4776   21.8320   44.0023 H   0  0  0  0  0  0  0  0  0  0  0  0
   59.8602   22.9788   44.0023 H   0  0  0  0  0  0  0  0  0  0  0  0
   58.6143   29.7353   47.2097 H   0  0  0  0  0  0  0  0  0  0  0  0
   60.2979   29.3415   46.6667 H   0  0  0  0  0  0  0  0  0  0  0  0
   59.9539   30.1228   44.5417 H   0  0  0  0  0  0  0  0  0  0  0  0
   58.1955   29.6785   44.5585 H   0  0  0  0  0  0  0  0  0  0  0  0
   60.6468   32.0813   46.1237 H   0  0  0  0  0  0  0  0  0  0  0  0
   60.0336   34.4206   46.7325 H   0  0  0  0  0  0  0  0  0  0  0  0
   57.6985   35.2311   46.3918 H   0  0  0  0  0  0  0  0  0  0  0  0
   55.9679   33.6996   45.4499 H   0  0  0  0  0  0  0  0  0  0  0  0
   56.7080   28.2622   46.1923 H   0  0  0  0  0  0  0  0  0  0  0  0
  1  2  1  0
  2  3  1  0
  3  4  2  0
  4  5  1  0
  5  6  1  0
  6  7  1  0
  5  8  2  0
  8  9  1  0
  9 10  2  0
  9 11  1  0
 11 12  1  0
 12 13  1  0
 13 14  1  0
 14 15  1  0
 15 16  2  0
 16 17  1  0
 17 18  2  0
 18 19  1  0
 19 20  2  0
 20 21  1  0
 12 22  2  0
 22 23  1  0
 23 24  2  0
 24 25  1  0
 24  3  1  0
 23  8  1  0
 20 15  1  0
  1 26  1  0
  1 27  1  0
  1 28  1  0
  4 29  1  0
  7 30  1  0
  7 31  1  0
  7 32  1  0
 13 33  1  0
 13 34  1  0
 14 35  1  0
 14 36  1  0
 16 37  1  0
 17 38  1  0
 18 39  1  0
 19 40  1  0
 22 41  1  0
M  CHG  3  11  -1  21  -1  25  -1
M  END
>  <UniqueID>  (38) 
37

>  <SMILES>  (38) 
COc1cc(OC)c2c(=O)[n-]c(CCc3ccccc3[O-])cc2c1[O-]

>  <Energy>  (38) 
46.92090402995993

>  <Genealogy>  (38) 
COc1cc(OC)c2c(=O)[n-]c(CCc3ccccc3[O-])cc2c1[O-] (protonated)
COc1cc(OC)c2c(=O)[n-]c(CCc3ccccc3[O-])cc2c1[O-] (3D coordinates assigned)
COc1cc(OC)c2c(=O)[n-]c(CCc3ccccc3[O-])cc2c1[O-] (optimized conformer: 46.92090402995993 kcal/mol)

>  <smiles>  (38) 
COc1cc(OC)c2c(=O)[nH]c(CCc3ccccc3O)cc2c1O

>  <score_type>  (38) 
oracle

>  <origin>  (38) 
adg

>  <m_score__min__energy>  (38) 
-15.56

>  <m_primary>  (38) 
energy

$$$$
38:0
     RDKit          3D

 58 61  0  0  0  0  0  0  0  0999 V2000
   59.2630   26.8830   47.7800 C   0  0  0  0  0  0  0  0  0  0  0  0
   58.0680   27.0010   47.0150 O   0  0  0  0  0  0  0  0  0  0  0  0
   57.7860   28.0030   46.0700 C   0  0  0  0  0  0  0  0  0  0  0  0
   58.7890   28.9470   45.8210 C   0  0  0  0  0  0  0  0  0  0  0  0
   58.5960   29.9720   44.8940 C   0  0  0  0  0  0  0  0  0  0  0  0
   57.3860   30.0790   44.1890 C   0  0  0  0  0  0  0  0  0  0  0  0
   57.1800   31.1650   43.2010 C   0  0  0  0  0  0  0  0  0  0  0  0
   56.6950   30.8960   42.0690 O   0  0  0  0  0  0  0  0  0  0  0  0
   57.4870   32.5220   43.5520 N   0  0  0  0  0  0  0  0  0  0  0  0
   57.9460   33.0060   44.8240 C   0  0  0  0  0  0  0  0  0  0  0  0
   57.0830   32.9250   45.9210 C   0  0  0  0  0  0  0  0  0  0  0  0
   57.4940   33.3650   47.1800 C   0  0  0  0  0  0  0  0  0  0  0  0
   58.7810   33.8780   47.3640 C   0  0  0  0  0  0  0  0  0  0  0  0
   59.1620   34.3120   48.6290 O   0  0  0  0  0  0  0  0  0  0  0  0
   59.6740   33.9430   46.2770 C   0  0  0  0  0  0  0  0  0  0  0  0
   61.0790   34.4760   46.4380 C   0  0  0  0  0  0  0  0  0  0  0  0
   61.8380   33.6490   47.3990 N   0  0  0  0  0  0  0  0  0  0  0  0
   63.1200   33.1840   46.8220 C   0  0  0  0  0  0  0  0  0  0  0  0
   63.7520   32.0820   47.6950 C   0  0  0  0  0  0  0  0  0  0  0  0
   64.1190   32.5560   49.1170 C   0  0  0  0  0  0  0  0  0  0  0  0
   63.0050   32.4920   50.1000 N   0  0  0  0  0  0  0  0  0  0  0  0
   62.5180   31.1050   50.2600 C   0  0  0  0  0  0  0  0  0  0  0  0
   61.1390   30.9580   49.6950 C   0  0  0  0  0  0  0  0  0  0  0  0
   60.0230   31.1020   50.4400 N   0  0  0  0  0  0  0  0  0  0  0  0
   59.0250   30.9480   49.5520 C   0  0  0  0  0  0  0  0  0  0  0  0
   59.5570   30.7210   48.3050 C   0  0  0  0  0  0  0  0  0  0  0  0
   60.8990   30.7290   48.3870 N   0  0  0  0  0  0  0  0  0  0  0  0
   61.9060   33.4750   49.9190 C   0  0  0  0  0  0  0  0  0  0  0  0
   62.0400   34.3750   48.6730 C   0  0  0  0  0  0  0  0  0  0  0  0
   59.2500   33.5010   45.0120 C   0  0  0  0  0  0  0  0  0  0  0  0
   56.3740   29.1360   44.4380 C   0  0  0  0  0  0  0  0  0  0  0  0
   56.5620   28.1070   45.3670 C   0  0  0  0  0  0  0  0  0  0  0  0
   55.5220   27.2070   45.5720 O   0  0  0  0  0  0  0  0  0  0  0  0
   59.0162   26.9074   48.8517 H   0  0  0  0  0  0  0  0  0  0  0  0
   59.7598   25.9314   47.5397 H   0  0  0  0  0  0  0  0  0  0  0  0
   59.9363   27.7190   47.5397 H   0  0  0  0  0  0  0  0  0  0  0  0
   59.7433   28.8799   46.3640 H   0  0  0  0  0  0  0  0  0  0  0  0
   59.3985   30.7025   44.7139 H   0  0  0  0  0  0  0  0  0  0  0  0
   56.0722   32.5112   45.7907 H   0  0  0  0  0  0  0  0  0  0  0  0
   56.8011   33.3077   48.0324 H   0  0  0  0  0  0  0  0  0  0  0  0
   61.5876   34.4569   45.4628 H   0  0  0  0  0  0  0  0  0  0  0  0
   61.0276   35.5070   46.8180 H   0  0  0  0  0  0  0  0  0  0  0  0
   62.9364   32.7833   45.8142 H   0  0  0  0  0  0  0  0  0  0  0  0
   63.8137   34.0365   46.7776 H   0  0  0  0  0  0  0  0  0  0  0  0
   63.0358   31.2513   47.7792 H   0  0  0  0  0  0  0  0  0  0  0  0
   64.6884   31.7784   47.2041 H   0  0  0  0  0  0  0  0  0  0  0  0
   64.9397   31.9243   49.4876 H   0  0  0  0  0  0  0  0  0  0  0  0
   64.3954   33.6171   49.0292 H   0  0  0  0  0  0  0  0  0  0  0  0
   63.1988   30.4205   49.7327 H   0  0  0  0  0  0  0  0  0  0  0  0
   62.4876   30.8631   51.3326 H   0  0  0  0  0  0  0  0  0  0  0  0
   57.9514   30.9961   49.7867 H   0  0  0  0  0  0  0  0  0  0  0  0
   58.9763   30.5584   47.3850 H   0  0  0  0  0  0  0  0  0  0  0  0
   60.9599   32.9194   49.8394 H   0  0  0  0  0  0  0  0  0  0  0  0
   61.9444   34.1455   50.7902 H   0  0  0  0  0  0  0  0  0  0  0  0
   61.2902   35.1771   48.7399 H   0  0  0  0  0  0  0  0  0  0  0  0
   63.0679   34.7665   48.6642 H   0  0  0  0  0  0  0  0  0  0  0  0
   59.9446   33.5424   44.1600 H   0  0  0  0  0  0  0  0  0  0  0  0
   55.4203   29.2081   43.8946 H   0  0  0  0  0  0  0  0  0  0  0  0
  1  2  1  0
  2  3  1  0
  3  4  2  0
  4  5  1  0
  5  6  2  0
  6  7  1  0
  7  8  2  0
  7  9  1  0
  9 10  1  0
 10 11  2  0
 11 12  1  0
 12 13  2  0
 13 14  1  0
 13 15  1  0
 15 16  1  0
 16 17  1  0
 17 18  1  0
 18 19  1  0
 19 20  1  0
 20 21  1  0
 21 22  1  0
 22 23  1  0
 23 24  2  0
 24 25  1  0
 25 26  2  0
 26 27  1  0
 21 28  1  0
 28 29  1  0
 15 30  2  0
  6 31  1  0
 31 32  2  0
 32 33  1  0
 32  3  1  0
 30 10  1  0
 29 17  1  0
 27 23  1  0
  1 34  1  0
  1 35  1  0
  1 36  1  0
  4 37  1  0
  5 38  1  0
 11 39  1  0
 12 40  1  0
 16 41  1  0
 16 42  1  0
 18 43  1  0
 18 44  1  0
 19 45  1  0
 19 46  1  0
 20 47  1  0
 20 48  1  0
 22 49  1  0
 22 50  1  0
 25 51  1  0
 26 52  1  0
 28 53  1  0
 28 54  1  0
 29 55  1  0
 29 56  1  0
 30 57  1  0
 31 58  1  0
M  CHG  4   9  -1  14  -1  27  -1  33  -1
M  END
>  <UniqueID>  (39) 
38

>  <SMILES>  (39) 
COc1ccc(C(=O)[N-]c2ccc([O-])c(CN3CCCN(Cc4ncc[n-]4)CC3)c2)cc1[O-]

>  <Energy>  (39) 
111.9423674494769

>  <Genealogy>  (39) 
COc1ccc(C(=O)[N-]c2ccc([O-])c(CN3CCCN(Cc4ncc[n-]4)CC3)c2)cc1[O-] (protonated)
COc1ccc(C(=O)[N-]c2ccc([O-])c(CN3CCCN(Cc4ncc[n-]4)CC3)c2)cc1[O-] (3D coordinates assigned)
COc1ccc(C(=O)[N-]c2ccc([O-])c(CN3CCCN(Cc4ncc[n-]4)CC3)c2)cc1[O-] (nonaromatic ring conformer: 111.9423674494769 kcal/mol)

>  <smiles>  (39) 
COc1ccc(C(=O)Nc2ccc(O)c(CN3CCCN(Cc4ncc[nH]4)CC3)c2)cc1O

>  <score_type>  (39) 
oracle

>  <origin>  (39) 
adg

>  <m_score__min__energy>  (39) 
-11.609999999999999

>  <m_primary>  (39) 
energy

$$$$
39:0
     RDKit          3D

 50 53  0  0  0  0  0  0  0  0999 V2000
   61.7900   33.4520   51.4410 C   0  0  0  0  0  0  0  0  0  0  0  0
   61.5860   33.5370   49.9630 C   0  0  0  0  0  0  0  0  0  0  0  0
   62.6920   33.4360   49.0890 C   0  0  0  0  0  0  0  0  0  0  0  0
   62.4740   33.5210   47.7020 C   0  0  0  0  0  0  0  0  0  0  0  0
   63.6200   33.4580   46.7360 C   0  0  0  0  0  0  0  0  0  0  0  0
   61.2000   33.7310   47.2840 N   0  0  0  0  0  0  0  0  0  0  0  0
   60.7530   33.8550   46.0510 N   0  0  0  0  0  0  0  0  0  0  0  0
   59.4200   34.0420   46.1920 C   0  0  0  0  0  0  0  0  0  0  0  0
   58.3150   34.2350   44.7940 S   0  0  0  0  0  0  0  0  0  0  0  0
   56.9900   33.1470   45.4390 C   0  0  0  0  0  0  0  0  0  0  0  0
   57.0220   31.7700   44.8460 C   0  0  0  0  0  0  0  0  0  0  0  0
   55.9440   31.2360   44.4700 O   0  0  0  0  0  0  0  0  0  0  0  0
   58.2720   31.0990   44.6450 N   0  0  0  0  0  0  0  0  0  0  0  0
   58.9660   30.3260   45.6350 C   0  0  0  0  0  0  0  0  0  0  0  0
   59.7820   29.2710   45.2160 C   0  0  0  0  0  0  0  0  0  0  0  0
   60.5210   28.5380   46.1470 C   0  0  0  0  0  0  0  0  0  0  0  0
   60.4620   28.8610   47.5040 C   0  0  0  0  0  0  0  0  0  0  0  0
   59.6540   29.9230   47.9490 C   0  0  0  0  0  0  0  0  0  0  0  0
   59.6190   30.3100   49.3820 C   0  0  0  0  0  0  0  0  0  0  0  0
   60.2720   29.6340   50.2250 O   0  0  0  0  0  0  0  0  0  0  0  0
   58.8850   31.4660   49.8200 N   0  0  0  0  0  0  0  0  0  0  0  0
   58.4050   31.6380   51.1640 C   0  0  0  0  0  0  0  0  0  0  0  0
   58.5960   32.8460   51.8610 C   0  0  0  0  0  0  0  0  0  0  0  0
   58.1370   32.9840   53.1740 C   0  0  0  0  0  0  0  0  0  0  0  0
   57.4980   31.9160   53.8090 C   0  0  0  0  0  0  0  0  0  0  0  0
   57.3230   30.7050   53.1340 C   0  0  0  0  0  0  0  0  0  0  0  0
   56.7120   29.6660   53.7530 F   0  0  0  0  0  0  0  0  0  0  0  0
   57.7810   30.5640   51.8190 C   0  0  0  0  0  0  0  0  0  0  0  0
   58.9160   30.6570   47.0020 C   0  0  0  0  0  0  0  0  0  0  0  0
   59.0020   34.0470   47.4860 N   0  0  0  0  0  0  0  0  0  0  0  0
   60.1680   33.8420   48.1220 C   0  0  0  0  0  0  0  0  0  0  0  0
   60.3310   33.7490   49.4630 N   0  0  0  0  0  0  0  0  0  0  0  0
   60.8933   33.8256   51.9570 H   0  0  0  0  0  0  0  0  0  0  0  0
   61.9680   32.4048   51.7270 H   0  0  0  0  0  0  0  0  0  0  0  0
   62.6589   34.0630   51.7270 H   0  0  0  0  0  0  0  0  0  0  0  0
   63.7074   33.2932   49.4872 H   0  0  0  0  0  0  0  0  0  0  0  0
   64.5669   33.4059   47.2933 H   0  0  0  0  0  0  0  0  0  0  0  0
   63.5174   32.5641   46.1032 H   0  0  0  0  0  0  0  0  0  0  0  0
   63.6160   34.3577   46.1032 H   0  0  0  0  0  0  0  0  0  0  0  0
   57.1062   33.0618   46.5295 H   0  0  0  0  0  0  0  0  0  0  0  0
   56.0272   33.6018   45.1629 H   0  0  0  0  0  0  0  0  0  0  0  0
   59.8423   29.0170   44.1474 H   0  0  0  0  0  0  0  0  0  0  0  0
   61.1522   27.7026   45.8098 H   0  0  0  0  0  0  0  0  0  0  0  0
   61.0512   28.2813   48.2298 H   0  0  0  0  0  0  0  0  0  0  0  0
   58.7920   32.2700   49.1590 H   0  0  0  0  0  0  0  0  0  0  0  0
   59.1092   33.6858   51.3697 H   0  0  0  0  0  0  0  0  0  0  0  0
   58.2791   33.9350   53.7083 H   0  0  0  0  0  0  0  0  0  0  0  0
   57.1326   32.0285   54.8404 H   0  0  0  0  0  0  0  0  0  0  0  0
   57.6513   29.6055   51.2951 H   0  0  0  0  0  0  0  0  0  0  0  0
   58.2923   31.4999   47.3343 H   0  0  0  0  0  0  0  0  0  0  0  0
  1  2  1  0
  2  3  1  0
  3  4  2  0
  4  5  1  0
  4  6  1  0
  6  7  1  0
  7  8  2  0
  8  9  1  0
  9 10  1  0
 10 11  1  0
 11 12  2  0
 11 13  1  0
 13 14  1  0
 14 15  2  0
 15 16  1  0
 16 17  2  0
 17 18  1  0
 18 19  1  0
 19 20  2  0
 19 21  1  0
 21 22  1  0
 22 23  2  0
 23 24  1  0
 24 25  2  0
 25 26  1  0
 26 27  1  0
 26 28  2  0
 18 29  2  0
  8 30  1  0
 30 31  2  0
 31 32  1  0
 32  2  2  0
 31  6  1  0
 29 14  1  0
 28 22  1  0
  1 33  1  0
  1 34  1  0
  1 35  1  0
  3 36  1  0
  5 37  1  0
  5 38  1  0
  5 39  1  0
 10 40  1  0
 10 41  1  0
 15 42  1  0
 16 43  1  0
 17 44  1  0
 21 45  1  0
 23 46  1  0
 24 47  1  0
 25 48  1  0
 28 49  1  0
 29 50  1  0
M  CHG  1  13  -1
M  END
>  <UniqueID>  (40) 
39

>  <SMILES>  (40) 
Cc1cc(C)n2nc(SCC(=O)[N-]c3cccc(C(=O)Nc4cccc(F)c4)c3)nc2n1

>  <Energy>  (40) 
92.7511162627274

>  <Genealogy>  (40) 
Cc1cc(C)n2nc(SCC(=O)[N-]c3cccc(C(=O)Nc4cccc(F)c4)c3)nc2n1 (protonated)
Cc1cc(C)n2nc(SCC(=O)[N-]c3cccc(C(=O)Nc4cccc(F)c4)c3)nc2n1 (3D coordinates assigned)
Cc1cc(C)n2nc(SCC(=O)[N-]c3cccc(C(=O)Nc4cccc(F)c4)c3)nc2n1 (optimized conformer: 92.7511162627274 kcal/mol)

>  <smiles>  (40) 
Cc1cc(C)n2nc(SCC(=O)Nc3cccc(C(=O)Nc4cccc(F)c4)c3)nc2n1

>  <score_type>  (40) 
oracle

>  <origin>  (40) 
adg

>  <m_score__min__energy>  (40) 
-11.56

>  <m_primary>  (40) 
energy

$$$$
40:0
     RDKit          3D

 62 65  0  0  0  0  0  0  0  0999 V2000
   57.6780   21.1330   43.1060 C   0  0  0  0  0  0  0  0  0  0  0  0
   56.5260   21.9280   43.6410 C   0  0  0  0  0  0  0  0  0  0  0  0
   55.6270   22.3180   42.8520 O   0  0  0  0  0  0  0  0  0  0  0  0
   56.4420   22.3060   45.0200 N   0  0  0  0  0  0  0  0  0  0  0  0
   57.6590   23.2070   45.8670 S   0  0  0  0  0  0  0  0  0  0  0  0
   57.4010   23.1180   47.3440 O   0  0  0  0  0  0  0  0  0  0  0  0
   59.0050   22.6060   45.5750 O   0  0  0  0  0  0  0  0  0  0  0  0
   57.6540   24.8840   45.3300 C   0  0  0  0  0  0  0  0  0  0  0  0
   57.7840   25.1950   43.9700 C   0  0  0  0  0  0  0  0  0  0  0  0
   57.7910   26.5290   43.5520 C   0  0  0  0  0  0  0  0  0  0  0  0
   57.6640   27.5670   44.4900 C   0  0  0  0  0  0  0  0  0  0  0  0
   57.7270   29.0060   44.0480 C   0  0  0  0  0  0  0  0  0  0  0  0
   56.6480   29.8320   44.7070 C   0  0  0  0  0  0  0  0  0  0  0  0
   55.5010   29.3350   44.8660 O   0  0  0  0  0  0  0  0  0  0  0  0
   56.8360   31.2230   44.9980 N   0  0  0  0  0  0  0  0  0  0  0  0
   57.7640   31.7860   45.9340 C   0  0  0  0  0  0  0  0  0  0  0  0
   58.7290   30.9550   46.5150 C   0  0  0  0  0  0  0  0  0  0  0  0
   59.6620   31.4790   47.4160 C   0  0  0  0  0  0  0  0  0  0  0  0
   59.6510   32.8440   47.7330 C   0  0  0  0  0  0  0  0  0  0  0  0
   60.8000   33.4830   48.9090 S   0  0  0  0  0  0  0  0  0  0  0  0
   61.0540   34.9410   48.6440 O   0  0  0  0  0  0  0  0  0  0  0  0
   62.1090   32.7500   48.7980 O   0  0  0  0  0  0  0  0  0  0  0  0
   60.1380   33.3260   50.5070 N   0  0  0  0  0  0  0  0  0  0  0  0
   59.2490   32.4470   50.8620 C   0  0  0  0  0  0  0  0  0  0  0  0
   59.4430   31.1010   50.5340 C   0  0  0  0  0  0  0  0  0  0  0  0
   58.5040   30.1510   50.9450 C   0  0  0  0  0  0  0  0  0  0  0  0
   57.3690   30.5480   51.6560 C   0  0  0  0  0  0  0  0  0  0  0  0
   56.4550   29.5750   52.0860 O   0  0  0  0  0  0  0  0  0  0  0  0
   55.1180   29.8240   52.4330 C   0  0  0  0  0  0  0  0  0  0  0  0
   54.5900   29.2060   53.5710 C   0  0  0  0  0  0  0  0  0  0  0  0
   53.2540   29.4110   53.9300 C   0  0  0  0  0  0  0  0  0  0  0  0
   52.4330   30.2260   53.1460 C   0  0  0  0  0  0  0  0  0  0  0  0
   52.9480   30.8400   51.9980 C   0  0  0  0  0  0  0  0  0  0  0  0
   52.0990   31.6640   51.1770 C   0  0  0  0  0  0  0  0  0  0  0  0
   51.4150   32.3240   50.5170 N   0  0  0  0  0  0  0  0  0  0  0  0
   54.2880   30.6380   51.6390 C   0  0  0  0  0  0  0  0  0  0  0  0
   57.2070   31.9080   51.9630 C   0  0  0  0  0  0  0  0  0  0  0  0
   58.1410   32.8130   51.5660 N   0  0  0  0  0  0  0  0  0  0  0  0
   58.7120   33.6870   47.1170 C   0  0  0  0  0  0  0  0  0  0  0  0
   57.7830   33.1620   46.2110 C   0  0  0  0  0  0  0  0  0  0  0  0
   57.5320   27.2500   45.8520 C   0  0  0  0  0  0  0  0  0  0  0  0
   57.5220   25.9150   46.2670 C   0  0  0  0  0  0  0  0  0  0  0  0
   58.2646   20.7282   43.9438 H   0  0  0  0  0  0  0  0  0  0  0  0
   57.2974   20.3044   42.4907 H   0  0  0  0  0  0  0  0  0  0  0  0
   58.3176   21.7828   42.4907 H   0  0  0  0  0  0  0  0  0  0  0  0
   57.8808   24.3875   43.2294 H   0  0  0  0  0  0  0  0  0  0  0  0
   57.8965   26.7671   42.4833 H   0  0  0  0  0  0  0  0  0  0  0  0
   58.7097   29.4205   44.3171 H   0  0  0  0  0  0  0  0  0  0  0  0
   57.5738   29.0410   42.9593 H   0  0  0  0  0  0  0  0  0  0  0  0
   58.7538   29.8848   46.2619 H   0  0  0  0  0  0  0  0  0  0  0  0
   60.4083   30.8161   47.8781 H   0  0  0  0  0  0  0  0  0  0  0  0
   60.3275   30.7928   49.9572 H   0  0  0  0  0  0  0  0  0  0  0  0
   58.6591   29.0881   50.7080 H   0  0  0  0  0  0  0  0  0  0  0  0
   55.2286   28.5555   54.1867 H   0  0  0  0  0  0  0  0  0  0  0  0
   52.8483   28.9294   54.8319 H   0  0  0  0  0  0  0  0  0  0  0  0
   51.3825   30.3851   53.4308 H   0  0  0  0  0  0  0  0  0  0  0  0
   54.6919   31.1167   50.7347 H   0  0  0  0  0  0  0  0  0  0  0  0
   56.3229   32.2423   52.5257 H   0  0  0  0  0  0  0  0  0  0  0  0
   58.7064   34.7627   47.3470 H   0  0  0  0  0  0  0  0  0  0  0  0
   57.0647   33.8306   45.7140 H   0  0  0  0  0  0  0  0  0  0  0  0
   57.4361   28.0554   46.5951 H   0  0  0  0  0  0  0  0  0  0  0  0
   57.4099   25.6740   47.3344 H   0  0  0  0  0  0  0  0  0  0  0  0
  1  2  1  0
  2  3  2  0
  2  4  1  0
  4  5  1  0
  5  6  2  0
  5  7  2  0
  5  8  1  0
  8  9  2  0
  9 10  1  0
 10 11  2  0
 11 12  1  0
 12 13  1  0
 13 14  2  0
 13 15  1  0
 15 16  1  0
 16 17  2  0
 17 18  1  0
 18 19  2  0
 19 20  1  0
 20 21  2  0
 20 22  2  0
 20 23  1  0
 23 24  2  3
 24 25  1  0
 25 26  2  0
 26 27  1  0
 27 28  1  0
 28 29  1  0
 29 30  2  0
 30 31  1  0
 31 32  2  0
 32 33  1  0
 33 34  1  0
 34 35  3  0
 33 36  2  0
 27 37  2  0
 37 38  1  0
 19 39  1  0
 39 40  2  0
 11 41  1  0
 41 42  2  0
 42  8  1  0
 40 16  1  0
 38 24  1  0
 36 29  1  0
  1 43  1  0
  1 44  1  0
  1 45  1  0
  9 46  1  0
 10 47  1  0
 12 48  1  0
 12 49  1  0
 17 50  1  0
 18 51  1  0
 25 52  1  0
 26 53  1  0
 30 54  1  0
 31 55  1  0
 32 56  1  0
 36 57  1  0
 37 58  1  0
 39 59  1  0
 40 60  1  0
 41 61  1  0
 42 62  1  0
M  CHG  3   4  -1  15  -1  38  -1
M  END
>  <UniqueID>  (41) 
40

>  <SMILES>  (41) 
CC(=O)[N-]S(=O)(=O)c1ccc(CC(=O)[N-]c2ccc(S(=O)(=O)N=c3ccc(Oc4cccc(C#N)c4)c[n-]3)cc2)cc1

>  <Energy>  (41) 
83.39820730725519

>  <Genealogy>  (41) 
CC(=O)[N-]S(=O)(=O)c1ccc(CC(=O)[N-]c2ccc(S(=O)(=O)N=c3ccc(Oc4cccc(C#N)c4)c[n-]3)cc2)cc1 (protonated)
CC(=O)[N-]S(=O)(=O)c1ccc(CC(=O)[N-]c2ccc(S(=O)(=O)N=c3ccc(Oc4cccc(C#N)c4)c[n-]3)cc2)cc1 (3D coordinates assigned)
CC(=O)[N-]S(=O)(=O)c1ccc(CC(=O)[N-]c2ccc(S(=O)(=O)N=c3ccc(Oc4cccc(C#N)c4)c[n-]3)cc2)cc1 (optimized conformer: 83.39820730725519 kcal/mol)

>  <smiles>  (41) 
CC(=O)NS(=O)(=O)c1ccc(CC(=O)Nc2ccc(S(=O)(=O)N=c3ccc(Oc4cccc(C#N)c4)c[nH]3)cc2)cc1

>  <score_type>  (41) 
oracle

>  <origin>  (41) 
adg

>  <m_score__min__energy>  (41) 
-15.609999999999999

>  <m_primary>  (41) 
energy

$$$$
41:0
     RDKit          3D

 57 59  0  0  0  0  0  0  0  0999 V2000
   54.4570   22.9060   47.6680 C   0  0  0  0  0  0  0  0  0  0  0  0
   55.5220   22.8790   46.6030 C   0  0  0  0  0  0  0  0  0  0  0  0
   56.5650   22.0020   46.7210 N   0  0  0  0  0  0  0  0  0  0  0  0
   57.5580   21.9310   45.7860 C   0  0  0  0  0  0  0  0  0  0  0  0
   58.5350   21.0910   45.9230 N   0  0  0  0  0  0  0  0  0  0  0  0
   57.5250   22.7700   44.6720 C   0  0  0  0  0  0  0  0  0  0  0  0
   56.4750   23.6710   44.5200 C   0  0  0  0  0  0  0  0  0  0  0  0
   55.4550   23.7390   45.4790 C   0  0  0  0  0  0  0  0  0  0  0  0
   54.3430   24.7480   45.3020 C   0  0  0  0  0  0  0  0  0  0  0  0
   54.7480   26.0520   45.8160 N   0  0  0  0  0  0  0  0  0  0  0  0
   56.0620   26.3390   46.3080 C   0  0  0  0  0  0  0  0  0  0  0  0
   56.6850   25.4890   46.9990 O   0  0  0  0  0  0  0  0  0  0  0  0
   56.6870   27.6290   45.9940 C   0  0  0  0  0  0  0  0  0  0  0  0
   57.8920   28.0940   46.4990 C   0  0  0  0  0  0  0  0  0  0  0  0
   58.0420   29.3320   45.8960 C   0  0  0  0  0  0  0  0  0  0  0  0
   59.0230   30.1790   46.0420 N   0  0  0  0  0  0  0  0  0  0  0  0
   59.7790   30.4710   47.2280 C   0  0  0  0  0  0  0  0  0  0  0  0
   59.5890   29.8460   48.3050 O   0  0  0  0  0  0  0  0  0  0  0  0
   60.8280   31.4940   47.1700 C   0  0  0  0  0  0  0  0  0  0  0  0
   62.1640   31.0690   47.2270 C   0  0  0  0  0  0  0  0  0  0  0  0
   63.2060   31.9960   47.1550 C   0  0  0  0  0  0  0  0  0  0  0  0
   62.9230   33.3550   47.0210 C   0  0  0  0  0  0  0  0  0  0  0  0
   61.5980   33.7920   46.9680 C   0  0  0  0  0  0  0  0  0  0  0  0
   60.5370   32.8760   47.0490 C   0  0  0  0  0  0  0  0  0  0  0  0
   58.8870   33.5250   46.9890 S   0  0  0  0  0  0  0  0  0  0  0  0
   58.9170   34.9410   47.4940 O   0  0  0  0  0  0  0  0  0  0  0  0
   57.9480   32.7380   47.8620 O   0  0  0  0  0  0  0  0  0  0  0  0
   58.2900   33.5140   45.2980 C   0  0  0  0  0  0  0  0  0  0  0  0
   56.9170   34.1820   45.2080 C   0  0  0  0  0  0  0  0  0  0  0  0
   59.2900   34.2130   44.3760 C   0  0  0  0  0  0  0  0  0  0  0  0
   56.9870   29.5610   45.0890 N   0  0  0  0  0  0  0  0  0  0  0  0
   56.7290   30.7620   44.3020 C   0  0  0  0  0  0  0  0  0  0  0  0
   56.1530   28.5350   45.1490 N   0  0  0  0  0  0  0  0  0  0  0  0
   54.9308   22.8940   48.6607 H   0  0  0  0  0  0  0  0  0  0  0  0
   53.8540   23.8197   47.5605 H   0  0  0  0  0  0  0  0  0  0  0  0
   53.8085   22.0240   47.5605 H   0  0  0  0  0  0  0  0  0  0  0  0
   56.6070   21.3680   47.5510 H   0  0  0  0  0  0  0  0  0  0  0  0
   58.7900   20.4080   45.1750 H   0  0  0  0  0  0  0  0  0  0  0  0
   58.3243   22.7198   43.9179 H   0  0  0  0  0  0  0  0  0  0  0  0
   56.4455   24.3334   43.6423 H   0  0  0  0  0  0  0  0  0  0  0  0
   54.1041   24.8391   44.2321 H   0  0  0  0  0  0  0  0  0  0  0  0
   53.4597   24.4048   45.8605 H   0  0  0  0  0  0  0  0  0  0  0  0
   58.5685   27.5973   47.2101 H   0  0  0  0  0  0  0  0  0  0  0  0
   62.3923   29.9978   47.3292 H   0  0  0  0  0  0  0  0  0  0  0  0
   64.2504   31.6541   47.2040 H   0  0  0  0  0  0  0  0  0  0  0  0
   63.7447   34.0835   46.9570 H   0  0  0  0  0  0  0  0  0  0  0  0
   61.3830   34.8655   46.8616 H   0  0  0  0  0  0  0  0  0  0  0  0
   58.1865   32.4687   44.9714 H   0  0  0  0  0  0  0  0  0  0  0  0
   56.5330   34.3688   46.2217 H   0  0  0  0  0  0  0  0  0  0  0  0
   57.0082   35.1364   44.6688 H   0  0  0  0  0  0  0  0  0  0  0  0
   56.2224   33.5212   44.6688 H   0  0  0  0  0  0  0  0  0  0  0  0
   60.0422   34.7388   44.9823 H   0  0  0  0  0  0  0  0  0  0  0  0
   59.7881   33.4654   43.7412 H   0  0  0  0  0  0  0  0  0  0  0  0
   58.7590   34.9376   43.7412 H   0  0  0  0  0  0  0  0  0  0  0  0
   56.5467   31.6108   44.9774 H   0  0  0  0  0  0  0  0  0  0  0  0
   57.6010   30.9790   43.6676 H   0  0  0  0  0  0  0  0  0  0  0  0
   55.8448   30.6017   43.6676 H   0  0  0  0  0  0  0  0  0  0  0  0
  1  2  1  0
  2  3  1  0
  3  4  1  0
  4  5  2  3
  4  6  1  0
  6  7  2  0
  7  8  1  0
  8  9  1  0
  9 10  1  0
 10 11  1  0
 11 12  2  0
 11 13  1  0
 13 14  2  0
 14 15  1  0
 15 16  2  3
 16 17  1  0
 17 18  2  0
 17 19  1  0
 19 20  2  0
 20 21  1  0
 21 22  2  0
 22 23  1  0
 23 24  2  0
 24 25  1  0
 25 26  2  0
 25 27  2  0
 25 28  1  0
 28 29  1  0
 28 30  1  0
 15 31  1  0
 31 32  1  0
 31 33  1  0
  8  2  2  0
 33 13  1  0
 24 19  1  0
  1 34  1  0
  1 35  1  0
  1 36  1  0
  3 37  1  0
  5 38  1  0
  6 39  1  0
  7 40  1  0
  9 41  1  0
  9 42  1  0
 14 43  1  0
 20 44  1  0
 21 45  1  0
 22 46  1  0
 23 47  1  0
 28 48  1  0
 29 49  1  0
 29 50  1  0
 29 51  1  0
 30 52  1  0
 30 53  1  0
 30 54  1  0
 32 55  1  0
 32 56  1  0
 32 57  1  0
M  CHG  2  10  -1  33  -1
M  END
>  <UniqueID>  (42) 
41

>  <SMILES>  (42) 
Cc1[nH]c(=N)ccc1C[N-]C(=O)c1cc(=NC(=O)c2ccccc2S(=O)(=O)C(C)C)n(C)[n-]1

>  <Energy>  (42) 
92.14119898267153

>  <Genealogy>  (42) 
Cc1[nH]c(=N)ccc1C[N-]C(=O)c1cc(=NC(=O)c2ccccc2S(=O)(=O)C(C)C)n(C)[n-]1 (protonated)
Cc1[nH]c(=N)ccc1C[N-]C(=O)c1cc(=NC(=O)c2ccccc2S(=O)(=O)C(C)C)n(C)[n-]1 (3D coordinates assigned)
Cc1[nH]c(=N)ccc1C[N-]C(=O)c1cc(=NC(=O)c2ccccc2S(=O)(=O)C(C)C)n(C)[n-]1 (optimized conformer: 92.14119898267153 kcal/mol)

>  <smiles>  (42) 
Cc1[nH]c(=N)ccc1CNC(=O)c1cc(=NC(=O)c2ccccc2S(=O)(=O)C(C)C)n(C)[nH]1

>  <score_type>  (42) 
oracle

>  <origin>  (42) 
adg

>  <m_score__min__energy>  (42) 
-13.699999999999999

>  <m_primary>  (42) 
energy

$$$$
42:0
     RDKit          3D

 23 24  0  0  0  0  0  0  0  0999 V2000
   59.7810   29.2520   52.3110 H   0  0  0  0  0  0  0  0  0  0  0  0
   59.1780   29.9710   51.9290 O   0  0  0  0  0  0  0  0  0  0  0  0
   57.8070   29.9810   52.1810 C   0  0  0  0  0  0  0  0  0  0  0  0
   56.9960   30.9980   51.6630 C   0  0  0  0  0  0  0  0  0  0  0  0
   57.4415   31.7959   51.0507 H   0  0  0  0  0  0  0  0  0  0  0  0
   55.6230   31.0030   51.9210 C   0  0  0  0  0  0  0  0  0  0  0  0
   54.9930   31.8018   51.5027 H   0  0  0  0  0  0  0  0  0  0  0  0
   55.0390   29.9970   52.7100 C   0  0  0  0  0  0  0  0  0  0  0  0
   53.5760   30.0410   52.9480 C   0  0  0  0  0  0  0  0  0  0  0  0
   53.1049   29.1788   53.4426 H   0  0  0  0  0  0  0  0  0  0  0  0
   52.7950   31.0710   52.5950 C   0  0  0  0  0  0  0  0  0  0  0  0
   52.6806   31.9130   53.2935 H   0  0  0  0  0  0  0  0  0  0  0  0
   52.0830   31.1170   51.3040 C   0  0  0  0  0  0  0  0  0  0  0  0
   52.1040   29.9380   50.0930 S   0  0  0  0  0  0  0  0  0  0  0  0
   51.0740   30.8170   49.0980 C   0  0  0  0  0  0  0  0  0  0  0  0
   50.6850   30.4350   47.9650 O   0  0  0  0  0  0  0  0  0  0  0  0
   50.7010   31.9920   49.6460 N   0  0  0  0  0  0  0  0  0  0  0  0
   51.2620   32.1590   50.8730 C   0  0  0  0  0  0  0  0  0  0  0  0
   51.0220   33.2970   51.6330 O   0  0  0  0  0  0  0  0  0  0  0  0
   55.8600   28.9670   53.2160 C   0  0  0  0  0  0  0  0  0  0  0  0
   55.4169   28.1616   53.8201 H   0  0  0  0  0  0  0  0  0  0  0  0
   57.2340   28.9640   52.9540 C   0  0  0  0  0  0  0  0  0  0  0  0
   58.0300   27.9430   53.4630 O   0  0  0  0  0  0  0  0  0  0  0  0
  1  2  1  0
  2  3  1  0
  3  4  2  0
  4  5  1  0
  4  6  1  0
  6  7  1  0
  6  8  2  0
  8  9  1  0
  9 10  1  0
  9 11  2  0
 11 12  1  0
 11 13  1  0
 13 14  1  0
 14 15  1  0
 15 16  2  0
 15 17  1  0
 17 18  1  0
 18 19  1  0
  8 20  1  0
 20 21  1  0
 20 22  2  0
 22 23  1  0
 22  3  1  0
 18 13  2  0
M  CHG  3  17  -1  19  -1  23  -1
M  END
>  <UniqueID>  (43) 
42

>  <SMILES>  (43) 
O=c1[n-]c([O-])c(/C=C/c2ccc(O)c([O-])c2)s1

>  <Energy>  (43) 
56.897740143767685

>  <Genealogy>  (43) 
O=c1[n-]c([O-])c(C=Cc2ccc(O)c([O-])c2)s1 (protonated)
O=c1[n-]c([O-])c(/C=C/c2ccc(O)c([O-])c2)s1 (cis-trans isomerization)
O=c1[n-]c([O-])c(/C=C/c2ccc(O)c([O-])c2)s1 (3D coordinates assigned)
O=c1[n-]c([O-])c(/C=C/c2ccc(O)c([O-])c2)s1 (optimized conformer: 56.897740143767685 kcal/mol)

>  <smiles>  (43) 
O=c1[nH]c(O)c(C=Cc2ccc(O)c(O)c2)s1

>  <score_type>  (43) 
oracle

>  <origin>  (43) 
adg

>  <m_score__min__energy>  (43) 
-14.23

>  <m_primary>  (43) 
energy

$$$$
43:0
     RDKit          3D

 35 37  0  0  0  0  0  0  0  0999 V2000
   59.6650   31.8640   53.2660 O   0  0  0  0  0  0  0  0  0  0  0  0
   59.0670   31.4280   52.2440 C   0  0  0  0  0  0  0  0  0  0  0  0
   58.2320   30.3050   52.3360 O   0  0  0  0  0  0  0  0  0  0  0  0
   56.8290   30.3330   52.3400 C   0  0  0  0  0  0  0  0  0  0  0  0
   56.0990   31.4810   51.9850 C   0  0  0  0  0  0  0  0  0  0  0  0
   54.7000   31.4650   52.0160 C   0  0  0  0  0  0  0  0  0  0  0  0
   54.0140   30.3100   52.4190 C   0  0  0  0  0  0  0  0  0  0  0  0
   52.5110   30.2800   52.4140 C   0  0  0  0  0  0  0  0  0  0  0  0
   51.9980   30.5010   51.0230 C   0  0  0  0  0  0  0  0  0  0  0  0
   52.0540   29.5930   50.0360 N   0  0  0  0  0  0  0  0  0  0  0  0
   51.4140   30.1770   49.0030 C   0  0  0  0  0  0  0  0  0  0  0  0
   51.2660   29.6190   47.8840 O   0  0  0  0  0  0  0  0  0  0  0  0
   50.9380   31.4110   49.2750 N   0  0  0  0  0  0  0  0  0  0  0  0
   51.3090   31.5980   50.5570 C   0  0  0  0  0  0  0  0  0  0  0  0
   51.0170   32.7430   51.2860 O   0  0  0  0  0  0  0  0  0  0  0  0
   54.7450   29.1660   52.7800 C   0  0  0  0  0  0  0  0  0  0  0  0
   56.1420   29.1850   52.7500 C   0  0  0  0  0  0  0  0  0  0  0  0
   59.1990   32.1380   50.9520 C   0  0  0  0  0  0  0  0  0  0  0  0
   59.7900   33.4140   50.8900 C   0  0  0  0  0  0  0  0  0  0  0  0
   59.9130   34.0780   49.6660 C   0  0  0  0  0  0  0  0  0  0  0  0
   59.4470   33.4790   48.4930 C   0  0  0  0  0  0  0  0  0  0  0  0
   58.8590   32.2130   48.5430 C   0  0  0  0  0  0  0  0  0  0  0  0
   58.7340   31.5430   49.7650 C   0  0  0  0  0  0  0  0  0  0  0  0
   56.6297   32.3955   51.6816 H   0  0  0  0  0  0  0  0  0  0  0  0
   54.1357   32.3626   51.7229 H   0  0  0  0  0  0  0  0  0  0  0  0
   52.1651   29.3015   52.7786 H   0  0  0  0  0  0  0  0  0  0  0  0
   52.1319   31.0779   53.0695 H   0  0  0  0  0  0  0  0  0  0  0  0
   52.4850   28.6420   50.0660 H   0  0  0  0  0  0  0  0  0  0  0  0
   54.2158   28.2519   53.0874 H   0  0  0  0  0  0  0  0  0  0  0  0
   56.7063   28.2901   53.0512 H   0  0  0  0  0  0  0  0  0  0  0  0
   60.1573   33.8916   51.8103 H   0  0  0  0  0  0  0  0  0  0  0  0
   60.3777   35.0742   49.6263 H   0  0  0  0  0  0  0  0  0  0  0  0
   59.5431   34.0038   47.5311 H   0  0  0  0  0  0  0  0  0  0  0  0
   58.4932   31.7414   47.6190 H   0  0  0  0  0  0  0  0  0  0  0  0
   58.2699   30.5462   49.7977 H   0  0  0  0  0  0  0  0  0  0  0  0
  1  2  2  0
  2  3  1  0
  3  4  1  0
  4  5  2  0
  5  6  1  0
  6  7  2  0
  7  8  1  0
  8  9  1  0
  9 10  1  0
 10 11  1  0
 11 12  2  0
 11 13  1  0
 13 14  1  0
 14 15  1  0
  7 16  1  0
 16 17  2  0
  2 18  1  0
 18 19  2  0
 19 20  1  0
 20 21  2  0
 21 22  1  0
 22 23  2  0
 17  4  1  0
 23 18  1  0
 14  9  2  0
  5 24  1  0
  6 25  1  0
  8 26  1  0
  8 27  1  0
 10 28  1  0
 16 29  1  0
 17 30  1  0
 19 31  1  0
 20 32  1  0
 21 33  1  0
 22 34  1  0
 23 35  1  0
M  CHG  2  13  -1  15  -1
M  END
>  <UniqueID>  (44) 
43

>  <SMILES>  (44) 
O=C(Oc1ccc(Cc2[nH]c(=O)[n-]c2[O-])cc1)c1ccccc1

>  <Energy>  (44) 
71.74120903470784

>  <Genealogy>  (44) 
O=C(Oc1ccc(Cc2[nH]c(=O)[n-]c2[O-])cc1)c1ccccc1 (protonated)
O=C(Oc1ccc(Cc2[nH]c(=O)[n-]c2[O-])cc1)c1ccccc1 (3D coordinates assigned)
O=C(Oc1ccc(Cc2[nH]c(=O)[n-]c2[O-])cc1)c1ccccc1 (optimized conformer: 71.74120903470784 kcal/mol)

>  <smiles>  (44) 
O=C(Oc1ccc(Cc2[nH]c(=O)[nH]c2O)cc1)c1ccccc1

>  <score_type>  (44) 
oracle

>  <origin>  (44) 
adg

>  <m_score__min__energy>  (44) 
-13.640000000000001

>  <m_primary>  (44) 
energy

$$$$
44:0
     RDKit          3D

 54 58  0  0  0  0  0  0  0  0999 V2000
   54.3380   27.1070   46.3720 H   0  0  0  0  0  0  0  0  0  0  0  0
   54.7800   26.3810   45.8200 O   0  0  0  0  0  0  0  0  0  0  0  0
   55.8510   25.6570   46.3280 C   0  0  0  0  0  0  0  0  0  0  0  0
   55.7190   24.5710   47.1080 N   0  0  0  0  0  0  0  0  0  0  0  0
   56.9980   24.1840   47.2930 C   0  0  0  0  0  0  0  0  0  0  0  0
   57.3080   23.1770   47.9830 O   0  0  0  0  0  0  0  0  0  0  0  0
   57.9210   24.9550   46.6770 N   0  0  0  0  0  0  0  0  0  0  0  0
   57.1830   25.9110   46.0860 C   0  0  0  0  0  0  0  0  0  0  0  0
   57.7500   26.9560   45.2190 C   0  0  0  0  0  0  0  0  0  0  0  0
   58.2045   26.6435   44.2673 H   0  0  0  0  0  0  0  0  0  0  0  0
   57.7490   28.2640   45.5130 C   0  0  0  0  0  0  0  0  0  0  0  0
   57.1410   29.2650   44.7690 C   0  0  0  0  0  0  0  0  0  0  0  0
   56.5491   29.1041   43.8559 H   0  0  0  0  0  0  0  0  0  0  0  0
   57.3860   30.4690   45.3360 N   0  0  0  0  0  0  0  0  0  0  0  0
   58.1320   30.2710   46.4090 N   0  0  0  0  0  0  0  0  0  0  0  0
   58.6680   31.1740   47.2940 C   0  0  0  0  0  0  0  0  0  0  0  0
   58.5170   32.4760   47.2520 N   0  0  0  0  0  0  0  0  0  0  0  0
   58.0300   33.5690   46.3870 C   0  0  0  0  0  0  0  0  0  0  0  0
   57.0646   33.6272   46.9110 H   0  0  0  0  0  0  0  0  0  0  0  0
   58.4470   33.5560   44.9320 C   0  0  0  0  0  0  0  0  0  0  0  0
   59.0716   32.7376   44.5445 H   0  0  0  0  0  0  0  0  0  0  0  0
   57.9200   33.6073   43.9678 H   0  0  0  0  0  0  0  0  0  0  0  0
   59.0430   34.5860   45.9080 C   0  0  0  0  0  0  0  0  0  0  0  0
   60.0948   34.5059   46.2199 H   0  0  0  0  0  0  0  0  0  0  0  0
   59.1210   35.6829   45.9344 H   0  0  0  0  0  0  0  0  0  0  0  0
   59.4420   30.6770   48.2970 N   0  0  0  0  0  0  0  0  0  0  0  0
   59.7040   29.3430   48.4010 C   0  0  0  0  0  0  0  0  0  0  0  0
   60.7380   28.7300   49.7280 S   0  0  0  0  0  0  0  0  0  0  0  0
   60.6150   30.2300   50.7680 C   0  0  0  0  0  0  0  0  0  0  0  0
   60.2850   29.9349   51.7750 H   0  0  0  0  0  0  0  0  0  0  0  0
   59.8951   30.9102   50.2893 H   0  0  0  0  0  0  0  0  0  0  0  0
   61.9540   30.9760   50.8870 C   0  0  0  0  0  0  0  0  0  0  0  0
   62.7552   30.2450   51.0708 H   0  0  0  0  0  0  0  0  0  0  0  0
   61.8775   31.6912   51.7193 H   0  0  0  0  0  0  0  0  0  0  0  0
   62.2660   31.7310   49.6540 N   0  0  0  0  0  0  0  0  0  0  0  0
   63.7200   31.9760   49.5460 C   0  0  0  0  0  0  0  0  0  0  0  0
   64.2309   31.0176   49.3712 H   0  0  0  0  0  0  0  0  0  0  0  0
   64.0601   32.4389   50.4841 H   0  0  0  0  0  0  0  0  0  0  0  0
   64.0530   32.9400   48.3850 C   0  0  0  0  0  0  0  0  0  0  0  0
   64.8937   32.5321   47.8046 H   0  0  0  0  0  0  0  0  0  0  0  0
   64.3235   33.9215   48.8015 H   0  0  0  0  0  0  0  0  0  0  0  0
   62.8840   33.1000   47.5010 N   0  0  0  0  0  0  0  0  0  0  0  0
   63.2310   33.9300   46.3370 C   0  0  0  0  0  0  0  0  0  0  0  0
   63.6340   34.8939   46.6811 H   0  0  0  0  0  0  0  0  0  0  0  0
   63.9879   33.4119   45.7298 H   0  0  0  0  0  0  0  0  0  0  0  0
   62.3306   34.1048   45.7298 H   0  0  0  0  0  0  0  0  0  0  0  0
   61.7540   33.6990   48.2380 C   0  0  0  0  0  0  0  0  0  0  0  0
   60.8394   33.5930   47.6361 H   0  0  0  0  0  0  0  0  0  0  0  0
   61.9855   34.7590   48.4191 H   0  0  0  0  0  0  0  0  0  0  0  0
   61.5370   33.0140   49.6020 C   0  0  0  0  0  0  0  0  0  0  0  0
   60.4628   32.8269   49.7471 H   0  0  0  0  0  0  0  0  0  0  0  0
   61.9160   33.6729   50.3971 H   0  0  0  0  0  0  0  0  0  0  0  0
   59.1710   28.4700   47.5090 N   0  0  0  0  0  0  0  0  0  0  0  0
   58.3670   28.9550   46.5370 C   0  0  0  0  0  0  0  0  0  0  0  0
  1  2  1  0
  2  3  1  0
  3  4  1  0
  4  5  1  0
  5  6  2  0
  5  7  1  0
  7  8  1  0
  8  9  1  0
  9 10  1  0
  9 11  2  3
 11 12  1  0
 12 13  1  0
 12 14  2  0
 14 15  1  0
 15 16  1  0
 16 17  2  0
 17 18  1  0
 18 19  1  0
 18 20  1  0
 20 21  1  0
 20 22  1  0
 20 23  1  0
 23 24  1  0
 23 25  1  0
 16 26  1  0
 26 27  2  0
 27 28  1  0
 28 29  1  0
 29 30  1  0
 29 31  1  0
 29 32  1  0
 32 33  1  0
 32 34  1  0
 32 35  1  0
 35 36  1  0
 36 37  1  0
 36 38  1  0
 36 39  1  0
 39 40  1  0
 39 41  1  0
 39 42  1  0
 42 43  1  0
 43 44  1  0
 43 45  1  0
 43 46  1  0
 42 47  1  0
 47 48  1  0
 47 49  1  0
 47 50  1  0
 50 51  1  0
 50 52  1  0
 27 53  1  0
 53 54  2  0
  8  3  2  0
 54 11  1  0
 54 15  1  0
 23 18  1  0
 50 35  1  0
M  CHG  2   4  -1   7  -1
M  END
>  <UniqueID>  (45) 
44

>  <SMILES>  (45) 
CN1CCN(CCSc2n/c(=N/C3CC3)n3ncc(=Cc4[n-]c(=O)[n-]c4O)c3n2)CC1

>  <Energy>  (45) 
418.8096963538931

>  <Genealogy>  (45) 
CN1CCN(CCSc2nc(=NC3CC3)n3ncc(=Cc4[n-]c(=O)[n-]c4O)c3n2)CC1 (protonated)
CN1CCN(CCSc2n/c(=N/C3CC3)n3ncc(=Cc4[n-]c(=O)[n-]c4O)c3n2)CC1 (cis-trans isomerization)
CN1CCN(CCSc2n/c(=N/C3CC3)n3ncc(=Cc4[n-]c(=O)[n-]c4O)c3n2)CC1 (3D coordinates assigned)
CN1CCN(CCSc2n/c(=N/C3CC3)n3ncc(=Cc4[n-]c(=O)[n-]c4O)c3n2)CC1 (nonaromatic ring conformer: 418.8096963538931 kcal/mol)

>  <smiles>  (45) 
CN1CCN(CCSc2nc(=NC3CC3)n3ncc(=Cc4[nH]c(=O)[nH]c4O)c3n2)CC1

>  <score_type>  (45) 
oracle

>  <origin>  (45) 
adg

>  <m_score__min__energy>  (45) 
-13.83

>  <m_primary>  (45) 
energy

$$$$
45:0
     RDKit          3D

 78 82  0  0  0  0  0  0  0  0999 V2000
   62.1320   28.5970   52.3770 N   0  0  0  0  0  0  0  0  0  0  0  0
   63.1790   29.0000   52.0930 C   0  0  0  0  0  0  0  0  0  0  0  0
   64.4820   29.5000   51.7400 C   0  0  0  0  0  0  0  0  0  0  0  0
   65.6150   28.6980   51.9210 C   0  0  0  0  0  0  0  0  0  0  0  0
   66.8770   29.1800   51.5600 C   0  0  0  0  0  0  0  0  0  0  0  0
   67.0110   30.4620   51.0190 C   0  0  0  0  0  0  0  0  0  0  0  0
   65.8830   31.2810   50.8320 C   0  0  0  0  0  0  0  0  0  0  0  0
   66.0220   32.6400   50.2560 C   0  0  0  0  0  0  0  0  0  0  0  0
   67.1610   33.1740   50.2020 O   0  0  0  0  0  0  0  0  0  0  0  0
   64.8480   33.3610   49.8330 N   0  0  0  0  0  0  0  0  0  0  0  0
   63.9710   33.0850   48.9040 C   0  0  0  0  0  0  0  0  0  0  0  0
   63.9330   33.7370   47.6520 C   0  0  0  0  0  0  0  0  0  0  0  0
   62.9450   33.3890   46.7280 C   0  0  0  0  0  0  0  0  0  0  0  0
   62.0110   32.4040   47.0380 C   0  0  0  0  0  0  0  0  0  0  0  0
   62.0800   31.7620   48.2790 C   0  0  0  0  0  0  0  0  0  0  0  0
   61.1500   30.7310   48.6310 N   0  0  0  0  0  0  0  0  0  0  0  0
   60.7770   29.6770   47.7280 C   0  0  0  0  0  0  0  0  0  0  0  0
   61.2010   29.6830   46.5400 O   0  0  0  0  0  0  0  0  0  0  0  0
   59.8300   28.6030   48.1920 C   0  0  0  0  0  0  0  0  0  0  0  0
   58.7920   28.2690   47.1520 C   0  0  0  0  0  0  0  0  0  0  0  0
   58.4380   26.9300   46.9180 C   0  0  0  0  0  0  0  0  0  0  0  0
   57.4140   26.6200   46.0180 C   0  0  0  0  0  0  0  0  0  0  0  0
   56.7330   27.6430   45.3550 C   0  0  0  0  0  0  0  0  0  0  0  0
   57.0810   28.9860   45.5790 C   0  0  0  0  0  0  0  0  0  0  0  0
   56.3870   30.0520   44.9230 N   0  0  0  0  0  0  0  0  0  0  0  0
   57.0290   31.0390   44.1060 C   0  0  0  0  0  0  0  0  0  0  0  0
   56.9050   30.9670   42.8520 O   0  0  0  0  0  0  0  0  0  0  0  0
   57.9610   32.0740   44.6990 C   0  0  1  0  0  0  0  0  0  0  0  0
   57.7700   33.4510   44.0360 C   0  0  0  0  0  0  0  0  0  0  0  0
   58.5680   34.5810   44.7390 C   0  0  0  0  0  0  0  0  0  0  0  0
   59.5190   34.0720   45.8330 C   0  0  0  0  0  0  0  0  0  0  0  0
   58.7920   33.1900   46.7600 N   0  0  0  0  0  0  0  0  0  0  0  0
   59.0940   33.2130   48.1710 C   0  0  0  0  0  0  0  0  0  0  0  0
   58.9260   32.1680   48.8620 O   0  0  0  0  0  0  0  0  0  0  0  0
   59.6280   34.4540   48.8460 C   0  0  0  0  0  0  0  0  0  0  0  0
   60.7740   34.1320   49.8160 C   0  0  0  0  0  0  0  0  0  0  0  0
   60.2740   33.4240   51.0520 C   0  0  0  0  0  0  0  0  0  0  0  0
   60.9990   32.3480   51.6010 C   0  0  0  0  0  0  0  0  0  0  0  0
   60.5130   31.6710   52.7270 C   0  0  0  0  0  0  0  0  0  0  0  0
   59.3000   32.0580   53.3050 C   0  0  0  0  0  0  0  0  0  0  0  0
   58.5700   33.1180   52.7590 C   0  0  0  0  0  0  0  0  0  0  0  0
   59.0520   33.7980   51.6350 C   0  0  0  0  0  0  0  0  0  0  0  0
   57.8340   32.2080   46.2280 C   0  0  0  0  0  0  0  0  0  0  0  0
   58.1120   29.2940   46.4730 C   0  0  0  0  0  0  0  0  0  0  0  0
   63.0600   32.1070   49.1590 N   0  0  0  0  0  0  0  0  0  0  0  0
   64.6140   30.7840   51.1970 C   0  0  0  0  0  0  0  0  0  0  0  0
   65.5126   27.6890   52.3470 H   0  0  0  0  0  0  0  0  0  0  0  0
   67.7666   28.5488   51.7021 H   0  0  0  0  0  0  0  0  0  0  0  0
   68.0073   30.8335   50.7371 H   0  0  0  0  0  0  0  0  0  0  0  0
   64.6745   34.5116   47.4067 H   0  0  0  0  0  0  0  0  0  0  0  0
   62.9047   33.8949   45.7521 H   0  0  0  0  0  0  0  0  0  0  0  0
   61.2274   32.1336   46.3149 H   0  0  0  0  0  0  0  0  0  0  0  0
   60.5980   30.8510   49.5090 H   0  0  0  0  0  0  0  0  0  0  0  0
   60.4082   27.6953   48.4192 H   0  0  0  0  0  0  0  0  0  0  0  0
   59.3056   28.9782   49.0832 H   0  0  0  0  0  0  0  0  0  0  0  0
   58.9681   26.1227   47.4445 H   0  0  0  0  0  0  0  0  0  0  0  0
   57.1447   25.5698   45.8321 H   0  0  0  0  0  0  0  0  0  0  0  0
   55.9212   27.3967   44.6548 H   0  0  0  0  0  0  0  0  0  0  0  0
   58.9763   31.7068   44.4883 H   0  0  0  0  0  0  0  0  0  0  0  0
   58.1039   33.3852   42.9900 H   0  0  0  0  0  0  0  0  0  0  0  0
   56.7029   33.7066   44.1124 H   0  0  0  0  0  0  0  0  0  0  0  0
   59.1624   35.1111   43.9803 H   0  0  0  0  0  0  0  0  0  0  0  0
   57.8343   35.2380   45.2289 H   0  0  0  0  0  0  0  0  0  0  0  0
   60.3432   33.5116   45.3676 H   0  0  0  0  0  0  0  0  0  0  0  0
   59.9207   34.9306   46.3910 H   0  0  0  0  0  0  0  0  0  0  0  0
   59.9985   35.1461   48.0755 H   0  0  0  0  0  0  0  0  0  0  0  0
   58.8089   34.9056   49.4250 H   0  0  0  0  0  0  0  0  0  0  0  0
   61.5032   33.4861   49.3051 H   0  0  0  0  0  0  0  0  0  0  0  0
   61.2382   35.0797   50.1266 H   0  0  0  0  0  0  0  0  0  0  0  0
   61.9503   32.0383   51.1437 H   0  0  0  0  0  0  0  0  0  0  0  0
   61.0853   30.8354   53.1562 H   0  0  0  0  0  0  0  0  0  0  0  0
   58.9196   31.5277   54.1905 H   0  0  0  0  0  0  0  0  0  0  0  0
   57.6146   33.4181   53.2140 H   0  0  0  0  0  0  0  0  0  0  0  0
   58.4718   34.6285   51.2064 H   0  0  0  0  0  0  0  0  0  0  0  0
   58.0296   31.2295   46.6909 H   0  0  0  0  0  0  0  0  0  0  0  0
   56.8164   32.5532   46.4629 H   0  0  0  0  0  0  0  0  0  0  0  0
   58.3917   30.3438   46.6452 H   0  0  0  0  0  0  0  0  0  0  0  0
   63.7210   31.4102   51.0539 H   0  0  0  0  0  0  0  0  0  0  0  0
  1  2  3  0
  2  3  1  0
  3  4  2  0
  4  5  1  0
  5  6  2  0
  6  7  1  0
  7  8  1  0
  8  9  2  0
  8 10  1  0
 10 11  2  3
 11 12  1  0
 12 13  2  0
 13 14  1  0
 14 15  2  0
 15 16  1  0
 16 17  1  0
 17 18  2  0
 17 19  1  0
 19 20  1  0
 20 21  2  0
 21 22  1  0
 22 23  2  0
 23 24  1  0
 24 25  1  0
 25 26  1  0
 26 27  2  0
 26 28  1  0
 28 29  1  0
 29 30  1  0
 30 31  1  0
 31 32  1  0
 32 33  1  0
 33 34  2  0
 33 35  1  0
 35 36  1  0
 36 37  1  0
 37 38  2  0
 38 39  1  0
 39 40  2  0
 40 41  1  0
 41 42  2  0
 32 43  1  0
 24 44  2  0
 15 45  1  0
  7 46  2  0
 46  3  1  0
 45 11  1  0
 44 20  1  0
 43 28  1  0
 42 37  1  0
  4 47  1  0
  5 48  1  0
  6 49  1  0
 12 50  1  0
 13 51  1  0
 14 52  1  0
 16 53  1  0
 19 54  1  0
 19 55  1  0
 21 56  1  0
 22 57  1  0
 23 58  1  0
 28 59  1  1
 29 60  1  0
 29 61  1  0
 30 62  1  0
 30 63  1  0
 31 64  1  0
 31 65  1  0
 35 66  1  0
 35 67  1  0
 36 68  1  0
 36 69  1  0
 38 70  1  0
 39 71  1  0
 40 72  1  0
 41 73  1  0
 42 74  1  0
 43 75  1  0
 43 76  1  0
 44 77  1  0
 46 78  1  0
M  CHG  2  25  -1  45  -1
M  END
>  <UniqueID>  (46) 
45

>  <SMILES>  (46) 
N#Cc1cccc(C(=O)N=c2cccc(NC(=O)Cc3cccc([N-]C(=O)[C@H]4CCCN(C(=O)CCc5ccccc5)C4)c3)[n-]2)c1

>  <Energy>  (46) 
100.84514267868018

>  <Genealogy>  (46) 
N#Cc1cccc(C(=O)N=c2cccc(NC(=O)Cc3cccc([N-]C(=O)C4CCCN(C(=O)CCc5ccccc5)C4)c3)[n-]2)c1 (protonated)
N#Cc1cccc(C(=O)N=c2cccc(NC(=O)Cc3cccc([N-]C(=O)[C@H]4CCCN(C(=O)CCc5ccccc5)C4)c3)[n-]2)c1 (chirality)
N#Cc1cccc(C(=O)N=c2cccc(NC(=O)Cc3cccc([N-]C(=O)[C@H]4CCCN(C(=O)CCc5ccccc5)C4)c3)[n-]2)c1 (3D coordinates assigned)
N#Cc1cccc(C(=O)N=c2cccc(NC(=O)Cc3cccc([N-]C(=O)[C@H]4CCCN(C(=O)CCc5ccccc5)C4)c3)[n-]2)c1 (nonaromatic ring conformer: 100.84514267868018 kcal/mol)

>  <smiles>  (46) 
N#Cc1cccc(C(=O)N=c2cccc(NC(=O)Cc3cccc(NC(=O)C4CCCN(C(=O)CCc5ccccc5)C4)c3)[nH]2)c1

>  <score_type>  (46) 
oracle

>  <origin>  (46) 
adg

>  <m_score__min__energy>  (46) 
-15.73

>  <m_primary>  (46) 
energy

$$$$
46:0
     RDKit          3D

 43 45  0  0  0  0  0  0  0  0999 V2000
   60.1238   35.5369   46.1109 H   0  0  0  0  0  0  0  0  0  0  0  0
   59.3850   34.7220   46.1250 C   0  0  0  0  0  0  0  0  0  0  0  0
   58.7830   33.9080   44.7780 S   0  0  0  0  0  0  0  0  0  0  0  0
   57.7880   32.9000   45.6960 C   0  0  0  0  0  0  0  0  0  0  0  0
   56.9900   31.9720   45.2480 N   0  0  0  0  0  0  0  0  0  0  0  0
   57.3120   30.8830   44.3660 C   0  0  0  0  0  0  0  0  0  0  0  0
   57.3910   31.0710   43.1220 O   0  0  0  0  0  0  0  0  0  0  0  0
   57.5340   29.5220   44.9280 C   0  0  0  0  0  0  0  0  0  0  0  0
   58.8430   29.1050   45.2450 C   0  0  0  0  0  0  0  0  0  0  0  0
   59.6870   29.7878   45.0679 H   0  0  0  0  0  0  0  0  0  0  0  0
   59.0850   27.8320   45.7830 C   0  0  0  0  0  0  0  0  0  0  0  0
   60.4880   27.4170   46.1240 C   0  0  0  0  0  0  0  0  0  0  0  0
   61.1962   27.9380   45.4629 H   0  0  0  0  0  0  0  0  0  0  0  0
   60.5941   26.3306   45.9883 H   0  0  0  0  0  0  0  0  0  0  0  0
   60.7640   27.7580   47.4810 O   0  0  0  0  0  0  0  0  0  0  0  0
   60.3990   28.9700   48.0850 C   0  0  0  0  0  0  0  0  0  0  0  0
   59.3570   28.9600   49.0170 C   0  0  0  0  0  0  0  0  0  0  0  0
   58.8472   28.0151   49.2565 H   0  0  0  0  0  0  0  0  0  0  0  0
   58.9590   30.1420   49.6460 C   0  0  0  0  0  0  0  0  0  0  0  0
   58.1371   30.1242   50.3769 H   0  0  0  0  0  0  0  0  0  0  0  0
   59.6010   31.3460   49.3500 C   0  0  0  0  0  0  0  0  0  0  0  0
   59.2832   32.2734   49.8490 H   0  0  0  0  0  0  0  0  0  0  0  0
   60.6540   31.3780   48.4150 C   0  0  0  0  0  0  0  0  0  0  0  0
   61.3330   32.5580   48.0740 O   0  0  0  0  0  0  0  0  0  0  0  0
   62.4280   32.6540   47.1600 C   0  0  0  0  0  0  0  0  0  0  0  0
   62.0365   32.7931   46.1415 H   0  0  0  0  0  0  0  0  0  0  0  0
   63.0194   31.7284   47.2196 H   0  0  0  0  0  0  0  0  0  0  0  0
   63.3270   33.8320   47.5150 C   0  0  0  0  0  0  0  0  0  0  0  0
   63.3967   33.9234   48.6090 H   0  0  0  0  0  0  0  0  0  0  0  0
   64.3306   33.6666   47.0961 H   0  0  0  0  0  0  0  0  0  0  0  0
   62.9026   34.7564   47.0961 H   0  0  0  0  0  0  0  0  0  0  0  0
   61.0430   30.1880   47.7860 C   0  0  0  0  0  0  0  0  0  0  0  0
   61.8605   30.2042   47.0502 H   0  0  0  0  0  0  0  0  0  0  0  0
   58.0080   26.9680   46.0240 C   0  0  0  0  0  0  0  0  0  0  0  0
   58.1876   25.9766   46.4655 H   0  0  0  0  0  0  0  0  0  0  0  0
   56.7090   27.3630   45.7050 C   0  0  0  0  0  0  0  0  0  0  0  0
   55.8703   26.6734   45.8814 H   0  0  0  0  0  0  0  0  0  0  0  0
   56.4640   28.6280   45.1630 C   0  0  0  0  0  0  0  0  0  0  0  0
   55.1510   28.9800   44.8650 O   0  0  0  0  0  0  0  0  0  0  0  0
   57.9030   33.1780   47.0120 N   0  0  0  0  0  0  0  0  0  0  0  0
   57.3770   32.6760   47.7640 H   0  0  0  0  0  0  0  0  0  0  0  0
   58.7840   34.1830   47.2580 C   0  0  0  0  0  0  0  0  0  0  0  0
   59.0048   34.5424   48.2739 H   0  0  0  0  0  0  0  0  0  0  0  0
  1  2  1  0
  2  3  1  0
  3  4  1  0
  4  5  2  0
  5  6  1  0
  6  7  2  0
  6  8  1  0
  8  9  2  0
  9 10  1  0
  9 11  1  0
 11 12  1  0
 12 13  1  0
 12 14  1  0
 12 15  1  0
 15 16  1  0
 16 17  2  0
 17 18  1  0
 17 19  1  0
 19 20  1  0
 19 21  2  0
 21 22  1  0
 21 23  1  0
 23 24  1  0
 24 25  1  0
 25 26  1  0
 25 27  1  0
 25 28  1  0
 28 29  1  0
 28 30  1  0
 28 31  1  0
 23 32  2  0
 32 33  1  0
 11 34  2  0
 34 35  1  0
 34 36  1  0
 36 37  1  0
 36 38  2  0
 38 39  1  0
  4 40  1  0
 40 41  1  0
 40 42  1  0
 42 43  1  0
 42  2  2  0
 38  8  1  0
 32 16  1  0
M  CHG  1  39  -1
M  END
>  <UniqueID>  (47) 
46

>  <SMILES>  (47) 
CCOc1cccc(OCc2ccc([O-])c(C(=O)/N=c3/[nH]ccs3)c2)c1

>  <Energy>  (47) 
78.57570974019785

>  <Genealogy>  (47) 
CCOc1cccc(OCc2ccc([O-])c(C(=O)N=c3[nH]ccs3)c2)c1 (protonated)
CCOc1cccc(OCc2ccc([O-])c(C(=O)/N=c3/[nH]ccs3)c2)c1 (cis-trans isomerization)
CCOc1cccc(OCc2ccc([O-])c(C(=O)/N=c3/[nH]ccs3)c2)c1 (3D coordinates assigned)
CCOc1cccc(OCc2ccc([O-])c(C(=O)/N=c3/[nH]ccs3)c2)c1 (optimized conformer: 78.57570974019785 kcal/mol)

>  <smiles>  (47) 
CCOc1cccc(OCc2ccc(O)c(C(=O)N=c3[nH]ccs3)c2)c1

>  <score_type>  (47) 
oracle

>  <origin>  (47) 
adg

>  <m_score__min__energy>  (47) 
-11.68

>  <m_primary>  (47) 
energy

$$$$
47:0
     RDKit          3D

 52 54  0  0  0  0  0  0  0  0999 V2000
   54.1570   21.0120   49.2300 C   0  0  0  0  0  0  0  0  0  0  0  0
   54.2120   21.3810   47.8570 O   0  0  0  0  0  0  0  0  0  0  0  0
   54.8990   22.4870   47.3200 C   0  0  0  0  0  0  0  0  0  0  0  0
   54.1710   23.3980   46.5300 C   0  0  0  0  0  0  0  0  0  0  0  0
   52.7110   23.1870   46.2660 C   0  0  0  0  0  0  0  0  0  0  0  0
   54.7890   24.4820   45.9900 N   0  0  0  0  0  0  0  0  0  0  0  0
   56.1090   24.7400   46.1870 C   0  0  0  0  0  0  0  0  0  0  0  0
   56.7280   25.9500   45.5480 C   0  0  0  0  0  0  0  0  0  0  0  0
   56.6110   27.1100   46.4320 N   0  0  0  0  0  0  0  0  0  0  0  0
   57.9770   28.1780   46.2630 S   0  0  0  0  0  0  0  0  0  0  0  0
   59.2220   27.3880   45.9660 O   0  0  0  0  0  0  0  0  0  0  0  0
   58.1560   28.9110   47.5630 O   0  0  0  0  0  0  0  0  0  0  0  0
   57.6980   29.3590   44.9700 C   0  0  0  0  0  0  0  0  0  0  0  0
   56.7200   29.0890   43.9970 C   0  0  0  0  0  0  0  0  0  0  0  0
   56.4390   30.0190   42.9950 C   0  0  0  0  0  0  0  0  0  0  0  0
   57.1220   31.2330   42.9530 C   0  0  0  0  0  0  0  0  0  0  0  0
   58.0930   31.5200   43.9130 C   0  0  0  0  0  0  0  0  0  0  0  0
   58.3950   30.5930   44.9260 C   0  0  0  0  0  0  0  0  0  0  0  0
   59.4400   30.9500   45.9090 C   0  0  0  0  0  0  0  0  0  0  0  0
   60.3860   30.1440   46.1180 O   0  0  0  0  0  0  0  0  0  0  0  0
   59.4340   32.2290   46.5770 N   0  0  0  0  0  0  0  0  0  0  0  0
   60.7060   32.7860   47.0610 C   0  0  0  0  0  0  0  0  0  0  0  0
   60.5260   34.1990   47.6330 C   0  0  0  0  0  0  0  0  0  0  0  0
   59.6290   35.0330   46.7120 C   0  0  0  0  0  0  0  0  0  0  0  0
   58.2390   34.3940   46.4950 C   0  0  0  0  0  0  0  0  0  0  0  0
   58.1740   32.9130   46.9030 C   0  0  0  0  0  0  0  0  0  0  0  0
   56.8770   23.8610   46.9560 C   0  0  0  0  0  0  0  0  0  0  0  0
   56.2770   22.7350   47.5290 C   0  0  0  0  0  0  0  0  0  0  0  0
   56.9860   21.9620   48.2230 O   0  0  0  0  0  0  0  0  0  0  0  0
   54.2904   21.9068   49.8558 H   0  0  0  0  0  0  0  0  0  0  0  0
   53.1807   20.5544   49.4479 H   0  0  0  0  0  0  0  0  0  0  0  0
   54.9574   20.2896   49.4479 H   0  0  0  0  0  0  0  0  0  0  0  0
   52.1730   23.1092   47.2223 H   0  0  0  0  0  0  0  0  0  0  0  0
   52.3157   24.0374   45.6910 H   0  0  0  0  0  0  0  0  0  0  0  0
   52.5727   22.2595   45.6910 H   0  0  0  0  0  0  0  0  0  0  0  0
   57.7916   25.7511   45.3499 H   0  0  0  0  0  0  0  0  0  0  0  0
   56.2017   26.1647   44.6062 H   0  0  0  0  0  0  0  0  0  0  0  0
   56.1712   28.1361   44.0256 H   0  0  0  0  0  0  0  0  0  0  0  0
   55.6758   29.7929   42.2358 H   0  0  0  0  0  0  0  0  0  0  0  0
   56.8957   31.9646   42.1634 H   0  0  0  0  0  0  0  0  0  0  0  0
   58.6274   32.4808   43.8769 H   0  0  0  0  0  0  0  0  0  0  0  0
   61.1052   32.1306   47.8491 H   0  0  0  0  0  0  0  0  0  0  0  0
   61.3999   32.8466   46.2096 H   0  0  0  0  0  0  0  0  0  0  0  0
   60.0622   34.1317   48.6282 H   0  0  0  0  0  0  0  0  0  0  0  0
   61.5107   34.6832   47.7093 H   0  0  0  0  0  0  0  0  0  0  0  0
   59.4927   36.0282   47.1604 H   0  0  0  0  0  0  0  0  0  0  0  0
   60.1239   35.0929   45.7314 H   0  0  0  0  0  0  0  0  0  0  0  0
   57.5023   34.9521   47.0916 H   0  0  0  0  0  0  0  0  0  0  0  0
   58.0257   34.4421   45.4170 H   0  0  0  0  0  0  0  0  0  0  0  0
   57.9955   32.8443   47.9862 H   0  0  0  0  0  0  0  0  0  0  0  0
   57.3553   32.4292   46.3501 H   0  0  0  0  0  0  0  0  0  0  0  0
   57.9489   24.0541   47.1099 H   0  0  0  0  0  0  0  0  0  0  0  0
  1  2  1  0
  2  3  1  0
  3  4  2  0
  4  5  1  0
  4  6  1  0
  6  7  1  0
  7  8  1  0
  8  9  1  0
  9 10  1  0
 10 11  2  0
 10 12  2  0
 10 13  1  0
 13 14  2  0
 14 15  1  0
 15 16  2  0
 16 17  1  0
 17 18  2  0
 18 19  1  0
 19 20  2  0
 19 21  1  0
 21 22  1  0
 22 23  1  0
 23 24  1  0
 24 25  1  0
 25 26  1  0
  7 27  2  0
 27 28  1  0
 28 29  2  0
 28  3  1  0
 18 13  1  0
 26 21  1  0
  1 30  1  0
  1 31  1  0
  1 32  1  0
  5 33  1  0
  5 34  1  0
  5 35  1  0
  8 36  1  0
  8 37  1  0
 14 38  1  0
 15 39  1  0
 16 40  1  0
 17 41  1  0
 22 42  1  0
 22 43  1  0
 23 44  1  0
 23 45  1  0
 24 46  1  0
 24 47  1  0
 25 48  1  0
 25 49  1  0
 26 50  1  0
 26 51  1  0
 27 52  1  0
M  CHG  2   6  -1   9  -1
M  END
>  <UniqueID>  (48) 
47

>  <SMILES>  (48) 
COc1c(C)[n-]c(C[N-]S(=O)(=O)c2ccccc2C(=O)N2CCCCC2)cc1=O

>  <Energy>  (48) 
63.53718848755094

>  <Genealogy>  (48) 
COc1c(C)[n-]c(C[N-]S(=O)(=O)c2ccccc2C(=O)N2CCCCC2)cc1=O (protonated)
COc1c(C)[n-]c(C[N-]S(=O)(=O)c2ccccc2C(=O)N2CCCCC2)cc1=O (3D coordinates assigned)
COc1c(C)[n-]c(C[N-]S(=O)(=O)c2ccccc2C(=O)N2CCCCC2)cc1=O (nonaromatic ring conformer: 63.53718848755094 kcal/mol)

>  <smiles>  (48) 
COc1c(C)[nH]c(CNS(=O)(=O)c2ccccc2C(=O)N2CCCCC2)cc1=O

>  <score_type>  (48) 
oracle

>  <origin>  (48) 
adg

>  <m_score__min__energy>  (48) 
-11.880000000000001

>  <m_primary>  (48) 
energy

$$$$
48:0
     RDKit          3D

 31 32  0  0  0  0  0  0  0  0999 V2000
   55.1190   29.3160   44.2460 O   0  0  0  0  0  0  0  0  0  0  0  0
   56.1440   29.7500   44.8320 C   0  0  0  0  0  0  0  0  0  0  0  0
   56.4040   31.1590   44.8200 N   0  0  0  0  0  0  0  0  0  0  0  0
   57.8250   31.8870   44.1400 S   0  0  0  0  0  0  0  0  0  0  0  0
   58.8470   30.8170   43.8770 O   0  0  0  0  0  0  0  0  0  0  0  0
   57.4700   32.5380   42.8330 O   0  0  0  0  0  0  0  0  0  0  0  0
   58.5020   33.0660   45.2560 C   0  0  0  0  0  0  0  0  0  0  0  0
   58.4900   32.8310   46.6400 C   0  0  0  0  0  0  0  0  0  0  0  0
   59.0540   33.7650   47.5140 C   0  0  0  0  0  0  0  0  0  0  0  0
   59.6270   34.9370   47.0130 C   0  0  0  0  0  0  0  0  0  0  0  0
   59.6370   35.1770   45.6360 C   0  0  0  0  0  0  0  0  0  0  0  0
   59.0750   34.2440   44.7590 C   0  0  0  0  0  0  0  0  0  0  0  0
   57.0350   28.8000   45.5210 C   0  0  0  0  0  0  0  0  0  0  0  0
   58.2800   29.2200   46.0060 C   0  0  0  0  0  0  0  0  0  0  0  0
   59.1180   28.3190   46.6640 C   0  0  0  0  0  0  0  0  0  0  0  0
   58.7290   26.9870   46.8260 C   0  0  0  0  0  0  0  0  0  0  0  0
   57.4950   26.5400   46.3220 C   0  0  0  0  0  0  0  0  0  0  0  0
   57.0890   25.1270   46.4870 C   0  0  0  0  0  0  0  0  0  0  0  0
   55.8880   24.8350   46.7370 O   0  0  0  0  0  0  0  0  0  0  0  0
   58.0360   24.1100   46.3660 O   0  0  0  0  0  0  0  0  0  0  0  0
   58.0960   22.9790   44.8710 Br  0  0  0  0  0  0  0  0  0  0  0  0
   56.6540   27.4560   45.6610 C   0  0  0  0  0  0  0  0  0  0  0  0
   58.0363   31.9110   47.0371 H   0  0  0  0  0  0  0  0  0  0  0  0
   59.0467   33.5771   48.5978 H   0  0  0  0  0  0  0  0  0  0  0  0
   60.0702   35.6707   47.7024 H   0  0  0  0  0  0  0  0  0  0  0  0
   60.0871   36.1001   45.2421 H   0  0  0  0  0  0  0  0  0  0  0  0
   59.0828   34.4355   43.6758 H   0  0  0  0  0  0  0  0  0  0  0  0
   58.5983   30.2638   45.8677 H   0  0  0  0  0  0  0  0  0  0  0  0
   60.0879   28.6585   47.0564 H   0  0  0  0  0  0  0  0  0  0  0  0
   59.3922   26.2838   47.3510 H   0  0  0  0  0  0  0  0  0  0  0  0
   55.6914   27.1159   45.2513 H   0  0  0  0  0  0  0  0  0  0  0  0
  1  2  2  0
  2  3  1  0
  3  4  1  0
  4  5  2  0
  4  6  2  0
  4  7  1  0
  7  8  2  0
  8  9  1  0
  9 10  2  0
 10 11  1  0
 11 12  2  0
  2 13  1  0
 13 14  2  0
 14 15  1  0
 15 16  2  0
 16 17  1  0
 17 18  1  0
 18 19  2  0
 18 20  1  0
 20 21  1  0
 17 22  2  0
 12  7  1  0
 22 13  1  0
  8 23  1  0
  9 24  1  0
 10 25  1  0
 11 26  1  0
 12 27  1  0
 14 28  1  0
 15 29  1  0
 16 30  1  0
 22 31  1  0
M  CHG  1   3  -1
M  END
>  <UniqueID>  (49) 
48

>  <SMILES>  (49) 
O=C([N-]S(=O)(=O)c1ccccc1)c1cccc(C(=O)OBr)c1

>  <Energy>  (49) 
39.526740150989035

>  <Genealogy>  (49) 
O=C([N-]S(=O)(=O)c1ccccc1)c1cccc(C(=O)OBr)c1 (protonated)
O=C([N-]S(=O)(=O)c1ccccc1)c1cccc(C(=O)OBr)c1 (3D coordinates assigned)
O=C([N-]S(=O)(=O)c1ccccc1)c1cccc(C(=O)OBr)c1 (optimized conformer: 39.526740150989035 kcal/mol)

>  <smiles>  (49) 
O=C(NS(=O)(=O)c1ccccc1)c1cccc(C(=O)OBr)c1

>  <score_type>  (49) 
oracle

>  <origin>  (49) 
adg

>  <m_score__min__energy>  (49) 
-10.07

>  <m_primary>  (49) 
energy

$$$$
49:0
     RDKit          3D

 36 38  0  0  0  0  0  0  0  0999 V2000
   55.9292   26.1089   45.4912 H   0  0  0  0  0  0  0  0  0  0  0  0
   56.6420   26.9360   45.6250 C   0  0  0  0  0  0  0  0  0  0  0  0
   56.2780   28.2050   45.3040 N   0  0  0  0  0  0  0  0  0  0  0  0
   57.1310   29.2620   45.4370 C   0  0  0  0  0  0  0  0  0  0  0  0
   56.7290   30.4690   45.1660 N   0  0  0  0  0  0  0  0  0  0  0  0
   57.3760   31.3790   44.2220 C   0  0  0  0  0  0  0  0  0  0  0  0
   58.2154   30.8599   43.7363 H   0  0  0  0  0  0  0  0  0  0  0  0
   56.6384   31.6942   43.4692 H   0  0  0  0  0  0  0  0  0  0  0  0
   57.8940   32.5980   44.9360 C   0  0  0  0  0  0  0  0  0  0  0  0
   57.6270   32.7960   46.3010 C   0  0  0  0  0  0  0  0  0  0  0  0
   57.0193   32.0635   46.8525 H   0  0  0  0  0  0  0  0  0  0  0  0
   58.1310   33.9210   46.9610 C   0  0  0  0  0  0  0  0  0  0  0  0
   57.9173   34.0727   48.0293 H   0  0  0  0  0  0  0  0  0  0  0  0
   58.9060   34.8530   46.2650 C   0  0  0  0  0  0  0  0  0  0  0  0
   59.3019   35.7375   46.7856 H   0  0  0  0  0  0  0  0  0  0  0  0
   59.1780   34.6610   44.9070 C   0  0  0  0  0  0  0  0  0  0  0  0
   59.7873   35.3955   44.3600 H   0  0  0  0  0  0  0  0  0  0  0  0
   58.6770   33.5370   44.2430 C   0  0  0  0  0  0  0  0  0  0  0  0
   58.8963   33.3874   43.1755 H   0  0  0  0  0  0  0  0  0  0  0  0
   58.4430   29.0400   45.9080 C   0  0  0  0  0  0  0  0  0  0  0  0
   59.3830   30.1130   46.0790 N   0  0  0  0  0  0  0  0  0  0  0  0
   59.3180   30.9270   45.4260 H   0  0  0  0  0  0  0  0  0  0  0  0
   60.2550   30.2210   47.2150 C   0  0  0  0  0  0  0  0  0  0  0  0
   60.1110   29.4520   48.2030 O   0  0  0  0  0  0  0  0  0  0  0  0
   61.3040   31.2500   47.2420 C   0  0  0  0  0  0  0  0  0  0  0  0
   62.5480   31.0230   47.5980 O   0  0  0  0  0  0  0  0  0  0  0  0
   63.2200   32.1490   47.5150 C   0  0  0  0  0  0  0  0  0  0  0  0
   64.2874   32.2687   47.7521 H   0  0  0  0  0  0  0  0  0  0  0  0
   62.3830   33.1590   47.0850 C   0  0  0  0  0  0  0  0  0  0  0  0
   62.6506   34.2126   46.9168 H   0  0  0  0  0  0  0  0  0  0  0  0
   61.1450   32.5810   46.9090 C   0  0  0  0  0  0  0  0  0  0  0  0
   60.2220   33.0763   46.5732 H   0  0  0  0  0  0  0  0  0  0  0  0
   58.8160   27.7390   46.2730 C   0  0  0  0  0  0  0  0  0  0  0  0
   59.8210   27.5511   46.6788 H   0  0  0  0  0  0  0  0  0  0  0  0
   57.9190   26.6820   46.1240 C   0  0  0  0  0  0  0  0  0  0  0  0
   58.2156   25.6586   46.3972 H   0  0  0  0  0  0  0  0  0  0  0  0
  1  2  1  0
  2  3  1  0
  3  4  1  0
  4  5  2  0
  5  6  1  0
  6  7  1  0
  6  8  1  0
  6  9  1  0
  9 10  2  0
 10 11  1  0
 10 12  1  0
 12 13  1  0
 12 14  2  0
 14 15  1  0
 14 16  1  0
 16 17  1  0
 16 18  2  0
 18 19  1  0
  4 20  1  0
 20 21  1  0
 21 22  1  0
 21 23  1  0
 23 24  2  0
 23 25  1  0
 25 26  1  0
 26 27  1  0
 27 28  1  0
 27 29  2  0
 29 30  1  0
 29 31  1  0
 31 32  1  0
 20 33  2  0
 33 34  1  0
 33 35  1  0
 35 36  1  0
 35  2  2  0
 18  9  1  0
 31 25  2  0
M  CHG  1   3  -1
M  END
>  <UniqueID>  (50) 
49

>  <SMILES>  (50) 
O=C(Nc1ccc[n-]/c1=N\Cc1ccccc1)c1ccco1

>  <Energy>  (50) 
68.69768702679428

>  <Genealogy>  (50) 
O=C(Nc1ccc[n-]c1=NCc1ccccc1)c1ccco1 (protonated)
O=C(Nc1ccc[n-]/c1=N\Cc1ccccc1)c1ccco1 (cis-trans isomerization)
O=C(Nc1ccc[n-]/c1=N\Cc1ccccc1)c1ccco1 (3D coordinates assigned)
O=C(Nc1ccc[n-]/c1=N\Cc1ccccc1)c1ccco1 (optimized conformer: 68.69768702679428 kcal/mol)

>  <smiles>  (50) 
O=C(Nc1ccc[nH]c1=NCc1ccccc1)c1ccco1

>  <score_type>  (50) 
oracle

>  <origin>  (50) 
adg

>  <m_score__min__energy>  (50) 
-8.4000000000000004

>  <m_primary>  (50) 
energy

$$$$
50:0
     RDKit          3D

 14 15  0  0  0  0  0  0  0  0999 V2000
   56.8380   25.2790   45.9430 C   0  0  0  0  0  0  0  0  0  0  0  0
   55.6860   24.5890   45.9470 N   0  0  0  0  0  0  0  0  0  0  0  0
   54.7020   25.4780   45.9840 N   0  0  0  0  0  0  0  0  0  0  0  0
   55.1720   26.7160   46.0040 N   0  0  0  0  0  0  0  0  0  0  0  0
   56.5110   26.6140   45.9690 C   0  0  0  0  0  0  0  0  0  0  0  0
   57.4560   27.7690   46.0420 C   0  0  0  0  0  0  0  0  0  0  0  0
   56.8110   28.9950   45.4850 C   0  0  0  0  0  0  0  0  0  0  0  0
   55.6140   29.0090   44.8720 N   0  0  0  0  0  0  0  0  0  0  0  0
   55.4530   30.2640   44.4850 N   0  0  0  0  0  0  0  0  0  0  0  0
   56.5100   30.9800   44.8350 N   0  0  0  0  0  0  0  0  0  0  0  0
   57.3850   30.2100   45.4600 N   0  0  0  0  0  0  0  0  0  0  0  0
   57.8530   24.8554   45.9227 H   0  0  0  0  0  0  0  0  0  0  0  0
   57.7318   27.9478   47.0918 H   0  0  0  0  0  0  0  0  0  0  0  0
   58.3556   27.5362   45.4534 H   0  0  0  0  0  0  0  0  0  0  0  0
  1  2  1  0
  2  3  1  0
  3  4  2  0
  4  5  1  0
  5  6  1  0
  6  7  1  0
  7  8  1  0
  8  9  2  0
  9 10  1  0
 10 11  1  0
  5  1  2  0
 11  7  2  0
  1 12  1  0
  6 13  1  0
  6 14  1  0
M  CHG  2   2  -1  10  -1
M  END
>  <UniqueID>  (51) 
50

>  <SMILES>  (51) 
c1[n-]nnc1Cc1nn[n-]n1

>  <Energy>  (51) 
83.96336738007312

>  <Genealogy>  (51) 
c1[n-]nnc1Cc1nn[n-]n1 (protonated)
c1[n-]nnc1Cc1nn[n-]n1 (3D coordinates assigned)
c1[n-]nnc1Cc1nn[n-]n1 (optimized conformer: 83.96336738007312 kcal/mol)

>  <smiles>  (51) 
c1[nH]nnc1Cc1nn[nH]n1

>  <score_type>  (51) 
oracle

>  <origin>  (51) 
adg

>  <m_score__min__energy>  (51) 
-10.720000000000001

>  <m_primary>  (51) 
energy

$$$$
51:0
     RDKit          3D

 44 46  0  0  0  0  0  0  0  0999 V2000
   61.2446   24.5979   46.2263 H   0  0  0  0  0  0  0  0  0  0  0  0
   60.3060   25.1550   46.0900 C   0  0  0  0  0  0  0  0  0  0  0  0
   59.1480   24.4800   45.7020 C   0  0  0  0  0  0  0  0  0  0  0  0
   59.1759   23.3926   45.5382 H   0  0  0  0  0  0  0  0  0  0  0  0
   57.9470   25.1850   45.5200 C   0  0  0  0  0  0  0  0  0  0  0  0
   56.7310   24.5380   45.1180 N   0  0  0  0  0  0  0  0  0  0  0  0
   55.1680   24.7860   45.8260 S   0  0  0  0  0  0  0  0  0  0  0  0
   55.1240   24.1810   47.2020 O   0  0  0  0  0  0  0  0  0  0  0  0
   54.9200   26.2640   45.9410 O   0  0  0  0  0  0  0  0  0  0  0  0
   53.9060   24.0740   44.7930 C   0  0  0  0  0  0  0  0  0  0  0  0
   53.1216   23.6315   45.4246 H   0  0  0  0  0  0  0  0  0  0  0  0
   53.4668   24.8574   44.1579 H   0  0  0  0  0  0  0  0  0  0  0  0
   54.3495   23.2930   44.1579 H   0  0  0  0  0  0  0  0  0  0  0  0
   57.9250   26.5690   45.7390 C   0  0  0  0  0  0  0  0  0  0  0  0
   56.9873   27.1254   45.5936 H   0  0  0  0  0  0  0  0  0  0  0  0
   59.0840   27.2580   46.1420 C   0  0  0  0  0  0  0  0  0  0  0  0
   59.0320   28.7270   46.3560 C   0  0  0  0  0  0  0  0  0  0  0  0
   58.0710   29.4560   45.7270 N   0  0  0  0  0  0  0  0  0  0  0  0
   57.9450   30.8050   45.8670 C   0  0  0  0  0  0  0  0  0  0  0  0
   57.0000   31.4360   45.2300 N   0  0  0  0  0  0  0  0  0  0  0  0
   56.6280   31.1750   43.8440 C   0  0  0  0  0  0  0  0  0  0  0  0
   55.9546   31.9687   43.4883 H   0  0  0  0  0  0  0  0  0  0  0  0
   57.5314   31.1560   43.2167 H   0  0  0  0  0  0  0  0  0  0  0  0
   55.9320   29.8550   43.7610 C   0  0  0  0  0  0  0  0  0  0  0  0
   55.6490   29.3630   42.6350 O   0  0  0  0  0  0  0  0  0  0  0  0
   55.6230   29.1270   44.9490 N   0  0  0  0  0  0  0  0  0  0  0  0
   55.8720   29.5110   45.8880 H   0  0  0  0  0  0  0  0  0  0  0  0
   55.1490   28.1990   44.8910 H   0  0  0  0  0  0  0  0  0  0  0  0
   58.8480   31.5050   46.7070 C   0  0  0  0  0  0  0  0  0  0  0  0
   58.8120   32.9040   46.9250 C   0  0  0  0  0  0  0  0  0  0  0  0
   57.9400   33.6160   46.3550 O   0  0  0  0  0  0  0  0  0  0  0  0
   59.7260   33.4930   47.7610 N   0  0  0  0  0  0  0  0  0  0  0  0
   59.6860   34.9420   47.9930 C   0  0  0  0  0  0  0  0  0  0  0  0
   59.6805   35.1401   49.0750 H   0  0  0  0  0  0  0  0  0  0  0  0
   60.5716   35.4106   47.5389 H   0  0  0  0  0  0  0  0  0  0  0  0
   58.7759   35.3611   47.5389 H   0  0  0  0  0  0  0  0  0  0  0  0
   60.6680   32.7340   48.3920 C   0  0  0  0  0  0  0  0  0  0  0  0
   61.3925   33.2146   49.0659 H   0  0  0  0  0  0  0  0  0  0  0  0
   60.7200   31.3950   48.1970 N   0  0  0  0  0  0  0  0  0  0  0  0
   59.8450   30.7660   47.3760 C   0  0  0  0  0  0  0  0  0  0  0  0
   59.9350   29.3840   47.2050 C   0  0  0  0  0  0  0  0  0  0  0  0
   60.7113   28.8118   47.7341 H   0  0  0  0  0  0  0  0  0  0  0  0
   60.2790   26.5340   46.3060 C   0  0  0  0  0  0  0  0  0  0  0  0
   61.1983   27.0580   46.6065 H   0  0  0  0  0  0  0  0  0  0  0  0
  1  2  1  0
  2  3  2  0
  3  4  1  0
  3  5  1  0
  5  6  1  0
  6  7  1  0
  7  8  2  0
  7  9  2  0
  7 10  1  0
 10 11  1  0
 10 12  1  0
 10 13  1  0
  5 14  2  0
 14 15  1  0
 14 16  1  0
 16 17  1  0
 17 18  1  0
 18 19  1  0
 19 20  2  0
 20 21  1  0
 21 22  1  0
 21 23  1  0
 21 24  1  0
 24 25  2  0
 24 26  1  0
 26 27  1  0
 26 28  1  0
 19 29  1  0
 29 30  1  0
 30 31  2  0
 30 32  1  0
 32 33  1  0
 33 34  1  0
 33 35  1  0
 33 36  1  0
 32 37  1  0
 37 38  1  0
 37 39  2  0
 39 40  1  0
 40 41  1  0
 41 42  1  0
 16 43  2  0
 43 44  1  0
 43  2  1  0
 41 17  2  0
 40 29  2  0
M  CHG  2   6  -1  18  -1
M  END
>  <UniqueID>  (52) 
51

>  <SMILES>  (52) 
Cn1cnc2cc(-c3cccc([N-]S(C)(=O)=O)c3)[n-]/c(=N\CC(N)=O)c2c1=O

>  <Energy>  (52) 
54.4644087123296

>  <Genealogy>  (52) 
Cn1cnc2cc(-c3cccc([N-]S(C)(=O)=O)c3)[n-]c(=NCC(N)=O)c2c1=O (protonated)
Cn1cnc2cc(-c3cccc([N-]S(C)(=O)=O)c3)[n-]/c(=N\CC(N)=O)c2c1=O (cis-trans isomerization)
Cn1cnc2cc(-c3cccc([N-]S(C)(=O)=O)c3)[n-]/c(=N\CC(N)=O)c2c1=O (3D coordinates assigned)
Cn1cnc2cc(-c3cccc([N-]S(C)(=O)=O)c3)[n-]/c(=N\CC(N)=O)c2c1=O (optimized conformer: 54.4644087123296 kcal/mol)

>  <smiles>  (52) 
Cn1cnc2cc(-c3cccc(NS(C)(=O)=O)c3)[nH]c(=NCC(N)=O)c2c1=O

>  <score_type>  (52) 
oracle

>  <origin>  (52) 
adg

>  <m_score__min__energy>  (52) 
-11.539999999999999

>  <m_primary>  (52) 
energy

$$$$
52:0
     RDKit          3D

 30 31  0  0  0  0  0  0  0  0999 V2000
   57.5260   28.4750   43.5520 N   0  0  0  0  0  0  0  0  0  0  0  0
   56.5190   29.0000   44.8570 S   0  0  0  0  0  0  0  0  0  0  0  0
   56.0040   27.8160   45.6270 O   0  0  0  0  0  0  0  0  0  0  0  0
   55.3490   29.7570   44.2940 O   0  0  0  0  0  0  0  0  0  0  0  0
   57.4090   30.0530   45.9090 N   0  0  0  0  0  0  0  0  0  0  0  0
   57.8040   31.4000   45.6110 C   0  0  0  0  0  0  0  0  0  0  0  0
   57.7140   31.8450   44.2870 C   0  0  0  0  0  0  0  0  0  0  0  0
   58.1070   33.1410   43.9470 C   0  0  0  0  0  0  0  0  0  0  0  0
   58.5890   34.0080   44.9300 C   0  0  0  0  0  0  0  0  0  0  0  0
   58.6680   33.5870   46.2660 C   0  0  0  0  0  0  0  0  0  0  0  0
   59.2260   34.5020   47.3210 C   0  0  0  0  0  0  0  0  0  0  0  0
   60.6710   34.1720   47.5810 C   0  0  0  0  0  0  0  0  0  0  0  0
   61.5190   33.8180   46.5230 C   0  0  0  0  0  0  0  0  0  0  0  0
   62.8470   33.4770   46.7900 C   0  0  0  0  0  0  0  0  0  0  0  0
   63.3070   33.4770   48.0700 N   0  0  0  0  0  0  0  0  0  0  0  0
   62.5030   33.8050   49.1160 C   0  0  0  0  0  0  0  0  0  0  0  0
   61.1690   34.1540   48.8930 C   0  0  0  0  0  0  0  0  0  0  0  0
   58.2800   32.2790   46.6020 C   0  0  0  0  0  0  0  0  0  0  0  0
   57.7670   29.3240   42.9920 H   0  0  0  0  0  0  0  0  0  0  0  0
   56.9520   27.8610   42.9350 H   0  0  0  0  0  0  0  0  0  0  0  0
   57.3309   31.1688   43.5086 H   0  0  0  0  0  0  0  0  0  0  0  0
   58.0368   33.4797   42.9028 H   0  0  0  0  0  0  0  0  0  0  0  0
   58.9078   35.0245   44.6559 H   0  0  0  0  0  0  0  0  0  0  0  0
   59.1470   35.5440   46.9775 H   0  0  0  0  0  0  0  0  0  0  0  0
   58.6538   34.3698   48.2511 H   0  0  0  0  0  0  0  0  0  0  0  0
   61.1416   33.8087   45.4898 H   0  0  0  0  0  0  0  0  0  0  0  0
   63.5217   33.2081   45.9639 H   0  0  0  0  0  0  0  0  0  0  0  0
   62.9039   33.7955   50.1403 H   0  0  0  0  0  0  0  0  0  0  0  0
   60.5144   34.4125   49.7384 H   0  0  0  0  0  0  0  0  0  0  0  0
   58.3487   31.9398   47.6461 H   0  0  0  0  0  0  0  0  0  0  0  0
  1  2  1  0
  2  3  2  0
  2  4  2  0
  2  5  1  0
  5  6  1  0
  6  7  2  0
  7  8  1  0
  8  9  2  0
  9 10  1  0
 10 11  1  0
 11 12  1  0
 12 13  2  0
 13 14  1  0
 14 15  2  0
 15 16  1  0
 16 17  2  0
 10 18  2  0
 18  6  1  0
 17 12  1  0
  1 19  1  0
  1 20  1  0
  7 21  1  0
  8 22  1  0
  9 23  1  0
 11 24  1  0
 11 25  1  0
 13 26  1  0
 14 27  1  0
 16 28  1  0
 17 29  1  0
 18 30  1  0
M  CHG  1   5  -1
M  END
>  <UniqueID>  (53) 
52

>  <SMILES>  (53) 
NS(=O)(=O)[N-]c1cccc(Cc2ccncc2)c1

>  <Energy>  (53) 
29.767321300159505

>  <Genealogy>  (53) 
NS(=O)(=O)[N-]c1cccc(Cc2ccncc2)c1 (protonated)
NS(=O)(=O)[N-]c1cccc(Cc2ccncc2)c1 (3D coordinates assigned)
NS(=O)(=O)[N-]c1cccc(Cc2ccncc2)c1 (optimized conformer: 29.767321300159505 kcal/mol)

>  <smiles>  (53) 
NS(=O)(=O)Nc1cccc(Cc2ccncc2)c1

>  <score_type>  (53) 
oracle

>  <origin>  (53) 
adg

>  <m_score__min__energy>  (53) 
-9.4700000000000006

>  <m_primary>  (53) 
energy

$$$$
53:0
     RDKit          3D

 65 69  0  0  0  0  0  0  0  0999 V2000
   56.2260   20.9600   49.0330 C   0  0  0  0  0  0  0  0  0  0  0  0
   55.5710   21.6040   47.8820 N   0  0  0  0  0  0  0  0  0  0  0  0
   56.3160   21.9290   46.7770 C   0  0  0  0  0  0  0  0  0  0  0  0
   55.7090   22.5320   45.6570 C   0  0  0  0  0  0  0  0  0  0  0  0
   54.3300   22.7840   45.7150 C   0  0  0  0  0  0  0  0  0  0  0  0
   53.7360   23.3480   44.7580 O   0  0  0  0  0  0  0  0  0  0  0  0
   53.6240   22.4210   46.8120 N   0  0  0  0  0  0  0  0  0  0  0  0
   54.2180   21.8320   47.8810 C   0  0  0  0  0  0  0  0  0  0  0  0
   53.5050   21.5040   48.8670 O   0  0  0  0  0  0  0  0  0  0  0  0
   56.5380   22.9770   44.4600 C   0  0  1  0  0  0  0  0  0  0  0  0
   56.8590   24.4610   44.5360 C   0  0  0  0  0  0  0  0  0  0  0  0
   56.4800   25.1990   45.6690 C   0  0  0  0  0  0  0  0  0  0  0  0
   56.7530   26.5670   45.7520 C   0  0  0  0  0  0  0  0  0  0  0  0
   57.4020   27.2320   44.6980 C   0  0  0  0  0  0  0  0  0  0  0  0
   57.6880   28.6450   44.7870 N   0  0  0  0  0  0  0  0  0  0  0  0
   57.0970   29.5870   43.8240 C   0  0  0  0  0  0  0  0  0  0  0  0
   56.8170   30.9360   44.4960 C   0  0  0  0  0  0  0  0  0  0  0  0
   58.0510   31.5390   45.2240 C   0  0  0  0  0  0  0  0  0  0  0  0
   58.5330   32.7300   44.4990 N   0  0  0  0  0  0  0  0  0  0  0  0
   58.1080   34.1970   45.3350 S   0  0  0  0  0  0  0  0  0  0  0  0
   59.0190   35.3000   44.8760 O   0  0  0  0  0  0  0  0  0  0  0  0
   56.6890   34.5950   45.0320 O   0  0  0  0  0  0  0  0  0  0  0  0
   58.3180   33.9880   47.0690 C   0  0  0  0  0  0  0  0  0  0  0  0
   59.2900   34.6240   47.7310 C   0  0  0  0  0  0  0  0  0  0  0  0
   60.7150   34.2120   47.7070 C   0  0  0  0  0  0  0  0  0  0  0  0
   61.4120   34.1350   48.9260 C   0  0  0  0  0  0  0  0  0  0  0  0
   62.7540   33.7410   48.9530 C   0  0  0  0  0  0  0  0  0  0  0  0
   63.4110   33.4090   47.7670 C   0  0  0  0  0  0  0  0  0  0  0  0
   62.7270   33.4650   46.5510 C   0  0  0  0  0  0  0  0  0  0  0  0
   61.3860   33.8610   46.5170 C   0  0  0  0  0  0  0  0  0  0  0  0
   59.1970   30.5130   45.3860 C   0  0  0  0  0  0  0  0  0  0  0  0
   58.6630   29.1320   45.7750 C   0  0  0  0  0  0  0  0  0  0  0  0
   57.7750   26.4950   43.5600 C   0  0  0  0  0  0  0  0  0  0  0  0
   57.5020   25.1280   43.4770 C   0  0  0  0  0  0  0  0  0  0  0  0
   57.8180   22.1320   44.2720 C   0  0  0  0  0  0  0  0  0  0  0  0
   58.5030   21.8560   45.5740 C   0  0  0  0  0  0  0  0  0  0  0  0
   59.7530   21.7160   45.6160 O   0  0  0  0  0  0  0  0  0  0  0  0
   57.7280   21.6700   46.7560 N   0  0  0  0  0  0  0  0  0  0  0  0
   55.8111   21.3680   49.9665 H   0  0  0  0  0  0  0  0  0  0  0  0
   56.0484   19.8751   48.9961 H   0  0  0  0  0  0  0  0  0  0  0  0
   57.3078   21.1559   48.9961 H   0  0  0  0  0  0  0  0  0  0  0  0
   55.9192   22.8057   43.5668 H   0  0  0  0  0  0  0  0  0  0  0  0
   55.9632   24.6954   46.4992 H   0  0  0  0  0  0  0  0  0  0  0  0
   56.4571   27.1283   46.6506 H   0  0  0  0  0  0  0  0  0  0  0  0
   57.7965   29.7370   42.9884 H   0  0  0  0  0  0  0  0  0  0  0  0
   56.1487   29.1699   43.4542 H   0  0  0  0  0  0  0  0  0  0  0  0
   56.4875   31.6469   43.7240 H   0  0  0  0  0  0  0  0  0  0  0  0
   56.0463   30.7605   45.2610 H   0  0  0  0  0  0  0  0  0  0  0  0
   57.7273   31.8274   46.2349 H   0  0  0  0  0  0  0  0  0  0  0  0
   59.5790   32.7220   44.4610 H   0  0  0  0  0  0  0  0  0  0  0  0
   57.6370   33.3217   47.6188 H   0  0  0  0  0  0  0  0  0  0  0  0
   59.0167   35.5056   48.3294 H   0  0  0  0  0  0  0  0  0  0  0  0
   60.8980   34.3865   49.8654 H   0  0  0  0  0  0  0  0  0  0  0  0
   63.2927   33.6927   49.9109 H   0  0  0  0  0  0  0  0  0  0  0  0
   64.4674   33.1033   47.7903 H   0  0  0  0  0  0  0  0  0  0  0  0
   63.2439   33.1971   45.6177 H   0  0  0  0  0  0  0  0  0  0  0  0
   60.8514   33.8989   45.5564 H   0  0  0  0  0  0  0  0  0  0  0  0
   59.7404   30.4307   44.4331 H   0  0  0  0  0  0  0  0  0  0  0  0
   59.8634   30.8637   46.1878 H   0  0  0  0  0  0  0  0  0  0  0  0
   59.5032   28.4241   45.8301 H   0  0  0  0  0  0  0  0  0  0  0  0
   58.1618   29.2128   46.7508 H   0  0  0  0  0  0  0  0  0  0  0  0
   58.2866   27.0000   42.7274 H   0  0  0  0  0  0  0  0  0  0  0  0
   57.7922   24.5678   42.5759 H   0  0  0  0  0  0  0  0  0  0  0  0
   57.5461   21.1746   43.8036 H   0  0  0  0  0  0  0  0  0  0  0  0
   58.5118   22.7023   43.6369 H   0  0  0  0  0  0  0  0  0  0  0  0
  1  2  1  0
  2  3  1  0
  3  4  2  0
  4  5  1  0
  5  6  2  0
  5  7  1  0
  7  8  1  0
  8  9  2  0
  4 10  1  0
 10 11  1  0
 11 12  2  0
 12 13  1  0
 13 14  2  0
 14 15  1  0
 15 16  1  0
 16 17  1  0
 17 18  1  0
 18 19  1  0
 19 20  1  0
 20 21  2  0
 20 22  2  0
 20 23  1  0
 23 24  2  3
 24 25  1  0
 25 26  2  0
 26 27  1  0
 27 28  2  0
 28 29  1  0
 29 30  2  0
 18 31  1  0
 31 32  1  0
 14 33  1  0
 33 34  2  0
 10 35  1  0
 35 36  1  0
 36 37  2  0
 36 38  1  0
  8  2  1  0
 34 11  1  0
 38  3  1  0
 32 15  1  0
 30 25  1  0
  1 39  1  0
  1 40  1  0
  1 41  1  0
 10 42  1  6
 12 43  1  0
 13 44  1  0
 16 45  1  0
 16 46  1  0
 17 47  1  0
 17 48  1  0
 18 49  1  0
 19 50  1  0
 23 51  1  0
 24 52  1  0
 26 53  1  0
 27 54  1  0
 28 55  1  0
 29 56  1  0
 30 57  1  0
 31 58  1  0
 31 59  1  0
 32 60  1  0
 32 61  1  0
 33 62  1  0
 34 63  1  0
 35 64  1  0
 35 65  1  0
M  CHG  2   7  -1  38  -1
M  END
>  <UniqueID>  (54) 
53

>  <SMILES>  (54) 
Cn1c2c(c(=O)[n-]c1=O)[C@@H](c1ccc(N3CCC(NS(=O)(=O)C=Cc4ccccc4)CC3)cc1)CC(=O)[N-]2

>  <Energy>  (54) 
84.2290430806288

>  <Genealogy>  (54) 
Cn1c2c(c(=O)[n-]c1=O)C(c1ccc(N3CCC(NS(=O)(=O)C=Cc4ccccc4)CC3)cc1)CC(=O)[N-]2 (protonated)
Cn1c2c(c(=O)[n-]c1=O)[C@@H](c1ccc(N3CCC(NS(=O)(=O)C=Cc4ccccc4)CC3)cc1)CC(=O)[N-]2 (chirality)
Cn1c2c(c(=O)[n-]c1=O)[C@@H](c1ccc(N3CCC(NS(=O)(=O)C=Cc4ccccc4)CC3)cc1)CC(=O)[N-]2 (3D coordinates assigned)
Cn1c2c(c(=O)[n-]c1=O)[C@@H](c1ccc(N3CCC(NS(=O)(=O)C=Cc4ccccc4)CC3)cc1)CC(=O)[N-]2 (nonaromatic ring conformer: 84.2290430806288 kcal/mol)

>  <smiles>  (54) 
Cn1c2c(c(=O)[nH]c1=O)C(c1ccc(N3CCC(NS(=O)(=O)C=Cc4ccccc4)CC3)cc1)CC(=O)N2

>  <score_type>  (54) 
oracle

>  <origin>  (54) 
adg

>  <m_score__min__energy>  (54) 
-12.58

>  <m_primary>  (54) 
energy

$$$$
54:0
     RDKit          3D

 36 38  0  0  0  0  0  0  0  0999 V2000
   58.3500   33.1750   48.2150 N   0  0  0  0  0  0  0  0  0  0  0  0
   59.7180   33.2680   49.2690 S   0  0  0  0  0  0  0  0  0  0  0  0
   59.6230   34.5100   50.1110 O   0  0  0  0  0  0  0  0  0  0  0  0
   59.7160   32.0770   50.1870 O   0  0  0  0  0  0  0  0  0  0  0  0
   61.2130   33.2760   48.3160 C   0  0  0  0  0  0  0  0  0  0  0  0
   62.3380   32.6220   48.8430 C   0  0  0  0  0  0  0  0  0  0  0  0
   63.5560   32.6420   48.1610 C   0  0  0  0  0  0  0  0  0  0  0  0
   63.6690   33.3190   46.9470 C   0  0  0  0  0  0  0  0  0  0  0  0
   62.5580   33.9640   46.4030 C   0  0  0  0  0  0  0  0  0  0  0  0
   61.3190   33.9340   47.0640 C   0  0  0  0  0  0  0  0  0  0  0  0
   60.1680   34.5940   46.4140 C   0  0  0  0  0  0  0  0  0  0  0  0
   59.7750   35.7040   46.8600 O   0  0  0  0  0  0  0  0  0  0  0  0
   59.4720   34.0110   45.3010 N   0  0  0  0  0  0  0  0  0  0  0  0
   59.0450   32.7860   45.2150 C   0  0  0  0  0  0  0  0  0  0  0  0
   59.1360   31.8570   46.1940 N   0  0  0  0  0  0  0  0  0  0  0  0
   58.5860   30.6700   45.7970 C   0  0  0  0  0  0  0  0  0  0  0  0
   58.5450   29.6790   46.5730 O   0  0  0  0  0  0  0  0  0  0  0  0
   58.0800   30.6190   44.5320 N   0  0  0  0  0  0  0  0  0  0  0  0
   57.3520   29.5010   43.9220 C   0  0  1  0  0  0  0  0  0  0  0  0
   58.0250   28.1570   44.2510 C   0  0  0  0  0  0  0  0  0  0  0  0
   57.0900   27.4330   45.2380 C   0  0  0  0  0  0  0  0  0  0  0  0
   55.8840   28.1760   45.2470 O   0  0  0  0  0  0  0  0  0  0  0  0
   56.0130   29.3430   44.5290 C   0  0  0  0  0  0  0  0  0  0  0  0
   55.0790   30.1790   44.4110 O   0  0  0  0  0  0  0  0  0  0  0  0
   58.2980   32.1360   43.8790 S   0  0  0  0  0  0  0  0  0  0  0  0
   58.2090   32.1660   47.9820 H   0  0  0  0  0  0  0  0  0  0  0  0
   58.6110   33.6590   47.3280 H   0  0  0  0  0  0  0  0  0  0  0  0
   62.2590   32.0890   49.8020 H   0  0  0  0  0  0  0  0  0  0  0  0
   64.4291   32.1223   48.5824 H   0  0  0  0  0  0  0  0  0  0  0  0
   64.6335   33.3444   46.4187 H   0  0  0  0  0  0  0  0  0  0  0  0
   62.6532   34.5010   45.4477 H   0  0  0  0  0  0  0  0  0  0  0  0
   57.3229   29.7268   42.8458 H   0  0  0  0  0  0  0  0  0  0  0  0
   58.1487   27.5593   43.3359 H   0  0  0  0  0  0  0  0  0  0  0  0
   59.0244   28.3071   44.6853 H   0  0  0  0  0  0  0  0  0  0  0  0
   56.9021   26.4028   44.9013 H   0  0  0  0  0  0  0  0  0  0  0  0
   57.5335   27.3710   46.2427 H   0  0  0  0  0  0  0  0  0  0  0  0
  1  2  1  0
  2  3  2  0
  2  4  2  0
  2  5  1  0
  5  6  2  0
  6  7  1  0
  7  8  2  0
  8  9  1  0
  9 10  2  0
 10 11  1  0
 11 12  2  0
 11 13  1  0
 13 14  2  3
 14 15  1  0
 15 16  1  0
 16 17  2  0
 16 18  1  0
 18 19  1  0
 19 20  1  0
 20 21  1  0
 21 22  1  0
 22 23  1  0
 23 24  2  0
 18 25  1  0
 10  5  1  0
 25 14  1  0
 23 19  1  0
  1 26  1  0
  1 27  1  0
  6 28  1  0
  7 29  1  0
  8 30  1  0
  9 31  1  0
 19 32  1  6
 20 33  1  0
 20 34  1  0
 21 35  1  0
 21 36  1  0
M  CHG  1  15  -1
M  END
>  <UniqueID>  (55) 
54

>  <SMILES>  (55) 
NS(=O)(=O)c1ccccc1C(=O)N=c1[n-]c(=O)n([C@H]2CCOC2=O)s1

>  <Energy>  (55) 
93.95171487450511

>  <Genealogy>  (55) 
NS(=O)(=O)c1ccccc1C(=O)N=c1[n-]c(=O)n(C2CCOC2=O)s1 (protonated)
NS(=O)(=O)c1ccccc1C(=O)N=c1[n-]c(=O)n([C@H]2CCOC2=O)s1 (chirality)
NS(=O)(=O)c1ccccc1C(=O)N=c1[n-]c(=O)n([C@H]2CCOC2=O)s1 (3D coordinates assigned)
NS(=O)(=O)c1ccccc1C(=O)N=c1[n-]c(=O)n([C@H]2CCOC2=O)s1 (nonaromatic ring conformer: 93.95171487450511 kcal/mol)

>  <smiles>  (55) 
NS(=O)(=O)c1ccccc1C(=O)N=c1[nH]c(=O)n(C2CCOC2=O)s1

>  <score_type>  (55) 
oracle

>  <origin>  (55) 
adg

>  <m_score__min__energy>  (55) 
-10.039999999999999

>  <m_primary>  (55) 
energy

$$$$
55:0
     RDKit          3D

 23 24  0  0  0  0  0  0  0  0999 V2000
   56.5590   32.9530   41.1340 H   0  0  0  0  0  0  0  0  0  0  0  0
   57.4080   32.6780   41.6160 O   0  0  0  0  0  0  0  0  0  0  0  0
   57.4030   31.6750   42.5830 C   0  0  0  0  0  0  0  0  0  0  0  0
   58.1450   31.8150   43.7620 C   0  0  0  0  0  0  0  0  0  0  0  0
   58.7405   32.7245   43.9299 H   0  0  0  0  0  0  0  0  0  0  0  0
   58.1320   30.8030   44.7270 C   0  0  0  0  0  0  0  0  0  0  0  0
   58.7244   30.9171   45.6468 H   0  0  0  0  0  0  0  0  0  0  0  0
   57.3640   29.6370   44.5280 C   0  0  0  0  0  0  0  0  0  0  0  0
   57.3240   28.5290   45.5130 C   0  0  0  0  0  0  0  0  0  0  0  0
   56.9460   28.7471   46.5227 H   0  0  0  0  0  0  0  0  0  0  0  0
   57.7210   27.2790   45.2450 C   0  0  0  0  0  0  0  0  0  0  0  0
   58.4653   27.1081   44.4533 H   0  0  0  0  0  0  0  0  0  0  0  0
   57.1820   26.1290   45.9880 C   0  0  0  0  0  0  0  0  0  0  0  0
   57.8840   25.1350   46.4740 O   0  0  0  0  0  0  0  0  0  0  0  0
   57.0290   24.3270   47.0610 C   0  0  0  0  0  0  0  0  0  0  0  0
   57.3730   23.2620   47.6360 O   0  0  0  0  0  0  0  0  0  0  0  0
   55.7470   24.7440   46.9910 N   0  0  0  0  0  0  0  0  0  0  0  0
   55.8630   25.8950   46.3050 C   0  0  0  0  0  0  0  0  0  0  0  0
   54.7890   26.7110   45.9740 O   0  0  0  0  0  0  0  0  0  0  0  0
   56.6360   29.5020   43.3340 C   0  0  0  0  0  0  0  0  0  0  0  0
   56.0487   28.5894   43.1541 H   0  0  0  0  0  0  0  0  0  0  0  0
   56.6510   30.5170   42.3720 C   0  0  0  0  0  0  0  0  0  0  0  0
   56.0685   30.4030   41.4459 H   0  0  0  0  0  0  0  0  0  0  0  0
  1  2  1  0
  2  3  1  0
  3  4  2  0
  4  5  1  0
  4  6  1  0
  6  7  1  0
  6  8  2  0
  8  9  1  0
  9 10  1  0
  9 11  2  0
 11 12  1  0
 11 13  1  0
 13 14  1  0
 14 15  1  0
 15 16  2  0
 15 17  1  0
 17 18  1  0
 18 19  1  0
  8 20  1  0
 20 21  1  0
 20 22  2  0
 22 23  1  0
 22  3  1  0
 18 13  2  0
M  CHG  2  17  -1  19  -1
M  END
>  <UniqueID>  (56) 
55

>  <SMILES>  (56) 
O=c1[n-]c([O-])c(/C=C/c2ccc(O)cc2)o1

>  <Energy>  (56) 
56.23004410498541

>  <Genealogy>  (56) 
O=c1[n-]c([O-])c(C=Cc2ccc(O)cc2)o1 (protonated)
O=c1[n-]c([O-])c(/C=C/c2ccc(O)cc2)o1 (cis-trans isomerization)
O=c1[n-]c([O-])c(/C=C/c2ccc(O)cc2)o1 (3D coordinates assigned)
O=c1[n-]c([O-])c(/C=C/c2ccc(O)cc2)o1 (optimized conformer: 56.23004410498541 kcal/mol)

>  <smiles>  (56) 
O=c1[nH]c(O)c(C=Cc2ccc(O)cc2)o1

>  <score_type>  (56) 
oracle

>  <origin>  (56) 
adg

>  <m_score__min__energy>  (56) 
-12.460000000000001

>  <m_primary>  (56) 
energy

$$$$
56:0
     RDKit          3D

 47 49  0  0  0  0  0  0  0  0999 V2000
   59.3120   31.4360   48.9510 O   0  0  0  0  0  0  0  0  0  0  0  0
   60.5430   31.1800   48.8520 C   0  0  0  0  0  0  0  0  0  0  0  0
   61.4470   31.4610   50.0130 C   0  0  0  0  0  0  0  0  0  0  0  0
   62.0440   32.8630   49.8980 C   0  0  0  0  0  0  0  0  0  0  0  0
   62.5770   33.0760   48.5560 N   0  0  0  0  0  0  0  0  0  0  0  0
   62.0430   33.8360   47.5870 C   0  0  0  0  0  0  0  0  0  0  0  0
   62.8210   33.6910   46.4600 C   0  0  0  0  0  0  0  0  0  0  0  0
   63.8320   32.8330   46.7160 N   0  0  0  0  0  0  0  0  0  0  0  0
   63.6460   32.4730   48.0030 C   0  0  0  0  0  0  0  0  0  0  0  0
   61.0810   30.6290   47.6400 N   0  0  0  0  0  0  0  0  0  0  0  0
   60.2780   30.1190   46.5630 C   0  0  0  0  0  0  0  0  0  0  0  0
   60.4690   28.8210   46.0570 C   0  0  0  0  0  0  0  0  0  0  0  0
   59.6920   28.3600   44.9910 C   0  0  0  0  0  0  0  0  0  0  0  0
   58.7310   29.1910   44.4120 C   0  0  0  0  0  0  0  0  0  0  0  0
   58.5490   30.4970   44.8870 C   0  0  0  0  0  0  0  0  0  0  0  0
   57.3540   31.5590   44.1370 S   0  0  0  0  0  0  0  0  0  0  0  0
   55.9740   31.0930   44.5110 O   0  0  0  0  0  0  0  0  0  0  0  0
   57.4850   31.4740   42.6420 O   0  0  0  0  0  0  0  0  0  0  0  0
   57.5620   33.2190   44.6470 N   0  0  0  0  0  0  0  0  0  0  0  0
   58.9670   33.6400   44.4680 C   0  0  0  0  0  0  0  0  0  0  0  0
   59.2730   34.9140   45.2620 C   0  0  0  0  0  0  0  0  0  0  0  0
   59.0940   34.6800   46.7730 C   0  0  0  0  0  0  0  0  0  0  0  0
   58.1040   33.5420   47.0850 C   0  0  0  0  0  0  0  0  0  0  0  0
   57.0130   33.4450   46.0080 C   0  0  0  0  0  0  0  0  0  0  0  0
   59.3260   30.9560   45.9610 C   0  0  0  0  0  0  0  0  0  0  0  0
   60.8703   31.3884   50.9469 H   0  0  0  0  0  0  0  0  0  0  0  0
   62.2643   30.7248   50.0144 H   0  0  0  0  0  0  0  0  0  0  0  0
   61.2613   33.6088   50.1006 H   0  0  0  0  0  0  0  0  0  0  0  0
   62.8598   32.9665   50.6285 H   0  0  0  0  0  0  0  0  0  0  0  0
   61.1438   34.4631   47.6771 H   0  0  0  0  0  0  0  0  0  0  0  0
   62.6459   34.1964   45.4988 H   0  0  0  0  0  0  0  0  0  0  0  0
   64.2952   31.7659   48.5402 H   0  0  0  0  0  0  0  0  0  0  0  0
   62.1170   30.6740   47.5020 H   0  0  0  0  0  0  0  0  0  0  0  0
   61.2328   28.1662   46.5019 H   0  0  0  0  0  0  0  0  0  0  0  0
   59.8379   27.3396   44.6070 H   0  0  0  0  0  0  0  0  0  0  0  0
   58.1146   28.8194   43.5802 H   0  0  0  0  0  0  0  0  0  0  0  0
   59.6295   32.8336   44.8156 H   0  0  0  0  0  0  0  0  0  0  0  0
   59.1333   33.8483   43.4008 H   0  0  0  0  0  0  0  0  0  0  0  0
   60.3115   35.2191   45.0660 H   0  0  0  0  0  0  0  0  0  0  0  0
   58.5731   35.7009   44.9444 H   0  0  0  0  0  0  0  0  0  0  0  0
   60.0717   34.4250   47.2079 H   0  0  0  0  0  0  0  0  0  0  0  0
   58.6848   35.6046   47.2063 H   0  0  0  0  0  0  0  0  0  0  0  0
   58.6532   32.5898   47.1264 H   0  0  0  0  0  0  0  0  0  0  0  0
   57.6224   33.7539   48.0510 H   0  0  0  0  0  0  0  0  0  0  0  0
   56.3446   32.6085   46.2600 H   0  0  0  0  0  0  0  0  0  0  0  0
   56.4785   34.4063   45.9925 H   0  0  0  0  0  0  0  0  0  0  0  0
   59.1878   31.9813   46.3347 H   0  0  0  0  0  0  0  0  0  0  0  0
  1  2  2  0
  2  3  1  0
  3  4  1  0
  4  5  1  0
  5  6  1  0
  6  7  2  0
  7  8  1  0
  8  9  2  0
  2 10  1  0
 10 11  1  0
 11 12  2  0
 12 13  1  0
 13 14  2  0
 14 15  1  0
 15 16  1  0
 16 17  2  0
 16 18  2  0
 16 19  1  0
 19 20  1  0
 20 21  1  0
 21 22  1  0
 22 23  1  0
 23 24  1  0
 15 25  2  0
  9  5  1  0
 25 11  1  0
 24 19  1  0
  3 26  1  0
  3 27  1  0
  4 28  1  0
  4 29  1  0
  6 30  1  0
  7 31  1  0
  9 32  1  0
 10 33  1  0
 12 34  1  0
 13 35  1  0
 14 36  1  0
 20 37  1  0
 20 38  1  0
 21 39  1  0
 21 40  1  0
 22 41  1  0
 22 42  1  0
 23 43  1  0
 23 44  1  0
 24 45  1  0
 24 46  1  0
 25 47  1  0
M  END
>  <UniqueID>  (57) 
56

>  <SMILES>  (57) 
O=C(CCn1ccnc1)Nc1cccc(S(=O)(=O)N2CCCCC2)c1

>  <Energy>  (57) 
80.09107355846587

>  <Genealogy>  (57) 
O=C(CCn1ccnc1)Nc1cccc(S(=O)(=O)N2CCCCC2)c1 (3D coordinates assigned)
O=C(CCn1ccnc1)Nc1cccc(S(=O)(=O)N2CCCCC2)c1 (nonaromatic ring conformer: 80.09107355846587 kcal/mol)

>  <smiles>  (57) 
O=C(CCn1ccnc1)Nc1cccc(S(=O)(=O)N2CCCCC2)c1

>  <score_type>  (57) 
oracle

>  <origin>  (57) 
adg

>  <m_score__min__energy>  (57) 
-9.3900000000000006

>  <m_primary>  (57) 
energy

$$$$
57:0
     RDKit          3D

 53 55  0  0  0  0  0  0  0  0999 V2000
   63.0350   34.8250   49.8570 O   0  0  0  0  0  0  0  0  0  0  0  0
   62.3310   33.7920   49.7090 C   0  0  0  0  0  0  0  0  0  0  0  0
   63.0070   32.4630   49.4960 C   0  0  0  0  0  0  0  0  0  0  0  0
   62.0650   31.4950   48.9100 N   0  0  0  0  0  0  0  0  0  0  0  0
   61.2700   30.7630   49.7490 C   0  0  0  0  0  0  0  0  0  0  0  0
   60.3450   29.8490   49.2420 C   0  0  0  0  0  0  0  0  0  0  0  0
   60.2170   29.6800   47.8570 C   0  0  0  0  0  0  0  0  0  0  0  0
   59.2380   28.7120   47.2980 C   0  0  0  0  0  0  0  0  0  0  0  0
   58.2940   29.1230   46.3410 C   0  0  0  0  0  0  0  0  0  0  0  0
   57.3730   28.2140   45.8140 C   0  0  0  0  0  0  0  0  0  0  0  0
   57.3700   26.8730   46.2380 C   0  0  0  0  0  0  0  0  0  0  0  0
   56.4030   25.8950   45.6850 C   0  0  0  0  0  0  0  0  0  0  0  0
   55.1820   25.9980   45.9860 O   0  0  0  0  0  0  0  0  0  0  0  0
   56.8290   24.8420   44.8030 N   0  0  0  0  0  0  0  0  0  0  0  0
   55.9170   23.8050   44.3230 C   0  0  0  0  0  0  0  0  0  0  0  0
   56.6950   22.6770   43.6480 C   0  0  0  0  0  0  0  0  0  0  0  0
   55.9470   22.1690   42.5790 O   0  0  0  0  0  0  0  0  0  0  0  0
   58.3210   26.4600   47.1850 C   0  0  0  0  0  0  0  0  0  0  0  0
   59.2430   27.3700   47.7120 C   0  0  0  0  0  0  0  0  0  0  0  0
   61.0280   30.4470   47.0100 C   0  0  0  0  0  0  0  0  0  0  0  0
   61.9440   31.3570   47.5500 C   0  0  0  0  0  0  0  0  0  0  0  0
   62.6500   32.0480   46.7660 O   0  0  0  0  0  0  0  0  0  0  0  0
   60.9030   33.9250   49.7030 N   0  0  0  0  0  0  0  0  0  0  0  0
   60.0520   33.9220   48.5480 C   0  0  0  0  0  0  0  0  0  0  0  0
   58.9080   33.1140   48.5510 C   0  0  0  0  0  0  0  0  0  0  0  0
   58.0730   33.0670   47.4310 C   0  0  0  0  0  0  0  0  0  0  0  0
   58.3890   33.8090   46.2880 C   0  0  0  0  0  0  0  0  0  0  0  0
   57.3150   33.7510   44.8510 S   0  0  0  0  0  0  0  0  0  0  0  0
   57.7620   32.0400   44.4150 C   0  0  0  0  0  0  0  0  0  0  0  0
   58.9150   31.6700   45.0800 F   0  0  0  0  0  0  0  0  0  0  0  0
   56.7330   31.1950   44.7880 F   0  0  0  0  0  0  0  0  0  0  0  0
   59.5430   34.6000   46.2700 C   0  0  0  0  0  0  0  0  0  0  0  0
   60.3790   34.6500   47.3900 C   0  0  0  0  0  0  0  0  0  0  0  0
   63.8605   32.5957   48.8149 H   0  0  0  0  0  0  0  0  0  0  0  0
   63.3537   32.0798   50.4671 H   0  0  0  0  0  0  0  0  0  0  0  0
   61.3610   30.8965   50.8371 H   0  0  0  0  0  0  0  0  0  0  0  0
   59.7174   29.2622   49.9288 H   0  0  0  0  0  0  0  0  0  0  0  0
   58.2802   30.1700   46.0039 H   0  0  0  0  0  0  0  0  0  0  0  0
   56.6444   28.5499   45.0614 H   0  0  0  0  0  0  0  0  0  0  0  0
   57.8170   24.8090   44.4680 H   0  0  0  0  0  0  0  0  0  0  0  0
   55.3534   23.3964   45.1747 H   0  0  0  0  0  0  0  0  0  0  0  0
   55.2281   24.2496   43.5897 H   0  0  0  0  0  0  0  0  0  0  0  0
   57.6533   23.0657   43.2730 H   0  0  0  0  0  0  0  0  0  0  0  0
   56.8846   21.8751   44.3767 H   0  0  0  0  0  0  0  0  0  0  0  0
   56.2690   22.6450   41.7690 H   0  0  0  0  0  0  0  0  0  0  0  0
   58.3410   25.4110   47.5154 H   0  0  0  0  0  0  0  0  0  0  0  0
   59.9783   27.0318   48.4570 H   0  0  0  0  0  0  0  0  0  0  0  0
   60.9446   30.3337   45.9190 H   0  0  0  0  0  0  0  0  0  0  0  0
   58.6653   32.5130   49.4397 H   0  0  0  0  0  0  0  0  0  0  0  0
   57.1657   32.4454   47.4484 H   0  0  0  0  0  0  0  0  0  0  0  0
   57.9317   31.9738   43.3302 H   0  0  0  0  0  0  0  0  0  0  0  0
   59.7934   35.1843   45.3723 H   0  0  0  0  0  0  0  0  0  0  0  0
   61.2941   35.2599   47.3652 H   0  0  0  0  0  0  0  0  0  0  0  0
  1  2  2  0
  2  3  1  0
  3  4  1  0
  4  5  1  0
  5  6  2  0
  6  7  1  0
  7  8  1  0
  8  9  2  0
  9 10  1  0
 10 11  2  0
 11 12  1  0
 12 13  2  0
 12 14  1  0
 14 15  1  0
 15 16  1  0
 16 17  1  0
 11 18  1  0
 18 19  2  0
  7 20  2  0
 20 21  1  0
 21 22  2  0
  2 23  1  0
 23 24  1  0
 24 25  2  0
 25 26  1  0
 26 27  2  0
 27 28  1  0
 28 29  1  0
 29 30  1  0
 29 31  1  0
 27 32  1  0
 32 33  2  0
 21  4  1  0
 33 24  1  0
 19  8  1  0
  3 34  1  0
  3 35  1  0
  5 36  1  0
  6 37  1  0
  9 38  1  0
 10 39  1  0
 14 40  1  0
 15 41  1  0
 15 42  1  0
 16 43  1  0
 16 44  1  0
 17 45  1  0
 18 46  1  0
 19 47  1  0
 20 48  1  0
 25 49  1  0
 26 50  1  0
 29 51  1  0
 32 52  1  0
 33 53  1  0
M  CHG  1  23  -1
M  END
>  <UniqueID>  (58) 
57

>  <SMILES>  (58) 
O=C(Cn1ccc(-c2ccc(C(=O)NCCO)cc2)cc1=O)[N-]c1ccc(SC(F)F)cc1

>  <Energy>  (58) 
61.12098335499312

>  <Genealogy>  (58) 
O=C(Cn1ccc(-c2ccc(C(=O)NCCO)cc2)cc1=O)[N-]c1ccc(SC(F)F)cc1 (protonated)
O=C(Cn1ccc(-c2ccc(C(=O)NCCO)cc2)cc1=O)[N-]c1ccc(SC(F)F)cc1 (3D coordinates assigned)
O=C(Cn1ccc(-c2ccc(C(=O)NCCO)cc2)cc1=O)[N-]c1ccc(SC(F)F)cc1 (optimized conformer: 61.12098335499312 kcal/mol)

>  <smiles>  (58) 
O=C(Cn1ccc(-c2ccc(C(=O)NCCO)cc2)cc1=O)Nc1ccc(SC(F)F)cc1

>  <score_type>  (58) 
oracle

>  <origin>  (58) 
adg

>  <m_score__min__energy>  (58) 
-9.4299999999999997

>  <m_primary>  (58) 
energy

$$$$
58:0
     RDKit          3D

 35 36  0  0  0  0  0  0  0  0999 V2000
   58.3910   22.0260   45.2160 C   0  0  0  0  0  0  0  0  0  0  0  0
   58.2430   22.9710   46.2710 O   0  0  0  0  0  0  0  0  0  0  0  0
   58.0210   24.3440   46.0790 C   0  0  0  0  0  0  0  0  0  0  0  0
   59.1220   25.1650   45.8290 C   0  0  0  0  0  0  0  0  0  0  0  0
   58.9560   26.5370   45.6300 C   0  0  0  0  0  0  0  0  0  0  0  0
   57.6770   27.1220   45.6780 C   0  0  0  0  0  0  0  0  0  0  0  0
   57.5060   28.5870   45.4690 C   0  0  0  0  0  0  0  0  0  0  0  0
   56.3700   29.0440   45.1720 O   0  0  0  0  0  0  0  0  0  0  0  0
   58.6450   29.5620   45.6280 C   0  0  0  0  0  0  0  0  0  0  0  0
   58.3430   30.6380   46.6810 C   0  0  0  0  0  0  0  0  0  0  0  0
   58.5640   31.9920   46.1410 N   0  0  0  0  0  0  0  0  0  0  0  0
   59.6970   32.6740   46.5020 C   0  0  0  0  0  0  0  0  0  0  0  0
   59.9260   33.9710   46.0380 C   0  0  0  0  0  0  0  0  0  0  0  0
   58.9910   34.5730   45.1990 C   0  0  0  0  0  0  0  0  0  0  0  0
   57.8420   33.8770   44.8340 C   0  0  0  0  0  0  0  0  0  0  0  0
   57.6360   32.5800   45.3160 C   0  0  0  0  0  0  0  0  0  0  0  0
   56.5880   31.9610   44.9810 O   0  0  0  0  0  0  0  0  0  0  0  0
   56.5620   26.2930   45.9380 C   0  0  0  0  0  0  0  0  0  0  0  0
   55.2800   26.8390   46.0230 O   0  0  0  0  0  0  0  0  0  0  0  0
   56.7370   24.9160   46.1320 C   0  0  0  0  0  0  0  0  0  0  0  0
   58.5480   21.0236   45.6410 H   0  0  0  0  0  0  0  0  0  0  0  0
   57.4823   22.0232   44.5961 H   0  0  0  0  0  0  0  0  0  0  0  0
   59.2570   22.3012   44.5961 H   0  0  0  0  0  0  0  0  0  0  0  0
   60.1301   24.7268   45.7884 H   0  0  0  0  0  0  0  0  0  0  0  0
   59.8353   27.1680   45.4334 H   0  0  0  0  0  0  0  0  0  0  0  0
   59.5450   29.0088   45.9345 H   0  0  0  0  0  0  0  0  0  0  0  0
   58.7956   30.0667   44.6623 H   0  0  0  0  0  0  0  0  0  0  0  0
   57.2936   30.5452   46.9976 H   0  0  0  0  0  0  0  0  0  0  0  0
   59.0211   30.4892   47.5342 H   0  0  0  0  0  0  0  0  0  0  0  0
   60.4333   32.1947   47.1639 H   0  0  0  0  0  0  0  0  0  0  0  0
   60.8369   34.5127   46.3325 H   0  0  0  0  0  0  0  0  0  0  0  0
   59.1599   35.5941   44.8265 H   0  0  0  0  0  0  0  0  0  0  0  0
   57.0999   34.3444   44.1700 H   0  0  0  0  0  0  0  0  0  0  0  0
   55.1240   27.8400   46.0220 H   0  0  0  0  0  0  0  0  0  0  0  0
   55.8630   24.2773   46.3273 H   0  0  0  0  0  0  0  0  0  0  0  0
  1  2  1  0
  2  3  1  0
  3  4  2  0
  4  5  1  0
  5  6  2  0
  6  7  1  0
  7  8  2  0
  7  9  1  0
  9 10  1  0
 10 11  1  0
 11 12  1  0
 12 13  2  0
 13 14  1  0
 14 15  2  0
 15 16  1  0
 16 17  2  0
  6 18  1  0
 18 19  1  0
 18 20  2  0
 20  3  1  0
 16 11  1  0
  1 21  1  0
  1 22  1  0
  1 23  1  0
  4 24  1  0
  5 25  1  0
  9 26  1  0
  9 27  1  0
 10 28  1  0
 10 29  1  0
 12 30  1  0
 13 31  1  0
 14 32  1  0
 15 33  1  0
 19 34  1  0
 20 35  1  0
M  END
>  <UniqueID>  (59) 
58

>  <SMILES>  (59) 
COc1ccc(C(=O)CCn2ccccc2=O)c(O)c1

>  <Energy>  (59) 
37.13627252255021

>  <Genealogy>  (59) 
COc1ccc(C(=O)CCn2ccccc2=O)c(O)c1 (3D coordinates assigned)
COc1ccc(C(=O)CCn2ccccc2=O)c(O)c1 (optimized conformer: 37.13627252255021 kcal/mol)

>  <smiles>  (59) 
COc1ccc(C(=O)CCn2ccccc2=O)c(O)c1

>  <score_type>  (59) 
oracle

>  <origin>  (59) 
adg

>  <m_score__min__energy>  (59) 
-8.3499999999999996

>  <m_primary>  (59) 
energy

$$$$
59:0
     RDKit          3D

 34 36  0  0  0  0  0  0  0  0999 V2000
   55.9250   29.5240   42.6980 O   0  0  0  0  0  0  0  0  0  0  0  0
   56.2680   29.8030   43.8770 C   0  0  0  0  0  0  0  0  0  0  0  0
   55.8230   28.9580   44.9490 N   0  0  0  0  0  0  0  0  0  0  0  0
   56.6280   27.9360   45.6160 C   0  0  0  0  0  0  0  0  0  0  0  0
   58.1070   28.2410   45.5050 C   0  0  0  0  0  0  0  0  0  0  0  0
   58.7650   28.8440   46.5890 C   0  0  0  0  0  0  0  0  0  0  0  0
   60.1210   29.1580   46.5050 C   0  0  0  0  0  0  0  0  0  0  0  0
   60.8210   28.8520   45.3400 C   0  0  0  0  0  0  0  0  0  0  0  0
   60.1880   28.2410   44.3030 N   0  0  0  0  0  0  0  0  0  0  0  0
   58.8640   27.9200   44.3550 C   0  0  0  0  0  0  0  0  0  0  0  0
   58.1550   27.0920   42.9710 Cl  0  0  0  0  0  0  0  0  0  0  0  0
   57.0670   31.0160   44.1230 C   0  0  0  0  0  0  0  0  0  0  0  0
   57.4980   31.7970   43.0410 C   0  0  0  0  0  0  0  0  0  0  0  0
   58.2190   32.9730   43.2590 C   0  0  0  0  0  0  0  0  0  0  0  0
   58.5300   33.3780   44.5660 C   0  0  0  0  0  0  0  0  0  0  0  0
   59.2450   34.5620   44.7980 C   0  0  0  0  0  0  0  0  0  0  0  0
   59.5500   34.9530   46.1040 C   0  0  0  0  0  0  0  0  0  0  0  0
   59.1450   34.1660   47.1860 C   0  0  0  0  0  0  0  0  0  0  0  0
   58.4340   32.9830   46.9690 C   0  0  0  0  0  0  0  0  0  0  0  0
   58.1200   32.5800   45.6620 C   0  0  0  0  0  0  0  0  0  0  0  0
   57.3950   31.4010   45.4320 C   0  0  0  0  0  0  0  0  0  0  0  0
   56.3489   27.8977   46.6793 H   0  0  0  0  0  0  0  0  0  0  0  0
   56.4354   26.9693   45.1278 H   0  0  0  0  0  0  0  0  0  0  0  0
   58.2075   29.0700   47.5099 H   0  0  0  0  0  0  0  0  0  0  0  0
   60.6327   29.6423   47.3498 H   0  0  0  0  0  0  0  0  0  0  0  0
   61.8884   29.1052   45.2587 H   0  0  0  0  0  0  0  0  0  0  0  0
   60.7390   28.0100   43.4460 H   0  0  0  0  0  0  0  0  0  0  0  0
   57.2665   31.4811   42.0131 H   0  0  0  0  0  0  0  0  0  0  0  0
   58.5440   33.5835   42.4037 H   0  0  0  0  0  0  0  0  0  0  0  0
   59.5664   35.1842   43.9497 H   0  0  0  0  0  0  0  0  0  0  0  0
   60.1104   35.8828   46.2814 H   0  0  0  0  0  0  0  0  0  0  0  0
   59.3870   34.4793   48.2123 H   0  0  0  0  0  0  0  0  0  0  0  0
   58.1198   32.3665   47.8241 H   0  0  0  0  0  0  0  0  0  0  0  0
   57.0824   30.7758   46.2813 H   0  0  0  0  0  0  0  0  0  0  0  0
  1  2  2  0
  2  3  1  0
  3  4  1  0
  4  5  1  0
  5  6  2  0
  6  7  1  0
  7  8  2  0
  8  9  1  0
  9 10  2  0
 10 11  1  0
  2 12  1  0
 12 13  2  0
 13 14  1  0
 14 15  2  0
 15 16  1  0
 16 17  2  0
 17 18  1  0
 18 19  2  0
 19 20  1  0
 20 21  2  0
 10  5  1  0
 21 12  1  0
 20 15  1  0
  4 22  1  0
  4 23  1  0
  6 24  1  0
  7 25  1  0
  8 26  1  0
  9 27  1  0
 13 28  1  0
 14 29  1  0
 16 30  1  0
 17 31  1  0
 18 32  1  0
 19 33  1  0
 21 34  1  0
M  CHG  2   3  -1   9   1
M  END
>  <UniqueID>  (60) 
59

>  <SMILES>  (60) 
O=C([N-]Cc1ccc[nH+]c1Cl)c1ccc2ccccc2c1

>  <Energy>  (60) 
43.32989815873266

>  <Genealogy>  (60) 
O=C([N-]Cc1ccc[nH+]c1Cl)c1ccc2ccccc2c1 (protonated)
O=C([N-]Cc1ccc[nH+]c1Cl)c1ccc2ccccc2c1 (3D coordinates assigned)
O=C([N-]Cc1ccc[nH+]c1Cl)c1ccc2ccccc2c1 (optimized conformer: 43.32989815873266 kcal/mol)

>  <smiles>  (60) 
O=C(NCc1cccnc1Cl)c1ccc2ccccc2c1

>  <score_type>  (60) 
oracle

>  <origin>  (60) 
adg

>  <m_score__min__energy>  (60) 
-8.7400000000000002

>  <m_primary>  (60) 
energy

$$$$
60:0
     RDKit          3D

 32 34  0  0  0  0  0  0  0  0999 V2000
   64.3902   32.6411   48.2285 H   0  0  0  0  0  0  0  0  0  0  0  0
   63.3290   32.5380   47.9580 C   0  0  0  0  0  0  0  0  0  0  0  0
   62.5940   31.4460   48.4260 C   0  0  0  0  0  0  0  0  0  0  0  0
   63.0783   30.6922   49.0642 H   0  0  0  0  0  0  0  0  0  0  0  0
   61.2450   31.3080   48.0860 C   0  0  0  0  0  0  0  0  0  0  0  0
   60.6698   30.4472   48.4578 H   0  0  0  0  0  0  0  0  0  0  0  0
   60.6220   32.2700   47.2680 C   0  0  0  0  0  0  0  0  0  0  0  0
   59.2680   32.1800   46.8980 C   0  0  0  0  0  0  0  0  0  0  0  0
   58.5660   31.2140   47.3100 O   0  0  0  0  0  0  0  0  0  0  0  0
   58.7110   33.1420   46.0930 N   0  0  0  0  0  0  0  0  0  0  0  0
   57.2910   33.0750   45.7120 C   0  0  0  0  0  0  0  0  0  0  0  0
   56.9350   34.0843   45.4581 H   0  0  0  0  0  0  0  0  0  0  0  0
   56.7115   32.6736   46.5564 H   0  0  0  0  0  0  0  0  0  0  0  0
   57.1140   32.1710   44.5210 C   0  0  0  0  0  0  0  0  0  0  0  0
   57.6640   32.4780   43.4300 O   0  0  0  0  0  0  0  0  0  0  0  0
   56.2560   31.0240   44.5640 N   0  0  0  0  0  0  0  0  0  0  0  0
   56.6240   29.7930   44.7700 C   0  0  0  0  0  0  0  0  0  0  0  0
   58.3440   29.3500   44.8220 S   0  0  0  0  0  0  0  0  0  0  0  0
   57.8850   27.9730   45.9300 C   0  0  0  0  0  0  0  0  0  0  0  0
   57.9696   28.2950   46.9784 H   0  0  0  0  0  0  0  0  0  0  0  0
   58.5565   27.1168   45.7691 H   0  0  0  0  0  0  0  0  0  0  0  0
   56.4390   27.5740   45.6260 C   0  0  0  0  0  0  0  0  0  0  0  0
   55.9676   27.1523   46.5260 H   0  0  0  0  0  0  0  0  0  0  0  0
   56.4035   26.8118   44.8337 H   0  0  0  0  0  0  0  0  0  0  0  0
   55.7380   28.7750   45.2150 N   0  0  0  0  0  0  0  0  0  0  0  0
   54.7670   28.9690   45.5460 H   0  0  0  0  0  0  0  0  0  0  0  0
   59.4660   34.2000   45.6690 C   0  0  0  0  0  0  0  0  0  0  0  0
   59.0091   34.9761   45.0374 H   0  0  0  0  0  0  0  0  0  0  0  0
   60.7730   34.3030   46.0190 N   0  0  0  0  0  0  0  0  0  0  0  0
   61.3690   33.3700   46.8010 C   0  0  0  0  0  0  0  0  0  0  0  0
   62.7200   33.5000   47.1470 C   0  0  0  0  0  0  0  0  0  0  0  0
   63.4440   34.5570   46.6990 F   0  0  0  0  0  0  0  0  0  0  0  0
  1  2  1  0
  2  3  2  0
  3  4  1  0
  3  5  1  0
  5  6  1  0
  5  7  2  0
  7  8  1  0
  8  9  2  0
  8 10  1  0
 10 11  1  0
 11 12  1  0
 11 13  1  0
 11 14  1  0
 14 15  2  0
 14 16  1  0
 16 17  2  0
 17 18  1  0
 18 19  1  0
 19 20  1  0
 19 21  1  0
 19 22  1  0
 22 23  1  0
 22 24  1  0
 22 25  1  0
 25 26  1  0
 10 27  1  0
 27 28  1  0
 27 29  2  0
 29 30  1  0
 30 31  2  0
 31 32  1  0
 31  2  1  0
 30  7  1  0
 25 17  1  0
M  END
>  <UniqueID>  (61) 
60

>  <SMILES>  (61) 
O=C(Cn1cnc2c(F)cccc2c1=O)/N=C1\NCCS1

>  <Energy>  (61) 
51.634887430426744

>  <Genealogy>  (61) 
O=C(Cn1cnc2c(F)cccc2c1=O)/N=C1\NCCS1 (cis-trans isomerization)
O=C(Cn1cnc2c(F)cccc2c1=O)/N=C1\NCCS1 (3D coordinates assigned)
O=C(Cn1cnc2c(F)cccc2c1=O)/N=C1\NCCS1 (nonaromatic ring conformer: 51.634887430426744 kcal/mol)

>  <smiles>  (61) 
O=C(Cn1cnc2c(F)cccc2c1=O)N=C1NCCS1

>  <score_type>  (61) 
oracle

>  <origin>  (61) 
adg

>  <m_score__min__energy>  (61) 
-6.9400000000000004

>  <m_primary>  (61) 
energy

$$$$
61:0
     RDKit          3D

 55 58  0  0  0  0  0  0  0  0999 V2000
   57.9174   32.1971   41.4041 H   0  0  0  0  0  0  0  0  0  0  0  0
   57.7740   32.0680   42.4870 C   0  0  0  0  0  0  0  0  0  0  0  0
   57.2260   30.9210   42.9670 N   0  0  0  0  0  0  0  0  0  0  0  0
   57.0300   30.7100   44.2980 C   0  0  0  0  0  0  0  0  0  0  0  0
   56.3900   29.4580   44.7730 C   0  0  0  0  0  0  0  0  0  0  0  0
   55.1350   29.4080   44.8580 O   0  0  0  0  0  0  0  0  0  0  0  0
   57.1380   28.2920   45.1510 N   0  0  0  0  0  0  0  0  0  0  0  0
   57.7990   28.0670   46.4300 C   0  0  0  0  0  0  0  0  0  0  0  0
   57.3287   28.6997   47.1971 H   0  0  0  0  0  0  0  0  0  0  0  0
   57.6987   27.0057   46.7013 H   0  0  0  0  0  0  0  0  0  0  0  0
   59.2930   28.4170   46.3310 C   0  0  0  0  0  0  0  0  0  0  0  0
   59.8373   27.8373   47.0911 H   0  0  0  0  0  0  0  0  0  0  0  0
   59.6153   28.1714   45.3083 H   0  0  0  0  0  0  0  0  0  0  0  0
   59.5930   29.9220   46.5540 C   0  0  0  0  0  0  0  0  0  0  0  0
   59.3437   30.3932   45.5918 H   0  0  0  0  0  0  0  0  0  0  0  0
   58.7890   30.4710   47.7350 C   0  0  0  0  0  0  0  0  0  0  0  0
   58.5693   31.5381   47.5833 H   0  0  0  0  0  0  0  0  0  0  0  0
   57.8267   29.9489   47.8413 H   0  0  0  0  0  0  0  0  0  0  0  0
   59.6620   30.2820   48.9700 C   0  0  0  0  0  0  0  0  0  0  0  0
   59.6072   31.1730   49.6128 H   0  0  0  0  0  0  0  0  0  0  0  0
   59.3251   29.4198   49.5642 H   0  0  0  0  0  0  0  0  0  0  0  0
   61.0920   30.0800   48.4710 C   0  0  0  0  0  0  0  0  0  0  0  0
   61.7523   30.8547   48.8879 H   0  0  0  0  0  0  0  0  0  0  0  0
   61.4865   29.1020   48.7840 H   0  0  0  0  0  0  0  0  0  0  0  0
   61.0440   30.1920   46.9530 C   0  0  0  0  0  0  0  0  0  0  0  0
   61.3461   31.2007   46.6348 H   0  0  0  0  0  0  0  0  0  0  0  0
   61.7317   29.4786   46.4753 H   0  0  0  0  0  0  0  0  0  0  0  0
   57.3980   31.7140   45.2100 C   0  0  0  0  0  0  0  0  0  0  0  0
   57.2279   31.5709   46.2873 H   0  0  0  0  0  0  0  0  0  0  0  0
   57.9840   32.9010   44.7400 C   0  0  0  0  0  0  0  0  0  0  0  0
   58.3620   33.9340   45.6100 O   0  0  0  0  0  0  0  0  0  0  0  0
   59.4390   33.8860   46.5070 C   0  0  0  0  0  0  0  0  0  0  0  0
   60.7170   33.6100   46.0100 C   0  0  0  0  0  0  0  0  0  0  0  0
   60.8612   33.4571   44.9303 H   0  0  0  0  0  0  0  0  0  0  0  0
   61.8120   33.5270   46.8740 C   0  0  0  0  0  0  0  0  0  0  0  0
   62.8111   33.3079   46.4693 H   0  0  0  0  0  0  0  0  0  0  0  0
   61.6470   33.7210   48.2540 C   0  0  0  0  0  0  0  0  0  0  0  0
   62.7840   33.5930   49.1260 N   0  0  0  0  0  0  0  0  0  0  0  0
   62.7730   34.1120   50.0320 H   0  0  0  0  0  0  0  0  0  0  0  0
   63.8840   32.6990   48.8810 C   0  0  0  0  0  0  0  0  0  0  0  0
   63.6900   31.6210   48.2590 O   0  0  0  0  0  0  0  0  0  0  0  0
   65.1900   32.9630   49.4130 N   0  0  0  0  0  0  0  0  0  0  0  0
   65.4560   33.6120   50.5070 C   0  0  0  0  0  0  0  0  0  0  0  0
   64.5280   34.2170   51.2820 N   0  0  0  0  0  0  0  0  0  0  0  0
   65.0990   34.8470   52.3430 C   0  0  0  0  0  0  0  0  0  0  0  0
   64.5083   35.3940   53.0926 H   0  0  0  0  0  0  0  0  0  0  0  0
   66.4860   34.7490   52.4110 C   0  0  0  0  0  0  0  0  0  0  0  0
   67.1268   35.1866   53.1907 H   0  0  0  0  0  0  0  0  0  0  0  0
   67.0120   33.8440   51.0920 S   0  0  0  0  0  0  0  0  0  0  0  0
   60.3570   33.9670   48.7580 C   0  0  0  0  0  0  0  0  0  0  0  0
   60.2082   34.0941   49.8405 H   0  0  0  0  0  0  0  0  0  0  0  0
   59.2630   34.0510   47.8920 C   0  0  0  0  0  0  0  0  0  0  0  0
   58.2590   34.2473   48.2963 H   0  0  0  0  0  0  0  0  0  0  0  0
   58.1550   33.0820   43.3660 C   0  0  0  0  0  0  0  0  0  0  0  0
   58.5868   34.0170   42.9797 H   0  0  0  0  0  0  0  0  0  0  0  0
  1  2  1  0
  2  3  2  0
  3  4  1  0
  4  5  1  0
  5  6  2  0
  5  7  1  0
  7  8  1  0
  8  9  1  0
  8 10  1  0
  8 11  1  0
 11 12  1  0
 11 13  1  0
 11 14  1  0
 14 15  1  0
 14 16  1  0
 16 17  1  0
 16 18  1  0
 16 19  1  0
 19 20  1  0
 19 21  1  0
 19 22  1  0
 22 23  1  0
 22 24  1  0
 22 25  1  0
 25 26  1  0
 25 27  1  0
  4 28  2  0
 28 29  1  0
 28 30  1  0
 30 31  1  0
 31 32  1  0
 32 33  2  0
 33 34  1  0
 33 35  1  0
 35 36  1  0
 35 37  2  0
 37 38  1  0
 38 39  1  0
 38 40  1  0
 40 41  2  0
 40 42  1  0
 42 43  2  0
 43 44  1  0
 44 45  1  0
 45 46  1  0
 45 47  2  0
 47 48  1  0
 47 49  1  0
 37 50  1  0
 50 51  1  0
 50 52  2  0
 52 53  1  0
 30 54  2  0
 54 55  1  0
 54  2  1  0
 25 14  1  0
 52 32  1  0
 49 43  1  0
M  CHG  2   7  -1  44  -1
M  END
>  <UniqueID>  (62) 
61

>  <SMILES>  (62) 
O=C(/N=c1\[n-]ccs1)Nc1ccc(Oc2ccnc(C(=O)[N-]CCC3CCCC3)c2)cc1

>  <Energy>  (62) 
102.94284889138835

>  <Genealogy>  (62) 
O=C(N=c1[n-]ccs1)Nc1ccc(Oc2ccnc(C(=O)[N-]CCC3CCCC3)c2)cc1 (protonated)
O=C(/N=c1\[n-]ccs1)Nc1ccc(Oc2ccnc(C(=O)[N-]CCC3CCCC3)c2)cc1 (cis-trans isomerization)
O=C(/N=c1\[n-]ccs1)Nc1ccc(Oc2ccnc(C(=O)[N-]CCC3CCCC3)c2)cc1 (3D coordinates assigned)
O=C(/N=c1\[n-]ccs1)Nc1ccc(Oc2ccnc(C(=O)[N-]CCC3CCCC3)c2)cc1 (nonaromatic ring conformer: 102.94284889138835 kcal/mol)

>  <smiles>  (62) 
O=C(N=c1[nH]ccs1)Nc1ccc(Oc2ccnc(C(=O)NCCC3CCCC3)c2)cc1

>  <score_type>  (62) 
oracle

>  <origin>  (62) 
adg

>  <m_score__min__energy>  (62) 
-11.31

>  <m_primary>  (62) 
energy

$$$$
62:0
     RDKit          3D

 75 79  0  0  0  0  0  0  0  0999 V2000
   56.6470   22.1310   48.0360 C   0  0  0  0  0  0  0  0  0  0  0  0
   57.4270   22.8560   47.0910 O   0  0  0  0  0  0  0  0  0  0  0  0
   57.1880   22.8760   45.7080 C   0  0  0  0  0  0  0  0  0  0  0  0
   57.5470   21.7960   44.8760 C   0  0  0  0  0  0  0  0  0  0  0  0
   57.2840   21.8420   43.5050 C   0  0  0  0  0  0  0  0  0  0  0  0
   56.6650   22.9630   42.9490 C   0  0  0  0  0  0  0  0  0  0  0  0
   56.3080   24.0430   43.7610 C   0  0  0  0  0  0  0  0  0  0  0  0
   56.5700   24.0070   45.1390 C   0  0  0  0  0  0  0  0  0  0  0  0
   56.1170   25.3780   46.1520 S   0  0  0  0  0  0  0  0  0  0  0  0
   56.0140   24.9190   47.5790 O   0  0  0  0  0  0  0  0  0  0  0  0
   54.7930   25.9470   45.7250 O   0  0  0  0  0  0  0  0  0  0  0  0
   57.3200   26.6190   46.0390 N   0  0  0  0  0  0  0  0  0  0  0  0
   57.0690   27.8860   45.4240 C   0  0  0  0  0  0  0  0  0  0  0  0
   55.8870   28.2820   45.2470 O   0  0  0  0  0  0  0  0  0  0  0  0
   58.2050   28.7340   45.0140 C   0  0  0  0  0  0  0  0  0  0  0  0
   59.6250   28.3070   45.3550 C   0  0  0  0  0  0  0  0  0  0  0  0
   59.8500   28.3200   46.8490 C   0  0  0  0  0  0  0  0  0  0  0  0
   60.1760   27.1430   47.5440 C   0  0  0  0  0  0  0  0  0  0  0  0
   60.5140   27.1970   48.9040 C   0  0  0  0  0  0  0  0  0  0  0  0
   60.5610   28.4280   49.5640 C   0  0  0  0  0  0  0  0  0  0  0  0
   61.0470   28.5060   50.8740 O   0  0  0  0  0  0  0  0  0  0  0  0
   61.7220   29.6470   51.3220 C   0  0  0  0  0  0  0  0  0  0  0  0
   61.0020   30.7220   51.8560 C   0  0  0  0  0  0  0  0  0  0  0  0
   61.6580   31.9210   52.1550 C   0  0  0  0  0  0  0  0  0  0  0  0
   63.0440   32.0370   51.9620 C   0  0  0  0  0  0  0  0  0  0  0  0
   63.8260   33.6020   52.1500 S   0  0  0  0  0  0  0  0  0  0  0  0
   63.2340   34.3020   53.3400 O   0  0  0  0  0  0  0  0  0  0  0  0
   65.3060   33.4480   52.3680 O   0  0  0  0  0  0  0  0  0  0  0  0
   63.5500   34.5580   50.7290 N   0  0  0  0  0  0  0  0  0  0  0  0
   63.0520   34.0550   49.4800 C   0  0  0  0  0  0  0  0  0  0  0  0
   61.6770   34.1460   49.2190 C   0  0  0  0  0  0  0  0  0  0  0  0
   61.1510   33.6330   48.0290 C   0  0  0  0  0  0  0  0  0  0  0  0
   61.9920   33.0270   47.0910 C   0  0  0  0  0  0  0  0  0  0  0  0
   63.3650   32.9490   47.3320 C   0  0  0  0  0  0  0  0  0  0  0  0
   63.8980   33.4660   48.5180 C   0  0  0  0  0  0  0  0  0  0  0  0
   63.7750   30.9270   51.5170 C   0  0  0  0  0  0  0  0  0  0  0  0
   63.1170   29.7420   51.1870 C   0  0  0  0  0  0  0  0  0  0  0  0
   60.1540   29.5910   48.8920 C   0  0  0  0  0  0  0  0  0  0  0  0
   59.7820   29.5340   47.5510 C   0  0  0  0  0  0  0  0  0  0  0  0
   57.9360   29.7930   44.2970 N   0  0  0  0  0  0  0  0  0  0  0  0
   57.1140   30.9200   44.6340 C   0  0  0  0  0  0  0  0  0  0  0  0
   55.8610   30.8560   44.4990 O   0  0  0  0  0  0  0  0  0  0  0  0
   57.7490   32.1910   45.0570 C   0  0  0  0  0  0  0  0  0  0  0  0
   58.4690   32.9730   44.1340 C   0  0  0  0  0  0  0  0  0  0  0  0
   59.0640   34.1750   44.5340 C   0  0  0  0  0  0  0  0  0  0  0  0
   58.9540   34.6030   45.8570 C   0  0  0  0  0  0  0  0  0  0  0  0
   58.2430   33.8360   46.7830 C   0  0  0  0  0  0  0  0  0  0  0  0
   57.6400   32.6370   46.3870 C   0  0  0  0  0  0  0  0  0  0  0  0
   56.9503   22.4129   49.0551 H   0  0  0  0  0  0  0  0  0  0  0  0
   55.5826   22.3678   47.8915 H   0  0  0  0  0  0  0  0  0  0  0  0
   56.8055   21.0521   47.8915 H   0  0  0  0  0  0  0  0  0  0  0  0
   58.0372   20.9117   45.3092 H   0  0  0  0  0  0  0  0  0  0  0  0
   57.5649   20.9942   42.8628 H   0  0  0  0  0  0  0  0  0  0  0  0
   56.4578   22.9963   41.8692 H   0  0  0  0  0  0  0  0  0  0  0  0
   55.8201   24.9240   43.3185 H   0  0  0  0  0  0  0  0  0  0  0  0
   59.7959   27.2892   44.9743 H   0  0  0  0  0  0  0  0  0  0  0  0
   60.3256   29.0154   44.8888 H   0  0  0  0  0  0  0  0  0  0  0  0
   60.1660   26.1761   47.0196 H   0  0  0  0  0  0  0  0  0  0  0  0
   60.7421   26.2705   49.4513 H   0  0  0  0  0  0  0  0  0  0  0  0
   59.9220   30.6243   52.0403 H   0  0  0  0  0  0  0  0  0  0  0  0
   61.0856   32.7765   52.5429 H   0  0  0  0  0  0  0  0  0  0  0  0
   61.0101   34.6224   49.9527 H   0  0  0  0  0  0  0  0  0  0  0  0
   60.0716   33.7066   47.8304 H   0  0  0  0  0  0  0  0  0  0  0  0
   61.5720   32.6116   46.1631 H   0  0  0  0  0  0  0  0  0  0  0  0
   64.0279   32.4810   46.5893 H   0  0  0  0  0  0  0  0  0  0  0  0
   64.9814   33.4127   48.7006 H   0  0  0  0  0  0  0  0  0  0  0  0
   64.8695   30.9904   51.4278 H   0  0  0  0  0  0  0  0  0  0  0  0
   63.6923   28.8793   50.8199 H   0  0  0  0  0  0  0  0  0  0  0  0
   60.1287   30.5519   49.4268 H   0  0  0  0  0  0  0  0  0  0  0  0
   59.4336   30.4436   47.0399 H   0  0  0  0  0  0  0  0  0  0  0  0
   58.5646   32.6369   43.0910 H   0  0  0  0  0  0  0  0  0  0  0  0
   59.6190   34.7828   43.8043 H   0  0  0  0  0  0  0  0  0  0  0  0
   59.4273   35.5449   46.1713 H   0  0  0  0  0  0  0  0  0  0  0  0
   58.1569   34.1753   47.8258 H   0  0  0  0  0  0  0  0  0  0  0  0
   57.0775   32.0397   47.1197 H   0  0  0  0  0  0  0  0  0  0  0  0
  1  2  1  0
  2  3  1  0
  3  4  2  0
  4  5  1  0
  5  6  2  0
  6  7  1  0
  7  8  2  0
  8  9  1  0
  9 10  2  0
  9 11  2  0
  9 12  1  0
 12 13  1  0
 13 14  2  0
 13 15  1  0
 15 16  1  0
 16 17  1  0
 17 18  2  0
 18 19  1  0
 19 20  2  0
 20 21  1  0
 21 22  1  0
 22 23  2  0
 23 24  1  0
 24 25  2  0
 25 26  1  0
 26 27  2  0
 26 28  2  0
 26 29  1  0
 29 30  1  0
 30 31  2  0
 31 32  1  0
 32 33  2  0
 33 34  1  0
 34 35  2  0
 25 36  1  0
 36 37  2  0
 20 38  1  0
 38 39  2  0
 15 40  2  3
 40 41  1  0
 41 42  2  0
 41 43  1  0
 43 44  2  0
 44 45  1  0
 45 46  2  0
 46 47  1  0
 47 48  2  0
  8  3  1  0
 39 17  1  0
 48 43  1  0
 37 22  1  0
 35 30  1  0
  1 49  1  0
  1 50  1  0
  1 51  1  0
  4 52  1  0
  5 53  1  0
  6 54  1  0
  7 55  1  0
 16 56  1  0
 16 57  1  0
 18 58  1  0
 19 59  1  0
 23 60  1  0
 24 61  1  0
 31 62  1  0
 32 63  1  0
 33 64  1  0
 34 65  1  0
 35 66  1  0
 36 67  1  0
 37 68  1  0
 38 69  1  0
 39 70  1  0
 44 71  1  0
 45 72  1  0
 46 73  1  0
 47 74  1  0
 48 75  1  0
M  CHG  2  12  -1  29  -1
M  END
>  <UniqueID>  (63) 
62

>  <SMILES>  (63) 
COc1ccccc1S(=O)(=O)[N-]C(=O)C(Cc1ccc(Oc2ccc(S(=O)(=O)[N-]c3ccccc3)cc2)cc1)=NC(=O)c1ccccc1

>  <Energy>  (63) 
103.44136749642242

>  <Genealogy>  (63) 
COc1ccccc1S(=O)(=O)[N-]C(=O)C(Cc1ccc(Oc2ccc(S(=O)(=O)[N-]c3ccccc3)cc2)cc1)=NC(=O)c1ccccc1 (protonated)
COc1ccccc1S(=O)(=O)[N-]C(=O)C(Cc1ccc(Oc2ccc(S(=O)(=O)[N-]c3ccccc3)cc2)cc1)=NC(=O)c1ccccc1 (3D coordinates assigned)
COc1ccccc1S(=O)(=O)[N-]C(=O)C(Cc1ccc(Oc2ccc(S(=O)(=O)[N-]c3ccccc3)cc2)cc1)=NC(=O)c1ccccc1 (optimized conformer: 103.44136749642242 kcal/mol)

>  <smiles>  (63) 
COc1ccccc1S(=O)(=O)NC(=O)C(Cc1ccc(Oc2ccc(S(=O)(=O)Nc3ccccc3)cc2)cc1)=NC(=O)c1ccccc1

>  <score_type>  (63) 
oracle

>  <origin>  (63) 
adg

>  <m_score__min__energy>  (63) 
-14.68

>  <m_primary>  (63) 
energy

$$$$
63:0
     RDKit          3D

 47 49  0  0  0  0  0  0  0  0999 V2000
   50.6360   33.1200   52.0570 O   0  0  0  0  0  0  0  0  0  0  0  0
   51.2800   32.3360   51.3070 C   0  0  0  0  0  0  0  0  0  0  0  0
   51.0080   32.3290   49.9430 O   0  0  0  0  0  0  0  0  0  0  0  0
   52.3130   31.4370   51.8700 C   0  0  0  0  0  0  0  0  0  0  0  0
   53.2730   30.8430   51.0300 C   0  0  0  0  0  0  0  0  0  0  0  0
   54.2510   29.9970   51.5600 C   0  0  0  0  0  0  0  0  0  0  0  0
   54.2830   29.7230   52.9360 C   0  0  0  0  0  0  0  0  0  0  0  0
   55.3670   28.8480   53.5140 C   0  0  0  0  0  0  0  0  0  0  0  0
   56.7420   29.5070   53.3870 C   0  0  0  0  0  0  0  0  0  0  0  0
   57.0990   29.6580   51.9810 N   0  0  0  0  0  0  0  0  0  0  0  0
   57.3990   30.9200   51.3800 C   0  0  0  0  0  0  0  0  0  0  0  0
   56.7700   31.9510   51.7440 O   0  0  0  0  0  0  0  0  0  0  0  0
   58.4350   31.0130   50.3260 C   0  0  0  0  0  0  0  0  0  0  0  0
   59.2260   29.8970   49.9990 C   0  0  0  0  0  0  0  0  0  0  0  0
   60.1860   29.9810   48.9890 C   0  0  0  0  0  0  0  0  0  0  0  0
   60.3710   31.1770   48.2940 C   0  0  0  0  0  0  0  0  0  0  0  0
   59.6000   32.3020   48.6120 C   0  0  0  0  0  0  0  0  0  0  0  0
   59.8180   33.8110   47.7320 S   0  0  0  0  0  0  0  0  0  0  0  0
   59.8250   34.9640   48.6960 O   0  0  0  0  0  0  0  0  0  0  0  0
   61.1240   33.7580   46.9880 O   0  0  0  0  0  0  0  0  0  0  0  0
   58.5060   34.0100   46.6150 N   0  0  0  0  0  0  0  0  0  0  0  0
   58.1570   33.0840   45.5780 C   0  0  0  0  0  0  0  0  0  0  0  0
   57.8160   31.7730   45.9370 C   0  0  0  0  0  0  0  0  0  0  0  0
   57.4660   30.8390   44.9570 C   0  0  0  0  0  0  0  0  0  0  0  0
   57.4510   31.2090   43.6100 C   0  0  0  0  0  0  0  0  0  0  0  0
   57.1090   30.3030   42.6610 F   0  0  0  0  0  0  0  0  0  0  0  0
   57.7900   32.5140   43.2420 C   0  0  0  0  0  0  0  0  0  0  0  0
   58.1420   33.4520   44.2190 C   0  0  0  0  0  0  0  0  0  0  0  0
   58.6330   32.2170   49.6220 C   0  0  0  0  0  0  0  0  0  0  0  0
   53.3340   30.3220   53.7780 C   0  0  0  0  0  0  0  0  0  0  0  0
   52.3550   31.1690   53.2490 C   0  0  0  0  0  0  0  0  0  0  0  0
   53.2535   31.0459   49.9490 H   0  0  0  0  0  0  0  0  0  0  0  0
   55.0002   29.5432   50.8946 H   0  0  0  0  0  0  0  0  0  0  0  0
   55.1529   28.6683   54.5779 H   0  0  0  0  0  0  0  0  0  0  0  0
   55.3834   27.9012   52.9543 H   0  0  0  0  0  0  0  0  0  0  0  0
   56.7157   30.4979   53.8639 H   0  0  0  0  0  0  0  0  0  0  0  0
   57.4918   28.8724   53.8821 H   0  0  0  0  0  0  0  0  0  0  0  0
   59.0872   28.9511   50.5431 H   0  0  0  0  0  0  0  0  0  0  0  0
   60.7985   29.1018   48.7402 H   0  0  0  0  0  0  0  0  0  0  0  0
   61.1242   31.2362   47.4945 H   0  0  0  0  0  0  0  0  0  0  0  0
   57.8237   31.4768   46.9964 H   0  0  0  0  0  0  0  0  0  0  0  0
   57.2021   29.8113   45.2472 H   0  0  0  0  0  0  0  0  0  0  0  0
   57.7801   32.8047   42.1811 H   0  0  0  0  0  0  0  0  0  0  0  0
   58.4073   34.4782   43.9249 H   0  0  0  0  0  0  0  0  0  0  0  0
   58.0227   33.0986   49.8676 H   0  0  0  0  0  0  0  0  0  0  0  0
   53.3601   30.1244   54.8598 H   0  0  0  0  0  0  0  0  0  0  0  0
   51.6122   31.6290   53.9173 H   0  0  0  0  0  0  0  0  0  0  0  0
  1  2  2  0
  2  3  1  0
  2  4  1  0
  4  5  2  0
  5  6  1  0
  6  7  2  0
  7  8  1  0
  8  9  1  0
  9 10  1  0
 10 11  1  0
 11 12  2  0
 11 13  1  0
 13 14  2  0
 14 15  1  0
 15 16  2  0
 16 17  1  0
 17 18  1  0
 18 19  2  0
 18 20  2  0
 18 21  1  0
 21 22  1  0
 22 23  2  0
 23 24  1  0
 24 25  2  0
 25 26  1  0
 25 27  1  0
 27 28  2  0
 17 29  2  0
  7 30  1  0
 30 31  2  0
 31  4  1  0
 29 13  1  0
 28 22  1  0
  5 32  1  0
  6 33  1  0
  8 34  1  0
  8 35  1  0
  9 36  1  0
  9 37  1  0
 14 38  1  0
 15 39  1  0
 16 40  1  0
 23 41  1  0
 24 42  1  0
 27 43  1  0
 28 44  1  0
 29 45  1  0
 30 46  1  0
 31 47  1  0
M  CHG  3   3  -1  10  -1  21  -1
M  END
>  <UniqueID>  (64) 
63

>  <SMILES>  (64) 
O=C([O-])c1ccc(CC[N-]C(=O)c2cccc(S(=O)(=O)[N-]c3ccc(F)cc3)c2)cc1

>  <Energy>  (64) 
49.98238418092879

>  <Genealogy>  (64) 
O=C([O-])c1ccc(CC[N-]C(=O)c2cccc(S(=O)(=O)[N-]c3ccc(F)cc3)c2)cc1 (protonated)
O=C([O-])c1ccc(CC[N-]C(=O)c2cccc(S(=O)(=O)[N-]c3ccc(F)cc3)c2)cc1 (3D coordinates assigned)
O=C([O-])c1ccc(CC[N-]C(=O)c2cccc(S(=O)(=O)[N-]c3ccc(F)cc3)c2)cc1 (optimized conformer: 49.98238418092879 kcal/mol)

>  <smiles>  (64) 
O=C(O)c1ccc(CCNC(=O)c2cccc(S(=O)(=O)Nc3ccc(F)cc3)c2)cc1

>  <score_type>  (64) 
oracle

>  <origin>  (64) 
adg

>  <m_score__min__energy>  (64) 
-14.59

>  <m_primary>  (64) 
energy

$$$$
64:0
     RDKit          3D

 41 43  0  0  0  0  0  0  0  0999 V2000
   62.1670   31.1510   49.9880 N   0  0  0  0  0  0  0  0  0  0  0  0
   61.3200   30.0170   49.7600 C   0  0  0  0  0  0  0  0  0  0  0  0
   61.5870   28.8060   50.4740 N   0  0  0  0  0  0  0  0  0  0  0  0
   60.2920   30.0750   48.9550 N   0  0  0  0  0  0  0  0  0  0  0  0
   59.7060   28.9460   48.2810 C   0  0  0  0  0  0  0  0  0  0  0  0
   59.6280   27.8330   48.8710 O   0  0  0  0  0  0  0  0  0  0  0  0
   59.1150   29.1000   46.9300 C   0  0  0  0  0  0  0  0  0  0  0  0
   59.2660   28.0920   45.9620 C   0  0  0  0  0  0  0  0  0  0  0  0
   58.7050   28.2440   44.6910 C   0  0  0  0  0  0  0  0  0  0  0  0
   57.9880   29.3990   44.3700 C   0  0  0  0  0  0  0  0  0  0  0  0
   57.8170   30.4120   45.3280 C   0  0  0  0  0  0  0  0  0  0  0  0
   57.0880   31.6150   45.0450 N   0  0  0  0  0  0  0  0  0  0  0  0
   57.7580   33.2140   45.0380 S   0  0  0  0  0  0  0  0  0  0  0  0
   56.6530   34.2170   45.2290 O   0  0  0  0  0  0  0  0  0  0  0  0
   58.4160   33.4670   43.7120 O   0  0  0  0  0  0  0  0  0  0  0  0
   58.9680   33.3520   46.3090 C   0  0  0  0  0  0  0  0  0  0  0  0
   58.5560   33.4190   47.6470 C   0  0  0  0  0  0  0  0  0  0  0  0
   59.4980   33.5500   48.6710 C   0  0  0  0  0  0  0  0  0  0  0  0
   60.8610   33.6220   48.3640 C   0  0  0  0  0  0  0  0  0  0  0  0
   61.7780   33.7610   49.3590 N   0  0  0  0  0  0  0  0  0  0  0  0
   63.1100   33.8400   49.0970 C   0  0  0  0  0  0  0  0  0  0  0  0
   63.9280   33.9710   50.0450 O   0  0  0  0  0  0  0  0  0  0  0  0
   63.5710   33.7800   47.7770 C   0  0  0  0  0  0  0  0  0  0  0  0
   62.6540   33.6350   46.7350 C   0  0  0  0  0  0  0  0  0  0  0  0
   61.2840   33.5550   47.0180 C   0  0  0  0  0  0  0  0  0  0  0  0
   60.3340   33.4170   45.9950 C   0  0  0  0  0  0  0  0  0  0  0  0
   58.3800   30.2550   46.6020 C   0  0  0  0  0  0  0  0  0  0  0  0
   61.8840   32.1220   49.7280 H   0  0  0  0  0  0  0  0  0  0  0  0
   63.0410   31.0410   50.5500 H   0  0  0  0  0  0  0  0  0  0  0  0
   60.9830   27.9620   50.3500 H   0  0  0  0  0  0  0  0  0  0  0  0
   62.4050   28.7430   51.1190 H   0  0  0  0  0  0  0  0  0  0  0  0
   59.8260   31.0010   48.8100 H   0  0  0  0  0  0  0  0  0  0  0  0
   59.8286   27.1788   46.2061 H   0  0  0  0  0  0  0  0  0  0  0  0
   58.8287   27.4501   43.9397 H   0  0  0  0  0  0  0  0  0  0  0  0
   57.5564   29.5155   43.3649 H   0  0  0  0  0  0  0  0  0  0  0  0
   57.4850   33.3682   47.8925 H   0  0  0  0  0  0  0  0  0  0  0  0
   59.1675   33.5965   49.7191 H   0  0  0  0  0  0  0  0  0  0  0  0
   64.6478   33.8466   47.5624 H   0  0  0  0  0  0  0  0  0  0  0  0
   63.0059   33.5836   45.6941 H   0  0  0  0  0  0  0  0  0  0  0  0
   60.6602   33.3597   44.9460 H   0  0  0  0  0  0  0  0  0  0  0  0
   58.2457   31.0449   47.3557 H   0  0  0  0  0  0  0  0  0  0  0  0
  1  2  1  0
  2  3  1  0
  2  4  2  3
  4  5  1  0
  5  6  2  0
  5  7  1  0
  7  8  2  0
  8  9  1  0
  9 10  2  0
 10 11  1  0
 11 12  1  0
 12 13  1  0
 13 14  2  0
 13 15  2  0
 13 16  1  0
 16 17  2  0
 17 18  1  0
 18 19  2  0
 19 20  1  0
 20 21  1  0
 21 22  2  0
 21 23  1  0
 23 24  2  0
 24 25  1  0
 25 26  2  0
 11 27  2  0
 27  7  1  0
 26 16  1  0
 25 19  1  0
  1 28  1  0
  1 29  1  0
  3 30  1  0
  3 31  1  0
  4 32  1  0
  8 33  1  0
  9 34  1  0
 10 35  1  0
 17 36  1  0
 18 37  1  0
 23 38  1  0
 24 39  1  0
 26 40  1  0
 27 41  1  0
M  CHG  3   4   1  12  -1  20  -1
M  END
>  <UniqueID>  (65) 
64

>  <SMILES>  (65) 
NC(N)=[NH+]C(=O)c1cccc([N-]S(=O)(=O)c2ccc3[n-]c(=O)ccc3c2)c1

>  <Energy>  (65) 
55.144913350665085

>  <Genealogy>  (65) 
NC(N)=[NH+]C(=O)c1cccc([N-]S(=O)(=O)c2ccc3[n-]c(=O)ccc3c2)c1 (protonated)
NC(N)=[NH+]C(=O)c1cccc([N-]S(=O)(=O)c2ccc3[n-]c(=O)ccc3c2)c1 (3D coordinates assigned)
NC(N)=[NH+]C(=O)c1cccc([N-]S(=O)(=O)c2ccc3[n-]c(=O)ccc3c2)c1 (optimized conformer: 55.144913350665085 kcal/mol)

>  <smiles>  (65) 
NC(N)=NC(=O)c1cccc(NS(=O)(=O)c2ccc3[nH]c(=O)ccc3c2)c1

>  <score_type>  (65) 
oracle

>  <origin>  (65) 
adg

>  <m_score__min__energy>  (65) 
-10.029999999999999

>  <m_primary>  (65) 
energy

$$$$
65:0
     RDKit          3D

 49 51  0  0  0  0  0  0  0  0999 V2000
   55.8890   25.9420   46.0050 C   0  0  0  0  0  0  0  0  0  0  0  0
   55.6680   27.3130   45.6910 O   0  0  0  0  0  0  0  0  0  0  0  0
   56.6530   28.1810   45.1950 C   0  0  0  0  0  0  0  0  0  0  0  0
   57.9880   27.9360   45.5380 C   0  0  0  0  0  0  0  0  0  0  0  0
   59.0040   28.7720   45.0700 C   0  0  0  0  0  0  0  0  0  0  0  0
   58.6970   29.8540   44.2430 C   0  0  0  0  0  0  0  0  0  0  0  0
   57.3660   30.1110   43.8840 C   0  0  0  0  0  0  0  0  0  0  0  0
   57.0260   31.2660   42.9810 C   0  0  0  0  0  0  0  0  0  0  0  0
   57.9750   32.3720   43.1640 N   0  0  0  0  0  0  0  0  0  0  0  0
   57.4990   33.3700   44.1380 C   0  0  0  0  0  0  0  0  0  0  0  0
   58.3790   33.3930   45.3590 C   0  0  0  0  0  0  0  0  0  0  0  0
   58.5900   32.2170   46.0980 C   0  0  0  0  0  0  0  0  0  0  0  0
   59.3190   32.2530   47.2910 C   0  0  0  0  0  0  0  0  0  0  0  0
   59.8500   33.4630   47.7560 C   0  0  0  0  0  0  0  0  0  0  0  0
   60.5200   33.5230   49.0690 C   0  0  0  0  0  0  0  0  0  0  0  0
   59.7270   33.7130   50.2120 C   0  0  0  0  0  0  0  0  0  0  0  0
   60.3140   33.7960   51.4750 C   0  0  0  0  0  0  0  0  0  0  0  0
   61.6970   33.6860   51.6110 C   0  0  0  0  0  0  0  0  0  0  0  0
   62.4980   33.4910   50.4840 C   0  0  0  0  0  0  0  0  0  0  0  0
   61.9220   33.4060   49.2050 C   0  0  0  0  0  0  0  0  0  0  0  0
   62.9640   33.1100   47.8050 S   0  0  0  0  0  0  0  0  0  0  0  0
   64.6180   33.1110   48.3080 N   0  0  0  0  0  0  0  0  0  0  0  0
   62.6180   31.7850   47.1890 O   0  0  0  0  0  0  0  0  0  0  0  0
   62.7680   34.1890   46.7750 O   0  0  0  0  0  0  0  0  0  0  0  0
   59.6570   34.6360   47.0120 C   0  0  0  0  0  0  0  0  0  0  0  0
   58.9250   34.6010   45.8230 C   0  0  0  0  0  0  0  0  0  0  0  0
   56.3450   29.2790   44.3700 C   0  0  0  0  0  0  0  0  0  0  0  0
   55.9095   25.8147   47.0974 H   0  0  0  0  0  0  0  0  0  0  0  0
   55.0774   25.3331   45.5801 H   0  0  0  0  0  0  0  0  0  0  0  0
   56.8508   25.6189   45.5801 H   0  0  0  0  0  0  0  0  0  0  0  0
   58.2384   27.0790   46.1806 H   0  0  0  0  0  0  0  0  0  0  0  0
   60.0488   28.5775   45.3537 H   0  0  0  0  0  0  0  0  0  0  0  0
   59.5011   30.5066   43.8721 H   0  0  0  0  0  0  0  0  0  0  0  0
   57.0640   30.9284   41.9348 H   0  0  0  0  0  0  0  0  0  0  0  0
   56.0168   31.6237   43.2332 H   0  0  0  0  0  0  0  0  0  0  0  0
   58.8580   31.9590   43.5480 H   0  0  0  0  0  0  0  0  0  0  0  0
   57.5091   34.3646   43.6683 H   0  0  0  0  0  0  0  0  0  0  0  0
   56.4781   33.1003   44.4463 H   0  0  0  0  0  0  0  0  0  0  0  0
   58.1796   31.2627   45.7363 H   0  0  0  0  0  0  0  0  0  0  0  0
   59.4759   31.3284   47.8659 H   0  0  0  0  0  0  0  0  0  0  0  0
   58.6349   33.7970   50.1110 H   0  0  0  0  0  0  0  0  0  0  0  0
   59.6848   33.9484   52.3643 H   0  0  0  0  0  0  0  0  0  0  0  0
   62.1579   33.7529   52.6075 H   0  0  0  0  0  0  0  0  0  0  0  0
   63.5885   33.4032   50.5982 H   0  0  0  0  0  0  0  0  0  0  0  0
   64.8690   32.1210   48.5230 H   0  0  0  0  0  0  0  0  0  0  0  0
   65.1890   33.3890   47.4790 H   0  0  0  0  0  0  0  0  0  0  0  0
   60.0833   35.5863   47.3658 H   0  0  0  0  0  0  0  0  0  0  0  0
   58.7751   35.5256   45.2462 H   0  0  0  0  0  0  0  0  0  0  0  0
   55.2979   29.4865   44.1044 H   0  0  0  0  0  0  0  0  0  0  0  0
  1  2  1  0
  2  3  1  0
  3  4  2  0
  4  5  1  0
  5  6  2  0
  6  7  1  0
  7  8  1  0
  8  9  1  0
  9 10  1  0
 10 11  1  0
 11 12  2  0
 12 13  1  0
 13 14  2  0
 14 15  1  0
 15 16  2  0
 16 17  1  0
 17 18  2  0
 18 19  1  0
 19 20  2  0
 20 21  1  0
 21 22  1  0
 21 23  2  0
 21 24  2  0
 14 25  1  0
 25 26  2  0
  7 27  2  0
 27  3  1  0
 26 11  1  0
 20 15  1  0
  1 28  1  0
  1 29  1  0
  1 30  1  0
  4 31  1  0
  5 32  1  0
  6 33  1  0
  8 34  1  0
  8 35  1  0
  9 36  1  0
 10 37  1  0
 10 38  1  0
 12 39  1  0
 13 40  1  0
 16 41  1  0
 17 42  1  0
 18 43  1  0
 19 44  1  0
 22 45  1  0
 22 46  1  0
 25 47  1  0
 26 48  1  0
 27 49  1  0
M  END
>  <UniqueID>  (66) 
65

>  <SMILES>  (66) 
COc1cccc(CNCc2ccc(-c3ccccc3S(N)(=O)=O)cc2)c1

>  <Energy>  (66) 
53.632070664407834

>  <Genealogy>  (66) 
COc1cccc(CNCc2ccc(-c3ccccc3S(N)(=O)=O)cc2)c1 (3D coordinates assigned)
COc1cccc(CNCc2ccc(-c3ccccc3S(N)(=O)=O)cc2)c1 (optimized conformer: 53.632070664407834 kcal/mol)

>  <smiles>  (66) 
COc1cccc(CNCc2ccc(-c3ccccc3S(N)(=O)=O)cc2)c1

>  <score_type>  (66) 
oracle

>  <origin>  (66) 
adg

>  <m_score__min__energy>  (66) 
-9.4900000000000002

>  <m_primary>  (66) 
energy

$$$$
66:0
     RDKit          3D

 47 50  0  0  0  0  0  0  0  0999 V2000
   57.8190   31.4790   45.8620 C   0  0  0  0  0  0  0  0  0  0  0  0
   58.5380   32.8000   45.9150 C   0  0  0  0  0  0  0  0  0  0  0  0
   58.4660   33.6540   44.8000 C   0  0  0  0  0  0  0  0  0  0  0  0
   59.0310   34.9310   44.8470 C   0  0  0  0  0  0  0  0  0  0  0  0
   59.6550   35.3780   46.0120 C   0  0  0  0  0  0  0  0  0  0  0  0
   59.7210   34.5470   47.1320 C   0  0  0  0  0  0  0  0  0  0  0  0
   59.1770   33.2550   47.0930 C   0  0  0  0  0  0  0  0  0  0  0  0
   59.2630   32.4370   48.2650 N   0  0  0  0  0  0  0  0  0  0  0  0
   59.6110   32.9830   49.5440 C   0  0  0  0  0  0  0  0  0  0  0  0
   59.9700   34.1890   49.6470 O   0  0  0  0  0  0  0  0  0  0  0  0
   59.5710   32.1230   50.7690 C   0  0  0  0  0  0  0  0  0  0  0  0
   60.5970   30.6300   50.5410 S   0  0  0  0  0  0  0  0  0  0  0  0
   61.7180   31.3850   49.3520 C   0  0  0  0  0  0  0  0  0  0  0  0
   62.6090   32.2980   49.8280 N   0  0  0  0  0  0  0  0  0  0  0  0
   63.4740   32.9610   49.0200 C   0  0  0  0  0  0  0  0  0  0  0  0
   63.4660   32.7240   47.6500 C   0  0  0  0  0  0  0  0  0  0  0  0
   62.5730   31.7920   47.1230 C   0  0  0  0  0  0  0  0  0  0  0  0
   61.6870   31.0940   47.9630 C   0  0  0  0  0  0  0  0  0  0  0  0
   60.7580   30.1040   47.3560 C   0  0  0  0  0  0  0  0  0  0  0  0
   59.7540   29.5180   48.0640 N   0  0  0  0  0  0  0  0  0  0  0  0
   59.1660   28.7310   47.1520 C   0  0  0  0  0  0  0  0  0  0  0  0
   58.0720   27.8890   47.3320 C   0  0  0  0  0  0  0  0  0  0  0  0
   57.6160   27.1430   46.2180 C   0  0  0  0  0  0  0  0  0  0  0  0
   56.4580   26.2300   46.3520 C   0  0  0  0  0  0  0  0  0  0  0  0
   55.1460   26.6680   46.0020 N   0  0  0  0  0  0  0  0  0  0  0  0
   56.6210   25.0530   46.7760 O   0  0  0  0  0  0  0  0  0  0  0  0
   58.2830   27.2790   44.9680 C   0  0  0  0  0  0  0  0  0  0  0  0
   59.3850   28.1430   44.8320 C   0  0  0  0  0  0  0  0  0  0  0  0
   59.7940   28.8530   45.9560 C   0  0  0  0  0  0  0  0  0  0  0  0
   60.8080   29.7230   46.0520 N   0  0  0  0  0  0  0  0  0  0  0  0
   57.6264   31.1251   46.8855 H   0  0  0  0  0  0  0  0  0  0  0  0
   56.8637   31.6026   45.3309 H   0  0  0  0  0  0  0  0  0  0  0  0
   58.4414   30.7438   45.3309 H   0  0  0  0  0  0  0  0  0  0  0  0
   57.9610   33.3140   43.8838 H   0  0  0  0  0  0  0  0  0  0  0  0
   58.9837   35.5851   43.9639 H   0  0  0  0  0  0  0  0  0  0  0  0
   60.0951   36.3855   46.0482 H   0  0  0  0  0  0  0  0  0  0  0  0
   60.2034   34.9085   48.0521 H   0  0  0  0  0  0  0  0  0  0  0  0
   58.8360   31.4830   48.2270 H   0  0  0  0  0  0  0  0  0  0  0  0
   59.9534   32.6968   51.6260 H   0  0  0  0  0  0  0  0  0  0  0  0
   58.5311   31.8139   50.9511 H   0  0  0  0  0  0  0  0  0  0  0  0
   64.1816   33.6860   49.4487 H   0  0  0  0  0  0  0  0  0  0  0  0
   64.1574   33.2665   46.9884 H   0  0  0  0  0  0  0  0  0  0  0  0
   62.5613   31.6008   46.0398 H   0  0  0  0  0  0  0  0  0  0  0  0
   57.5765   27.8057   48.3105 H   0  0  0  0  0  0  0  0  0  0  0  0
   54.5130   27.0920   46.7170 H   0  0  0  0  0  0  0  0  0  0  0  0
   57.9331   26.7024   44.0990 H   0  0  0  0  0  0  0  0  0  0  0  0
   59.9056   28.2533   43.8693 H   0  0  0  0  0  0  0  0  0  0  0  0
  1  2  1  0
  2  3  2  0
  3  4  1  0
  4  5  2  0
  5  6  1  0
  6  7  2  0
  7  8  1  0
  8  9  1  0
  9 10  2  0
  9 11  1  0
 11 12  1  0
 12 13  1  0
 13 14  2  0
 14 15  1  0
 15 16  2  0
 16 17  1  0
 17 18  2  0
 18 19  1  0
 19 20  2  0
 20 21  1  0
 21 22  2  0
 22 23  1  0
 23 24  1  0
 24 25  1  0
 24 26  2  0
 23 27  2  0
 27 28  1  0
 28 29  2  0
 29 30  1  0
  7  2  1  0
 18 13  1  0
 30 19  1  0
 29 21  1  0
  1 31  1  0
  1 32  1  0
  1 33  1  0
  3 34  1  0
  4 35  1  0
  5 36  1  0
  6 37  1  0
  8 38  1  0
 11 39  1  0
 11 40  1  0
 15 41  1  0
 16 42  1  0
 17 43  1  0
 22 44  1  0
 25 45  1  0
 27 46  1  0
 28 47  1  0
M  CHG  2  25  -1  30  -1
M  END
>  <UniqueID>  (67) 
66

>  <SMILES>  (67) 
Cc1ccccc1NC(=O)CSc1ncccc1-c1nc2cc(C([NH-])=O)ccc2[n-]1

>  <Energy>  (67) 
91.40317599355662

>  <Genealogy>  (67) 
Cc1ccccc1NC(=O)CSc1ncccc1-c1nc2cc(C([NH-])=O)ccc2[n-]1 (protonated)
Cc1ccccc1NC(=O)CSc1ncccc1-c1nc2cc(C([NH-])=O)ccc2[n-]1 (3D coordinates assigned)
Cc1ccccc1NC(=O)CSc1ncccc1-c1nc2cc(C([NH-])=O)ccc2[n-]1 (optimized conformer: 91.40317599355662 kcal/mol)

>  <smiles>  (67) 
Cc1ccccc1NC(=O)CSc1ncccc1-c1nc2cc(C(N)=O)ccc2[nH]1

>  <score_type>  (67) 
oracle

>  <origin>  (67) 
adg

>  <m_score__min__energy>  (67) 
-13.369999999999999

>  <m_primary>  (67) 
energy

$$$$
67:0
     RDKit          3D

 29 30  0  0  0  0  0  0  0  0999 V2000
   58.2080   32.2090   49.2600 O   0  0  0  0  0  0  0  0  0  0  0  0
   58.8610   33.1280   48.7220 N   0  0  0  0  0  0  0  0  0  0  0  0
   59.6520   33.9290   49.5140 O   0  0  0  0  0  0  0  0  0  0  0  0
   58.7910   33.3440   47.3010 C   0  0  0  0  0  0  0  0  0  0  0  0
   59.3360   34.5080   46.7320 C   0  0  0  0  0  0  0  0  0  0  0  0
   59.2700   34.7190   45.3520 C   0  0  0  0  0  0  0  0  0  0  0  0
   58.6630   33.7720   44.5250 C   0  0  0  0  0  0  0  0  0  0  0  0
   58.1190   32.6050   45.0750 C   0  0  0  0  0  0  0  0  0  0  0  0
   57.3650   31.4000   44.0350 S   0  0  0  0  0  0  0  0  0  0  0  0
   57.3030   31.8880   42.6140 O   0  0  0  0  0  0  0  0  0  0  0  0
   55.9680   31.1460   44.5260 O   0  0  0  0  0  0  0  0  0  0  0  0
   58.2670   29.9180   44.0860 N   0  0  0  0  0  0  0  0  0  0  0  0
   58.0000   28.8460   45.0080 C   0  0  0  0  0  0  0  0  0  0  0  0
   58.9960   28.3300   45.8610 C   0  0  0  0  0  0  0  0  0  0  0  0
   58.6970   27.2920   46.7490 C   0  0  0  0  0  0  0  0  0  0  0  0
   57.4090   26.7550   46.7930 C   0  0  0  0  0  0  0  0  0  0  0  0
   56.4150   27.2540   45.9470 C   0  0  0  0  0  0  0  0  0  0  0  0
   55.1340   26.7170   45.9880 O   0  0  0  0  0  0  0  0  0  0  0  0
   56.7090   28.2920   45.0570 C   0  0  0  0  0  0  0  0  0  0  0  0
   58.1780   32.3960   46.4590 C   0  0  0  0  0  0  0  0  0  0  0  0
   59.8176   35.2577   47.3770 H   0  0  0  0  0  0  0  0  0  0  0  0
   59.6976   35.6340   44.9161 H   0  0  0  0  0  0  0  0  0  0  0  0
   58.6121   33.9430   43.4396 H   0  0  0  0  0  0  0  0  0  0  0  0
   58.9940   29.7830   43.3490 H   0  0  0  0  0  0  0  0  0  0  0  0
   60.0138   28.7459   45.8281 H   0  0  0  0  0  0  0  0  0  0  0  0
   59.4788   26.8975   47.4147 H   0  0  0  0  0  0  0  0  0  0  0  0
   57.1767   25.9393   47.4935 H   0  0  0  0  0  0  0  0  0  0  0  0
   55.9239   28.6779   44.3902 H   0  0  0  0  0  0  0  0  0  0  0  0
   57.7418   31.4836   46.8918 H   0  0  0  0  0  0  0  0  0  0  0  0
  1  2  2  0
  2  3  1  0
  2  4  1  0
  4  5  2  0
  5  6  1  0
  6  7  2  0
  7  8  1  0
  8  9  1  0
  9 10  2  0
  9 11  2  0
  9 12  1  0
 12 13  1  0
 13 14  2  0
 14 15  1  0
 15 16  2  0
 16 17  1  0
 17 18  1  0
 17 19  2  0
  8 20  2  0
 20  4  1  0
 19 13  1  0
  5 21  1  0
  6 22  1  0
  7 23  1  0
 12 24  1  0
 14 25  1  0
 15 26  1  0
 16 27  1  0
 19 28  1  0
 20 29  1  0
M  CHG  3   2   1   3  -1  18  -1
M  END
>  <UniqueID>  (68) 
67

>  <SMILES>  (68) 
O=[N+]([O-])c1cccc(S(=O)(=O)Nc2cccc([O-])c2)c1

>  <Energy>  (68) 
33.608357070633566

>  <Genealogy>  (68) 
O=[N+]([O-])c1cccc(S(=O)(=O)Nc2cccc([O-])c2)c1 (protonated)
O=[N+]([O-])c1cccc(S(=O)(=O)Nc2cccc([O-])c2)c1 (3D coordinates assigned)
O=[N+]([O-])c1cccc(S(=O)(=O)Nc2cccc([O-])c2)c1 (optimized conformer: 33.608357070633566 kcal/mol)

>  <smiles>  (68) 
O=[N+]([O-])c1cccc(S(=O)(=O)Nc2cccc(O)c2)c1

>  <score_type>  (68) 
oracle

>  <origin>  (68) 
adg

>  <m_score__min__energy>  (68) 
-11.84

>  <m_primary>  (68) 
energy

$$$$
68:0
     RDKit          3D

 32 33  0  0  0  0  0  0  0  0999 V2000
   55.1540   30.4050   44.5090 N   0  0  0  0  0  0  0  0  0  0  0  0
   56.7120   30.1570   43.8050 S   0  0  0  0  0  0  0  0  0  0  0  0
   57.5250   31.4140   43.9300 O   0  0  0  0  0  0  0  0  0  0  0  0
   56.5530   29.8270   42.3470 O   0  0  0  0  0  0  0  0  0  0  0  0
   57.5270   28.8340   44.6320 C   0  0  0  0  0  0  0  0  0  0  0  0
   57.7960   28.9240   46.0030 C   0  0  0  0  0  0  0  0  0  0  0  0
   58.4120   27.8610   46.6710 C   0  0  0  0  0  0  0  0  0  0  0  0
   58.7670   26.6970   45.9720 C   0  0  0  0  0  0  0  0  0  0  0  0
   59.3110   25.5110   46.7200 C   0  0  0  0  0  0  0  0  0  0  0  0
   58.5280   24.3310   46.3770 N   0  0  0  0  0  0  0  0  0  0  0  0
   57.1020   24.3570   46.2670 C   0  0  0  0  0  0  0  0  0  0  0  0
   56.3910   24.6970   47.2500 O   0  0  0  0  0  0  0  0  0  0  0  0
   56.4530   23.8560   45.0190 C   0  0  0  0  0  0  0  0  0  0  0  0
   54.9670   23.8710   45.2060 C   0  0  0  0  0  0  0  0  0  0  0  0
   54.1560   22.8500   44.8760 N   0  0  0  0  0  0  0  0  0  0  0  0
   52.9200   23.3540   45.0890 C   0  0  0  0  0  0  0  0  0  0  0  0
   51.8740   22.6830   44.8950 O   0  0  0  0  0  0  0  0  0  0  0  0
   52.8940   24.6350   45.5160 N   0  0  0  0  0  0  0  0  0  0  0  0
   54.1990   24.9490   45.5760 C   0  0  0  0  0  0  0  0  0  0  0  0
   54.6800   26.2010   45.9430 O   0  0  0  0  0  0  0  0  0  0  0  0
   58.4900   26.6070   44.5980 C   0  0  0  0  0  0  0  0  0  0  0  0
   57.8740   27.6720   43.9330 C   0  0  0  0  0  0  0  0  0  0  0  0
   54.8210   29.4740   44.8490 H   0  0  0  0  0  0  0  0  0  0  0  0
   57.5218   29.8341   46.5567 H   0  0  0  0  0  0  0  0  0  0  0  0
   58.6191   27.9375   47.7486 H   0  0  0  0  0  0  0  0  0  0  0  0
   60.3624   25.3496   46.4400 H   0  0  0  0  0  0  0  0  0  0  0  0
   59.2487   25.6953   47.8027 H   0  0  0  0  0  0  0  0  0  0  0  0
   56.7256   24.5059   44.1744 H   0  0  0  0  0  0  0  0  0  0  0  0
   56.7920   22.8310   44.8079 H   0  0  0  0  0  0  0  0  0  0  0  0
   55.1330   26.3370   46.8390 H   0  0  0  0  0  0  0  0  0  0  0  0
   58.7584   25.6959   44.0432 H   0  0  0  0  0  0  0  0  0  0  0  0
   57.6614   27.5962   42.8564 H   0  0  0  0  0  0  0  0  0  0  0  0
  1  2  1  0
  2  3  2  0
  2  4  2  0
  2  5  1  0
  5  6  2  0
  6  7  1  0
  7  8  2  0
  8  9  1  0
  9 10  1  0
 10 11  1  0
 11 12  2  0
 11 13  1  0
 13 14  1  0
 14 15  1  0
 15 16  1  0
 16 17  2  0
 16 18  1  0
 18 19  1  0
 19 20  1  0
  8 21  1  0
 21 22  2  0
 22  5  1  0
 19 14  2  0
  1 23  1  0
  6 24  1  0
  7 25  1  0
  9 26  1  0
  9 27  1  0
 13 28  1  0
 13 29  1  0
 20 30  1  0
 21 31  1  0
 22 32  1  0
M  CHG  4   1  -1  10  -1  15  -1  18  -1
M  END
>  <UniqueID>  (69) 
68

>  <SMILES>  (69) 
[NH-]S(=O)(=O)c1ccc(C[N-]C(=O)Cc2[n-]c(=O)[n-]c2O)cc1

>  <Energy>  (69) 
54.17385066661836

>  <Genealogy>  (69) 
[NH-]S(=O)(=O)c1ccc(C[N-]C(=O)Cc2[n-]c(=O)[n-]c2O)cc1 (protonated)
[NH-]S(=O)(=O)c1ccc(C[N-]C(=O)Cc2[n-]c(=O)[n-]c2O)cc1 (3D coordinates assigned)
[NH-]S(=O)(=O)c1ccc(C[N-]C(=O)Cc2[n-]c(=O)[n-]c2O)cc1 (optimized conformer: 54.17385066661836 kcal/mol)

>  <smiles>  (69) 
NS(=O)(=O)c1ccc(CNC(=O)Cc2[nH]c(=O)[nH]c2O)cc1

>  <score_type>  (69) 
oracle

>  <origin>  (69) 
adg

>  <m_score__min__energy>  (69) 
-14.890000000000001

>  <m_primary>  (69) 
energy

$$$$
69:0
     RDKit          3D

 31 33  0  0  0  0  0  0  0  0999 V2000
   56.2440   25.3200   46.3640 C   0  0  0  0  0  0  0  0  0  0  0  0
   55.8290   26.7140   46.3110 N   0  0  0  0  0  0  0  0  0  0  0  0
   56.5500   27.7390   45.6200 C   0  0  0  0  0  0  0  0  0  0  0  0
   57.8080   27.7280   45.6650 O   0  0  0  0  0  0  0  0  0  0  0  0
   55.8580   28.7440   44.8560 N   0  0  0  0  0  0  0  0  0  0  0  0
   56.4600   29.9590   44.3840 C   0  0  0  0  0  0  0  0  0  0  0  0
   56.9170   30.1510   43.0780 C   0  0  0  0  0  0  0  0  0  0  0  0
   57.6080   31.6810   42.9980 S   0  0  0  0  0  0  0  0  0  0  0  0
   57.2910   32.0340   44.6100 C   0  0  0  0  0  0  0  0  0  0  0  0
   57.7220   33.2800   45.3110 C   0  0  0  0  0  0  0  0  0  0  0  0
   59.0560   33.0660   45.9490 C   0  0  0  0  0  0  0  0  0  0  0  0
   60.1040   33.9090   45.7550 N   0  0  0  0  0  0  0  0  0  0  0  0
   61.0500   33.3800   46.5440 C   0  0  0  0  0  0  0  0  0  0  0  0
   62.3500   33.8390   46.7420 C   0  0  0  0  0  0  0  0  0  0  0  0
   63.1690   33.1170   47.6310 C   0  0  0  0  0  0  0  0  0  0  0  0
   64.4430   33.5270   47.8560 F   0  0  0  0  0  0  0  0  0  0  0  0
   62.6700   31.9710   48.2930 C   0  0  0  0  0  0  0  0  0  0  0  0
   63.4650   31.2830   49.1490 F   0  0  0  0  0  0  0  0  0  0  0  0
   61.3480   31.5390   48.0680 C   0  0  0  0  0  0  0  0  0  0  0  0
   60.5690   32.2770   47.1800 C   0  0  0  0  0  0  0  0  0  0  0  0
   59.2960   32.0540   46.8250 N   0  0  0  0  0  0  0  0  0  0  0  0
   56.6880   30.9990   45.2320 N   0  0  0  0  0  0  0  0  0  0  0  0
   56.3378   25.0050   47.4138 H   0  0  0  0  0  0  0  0  0  0  0  0
   55.4931   24.6944   45.8591 H   0  0  0  0  0  0  0  0  0  0  0  0
   57.2147   25.2070   45.8591 H   0  0  0  0  0  0  0  0  0  0  0  0
   54.8730   28.5600   44.5640 H   0  0  0  0  0  0  0  0  0  0  0  0
   56.8387   29.4303   42.2506 H   0  0  0  0  0  0  0  0  0  0  0  0
   57.7927   34.1023   44.5838 H   0  0  0  0  0  0  0  0  0  0  0  0
   56.9848   33.5338   46.0869 H   0  0  0  0  0  0  0  0  0  0  0  0
   62.7235   34.7337   46.2224 H   0  0  0  0  0  0  0  0  0  0  0  0
   60.9452   30.6502   48.5757 H   0  0  0  0  0  0  0  0  0  0  0  0
  1  2  1  0
  2  3  1  0
  3  4  2  0
  3  5  1  0
  5  6  1  0
  6  7  2  0
  7  8  1  0
  8  9  1  0
  9 10  1  0
 10 11  1  0
 11 12  2  0
 12 13  1  0
 13 14  2  0
 14 15  1  0
 15 16  1  0
 15 17  2  0
 17 18  1  0
 17 19  1  0
 19 20  2  0
 20 21  1  0
  9 22  2  0
 22  6  1  0
 21 11  1  0
 20 13  1  0
  1 23  1  0
  1 24  1  0
  1 25  1  0
  5 26  1  0
  7 27  1  0
 10 28  1  0
 10 29  1  0
 14 30  1  0
 19 31  1  0
M  CHG  2   2  -1  21  -1
M  END
>  <UniqueID>  (70) 
69

>  <SMILES>  (70) 
C[N-]C(=O)Nc1csc(Cc2nc3cc(F)c(F)cc3[n-]2)n1

>  <Energy>  (70) 
94.61179370637697

>  <Genealogy>  (70) 
C[N-]C(=O)Nc1csc(Cc2nc3cc(F)c(F)cc3[n-]2)n1 (protonated)
C[N-]C(=O)Nc1csc(Cc2nc3cc(F)c(F)cc3[n-]2)n1 (3D coordinates assigned)
C[N-]C(=O)Nc1csc(Cc2nc3cc(F)c(F)cc3[n-]2)n1 (optimized conformer: 94.61179370637697 kcal/mol)

>  <smiles>  (70) 
CNC(=O)Nc1csc(Cc2nc3cc(F)c(F)cc3[nH]2)n1

>  <score_type>  (70) 
oracle

>  <origin>  (70) 
adg

>  <m_score__min__energy>  (70) 
-10.119999999999999

>  <m_primary>  (70) 
energy

$$$$
70:0
     RDKit          3D

 44 46  0  0  0  0  0  0  0  0999 V2000
   58.2238   26.4461   43.6739 H   0  0  0  0  0  0  0  0  0  0  0  0
   57.7800   26.7840   44.6220 C   0  0  0  0  0  0  0  0  0  0  0  0
   57.4260   25.8500   45.5190 C   0  0  0  0  0  0  0  0  0  0  0  0
   58.4310   24.4220   45.9690 S   0  0  0  0  0  0  0  0  0  0  0  0
   57.0440   23.8460   46.9520 C   0  0  0  0  0  0  0  0  0  0  0  0
   57.0880   22.7660   47.5970 O   0  0  0  0  0  0  0  0  0  0  0  0
   55.8880   24.6710   46.9670 N   0  0  0  0  0  0  0  0  0  0  0  0
   56.1090   25.8060   46.1500 C   0  0  0  0  0  0  0  0  0  0  0  0
   55.2260   26.6910   45.9920 O   0  0  0  0  0  0  0  0  0  0  0  0
   57.6110   28.2370   44.8280 C   0  0  0  0  0  0  0  0  0  0  0  0
   58.1480   28.8300   45.9800 C   0  0  0  0  0  0  0  0  0  0  0  0
   58.6640   28.2068   46.7252 H   0  0  0  0  0  0  0  0  0  0  0  0
   58.0320   30.2080   46.1880 C   0  0  0  0  0  0  0  0  0  0  0  0
   58.4458   30.6608   47.1011 H   0  0  0  0  0  0  0  0  0  0  0  0
   57.3880   31.0180   45.2340 C   0  0  0  0  0  0  0  0  0  0  0  0
   57.2340   32.4060   45.3970 O   0  0  0  0  0  0  0  0  0  0  0  0
   57.9400   33.4050   44.6620 C   0  0  0  0  0  0  0  0  0  0  0  0
   57.3003   34.2931   44.5523 H   0  0  0  0  0  0  0  0  0  0  0  0
   58.2010   33.0003   43.6730 H   0  0  0  0  0  0  0  0  0  0  0  0
   59.2020   33.7910   45.3760 C   0  0  0  0  0  0  0  0  0  0  0  0
   59.7010   34.9300   45.1710 O   0  0  0  0  0  0  0  0  0  0  0  0
   59.8290   32.8750   46.2850 N   0  0  0  0  0  0  0  0  0  0  0  0
   59.3210   32.0010   46.5460 H   0  0  0  0  0  0  0  0  0  0  0  0
   60.9660   33.2490   47.0760 C   0  0  0  0  0  0  0  0  0  0  0  0
   62.1840   33.4760   46.4240 C   0  0  0  0  0  0  0  0  0  0  0  0
   62.2409   33.3906   45.3288 H   0  0  0  0  0  0  0  0  0  0  0  0
   63.3240   33.8090   47.1510 C   0  0  0  0  0  0  0  0  0  0  0  0
   64.2752   33.9880   46.6283 H   0  0  0  0  0  0  0  0  0  0  0  0
   63.2630   33.9160   48.5380 C   0  0  0  0  0  0  0  0  0  0  0  0
   64.1709   34.1689   49.1052 H   0  0  0  0  0  0  0  0  0  0  0  0
   62.0530   33.7040   49.2200 C   0  0  0  0  0  0  0  0  0  0  0  0
   62.0320   33.8430   50.7200 C   0  0  0  0  0  0  0  0  0  0  0  0
   62.1811   32.8558   51.1818 H   0  0  0  0  0  0  0  0  0  0  0  0
   62.8378   34.5215   51.0367 H   0  0  0  0  0  0  0  0  0  0  0  0
   61.0617   34.2532   51.0367 H   0  0  0  0  0  0  0  0  0  0  0  0
   60.8770   33.4090   48.4830 C   0  0  0  0  0  0  0  0  0  0  0  0
   59.5490   33.2570   49.1900 C   0  0  0  0  0  0  0  0  0  0  0  0
   59.7087   33.2753   50.2782 H   0  0  0  0  0  0  0  0  0  0  0  0
   58.8840   34.0849   48.9031 H   0  0  0  0  0  0  0  0  0  0  0  0
   59.0882   32.3003   48.9031 H   0  0  0  0  0  0  0  0  0  0  0  0
   56.8840   30.4280   44.0690 C   0  0  0  0  0  0  0  0  0  0  0  0
   56.3919   31.0541   43.3102 H   0  0  0  0  0  0  0  0  0  0  0  0
   57.0000   29.0520   43.8610 C   0  0  0  0  0  0  0  0  0  0  0  0
   56.6108   28.6040   42.9348 H   0  0  0  0  0  0  0  0  0  0  0  0
  1  2  1  0
  2  3  2  0
  3  4  1  0
  4  5  1  0
  5  6  2  0
  5  7  1  0
  7  8  1  0
  8  9  2  0
  2 10  1  0
 10 11  2  0
 11 12  1  0
 11 13  1  0
 13 14  1  0
 13 15  2  0
 15 16  1  0
 16 17  1  0
 17 18  1  0
 17 19  1  0
 17 20  1  0
 20 21  2  0
 20 22  1  0
 22 23  1  0
 22 24  1  0
 24 25  2  0
 25 26  1  0
 25 27  1  0
 27 28  1  0
 27 29  2  0
 29 30  1  0
 29 31  1  0
 31 32  1  0
 32 33  1  0
 32 34  1  0
 32 35  1  0
 31 36  2  0
 36 37  1  0
 37 38  1  0
 37 39  1  0
 37 40  1  0
 15 41  1  0
 41 42  1  0
 41 43  2  0
 43 44  1  0
  8  3  1  0
 43 10  1  0
 36 24  1  0
M  CHG  1   7  -1
M  END
>  <UniqueID>  (71) 
70

>  <SMILES>  (71) 
Cc1cccc(NC(=O)COc2ccc(/C=C3\SC(=O)[N-]C3=O)cc2)c1C

>  <Energy>  (71) 
76.72956685901288

>  <Genealogy>  (71) 
Cc1cccc(NC(=O)COc2ccc(C=C3SC(=O)[N-]C3=O)cc2)c1C (protonated)
Cc1cccc(NC(=O)COc2ccc(/C=C3\SC(=O)[N-]C3=O)cc2)c1C (cis-trans isomerization)
Cc1cccc(NC(=O)COc2ccc(/C=C3\SC(=O)[N-]C3=O)cc2)c1C (3D coordinates assigned)
Cc1cccc(NC(=O)COc2ccc(/C=C3\SC(=O)[N-]C3=O)cc2)c1C (nonaromatic ring conformer: 76.72956685901288 kcal/mol)

>  <smiles>  (71) 
Cc1cccc(NC(=O)COc2ccc(C=C3SC(=O)NC3=O)cc2)c1C

>  <score_type>  (71) 
oracle

>  <origin>  (71) 
adg

>  <m_score__min__energy>  (71) 
-11.07

>  <m_primary>  (71) 
energy

$$$$
71:0
     RDKit          3D

 56 59  0  0  0  0  0  0  0  0999 V2000
   57.8320   25.4250   47.5090 O   0  0  0  0  0  0  0  0  0  0  0  0
   56.9450   25.6090   46.6340 C   0  0  0  0  0  0  0  0  0  0  0  0
   55.6590   25.0020   46.8180 N   0  0  0  0  0  0  0  0  0  0  0  0
   54.9850   24.1310   45.8570 C   0  0  0  0  0  0  0  0  0  0  0  0
   55.9810   23.2210   45.1700 C   0  0  0  0  0  0  0  0  0  0  0  0
   55.8160   23.0040   43.7890 C   0  0  0  0  0  0  0  0  0  0  0  0
   56.6840   22.1670   43.0870 C   0  0  0  0  0  0  0  0  0  0  0  0
   57.7280   21.5280   43.7510 C   0  0  0  0  0  0  0  0  0  0  0  0
   57.9100   21.7290   45.1190 C   0  0  0  0  0  0  0  0  0  0  0  0
   57.0510   22.5660   45.8430 C   0  0  0  0  0  0  0  0  0  0  0  0
   57.2970   22.7020   47.2110 O   0  0  0  0  0  0  0  0  0  0  0  0
   57.2560   26.4540   45.4660 C   0  0  0  0  0  0  0  0  0  0  0  0
   57.8400   25.9010   44.3180 C   0  0  0  0  0  0  0  0  0  0  0  0
   58.1440   26.7140   43.2220 C   0  0  0  0  0  0  0  0  0  0  0  0
   57.8790   28.0850   43.2700 C   0  0  0  0  0  0  0  0  0  0  0  0
   57.3160   28.6520   44.4210 C   0  0  0  0  0  0  0  0  0  0  0  0
   56.9990   30.3830   44.5040 S   0  0  0  0  0  0  0  0  0  0  0  0
   55.5160   30.6320   44.5370 O   0  0  0  0  0  0  0  0  0  0  0  0
   57.5820   31.0350   43.2820 O   0  0  0  0  0  0  0  0  0  0  0  0
   57.7350   31.0520   45.9390 N   0  0  0  0  0  0  0  0  0  0  0  0
   57.6080   32.5280   45.9360 C   0  0  0  0  0  0  0  0  0  0  0  0
   58.6430   33.2200   46.8440 C   0  0  0  0  0  0  0  0  0  0  0  0
   59.1430   32.2840   47.8570 N   0  0  0  0  0  0  0  0  0  0  0  0
   59.0980   32.6140   49.2580 C   0  0  0  0  0  0  0  0  0  0  0  0
   58.1420   32.0160   50.0980 C   0  0  0  0  0  0  0  0  0  0  0  0
   58.1030   32.3300   51.4590 C   0  0  0  0  0  0  0  0  0  0  0  0
   59.0210   33.2370   51.9950 C   0  0  0  0  0  0  0  0  0  0  0  0
   59.9830   33.8270   51.1710 C   0  0  0  0  0  0  0  0  0  0  0  0
   60.0260   33.5160   49.8080 C   0  0  0  0  0  0  0  0  0  0  0  0
   59.6820   30.9900   47.4190 C   0  0  0  0  0  0  0  0  0  0  0  0
   59.1410   30.6250   46.0310 C   0  0  0  0  0  0  0  0  0  0  0  0
   57.0200   27.8370   45.5230 C   0  0  0  0  0  0  0  0  0  0  0  0
   54.2404   23.5178   46.3857 H   0  0  0  0  0  0  0  0  0  0  0  0
   54.4939   24.7561   45.0967 H   0  0  0  0  0  0  0  0  0  0  0  0
   54.9918   23.5009   43.2562 H   0  0  0  0  0  0  0  0  0  0  0  0
   56.5434   22.0116   42.0071 H   0  0  0  0  0  0  0  0  0  0  0  0
   58.4087   20.8651   43.1968 H   0  0  0  0  0  0  0  0  0  0  0  0
   58.7389   21.2237   45.6363 H   0  0  0  0  0  0  0  0  0  0  0  0
   56.9720   23.4660   47.7830 H   0  0  0  0  0  0  0  0  0  0  0  0
   58.0598   24.8239   44.2793 H   0  0  0  0  0  0  0  0  0  0  0  0
   58.5929   26.2732   42.3197 H   0  0  0  0  0  0  0  0  0  0  0  0
   58.1127   28.7202   42.4029 H   0  0  0  0  0  0  0  0  0  0  0  0
   57.7462   32.8902   44.9066 H   0  0  0  0  0  0  0  0  0  0  0  0
   56.6093   32.7745   46.3257 H   0  0  0  0  0  0  0  0  0  0  0  0
   59.4847   33.5731   46.2302 H   0  0  0  0  0  0  0  0  0  0  0  0
   58.1614   34.0694   47.3505 H   0  0  0  0  0  0  0  0  0  0  0  0
   57.4210   31.2972   49.6815 H   0  0  0  0  0  0  0  0  0  0  0  0
   57.3488   31.8627   52.1092 H   0  0  0  0  0  0  0  0  0  0  0  0
   58.9863   33.4866   53.0658 H   0  0  0  0  0  0  0  0  0  0  0  0
   60.7079   34.5374   51.5951 H   0  0  0  0  0  0  0  0  0  0  0  0
   60.7884   33.9786   49.1641 H   0  0  0  0  0  0  0  0  0  0  0  0
   60.7794   31.0511   47.3752 H   0  0  0  0  0  0  0  0  0  0  0  0
   59.3737   30.2150   48.1362 H   0  0  0  0  0  0  0  0  0  0  0  0
   59.7334   31.1362   45.2578 H   0  0  0  0  0  0  0  0  0  0  0  0
   59.2108   29.5379   45.8782 H   0  0  0  0  0  0  0  0  0  0  0  0
   56.6008   28.2834   46.4368 H   0  0  0  0  0  0  0  0  0  0  0  0
  1  2  2  0
  2  3  1  0
  3  4  1  0
  4  5  1  0
  5  6  2  0
  6  7  1  0
  7  8  2  0
  8  9  1  0
  9 10  2  0
 10 11  1  0
  2 12  1  0
 12 13  2  0
 13 14  1  0
 14 15  2  0
 15 16  1  0
 16 17  1  0
 17 18  2  0
 17 19  2  0
 17 20  1  0
 20 21  1  0
 21 22  1  0
 22 23  1  0
 23 24  1  0
 24 25  2  0
 25 26  1  0
 26 27  2  0
 27 28  1  0
 28 29  2  0
 23 30  1  0
 30 31  1  0
 16 32  2  0
 10  5  1  0
 32 12  1  0
 31 20  1  0
 29 24  1  0
  4 33  1  0
  4 34  1  0
  6 35  1  0
  7 36  1  0
  8 37  1  0
  9 38  1  0
 11 39  1  0
 13 40  1  0
 14 41  1  0
 15 42  1  0
 21 43  1  0
 21 44  1  0
 22 45  1  0
 22 46  1  0
 25 47  1  0
 26 48  1  0
 27 49  1  0
 28 50  1  0
 29 51  1  0
 30 52  1  0
 30 53  1  0
 31 54  1  0
 31 55  1  0
 32 56  1  0
M  CHG  1   3  -1
M  END
>  <UniqueID>  (72) 
71

>  <SMILES>  (72) 
O=C([N-]Cc1ccccc1O)c1cccc(S(=O)(=O)N2CCN(c3ccccc3)CC2)c1

>  <Energy>  (72) 
69.69431697734865

>  <Genealogy>  (72) 
O=C([N-]Cc1ccccc1O)c1cccc(S(=O)(=O)N2CCN(c3ccccc3)CC2)c1 (protonated)
O=C([N-]Cc1ccccc1O)c1cccc(S(=O)(=O)N2CCN(c3ccccc3)CC2)c1 (3D coordinates assigned)
O=C([N-]Cc1ccccc1O)c1cccc(S(=O)(=O)N2CCN(c3ccccc3)CC2)c1 (nonaromatic ring conformer: 69.69431697734865 kcal/mol)

>  <smiles>  (72) 
O=C(NCc1ccccc1O)c1cccc(S(=O)(=O)N2CCN(c3ccccc3)CC2)c1

>  <score_type>  (72) 
oracle

>  <origin>  (72) 
adg

>  <m_score__min__energy>  (72) 
-13.58

>  <m_primary>  (72) 
energy

$$$$
72:0
     RDKit          3D

 42 44  0  0  0  0  0  0  0  0999 V2000
   64.8440   32.5000   49.6820 C   0  0  0  0  0  0  0  0  0  0  0  0
   63.8070   32.6410   48.6190 C   0  0  0  0  0  0  0  0  0  0  0  0
   62.7330   31.8300   48.5010 N   0  0  0  0  0  0  0  0  0  0  0  0
   61.8990   32.2050   47.4860 C   0  0  0  0  0  0  0  0  0  0  0  0
   60.6530   31.4670   47.1620 C   0  0  0  0  0  0  0  0  0  0  0  0
   59.5230   32.1520   46.6810 C   0  0  0  0  0  0  0  0  0  0  0  0
   58.3490   31.4560   46.3840 C   0  0  0  0  0  0  0  0  0  0  0  0
   58.2890   30.0720   46.5520 C   0  0  0  0  0  0  0  0  0  0  0  0
   59.4120   29.3660   47.0130 C   0  0  0  0  0  0  0  0  0  0  0  0
   59.3430   27.8990   47.1960 C   0  0  0  0  0  0  0  0  0  0  0  0
   59.5200   27.4170   48.3480 O   0  0  0  0  0  0  0  0  0  0  0  0
   59.0590   27.0180   46.0930 N   0  0  0  0  0  0  0  0  0  0  0  0
   58.0350   27.3880   45.1020 C   0  0  0  0  0  0  0  0  0  0  0  0
   57.4300   26.1470   44.4230 C   0  0  0  0  0  0  0  0  0  0  0  0
   57.1920   25.0010   45.4270 C   0  0  0  0  0  0  0  0  0  0  0  0
   56.0370   25.3270   46.3430 C   0  0  0  0  0  0  0  0  0  0  0  0
   55.0360   26.2490   45.9190 N   0  0  0  0  0  0  0  0  0  0  0  0
   55.9690   24.8200   47.4950 O   0  0  0  0  0  0  0  0  0  0  0  0
   58.4750   24.6250   46.2240 C   0  0  0  0  0  0  0  0  0  0  0  0
   59.6050   25.6560   46.0780 C   0  0  0  0  0  0  0  0  0  0  0  0
   60.5830   30.0730   47.3320 C   0  0  0  0  0  0  0  0  0  0  0  0
   62.3150   33.3470   46.7960 C   0  0  0  0  0  0  0  0  0  0  0  0
   63.7530   33.8830   47.4880 S   0  0  0  0  0  0  0  0  0  0  0  0
   64.3666   32.5649   50.6709 H   0  0  0  0  0  0  0  0  0  0  0  0
   65.3440   31.5256   49.5795 H   0  0  0  0  0  0  0  0  0  0  0  0
   65.5861   33.3055   49.5795 H   0  0  0  0  0  0  0  0  0  0  0  0
   62.5800   30.9990   49.1130 H   0  0  0  0  0  0  0  0  0  0  0  0
   59.5639   33.2419   46.5379 H   0  0  0  0  0  0  0  0  0  0  0  0
   57.4675   32.0014   46.0159 H   0  0  0  0  0  0  0  0  0  0  0  0
   57.3586   29.5320   46.3225 H   0  0  0  0  0  0  0  0  0  0  0  0
   57.2327   27.9447   45.6084 H   0  0  0  0  0  0  0  0  0  0  0  0
   58.5130   28.0056   44.3273 H   0  0  0  0  0  0  0  0  0  0  0  0
   56.4688   26.4248   43.9659 H   0  0  0  0  0  0  0  0  0  0  0  0
   58.1424   25.7925   43.6635 H   0  0  0  0  0  0  0  0  0  0  0  0
   56.9258   24.1069   44.8442 H   0  0  0  0  0  0  0  0  0  0  0  0
   54.8060   27.0910   46.4910 H   0  0  0  0  0  0  0  0  0  0  0  0
   58.2128   24.5428   47.2891 H   0  0  0  0  0  0  0  0  0  0  0  0
   58.8464   23.6742   45.8140 H   0  0  0  0  0  0  0  0  0  0  0  0
   60.3121   25.5396   46.9126 H   0  0  0  0  0  0  0  0  0  0  0  0
   60.1200   25.4882   45.1206 H   0  0  0  0  0  0  0  0  0  0  0  0
   61.4568   29.5290   47.7199 H   0  0  0  0  0  0  0  0  0  0  0  0
   61.7933   33.8145   45.9479 H   0  0  0  0  0  0  0  0  0  0  0  0
  1  2  1  0
  2  3  2  0
  3  4  1  0
  4  5  1  0
  5  6  2  0
  6  7  1  0
  7  8  2  0
  8  9  1  0
  9 10  1  0
 10 11  2  0
 10 12  1  0
 12 13  1  0
 13 14  1  0
 14 15  1  0
 15 16  1  0
 16 17  1  0
 16 18  2  0
 15 19  1  0
 19 20  1  0
  9 21  2  0
  4 22  2  0
 22 23  1  0
 23  2  1  0
 21  5  1  0
 20 12  1  0
  1 24  1  0
  1 25  1  0
  1 26  1  0
  3 27  1  0
  6 28  1  0
  7 29  1  0
  8 30  1  0
 13 31  1  0
 13 32  1  0
 14 33  1  0
 14 34  1  0
 15 35  1  0
 17 36  1  0
 19 37  1  0
 19 38  1  0
 20 39  1  0
 20 40  1  0
 21 41  1  0
 22 42  1  0
M  CHG  2   3   1  17  -1
M  END
>  <UniqueID>  (73) 
72

>  <SMILES>  (73) 
Cc1[nH+]c(-c2cccc(C(=O)N3CCC(C([NH-])=O)CC3)c2)cs1

>  <Energy>  (73) 
81.56719737448351

>  <Genealogy>  (73) 
Cc1[nH+]c(-c2cccc(C(=O)N3CCC(C([NH-])=O)CC3)c2)cs1 (protonated)
Cc1[nH+]c(-c2cccc(C(=O)N3CCC(C([NH-])=O)CC3)c2)cs1 (3D coordinates assigned)
Cc1[nH+]c(-c2cccc(C(=O)N3CCC(C([NH-])=O)CC3)c2)cs1 (nonaromatic ring conformer: 81.56719737448351 kcal/mol)

>  <smiles>  (73) 
Cc1nc(-c2cccc(C(=O)N3CCC(C(N)=O)CC3)c2)cs1

>  <score_type>  (73) 
oracle

>  <origin>  (73) 
adg

>  <m_score__min__energy>  (73) 
-10.199999999999999

>  <m_primary>  (73) 
energy

$$$$
73:0
     RDKit          3D

 59 62  0  0  0  0  0  0  0  0999 V2000
   60.7930   27.1880   51.5960 C   0  0  0  0  0  0  0  0  0  0  0  0
   61.6810   28.3880   51.4440 C   0  0  0  0  0  0  0  0  0  0  0  0
   62.6900   28.5490   52.3410 N   0  0  0  0  0  0  0  0  0  0  0  0
   63.5790   29.5750   52.2840 C   0  0  0  0  0  0  0  0  0  0  0  0
   64.6440   29.6480   53.3380 C   0  0  0  0  0  0  0  0  0  0  0  0
   63.4530   30.5410   51.2660 C   0  0  0  0  0  0  0  0  0  0  0  0
   64.3740   31.6910   51.1440 C   0  0  0  0  0  0  0  0  0  0  0  0
   65.5820   31.4710   50.8660 O   0  0  0  0  0  0  0  0  0  0  0  0
   63.9340   33.0500   51.2870 N   0  0  0  0  0  0  0  0  0  0  0  0
   63.1260   33.6640   50.4760 C   0  0  0  0  0  0  0  0  0  0  0  0
   62.9160   33.1500   49.0760 C   0  0  2  0  0  0  0  0  0  0  0  0
   63.7010   33.9750   48.1390 N   0  0  0  0  0  0  0  0  0  0  0  0
   63.4430   33.5830   46.7500 C   0  0  0  0  0  0  0  0  0  0  0  0
   62.0010   33.9130   46.3570 C   0  0  0  0  0  0  0  0  0  0  0  0
   61.0210   33.4130   47.3870 C   0  0  0  0  0  0  0  0  0  0  0  0
   59.6630   33.3200   47.0450 C   0  0  0  0  0  0  0  0  0  0  0  0
   58.7290   32.8630   47.9750 C   0  0  0  0  0  0  0  0  0  0  0  0
   59.1400   32.4870   49.2550 C   0  0  0  0  0  0  0  0  0  0  0  0
   58.2000   32.0080   50.1650 O   0  0  0  0  0  0  0  0  0  0  0  0
   60.4910   32.5880   49.6110 C   0  0  0  0  0  0  0  0  0  0  0  0
   61.4380   33.0930   48.6990 C   0  0  0  0  0  0  0  0  0  0  0  0
   62.4330   30.3930   50.3190 C   0  0  0  0  0  0  0  0  0  0  0  0
   61.5180   29.3320   50.4020 C   0  0  0  0  0  0  0  0  0  0  0  0
   60.4310   29.2440   49.3960 C   0  0  0  0  0  0  0  0  0  0  0  0
   59.2300   29.2760   49.7790 O   0  0  0  0  0  0  0  0  0  0  0  0
   60.7420   29.0090   48.0130 N   0  0  0  0  0  0  0  0  0  0  0  0
   60.4470   27.9580   47.3010 C   0  0  0  0  0  0  0  0  0  0  0  0
   59.0800   27.6090   46.8600 C   0  0  0  0  0  0  0  0  0  0  0  0
   58.4260   26.4720   47.3580 C   0  0  0  0  0  0  0  0  0  0  0  0
   57.1190   26.1830   46.9630 C   0  0  0  0  0  0  0  0  0  0  0  0
   56.4410   27.0350   46.0850 C   0  0  0  0  0  0  0  0  0  0  0  0
   55.1410   26.7120   45.7100 O   0  0  0  0  0  0  0  0  0  0  0  0
   57.0750   28.1990   45.5990 C   0  0  0  0  0  0  0  0  0  0  0  0
   56.4010   29.1400   44.6770 C   0  0  0  0  0  0  0  0  0  0  0  0
   55.2130   29.5120   44.8620 O   0  0  0  0  0  0  0  0  0  0  0  0
   58.3910   28.4810   46.0050 C   0  0  0  0  0  0  0  0  0  0  0  0
   60.6385   26.9792   52.6649 H   0  0  0  0  0  0  0  0  0  0  0  0
   59.8228   27.3868   51.1173 H   0  0  0  0  0  0  0  0  0  0  0  0
   61.2667   26.3183   51.1173 H   0  0  0  0  0  0  0  0  0  0  0  0
   64.1774   29.6160   54.3336 H   0  0  0  0  0  0  0  0  0  0  0  0
   65.3292   28.7947   53.2266 H   0  0  0  0  0  0  0  0  0  0  0  0
   65.2064   30.5868   53.2266 H   0  0  0  0  0  0  0  0  0  0  0  0
   62.5921   34.5645   50.8137 H   0  0  0  0  0  0  0  0  0  0  0  0
   63.2729   32.1111   49.0192 H   0  0  0  0  0  0  0  0  0  0  0  0
   63.4420   34.9850   48.2510 H   0  0  0  0  0  0  0  0  0  0  0  0
   64.1320   34.1266   46.0869 H   0  0  0  0  0  0  0  0  0  0  0  0
   63.5981   32.4984   46.6526 H   0  0  0  0  0  0  0  0  0  0  0  0
   61.8964   35.0040   46.2638 H   0  0  0  0  0  0  0  0  0  0  0  0
   61.7810   33.4161   45.4006 H   0  0  0  0  0  0  0  0  0  0  0  0
   59.3328   33.6095   46.0365 H   0  0  0  0  0  0  0  0  0  0  0  0
   57.6661   32.7988   47.6990 H   0  0  0  0  0  0  0  0  0  0  0  0
   58.1690   31.0310   50.4310 H   0  0  0  0  0  0  0  0  0  0  0  0
   60.8155   32.2698   50.6127 H   0  0  0  0  0  0  0  0  0  0  0  0
   62.3472   31.1192   49.4973 H   0  0  0  0  0  0  0  0  0  0  0  0
   61.2685   27.2872   47.0093 H   0  0  0  0  0  0  0  0  0  0  0  0
   58.9454   25.8058   48.0625 H   0  0  0  0  0  0  0  0  0  0  0  0
   56.6193   25.2802   47.3442 H   0  0  0  0  0  0  0  0  0  0  0  0
   56.9530   29.5246   43.8067 H   0  0  0  0  0  0  0  0  0  0  0  0
   58.8859   29.3962   45.6479 H   0  0  0  0  0  0  0  0  0  0  0  0
  1  2  1  0
  2  3  2  0
  3  4  1  0
  4  5  1  0
  4  6  2  0
  6  7  1  0
  7  8  2  0
  7  9  1  0
  9 10  2  3
 10 11  1  0
 11 12  1  0
 12 13  1  0
 13 14  1  0
 14 15  1  0
 15 16  2  0
 16 17  1  0
 17 18  2  0
 18 19  1  0
 18 20  1  0
 20 21  2  0
  6 22  1  0
 22 23  2  0
 23 24  1  0
 24 25  2  0
 24 26  1  0
 26 27  2  3
 27 28  1  0
 28 29  2  0
 29 30  1  0
 30 31  2  0
 31 32  1  0
 31 33  1  0
 33 34  1  0
 34 35  2  0
 33 36  2  0
 23  2  1  0
 36 28  1  0
 21 11  1  0
 21 15  1  0
  1 37  1  0
  1 38  1  0
  1 39  1  0
  5 40  1  0
  5 41  1  0
  5 42  1  0
 10 43  1  0
 11 44  1  1
 12 45  1  0
 13 46  1  0
 13 47  1  0
 14 48  1  0
 14 49  1  0
 16 50  1  0
 17 51  1  0
 19 52  1  0
 20 53  1  0
 22 54  1  0
 27 55  1  0
 29 56  1  0
 30 57  1  0
 34 58  1  0
 36 59  1  0
M  CHG  1  32  -1
M  END
>  <UniqueID>  (74) 
73

>  <SMILES>  (74) 
Cc1nc(C)c(C(=O)N=C[C@@H]2NCCc3ccc(O)cc32)cc1C(=O)N=Cc1ccc([O-])c(C=O)c1

>  <Energy>  (74) 
86.7864547351034

>  <Genealogy>  (74) 
Cc1nc(C)c(C(=O)N=CC2NCCc3ccc(O)cc32)cc1C(=O)N=Cc1ccc([O-])c(C=O)c1 (protonated)
Cc1nc(C)c(C(=O)N=C[C@@H]2NCCc3ccc(O)cc32)cc1C(=O)N=Cc1ccc([O-])c(C=O)c1 (chirality)
Cc1nc(C)c(C(=O)N=C[C@@H]2NCCc3ccc(O)cc32)cc1C(=O)N=Cc1ccc([O-])c(C=O)c1 (3D coordinates assigned)
Cc1nc(C)c(C(=O)N=C[C@@H]2NCCc3ccc(O)cc32)cc1C(=O)N=Cc1ccc([O-])c(C=O)c1 (nonaromatic ring conformer: 86.7864547351034 kcal/mol)

>  <smiles>  (74) 
Cc1nc(C)c(C(=O)N=CC2NCCc3ccc(O)cc32)cc1C(=O)N=Cc1ccc(O)c(C=O)c1

>  <score_type>  (74) 
oracle

>  <origin>  (74) 
adg

>  <m_score__min__energy>  (74) 
-13.85

>  <m_primary>  (74) 
energy

$$$$
74:0
     RDKit          3D

 48 49  0  0  0  0  0  0  0  0999 V2000
   58.9760   32.6920   49.8670 C   0  0  0  0  0  0  0  0  0  0  0  0
   59.5500   33.6850   49.0240 O   0  0  0  0  0  0  0  0  0  0  0  0
   60.7910   33.5630   48.3770 C   0  0  0  0  0  0  0  0  0  0  0  0
   61.9210   33.0510   49.0420 C   0  0  0  0  0  0  0  0  0  0  0  0
   63.1500   32.9600   48.3860 C   0  0  0  0  0  0  0  0  0  0  0  0
   63.2660   33.3680   47.0570 C   0  0  0  0  0  0  0  0  0  0  0  0
   62.1510   33.8670   46.3810 C   0  0  0  0  0  0  0  0  0  0  0  0
   60.9080   33.9690   47.0290 C   0  0  0  0  0  0  0  0  0  0  0  0
   59.7320   34.5460   46.2790 C   0  0  0  0  0  0  0  0  0  0  0  0
   59.0970   33.5270   45.3240 C   0  0  0  0  0  0  0  0  0  0  0  0
   57.6700   32.7030   46.0350 S   0  0  0  0  0  0  0  0  0  0  0  0
   58.1440   31.6140   46.9580 O   0  0  0  0  0  0  0  0  0  0  0  0
   56.8840   33.6970   46.8410 O   0  0  0  0  0  0  0  0  0  0  0  0
   56.6470   32.0350   44.8550 O   0  0  0  0  0  0  0  0  0  0  0  0
   57.2140   30.8440   44.3600 C   0  0  0  0  0  0  0  0  0  0  0  0
   56.1390   29.8230   44.1680 C   0  0  0  0  0  0  0  0  0  0  0  0
   55.5180   29.7730   43.0720 O   0  0  0  0  0  0  0  0  0  0  0  0
   55.7900   28.9320   45.2330 N   0  0  0  0  0  0  0  0  0  0  0  0
   56.6400   27.8050   45.5990 C   0  0  0  0  0  0  0  0  0  0  0  0
   58.0570   27.9910   45.0530 C   0  0  0  0  0  0  0  0  0  0  0  0
   58.9620   28.6860   46.0400 C   0  0  0  0  0  0  0  0  0  0  0  0
   60.0100   29.5060   45.5850 C   0  0  0  0  0  0  0  0  0  0  0  0
   60.8370   30.1660   46.4990 C   0  0  0  0  0  0  0  0  0  0  0  0
   60.6170   30.0230   47.8720 C   0  0  0  0  0  0  0  0  0  0  0  0
   59.5700   29.2200   48.3320 C   0  0  0  0  0  0  0  0  0  0  0  0
   58.7480   28.5500   47.4210 C   0  0  0  0  0  0  0  0  0  0  0  0
   59.1355   32.9680   50.9198 H   0  0  0  0  0  0  0  0  0  0  0  0
   57.8969   32.6198   49.6663 H   0  0  0  0  0  0  0  0  0  0  0  0
   59.4520   31.7209   49.6663 H   0  0  0  0  0  0  0  0  0  0  0  0
   61.8350   32.7198   50.0874 H   0  0  0  0  0  0  0  0  0  0  0  0
   64.0284   32.5659   48.9180 H   0  0  0  0  0  0  0  0  0  0  0  0
   64.2354   33.2966   46.5420 H   0  0  0  0  0  0  0  0  0  0  0  0
   62.2462   34.1832   45.3317 H   0  0  0  0  0  0  0  0  0  0  0  0
   58.9731   34.8708   47.0060 H   0  0  0  0  0  0  0  0  0  0  0  0
   60.0973   35.3910   45.6768 H   0  0  0  0  0  0  0  0  0  0  0  0
   58.7809   34.0513   44.4101 H   0  0  0  0  0  0  0  0  0  0  0  0
   59.8527   32.7564   45.1117 H   0  0  0  0  0  0  0  0  0  0  0  0
   57.7056   31.0446   43.3966 H   0  0  0  0  0  0  0  0  0  0  0  0
   57.9560   30.4648   45.0781 H   0  0  0  0  0  0  0  0  0  0  0  0
   56.6836   27.7278   46.6954 H   0  0  0  0  0  0  0  0  0  0  0  0
   56.2138   26.8879   45.1663 H   0  0  0  0  0  0  0  0  0  0  0  0
   58.4795   27.0024   44.8204 H   0  0  0  0  0  0  0  0  0  0  0  0
   57.9920   28.6207   44.1534 H   0  0  0  0  0  0  0  0  0  0  0  0
   60.1799   29.6287   44.5051 H   0  0  0  0  0  0  0  0  0  0  0  0
   61.6613   30.7982   46.1374 H   0  0  0  0  0  0  0  0  0  0  0  0
   61.2681   30.5426   48.5904 H   0  0  0  0  0  0  0  0  0  0  0  0
   59.3923   29.1149   49.4125 H   0  0  0  0  0  0  0  0  0  0  0  0
   57.9296   27.9132   47.7879 H   0  0  0  0  0  0  0  0  0  0  0  0
  1  2  1  0
  2  3  1  0
  3  4  2  0
  4  5  1  0
  5  6  2  0
  6  7  1  0
  7  8  2  0
  8  9  1  0
  9 10  1  0
 10 11  1  0
 11 12  2  0
 11 13  2  0
 11 14  1  0
 14 15  1  0
 15 16  1  0
 16 17  2  0
 16 18  1  0
 18 19  1  0
 19 20  1  0
 20 21  1  0
 21 22  2  0
 22 23  1  0
 23 24  2  0
 24 25  1  0
 25 26  2  0
  8  3  1  0
 26 21  1  0
  1 27  1  0
  1 28  1  0
  1 29  1  0
  4 30  1  0
  5 31  1  0
  6 32  1  0
  7 33  1  0
  9 34  1  0
  9 35  1  0
 10 36  1  0
 10 37  1  0
 15 38  1  0
 15 39  1  0
 19 40  1  0
 19 41  1  0
 20 42  1  0
 20 43  1  0
 22 44  1  0
 23 45  1  0
 24 46  1  0
 25 47  1  0
 26 48  1  0
M  CHG  1  18  -1
M  END
>  <UniqueID>  (75) 
74

>  <SMILES>  (75) 
COc1ccccc1CCS(=O)(=O)OCC(=O)[N-]CCc1ccccc1

>  <Energy>  (75) 
34.02111439891002

>  <Genealogy>  (75) 
COc1ccccc1CCS(=O)(=O)OCC(=O)[N-]CCc1ccccc1 (protonated)
COc1ccccc1CCS(=O)(=O)OCC(=O)[N-]CCc1ccccc1 (3D coordinates assigned)
COc1ccccc1CCS(=O)(=O)OCC(=O)[N-]CCc1ccccc1 (optimized conformer: 34.02111439891002 kcal/mol)

>  <smiles>  (75) 
COc1ccccc1CCS(=O)(=O)OCC(=O)NCCc1ccccc1

>  <score_type>  (75) 
oracle

>  <origin>  (75) 
adg

>  <m_score__min__energy>  (75) 
-10.550000000000001

>  <m_primary>  (75) 
energy

$$$$
75:0
     RDKit          3D

 40 42  0  0  1  0  0  0  0  0999 V2000
   63.3930   31.9750   47.3750 C   0  0  0  0  0  0  0  0  0  0  0  0
   62.0330   32.5460   47.1870 C   0  0  0  0  0  0  0  0  0  0  0  0
   61.8600   33.8510   46.7740 C   0  0  0  0  0  0  0  0  0  0  0  0
   60.5800   34.3400   46.6120 C   0  0  0  0  0  0  0  0  0  0  0  0
   59.4460   33.5920   46.8400 C   0  0  0  0  0  0  0  0  0  0  0  0
   58.1340   34.2290   46.6320 C   0  0  0  0  0  0  0  0  0  0  0  0
   57.6580   34.2140   44.8770 S   0  0  0  0  0  0  0  0  0  0  0  0
   57.5220   32.4960   44.4000 C   0  0  0  0  0  0  0  0  0  0  0  0
   56.9700   31.5400   45.1660 N   0  0  0  0  0  0  0  0  0  0  0  0
   57.0190   30.3500   44.5210 C   0  0  0  0  0  0  0  0  0  0  0  0
   56.5760   29.2280   44.9800 N   0  0  0  0  0  0  0  0  0  0  0  0
   57.4410   28.2790   45.5440 C   0  0  0  0  0  0  0  0  0  0  0  0
   58.7900   28.6120   45.6540 C   0  0  0  0  0  0  0  0  0  0  0  0
   59.6620   27.6980   46.2040 C   0  0  0  0  0  0  0  0  0  0  0  0
   59.1970   26.4580   46.6410 C   0  0  0  0  0  0  0  0  0  0  0  0
   57.8520   26.1410   46.5250 C   0  0  0  0  0  0  0  0  0  0  0  0
   57.2640   24.5880   47.0720 Cl  0  0  0  0  0  0  0  0  0  0  0  0
   56.9690   27.0470   45.9760 C   0  0  0  0  0  0  0  0  0  0  0  0
   57.6140   30.5890   43.3380 N   0  0  0  0  0  0  0  0  0  0  0  0
   57.9190   31.8940   43.2650 N   0  0  0  0  0  0  0  0  0  0  0  0
   59.6200   32.2880   47.2530 C   0  0  0  0  0  0  0  0  0  0  0  0
   60.9040   31.7850   47.4200 C   0  0  0  0  0  0  0  0  0  0  0  0
   61.1340   30.3780   47.8640 C   0  0  0  0  0  0  0  0  0  0  0  0
   63.6075   31.8850   48.4501 H   0  0  0  0  0  0  0  0  0  0  0  0
   63.4411   30.9807   46.9070 H   0  0  0  0  0  0  0  0  0  0  0  0
   64.1365   32.6369   46.9070 H   0  0  0  0  0  0  0  0  0  0  0  0
   62.7310   34.4931   46.5765 H   0  0  0  0  0  0  0  0  0  0  0  0
   60.4586   35.3827   46.2833 H   0  0  0  0  0  0  0  0  0  0  0  0
   57.3756   33.6837   47.2129 H   0  0  0  0  0  0  0  0  0  0  0  0
   58.2018   35.2759   46.9627 H   0  0  0  0  0  0  0  0  0  0  0  0
   59.1532   29.5905   45.3067 H   0  0  0  0  0  0  0  0  0  0  0  0
   60.7292   27.9473   46.2988 H   0  0  0  0  0  0  0  0  0  0  0  0
   59.8975   25.7310   47.0779 H   0  0  0  0  0  0  0  0  0  0  0  0
   55.9022   26.7961   45.8814 H   0  0  0  0  0  0  0  0  0  0  0  0
   57.7990   29.8630   42.6060 H   0  0  0  0  0  0  0  0  0  0  0  0
   58.3850   32.3720   42.4670 H   0  0  0  0  0  0  0  0  0  0  0  0
   58.7463   31.6492   47.4493 H   0  0  0  0  0  0  0  0  0  0  0  0
   61.1407   30.3368   48.9632 H   0  0  0  0  0  0  0  0  0  0  0  0
   60.3290   29.7354   47.4779 H   0  0  0  0  0  0  0  0  0  0  0  0
   62.1017   30.0252   47.4779 H   0  0  0  0  0  0  0  0  0  0  0  0
  1  2  1  0
  2  3  2  0
  3  4  1  0
  4  5  2  0
  5  6  1  0
  6  7  1  0
  7  8  1  0
  8  9  2  0
  9 10  1  0
 10 11  2  0
 11 12  1  0
 12 13  2  0
 13 14  1  0
 14 15  2  0
 15 16  1  0
 16 17  1  0
 16 18  2  0
 10 19  1  0
 19 20  1  0
  5 21  1  0
 21 22  2  0
 22 23  1  0
 22  2  1  0
 20  8  1  0
 18 12  1  0
  1 24  1  0
  1 25  1  0
  1 26  1  0
  3 27  1  0
  4 28  1  0
  6 29  1  0
  6 30  1  0
 13 31  1  0
 14 32  1  0
 15 33  1  0
 18 34  1  0
 19 35  1  0
 20 36  1  0
 21 37  1  0
 23 38  1  0
 23 39  1  0
 23 40  1  0
M  END
>  <smiles>  (76) 
Cc1ccc(CSc2nc(=Nc3cccc(Cl)c3)[nH][nH]2)cc1C

>  <score_type>  (76) 
oracle

>  <origin>  (76) 
adg

>  <m_score__min__energy>  (76) 
-8.7699999999999996

>  <m_primary>  (76) 
energy

$$$$
76:0
     RDKit          3D

 46 48  0  0  0  0  0  0  0  0999 V2000
   62.2580   32.2950   49.5960 O   0  0  0  0  0  0  0  0  0  0  0  0
   61.9230   33.4360   49.1790 C   0  0  0  0  0  0  0  0  0  0  0  0
   62.5910   33.9840   48.0400 N   0  0  0  0  0  0  0  0  0  0  0  0
   62.2470   33.6390   46.6650 C   0  0  0  0  0  0  0  0  0  0  0  0
   60.7540   33.5280   46.5150 C   0  0  0  0  0  0  0  0  0  0  0  0
   59.9750   34.6860   46.3630 C   0  0  0  0  0  0  0  0  0  0  0  0
   58.5830   34.5930   46.2600 C   0  0  0  0  0  0  0  0  0  0  0  0
   57.9600   33.3440   46.3150 C   0  0  0  0  0  0  0  0  0  0  0  0
   58.7280   32.1860   46.4730 C   0  0  0  0  0  0  0  0  0  0  0  0
   60.1190   32.2750   46.5750 C   0  0  0  0  0  0  0  0  0  0  0  0
   60.8460   34.1520   49.7970 N   0  0  0  0  0  0  0  0  0  0  0  0
   59.6920   33.5790   50.4270 C   0  0  0  0  0  0  0  0  0  0  0  0
   59.0220   32.4680   49.8870 C   0  0  0  0  0  0  0  0  0  0  0  0
   57.9190   31.9230   50.5510 C   0  0  0  0  0  0  0  0  0  0  0  0
   57.4650   32.4770   51.7560 C   0  0  0  0  0  0  0  0  0  0  0  0
   56.3400   31.8850   52.4260 N   0  0  0  0  0  0  0  0  0  0  0  0
   55.9950   30.4930   52.3370 C   0  0  0  0  0  0  0  0  0  0  0  0
   56.7910   29.6640   51.8180 O   0  0  0  0  0  0  0  0  0  0  0  0
   54.6720   30.0150   52.8510 C   0  0  0  0  0  0  0  0  0  0  0  0
   53.5740   30.4440   51.9180 C   0  0  0  0  0  0  0  0  0  0  0  0
   53.2620   29.6690   50.7870 C   0  0  0  0  0  0  0  0  0  0  0  0
   52.2190   30.0510   49.9360 C   0  0  0  0  0  0  0  0  0  0  0  0
   51.4740   31.2020   50.2130 C   0  0  0  0  0  0  0  0  0  0  0  0
   51.7700   31.9730   51.3430 C   0  0  0  0  0  0  0  0  0  0  0  0
   51.0260   33.1140   51.6200 O   0  0  0  0  0  0  0  0  0  0  0  0
   52.8130   31.5940   52.1960 C   0  0  0  0  0  0  0  0  0  0  0  0
   58.1650   33.5590   52.3170 C   0  0  0  0  0  0  0  0  0  0  0  0
   59.2710   34.1030   51.6550 C   0  0  0  0  0  0  0  0  0  0  0  0
   62.6229   34.4213   45.9892 H   0  0  0  0  0  0  0  0  0  0  0  0
   62.7060   32.6719   46.4121 H   0  0  0  0  0  0  0  0  0  0  0  0
   60.4618   35.6717   46.3247 H   0  0  0  0  0  0  0  0  0  0  0  0
   57.9788   35.5038   46.1356 H   0  0  0  0  0  0  0  0  0  0  0  0
   56.8654   33.2713   46.2340 H   0  0  0  0  0  0  0  0  0  0  0  0
   58.2362   31.2030   46.5171 H   0  0  0  0  0  0  0  0  0  0  0  0
   60.7189   31.3619   46.7026 H   0  0  0  0  0  0  0  0  0  0  0  0
   59.3660   32.0263   48.9401 H   0  0  0  0  0  0  0  0  0  0  0  0
   57.4023   31.0509   50.1237 H   0  0  0  0  0  0  0  0  0  0  0  0
   55.7890   32.4840   53.0820 H   0  0  0  0  0  0  0  0  0  0  0  0
   54.6830   28.9173   52.9206 H   0  0  0  0  0  0  0  0  0  0  0  0
   54.4920   30.4495   53.8454 H   0  0  0  0  0  0  0  0  0  0  0  0
   53.8402   28.7587   50.5703 H   0  0  0  0  0  0  0  0  0  0  0  0
   51.9847   29.4454   49.0481 H   0  0  0  0  0  0  0  0  0  0  0  0
   50.6551   31.5014   49.5424 H   0  0  0  0  0  0  0  0  0  0  0  0
   53.0385   32.1978   53.0874 H   0  0  0  0  0  0  0  0  0  0  0  0
   57.8419   33.9799   53.2806 H   0  0  0  0  0  0  0  0  0  0  0  0
   59.8137   34.9486   52.1027 H   0  0  0  0  0  0  0  0  0  0  0  0
  1  2  2  0
  2  3  1  0
  3  4  1  0
  4  5  1  0
  5  6  2  0
  6  7  1  0
  7  8  2  0
  8  9  1  0
  9 10  2  0
  2 11  1  0
 11 12  1  0
 12 13  2  0
 13 14  1  0
 14 15  2  0
 15 16  1  0
 16 17  1  0
 17 18  2  0
 17 19  1  0
 19 20  1  0
 20 21  2  0
 21 22  1  0
 22 23  2  0
 23 24  1  0
 24 25  1  0
 24 26  2  0
 15 27  1  0
 27 28  2  0
 10  5  1  0
 28 12  1  0
 26 20  1  0
  4 29  1  0
  4 30  1  0
  6 31  1  0
  7 32  1  0
  8 33  1  0
  9 34  1  0
 10 35  1  0
 13 36  1  0
 14 37  1  0
 16 38  1  0
 19 39  1  0
 19 40  1  0
 21 41  1  0
 22 42  1  0
 23 43  1  0
 26 44  1  0
 27 45  1  0
 28 46  1  0
M  CHG  3   3  -1  11  -1  25  -1
M  END
>  <UniqueID>  (77) 
75

>  <SMILES>  (77) 
O=C([N-]Cc1ccccc1)[N-]c1ccc(NC(=O)Cc2cccc([O-])c2)cc1

>  <Energy>  (77) 
50.112550018396156

>  <Genealogy>  (77) 
O=C([N-]Cc1ccccc1)[N-]c1ccc(NC(=O)Cc2cccc([O-])c2)cc1 (protonated)
O=C([N-]Cc1ccccc1)[N-]c1ccc(NC(=O)Cc2cccc([O-])c2)cc1 (3D coordinates assigned)
O=C([N-]Cc1ccccc1)[N-]c1ccc(NC(=O)Cc2cccc([O-])c2)cc1 (optimized conformer: 50.112550018396156 kcal/mol)

>  <smiles>  (77) 
O=C(Cc1cccc(O)c1)Nc1ccc(NC(=O)NCc2ccccc2)cc1

>  <score_type>  (77) 
oracle

>  <origin>  (77) 
adg

>  <m_score__min__energy>  (77) 
-13.84

>  <m_primary>  (77) 
energy

$$$$
77:0
     RDKit          3D

 49 51  0  0  0  0  0  0  0  0999 V2000
   58.4660   31.9560   49.8130 C   0  0  0  0  0  0  0  0  0  0  0  0
   59.6970   31.0960   50.0800 C   0  0  0  0  0  0  0  0  0  0  0  0
   60.4640   30.8940   48.8440 N   0  0  0  0  0  0  0  0  0  0  0  0
   60.3810   29.6340   48.1450 C   0  0  0  0  0  0  0  0  0  0  0  0
   60.7110   28.5680   48.7330 O   0  0  0  0  0  0  0  0  0  0  0  0
   59.9180   29.5720   46.7440 C   0  0  0  0  0  0  0  0  0  0  0  0
   59.1520   30.6050   46.1960 C   0  0  0  0  0  0  0  0  0  0  0  0
   58.6690   30.4710   44.8880 C   0  0  0  0  0  0  0  0  0  0  0  0
   57.7740   31.4590   44.3340 N   0  0  0  0  0  0  0  0  0  0  0  0
   57.4080   31.4000   42.9190 C   0  0  0  0  0  0  0  0  0  0  0  0
   57.0560   32.3890   45.2200 C   0  0  0  0  0  0  0  0  0  0  0  0
   57.9860   33.4580   45.7340 C   0  0  0  0  0  0  0  0  0  0  0  0
   58.7360   34.2420   44.8400 C   0  0  0  0  0  0  0  0  0  0  0  0
   59.6450   35.1890   45.3250 C   0  0  0  0  0  0  0  0  0  0  0  0
   59.8130   35.3550   46.7030 C   0  0  0  0  0  0  0  0  0  0  0  0
   59.0720   34.5780   47.5970 C   0  0  0  0  0  0  0  0  0  0  0  0
   58.1630   33.6300   47.1160 C   0  0  0  0  0  0  0  0  0  0  0  0
   59.0000   29.3610   44.1660 N   0  0  0  0  0  0  0  0  0  0  0  0
   59.7660   28.3780   44.7060 C   0  0  0  0  0  0  0  0  0  0  0  0
   60.2090   28.4830   45.9840 N   0  0  0  0  0  0  0  0  0  0  0  0
   61.4760   31.8560   48.4780 C   0  0  0  0  0  0  0  0  0  0  0  0
   61.5300   33.1090   49.1110 C   0  0  0  0  0  0  0  0  0  0  0  0
   62.5010   34.0450   48.7400 C   0  0  0  0  0  0  0  0  0  0  0  0
   63.4230   33.7370   47.7350 C   0  0  0  0  0  0  0  0  0  0  0  0
   63.3770   32.4930   47.1000 C   0  0  0  0  0  0  0  0  0  0  0  0
   62.4080   31.5550   47.4700 C   0  0  0  0  0  0  0  0  0  0  0  0
   58.0212   32.2667   50.7699 H   0  0  0  0  0  0  0  0  0  0  0  0
   58.7588   32.8470   49.2383 H   0  0  0  0  0  0  0  0  0  0  0  0
   57.7301   31.3745   49.2383 H   0  0  0  0  0  0  0  0  0  0  0  0
   60.3343   31.5977   50.8231 H   0  0  0  0  0  0  0  0  0  0  0  0
   59.3700   30.1164   50.4587 H   0  0  0  0  0  0  0  0  0  0  0  0
   58.9320   31.5090   46.7828 H   0  0  0  0  0  0  0  0  0  0  0  0
   56.3258   31.2255   42.8271 H   0  0  0  0  0  0  0  0  0  0  0  0
   57.6685   32.3517   42.4329 H   0  0  0  0  0  0  0  0  0  0  0  0
   57.9544   30.5783   42.4329 H   0  0  0  0  0  0  0  0  0  0  0  0
   56.2364   32.8621   44.6593 H   0  0  0  0  0  0  0  0  0  0  0  0
   56.6564   31.8255   46.0760 H   0  0  0  0  0  0  0  0  0  0  0  0
   58.6079   34.1106   43.7554 H   0  0  0  0  0  0  0  0  0  0  0  0
   60.2273   35.8028   44.6220 H   0  0  0  0  0  0  0  0  0  0  0  0
   60.5292   36.0980   47.0837 H   0  0  0  0  0  0  0  0  0  0  0  0
   59.2037   34.7120   48.6808 H   0  0  0  0  0  0  0  0  0  0  0  0
   57.5848   33.0171   47.8231 H   0  0  0  0  0  0  0  0  0  0  0  0
   58.6360   29.2340   43.1950 H   0  0  0  0  0  0  0  0  0  0  0  0
   60.0279   27.4944   44.1055 H   0  0  0  0  0  0  0  0  0  0  0  0
   60.8058   33.3550   49.9016 H   0  0  0  0  0  0  0  0  0  0  0  0
   62.5393   35.0244   49.2394 H   0  0  0  0  0  0  0  0  0  0  0  0
   64.1853   34.4746   47.4439 H   0  0  0  0  0  0  0  0  0  0  0  0
   64.1027   32.2517   46.3094 H   0  0  0  0  0  0  0  0  0  0  0  0
   62.3751   30.5761   46.9693 H   0  0  0  0  0  0  0  0  0  0  0  0
  1  2  1  0
  2  3  1  0
  3  4  1  0
  4  5  2  0
  4  6  1  0
  6  7  2  0
  7  8  1  0
  8  9  1  0
  9 10  1  0
  9 11  1  0
 11 12  1  0
 12 13  2  0
 13 14  1  0
 14 15  2  0
 15 16  1  0
 16 17  2  0
  8 18  2  0
 18 19  1  0
 19 20  2  0
  3 21  1  0
 21 22  2  0
 22 23  1  0
 23 24  2  0
 24 25  1  0
 25 26  2  0
 20  6  1  0
 26 21  1  0
 17 12  1  0
  1 27  1  0
  1 28  1  0
  1 29  1  0
  2 30  1  0
  2 31  1  0
  7 32  1  0
 10 33  1  0
 10 34  1  0
 10 35  1  0
 11 36  1  0
 11 37  1  0
 13 38  1  0
 14 39  1  0
 15 40  1  0
 16 41  1  0
 17 42  1  0
 18 43  1  0
 19 44  1  0
 22 45  1  0
 23 46  1  0
 24 47  1  0
 25 48  1  0
 26 49  1  0
M  CHG  1  18   1
M  END
>  <UniqueID>  (78) 
76

>  <SMILES>  (78) 
CCN(C(=O)c1cc(N(C)Cc2ccccc2)[nH+]cn1)c1ccccc1

>  <Energy>  (78) 
55.86976954887515

>  <Genealogy>  (78) 
CCN(C(=O)c1cc(N(C)Cc2ccccc2)[nH+]cn1)c1ccccc1 (protonated)
CCN(C(=O)c1cc(N(C)Cc2ccccc2)[nH+]cn1)c1ccccc1 (3D coordinates assigned)
CCN(C(=O)c1cc(N(C)Cc2ccccc2)[nH+]cn1)c1ccccc1 (optimized conformer: 55.86976954887515 kcal/mol)

>  <smiles>  (78) 
CCN(C(=O)c1cc(N(C)Cc2ccccc2)ncn1)c1ccccc1

>  <score_type>  (78) 
oracle

>  <origin>  (78) 
adg

>  <m_score__min__energy>  (78) 
-6.4400000000000004

>  <m_primary>  (78) 
energy

$$$$
78:0
     RDKit          3D

 50 52  0  0  0  0  0  0  0  0999 V2000
   59.2500   34.1660   44.4730 C   0  0  0  0  0  0  0  0  0  0  0  0
   58.8450   33.3800   45.6400 N   0  0  0  0  0  0  0  0  0  0  0  0
   58.1210   32.1440   45.4700 C   0  0  0  0  0  0  0  0  0  0  0  0
   57.0770   32.0480   44.5320 C   0  0  0  0  0  0  0  0  0  0  0  0
   56.3750   30.8510   44.3670 C   0  0  0  0  0  0  0  0  0  0  0  0
   56.6950   29.7290   45.1490 C   0  0  0  0  0  0  0  0  0  0  0  0
   56.0220   28.4730   44.9810 N   0  0  0  0  0  0  0  0  0  0  0  0
   56.3670   27.2420   45.6270 C   0  0  0  0  0  0  0  0  0  0  0  0
   55.5120   26.6080   46.3030 O   0  0  0  0  0  0  0  0  0  0  0  0
   57.7580   26.7020   45.4970 C   0  0  0  0  0  0  0  0  0  0  0  0
   58.5100   26.7920   46.8250 C   0  0  0  0  0  0  0  0  0  0  0  0
   60.2350   27.3320   46.5630 S   0  0  0  0  0  0  0  0  0  0  0  0
   60.1360   28.6490   47.7750 C   0  0  0  0  0  0  0  0  0  0  0  0
   59.1400   28.6220   48.7610 C   0  0  0  0  0  0  0  0  0  0  0  0
   59.0630   29.6520   49.7050 C   0  0  0  0  0  0  0  0  0  0  0  0
   59.9760   30.7110   49.6630 C   0  0  0  0  0  0  0  0  0  0  0  0
   60.9680   30.7400   48.6770 C   0  0  0  0  0  0  0  0  0  0  0  0
   61.0480   29.7110   47.7320 C   0  0  0  0  0  0  0  0  0  0  0  0
   57.7440   29.8140   46.0690 C   0  0  0  0  0  0  0  0  0  0  0  0
   58.4440   31.0120   46.2390 C   0  0  0  0  0  0  0  0  0  0  0  0
   59.2610   33.9490   47.2340 S   0  0  0  0  0  0  0  0  0  0  0  0
   58.8690   35.3920   47.3840 O   0  0  0  0  0  0  0  0  0  0  0  0
   58.5000   33.1490   48.2560 O   0  0  0  0  0  0  0  0  0  0  0  0
   60.9950   33.7870   47.4980 C   0  0  0  0  0  0  0  0  0  0  0  0
   61.8620   33.5230   46.4260 C   0  0  0  0  0  0  0  0  0  0  0  0
   63.2370   33.4060   46.6470 C   0  0  0  0  0  0  0  0  0  0  0  0
   63.7540   33.5470   47.9380 C   0  0  0  0  0  0  0  0  0  0  0  0
   62.8950   33.8070   49.0090 C   0  0  0  0  0  0  0  0  0  0  0  0
   61.5190   33.9260   48.7910 C   0  0  0  0  0  0  0  0  0  0  0  0
   59.7300   35.0976   44.8071 H   0  0  0  0  0  0  0  0  0  0  0  0
   59.9605   33.5841   43.8676 H   0  0  0  0  0  0  0  0  0  0  0  0
   58.3637   34.4068   43.8676 H   0  0  0  0  0  0  0  0  0  0  0  0
   56.8106   32.9239   43.9223 H   0  0  0  0  0  0  0  0  0  0  0  0
   55.5685   30.7872   43.6217 H   0  0  0  0  0  0  0  0  0  0  0  0
   57.7066   25.6487   45.1840 H   0  0  0  0  0  0  0  0  0  0  0  0
   58.2971   27.3020   44.7490 H   0  0  0  0  0  0  0  0  0  0  0  0
   58.0014   27.5162   47.4784 H   0  0  0  0  0  0  0  0  0  0  0  0
   58.5209   25.7954   47.2905 H   0  0  0  0  0  0  0  0  0  0  0  0
   58.4193   27.7916   48.7926 H   0  0  0  0  0  0  0  0  0  0  0  0
   58.2837   29.6289   50.4810 H   0  0  0  0  0  0  0  0  0  0  0  0
   59.9140   31.5207   50.4050 H   0  0  0  0  0  0  0  0  0  0  0  0
   61.6860   31.5727   48.6445 H   0  0  0  0  0  0  0  0  0  0  0  0
   61.8269   29.7363   46.9557 H   0  0  0  0  0  0  0  0  0  0  0  0
   58.0208   28.9312   46.6639 H   0  0  0  0  0  0  0  0  0  0  0  0
   59.2544   31.0696   46.9806 H   0  0  0  0  0  0  0  0  0  0  0  0
   61.4581   33.4079   45.4093 H   0  0  0  0  0  0  0  0  0  0  0  0
   63.9134   33.2026   45.8037 H   0  0  0  0  0  0  0  0  0  0  0  0
   64.8363   33.4534   48.1107 H   0  0  0  0  0  0  0  0  0  0  0  0
   63.3018   33.9182   50.0249 H   0  0  0  0  0  0  0  0  0  0  0  0
   60.8455   34.1293   49.6366 H   0  0  0  0  0  0  0  0  0  0  0  0
  1  2  1  0
  2  3  1  0
  3  4  2  0
  4  5  1  0
  5  6  2  0
  6  7  1  0
  7  8  1  0
  8  9  2  0
  8 10  1  0
 10 11  1  0
 11 12  1  0
 12 13  1  0
 13 14  2  0
 14 15  1  0
 15 16  2  0
 16 17  1  0
 17 18  2  0
  6 19  1  0
 19 20  2  0
  2 21  1  0
 21 22  2  0
 21 23  2  0
 21 24  1  0
 24 25  2  0
 25 26  1  0
 26 27  2  0
 27 28  1  0
 28 29  2  0
 20  3  1  0
 29 24  1  0
 18 13  1  0
  1 30  1  0
  1 31  1  0
  1 32  1  0
  4 33  1  0
  5 34  1  0
 10 35  1  0
 10 36  1  0
 11 37  1  0
 11 38  1  0
 14 39  1  0
 15 40  1  0
 16 41  1  0
 17 42  1  0
 18 43  1  0
 19 44  1  0
 20 45  1  0
 25 46  1  0
 26 47  1  0
 27 48  1  0
 28 49  1  0
 29 50  1  0
M  CHG  1   7  -1
M  END
>  <UniqueID>  (79) 
77

>  <SMILES>  (79) 
CN(c1ccc([N-]C(=O)CCSc2ccccc2)cc1)S(=O)(=O)c1ccccc1

>  <Energy>  (79) 
52.726794203476956

>  <Genealogy>  (79) 
CN(c1ccc([N-]C(=O)CCSc2ccccc2)cc1)S(=O)(=O)c1ccccc1 (protonated)
CN(c1ccc([N-]C(=O)CCSc2ccccc2)cc1)S(=O)(=O)c1ccccc1 (3D coordinates assigned)
CN(c1ccc([N-]C(=O)CCSc2ccccc2)cc1)S(=O)(=O)c1ccccc1 (optimized conformer: 52.726794203476956 kcal/mol)

>  <smiles>  (79) 
CN(c1ccc(NC(=O)CCSc2ccccc2)cc1)S(=O)(=O)c1ccccc1

>  <score_type>  (79) 
oracle

>  <origin>  (79) 
adg

>  <m_score__min__energy>  (79) 
-11.44

>  <m_primary>  (79) 
energy

$$$$
79:0
     RDKit          3D

 49 52  0  0  0  0  0  0  0  0999 V2000
   58.0880   26.8370   42.6260 C   0  0  0  0  0  0  0  0  0  0  0  0
   57.8110   27.2060   43.9730 O   0  0  0  0  0  0  0  0  0  0  0  0
   57.8150   28.5250   44.4470 C   0  0  0  0  0  0  0  0  0  0  0  0
   58.9900   29.0350   45.0030 C   0  0  0  0  0  0  0  0  0  0  0  0
   59.0340   30.3430   45.4890 C   0  0  0  0  0  0  0  0  0  0  0  0
   57.8810   31.1500   45.4130 C   0  0  0  0  0  0  0  0  0  0  0  0
   57.8160   32.5790   45.9090 C   0  0  2  0  0  0  0  0  0  0  0  0
   57.2370   33.6150   44.9470 C   0  0  0  0  0  0  0  0  0  0  0  0
   58.7370   33.6060   45.2480 C   0  0  1  0  0  0  0  0  0  0  0  0
   59.2410   34.7710   46.1160 C   0  0  0  0  0  0  0  0  0  0  0  0
   59.9690   34.3240   47.2580 O   0  0  0  0  0  0  0  0  0  0  0  0
   61.2500   33.7660   47.1810 C   0  0  0  0  0  0  0  0  0  0  0  0
   62.2130   34.3470   46.4150 N   0  0  0  0  0  0  0  0  0  0  0  0
   63.4710   33.8410   46.3550 C   0  0  0  0  0  0  0  0  0  0  0  0
   63.7910   32.7070   47.0990 C   0  0  0  0  0  0  0  0  0  0  0  0
   62.8360   32.1150   47.8650 N   0  0  0  0  0  0  0  0  0  0  0  0
   61.5630   32.6070   47.9180 C   0  0  0  0  0  0  0  0  0  0  0  0
   60.5410   31.9290   48.7500 C   0  0  0  0  0  0  0  0  0  0  0  0
   59.9050   32.6160   49.7880 C   0  0  0  0  0  0  0  0  0  0  0  0
   58.9250   31.9790   50.5520 C   0  0  0  0  0  0  0  0  0  0  0  0
   58.2700   32.7030   51.6130 C   0  0  0  0  0  0  0  0  0  0  0  0
   57.7440   33.2860   52.4640 N   0  0  0  0  0  0  0  0  0  0  0  0
   58.5880   30.6450   50.2680 C   0  0  0  0  0  0  0  0  0  0  0  0
   57.6920   30.0680   50.9480 O   0  0  0  0  0  0  0  0  0  0  0  0
   59.2290   29.9710   49.2600 N   0  0  0  0  0  0  0  0  0  0  0  0
   58.8660   28.5800   48.9600 C   0  0  0  0  0  0  0  0  0  0  0  0
   60.1970   30.5890   48.5170 C   0  0  0  0  0  0  0  0  0  0  0  0
   56.7500   30.6290   44.8660 N   0  0  0  0  0  0  0  0  0  0  0  0
   56.6850   29.3570   44.3880 C   0  0  0  0  0  0  0  0  0  0  0  0
   58.7484   25.9573   42.6152 H   0  0  0  0  0  0  0  0  0  0  0  0
   57.1465   26.5951   42.1111 H   0  0  0  0  0  0  0  0  0  0  0  0
   58.5831   27.6735   42.1111 H   0  0  0  0  0  0  0  0  0  0  0  0
   59.8875   28.4015   45.0585 H   0  0  0  0  0  0  0  0  0  0  0  0
   59.9611   30.7406   45.9277 H   0  0  0  0  0  0  0  0  0  0  0  0
   57.6172   32.2758   46.9475 H   0  0  0  0  0  0  0  0  0  0  0  0
   56.8729   33.3031   43.9570 H   0  0  0  0  0  0  0  0  0  0  0  0
   56.4369   34.3677   45.0043 H   0  0  0  0  0  0  0  0  0  0  0  0
   59.6628   33.5380   44.6579 H   0  0  0  0  0  0  0  0  0  0  0  0
   59.8981   35.4077   45.5054 H   0  0  0  0  0  0  0  0  0  0  0  0
   58.3617   35.3258   46.4753 H   0  0  0  0  0  0  0  0  0  0  0  0
   64.2323   34.3225   45.7237 H   0  0  0  0  0  0  0  0  0  0  0  0
   64.8097   32.2933   47.0669 H   0  0  0  0  0  0  0  0  0  0  0  0
   63.0910   31.2560   48.4030 H   0  0  0  0  0  0  0  0  0  0  0  0
   60.1769   33.6599   50.0033 H   0  0  0  0  0  0  0  0  0  0  0  0
   58.7219   28.0277   49.9003 H   0  0  0  0  0  0  0  0  0  0  0  0
   57.9331   28.5620   48.3775 H   0  0  0  0  0  0  0  0  0  0  0  0
   59.6712   28.1084   48.3775 H   0  0  0  0  0  0  0  0  0  0  0  0
   60.7135   30.0269   47.7249 H   0  0  0  0  0  0  0  0  0  0  0  0
   55.7468   28.9798   43.9550 H   0  0  0  0  0  0  0  0  0  0  0  0
  1  2  1  0
  2  3  1  0
  3  4  2  0
  4  5  1  0
  5  6  2  0
  6  7  1  0
  7  8  1  0
  8  9  1  0
  9 10  1  0
 10 11  1  0
 11 12  1  0
 12 13  2  0
 13 14  1  0
 14 15  2  0
 15 16  1  0
 16 17  2  0
 17 18  1  0
 18 19  1  0
 19 20  2  0
 20 21  1  0
 21 22  3  0
 20 23  1  0
 23 24  2  0
 23 25  1  0
 25 26  1  0
 25 27  1  0
  6 28  1  0
 28 29  2  0
 29  3  1  0
  9  7  1  0
 17 12  1  0
 27 18  2  0
  1 30  1  0
  1 31  1  0
  1 32  1  0
  4 33  1  0
  5 34  1  0
  7 35  1  1
  8 36  1  0
  8 37  1  0
  9 38  1  6
 10 39  1  0
 10 40  1  0
 14 41  1  0
 15 42  1  0
 16 43  1  0
 19 44  1  0
 26 45  1  0
 26 46  1  0
 26 47  1  0
 27 48  1  0
 29 49  1  0
M  CHG  1  16   1
M  END
>  <UniqueID>  (80) 
78

>  <SMILES>  (80) 
COc1ccc([C@@H]2C[C@H]2COc2ncc[nH+]c2-c2cc(C#N)c(=O)n(C)c2)nc1

>  <Energy>  (80) 
328.1146346969205

>  <Genealogy>  (80) 
COc1ccc(C2CC2COc2ncc[nH+]c2-c2cc(C#N)c(=O)n(C)c2)nc1 (protonated)
COc1ccc([C@@H]2C[C@H]2COc2ncc[nH+]c2-c2cc(C#N)c(=O)n(C)c2)nc1 (chirality)
COc1ccc([C@@H]2C[C@H]2COc2ncc[nH+]c2-c2cc(C#N)c(=O)n(C)c2)nc1 (3D coordinates assigned)
COc1ccc([C@@H]2C[C@H]2COc2ncc[nH+]c2-c2cc(C#N)c(=O)n(C)c2)nc1 (nonaromatic ring conformer: 328.1146346969205 kcal/mol)

>  <smiles>  (80) 
COc1ccc(C2CC2COc2nccnc2-c2cc(C#N)c(=O)n(C)c2)nc1

>  <score_type>  (80) 
oracle

>  <origin>  (80) 
adg

>  <m_score__min__energy>  (80) 
-6.6799999999999997

>  <m_primary>  (80) 
energy

$$$$
80:0
     RDKit          3D

 42 45  0  0  0  0  0  0  0  0999 V2000
   64.3920   32.9300   48.3740 N   0  0  0  0  0  0  0  0  0  0  0  0
   63.1880   32.9000   47.8730 C   0  0  0  0  0  0  0  0  0  0  0  0
   62.7890   33.8070   46.8910 C   0  0  0  0  0  0  0  0  0  0  0  0
   61.4970   33.7200   46.3880 C   0  0  0  0  0  0  0  0  0  0  0  0
   60.6730   32.7590   46.8680 N   0  0  0  0  0  0  0  0  0  0  0  0
   61.0710   31.8810   47.8240 C   0  0  0  0  0  0  0  0  0  0  0  0
   59.9330   30.6190   48.3470 S   0  0  0  0  0  0  0  0  0  0  0  0
   58.9480   30.0780   46.9550 C   0  0  0  0  0  0  0  0  0  0  0  0
   58.5010   28.7620   46.8440 C   0  0  0  0  0  0  0  0  0  0  0  0
   57.7780   28.3700   45.7430 C   0  0  0  0  0  0  0  0  0  0  0  0
   57.2590   27.0160   45.5540 C   0  0  0  0  0  0  0  0  0  0  0  0
   56.1950   26.7440   46.1610 O   0  0  0  0  0  0  0  0  0  0  0  0
   57.9080   26.0660   44.7370 N   0  0  0  0  0  0  0  0  0  0  0  0
   57.4870   24.7610   44.4700 C   0  0  0  0  0  0  0  0  0  0  0  0
   56.6480   24.3610   43.4640 C   0  0  0  0  0  0  0  0  0  0  0  0
   56.2790   23.0430   43.2600 C   0  0  0  0  0  0  0  0  0  0  0  0
   56.7500   22.0260   44.0780 C   0  0  0  0  0  0  0  0  0  0  0  0
   56.2830   20.3770   43.8040 Cl  0  0  0  0  0  0  0  0  0  0  0  0
   57.6020   22.4170   45.1020 C   0  0  0  0  0  0  0  0  0  0  0  0
   57.9620   23.7380   45.2970 C   0  0  0  0  0  0  0  0  0  0  0  0
   58.8040   24.0250   46.3440 F   0  0  0  0  0  0  0  0  0  0  0  0
   57.5170   29.3300   44.7560 C   0  0  0  0  0  0  0  0  0  0  0  0
   56.8100   29.0290   43.6140 C   0  0  0  0  0  0  0  0  0  0  0  0
   56.5510   29.9760   42.6210 C   0  0  0  0  0  0  0  0  0  0  0  0
   57.0160   31.2550   42.7870 C   0  0  0  0  0  0  0  0  0  0  0  0
   57.7310   31.5840   43.9300 C   0  0  0  0  0  0  0  0  0  0  0  0
   57.9690   30.6230   44.8890 C   0  0  0  0  0  0  0  0  0  0  0  0
   58.6720   30.9770   45.9780 N   0  0  0  0  0  0  0  0  0  0  0  0
   62.3380   31.9680   48.3150 N   0  0  0  0  0  0  0  0  0  0  0  0
   65.2540   32.8020   47.7930 H   0  0  0  0  0  0  0  0  0  0  0  0
   63.4838   34.5759   46.5222 H   0  0  0  0  0  0  0  0  0  0  0  0
   61.1496   34.4195   45.6134 H   0  0  0  0  0  0  0  0  0  0  0  0
   59.7020   32.7140   46.4790 H   0  0  0  0  0  0  0  0  0  0  0  0
   58.7274   28.0363   47.6390 H   0  0  0  0  0  0  0  0  0  0  0  0
   58.8200   26.4080   44.2920 H   0  0  0  0  0  0  0  0  0  0  0  0
   56.2470   25.1266   42.7835 H   0  0  0  0  0  0  0  0  0  0  0  0
   55.5981   22.7964   42.4320 H   0  0  0  0  0  0  0  0  0  0  0  0
   58.0041   21.6506   45.7809 H   0  0  0  0  0  0  0  0  0  0  0  0
   56.4349   28.0039   43.4785 H   0  0  0  0  0  0  0  0  0  0  0  0
   55.9831   29.7003   41.7202 H   0  0  0  0  0  0  0  0  0  0  0  0
   56.8232   32.0171   42.0176 H   0  0  0  0  0  0  0  0  0  0  0  0
   58.1066   32.6084   44.0702 H   0  0  0  0  0  0  0  0  0  0  0  0
  1  2  2  3
  2  3  1  0
  3  4  2  0
  4  5  1  0
  5  6  1  0
  6  7  1  0
  7  8  1  0
  8  9  2  0
  9 10  1  0
 10 11  1  0
 11 12  2  0
 11 13  1  0
 13 14  1  0
 14 15  2  0
 15 16  1  0
 16 17  2  0
 17 18  1  0
 17 19  1  0
 19 20  2  0
 20 21  1  0
 10 22  2  0
 22 23  1  0
 23 24  2  0
 24 25  1  0
 25 26  2  0
 26 27  1  0
 27 28  2  0
  6 29  2  0
 29  2  1  0
 28  8  1  0
 20 14  1  0
 27 22  1  0
  1 30  1  0
  3 31  1  0
  4 32  1  0
  5 33  1  0
  9 34  1  0
 13 35  1  0
 15 36  1  0
 16 37  1  0
 19 38  1  0
 23 39  1  0
 24 40  1  0
 25 41  1  0
 26 42  1  0
M  END
>  <smiles>  (81) 
N=c1cc[nH]c(Sc2cc(C(=O)Nc3ccc(Cl)cc3F)c3ccccc3n2)n1

>  <score_type>  (81) 
oracle

>  <origin>  (81) 
adg

>  <m_score__min__energy>  (81) 
-8.6400000000000006

>  <m_primary>  (81) 
energy

$$$$
81:0
     RDKit          3D

 47 50  0  0  0  0  0  0  0  0999 V2000
   63.3770   33.4670   46.0730 O   0  0  0  0  0  0  0  0  0  0  0  0
   62.5690   33.6110   47.0290 C   0  0  0  0  0  0  0  0  0  0  0  0
   62.8910   33.7710   48.4380 C   0  0  0  0  0  0  0  0  0  0  0  0
   64.0530   33.7750   48.9260 O   0  0  0  0  0  0  0  0  0  0  0  0
   61.6920   33.9100   49.2060 N   0  0  0  0  0  0  0  0  0  0  0  0
   61.5810   33.7280   50.6530 C   0  0  0  0  0  0  0  0  0  0  0  0
   60.3880   32.8690   50.9790 C   0  0  0  0  0  0  0  0  0  0  0  0
   60.3880   31.5010   50.6600 C   0  0  0  0  0  0  0  0  0  0  0  0
   59.2940   30.6970   51.0040 C   0  0  0  0  0  0  0  0  0  0  0  0
   58.1990   31.2520   51.6710 C   0  0  0  0  0  0  0  0  0  0  0  0
   57.1410   30.4720   52.0050 F   0  0  0  0  0  0  0  0  0  0  0  0
   58.1950   32.6120   51.9970 C   0  0  0  0  0  0  0  0  0  0  0  0
   59.2860   33.4180   51.6560 C   0  0  0  0  0  0  0  0  0  0  0  0
   60.6340   33.8060   48.2430 C   0  0  0  0  0  0  0  0  0  0  0  0
   59.2590   33.8740   48.4850 C   0  0  0  0  0  0  0  0  0  0  0  0
   58.3820   33.7610   47.3940 C   0  0  0  0  0  0  0  0  0  0  0  0
   58.8800   33.5840   46.0830 C   0  0  0  0  0  0  0  0  0  0  0  0
   57.7500   33.4720   44.7370 S   0  0  0  0  0  0  0  0  0  0  0  0
   56.8720   34.6920   44.6870 O   0  0  0  0  0  0  0  0  0  0  0  0
   58.5270   33.3760   43.4530 O   0  0  0  0  0  0  0  0  0  0  0  0
   56.7630   32.0530   44.9210 N   0  0  0  0  0  0  0  0  0  0  0  0
   57.4520   30.8940   44.3500 C   0  0  0  0  0  0  0  0  0  0  0  0
   58.4070   30.3300   45.3650 C   0  0  0  0  0  0  0  0  0  0  0  0
   59.5820   29.6800   44.9520 C   0  0  0  0  0  0  0  0  0  0  0  0
   60.4850   29.1870   45.9000 C   0  0  0  0  0  0  0  0  0  0  0  0
   60.2260   29.3490   47.2650 C   0  0  0  0  0  0  0  0  0  0  0  0
   61.1030   28.8710   48.1830 F   0  0  0  0  0  0  0  0  0  0  0  0
   59.0660   30.0080   47.6820 C   0  0  0  0  0  0  0  0  0  0  0  0
   58.1620   30.5030   46.7370 C   0  0  0  0  0  0  0  0  0  0  0  0
   60.2690   33.5200   45.8580 C   0  0  0  0  0  0  0  0  0  0  0  0
   61.1170   33.6370   46.9560 C   0  0  0  0  0  0  0  0  0  0  0  0
   62.4929   33.2412   51.0290 H   0  0  0  0  0  0  0  0  0  0  0  0
   61.4564   34.7114   51.1300 H   0  0  0  0  0  0  0  0  0  0  0  0
   61.2501   31.0597   50.1383 H   0  0  0  0  0  0  0  0  0  0  0  0
   59.2969   29.6271   50.7487 H   0  0  0  0  0  0  0  0  0  0  0  0
   57.3327   33.0484   52.5223 H   0  0  0  0  0  0  0  0  0  0  0  0
   59.2813   34.4861   51.9189 H   0  0  0  0  0  0  0  0  0  0  0  0
   58.8731   34.0127   49.5057 H   0  0  0  0  0  0  0  0  0  0  0  0
   57.2960   33.8108   47.5614 H   0  0  0  0  0  0  0  0  0  0  0  0
   56.6490   31.8910   45.9480 H   0  0  0  0  0  0  0  0  0  0  0  0
   56.7133   30.1267   44.0753 H   0  0  0  0  0  0  0  0  0  0  0  0
   58.0094   31.2032   43.4535 H   0  0  0  0  0  0  0  0  0  0  0  0
   59.7928   29.5582   43.8793 H   0  0  0  0  0  0  0  0  0  0  0  0
   61.3996   28.6715   45.5716 H   0  0  0  0  0  0  0  0  0  0  0  0
   58.8639   30.1374   48.7555 H   0  0  0  0  0  0  0  0  0  0  0  0
   57.2555   31.0299   47.0695 H   0  0  0  0  0  0  0  0  0  0  0  0
   60.6721   33.3816   44.8439 H   0  0  0  0  0  0  0  0  0  0  0  0
  1  2  2  0
  2  3  1  0
  3  4  2  0
  3  5  1  0
  5  6  1  0
  6  7  1  0
  7  8  2  0
  8  9  1  0
  9 10  2  0
 10 11  1  0
 10 12  1  0
 12 13  2  0
  5 14  1  0
 14 15  2  0
 15 16  1  0
 16 17  2  0
 17 18  1  0
 18 19  2  0
 18 20  2  0
 18 21  1  0
 21 22  1  0
 22 23  1  0
 23 24  2  0
 24 25  1  0
 25 26  2  0
 26 27  1  0
 26 28  1  0
 28 29  2  0
 17 30  1  0
 30 31  2  0
 31  2  1  0
 13  7  1  0
 31 14  1  0
 29 23  1  0
  6 32  1  0
  6 33  1  0
  8 34  1  0
  9 35  1  0
 12 36  1  0
 13 37  1  0
 15 38  1  0
 16 39  1  0
 21 40  1  0
 22 41  1  0
 22 42  1  0
 24 43  1  0
 25 44  1  0
 28 45  1  0
 29 46  1  0
 30 47  1  0
M  END
>  <UniqueID>  (82) 
79

>  <SMILES>  (82) 
O=C1C(=O)N(Cc2ccc(F)cc2)c2ccc(S(=O)(=O)NCc3ccc(F)cc3)cc21

>  <Energy>  (82) 
78.57753669626415

>  <Genealogy>  (82) 
O=C1C(=O)N(Cc2ccc(F)cc2)c2ccc(S(=O)(=O)NCc3ccc(F)cc3)cc21 (3D coordinates assigned)
O=C1C(=O)N(Cc2ccc(F)cc2)c2ccc(S(=O)(=O)NCc3ccc(F)cc3)cc21 (nonaromatic ring conformer: 78.57753669626415 kcal/mol)

>  <smiles>  (82) 
O=C1C(=O)N(Cc2ccc(F)cc2)c2ccc(S(=O)(=O)NCc3ccc(F)cc3)cc21

>  <score_type>  (82) 
oracle

>  <origin>  (82) 
adg

>  <m_score__min__energy>  (82) 
-9.6199999999999992

>  <m_primary>  (82) 
energy

$$$$
82:0
     RDKit          3D

 52 55  0  0  0  0  0  0  0  0999 V2000
   57.3353   34.6851   44.6516 H   0  0  0  0  0  0  0  0  0  0  0  0
   57.6050   33.6520   44.9160 C   0  0  0  0  0  0  0  0  0  0  0  0
   57.0540   32.6130   44.2380 N   0  0  0  0  0  0  0  0  0  0  0  0
   57.3690   31.3210   44.5270 C   0  0  0  0  0  0  0  0  0  0  0  0
   56.9048   30.5042   43.9549 H   0  0  0  0  0  0  0  0  0  0  0  0
   58.2830   31.0240   45.5510 C   0  0  0  0  0  0  0  0  0  0  0  0
   58.7410   29.3420   45.8590 S   0  0  0  0  0  0  0  0  0  0  0  0
   58.6850   29.0670   47.3340 O   0  0  0  0  0  0  0  0  0  0  0  0
   60.1350   29.1250   45.3480 O   0  0  0  0  0  0  0  0  0  0  0  0
   57.6070   28.3230   45.0320 N   0  0  0  0  0  0  0  0  0  0  0  0
   56.8790   27.3440   45.4870 C   0  0  0  0  0  0  0  0  0  0  0  0
   55.5770   27.4550   45.6070 O   0  0  0  0  0  0  0  0  0  0  0  0
   55.0460   26.3630   46.0710 N   0  0  0  0  0  0  0  0  0  0  0  0
   56.0500   25.4880   46.2670 C   0  0  0  0  0  0  0  0  0  0  0  0
   55.8410   24.1000   46.7870 C   0  0  0  0  0  0  0  0  0  0  0  0
   55.8434   24.1163   47.8869 H   0  0  0  0  0  0  0  0  0  0  0  0
   54.8748   23.7156   46.4281 H   0  0  0  0  0  0  0  0  0  0  0  0
   56.6511   23.4481   46.4281 H   0  0  0  0  0  0  0  0  0  0  0  0
   57.2580   26.0710   45.9130 C   0  0  0  0  0  0  0  0  0  0  0  0
   58.5980   25.3960   45.9350 C   0  0  0  0  0  0  0  0  0  0  0  0
   58.9118   25.2379   46.9774 H   0  0  0  0  0  0  0  0  0  0  0  0
   58.5282   24.4255   45.4219 H   0  0  0  0  0  0  0  0  0  0  0  0
   59.3363   26.0298   45.4219 H   0  0  0  0  0  0  0  0  0  0  0  0
   58.8530   32.0920   46.2810 C   0  0  0  0  0  0  0  0  0  0  0  0
   59.8030   31.8640   47.3860 C   0  0  0  0  0  0  0  0  0  0  0  0
   61.1070   31.4270   47.1170 C   0  0  0  0  0  0  0  0  0  0  0  0
   61.4256   31.2597   46.0775 H   0  0  0  0  0  0  0  0  0  0  0  0
   62.0040   31.2030   48.1650 C   0  0  0  0  0  0  0  0  0  0  0  0
   63.0315   30.8764   47.9468 H   0  0  0  0  0  0  0  0  0  0  0  0
   61.5970   31.3940   49.4990 C   0  0  0  0  0  0  0  0  0  0  0  0
   62.4710   31.1800   50.5730 O   0  0  0  0  0  0  0  0  0  0  0  0
   63.8240   31.5580   50.5940 C   0  0  0  0  0  0  0  0  0  0  0  0
   64.2640   32.7620   50.0180 C   0  0  0  0  0  0  0  0  0  0  0  0
   63.5384   33.4391   49.5436 H   0  0  0  0  0  0  0  0  0  0  0  0
   65.6180   33.1030   50.0450 C   0  0  0  0  0  0  0  0  0  0  0  0
   65.9521   34.0468   49.5893 H   0  0  0  0  0  0  0  0  0  0  0  0
   66.5530   32.2540   50.6470 C   0  0  0  0  0  0  0  0  0  0  0  0
   67.8990   32.6500   50.6660 O   0  0  0  0  0  0  0  0  0  0  0  0
   68.3490   33.9740   50.4030 C   0  0  0  0  0  0  0  0  0  0  0  0
   68.5266   34.4967   51.3544 H   0  0  0  0  0  0  0  0  0  0  0  0
   69.2845   33.9354   49.8256 H   0  0  0  0  0  0  0  0  0  0  0  0
   67.5837   34.5135   49.8256 H   0  0  0  0  0  0  0  0  0  0  0  0
   66.1140   31.0380   51.2050 C   0  0  0  0  0  0  0  0  0  0  0  0
   66.8402   30.3555   51.6706 H   0  0  0  0  0  0  0  0  0  0  0  0
   64.7590   30.6940   51.1700 C   0  0  0  0  0  0  0  0  0  0  0  0
   64.4270   29.7369   51.5987 H   0  0  0  0  0  0  0  0  0  0  0  0
   60.2990   31.8450   49.7620 C   0  0  0  0  0  0  0  0  0  0  0  0
   59.9826   32.0261   50.7998 H   0  0  0  0  0  0  0  0  0  0  0  0
   59.4010   32.0670   48.7120 C   0  0  0  0  0  0  0  0  0  0  0  0
   58.3760   32.4021   48.9289 H   0  0  0  0  0  0  0  0  0  0  0  0
   58.5140   33.4110   45.9490 C   0  0  0  0  0  0  0  0  0  0  0  0
   58.9614   34.2520   46.4991 H   0  0  0  0  0  0  0  0  0  0  0  0
  1  2  1  0
  2  3  2  0
  3  4  1  0
  4  5  1  0
  4  6  2  0
  6  7  1  0
  7  8  2  0
  7  9  2  0
  7 10  1  0
 10 11  2  0
 11 12  1  0
 12 13  1  0
 13 14  1  0
 14 15  1  0
 15 16  1  0
 15 17  1  0
 15 18  1  0
 14 19  2  0
 19 20  1  0
 20 21  1  0
 20 22  1  0
 20 23  1  0
  6 24  1  0
 24 25  1  0
 25 26  2  0
 26 27  1  0
 26 28  1  0
 28 29  1  0
 28 30  2  0
 30 31  1  0
 31 32  1  0
 32 33  2  0
 33 34  1  0
 33 35  1  0
 35 36  1  0
 35 37  2  0
 37 38  1  0
 38 39  1  0
 39 40  1  0
 39 41  1  0
 39 42  1  0
 37 43  1  0
 43 44  1  0
 43 45  2  0
 45 46  1  0
 30 47  1  0
 47 48  1  0
 47 49  2  0
 49 50  1  0
 24 51  2  0
 51 52  1  0
 51  2  1  0
 19 11  1  0
 49 25  1  0
 45 32  1  0
M  CHG  1  13  -1
M  END
>  <UniqueID>  (83) 
80

>  <SMILES>  (83) 
COc1ccc(Oc2ccc(-c3ccncc3S(=O)(=O)/N=c3/o[n-]c(C)c3C)cc2)cc1

>  <Energy>  (83) 
110.7476516098392

>  <Genealogy>  (83) 
COc1ccc(Oc2ccc(-c3ccncc3S(=O)(=O)N=c3o[n-]c(C)c3C)cc2)cc1 (protonated)
COc1ccc(Oc2ccc(-c3ccncc3S(=O)(=O)/N=c3/o[n-]c(C)c3C)cc2)cc1 (cis-trans isomerization)
COc1ccc(Oc2ccc(-c3ccncc3S(=O)(=O)/N=c3/o[n-]c(C)c3C)cc2)cc1 (3D coordinates assigned)
COc1ccc(Oc2ccc(-c3ccncc3S(=O)(=O)/N=c3/o[n-]c(C)c3C)cc2)cc1 (optimized conformer: 110.7476516098392 kcal/mol)

>  <smiles>  (83) 
COc1ccc(Oc2ccc(-c3ccncc3S(=O)(=O)N=c3o[nH]c(C)c3C)cc2)cc1

>  <score_type>  (83) 
oracle

>  <origin>  (83) 
adg

>  <m_score__min__energy>  (83) 
-11.4

>  <m_primary>  (83) 
energy

$$$$
83:0
     RDKit          3D

 37 39  0  0  0  0  0  0  0  0999 V2000
   56.3190   27.6530   44.9000 H   0  0  0  0  0  0  0  0  0  0  0  0
   55.8410   28.5260   45.0880 O   0  0  0  0  0  0  0  0  0  0  0  0
   56.5330   29.7320   45.1570 C   0  0  0  0  0  0  0  0  0  0  0  0
   56.1500   30.8390   44.4900 N   0  0  0  0  0  0  0  0  0  0  0  0
   57.0680   31.7570   44.8610 C   0  0  0  0  0  0  0  0  0  0  0  0
   57.0510   32.9440   44.4430 O   0  0  0  0  0  0  0  0  0  0  0  0
   57.9910   31.2850   45.7280 N   0  0  0  0  0  0  0  0  0  0  0  0
   59.1180   31.9960   46.2660 C   0  0  0  0  0  0  0  0  0  0  0  0
   60.2920   31.3100   46.6170 C   0  0  0  0  0  0  0  0  0  0  0  0
   60.3514   30.2202   46.4801 H   0  0  0  0  0  0  0  0  0  0  0  0
   61.3860   32.0070   47.1400 C   0  0  0  0  0  0  0  0  0  0  0  0
   62.3055   31.4657   47.4076 H   0  0  0  0  0  0  0  0  0  0  0  0
   61.3120   33.3910   47.3230 C   0  0  0  0  0  0  0  0  0  0  0  0
   62.1745   33.9385   47.7309 H   0  0  0  0  0  0  0  0  0  0  0  0
   60.1430   34.0790   46.9880 C   0  0  0  0  0  0  0  0  0  0  0  0
   60.0845   35.1675   47.1357 H   0  0  0  0  0  0  0  0  0  0  0  0
   59.0470   33.3850   46.4650 C   0  0  0  0  0  0  0  0  0  0  0  0
   58.1259   33.9288   46.2085 H   0  0  0  0  0  0  0  0  0  0  0  0
   57.6660   29.9880   45.9080 C   0  0  0  0  0  0  0  0  0  0  0  0
   58.4390   29.0210   46.7180 C   0  0  0  0  0  0  0  0  0  0  0  0
   58.4921   29.1793   47.8053 H   0  0  0  0  0  0  0  0  0  0  0  0
   59.0810   27.9580   46.1980 C   0  0  0  0  0  0  0  0  0  0  0  0
   60.3330   28.1230   45.4910 C   0  0  0  0  0  0  0  0  0  0  0  0
   61.3320   28.2560   44.9240 N   0  0  0  0  0  0  0  0  0  0  0  0
   58.5510   26.5860   46.3780 C   0  0  0  0  0  0  0  0  0  0  0  0
   59.3570   25.6320   46.5480 O   0  0  0  0  0  0  0  0  0  0  0  0
   57.1310   26.3620   46.4470 N   0  0  0  0  0  0  0  0  0  0  0  0
   56.4050   25.4720   45.8310 C   0  0  0  0  0  0  0  0  0  0  0  0
   55.0540   25.5200   45.9960 N   0  0  0  0  0  0  0  0  0  0  0  0
   54.2120   24.6420   45.3900 C   0  0  0  0  0  0  0  0  0  0  0  0
   53.1273   24.7154   45.5574 H   0  0  0  0  0  0  0  0  0  0  0  0
   54.7230   23.6480   44.5560 C   0  0  0  0  0  0  0  0  0  0  0  0
   54.0481   22.9287   44.0690 H   0  0  0  0  0  0  0  0  0  0  0  0
   56.0990   23.5770   44.3470 C   0  0  0  0  0  0  0  0  0  0  0  0
   56.5150   22.8022   43.6862 H   0  0  0  0  0  0  0  0  0  0  0  0
   56.9510   24.4890   44.9760 C   0  0  0  0  0  0  0  0  0  0  0  0
   58.0369   24.4418   44.8068 H   0  0  0  0  0  0  0  0  0  0  0  0
  1  2  1  0
  2  3  1  0
  3  4  1  0
  4  5  1  0
  5  6  2  0
  5  7  1  0
  7  8  1  0
  8  9  2  0
  9 10  1  0
  9 11  1  0
 11 12  1  0
 11 13  2  0
 13 14  1  0
 13 15  1  0
 15 16  1  0
 15 17  2  0
 17 18  1  0
  7 19  1  0
 19 20  1  0
 20 21  1  0
 20 22  2  0
 22 23  1  0
 23 24  3  0
 22 25  1  0
 25 26  2  0
 25 27  1  0
 27 28  2  3
 28 29  1  0
 29 30  1  0
 30 31  1  0
 30 32  2  0
 32 33  1  0
 32 34  1  0
 34 35  1  0
 34 36  2  0
 36 37  1  0
 19  3  2  0
 36 28  1  0
 17  8  1  0
M  CHG  2   4  -1  29  -1
M  END
>  <UniqueID>  (84) 
81

>  <SMILES>  (84) 
N#C/C(=C\c1c(O)[n-]c(=O)n1-c1ccccc1)C(=O)N=c1cccc[n-]1

>  <Energy>  (84) 
92.07081648488816

>  <Genealogy>  (84) 
N#CC(=Cc1c(O)[n-]c(=O)n1-c1ccccc1)C(=O)N=c1cccc[n-]1 (protonated)
N#C/C(=C\c1c(O)[n-]c(=O)n1-c1ccccc1)C(=O)N=c1cccc[n-]1 (cis-trans isomerization)
N#C/C(=C\c1c(O)[n-]c(=O)n1-c1ccccc1)C(=O)N=c1cccc[n-]1 (3D coordinates assigned)
N#C/C(=C\c1c(O)[n-]c(=O)n1-c1ccccc1)C(=O)N=c1cccc[n-]1 (optimized conformer: 92.07081648488816 kcal/mol)

>  <smiles>  (84) 
N#CC(=Cc1c(O)[nH]c(=O)n1-c1ccccc1)C(=O)N=c1cccc[nH]1

>  <score_type>  (84) 
oracle

>  <origin>  (84) 
adg

>  <m_score__min__energy>  (84) 
-10.66

>  <m_primary>  (84) 
energy

$$$$
84:0
     RDKit          3D

 55 59  0  0  0  0  0  0  0  0999 V2000
   62.6220   32.8360   47.4490 O   0  0  0  0  0  0  0  0  0  0  0  0
   61.4060   32.5190   47.5220 C   0  0  0  0  0  0  0  0  0  0  0  0
   60.9790   31.5200   48.4600 N   0  0  0  0  0  0  0  0  0  0  0  0
   59.6750   31.4800   49.1260 C   0  0  0  0  0  0  0  0  0  0  0  0
   59.4880   32.6870   50.0880 C   0  0  0  0  0  0  0  0  0  0  0  0
   59.1970   32.2550   51.5270 C   0  0  0  0  0  0  0  0  0  0  0  0
   58.0980   31.2820   51.5360 N   0  0  0  0  0  0  0  0  0  0  0  0
   56.8390   31.6180   52.1630 C   0  0  0  0  0  0  0  0  0  0  0  0
   56.5520   32.8270   52.3850 O   0  0  0  0  0  0  0  0  0  0  0  0
   55.8370   30.5870   52.5010 C   0  0  0  0  0  0  0  0  0  0  0  0
   56.2000   29.5040   53.3190 C   0  0  0  0  0  0  0  0  0  0  0  0
   55.2540   28.5360   53.6660 C   0  0  0  0  0  0  0  0  0  0  0  0
   53.9450   28.6310   53.1840 C   0  0  0  0  0  0  0  0  0  0  0  0
   53.5830   29.6870   52.3450 C   0  0  0  0  0  0  0  0  0  0  0  0
   54.5280   30.6570   51.9930 C   0  0  0  0  0  0  0  0  0  0  0  0
   58.1800   30.1050   50.6490 C   0  0  0  0  0  0  0  0  0  0  0  0
   59.4620   30.1110   49.8050 C   0  0  0  0  0  0  0  0  0  0  0  0
   60.4010   33.2270   46.6970 C   0  0  0  0  0  0  0  0  0  0  0  0
   60.4920   34.6250   46.5950 C   0  0  0  0  0  0  0  0  0  0  0  0
   59.6380   35.3350   45.7550 C   0  0  0  0  0  0  0  0  0  0  0  0
   58.6810   34.6600   45.0000 C   0  0  0  0  0  0  0  0  0  0  0  0
   58.5520   33.2690   45.0910 C   0  0  0  0  0  0  0  0  0  0  0  0
   59.3920   32.5430   45.9640 C   0  0  0  0  0  0  0  0  0  0  0  0
   59.1910   31.1280   46.1000 N   0  0  0  0  0  0  0  0  0  0  0  0
   58.4140   30.4010   45.1420 C   0  0  0  0  0  0  0  0  0  0  0  0
   58.4780   29.0010   45.0980 C   0  0  0  0  0  0  0  0  0  0  0  0
   57.7380   28.2930   44.1500 C   0  0  0  0  0  0  0  0  0  0  0  0
   56.9230   28.9770   43.2470 C   0  0  0  0  0  0  0  0  0  0  0  0
   56.8500   30.3700   43.2870 C   0  0  0  0  0  0  0  0  0  0  0  0
   57.6000   31.0930   44.2270 C   0  0  0  0  0  0  0  0  0  0  0  0
   57.4550   32.5920   44.3040 C   0  0  0  0  0  0  0  0  0  0  0  0
   58.8835   31.5848   48.3693 H   0  0  0  0  0  0  0  0  0  0  0  0
   60.4086   33.2890   50.0805 H   0  0  0  0  0  0  0  0  0  0  0  0
   58.6218   33.2644   49.7326 H   0  0  0  0  0  0  0  0  0  0  0  0
   60.0972   31.7946   51.9602 H   0  0  0  0  0  0  0  0  0  0  0  0
   58.9109   33.1349   52.1219 H   0  0  0  0  0  0  0  0  0  0  0  0
   57.2328   29.4178   53.6877 H   0  0  0  0  0  0  0  0  0  0  0  0
   55.5395   27.6982   54.3192 H   0  0  0  0  0  0  0  0  0  0  0  0
   53.1994   27.8730   53.4660 H   0  0  0  0  0  0  0  0  0  0  0  0
   52.5546   29.7563   51.9607 H   0  0  0  0  0  0  0  0  0  0  0  0
   54.2457   31.4771   51.3165 H   0  0  0  0  0  0  0  0  0  0  0  0
   58.1644   29.1939   51.2651 H   0  0  0  0  0  0  0  0  0  0  0  0
   57.3207   30.1353   49.9629 H   0  0  0  0  0  0  0  0  0  0  0  0
   60.3218   29.8957   50.4565 H   0  0  0  0  0  0  0  0  0  0  0  0
   59.3678   29.3441   49.0220 H   0  0  0  0  0  0  0  0  0  0  0  0
   61.2466   35.1652   47.1855 H   0  0  0  0  0  0  0  0  0  0  0  0
   59.7190   36.4299   45.6874 H   0  0  0  0  0  0  0  0  0  0  0  0
   58.0206   35.2255   44.3261 H   0  0  0  0  0  0  0  0  0  0  0  0
   59.6170   30.5950   46.8930 H   0  0  0  0  0  0  0  0  0  0  0  0
   59.1138   28.4588   45.8133 H   0  0  0  0  0  0  0  0  0  0  0  0
   57.7972   27.1952   44.1145 H   0  0  0  0  0  0  0  0  0  0  0  0
   56.3374   28.4174   42.5028 H   0  0  0  0  0  0  0  0  0  0  0  0
   56.2009   30.9042   42.5776 H   0  0  0  0  0  0  0  0  0  0  0  0
   57.4629   32.9946   43.2804 H   0  0  0  0  0  0  0  0  0  0  0  0
   56.5101   32.7968   44.8285 H   0  0  0  0  0  0  0  0  0  0  0  0
  1  2  2  0
  2  3  1  0
  3  4  1  0
  4  5  1  0
  5  6  1  0
  6  7  1  0
  7  8  1  0
  8  9  2  0
  8 10  1  0
 10 11  2  0
 11 12  1  0
 12 13  2  0
 13 14  1  0
 14 15  2  0
  7 16  1  0
 16 17  1  0
  2 18  1  0
 18 19  2  0
 19 20  1  0
 20 21  2  0
 21 22  1  0
 22 23  2  0
 23 24  1  0
 24 25  1  0
 25 26  2  0
 26 27  1  0
 27 28  2  0
 28 29  1  0
 29 30  2  0
 30 31  1  0
 17  4  1  0
 23 18  1  0
 30 25  1  0
 15 10  1  0
 31 22  1  0
  4 32  1  0
  5 33  1  0
  5 34  1  0
  6 35  1  0
  6 36  1  0
 11 37  1  0
 12 38  1  0
 13 39  1  0
 14 40  1  0
 15 41  1  0
 16 42  1  0
 16 43  1  0
 17 44  1  0
 17 45  1  0
 19 46  1  0
 20 47  1  0
 21 48  1  0
 24 49  1  0
 26 50  1  0
 27 51  1  0
 28 52  1  0
 29 53  1  0
 31 54  1  0
 31 55  1  0
M  CHG  1   3  -1
M  END
>  <UniqueID>  (85) 
82

>  <SMILES>  (85) 
O=C([N-]C1CCN(C(=O)c2ccccc2)CC1)c1cccc2c1Nc1ccccc1C2

>  <Energy>  (85) 
77.42337001729334

>  <Genealogy>  (85) 
O=C([N-]C1CCN(C(=O)c2ccccc2)CC1)c1cccc2c1Nc1ccccc1C2 (protonated)
O=C([N-]C1CCN(C(=O)c2ccccc2)CC1)c1cccc2c1Nc1ccccc1C2 (3D coordinates assigned)
O=C([N-]C1CCN(C(=O)c2ccccc2)CC1)c1cccc2c1Nc1ccccc1C2 (nonaromatic ring conformer: 77.42337001729334 kcal/mol)

>  <smiles>  (85) 
O=C(NC1CCN(C(=O)c2ccccc2)CC1)c1cccc2c1Nc1ccccc1C2

>  <score_type>  (85) 
oracle

>  <origin>  (85) 
adg

>  <m_score__min__energy>  (85) 
-11.68

>  <m_primary>  (85) 
energy

$$$$
85:0
     RDKit          3D

 53 55  0  0  0  0  0  0  0  0999 V2000
   58.4640   31.7230   47.5390 C   0  0  0  0  0  0  0  0  0  0  0  0
   58.6740   32.8690   46.5830 C   0  0  0  0  0  0  0  0  0  0  0  0
   58.3690   32.7800   45.2100 C   0  0  0  0  0  0  0  0  0  0  0  0
   57.8440   31.6210   44.4600 C   0  0  0  0  0  0  0  0  0  0  0  0
   58.3500   31.3290   43.3430 O   0  0  0  0  0  0  0  0  0  0  0  0
   56.7920   30.8140   44.9970 N   0  0  0  0  0  0  0  0  0  0  0  0
   56.7510   29.3600   44.8890 C   0  0  0  0  0  0  0  0  0  0  0  0
   58.0150   28.7630   45.4450 C   0  0  0  0  0  0  0  0  0  0  0  0
   58.0070   28.1540   46.7110 C   0  0  0  0  0  0  0  0  0  0  0  0
   59.1720   27.5760   47.2230 C   0  0  0  0  0  0  0  0  0  0  0  0
   60.3520   27.6010   46.4750 C   0  0  0  0  0  0  0  0  0  0  0  0
   60.3680   28.2000   45.2130 C   0  0  0  0  0  0  0  0  0  0  0  0
   59.2040   28.7780   44.6960 C   0  0  0  0  0  0  0  0  0  0  0  0
   58.7290   34.2580   44.4880 S   0  0  0  0  0  0  0  0  0  0  0  0
   59.2720   34.9430   45.9140 C   0  0  0  0  0  0  0  0  0  0  0  0
   59.7150   36.1190   45.9990 O   0  0  0  0  0  0  0  0  0  0  0  0
   59.1910   34.0850   46.9620 N   0  0  0  0  0  0  0  0  0  0  0  0
   59.6540   34.4310   48.3170 C   0  0  0  0  0  0  0  0  0  0  0  0
   61.0620   33.9420   48.5410 C   0  0  0  0  0  0  0  0  0  0  0  0
   61.5640   33.8090   49.8450 C   0  0  0  0  0  0  0  0  0  0  0  0
   62.8680   33.3530   50.0570 C   0  0  0  0  0  0  0  0  0  0  0  0
   63.6910   33.0260   48.9740 C   0  0  0  0  0  0  0  0  0  0  0  0
   64.9900   32.5660   49.2360 O   0  0  0  0  0  0  0  0  0  0  0  0
   65.4410   32.0750   50.4690 C   0  0  0  0  0  0  0  0  0  0  0  0
   65.1100   30.9190   50.8590 O   0  0  0  0  0  0  0  0  0  0  0  0
   66.3490   32.8730   51.2560 N   0  0  0  0  0  0  0  0  0  0  0  0
   67.5230   33.2550   50.4560 C   0  0  0  0  0  0  0  0  0  0  0  0
   65.6590   34.0620   51.7770 C   0  0  0  0  0  0  0  0  0  0  0  0
   63.1800   33.1280   47.6670 C   0  0  0  0  0  0  0  0  0  0  0  0
   61.8750   33.5820   47.4540 C   0  0  0  0  0  0  0  0  0  0  0  0
   58.5315   32.0913   48.5733 H   0  0  0  0  0  0  0  0  0  0  0  0
   57.4702   31.2825   47.3707 H   0  0  0  0  0  0  0  0  0  0  0  0
   59.2371   30.9588   47.3707 H   0  0  0  0  0  0  0  0  0  0  0  0
   55.8887   28.9776   45.4549 H   0  0  0  0  0  0  0  0  0  0  0  0
   56.6576   29.0808   43.8291 H   0  0  0  0  0  0  0  0  0  0  0  0
   57.0795   28.1320   47.3020 H   0  0  0  0  0  0  0  0  0  0  0  0
   59.1600   27.1012   48.2152 H   0  0  0  0  0  0  0  0  0  0  0  0
   61.2692   27.1486   46.8802 H   0  0  0  0  0  0  0  0  0  0  0  0
   61.2975   28.2171   44.6250 H   0  0  0  0  0  0  0  0  0  0  0  0
   59.2193   29.2456   43.7004 H   0  0  0  0  0  0  0  0  0  0  0  0
   59.6277   35.5239   48.4393 H   0  0  0  0  0  0  0  0  0  0  0  0
   58.9915   33.9484   49.0506 H   0  0  0  0  0  0  0  0  0  0  0  0
   60.9276   34.0651   50.7049 H   0  0  0  0  0  0  0  0  0  0  0  0
   63.2502   33.2504   51.0834 H   0  0  0  0  0  0  0  0  0  0  0  0
   66.6800   32.3010   52.0690 H   0  0  0  0  0  0  0  0  0  0  0  0
   68.3519   33.5247   51.1270 H   0  0  0  0  0  0  0  0  0  0  0  0
   67.8254   32.4089   49.8214 H   0  0  0  0  0  0  0  0  0  0  0  0
   67.2696   34.1170   49.8214 H   0  0  0  0  0  0  0  0  0  0  0  0
   65.6714   34.0407   52.8767 H   0  0  0  0  0  0  0  0  0  0  0  0
   66.1715   34.9683   51.4221 H   0  0  0  0  0  0  0  0  0  0  0  0
   64.6178   34.0667   51.4221 H   0  0  0  0  0  0  0  0  0  0  0  0
   63.8099   32.8494   46.8093 H   0  0  0  0  0  0  0  0  0  0  0  0
   61.4828   33.6577   46.4291 H   0  0  0  0  0  0  0  0  0  0  0  0
  1  2  1  0
  2  3  2  0
  3  4  1  0
  4  5  2  0
  4  6  1  0
  6  7  1  0
  7  8  1  0
  8  9  2  0
  9 10  1  0
 10 11  2  0
 11 12  1  0
 12 13  2  0
  3 14  1  0
 14 15  1  0
 15 16  2  0
 15 17  1  0
 17 18  1  0
 18 19  1  0
 19 20  2  0
 20 21  1  0
 21 22  2  0
 22 23  1  0
 23 24  1  0
 24 25  2  0
 24 26  1  0
 26 27  1  0
 26 28  1  0
 22 29  1  0
 29 30  2  0
 17  2  1  0
 30 19  1  0
 13  8  1  0
  1 31  1  0
  1 32  1  0
  1 33  1  0
  7 34  1  0
  7 35  1  0
  9 36  1  0
 10 37  1  0
 11 38  1  0
 12 39  1  0
 13 40  1  0
 18 41  1  0
 18 42  1  0
 20 43  1  0
 21 44  1  0
 26 45  1  0
 27 46  1  0
 27 47  1  0
 27 48  1  0
 28 49  1  0
 28 50  1  0
 28 51  1  0
 29 52  1  0
 30 53  1  0
M  CHG  2   6  -1  26   1
M  END
>  <UniqueID>  (86) 
83

>  <SMILES>  (86) 
Cc1c(C(=O)[N-]Cc2ccccc2)sc(=O)n1Cc1ccc(OC(=O)[NH+](C)C)cc1

>  <Energy>  (86) 
89.44755478644375

>  <Genealogy>  (86) 
Cc1c(C(=O)[N-]Cc2ccccc2)sc(=O)n1Cc1ccc(OC(=O)[NH+](C)C)cc1 (protonated)
Cc1c(C(=O)[N-]Cc2ccccc2)sc(=O)n1Cc1ccc(OC(=O)[NH+](C)C)cc1 (3D coordinates assigned)
Cc1c(C(=O)[N-]Cc2ccccc2)sc(=O)n1Cc1ccc(OC(=O)[NH+](C)C)cc1 (optimized conformer: 89.44755478644375 kcal/mol)

>  <smiles>  (86) 
Cc1c(C(=O)NCc2ccccc2)sc(=O)n1Cc1ccc(OC(=O)N(C)C)cc1

>  <score_type>  (86) 
oracle

>  <origin>  (86) 
adg

>  <m_score__min__energy>  (86) 
-8.3300000000000001

>  <m_primary>  (86) 
energy

$$$$
86:0
     RDKit          3D

 42 44  0  0  0  0  0  0  0  0999 V2000
   58.2300   31.9560   49.7170 O   0  0  0  0  0  0  0  0  0  0  0  0
   59.2220   32.6740   49.4290 C   0  0  0  0  0  0  0  0  0  0  0  0
   60.5830   32.2960   49.9540 C   0  0  0  0  0  0  0  0  0  0  0  0
   61.6710   32.4980   48.9280 C   0  0  0  0  0  0  0  0  0  0  0  0
   62.0680   31.4360   48.0960 C   0  0  0  0  0  0  0  0  0  0  0  0
   63.0830   31.6190   47.1520 C   0  0  0  0  0  0  0  0  0  0  0  0
   63.7220   32.8550   47.0440 C   0  0  0  0  0  0  0  0  0  0  0  0
   63.3530   33.9100   47.8830 C   0  0  0  0  0  0  0  0  0  0  0  0
   62.3350   33.7330   48.8260 C   0  0  0  0  0  0  0  0  0  0  0  0
   59.0430   33.7700   48.5210 N   0  0  0  0  0  0  0  0  0  0  0  0
   58.8050   33.6470   47.1150 C   0  0  0  0  0  0  0  0  0  0  0  0
   59.5230   34.4210   46.1930 C   0  0  0  0  0  0  0  0  0  0  0  0
   59.2660   34.3040   44.8260 C   0  0  0  0  0  0  0  0  0  0  0  0
   58.2710   33.4340   44.3720 C   0  0  0  0  0  0  0  0  0  0  0  0
   57.5140   32.6820   45.2900 C   0  0  0  0  0  0  0  0  0  0  0  0
   56.4680   31.7940   44.8710 N   0  0  0  0  0  0  0  0  0  0  0  0
   56.6790   30.1180   44.4860 S   0  0  0  0  0  0  0  0  0  0  0  0
   56.8620   29.9700   43.0020 O   0  0  0  0  0  0  0  0  0  0  0  0
   55.4510   29.3560   44.9010 O   0  0  0  0  0  0  0  0  0  0  0  0
   58.1130   29.5000   45.2980 C   0  0  0  0  0  0  0  0  0  0  0  0
   58.1810   29.4500   46.7000 C   0  0  0  0  0  0  0  0  0  0  0  0
   59.3370   28.9810   47.3300 C   0  0  0  0  0  0  0  0  0  0  0  0
   60.4260   28.5540   46.5670 C   0  0  0  0  0  0  0  0  0  0  0  0
   60.3610   28.5970   45.1710 C   0  0  0  0  0  0  0  0  0  0  0  0
   59.2080   29.0700   44.5380 C   0  0  0  0  0  0  0  0  0  0  0  0
   57.7840   32.8020   46.6600 C   0  0  0  0  0  0  0  0  0  0  0  0
   60.8073   32.9169   50.8339 H   0  0  0  0  0  0  0  0  0  0  0  0
   60.5585   31.2268   50.2113 H   0  0  0  0  0  0  0  0  0  0  0  0
   61.5773   30.4559   48.1884 H   0  0  0  0  0  0  0  0  0  0  0  0
   63.3781   30.7883   46.4941 H   0  0  0  0  0  0  0  0  0  0  0  0
   64.5171   32.9990   46.2976 H   0  0  0  0  0  0  0  0  0  0  0  0
   63.8637   34.8809   47.8018 H   0  0  0  0  0  0  0  0  0  0  0  0
   62.0530   34.5632   49.4902 H   0  0  0  0  0  0  0  0  0  0  0  0
   60.2918   35.1231   46.5480 H   0  0  0  0  0  0  0  0  0  0  0  0
   59.8475   34.8974   44.1051 H   0  0  0  0  0  0  0  0  0  0  0  0
   58.0787   33.3365   43.2933 H   0  0  0  0  0  0  0  0  0  0  0  0
   57.3227   29.7806   47.3033 H   0  0  0  0  0  0  0  0  0  0  0  0
   59.3892   28.9481   48.4283 H   0  0  0  0  0  0  0  0  0  0  0  0
   61.3347   28.1839   47.0642 H   0  0  0  0  0  0  0  0  0  0  0  0
   61.2180   28.2583   44.5703 H   0  0  0  0  0  0  0  0  0  0  0  0
   59.1605   29.1046   43.4396 H   0  0  0  0  0  0  0  0  0  0  0  0
   57.1888   32.2274   47.3850 H   0  0  0  0  0  0  0  0  0  0  0  0
  1  2  2  0
  2  3  1  0
  3  4  1  0
  4  5  2  0
  5  6  1  0
  6  7  2  0
  7  8  1  0
  8  9  2  0
  2 10  1  0
 10 11  1  0
 11 12  2  0
 12 13  1  0
 13 14  2  0
 14 15  1  0
 15 16  1  0
 16 17  1  0
 17 18  2  0
 17 19  2  0
 17 20  1  0
 20 21  2  0
 21 22  1  0
 22 23  2  0
 23 24  1  0
 24 25  2  0
 15 26  2  0
  9  4  1  0
 26 11  1  0
 25 20  1  0
  3 27  1  0
  3 28  1  0
  5 29  1  0
  6 30  1  0
  7 31  1  0
  8 32  1  0
  9 33  1  0
 12 34  1  0
 13 35  1  0
 14 36  1  0
 21 37  1  0
 22 38  1  0
 23 39  1  0
 24 40  1  0
 25 41  1  0
 26 42  1  0
M  CHG  2  10  -1  16  -1
M  END
>  <UniqueID>  (87) 
84

>  <SMILES>  (87) 
O=C(Cc1ccccc1)[N-]c1cccc([N-]S(=O)(=O)c2ccccc2)c1

>  <Energy>  (87) 
52.44672555356218

>  <Genealogy>  (87) 
O=C(Cc1ccccc1)[N-]c1cccc([N-]S(=O)(=O)c2ccccc2)c1 (protonated)
O=C(Cc1ccccc1)[N-]c1cccc([N-]S(=O)(=O)c2ccccc2)c1 (3D coordinates assigned)
O=C(Cc1ccccc1)[N-]c1cccc([N-]S(=O)(=O)c2ccccc2)c1 (optimized conformer: 52.44672555356218 kcal/mol)

>  <smiles>  (87) 
O=C(Cc1ccccc1)Nc1cccc(NS(=O)(=O)c2ccccc2)c1

>  <score_type>  (87) 
oracle

>  <origin>  (87) 
adg

>  <m_score__min__energy>  (87) 
-12.359999999999999

>  <m_primary>  (87) 
energy

$$$$
87:0
     RDKit          3D

 29 30  0  0  0  0  0  0  0  0999 V2000
   56.7570   29.0760   42.8700 N   0  0  0  0  0  0  0  0  0  0  0  0
   56.3100   29.5240   44.4800 S   0  0  0  0  0  0  0  0  0  0  0  0
   55.1450   30.4720   44.4370 O   0  0  0  0  0  0  0  0  0  0  0  0
   55.9150   28.2890   45.2430 O   0  0  0  0  0  0  0  0  0  0  0  0
   57.6690   30.3030   45.2680 C   0  0  0  0  0  0  0  0  0  0  0  0
   58.6840   29.6040   45.9130 C   0  0  0  0  0  0  0  0  0  0  0  0
   59.7800   30.7220   46.5320 S   0  0  0  0  0  0  0  0  0  0  0  0
   58.9680   32.0880   45.9830 C   0  0  0  0  0  0  0  0  0  0  0  0
   59.4930   33.7390   46.2420 S   0  0  0  0  0  0  0  0  0  0  0  0
   59.6660   34.4410   44.9230 O   0  0  0  0  0  0  0  0  0  0  0  0
   58.4380   34.4670   47.0290 O   0  0  0  0  0  0  0  0  0  0  0  0
   61.0260   33.7520   47.1250 C   0  0  0  0  0  0  0  0  0  0  0  0
   62.2190   33.8400   46.3890 C   0  0  0  0  0  0  0  0  0  0  0  0
   63.4570   33.7880   47.0290 C   0  0  0  0  0  0  0  0  0  0  0  0
   63.5220   33.6440   48.4140 C   0  0  0  0  0  0  0  0  0  0  0  0
   62.3480   33.5670   49.1630 C   0  0  0  0  0  0  0  0  0  0  0  0
   61.0900   33.6370   48.5380 C   0  0  0  0  0  0  0  0  0  0  0  0
   59.9050   33.6000   49.3490 N   0  0  0  0  0  0  0  0  0  0  0  0
   59.6190   34.5720   50.0780 O   0  0  0  0  0  0  0  0  0  0  0  0
   58.9630   32.6180   49.1550 O   0  0  0  0  0  0  0  0  0  0  0  0
   57.8220   31.6950   45.3090 C   0  0  0  0  0  0  0  0  0  0  0  0
   56.6570   28.0380   42.8030 H   0  0  0  0  0  0  0  0  0  0  0  0
   57.7740   29.2890   42.7640 H   0  0  0  0  0  0  0  0  0  0  0  0
   58.7578   28.5102   46.0030 H   0  0  0  0  0  0  0  0  0  0  0  0
   62.1764   33.9512   45.2955 H   0  0  0  0  0  0  0  0  0  0  0  0
   64.3833   33.8607   46.4402 H   0  0  0  0  0  0  0  0  0  0  0  0
   64.4992   33.5911   48.9162 H   0  0  0  0  0  0  0  0  0  0  0  0
   62.4066   33.4502   50.2552 H   0  0  0  0  0  0  0  0  0  0  0  0
   57.1098   32.4000   44.8554 H   0  0  0  0  0  0  0  0  0  0  0  0
  1  2  1  0
  2  3  2  0
  2  4  2  0
  2  5  1  0
  5  6  2  0
  6  7  1  0
  7  8  1  0
  8  9  1  0
  9 10  2  0
  9 11  2  0
  9 12  1  0
 12 13  2  0
 13 14  1  0
 14 15  2  0
 15 16  1  0
 16 17  2  0
 17 18  1  0
 18 19  2  0
 18 20  1  0
  8 21  2  0
 21  5  1  0
 17 12  1  0
  1 22  1  0
  1 23  1  0
  6 24  1  0
 13 25  1  0
 14 26  1  0
 15 27  1  0
 16 28  1  0
 21 29  1  0
M  CHG  2  18   1  20  -1
M  END
>  <UniqueID>  (88) 
85

>  <SMILES>  (88) 
NS(=O)(=O)c1csc(S(=O)(=O)c2ccccc2[N+](=O)[O-])c1

>  <Energy>  (88) 
62.1408764566887

>  <Genealogy>  (88) 
NS(=O)(=O)c1csc(S(=O)(=O)c2ccccc2[N+](=O)[O-])c1 (3D coordinates assigned)
NS(=O)(=O)c1csc(S(=O)(=O)c2ccccc2[N+](=O)[O-])c1 (optimized conformer: 62.1408764566887 kcal/mol)

>  <smiles>  (88) 
NS(=O)(=O)c1csc(S(=O)(=O)c2ccccc2[N+](=O)[O-])c1

>  <score_type>  (88) 
oracle

>  <origin>  (88) 
adg

>  <m_score__min__energy>  (88) 
-8.9800000000000004

>  <m_primary>  (88) 
energy

$$$$
88:0
     RDKit          3D

 22 23  0  0  0  0  0  0  0  0999 V2000
   55.1440   28.2120   45.7840 H   0  0  0  0  0  0  0  0  0  0  0  0
   55.7050   28.5960   45.0330 O   0  0  0  0  0  0  0  0  0  0  0  0
   56.6140   29.6240   45.2700 C   0  0  0  0  0  0  0  0  0  0  0  0
   56.3430   30.8740   44.8040 N   0  0  0  0  0  0  0  0  0  0  0  0
   57.1900   31.9170   45.0010 C   0  0  0  0  0  0  0  0  0  0  0  0
   56.8920   33.0530   44.5470 O   0  0  0  0  0  0  0  0  0  0  0  0
   58.3810   31.7260   45.7100 C   0  0  0  0  0  0  0  0  0  0  0  0
   59.5890   33.1760   46.0280 Br  0  0  0  0  0  0  0  0  0  0  0  0
   58.6830   30.4540   46.2020 C   0  0  0  0  0  0  0  0  0  0  0  0
   59.6123   30.2937   46.7682 H   0  0  0  0  0  0  0  0  0  0  0  0
   57.8060   29.3760   45.9780 C   0  0  0  0  0  0  0  0  0  0  0  0
   58.0860   28.0150   46.5010 C   0  0  0  0  0  0  0  0  0  0  0  0
   58.4245   27.9137   47.5427 H   0  0  0  0  0  0  0  0  0  0  0  0
   57.9460   26.9030   45.7640 C   0  0  0  0  0  0  0  0  0  0  0  0
   58.3997   26.8812   44.7621 H   0  0  0  0  0  0  0  0  0  0  0  0
   57.2150   25.7070   46.2270 C   0  0  0  0  0  0  0  0  0  0  0  0
   57.8310   24.6710   46.6920 N   0  0  0  0  0  0  0  0  0  0  0  0
   56.8120   23.7400   47.0510 C   0  0  0  0  0  0  0  0  0  0  0  0
   57.0630   22.6070   47.5360 O   0  0  0  0  0  0  0  0  0  0  0  0
   55.4850   24.2010   46.8150 N   0  0  0  0  0  0  0  0  0  0  0  0
   55.7690   25.4860   46.2860 C   0  0  0  0  0  0  0  0  0  0  0  0
   54.8730   26.3110   45.9660 O   0  0  0  0  0  0  0  0  0  0  0  0
  1  2  1  0
  2  3  1  0
  3  4  1  0
  4  5  1  0
  5  6  2  0
  5  7  1  0
  7  8  1  0
  7  9  2  0
  9 10  1  0
  9 11  1  0
 11 12  1  0
 12 13  1  0
 12 14  2  0
 14 15  1  0
 14 16  1  0
 16 17  2  0
 17 18  1  0
 18 19  2  0
 18 20  1  0
 20 21  1  0
 21 22  2  0
 11  3  2  0
 21 16  1  0
M  CHG  2   4  -1  20  -1
M  END
>  <UniqueID>  (89) 
86

>  <SMILES>  (89) 
O=C1N=C(/C=C/c2cc(Br)c(=O)[n-]c2O)C(=O)[N-]1

>  <Energy>  (89) 
53.670498713071574

>  <Genealogy>  (89) 
O=C1N=C(C=Cc2cc(Br)c(=O)[n-]c2O)C(=O)[N-]1 (protonated)
O=C1N=C(/C=C/c2cc(Br)c(=O)[n-]c2O)C(=O)[N-]1 (cis-trans isomerization)
O=C1N=C(/C=C/c2cc(Br)c(=O)[n-]c2O)C(=O)[N-]1 (3D coordinates assigned)
O=C1N=C(/C=C/c2cc(Br)c(=O)[n-]c2O)C(=O)[N-]1 (nonaromatic ring conformer: 53.670498713071574 kcal/mol)

>  <smiles>  (89) 
O=C1N=C(C=Cc2cc(Br)c(=O)[nH]c2O)C(=O)N1

>  <score_type>  (89) 
oracle

>  <origin>  (89) 
adg

>  <m_score__min__energy>  (89) 
-11.59

>  <m_primary>  (89) 
energy

$$$$
89:0
     RDKit          3D

 48 50  0  0  0  0  0  0  0  0999 V2000
   67.0130   28.5930   51.2510 C   0  0  0  0  0  0  0  0  0  0  0  0
   66.4970   29.7420   51.9160 O   0  0  0  0  0  0  0  0  0  0  0  0
   66.4530   31.0070   51.3210 C   0  0  0  0  0  0  0  0  0  0  0  0
   67.5550   31.8570   51.4270 C   0  0  0  0  0  0  0  0  0  0  0  0
   67.4960   33.1110   50.8110 C   0  0  0  0  0  0  0  0  0  0  0  0
   68.6630   34.0450   50.8780 C   0  0  0  0  0  0  0  0  0  0  0  0
   66.3740   33.4760   50.1360 N   0  0  0  0  0  0  0  0  0  0  0  0
   65.2960   32.6480   50.0510 C   0  0  0  0  0  0  0  0  0  0  0  0
   64.1070   33.0640   49.3470 N   0  0  0  0  0  0  0  0  0  0  0  0
   64.0930   32.9620   47.8780 C   0  0  0  0  0  0  0  0  0  0  0  0
   62.7780   33.4470   47.2880 C   0  0  0  0  0  0  0  0  0  0  0  0
   61.6840   32.9070   48.0990 N   0  0  0  0  0  0  0  0  0  0  0  0
   60.1670   33.1040   47.2570 S   0  0  0  0  0  0  0  0  0  0  0  0
   59.1020   33.5590   48.2150 O   0  0  0  0  0  0  0  0  0  0  0  0
   60.3100   34.1340   46.1680 O   0  0  0  0  0  0  0  0  0  0  0  0
   59.6840   31.5550   46.5680 C   0  0  0  0  0  0  0  0  0  0  0  0
   60.4940   30.4200   46.7150 C   0  0  0  0  0  0  0  0  0  0  0  0
   60.0810   29.1910   46.1920 C   0  0  0  0  0  0  0  0  0  0  0  0
   58.8600   29.0910   45.5200 C   0  0  0  0  0  0  0  0  0  0  0  0
   58.0450   30.2220   45.3650 C   0  0  0  0  0  0  0  0  0  0  0  0
   56.5280   30.1120   44.4780 S   0  0  0  0  0  0  0  0  0  0  0  0
   55.5360   28.8960   45.2020 N   0  0  0  0  0  0  0  0  0  0  0  0
   55.8100   31.4320   44.5170 O   0  0  0  0  0  0  0  0  0  0  0  0
   56.8020   29.7530   43.0430 O   0  0  0  0  0  0  0  0  0  0  0  0
   58.4600   31.4530   45.8910 C   0  0  0  0  0  0  0  0  0  0  0  0
   61.6260   33.6070   49.3930 C   0  0  0  0  0  0  0  0  0  0  0  0
   63.0070   33.7080   50.0940 C   0  0  0  0  0  0  0  0  0  0  0  0
   65.3500   31.4220   50.6420 N   0  0  0  0  0  0  0  0  0  0  0  0
   67.3442   27.8555   51.9969 H   0  0  0  0  0  0  0  0  0  0  0  0
   66.2273   28.1501   50.6212 H   0  0  0  0  0  0  0  0  0  0  0  0
   67.8660   28.8860   50.6212 H   0  0  0  0  0  0  0  0  0  0  0  0
   68.4516   31.5468   51.9837 H   0  0  0  0  0  0  0  0  0  0  0  0
   68.9127   34.2449   51.9305 H   0  0  0  0  0  0  0  0  0  0  0  0
   69.5283   33.5872   50.3764 H   0  0  0  0  0  0  0  0  0  0  0  0
   68.4059   34.9896   50.3764 H   0  0  0  0  0  0  0  0  0  0  0  0
   64.9121   33.5733   47.4713 H   0  0  0  0  0  0  0  0  0  0  0  0
   64.2171   31.9027   47.6088 H   0  0  0  0  0  0  0  0  0  0  0  0
   62.7458   34.5464   47.3044 H   0  0  0  0  0  0  0  0  0  0  0  0
   62.6814   33.1073   46.2462 H   0  0  0  0  0  0  0  0  0  0  0  0
   61.4561   30.4967   47.2427 H   0  0  0  0  0  0  0  0  0  0  0  0
   60.7179   28.3019   46.3096 H   0  0  0  0  0  0  0  0  0  0  0  0
   58.5369   28.1222   45.1112 H   0  0  0  0  0  0  0  0  0  0  0  0
   54.6120   29.3380   45.4120 H   0  0  0  0  0  0  0  0  0  0  0  0
   57.8235   32.3423   45.7724 H   0  0  0  0  0  0  0  0  0  0  0  0
   61.2443   34.6247   49.2235 H   0  0  0  0  0  0  0  0  0  0  0  0
   60.9661   33.0235   50.0518 H   0  0  0  0  0  0  0  0  0  0  0  0
   63.2528   34.7724   50.2229 H   0  0  0  0  0  0  0  0  0  0  0  0
   62.9178   33.1756   51.0524 H   0  0  0  0  0  0  0  0  0  0  0  0
  1  2  1  0
  2  3  1  0
  3  4  2  0
  4  5  1  0
  5  6  1  0
  5  7  2  0
  7  8  1  0
  8  9  1  0
  9 10  1  0
 10 11  1  0
 11 12  1  0
 12 13  1  0
 13 14  2  0
 13 15  2  0
 13 16  1  0
 16 17  2  0
 17 18  1  0
 18 19  2  0
 19 20  1  0
 20 21  1  0
 21 22  1  0
 21 23  2  0
 21 24  2  0
 20 25  2  0
 12 26  1  0
 26 27  1  0
  8 28  2  0
 28  3  1  0
 27  9  1  0
 25 16  1  0
  1 29  1  0
  1 30  1  0
  1 31  1  0
  4 32  1  0
  6 33  1  0
  6 34  1  0
  6 35  1  0
 10 36  1  0
 10 37  1  0
 11 38  1  0
 11 39  1  0
 17 40  1  0
 18 41  1  0
 19 42  1  0
 22 43  1  0
 25 44  1  0
 26 45  1  0
 26 46  1  0
 27 47  1  0
 27 48  1  0
M  CHG  1  22  -1
M  END
>  <UniqueID>  (90) 
87

>  <SMILES>  (90) 
COc1cc(C)nc(N2CCN(S(=O)(=O)c3cccc(S([NH-])(=O)=O)c3)CC2)n1

>  <Energy>  (90) 
49.8200933060494

>  <Genealogy>  (90) 
COc1cc(C)nc(N2CCN(S(=O)(=O)c3cccc(S([NH-])(=O)=O)c3)CC2)n1 (protonated)
COc1cc(C)nc(N2CCN(S(=O)(=O)c3cccc(S([NH-])(=O)=O)c3)CC2)n1 (3D coordinates assigned)
COc1cc(C)nc(N2CCN(S(=O)(=O)c3cccc(S([NH-])(=O)=O)c3)CC2)n1 (nonaromatic ring conformer: 49.8200933060494 kcal/mol)

>  <smiles>  (90) 
COc1cc(C)nc(N2CCN(S(=O)(=O)c3cccc(S(N)(=O)=O)c3)CC2)n1

>  <score_type>  (90) 
oracle

>  <origin>  (90) 
adg

>  <m_score__min__energy>  (90) 
-11.17

>  <m_primary>  (90) 
energy

$$$$
90:0
     RDKit          3D

 28 29  0  0  0  0  0  0  0  0999 V2000
   60.7470   32.9950   53.4170 N   0  0  0  0  0  0  0  0  0  0  0  0
   59.3300   33.6930   52.7170 S   0  0  0  0  0  0  0  0  0  0  0  0
   59.6540   34.2040   51.3410 O   0  0  0  0  0  0  0  0  0  0  0  0
   58.8680   34.8470   53.5630 O   0  0  0  0  0  0  0  0  0  0  0  0
   58.0610   32.4780   52.6200 C   0  0  0  0  0  0  0  0  0  0  0  0
   57.5260   32.1130   51.3780 C   0  0  0  0  0  0  0  0  0  0  0  0
   56.5270   31.1380   51.3000 C   0  0  0  0  0  0  0  0  0  0  0  0
   56.0450   30.5210   52.4690 C   0  0  0  0  0  0  0  0  0  0  0  0
   55.0360   29.5010   52.4340 N   0  0  0  0  0  0  0  0  0  0  0  0
   53.6180   29.7000   52.4740 C   0  0  0  0  0  0  0  0  0  0  0  0
   52.8290   28.7190   52.5410 O   0  0  0  0  0  0  0  0  0  0  0  0
   53.0670   31.0810   52.3260 C   0  0  0  0  0  0  0  0  0  0  0  0
   52.2530   31.1760   51.0740 C   0  0  0  0  0  0  0  0  0  0  0  0
   52.2510   30.0400   49.8290 S   0  0  0  0  0  0  0  0  0  0  0  0
   51.0620   30.8630   48.9710 C   0  0  0  0  0  0  0  0  0  0  0  0
   50.6000   30.4890   47.8630 O   0  0  0  0  0  0  0  0  0  0  0  0
   50.6430   31.9800   49.6030 N   0  0  0  0  0  0  0  0  0  0  0  0
   51.3020   32.1500   50.7790 C   0  0  0  0  0  0  0  0  0  0  0  0
   51.0310   33.2240   51.6180 O   0  0  0  0  0  0  0  0  0  0  0  0
   56.6070   30.8680   53.7040 C   0  0  0  0  0  0  0  0  0  0  0  0
   57.6040   31.8430   53.7830 C   0  0  0  0  0  0  0  0  0  0  0  0
   60.9490   32.1170   52.8860 H   0  0  0  0  0  0  0  0  0  0  0  0
   57.8934   32.5954   50.4602 H   0  0  0  0  0  0  0  0  0  0  0  0
   56.1161   30.8521   50.3205 H   0  0  0  0  0  0  0  0  0  0  0  0
   52.4309   31.3142   53.1926 H   0  0  0  0  0  0  0  0  0  0  0  0
   53.8995   31.7978   52.2706 H   0  0  0  0  0  0  0  0  0  0  0  0
   56.2600   30.3680   54.6203 H   0  0  0  0  0  0  0  0  0  0  0  0
   58.0314   32.1131   54.7599 H   0  0  0  0  0  0  0  0  0  0  0  0
  1  2  1  0
  2  3  2  0
  2  4  2  0
  2  5  1  0
  5  6  2  0
  6  7  1  0
  7  8  2  0
  8  9  1  0
  9 10  1  0
 10 11  2  0
 10 12  1  0
 12 13  1  0
 13 14  1  0
 14 15  1  0
 15 16  2  0
 15 17  1  0
 17 18  1  0
 18 19  1  0
  8 20  1  0
 20 21  2  0
 21  5  1  0
 18 13  2  0
  1 22  1  0
  6 23  1  0
  7 24  1  0
 12 25  1  0
 12 26  1  0
 20 27  1  0
 21 28  1  0
M  CHG  4   1  -1   9  -1  17  -1  19  -1
M  END
>  <UniqueID>  (91) 
88

>  <SMILES>  (91) 
[NH-]S(=O)(=O)c1ccc([N-]C(=O)Cc2sc(=O)[n-]c2[O-])cc1

>  <Energy>  (91) 
60.187966286020725

>  <Genealogy>  (91) 
[NH-]S(=O)(=O)c1ccc([N-]C(=O)Cc2sc(=O)[n-]c2[O-])cc1 (protonated)
[NH-]S(=O)(=O)c1ccc([N-]C(=O)Cc2sc(=O)[n-]c2[O-])cc1 (3D coordinates assigned)
[NH-]S(=O)(=O)c1ccc([N-]C(=O)Cc2sc(=O)[n-]c2[O-])cc1 (optimized conformer: 60.187966286020725 kcal/mol)

>  <smiles>  (91) 
NS(=O)(=O)c1ccc(NC(=O)Cc2sc(=O)[nH]c2O)cc1

>  <score_type>  (91) 
oracle

>  <origin>  (91) 
adg

>  <m_score__min__energy>  (91) 
-15

>  <m_primary>  (91) 
energy

$$$$
91:0
     RDKit          3D

 51 53  0  0  1  0  0  0  0  0999 V2000
   63.3060   31.6240   49.7700 C   0  0  0  0  0  0  0  0  0  0  0  0
   62.1020   32.2030   49.2080 N   0  0  0  0  0  0  0  0  0  0  0  0
   62.1110   32.9890   48.0220 C   0  0  0  0  0  0  0  0  0  0  0  0
   62.8280   32.5970   47.0690 O   0  0  0  0  0  0  0  0  0  0  0  0
   61.2790   34.2050   47.9990 C   0  0  0  0  0  0  0  0  0  0  0  0
   60.1000   34.0700   47.1190 C   0  0  0  0  0  0  0  0  0  0  0  0
   58.8610   33.8240   47.6850 C   0  0  0  0  0  0  0  0  0  0  0  0
   57.7430   33.6940   46.9030 C   0  0  0  0  0  0  0  0  0  0  0  0
   57.8480   33.8070   45.5300 C   0  0  0  0  0  0  0  0  0  0  0  0
   59.0750   34.0530   44.9280 C   0  0  0  0  0  0  0  0  0  0  0  0
   60.2080   34.1850   45.7300 C   0  0  0  0  0  0  0  0  0  0  0  0
   60.8100   32.0160   49.8200 C   0  0  0  0  0  0  0  0  0  0  0  0
   60.4650   32.8290   50.8860 C   0  0  0  0  0  0  0  0  0  0  0  0
   59.2230   32.6630   51.4900 C   0  0  0  0  0  0  0  0  0  0  0  0
   58.3440   31.6960   51.0270 C   0  0  0  0  0  0  0  0  0  0  0  0
   58.7020   30.8870   49.9580 C   0  0  0  0  0  0  0  0  0  0  0  0
   59.9340   31.0500   49.3580 C   0  0  0  0  0  0  0  0  0  0  0  0
   60.3670   30.2590   48.2610 N   0  0  0  0  0  0  0  0  0  0  0  0
   59.5010   29.7800   47.4160 C   0  0  0  0  0  0  0  0  0  0  0  0
   58.7050   30.5480   46.6750 N   0  0  0  0  0  0  0  0  0  0  0  0
   57.8210   30.0580   45.8120 C   0  0  0  0  0  0  0  0  0  0  0  0
   57.0820   30.8720   45.1290 N   0  0  0  0  0  0  0  0  0  0  0  0
   56.7550   30.6970   43.7380 C   0  0  0  0  0  0  0  0  0  0  0  0
   55.5510   29.7560   43.6580 C   0  0  0  0  0  0  0  0  0  0  0  0
   55.1490   29.3260   44.9180 O   0  0  0  0  0  0  0  0  0  0  0  0
   57.7050   28.7360   45.6610 N   0  0  0  0  0  0  0  0  0  0  0  0
   58.4810   27.8820   46.3790 C   0  0  0  0  0  0  0  0  0  0  0  0
   59.4040   28.4120   47.2810 C   0  0  0  0  0  0  0  0  0  0  0  0
   60.3860   27.2930   48.1890 Cl  0  0  0  0  0  0  0  0  0  0  0  0
   63.2482   31.6518   50.8681 H   0  0  0  0  0  0  0  0  0  0  0  0
   63.4026   30.5810   49.4342 H   0  0  0  0  0  0  0  0  0  0  0  0
   64.1810   32.1998   49.4342 H   0  0  0  0  0  0  0  0  0  0  0  0
   60.9330   34.4146   49.0219 H   0  0  0  0  0  0  0  0  0  0  0  0
   61.8975   35.0245   47.6041 H   0  0  0  0  0  0  0  0  0  0  0  0
   58.7725   33.7316   48.7775 H   0  0  0  0  0  0  0  0  0  0  0  0
   56.7648   33.5002   47.3672 H   0  0  0  0  0  0  0  0  0  0  0  0
   56.9484   33.7008   44.9059 H   0  0  0  0  0  0  0  0  0  0  0  0
   59.1520   34.1424   43.8344 H   0  0  0  0  0  0  0  0  0  0  0  0
   61.1877   34.3798   45.2693 H   0  0  0  0  0  0  0  0  0  0  0  0
   61.1639   33.5962   51.2506 H   0  0  0  0  0  0  0  0  0  0  0  0
   58.9370   33.3017   52.3387 H   0  0  0  0  0  0  0  0  0  0  0  0
   57.3624   31.5700   51.5073 H   0  0  0  0  0  0  0  0  0  0  0  0
   58.0063   30.1185   49.5901 H   0  0  0  0  0  0  0  0  0  0  0  0
   58.7800   31.5710   46.7780 H   0  0  0  0  0  0  0  0  0  0  0  0
   56.5021   31.6681   43.2875 H   0  0  0  0  0  0  0  0  0  0  0  0
   57.6110   30.2748   43.1911 H   0  0  0  0  0  0  0  0  0  0  0  0
   54.7150   30.2868   43.1791 H   0  0  0  0  0  0  0  0  0  0  0  0
   55.8448   28.8726   43.0721 H   0  0  0  0  0  0  0  0  0  0  0  0
   55.3020   30.0690   45.5690 H   0  0  0  0  0  0  0  0  0  0  0  0
   57.0140   28.3650   44.9860 H   0  0  0  0  0  0  0  0  0  0  0  0
   58.3832   26.7938   46.2514 H   0  0  0  0  0  0  0  0  0  0  0  0
  1  2  1  0
  2  3  1  0
  3  4  2  0
  3  5  1  0
  5  6  1  0
  6  7  2  0
  7  8  1  0
  8  9  2  0
  9 10  1  0
 10 11  2  0
  2 12  1  0
 12 13  2  0
 13 14  1  0
 14 15  2  0
 15 16  1  0
 16 17  2  0
 17 18  1  0
 18 19  2  0
 19 20  1  0
 20 21  1  0
 21 22  2  0
 22 23  1  0
 23 24  1  0
 24 25  1  0
 21 26  1  0
 26 27  1  0
 27 28  2  0
 28 29  1  0
 11  6  1  0
 17 12  1  0
 28 19  1  0
  1 30  1  0
  1 31  1  0
  1 32  1  0
  5 33  1  0
  5 34  1  0
  7 35  1  0
  8 36  1  0
  9 37  1  0
 10 38  1  0
 11 39  1  0
 13 40  1  0
 14 41  1  0
 15 42  1  0
 16 43  1  0
 20 44  1  0
 23 45  1  0
 23 46  1  0
 24 47  1  0
 24 48  1  0
 25 49  1  0
 26 50  1  0
 27 51  1  0
M  END
>  <smiles>  (92) 
CN(C(=O)Cc1ccccc1)c1ccccc1N=c1[nH]c(=NCCO)[nH]cc1Cl

>  <score_type>  (92) 
oracle

>  <origin>  (92) 
adg

>  <m_score__min__energy>  (92) 
-8.6600000000000001

>  <m_primary>  (92) 
energy

$$$$
92:0
     RDKit          3D

 39 41  0  0  0  0  0  0  0  0999 V2000
   56.1950   22.1520   41.3080 H   0  0  0  0  0  0  0  0  0  0  0  0
   55.9040   21.9460   42.2570 O   0  0  0  0  0  0  0  0  0  0  0  0
   56.2620   22.7700   43.3220 C   0  0  0  0  0  0  0  0  0  0  0  0
   55.9980   22.3580   44.6320 C   0  0  0  0  0  0  0  0  0  0  0  0
   55.5164   21.3860   44.8144 H   0  0  0  0  0  0  0  0  0  0  0  0
   56.3440   23.1770   45.7100 C   0  0  0  0  0  0  0  0  0  0  0  0
   56.1185   22.8528   46.7367 H   0  0  0  0  0  0  0  0  0  0  0  0
   56.9770   24.4100   45.4920 C   0  0  0  0  0  0  0  0  0  0  0  0
   57.3060   25.2650   46.6570 C   0  0  0  0  0  0  0  0  0  0  0  0
   57.0284   24.8903   47.6533 H   0  0  0  0  0  0  0  0  0  0  0  0
   57.9160   26.4610   46.5950 C   0  0  0  0  0  0  0  0  0  0  0  0
   58.8794   26.5700   47.1146 H   0  0  0  0  0  0  0  0  0  0  0  0
   57.3850   27.6420   45.8780 C   0  0  0  0  0  0  0  0  0  0  0  0
   56.0200   27.7280   45.5970 C   0  0  0  0  0  0  0  0  0  0  0  0
   55.1480   26.7230   45.9990 O   0  0  0  0  0  0  0  0  0  0  0  0
   55.5380   28.7900   44.9100 N   0  0  0  0  0  0  0  0  0  0  0  0
   56.3500   29.7910   44.4850 C   0  0  0  0  0  0  0  0  0  0  0  0
   55.8460   30.7430   43.8290 O   0  0  0  0  0  0  0  0  0  0  0  0
   57.6930   29.7630   44.7700 N   0  0  0  0  0  0  0  0  0  0  0  0
   58.5920   30.8250   44.2730 C   0  0  0  0  0  0  0  0  0  0  0  0
   59.6250   30.4475   44.2549 H   0  0  0  0  0  0  0  0  0  0  0  0
   58.2797   31.1138   43.2586 H   0  0  0  0  0  0  0  0  0  0  0  0
   58.5190   32.0320   45.1720 C   0  0  0  0  0  0  0  0  0  0  0  0
   58.4710   31.8730   46.5670 C   0  0  0  0  0  0  0  0  0  0  0  0
   58.5091   30.8647   47.0049 H   0  0  0  0  0  0  0  0  0  0  0  0
   58.3750   32.9910   47.4010 C   0  0  0  0  0  0  0  0  0  0  0  0
   58.3380   32.8600   48.4925 H   0  0  0  0  0  0  0  0  0  0  0  0
   58.3260   34.2740   46.8510 C   0  0  0  0  0  0  0  0  0  0  0  0
   58.2575   35.1526   47.5093 H   0  0  0  0  0  0  0  0  0  0  0  0
   58.3640   34.4410   45.4640 C   0  0  0  0  0  0  0  0  0  0  0  0
   58.3215   35.4515   45.0314 H   0  0  0  0  0  0  0  0  0  0  0  0
   58.4560   33.3260   44.6250 C   0  0  0  0  0  0  0  0  0  0  0  0
   58.4792   33.4616   43.5336 H   0  0  0  0  0  0  0  0  0  0  0  0
   58.2110   28.7100   45.4830 C   0  0  0  0  0  0  0  0  0  0  0  0
   59.4350   28.6990   45.7960 O   0  0  0  0  0  0  0  0  0  0  0  0
   57.2240   24.8290   44.1700 C   0  0  0  0  0  0  0  0  0  0  0  0
   57.6902   25.8077   43.9836 H   0  0  0  0  0  0  0  0  0  0  0  0
   56.8790   24.0060   43.0940 C   0  0  0  0  0  0  0  0  0  0  0  0
   57.0929   24.3305   42.0649 H   0  0  0  0  0  0  0  0  0  0  0  0
  1  2  1  0
  2  3  1  0
  3  4  2  0
  4  5  1  0
  4  6  1  0
  6  7  1  0
  6  8  2  0
  8  9  1  0
  9 10  1  0
  9 11  2  0
 11 12  1  0
 11 13  1  0
 13 14  2  0
 14 15  1  0
 14 16  1  0
 16 17  1  0
 17 18  2  0
 17 19  1  0
 19 20  1  0
 20 21  1  0
 20 22  1  0
 20 23  1  0
 23 24  2  0
 24 25  1  0
 24 26  1  0
 26 27  1  0
 26 28  2  0
 28 29  1  0
 28 30  1  0
 30 31  1  0
 30 32  2  0
 32 33  1  0
 19 34  1  0
 34 35  2  0
  8 36  1  0
 36 37  1  0
 36 38  2  0
 38 39  1  0
 38  3  1  0
 34 13  1  0
 32 23  1  0
M  CHG  2  15  -1  16  -1
M  END
>  <UniqueID>  (93) 
89

>  <SMILES>  (93) 
O=c1[n-]c([O-])c(/C=C\c2ccc(O)cc2)c(=O)n1Cc1ccccc1

>  <Energy>  (93) 
53.52142113732834

>  <Genealogy>  (93) 
O=c1[n-]c([O-])c(C=Cc2ccc(O)cc2)c(=O)n1Cc1ccccc1 (protonated)
O=c1[n-]c([O-])c(/C=C\c2ccc(O)cc2)c(=O)n1Cc1ccccc1 (cis-trans isomerization)
O=c1[n-]c([O-])c(/C=C\c2ccc(O)cc2)c(=O)n1Cc1ccccc1 (3D coordinates assigned)
O=c1[n-]c([O-])c(/C=C\c2ccc(O)cc2)c(=O)n1Cc1ccccc1 (optimized conformer: 53.52142113732834 kcal/mol)

>  <smiles>  (93) 
O=c1[nH]c(O)c(C=Cc2ccc(O)cc2)c(=O)n1Cc1ccccc1

>  <score_type>  (93) 
oracle

>  <origin>  (93) 
adg

>  <m_score__min__energy>  (93) 
-14.23

>  <m_primary>  (93) 
energy

$$$$
93:0
     RDKit          3D

 46 48  0  0  0  0  0  0  0  0999 V2000
   54.5110   25.9360   45.9620 N   0  0  0  0  0  0  0  0  0  0  0  0
   55.9630   25.0480   46.2640 S   0  0  0  0  0  0  0  0  0  0  0  0
   56.0410   23.8800   45.3200 O   0  0  0  0  0  0  0  0  0  0  0  0
   55.9530   24.5300   47.6740 O   0  0  0  0  0  0  0  0  0  0  0  0
   57.3500   26.1040   46.0280 C   0  0  0  0  0  0  0  0  0  0  0  0
   58.6230   25.7080   46.4610 C   0  0  0  0  0  0  0  0  0  0  0  0
   59.7250   26.5400   46.2530 C   0  0  0  0  0  0  0  0  0  0  0  0
   59.5620   27.7750   45.6200 C   0  0  0  0  0  0  0  0  0  0  0  0
   58.2870   28.1900   45.2000 C   0  0  0  0  0  0  0  0  0  0  0  0
   58.0910   29.4360   44.5200 N   0  0  0  0  0  0  0  0  0  0  0  0
   56.9410   30.2850   44.6190 C   0  0  0  0  0  0  0  0  0  0  0  0
   55.8220   29.7660   44.8730 O   0  0  0  0  0  0  0  0  0  0  0  0
   57.0390   31.7810   44.4960 C   0  0  0  0  0  0  0  0  0  0  0  0
   57.5070   32.3510   45.7190 O   0  0  0  0  0  0  0  0  0  0  0  0
   58.3180   33.4940   45.8340 C   0  0  0  0  0  0  0  0  0  0  0  0
   58.4650   34.3980   44.7600 C   0  0  0  0  0  0  0  0  0  0  0  0
   59.2890   35.5170   44.8800 C   0  0  0  0  0  0  0  0  0  0  0  0
   59.9750   35.7560   46.0670 C   0  0  0  0  0  0  0  0  0  0  0  0
   59.8380   34.8780   47.1430 C   0  0  0  0  0  0  0  0  0  0  0  0
   59.0090   33.7430   47.0490 C   0  0  0  0  0  0  0  0  0  0  0  0
   58.8880   32.8400   48.2270 C   0  0  0  0  0  0  0  0  0  0  0  0
   57.7480   32.4300   48.5810 O   0  0  0  0  0  0  0  0  0  0  0  0
   60.0460   32.4640   48.9850 N   0  0  0  0  0  0  0  0  0  0  0  0
   61.4170   32.7030   48.6380 C   0  0  0  0  0  0  0  0  0  0  0  0
   62.2510   33.5350   49.4090 C   0  0  0  0  0  0  0  0  0  0  0  0
   63.5890   33.7190   49.0480 C   0  0  0  0  0  0  0  0  0  0  0  0
   64.1090   33.0670   47.9280 C   0  0  0  0  0  0  0  0  0  0  0  0
   63.2930   32.2210   47.1710 C   0  0  0  0  0  0  0  0  0  0  0  0
   61.9550   32.0340   47.5300 C   0  0  0  0  0  0  0  0  0  0  0  0
   57.1900   27.3390   45.3850 C   0  0  0  0  0  0  0  0  0  0  0  0
   54.7580   26.7120   45.3100 H   0  0  0  0  0  0  0  0  0  0  0  0
   58.7542   24.7395   46.9658 H   0  0  0  0  0  0  0  0  0  0  0  0
   60.7234   26.2225   46.5881 H   0  0  0  0  0  0  0  0  0  0  0  0
   60.4339   28.4238   45.4501 H   0  0  0  0  0  0  0  0  0  0  0  0
   57.7402   32.0331   43.6868 H   0  0  0  0  0  0  0  0  0  0  0  0
   56.0416   32.1869   44.2716 H   0  0  0  0  0  0  0  0  0  0  0  0
   57.9244   34.2182   43.8190 H   0  0  0  0  0  0  0  0  0  0  0  0
   59.3969   36.2122   44.0344 H   0  0  0  0  0  0  0  0  0  0  0  0
   60.6260   36.6381   46.1572 H   0  0  0  0  0  0  0  0  0  0  0  0
   60.3847   35.0749   48.0770 H   0  0  0  0  0  0  0  0  0  0  0  0
   61.8485   34.0419   50.2984 H   0  0  0  0  0  0  0  0  0  0  0  0
   64.2335   34.3788   49.6475 H   0  0  0  0  0  0  0  0  0  0  0  0
   65.1601   33.2189   47.6415 H   0  0  0  0  0  0  0  0  0  0  0  0
   63.7041   31.7022   46.2924 H   0  0  0  0  0  0  0  0  0  0  0  0
   61.3202   31.3574   46.9391 H   0  0  0  0  0  0  0  0  0  0  0  0
   56.1963   27.6420   45.0232 H   0  0  0  0  0  0  0  0  0  0  0  0
  1  2  1  0
  2  3  2  0
  2  4  2  0
  2  5  1  0
  5  6  2  0
  6  7  1  0
  7  8  2  0
  8  9  1  0
  9 10  1  0
 10 11  1  0
 11 12  2  0
 11 13  1  0
 13 14  1  0
 14 15  1  0
 15 16  2  0
 16 17  1  0
 17 18  2  0
 18 19  1  0
 19 20  2  0
 20 21  1  0
 21 22  2  0
 21 23  1  0
 23 24  1  0
 24 25  2  0
 25 26  1  0
 26 27  2  0
 27 28  1  0
 28 29  2  0
  9 30  2  0
 30  5  1  0
 20 15  1  0
 29 24  1  0
  1 31  1  0
  6 32  1  0
  7 33  1  0
  8 34  1  0
 13 35  1  0
 13 36  1  0
 16 37  1  0
 17 38  1  0
 18 39  1  0
 19 40  1  0
 25 41  1  0
 26 42  1  0
 27 43  1  0
 28 44  1  0
 29 45  1  0
 30 46  1  0
M  CHG  3   1  -1  10  -1  23  -1
M  END
>  <UniqueID>  (94) 
90

>  <SMILES>  (94) 
[NH-]S(=O)(=O)c1cccc([N-]C(=O)COc2ccccc2C(=O)[N-]c2ccccc2)c1

>  <Energy>  (94) 
59.10840758391086

>  <Genealogy>  (94) 
[NH-]S(=O)(=O)c1cccc([N-]C(=O)COc2ccccc2C(=O)[N-]c2ccccc2)c1 (protonated)
[NH-]S(=O)(=O)c1cccc([N-]C(=O)COc2ccccc2C(=O)[N-]c2ccccc2)c1 (3D coordinates assigned)
[NH-]S(=O)(=O)c1cccc([N-]C(=O)COc2ccccc2C(=O)[N-]c2ccccc2)c1 (optimized conformer: 59.10840758391086 kcal/mol)

>  <smiles>  (94) 
NS(=O)(=O)c1cccc(NC(=O)COc2ccccc2C(=O)Nc2ccccc2)c1

>  <score_type>  (94) 
oracle

>  <origin>  (94) 
adg

>  <m_score__min__energy>  (94) 
-13.890000000000001

>  <m_primary>  (94) 
energy

$$$$
94:0
     RDKit          3D

 51 54  0  0  0  0  0  0  0  0999 V2000
   58.3090   32.1690   43.5250 O   0  0  0  0  0  0  0  0  0  0  0  0
   57.7810   32.1590   44.6680 C   0  0  0  0  0  0  0  0  0  0  0  0
   57.6180   33.4450   45.4210 C   0  0  0  0  0  0  0  0  0  0  0  0
   58.3440   33.3970   46.7380 C   0  0  0  0  0  0  0  0  0  0  0  0
   57.7790   32.7240   47.8320 C   0  0  0  0  0  0  0  0  0  0  0  0
   58.4560   32.6670   49.0510 C   0  0  0  0  0  0  0  0  0  0  0  0
   59.7070   33.2740   49.1860 C   0  0  0  0  0  0  0  0  0  0  0  0
   60.2980   33.9290   48.0920 C   0  0  0  0  0  0  0  0  0  0  0  0
   61.5440   34.5640   48.1970 O   0  0  0  0  0  0  0  0  0  0  0  0
   62.6420   34.0860   48.9260 C   0  0  0  0  0  0  0  0  0  0  0  0
   63.7390   33.4640   48.3010 C   0  0  0  0  0  0  0  0  0  0  0  0
   64.8260   33.0210   49.0620 C   0  0  0  0  0  0  0  0  0  0  0  0
   64.8300   33.2020   50.4470 C   0  0  0  0  0  0  0  0  0  0  0  0
   63.7510   33.8350   51.0720 C   0  0  0  0  0  0  0  0  0  0  0  0
   62.6650   34.2810   50.3130 C   0  0  0  0  0  0  0  0  0  0  0  0
   59.6080   33.9940   46.8750 C   0  0  0  0  0  0  0  0  0  0  0  0
   57.2690   30.9410   45.2240 N   0  0  0  0  0  0  0  0  0  0  0  0
   57.2220   29.6610   44.5210 C   0  0  1  0  0  0  0  0  0  0  0  0
   58.4290   28.7820   44.8960 C   0  0  0  0  0  0  0  0  0  0  0  0
   58.7820   28.9050   46.3490 C   0  0  0  0  0  0  0  0  0  0  0  0
   58.1370   28.2720   47.4070 C   0  0  0  0  0  0  0  0  0  0  0  0
   58.7360   28.5810   48.5800 N   0  0  0  0  0  0  0  0  0  0  0  0
   59.7540   29.4030   48.2710 C   0  0  0  0  0  0  0  0  0  0  0  0
   60.6610   29.9870   49.1530 C   0  0  0  0  0  0  0  0  0  0  0  0
   61.6530   30.8270   48.6160 C   0  0  0  0  0  0  0  0  0  0  0  0
   61.7150   31.0590   47.2240 C   0  0  0  0  0  0  0  0  0  0  0  0
   60.7940   30.4470   46.3550 C   0  0  0  0  0  0  0  0  0  0  0  0
   59.8170   29.6240   46.9180 C   0  0  0  0  0  0  0  0  0  0  0  0
   55.9510   28.9560   44.8920 C   0  0  0  0  0  0  0  0  0  0  0  0
   54.8330   29.4580   44.5950 O   0  0  0  0  0  0  0  0  0  0  0  0
   55.9990   27.7610   45.5990 O   0  0  0  0  0  0  0  0  0  0  0  0
   58.0244   34.2693   44.8165 H   0  0  0  0  0  0  0  0  0  0  0  0
   56.5471   33.6015   45.6178 H   0  0  0  0  0  0  0  0  0  0  0  0
   56.7973   32.2388   47.7282 H   0  0  0  0  0  0  0  0  0  0  0  0
   58.0041   32.1436   49.9065 H   0  0  0  0  0  0  0  0  0  0  0  0
   60.2315   33.2391   50.1523 H   0  0  0  0  0  0  0  0  0  0  0  0
   63.7416   33.3257   47.2097 H   0  0  0  0  0  0  0  0  0  0  0  0
   65.6781   32.5298   48.5694 H   0  0  0  0  0  0  0  0  0  0  0  0
   65.6816   32.8468   51.0459 H   0  0  0  0  0  0  0  0  0  0  0  0
   63.7568   33.9822   52.1621 H   0  0  0  0  0  0  0  0  0  0  0  0
   61.8236   34.7881   50.8079 H   0  0  0  0  0  0  0  0  0  0  0  0
   60.0598   34.5170   46.0192 H   0  0  0  0  0  0  0  0  0  0  0  0
   57.2567   29.8449   43.4370 H   0  0  0  0  0  0  0  0  0  0  0  0
   58.1856   27.7319   44.6770 H   0  0  0  0  0  0  0  0  0  0  0  0
   59.2933   29.1207   44.3058 H   0  0  0  0  0  0  0  0  0  0  0  0
   57.2625   27.6127   47.3041 H   0  0  0  0  0  0  0  0  0  0  0  0
   58.4610   28.2450   49.5300 H   0  0  0  0  0  0  0  0  0  0  0  0
   60.6030   29.7971   50.2349 H   0  0  0  0  0  0  0  0  0  0  0  0
   62.3845   31.3059   49.2835 H   0  0  0  0  0  0  0  0  0  0  0  0
   62.4904   31.7241   46.8161 H   0  0  0  0  0  0  0  0  0  0  0  0
   60.8419   30.6113   45.2684 H   0  0  0  0  0  0  0  0  0  0  0  0
  1  2  2  0
  2  3  1  0
  3  4  1  0
  4  5  2  0
  5  6  1  0
  6  7  2  0
  7  8  1  0
  8  9  1  0
  9 10  1  0
 10 11  2  0
 11 12  1  0
 12 13  2  0
 13 14  1  0
 14 15  2  0
  8 16  2  0
  2 17  1  0
 17 18  1  0
 18 19  1  0
 19 20  1  0
 20 21  2  0
 21 22  1  0
 22 23  1  0
 23 24  2  0
 24 25  1  0
 25 26  2  0
 26 27  1  0
 27 28  2  0
 18 29  1  0
 29 30  2  0
 29 31  1  0
 16  4  1  0
 28 20  1  0
 15 10  1  0
 28 23  1  0
  3 32  1  0
  3 33  1  0
  5 34  1  0
  6 35  1  0
  7 36  1  0
 11 37  1  0
 12 38  1  0
 13 39  1  0
 14 40  1  0
 15 41  1  0
 16 42  1  0
 18 43  1  6
 19 44  1  0
 19 45  1  0
 21 46  1  0
 22 47  1  0
 24 48  1  0
 25 49  1  0
 26 50  1  0
 27 51  1  0
M  CHG  2  17  -1  31  -1
M  END
>  <UniqueID>  (95) 
91

>  <SMILES>  (95) 
O=C(Cc1cccc(Oc2ccccc2)c1)[N-][C@@H](Cc1c[nH]c2ccccc12)C(=O)[O-]

>  <Energy>  (95) 
84.8167805094318

>  <Genealogy>  (95) 
O=C(Cc1cccc(Oc2ccccc2)c1)[N-]C(Cc1c[nH]c2ccccc12)C(=O)[O-] (protonated)
O=C(Cc1cccc(Oc2ccccc2)c1)[N-][C@@H](Cc1c[nH]c2ccccc12)C(=O)[O-] (chirality)
O=C(Cc1cccc(Oc2ccccc2)c1)[N-][C@@H](Cc1c[nH]c2ccccc12)C(=O)[O-] (3D coordinates assigned)
O=C(Cc1cccc(Oc2ccccc2)c1)[N-][C@@H](Cc1c[nH]c2ccccc12)C(=O)[O-] (optimized conformer: 84.8167805094318 kcal/mol)

>  <smiles>  (95) 
O=C(Cc1cccc(Oc2ccccc2)c1)NC(Cc1c[nH]c2ccccc12)C(=O)O

>  <score_type>  (95) 
oracle

>  <origin>  (95) 
adg

>  <m_score__min__energy>  (95) 
-14.18

>  <m_primary>  (95) 
energy

$$$$
