0:0
     RDKit          3D

 54 56  0  0  0  0  0  0  0  0999 V2000
   62.4260   33.0360   46.8130 C   0  0  0  0  0  0  0  0  0  0  0  0
   61.2330   32.3180   46.5190 O   0  0  0  0  0  0  0  0  0  0  0  0
   60.8390   31.1290   47.1570 C   0  0  0  0  0  0  0  0  0  0  0  0
   61.0750   29.8660   46.5780 C   0  0  0  0  0  0  0  0  0  0  0  0
   60.6960   28.7000   47.2450 C   0  0  0  0  0  0  0  0  0  0  0  0
   60.0860   28.7770   48.4980 C   0  0  0  0  0  0  0  0  0  0  0  0
   59.7340   27.6420   49.1500 F   0  0  0  0  0  0  0  0  0  0  0  0
   59.8440   30.0210   49.0820 C   0  0  0  0  0  0  0  0  0  0  0  0
   60.1960   31.2060   48.4130 C   0  0  0  0  0  0  0  0  0  0  0  0
   59.9210   32.5490   49.0570 C   0  0  0  0  0  0  0  0  0  0  0  0
   58.5290   33.1160   48.6850 C   0  0  0  0  0  0  0  0  0  0  0  0
   58.3990   33.6830   47.2520 C   0  0  1  0  0  0  0  0  0  0  0  0
   59.5690   34.6000   46.8580 C   0  0  0  0  0  0  0  0  0  0  0  0
   59.3170   35.2520   45.4880 C   0  0  0  0  0  0  0  0  0  0  0  0
   58.5560   34.3250   44.5160 C   0  0  0  0  0  0  0  0  0  0  0  0
   58.7440   32.8990   44.8660 N   0  0  2  0  0  0  0  0  0  0  0  0
   58.2830   31.9810   43.7950 C   0  0  0  0  0  0  0  0  0  0  0  0
   57.8240   30.6210   44.2860 C   0  0  0  0  0  0  0  0  0  0  0  0
   58.7600   29.6350   44.6340 C   0  0  0  0  0  0  0  0  0  0  0  0
   58.3390   28.3860   45.0960 C   0  0  0  0  0  0  0  0  0  0  0  0
   56.9680   28.1000   45.2320 C   0  0  0  0  0  0  0  0  0  0  0  0
   56.5170   26.7760   45.7210 C   0  0  0  0  0  0  0  0  0  0  0  0
   55.1390   26.5400   46.0100 N   0  0  0  0  0  0  0  0  0  0  0  0
   57.3480   25.8430   45.8890 O   0  0  0  0  0  0  0  0  0  0  0  0
   56.0310   29.0950   44.9010 C   0  0  0  0  0  0  0  0  0  0  0  0
   56.4550   30.3440   44.4390 C   0  0  0  0  0  0  0  0  0  0  0  0
   58.1430   32.5770   46.1860 C   0  0  0  0  0  0  0  0  0  0  0  0
   62.5498   33.1105   47.9035 H   0  0  0  0  0  0  0  0  0  0  0  0
   63.2883   32.5067   46.3814 H   0  0  0  0  0  0  0  0  0  0  0  0
   62.3620   34.0458   46.3814 H   0  0  0  0  0  0  0  0  0  0  0  0
   61.5613   29.7987   45.5936 H   0  0  0  0  0  0  0  0  0  0  0  0
   60.8784   27.7188   46.7824 H   0  0  0  0  0  0  0  0  0  0  0  0
   59.3735   30.0748   50.0749 H   0  0  0  0  0  0  0  0  0  0  0  0
   59.9731   32.4327   50.1496 H   0  0  0  0  0  0  0  0  0  0  0  0
   60.6777   33.2563   48.6868 H   0  0  0  0  0  0  0  0  0  0  0  0
   57.7930   32.3061   48.7965 H   0  0  0  0  0  0  0  0  0  0  0  0
   58.3604   33.9669   49.3615 H   0  0  0  0  0  0  0  0  0  0  0  0
   57.5006   34.3174   47.2707 H   0  0  0  0  0  0  0  0  0  0  0  0
   59.6804   35.3882   47.6171 H   0  0  0  0  0  0  0  0  0  0  0  0
   60.4852   33.9944   46.7962 H   0  0  0  0  0  0  0  0  0  0  0  0
   58.7248   36.1668   45.6376 H   0  0  0  0  0  0  0  0  0  0  0  0
   60.2974   35.4698   45.0392 H   0  0  0  0  0  0  0  0  0  0  0  0
   57.4834   34.5651   44.5593 H   0  0  0  0  0  0  0  0  0  0  0  0
   58.9533   34.4867   43.5031 H   0  0  0  0  0  0  0  0  0  0  0  0
   59.7760   32.7290   44.9430 H   0  0  0  0  0  0  0  0  0  0  0  0
   57.4419   32.4590   43.2714 H   0  0  0  0  0  0  0  0  0  0  0  0
   59.1501   31.8015   43.1424 H   0  0  0  0  0  0  0  0  0  0  0  0
   59.8353   29.8478   44.5420 H   0  0  0  0  0  0  0  0  0  0  0  0
   59.0848   27.6202   45.3555 H   0  0  0  0  0  0  0  0  0  0  0  0
   54.6460   27.0840   46.7520 H   0  0  0  0  0  0  0  0  0  0  0  0
   54.9557   28.8886   45.0066 H   0  0  0  0  0  0  0  0  0  0  0  0
   55.7112   31.1162   44.1932 H   0  0  0  0  0  0  0  0  0  0  0  0
   57.0571   32.4571   46.0578 H   0  0  0  0  0  0  0  0  0  0  0  0
   58.6159   31.6523   46.5483 H   0  0  0  0  0  0  0  0  0  0  0  0
  1  2  1  0
  2  3  1  0
  3  4  2  0
  4  5  1  0
  5  6  2  0
  6  7  1  0
  6  8  1  0
  8  9  2  0
  9 10  1  0
 10 11  1  0
 11 12  1  0
 12 13  1  0
 13 14  1  0
 14 15  1  0
 15 16  1  0
 16 17  1  0
 17 18  1  0
 18 19  2  0
 19 20  1  0
 20 21  2  0
 21 22  1  0
 22 23  1  0
 22 24  2  0
 21 25  1  0
 25 26  2  0
 16 27  1  0
  9  3  1  0
 27 12  1  0
 26 18  1  0
  1 28  1  0
  1 29  1  0
  1 30  1  0
  4 31  1  0
  5 32  1  0
  8 33  1  0
 10 34  1  0
 10 35  1  0
 11 36  1  0
 11 37  1  0
 12 38  1  1
 13 39  1  0
 13 40  1  0
 14 41  1  0
 14 42  1  0
 15 43  1  0
 15 44  1  0
 16 45  1  1
 17 46  1  0
 17 47  1  0
 19 48  1  0
 20 49  1  0
 23 50  1  0
 25 51  1  0
 26 52  1  0
 27 53  1  0
 27 54  1  0
M  CHG  2  16   1  23  -1
M  END
>  <UniqueID>  (1) 
1

>  <SMILES>  (1) 
COc1ccc(F)cc1CC[C@H]1CCC[N@H+](Cc2ccc(C([NH-])=O)cc2)C1

>  <Energy>  (1) 
65.32821027962005

>  <Genealogy>  (1) 
COc1ccc(F)cc1CCC1CCC[NH+](Cc2ccc(C([NH-])=O)cc2)C1 (protonated)
COc1ccc(F)cc1CC[C@H]1CCC[N@H+](Cc2ccc(C([NH-])=O)cc2)C1 (chirality)
COc1ccc(F)cc1CC[C@H]1CCC[N@H+](Cc2ccc(C([NH-])=O)cc2)C1 (3D coordinates assigned)
COc1ccc(F)cc1CC[C@H]1CCC[N@H+](Cc2ccc(C([NH-])=O)cc2)C1 (nonaromatic ring conformer: 65.32821027962005 kcal/mol)

>  <smiles>  (1) 
COc1ccc(F)cc1CCC1CCCN(Cc2ccc(C(N)=O)cc2)C1

>  <score_type>  (1) 
oracle

>  <origin>  (1) 
adg

>  <m_score__min__energy>  (1) 
-9.8499999999999996

>  <m_primary>  (1) 
energy

$$$$
1:0
     RDKit          3D

 46 48  0  0  0  0  0  0  0  0999 V2000
   57.7720   30.9260   51.2420 C   0  0  0  0  0  0  0  0  0  0  0  0
   58.6360   30.1540   50.3000 C   0  0  0  0  0  0  0  0  0  0  0  0
   59.6620   29.3160   50.7290 C   0  0  0  0  0  0  0  0  0  0  0  0
   60.4250   28.7000   49.3650 S   0  0  0  0  0  0  0  0  0  0  0  0
   59.4180   29.5230   48.2900 C   0  0  0  0  0  0  0  0  0  0  0  0
   59.4880   29.5210   46.9900 N   0  0  0  0  0  0  0  0  0  0  0  0
   59.1810   28.4670   46.0610 C   0  0  0  0  0  0  0  0  0  0  0  0
   60.0320   28.1840   45.1760 O   0  0  0  0  0  0  0  0  0  0  0  0
   57.8680   27.7370   46.0470 C   0  0  0  0  0  0  0  0  0  0  0  0
   57.1000   28.1280   44.8700 N   0  0  0  0  0  0  0  0  0  0  0  0
   56.3940   29.3670   44.7210 C   0  0  0  0  0  0  0  0  0  0  0  0
   55.1430   29.3720   44.8690 O   0  0  0  0  0  0  0  0  0  0  0  0
   57.0750   30.6230   44.3470 C   0  0  0  0  0  0  0  0  0  0  0  0
   57.1140   31.0210   43.0010 C   0  0  0  0  0  0  0  0  0  0  0  0
   57.7530   32.2090   42.6370 C   0  0  0  0  0  0  0  0  0  0  0  0
   58.3490   33.0130   43.6110 C   0  0  0  0  0  0  0  0  0  0  0  0
   58.3010   32.6350   44.9610 C   0  0  0  0  0  0  0  0  0  0  0  0
   59.0170   33.6500   46.2100 S   0  0  0  0  0  0  0  0  0  0  0  0
   60.1110   34.4690   45.5850 O   0  0  0  0  0  0  0  0  0  0  0  0
   57.9780   34.5800   46.7740 O   0  0  0  0  0  0  0  0  0  0  0  0
   59.6700   32.6240   47.4690 N   0  0  0  0  0  0  0  0  0  0  0  0
   59.4500   33.1960   48.8170 C   0  0  0  0  0  0  0  0  0  0  0  0
   60.6970   33.9070   49.3720 C   0  0  0  0  0  0  0  0  0  0  0  0
   61.4330   34.4920   48.3230 O   0  0  0  0  0  0  0  0  0  0  0  0
   62.0260   33.4870   47.5210 C   0  0  0  0  0  0  0  0  0  0  0  0
   61.0850   32.2950   47.2230 C   0  0  0  0  0  0  0  0  0  0  0  0
   57.6560   31.4470   45.3250 C   0  0  0  0  0  0  0  0  0  0  0  0
   58.5160   30.2790   48.9500 N   0  0  0  0  0  0  0  0  0  0  0  0
   58.0477   30.6797   52.2780 H   0  0  0  0  0  0  0  0  0  0  0  0
   57.9143   32.0033   51.0710 H   0  0  0  0  0  0  0  0  0  0  0  0
   56.7175   30.6638   51.0710 H   0  0  0  0  0  0  0  0  0  0  0  0
   59.9257   29.0966   51.7741 H   0  0  0  0  0  0  0  0  0  0  0  0
   58.0527   26.6530   46.0194 H   0  0  0  0  0  0  0  0  0  0  0  0
   57.2999   27.9922   46.9537 H   0  0  0  0  0  0  0  0  0  0  0  0
   56.6398   30.3953   42.2305 H   0  0  0  0  0  0  0  0  0  0  0  0
   57.7867   32.5119   41.5801 H   0  0  0  0  0  0  0  0  0  0  0  0
   58.8568   33.9441   43.3191 H   0  0  0  0  0  0  0  0  0  0  0  0
   58.6264   33.9230   48.7605 H   0  0  0  0  0  0  0  0  0  0  0  0
   59.2126   32.3638   49.4960 H   0  0  0  0  0  0  0  0  0  0  0  0
   60.3841   34.6911   50.0772 H   0  0  0  0  0  0  0  0  0  0  0  0
   61.3307   33.1694   49.8861 H   0  0  0  0  0  0  0  0  0  0  0  0
   62.3281   33.9388   46.5647 H   0  0  0  0  0  0  0  0  0  0  0  0
   62.8821   33.0883   48.0850 H   0  0  0  0  0  0  0  0  0  0  0  0
   61.2028   32.0066   46.1680 H   0  0  0  0  0  0  0  0  0  0  0  0
   61.3611   31.4716   47.8981 H   0  0  0  0  0  0  0  0  0  0  0  0
   57.6038   31.1567   46.3847 H   0  0  0  0  0  0  0  0  0  0  0  0
  1  2  1  0
  2  3  2  0
  3  4  1  0
  4  5  1  0
  5  6  2  3
  6  7  1  0
  7  8  2  0
  7  9  1  0
  9 10  1  0
 10 11  1  0
 11 12  2  0
 11 13  1  0
 13 14  2  0
 14 15  1  0
 15 16  2  0
 16 17  1  0
 17 18  1  0
 18 19  2  0
 18 20  2  0
 18 21  1  0
 21 22  1  0
 22 23  1  0
 23 24  1  0
 24 25  1  0
 25 26  1  0
 17 27  2  0
  5 28  1  0
 28  2  1  0
 27 13  1  0
 26 21  1  0
  1 29  1  0
  1 30  1  0
  1 31  1  0
  3 32  1  0
  9 33  1  0
  9 34  1  0
 14 35  1  0
 15 36  1  0
 16 37  1  0
 22 38  1  0
 22 39  1  0
 23 40  1  0
 23 41  1  0
 25 42  1  0
 25 43  1  0
 26 44  1  0
 26 45  1  0
 27 46  1  0
M  CHG  2  10  -1  28  -1
M  END
>  <UniqueID>  (2) 
2

>  <SMILES>  (2) 
Cc1csc(=NC(=O)C[N-]C(=O)c2cccc(S(=O)(=O)N3CCOCC3)c2)[n-]1

>  <Energy>  (2) 
95.14711685010978

>  <Genealogy>  (2) 
Cc1csc(=NC(=O)C[N-]C(=O)c2cccc(S(=O)(=O)N3CCOCC3)c2)[n-]1 (protonated)
Cc1csc(=NC(=O)C[N-]C(=O)c2cccc(S(=O)(=O)N3CCOCC3)c2)[n-]1 (3D coordinates assigned)
Cc1csc(=NC(=O)C[N-]C(=O)c2cccc(S(=O)(=O)N3CCOCC3)c2)[n-]1 (nonaromatic ring conformer: 95.14711685010978 kcal/mol)

>  <smiles>  (2) 
Cc1csc(=NC(=O)CNC(=O)c2cccc(S(=O)(=O)N3CCOCC3)c2)[nH]1

>  <score_type>  (2) 
oracle

>  <origin>  (2) 
adg

>  <m_score__min__energy>  (2) 
-12.48

>  <m_primary>  (2) 
energy

$$$$
2:0
     RDKit          3D

 56 59  0  0  0  0  0  0  0  0999 V2000
   55.1690   29.6550   44.9520 O   0  0  0  0  0  0  0  0  0  0  0  0
   56.3770   29.5870   44.5980 C   0  0  0  0  0  0  0  0  0  0  0  0
   57.0180   28.3110   44.4680 N   0  0  0  0  0  0  0  0  0  0  0  0
   57.5760   27.5340   45.5380 C   0  0  0  0  0  0  0  0  0  0  0  0
   58.9160   27.7530   45.8980 C   0  0  0  0  0  0  0  0  0  0  0  0
   59.6780   28.6870   45.2080 O   0  0  0  0  0  0  0  0  0  0  0  0
   59.4970   27.0310   46.9450 C   0  0  0  0  0  0  0  0  0  0  0  0
   58.7470   26.0880   47.6420 C   0  0  0  0  0  0  0  0  0  0  0  0
   57.4050   25.8820   47.3180 C   0  0  0  0  0  0  0  0  0  0  0  0
   56.7930   26.6310   46.2960 C   0  0  0  0  0  0  0  0  0  0  0  0
   55.3900   26.4810   46.0110 N   0  0  0  0  0  0  0  0  0  0  0  0
   54.7180   25.2770   45.6220 C   0  0  0  0  0  0  0  0  0  0  0  0
   53.5310   25.0970   45.9950 O   0  0  0  0  0  0  0  0  0  0  0  0
   55.4140   24.2090   44.8780 C   0  0  0  0  0  0  0  0  0  0  0  0
   56.6770   24.4660   44.3260 C   0  0  0  0  0  0  0  0  0  0  0  0
   57.3640   23.4620   43.6400 C   0  0  0  0  0  0  0  0  0  0  0  0
   56.7780   22.2030   43.5110 C   0  0  0  0  0  0  0  0  0  0  0  0
   57.3860   21.2830   42.9010 O   0  0  0  0  0  0  0  0  0  0  0  0
   55.5470   21.9660   44.0410 N   0  0  0  0  0  0  0  0  0  0  0  0
   54.8510   22.9230   44.7120 C   0  0  0  0  0  0  0  0  0  0  0  0
   53.5750   22.6080   45.1870 O   0  0  0  0  0  0  0  0  0  0  0  0
   57.1260   30.8240   44.2910 C   0  0  0  0  0  0  0  0  0  0  0  0
   57.3760   31.1900   42.9550 C   0  0  0  0  0  0  0  0  0  0  0  0
   58.0620   32.3690   42.6640 C   0  0  0  0  0  0  0  0  0  0  0  0
   58.5190   33.1870   43.7000 C   0  0  0  0  0  0  0  0  0  0  0  0
   58.2970   32.8260   45.0370 C   0  0  0  0  0  0  0  0  0  0  0  0
   58.9380   33.8220   46.3450 S   0  0  0  0  0  0  0  0  0  0  0  0
   59.2220   35.2010   45.8180 O   0  0  0  0  0  0  0  0  0  0  0  0
   57.9080   33.9400   47.4330 O   0  0  0  0  0  0  0  0  0  0  0  0
   60.3990   33.1360   47.0130 N   0  0  0  0  0  0  0  0  0  0  0  0
   60.3860   31.6650   46.8650 C   0  0  0  0  0  0  0  0  0  0  0  0
   61.7710   31.0290   47.1130 C   0  0  0  0  0  0  0  0  0  0  0  0
   62.7040   31.9800   47.8710 C   0  0  0  0  0  0  0  0  0  0  0  0
   62.8650   33.3170   47.1220 C   0  0  0  0  0  0  0  0  0  0  0  0
   61.5850   33.7310   46.3730 C   0  0  0  0  0  0  0  0  0  0  0  0
   57.5910   31.6500   45.3270 C   0  0  0  0  0  0  0  0  0  0  0  0
   60.5477   27.2084   47.2181 H   0  0  0  0  0  0  0  0  0  0  0  0
   59.2127   25.5041   48.4496 H   0  0  0  0  0  0  0  0  0  0  0  0
   56.8211   25.1280   47.8661 H   0  0  0  0  0  0  0  0  0  0  0  0
   57.1289   25.4631   44.4337 H   0  0  0  0  0  0  0  0  0  0  0  0
   58.3551   23.6618   43.2067 H   0  0  0  0  0  0  0  0  0  0  0  0
   53.0370   23.2330   45.7730 H   0  0  0  0  0  0  0  0  0  0  0  0
   57.0285   30.5428   42.1362 H   0  0  0  0  0  0  0  0  0  0  0  0
   58.2434   32.6550   41.6174 H   0  0  0  0  0  0  0  0  0  0  0  0
   59.0554   34.1185   43.4662 H   0  0  0  0  0  0  0  0  0  0  0  0
   59.6713   31.2449   47.5879 H   0  0  0  0  0  0  0  0  0  0  0  0
   60.0969   31.4379   45.8283 H   0  0  0  0  0  0  0  0  0  0  0  0
   61.6408   30.1107   47.7044 H   0  0  0  0  0  0  0  0  0  0  0  0
   62.2265   30.8077   46.1365 H   0  0  0  0  0  0  0  0  0  0  0  0
   62.2835   32.1758   48.8684 H   0  0  0  0  0  0  0  0  0  0  0  0
   63.6930   31.5055   47.9534 H   0  0  0  0  0  0  0  0  0  0  0  0
   63.1167   34.1016   47.8508 H   0  0  0  0  0  0  0  0  0  0  0  0
   63.6623   33.1879   46.3753 H   0  0  0  0  0  0  0  0  0  0  0  0
   61.4940   34.8271   46.3896 H   0  0  0  0  0  0  0  0  0  0  0  0
   61.6476   33.3721   45.3351 H   0  0  0  0  0  0  0  0  0  0  0  0
   57.3999   31.3722   46.3741 H   0  0  0  0  0  0  0  0  0  0  0  0
  1  2  2  0
  2  3  1  0
  3  4  1  0
  4  5  2  0
  5  6  1  0
  5  7  1  0
  7  8  2  0
  8  9  1  0
  9 10  2  0
 10 11  1  0
 11 12  1  0
 12 13  2  0
 12 14  1  0
 14 15  1  0
 15 16  2  0
 16 17  1  0
 17 18  2  0
 17 19  1  0
 19 20  1  0
 20 21  1  0
  2 22  1  0
 22 23  2  0
 23 24  1  0
 24 25  2  0
 25 26  1  0
 26 27  1  0
 27 28  2  0
 27 29  2  0
 27 30  1  0
 30 31  1  0
 31 32  1  0
 32 33  1  0
 33 34  1  0
 34 35  1  0
 26 36  2  0
 10  4  1  0
 20 14  2  0
 36 22  1  0
 35 30  1  0
  7 37  1  0
  8 38  1  0
  9 39  1  0
 15 40  1  0
 16 41  1  0
 21 42  1  0
 23 43  1  0
 24 44  1  0
 25 45  1  0
 31 46  1  0
 31 47  1  0
 32 48  1  0
 32 49  1  0
 33 50  1  0
 33 51  1  0
 34 52  1  0
 34 53  1  0
 35 54  1  0
 35 55  1  0
 36 56  1  0
M  CHG  4   3  -1   6  -1  11  -1  19  -1
M  END
>  <UniqueID>  (3) 
3

>  <SMILES>  (3) 
O=C([N-]c1c([O-])cccc1[N-]C(=O)c1ccc(=O)[n-]c1O)c1cccc(S(=O)(=O)N2CCCCC2)c1

>  <Energy>  (3) 
80.69809130965152

>  <Genealogy>  (3) 
O=C([N-]c1c([O-])cccc1[N-]C(=O)c1ccc(=O)[n-]c1O)c1cccc(S(=O)(=O)N2CCCCC2)c1 (protonated)
O=C([N-]c1c([O-])cccc1[N-]C(=O)c1ccc(=O)[n-]c1O)c1cccc(S(=O)(=O)N2CCCCC2)c1 (3D coordinates assigned)
O=C([N-]c1c([O-])cccc1[N-]C(=O)c1ccc(=O)[n-]c1O)c1cccc(S(=O)(=O)N2CCCCC2)c1 (nonaromatic ring conformer: 80.69809130965152 kcal/mol)

>  <smiles>  (3) 
O=C(Nc1c(O)cccc1NC(=O)c1ccc(=O)[nH]c1O)c1cccc(S(=O)(=O)N2CCCCC2)c1

>  <score_type>  (3) 
oracle

>  <origin>  (3) 
adg

>  <m_score__min__energy>  (3) 
-17.23

>  <m_primary>  (3) 
energy

$$$$
3:0
     RDKit          3D

 47 49  0  0  0  0  0  0  0  0999 V2000
   56.4770   30.0280   44.8200 O   0  0  0  0  0  0  0  0  0  0  0  0
   57.5890   30.5400   44.8670 C   0  0  0  0  0  0  0  0  0  0  0  0
   58.7640   29.8160   44.2850 C   0  0  0  0  0  0  0  0  0  0  0  0
   59.0350   28.5660   45.0320 N   0  0  0  0  0  0  0  0  0  0  0  0
   59.8620   28.6780   46.2130 C   0  0  0  0  0  0  0  0  0  0  0  0
   61.1160   28.7580   46.0930 O   0  0  0  0  0  0  0  0  0  0  0  0
   59.2670   28.8040   47.5960 C   0  0  2  0  0  0  0  0  0  0  0  0
   60.3420   28.8080   48.5900 N   0  0  0  0  0  0  0  0  0  0  0  0
   60.7110   29.8780   49.4730 C   0  0  0  0  0  0  0  0  0  0  0  0
   60.4700   29.7540   50.7050 O   0  0  0  0  0  0  0  0  0  0  0  0
   61.4550   31.1040   49.0060 C   0  0  0  0  0  0  0  0  0  0  0  0
   61.7200   31.0520   47.5470 N   0  0  0  0  0  0  0  0  0  0  0  0
   60.7780   31.8390   46.7860 C   0  0  0  0  0  0  0  0  0  0  0  0
   60.5930   33.1560   46.9430 C   0  0  0  0  0  0  0  0  0  0  0  0
   61.6530   34.1270   47.2610 C   0  0  0  0  0  0  0  0  0  0  0  0
   62.9670   33.8930   47.1410 C   0  0  0  0  0  0  0  0  0  0  0  0
   63.6290   32.6040   47.4210 C   0  0  0  0  0  0  0  0  0  0  0  0
   63.0820   31.3950   47.2130 C   0  0  0  0  0  0  0  0  0  0  0  0
   58.2800   27.6650   47.8660 C   0  0  0  0  0  0  0  0  0  0  0  0
   58.7580   26.1280   47.0680 S   0  0  0  0  0  0  0  0  0  0  0  0
   58.0610   24.9660   47.7270 O   0  0  0  0  0  0  0  0  0  0  0  0
   60.2410   25.9800   47.2810 O   0  0  0  0  0  0  0  0  0  0  0  0
   58.3900   26.1330   45.3320 C   0  0  0  0  0  0  0  0  0  0  0  0
   57.8790   24.9450   44.7750 C   0  0  0  0  0  0  0  0  0  0  0  0
   57.5700   24.8600   43.4230 C   0  0  0  0  0  0  0  0  0  0  0  0
   57.7780   25.9600   42.5940 C   0  0  0  0  0  0  0  0  0  0  0  0
   58.2810   27.1510   43.1230 C   0  0  0  0  0  0  0  0  0  0  0  0
   58.5830   27.2840   44.5000 C   0  0  0  0  0  0  0  0  0  0  0  0
   57.7239   31.5266   45.3343 H   0  0  0  0  0  0  0  0  0  0  0  0
   58.5511   29.5692   43.2344 H   0  0  0  0  0  0  0  0  0  0  0  0
   59.6483   30.4666   44.3542 H   0  0  0  0  0  0  0  0  0  0  0  0
   58.7117   29.7511   47.6651 H   0  0  0  0  0  0  0  0  0  0  0  0
   60.8510   31.9959   49.2287 H   0  0  0  0  0  0  0  0  0  0  0  0
   62.4200   31.1454   49.5324 H   0  0  0  0  0  0  0  0  0  0  0  0
   61.5720   30.0620   47.2370 H   0  0  0  0  0  0  0  0  0  0  0  0
   60.1723   31.3223   46.0270 H   0  0  0  0  0  0  0  0  0  0  0  0
   59.5698   33.5422   46.8252 H   0  0  0  0  0  0  0  0  0  0  0  0
   61.3434   35.1181   47.6240 H   0  0  0  0  0  0  0  0  0  0  0  0
   63.6020   34.7271   46.8077 H   0  0  0  0  0  0  0  0  0  0  0  0
   64.6490   32.6358   47.8317 H   0  0  0  0  0  0  0  0  0  0  0  0
   63.7123   30.6162   46.7590 H   0  0  0  0  0  0  0  0  0  0  0  0
   58.2265   27.4959   48.9516 H   0  0  0  0  0  0  0  0  0  0  0  0
   57.3060   27.9649   47.4520 H   0  0  0  0  0  0  0  0  0  0  0  0
   57.7217   24.0690   45.4214 H   0  0  0  0  0  0  0  0  0  0  0  0
   57.1621   23.9264   43.0083 H   0  0  0  0  0  0  0  0  0  0  0  0
   57.5458   25.8906   41.5210 H   0  0  0  0  0  0  0  0  0  0  0  0
   58.4467   28.0074   42.4528 H   0  0  0  0  0  0  0  0  0  0  0  0
  1  2  2  0
  2  3  1  0
  3  4  1  0
  4  5  1  0
  5  6  2  0
  5  7  1  0
  7  8  1  0
  8  9  1  0
  9 10  2  0
  9 11  1  0
 11 12  1  0
 12 13  1  0
 13 14  2  0
 14 15  1  0
 15 16  2  0
 16 17  1  0
 17 18  2  0
  7 19  1  0
 19 20  1  0
 20 21  2  0
 20 22  2  0
 20 23  1  0
 23 24  2  0
 24 25  1  0
 25 26  2  0
 26 27  1  0
 27 28  2  0
 28  4  1  0
 18 12  1  0
 28 23  1  0
  2 29  1  0
  3 30  1  0
  3 31  1  0
  7 32  1  6
 11 33  1  0
 11 34  1  0
 12 35  1  0
 13 36  1  0
 14 37  1  0
 15 38  1  0
 16 39  1  0
 17 40  1  0
 18 41  1  0
 19 42  1  0
 19 43  1  0
 24 44  1  0
 25 45  1  0
 26 46  1  0
 27 47  1  0
M  CHG  2   8  -1  12   1
M  END
>  <UniqueID>  (4) 
4

>  <SMILES>  (4) 
O=CCN1C(=O)[C@H]([N-]C(=O)C[NH+]2C=CC=CC=C2)CS(=O)(=O)c2ccccc21

>  <Energy>  (4) 
73.74894482133615

>  <Genealogy>  (4) 
O=CCN1C(=O)C([N-]C(=O)C[NH+]2C=CC=CC=C2)CS(=O)(=O)c2ccccc21 (protonated)
O=CCN1C(=O)[C@H]([N-]C(=O)C[NH+]2C=CC=CC=C2)CS(=O)(=O)c2ccccc21 (chirality)
O=CCN1C(=O)[C@H]([N-]C(=O)C[NH+]2C=CC=CC=C2)CS(=O)(=O)c2ccccc21 (3D coordinates assigned)
O=CCN1C(=O)[C@H]([N-]C(=O)C[NH+]2C=CC=CC=C2)CS(=O)(=O)c2ccccc21 (nonaromatic ring conformer: 73.74894482133615 kcal/mol)

>  <smiles>  (4) 
O=CCN1C(=O)C(NC(=O)CN2C=CC=CC=C2)CS(=O)(=O)c2ccccc21

>  <score_type>  (4) 
oracle

>  <origin>  (4) 
adg

>  <m_score__min__energy>  (4) 
-4.1500000000000004

>  <m_primary>  (4) 
energy

$$$$
4:0
     RDKit          3D

 52 54  0  0  0  0  0  0  0  0999 V2000
   60.8760   30.6733   52.2690 H   0  0  0  0  0  0  0  0  0  0  0  0
   61.0290   30.4490   51.2030 C   0  0  0  0  0  0  0  0  0  0  0  0
   59.9180   29.8020   50.4770 C   0  0  0  0  0  0  0  0  0  0  0  0
   59.8000   28.5510   50.5640 O   0  0  0  0  0  0  0  0  0  0  0  0
   58.9080   30.6110   49.7500 C   0  0  0  0  0  0  0  0  0  0  0  0
   58.1740   30.0665   49.1378 H   0  0  0  0  0  0  0  0  0  0  0  0
   58.8130   31.9480   49.7750 C   0  0  0  0  0  0  0  0  0  0  0  0
   58.6404   32.4316   50.7478 H   0  0  0  0  0  0  0  0  0  0  0  0
   58.9240   32.8130   48.5890 C   0  0  0  0  0  0  0  0  0  0  0  0
   59.5330   34.0710   48.6810 C   0  0  0  0  0  0  0  0  0  0  0  0
   59.9306   34.4196   49.6456 H   0  0  0  0  0  0  0  0  0  0  0  0
   59.6360   34.8830   47.5500 C   0  0  0  0  0  0  0  0  0  0  0  0
   60.0912   35.8809   47.6337 H   0  0  0  0  0  0  0  0  0  0  0  0
   59.1640   34.4360   46.3100 C   0  0  0  0  0  0  0  0  0  0  0  0
   59.2880   35.5390   44.9390 Cl  0  0  0  0  0  0  0  0  0  0  0  0
   58.6040   33.1410   46.1910 C   0  0  0  0  0  0  0  0  0  0  0  0
   58.1230   32.5880   44.8570 C   0  0  0  0  0  0  0  0  0  0  0  0
   57.4583   33.3324   44.3943 H   0  0  0  0  0  0  0  0  0  0  0  0
   59.0216   32.3872   44.2551 H   0  0  0  0  0  0  0  0  0  0  0  0
   57.3850   31.3070   44.9620 N   0  0  0  0  0  0  0  0  0  0  0  0
   56.4790   31.0550   43.8220 C   0  0  0  0  0  0  0  0  0  0  0  0
   55.6834   31.8146   43.8230 H   0  0  0  0  0  0  0  0  0  0  0  0
   57.0683   31.1067   42.8946 H   0  0  0  0  0  0  0  0  0  0  0  0
   55.8350   29.6530   43.9100 C   0  0  0  0  0  0  0  0  0  0  0  0
   54.7651   29.7359   43.6684 H   0  0  0  0  0  0  0  0  0  0  0  0
   56.3491   28.9929   43.1959 H   0  0  0  0  0  0  0  0  0  0  0  0
   55.9770   29.0760   45.2530 N   0  0  0  0  0  0  0  0  0  0  0  0
   55.5130   29.7110   45.9450 H   0  0  0  0  0  0  0  0  0  0  0  0
   57.3960   28.9220   45.6210 C   0  0  0  0  0  0  0  0  0  0  0  0
   57.4645   28.7855   46.7103 H   0  0  0  0  0  0  0  0  0  0  0  0
   57.7881   28.0501   45.0769 H   0  0  0  0  0  0  0  0  0  0  0  0
   58.2510   30.1460   45.2210 C   0  0  0  0  0  0  0  0  0  0  0  0
   58.9464   30.3865   46.0387 H   0  0  0  0  0  0  0  0  0  0  0  0
   58.8147   29.9073   44.3071 H   0  0  0  0  0  0  0  0  0  0  0  0
   58.4770   32.3470   47.3460 C   0  0  0  0  0  0  0  0  0  0  0  0
   58.0213   31.3486   47.2717 H   0  0  0  0  0  0  0  0  0  0  0  0
   62.2120   30.7850   50.6630 C   0  0  0  0  0  0  0  0  0  0  0  0
   63.1176   30.3377   51.0986 H   0  0  0  0  0  0  0  0  0  0  0  0
   62.3850   31.7180   49.5190 C   0  0  0  0  0  0  0  0  0  0  0  0
   62.1780   31.2450   48.2090 C   0  0  0  0  0  0  0  0  0  0  0  0
   61.8712   30.2008   48.0493 H   0  0  0  0  0  0  0  0  0  0  0  0
   62.3580   32.0870   47.1120 C   0  0  0  0  0  0  0  0  0  0  0  0
   62.1754   31.7105   46.0947 H   0  0  0  0  0  0  0  0  0  0  0  0
   62.7690   33.4050   47.3030 C   0  0  0  0  0  0  0  0  0  0  0  0
   62.9157   34.0654   46.4356 H   0  0  0  0  0  0  0  0  0  0  0  0
   62.9950   33.8890   48.5940 C   0  0  0  0  0  0  0  0  0  0  0  0
   63.3245   34.9291   48.7340 H   0  0  0  0  0  0  0  0  0  0  0  0
   62.8060   33.0610   49.7200 C   0  0  0  0  0  0  0  0  0  0  0  0
   63.0180   33.6150   51.1160 C   0  0  0  0  0  0  0  0  0  0  0  0
   64.0180   32.8980   51.7550 F   0  0  0  0  0  0  0  0  0  0  0  0
   61.8670   33.5270   51.8840 F   0  0  0  0  0  0  0  0  0  0  0  0
   63.3880   34.9460   51.0430 F   0  0  0  0  0  0  0  0  0  0  0  0
  1  2  1  0
  2  3  1  0
  3  4  2  0
  3  5  1  0
  5  6  1  0
  5  7  2  0
  7  8  1  0
  7  9  1  0
  9 10  2  0
 10 11  1  0
 10 12  1  0
 12 13  1  0
 12 14  2  0
 14 15  1  0
 14 16  1  0
 16 17  1  0
 17 18  1  0
 17 19  1  0
 17 20  1  0
 20 21  1  0
 21 22  1  0
 21 23  1  0
 21 24  1  0
 24 25  1  0
 24 26  1  0
 24 27  1  0
 27 28  1  0
 27 29  1  0
 29 30  1  0
 29 31  1  0
 29 32  1  0
 32 33  1  0
 32 34  1  0
 16 35  2  0
 35 36  1  0
  2 37  2  3
 37 38  1  0
 37 39  1  0
 39 40  2  0
 40 41  1  0
 40 42  1  0
 42 43  1  0
 42 44  2  0
 44 45  1  0
 44 46  1  0
 46 47  1  0
 46 48  2  0
 48 49  1  0
 49 50  1  0
 49 51  1  0
 49 52  1  0
 35  9  1  0
 48 39  1  0
 32 20  1  0
M  END
>  <UniqueID>  (5) 
5

>  <SMILES>  (5) 
O=C(C=Cc1ccccc1C(F)(F)F)/C=C\c1ccc(Cl)c(CN2CCNCC2)c1

>  <Energy>  (5) 
84.44937246522913

>  <Genealogy>  (5) 
O=C(C=Cc1ccccc1C(F)(F)F)/C=C\c1ccc(Cl)c(CN2CCNCC2)c1 (cis-trans isomerization)
O=C(C=Cc1ccccc1C(F)(F)F)/C=C\c1ccc(Cl)c(CN2CCNCC2)c1 (3D coordinates assigned)
O=C(C=Cc1ccccc1C(F)(F)F)/C=C\c1ccc(Cl)c(CN2CCNCC2)c1 (nonaromatic ring conformer: 84.44937246522913 kcal/mol)

>  <smiles>  (5) 
O=C(C=Cc1ccc(Cl)c(CN2CCNCC2)c1)C=Cc1ccccc1C(F)(F)F

>  <score_type>  (5) 
oracle

>  <origin>  (5) 
adg

>  <m_score__min__energy>  (5) 
-9.1600000000000001

>  <m_primary>  (5) 
energy

$$$$
5:0
     RDKit          3D

 34 36  0  0  0  0  0  0  0  0999 V2000
   58.7959   30.6027   47.3830 H   0  0  0  0  0  0  0  0  0  0  0  0
   58.5190   29.5480   47.2380 C   0  0  0  0  0  0  0  0  0  0  0  0
   58.7760   28.3010   48.3360 S   0  0  0  0  0  0  0  0  0  0  0  0
   58.1020   27.1310   47.3240 C   0  0  0  0  0  0  0  0  0  0  0  0
   57.9420   25.8710   47.6020 N   0  0  0  0  0  0  0  0  0  0  0  0
   57.6580   24.8190   46.6670 C   0  0  0  0  0  0  0  0  0  0  0  0
   56.3320   24.6040   46.2720 C   0  0  0  0  0  0  0  0  0  0  0  0
   55.5272   25.2173   46.7034 H   0  0  0  0  0  0  0  0  0  0  0  0
   56.0240   23.6150   45.3330 C   0  0  0  0  0  0  0  0  0  0  0  0
   54.9777   23.4447   45.0392 H   0  0  0  0  0  0  0  0  0  0  0  0
   57.0440   22.8400   44.7650 C   0  0  0  0  0  0  0  0  0  0  0  0
   56.6590   21.6080   43.5680 S   0  0  0  0  0  0  0  0  0  0  0  0
   55.8610   20.5070   44.2100 O   0  0  0  0  0  0  0  0  0  0  0  0
   55.8410   22.2120   42.4610 O   0  0  0  0  0  0  0  0  0  0  0  0
   58.1200   20.9560   42.9150 N   0  0  0  0  0  0  0  0  0  0  0  0
   57.8740   20.0440   42.4690 H   0  0  0  0  0  0  0  0  0  0  0  0
   58.7440   20.7370   43.7230 H   0  0  0  0  0  0  0  0  0  0  0  0
   58.3760   23.0810   45.1250 C   0  0  0  0  0  0  0  0  0  0  0  0
   59.1829   22.4903   44.6668 H   0  0  0  0  0  0  0  0  0  0  0  0
   58.6840   24.0700   46.0650 C   0  0  0  0  0  0  0  0  0  0  0  0
   59.7331   24.2624   46.3342 H   0  0  0  0  0  0  0  0  0  0  0  0
   57.6680   27.6690   46.1670 N   0  0  0  0  0  0  0  0  0  0  0  0
   57.8920   29.0120   46.1080 C   0  0  0  0  0  0  0  0  0  0  0  0
   57.5260   29.8020   44.9090 C   0  0  0  0  0  0  0  0  0  0  0  0
   58.5080   30.5980   44.2900 C   0  0  0  0  0  0  0  0  0  0  0  0
   59.5295   30.6183   44.6975 H   0  0  0  0  0  0  0  0  0  0  0  0
   58.1970   31.3630   43.1620 C   0  0  0  0  0  0  0  0  0  0  0  0
   58.9711   31.9861   42.6903 H   0  0  0  0  0  0  0  0  0  0  0  0
   56.9060   31.3370   42.6340 C   0  0  0  0  0  0  0  0  0  0  0  0
   56.6615   31.9454   41.7508 H   0  0  0  0  0  0  0  0  0  0  0  0
   55.9240   30.5400   43.2250 C   0  0  0  0  0  0  0  0  0  0  0  0
   54.9078   30.5204   42.8043 H   0  0  0  0  0  0  0  0  0  0  0  0
   56.2280   29.7650   44.3520 C   0  0  0  0  0  0  0  0  0  0  0  0
   55.2380   28.9460   44.8850 O   0  0  0  0  0  0  0  0  0  0  0  0
  1  2  1  0
  2  3  1  0
  3  4  1  0
  4  5  2  0
  5  6  1  0
  6  7  2  0
  7  8  1  0
  7  9  1  0
  9 10  1  0
  9 11  2  0
 11 12  1  0
 12 13  2  0
 12 14  2  0
 12 15  1  0
 15 16  1  0
 15 17  1  0
 11 18  1  0
 18 19  1  0
 18 20  2  0
 20 21  1  0
  4 22  1  0
 22 23  1  0
 23 24  1  0
 24 25  2  0
 25 26  1  0
 25 27  1  0
 27 28  1  0
 27 29  2  0
 29 30  1  0
 29 31  1  0
 31 32  1  0
 31 33  2  0
 33 34  1  0
 23  2  2  0
 33 24  1  0
 20  6  1  0
M  CHG  2  22  -1  34  -1
M  END
>  <UniqueID>  (6) 
6

>  <SMILES>  (6) 
NS(=O)(=O)c1ccc(/N=c2/[n-]c(-c3ccccc3[O-])cs2)cc1

>  <Energy>  (6) 
77.46969299603107

>  <Genealogy>  (6) 
NS(=O)(=O)c1ccc(N=c2[n-]c(-c3ccccc3[O-])cs2)cc1 (protonated)
NS(=O)(=O)c1ccc(/N=c2/[n-]c(-c3ccccc3[O-])cs2)cc1 (cis-trans isomerization)
NS(=O)(=O)c1ccc(/N=c2/[n-]c(-c3ccccc3[O-])cs2)cc1 (3D coordinates assigned)
NS(=O)(=O)c1ccc(/N=c2/[n-]c(-c3ccccc3[O-])cs2)cc1 (optimized conformer: 77.46969299603107 kcal/mol)

>  <smiles>  (6) 
NS(=O)(=O)c1ccc(N=c2[nH]c(-c3ccccc3O)cs2)cc1

>  <score_type>  (6) 
oracle

>  <origin>  (6) 
adg

>  <m_score__min__energy>  (6) 
-13.199999999999999

>  <m_primary>  (6) 
energy

$$$$
6:0
     RDKit          3D

 51 54  0  0  0  0  0  0  0  0999 V2000
   58.2538   33.6815   47.8376 H   0  0  0  0  0  0  0  0  0  0  0  0
   58.2060   33.5170   46.7510 C   0  0  0  0  0  0  0  0  0  0  0  0
   57.3870   32.5550   46.2460 N   0  0  0  0  0  0  0  0  0  0  0  0
   57.2820   32.3160   44.9100 C   0  0  0  0  0  0  0  0  0  0  0  0
   56.4760   31.3740   44.5140 N   0  0  0  0  0  0  0  0  0  0  0  0
   56.7910   29.6650   44.5350 S   0  0  0  0  0  0  0  0  0  0  0  0
   55.5230   28.9300   44.8710 O   0  0  0  0  0  0  0  0  0  0  0  0
   57.2520   29.2340   43.1710 O   0  0  0  0  0  0  0  0  0  0  0  0
   58.0590   29.3020   45.7020 C   0  0  0  0  0  0  0  0  0  0  0  0
   57.8510   28.3090   46.6670 C   0  0  0  0  0  0  0  0  0  0  0  0
   56.8978   27.7607   46.6924 H   0  0  0  0  0  0  0  0  0  0  0  0
   58.8500   28.0120   47.5980 C   0  0  0  0  0  0  0  0  0  0  0  0
   58.6764   27.2328   48.3548 H   0  0  0  0  0  0  0  0  0  0  0  0
   60.0710   28.6990   47.5750 C   0  0  0  0  0  0  0  0  0  0  0  0
   61.0380   28.3660   48.5370 O   0  0  0  0  0  0  0  0  0  0  0  0
   61.1560   28.9700   49.8280 C   0  0  0  0  0  0  0  0  0  0  0  0
   60.5736   28.3767   50.5483 H   0  0  0  0  0  0  0  0  0  0  0  0
   62.2248   28.9917   50.0873 H   0  0  0  0  0  0  0  0  0  0  0  0
   60.6490   30.4020   49.8560 C   0  0  0  0  0  0  0  0  0  0  0  0
   59.4760   30.7130   50.5660 C   0  0  0  0  0  0  0  0  0  0  0  0
   58.9458   29.9220   51.1166 H   0  0  0  0  0  0  0  0  0  0  0  0
   58.9780   32.0190   50.5780 C   0  0  0  0  0  0  0  0  0  0  0  0
   57.6880   32.3190   51.2820 C   0  0  0  0  0  0  0  0  0  0  0  0
   57.8468   32.2821   52.3699 H   0  0  0  0  0  0  0  0  0  0  0  0
   57.3390   33.3223   50.9962 H   0  0  0  0  0  0  0  0  0  0  0  0
   56.9321   31.5727   50.9962 H   0  0  0  0  0  0  0  0  0  0  0  0
   59.6320   33.0020   49.8980 N   0  0  0  0  0  0  0  0  0  0  0  0
   59.2300   33.9680   49.8950 H   0  0  0  0  0  0  0  0  0  0  0  0
   60.8010   32.7610   49.2380 C   0  0  0  0  0  0  0  0  0  0  0  0
   61.4630   33.8130   48.5840 C   0  0  0  0  0  0  0  0  0  0  0  0
   61.0247   34.8219   48.5891 H   0  0  0  0  0  0  0  0  0  0  0  0
   62.6730   33.5860   47.9280 C   0  0  0  0  0  0  0  0  0  0  0  0
   63.1827   34.4142   47.4138 H   0  0  0  0  0  0  0  0  0  0  0  0
   63.2370   32.3120   47.9230 C   0  0  0  0  0  0  0  0  0  0  0  0
   64.1963   32.1402   47.4128 H   0  0  0  0  0  0  0  0  0  0  0  0
   62.5900   31.2510   48.5630 C   0  0  0  0  0  0  0  0  0  0  0  0
   63.0470   30.2504   48.5574 H   0  0  0  0  0  0  0  0  0  0  0  0
   61.3540   31.4530   49.2170 C   0  0  0  0  0  0  0  0  0  0  0  0
   60.2790   29.6940   46.6010 C   0  0  0  0  0  0  0  0  0  0  0  0
   61.2345   30.2381   46.5699 H   0  0  0  0  0  0  0  0  0  0  0  0
   59.2770   29.9940   45.6730 C   0  0  0  0  0  0  0  0  0  0  0  0
   59.4455   30.7758   44.9178 H   0  0  0  0  0  0  0  0  0  0  0  0
   58.0400   33.0950   44.0140 C   0  0  0  0  0  0  0  0  0  0  0  0
   57.9664   32.9220   42.9302 H   0  0  0  0  0  0  0  0  0  0  0  0
   58.8860   34.0890   44.5120 C   0  0  0  0  0  0  0  0  0  0  0  0
   59.4731   34.7085   43.8181 H   0  0  0  0  0  0  0  0  0  0  0  0
   58.9880   34.2980   45.8920 C   0  0  0  0  0  0  0  0  0  0  0  0
   59.8620   35.3870   46.4400 C   0  0  0  0  0  0  0  0  0  0  0  0
   59.8385   35.3577   47.5394 H   0  0  0  0  0  0  0  0  0  0  0  0
   60.8947   35.2388   46.0912 H   0  0  0  0  0  0  0  0  0  0  0  0
   59.4938   36.3631   46.0912 H   0  0  0  0  0  0  0  0  0  0  0  0
  1  2  1  0
  2  3  1  0
  3  4  1  0
  4  5  2  0
  5  6  1  0
  6  7  2  0
  6  8  2  0
  6  9  1  0
  9 10  2  0
 10 11  1  0
 10 12  1  0
 12 13  1  0
 12 14  2  0
 14 15  1  0
 15 16  1  0
 16 17  1  0
 16 18  1  0
 16 19  1  0
 19 20  2  0
 20 21  1  0
 20 22  1  0
 22 23  1  0
 23 24  1  0
 23 25  1  0
 23 26  1  0
 22 27  2  0
 27 28  1  0
 27 29  1  0
 29 30  2  0
 30 31  1  0
 30 32  1  0
 32 33  1  0
 32 34  2  0
 34 35  1  0
 34 36  1  0
 36 37  1  0
 36 38  2  0
 14 39  1  0
 39 40  1  0
 39 41  2  0
 41 42  1  0
  4 43  1  0
 43 44  1  0
 43 45  2  0
 45 46  1  0
 45 47  1  0
 47 48  1  0
 48 49  1  0
 48 50  1  0
 48 51  1  0
 47  2  2  0
 41  9  1  0
 38 19  1  0
 38 29  1  0
M  CHG  2   3  -1  27   1
M  END
>  <UniqueID>  (7) 
7

>  <SMILES>  (7) 
Cc1cc/c(=N\S(=O)(=O)c2ccc(OCc3cc(C)[nH+]c4ccccc34)cc2)[n-]c1

>  <Energy>  (7) 
66.76094293970199

>  <Genealogy>  (7) 
Cc1ccc(=NS(=O)(=O)c2ccc(OCc3cc(C)[nH+]c4ccccc34)cc2)[n-]c1 (protonated)
Cc1cc/c(=N\S(=O)(=O)c2ccc(OCc3cc(C)[nH+]c4ccccc34)cc2)[n-]c1 (cis-trans isomerization)
Cc1cc/c(=N\S(=O)(=O)c2ccc(OCc3cc(C)[nH+]c4ccccc34)cc2)[n-]c1 (3D coordinates assigned)
Cc1cc/c(=N\S(=O)(=O)c2ccc(OCc3cc(C)[nH+]c4ccccc34)cc2)[n-]c1 (optimized conformer: 66.76094293970199 kcal/mol)

>  <smiles>  (7) 
Cc1ccc(=NS(=O)(=O)c2ccc(OCc3cc(C)nc4ccccc34)cc2)[nH]c1

>  <score_type>  (7) 
oracle

>  <origin>  (7) 
adg

>  <m_score__min__energy>  (7) 
-10.59

>  <m_primary>  (7) 
energy

$$$$
7:0
     RDKit          3D

 47 50  0  0  0  0  0  0  0  0999 V2000
   57.9660   32.8590   42.9950 O   0  0  0  0  0  0  0  0  0  0  0  0
   57.6850   32.3280   44.1030 C   0  0  0  0  0  0  0  0  0  0  0  0
   56.9670   31.0870   44.1090 N   0  0  0  0  0  0  0  0  0  0  0  0
   57.3920   29.9080   44.4830 C   0  0  0  0  0  0  0  0  0  0  0  0
   58.7370   29.6710   44.4490 N   0  0  0  0  0  0  0  0  0  0  0  0
   59.2750   28.4830   44.8350 C   0  0  0  0  0  0  0  0  0  0  0  0
   58.4530   27.4510   45.2760 C   0  0  0  0  0  0  0  0  0  0  0  0
   57.0750   27.6430   45.3030 C   0  0  0  0  0  0  0  0  0  0  0  0
   56.5260   28.8620   44.8960 C   0  0  0  0  0  0  0  0  0  0  0  0
   55.1430   28.9880   44.8790 O   0  0  0  0  0  0  0  0  0  0  0  0
   58.1710   32.9430   45.3640 C   0  0  0  0  0  0  0  0  0  0  0  0
   58.5200   34.3040   45.4140 C   0  0  0  0  0  0  0  0  0  0  0  0
   58.9840   34.8720   46.6030 C   0  0  0  0  0  0  0  0  0  0  0  0
   59.1050   34.0910   47.7540 C   0  0  0  0  0  0  0  0  0  0  0  0
   58.7620   32.7330   47.7200 C   0  0  0  0  0  0  0  0  0  0  0  0
   58.9410   31.7320   49.1560 S   0  0  0  0  0  0  0  0  0  0  0  0
   57.8060   31.9750   50.1120 O   0  0  0  0  0  0  0  0  0  0  0  0
   58.9110   30.2860   48.7460 O   0  0  0  0  0  0  0  0  0  0  0  0
   60.4460   32.1200   49.9510 N   0  0  0  0  0  0  0  0  0  0  0  0
   60.4900   32.1970   51.4150 C   0  0  0  0  0  0  0  0  0  0  0  0
   61.2120   33.4720   51.8400 C   0  0  0  0  0  0  0  0  0  0  0  0
   62.6460   33.4700   51.3010 C   0  0  0  0  0  0  0  0  0  0  0  0
   62.7050   33.1260   49.8290 C   0  0  0  0  0  0  0  0  0  0  0  0
   63.8660   33.4360   49.1040 C   0  0  0  0  0  0  0  0  0  0  0  0
   63.9730   33.0840   47.7590 C   0  0  0  0  0  0  0  0  0  0  0  0
   62.9330   32.4010   47.1310 C   0  0  0  0  0  0  0  0  0  0  0  0
   61.7790   32.0700   47.8430 C   0  0  0  0  0  0  0  0  0  0  0  0
   61.6430   32.4320   49.2000 C   0  0  0  0  0  0  0  0  0  0  0  0
   58.2890   32.1650   46.5300 C   0  0  0  0  0  0  0  0  0  0  0  0
   59.3840   30.4280   44.1300 H   0  0  0  0  0  0  0  0  0  0  0  0
   60.3647   28.3376   44.7983 H   0  0  0  0  0  0  0  0  0  0  0  0
   58.8875   26.4937   45.5998 H   0  0  0  0  0  0  0  0  0  0  0  0
   56.4154   26.8323   45.6460 H   0  0  0  0  0  0  0  0  0  0  0  0
   58.4271   34.9255   44.5112 H   0  0  0  0  0  0  0  0  0  0  0  0
   59.2548   35.9377   46.6325 H   0  0  0  0  0  0  0  0  0  0  0  0
   59.4700   34.5423   48.6884 H   0  0  0  0  0  0  0  0  0  0  0  0
   59.4641   32.2078   51.8118 H   0  0  0  0  0  0  0  0  0  0  0  0
   61.0291   31.3234   51.8103 H   0  0  0  0  0  0  0  0  0  0  0  0
   60.6745   34.3447   51.4407 H   0  0  0  0  0  0  0  0  0  0  0  0
   61.2405   33.5203   52.9386 H   0  0  0  0  0  0  0  0  0  0  0  0
   63.0808   34.4696   51.4485 H   0  0  0  0  0  0  0  0  0  0  0  0
   63.2108   32.7016   51.8493 H   0  0  0  0  0  0  0  0  0  0  0  0
   64.6966   33.9598   49.5998 H   0  0  0  0  0  0  0  0  0  0  0  0
   64.8792   33.3457   47.1930 H   0  0  0  0  0  0  0  0  0  0  0  0
   63.0219   32.1219   46.0707 H   0  0  0  0  0  0  0  0  0  0  0  0
   60.9679   31.5217   47.3415 H   0  0  0  0  0  0  0  0  0  0  0  0
   58.0075   31.1019   46.5072 H   0  0  0  0  0  0  0  0  0  0  0  0
  1  2  2  0
  2  3  1  0
  3  4  2  3
  4  5  1  0
  5  6  1  0
  6  7  2  0
  7  8  1  0
  8  9  2  0
  9 10  1  0
  2 11  1  0
 11 12  2  0
 12 13  1  0
 13 14  2  0
 14 15  1  0
 15 16  1  0
 16 17  2  0
 16 18  2  0
 16 19  1  0
 19 20  1  0
 20 21  1  0
 21 22  1  0
 22 23  1  0
 23 24  2  0
 24 25  1  0
 25 26  2  0
 26 27  1  0
 27 28  2  0
 15 29  2  0
  9  4  1  0
 29 11  1  0
 28 19  1  0
 28 23  1  0
  5 30  1  0
  6 31  1  0
  7 32  1  0
  8 33  1  0
 12 34  1  0
 13 35  1  0
 14 36  1  0
 20 37  1  0
 20 38  1  0
 21 39  1  0
 21 40  1  0
 22 41  1  0
 22 42  1  0
 24 43  1  0
 25 44  1  0
 26 45  1  0
 27 46  1  0
 29 47  1  0
M  CHG  1  10  -1
M  END
>  <UniqueID>  (8) 
8

>  <SMILES>  (8) 
O=C(N=c1[nH]cccc1[O-])c1cccc(S(=O)(=O)N2CCCc3ccccc32)c1

>  <Energy>  (8) 
68.27047444123049

>  <Genealogy>  (8) 
O=C(N=c1[nH]cccc1[O-])c1cccc(S(=O)(=O)N2CCCc3ccccc32)c1 (protonated)
O=C(N=c1[nH]cccc1[O-])c1cccc(S(=O)(=O)N2CCCc3ccccc32)c1 (3D coordinates assigned)
O=C(N=c1[nH]cccc1[O-])c1cccc(S(=O)(=O)N2CCCc3ccccc32)c1 (nonaromatic ring conformer: 68.27047444123049 kcal/mol)

>  <smiles>  (8) 
O=C(N=c1[nH]cccc1O)c1cccc(S(=O)(=O)N2CCCc3ccccc32)c1

>  <score_type>  (8) 
oracle

>  <origin>  (8) 
adg

>  <m_score__min__energy>  (8) 
-13.34

>  <m_primary>  (8) 
energy

$$$$
8:0
     RDKit          3D

 34 36  0  0  0  0  0  0  0  0999 V2000
   58.0650   35.2750   52.2450 H   0  0  0  0  0  0  0  0  0  0  0  0
   58.6510   34.6150   52.7430 O   0  0  0  0  0  0  0  0  0  0  0  0
   58.1600   33.3820   53.1660 C   0  0  0  0  0  0  0  0  0  0  0  0
   57.2060   32.6940   52.4060 C   0  0  0  0  0  0  0  0  0  0  0  0
   56.8375   33.1273   51.4645 H   0  0  0  0  0  0  0  0  0  0  0  0
   56.7210   31.4570   52.8420 C   0  0  0  0  0  0  0  0  0  0  0  0
   55.9769   30.9169   52.2382 H   0  0  0  0  0  0  0  0  0  0  0  0
   57.1800   30.9010   54.0480 C   0  0  0  0  0  0  0  0  0  0  0  0
   56.6830   29.5560   54.4970 C   0  0  0  0  0  0  0  0  0  0  0  0
   56.1834   29.6588   55.4716 H   0  0  0  0  0  0  0  0  0  0  0  0
   57.5357   28.8668   54.5863 H   0  0  0  0  0  0  0  0  0  0  0  0
   55.7080   29.0080   53.4930 C   0  0  0  0  0  0  0  0  0  0  0  0
   56.1220   28.6600   52.3560 O   0  0  0  0  0  0  0  0  0  0  0  0
   54.2980   29.0420   53.7440 N   0  0  0  0  0  0  0  0  0  0  0  0
   53.4760   30.0560   53.8080 C   0  0  0  0  0  0  0  0  0  0  0  0
   53.2380   30.5610   55.0480 N   0  0  0  0  0  0  0  0  0  0  0  0
   52.3010   31.5070   55.2970 C   0  0  0  0  0  0  0  0  0  0  0  0
   52.1659   31.8900   56.3193 H   0  0  0  0  0  0  0  0  0  0  0  0
   51.5110   31.9940   54.2650 C   0  0  0  0  0  0  0  0  0  0  0  0
   50.6982   32.7038   54.4782 H   0  0  0  0  0  0  0  0  0  0  0  0
   51.7550   31.5760   52.9490 C   0  0  0  0  0  0  0  0  0  0  0  0
   51.0120   32.1270   51.8840 C   0  0  0  0  0  0  0  0  0  0  0  0
   49.9600   33.0060   52.1270 O   0  0  0  0  0  0  0  0  0  0  0  0
   51.3360   31.8030   50.5640 C   0  0  0  0  0  0  0  0  0  0  0  0
   50.6010   32.3380   49.5120 O   0  0  0  0  0  0  0  0  0  0  0  0
   52.4130   30.9630   50.2960 C   0  0  0  0  0  0  0  0  0  0  0  0
   52.6842   30.7375   49.2541 H   0  0  0  0  0  0  0  0  0  0  0  0
   53.1510   30.4050   51.3410 C   0  0  0  0  0  0  0  0  0  0  0  0
   54.0264   29.7794   51.1124 H   0  0  0  0  0  0  0  0  0  0  0  0
   52.7900   30.6320   52.6890 C   0  0  0  0  0  0  0  0  0  0  0  0
   58.1460   31.5890   54.7990 C   0  0  0  0  0  0  0  0  0  0  0  0
   58.5248   31.1528   55.7351 H   0  0  0  0  0  0  0  0  0  0  0  0
   58.6290   32.8270   54.3620 C   0  0  0  0  0  0  0  0  0  0  0  0
   59.3791   33.3654   54.9598 H   0  0  0  0  0  0  0  0  0  0  0  0
  1  2  1  0
  2  3  1  0
  3  4  2  0
  4  5  1  0
  4  6  1  0
  6  7  1  0
  6  8  2  0
  8  9  1  0
  9 10  1  0
  9 11  1  0
  9 12  1  0
 12 13  2  0
 12 14  1  0
 14 15  2  0
 15 16  1  0
 16 17  1  0
 17 18  1  0
 17 19  2  0
 19 20  1  0
 19 21  1  0
 21 22  2  0
 22 23  1  0
 22 24  1  0
 24 25  1  0
 24 26  2  0
 26 27  1  0
 26 28  1  0
 28 29  1  0
 28 30  2  0
  8 31  1  0
 31 32  1  0
 31 33  2  0
 33 34  1  0
 33  3  1  0
 30 15  1  0
 30 21  1  0
M  CHG  3  16  -1  23  -1  25  -1
M  END
>  <UniqueID>  (9) 
9

>  <SMILES>  (9) 
O=C(Cc1ccc(O)cc1)/N=c1/[n-]ccc2c([O-])c([O-])ccc12

>  <Energy>  (9) 
60.46613359442825

>  <Genealogy>  (9) 
O=C(Cc1ccc(O)cc1)N=c1[n-]ccc2c([O-])c([O-])ccc12 (protonated)
O=C(Cc1ccc(O)cc1)/N=c1/[n-]ccc2c([O-])c([O-])ccc12 (cis-trans isomerization)
O=C(Cc1ccc(O)cc1)/N=c1/[n-]ccc2c([O-])c([O-])ccc12 (3D coordinates assigned)
O=C(Cc1ccc(O)cc1)/N=c1/[n-]ccc2c([O-])c([O-])ccc12 (optimized conformer: 60.46613359442825 kcal/mol)

>  <smiles>  (9) 
O=C(Cc1ccc(O)cc1)N=c1[nH]ccc2c(O)c(O)ccc12

>  <score_type>  (9) 
oracle

>  <origin>  (9) 
adg

>  <m_score__min__energy>  (9) 
-15.34

>  <m_primary>  (9) 
energy

$$$$
9:0
     RDKit          3D

 13 13  0  0  0  0  0  0  0  0999 V2000
   55.3450   30.4210   51.6260 O   0  0  0  0  0  0  0  0  0  0  0  0
   54.2050   30.1720   52.0990 C   0  0  0  0  0  0  0  0  0  0  0  0
   53.8950   28.8790   52.5050 O   0  0  0  0  0  0  0  0  0  0  0  0
   53.2060   31.2690   52.2730 C   0  0  0  0  0  0  0  0  0  0  0  0
   52.2590   31.2880   51.1140 C   0  0  0  0  0  0  0  0  0  0  0  0
   52.2630   30.3830   50.1200 N   0  0  0  0  0  0  0  0  0  0  0  0
   51.2960   30.8320   49.2900 C   0  0  0  0  0  0  0  0  0  0  0  0
   50.9890   30.2370   48.2240 O   0  0  0  0  0  0  0  0  0  0  0  0
   50.6880   31.9700   49.6880 N   0  0  0  0  0  0  0  0  0  0  0  0
   51.3140   32.2490   50.8420 C   0  0  0  0  0  0  0  0  0  0  0  0
   51.0320   33.3600   51.6260 O   0  0  0  0  0  0  0  0  0  0  0  0
   52.6411   31.1032   53.2022 H   0  0  0  0  0  0  0  0  0  0  0  0
   53.7336   32.2329   52.3239 H   0  0  0  0  0  0  0  0  0  0  0  0
  1  2  2  0
  2  3  1  0
  2  4  1  0
  4  5  1  0
  5  6  1  0
  6  7  1  0
  7  8  2  0
  7  9  1  0
  9 10  1  0
 10 11  1  0
 10  5  2  0
  4 12  1  0
  4 13  1  0
M  CHG  4   3  -1   6  -1   9  -1  11  -1
M  END
>  <UniqueID>  (10) 
10

>  <SMILES>  (10) 
O=C([O-])Cc1[n-]c(=O)[n-]c1[O-]

>  <Energy>  (10) 
38.62365204346978

>  <Genealogy>  (10) 
O=C([O-])Cc1[n-]c(=O)[n-]c1[O-] (protonated)
O=C([O-])Cc1[n-]c(=O)[n-]c1[O-] (3D coordinates assigned)
O=C([O-])Cc1[n-]c(=O)[n-]c1[O-] (optimized conformer: 38.62365204346978 kcal/mol)

>  <smiles>  (10) 
O=C(O)Cc1[nH]c(=O)[nH]c1O

>  <score_type>  (10) 
oracle

>  <origin>  (10) 
adg

>  <m_score__min__energy>  (10) 
-15.44

>  <m_primary>  (10) 
energy

$$$$
10:0
     RDKit          3D

 32 33  0  0  0  0  0  0  0  0999 V2000
   59.9100   25.8350   46.7000 C   0  0  0  0  0  0  0  0  0  0  0  0
   58.8700   26.9220   46.8330 C   0  0  0  0  0  0  0  0  0  0  0  0
   57.5500   26.6580   46.7520 C   0  0  0  0  0  0  0  0  0  0  0  0
   56.9670   25.5320   45.9900 C   0  0  0  0  0  0  0  0  0  0  0  0
   57.7660   24.4650   45.5500 C   0  0  0  0  0  0  0  0  0  0  0  0
   57.2020   23.4280   44.8040 C   0  0  0  0  0  0  0  0  0  0  0  0
   58.2120   22.0920   44.2680 Cl  0  0  0  0  0  0  0  0  0  0  0  0
   55.8400   23.4790   44.4840 C   0  0  0  0  0  0  0  0  0  0  0  0
   55.3060   22.5570   43.8130 O   0  0  0  0  0  0  0  0  0  0  0  0
   55.0870   24.5330   44.8940 N   0  0  0  0  0  0  0  0  0  0  0  0
   55.6110   25.5520   45.6240 C   0  0  0  0  0  0  0  0  0  0  0  0
   54.7910   26.6070   46.0100 O   0  0  0  0  0  0  0  0  0  0  0  0
   59.3180   28.3110   47.1030 C   0  0  0  0  0  0  0  0  0  0  0  0
   59.6320   28.6480   48.2750 O   0  0  0  0  0  0  0  0  0  0  0  0
   59.4630   29.2740   46.0500 N   0  0  0  0  0  0  0  0  0  0  0  0
   58.3920   29.8730   45.3060 C   0  0  0  0  0  0  0  0  0  0  0  0
   58.5580   31.1700   44.8060 C   0  0  0  0  0  0  0  0  0  0  0  0
   57.5280   31.7860   44.0890 C   0  0  0  0  0  0  0  0  0  0  0  0
   56.3200   31.1150   43.8790 C   0  0  0  0  0  0  0  0  0  0  0  0
   56.1340   29.8280   44.3960 C   0  0  0  0  0  0  0  0  0  0  0  0
   54.9220   29.1740   44.1890 O   0  0  0  0  0  0  0  0  0  0  0  0
   57.1650   29.2110   45.1180 C   0  0  0  0  0  0  0  0  0  0  0  0
   60.2256   25.5051   47.7008 H   0  0  0  0  0  0  0  0  0  0  0  0
   59.4820   24.9832   46.1512 H   0  0  0  0  0  0  0  0  0  0  0  0
   60.7799   26.2250   46.1512 H   0  0  0  0  0  0  0  0  0  0  0  0
   56.8599   27.3253   47.2891 H   0  0  0  0  0  0  0  0  0  0  0  0
   58.8386   24.4457   45.7933 H   0  0  0  0  0  0  0  0  0  0  0  0
   59.5027   31.7066   44.9780 H   0  0  0  0  0  0  0  0  0  0  0  0
   57.6686   32.8011   43.6892 H   0  0  0  0  0  0  0  0  0  0  0  0
   55.5148   31.5990   43.3068 H   0  0  0  0  0  0  0  0  0  0  0  0
   54.7660   28.2300   44.5240 H   0  0  0  0  0  0  0  0  0  0  0  0
   57.0142   28.2060   45.5389 H   0  0  0  0  0  0  0  0  0  0  0  0
  1  2  1  0
  2  3  2  3
  3  4  1  0
  4  5  1  0
  5  6  2  0
  6  7  1  0
  6  8  1  0
  8  9  2  0
  8 10  1  0
 10 11  1  0
 11 12  1  0
  2 13  1  0
 13 14  2  0
 13 15  1  0
 15 16  1  0
 16 17  2  0
 17 18  1  0
 18 19  2  0
 19 20  1  0
 20 21  1  0
 20 22  2  0
 11  4  2  0
 22 16  1  0
  1 23  1  0
  1 24  1  0
  1 25  1  0
  3 26  1  0
  5 27  1  0
 17 28  1  0
 18 29  1  0
 19 30  1  0
 21 31  1  0
 22 32  1  0
M  CHG  3  10  -1  12  -1  15  -1
M  END
>  <UniqueID>  (11) 
11

>  <SMILES>  (11) 
CC(=Cc1cc(Cl)c(=O)[n-]c1[O-])C(=O)[N-]c1cccc(O)c1

>  <Energy>  (11) 
46.216583730319726

>  <Genealogy>  (11) 
CC(=Cc1cc(Cl)c(=O)[n-]c1[O-])C(=O)[N-]c1cccc(O)c1 (protonated)
CC(=Cc1cc(Cl)c(=O)[n-]c1[O-])C(=O)[N-]c1cccc(O)c1 (3D coordinates assigned)
CC(=Cc1cc(Cl)c(=O)[n-]c1[O-])C(=O)[N-]c1cccc(O)c1 (optimized conformer: 46.216583730319726 kcal/mol)

>  <smiles>  (11) 
CC(=Cc1cc(Cl)c(=O)[nH]c1O)C(=O)Nc1cccc(O)c1

>  <score_type>  (11) 
oracle

>  <origin>  (11) 
adg

>  <m_score__min__energy>  (11) 
-14.609999999999999

>  <m_primary>  (11) 
energy

$$$$
11:0
     RDKit          3D

 79 83  0  0  0  0  0  0  0  0999 V2000
   57.7550   26.0640   43.3250 C   0  0  0  0  0  0  0  0  0  0  0  0
   57.9510   27.5750   43.3970 C   0  0  0  0  0  0  0  0  0  0  0  0
   57.6190   28.0800   44.7390 N   0  0  0  0  0  0  0  0  0  0  0  0
   57.4180   27.1210   45.8370 C   0  0  0  0  0  0  0  0  0  0  0  0
   58.6100   27.0970   46.7500 C   0  0  0  0  0  0  0  0  0  0  0  0
   59.4600   26.0500   46.8590 N   0  0  0  0  0  0  0  0  0  0  0  0
   60.3820   26.3280   47.7750 N   0  0  0  0  0  0  0  0  0  0  0  0
   60.1150   27.5570   48.2490 C   0  0  0  0  0  0  0  0  0  0  0  0
   60.8120   28.2570   49.2270 C   0  0  0  0  0  0  0  0  0  0  0  0
   60.3460   29.5460   49.5840 C   0  0  0  0  0  0  0  0  0  0  0  0
   61.0530   30.3310   50.6250 C   0  0  0  0  0  0  0  0  0  0  0  0
   60.3440   30.8980   51.6960 C   0  0  0  0  0  0  0  0  0  0  0  0
   61.0150   31.6290   52.6790 C   0  0  0  0  0  0  0  0  0  0  0  0
   62.3990   31.8020   52.6050 C   0  0  0  0  0  0  0  0  0  0  0  0
   63.1320   31.2290   51.5520 C   0  0  0  0  0  0  0  0  0  0  0  0
   64.5970   31.4220   51.4540 C   0  0  0  0  0  0  0  0  0  0  0  0
   65.3600   30.5290   51.9160 O   0  0  0  0  0  0  0  0  0  0  0  0
   65.1730   32.5980   50.8480 N   0  0  0  0  0  0  0  0  0  0  0  0
   66.4650   32.4890   50.1690 C   0  0  0  0  0  0  0  0  0  0  0  0
   64.5010   33.9000   50.9100 C   0  0  0  0  0  0  0  0  0  0  0  0
   62.4490   30.5060   50.5590 C   0  0  0  0  0  0  0  0  0  0  0  0
   59.1960   30.0790   48.9360 C   0  0  0  0  0  0  0  0  0  0  0  0
   58.5200   29.3400   47.9470 C   0  0  0  0  0  0  0  0  0  0  0  0
   59.0110   28.0750   47.6350 C   0  0  0  0  0  0  0  0  0  0  0  0
   57.4200   29.4990   44.9320 C   0  0  0  0  0  0  0  0  0  0  0  0
   56.2530   29.9760   44.8740 O   0  0  0  0  0  0  0  0  0  0  0  0
   58.5370   30.3820   45.1580 N   0  0  0  0  0  0  0  0  0  0  0  0
   58.3800   31.7930   45.3690 C   0  0  0  0  0  0  0  0  0  0  0  0
   57.9600   32.6070   44.3070 C   0  0  0  0  0  0  0  0  0  0  0  0
   57.7840   33.9780   44.4990 C   0  0  0  0  0  0  0  0  0  0  0  0
   58.0470   34.5530   45.7460 C   0  0  0  0  0  0  0  0  0  0  0  0
   58.5110   33.7570   46.8120 C   0  0  0  0  0  0  0  0  0  0  0  0
   58.8250   34.2850   48.0760 O   0  0  0  0  0  0  0  0  0  0  0  0
   59.6060   33.6310   49.0760 C   0  0  0  0  0  0  0  0  0  0  0  0
   61.1010   33.6650   48.7110 C   0  0  0  0  0  0  0  0  0  0  0  0
   61.3750   32.9700   47.4300 N   0  0  0  0  0  0  0  0  0  0  0  0
   62.2220   31.7690   47.5850 C   0  0  0  0  0  0  0  0  0  0  0  0
   63.6790   32.1320   47.9590 C   0  0  0  0  0  0  0  0  0  0  0  0
   64.0080   33.4830   47.6740 O   0  0  0  0  0  0  0  0  0  0  0  0
   63.5070   33.8530   46.4070 C   0  0  0  0  0  0  0  0  0  0  0  0
   61.9620   33.8850   46.4200 C   0  0  0  0  0  0  0  0  0  0  0  0
   58.6680   32.3780   46.6140 C   0  0  0  0  0  0  0  0  0  0  0  0
   57.7016   25.6522   44.3436 H   0  0  0  0  0  0  0  0  0  0  0  0
   56.8204   25.8406   42.7897 H   0  0  0  0  0  0  0  0  0  0  0  0
   58.6017   25.6095   42.7897 H   0  0  0  0  0  0  0  0  0  0  0  0
   59.0006   27.8140   43.1709 H   0  0  0  0  0  0  0  0  0  0  0  0
   57.2840   28.0531   42.6645 H   0  0  0  0  0  0  0  0  0  0  0  0
   56.5282   27.4143   46.4135 H   0  0  0  0  0  0  0  0  0  0  0  0
   57.2828   26.1173   45.4077 H   0  0  0  0  0  0  0  0  0  0  0  0
   61.6998   27.8224   49.7097 H   0  0  0  0  0  0  0  0  0  0  0  0
   59.2539   30.7658   51.7613 H   0  0  0  0  0  0  0  0  0  0  0  0
   60.4515   32.0700   53.5144 H   0  0  0  0  0  0  0  0  0  0  0  0
   62.9183   32.3904   53.3758 H   0  0  0  0  0  0  0  0  0  0  0  0
   67.2681   32.4212   50.9176 H   0  0  0  0  0  0  0  0  0  0  0  0
   66.4735   31.5869   49.5395 H   0  0  0  0  0  0  0  0  0  0  0  0
   66.6245   33.3769   49.5395 H   0  0  0  0  0  0  0  0  0  0  0  0
   64.3531   34.1866   51.9617 H   0  0  0  0  0  0  0  0  0  0  0  0
   65.1210   34.6569   50.4074 H   0  0  0  0  0  0  0  0  0  0  0  0
   63.5248   33.8331   50.4074 H   0  0  0  0  0  0  0  0  0  0  0  0
   63.0118   30.0713   49.7197 H   0  0  0  0  0  0  0  0  0  0  0  0
   58.8315   31.0797   49.2113 H   0  0  0  0  0  0  0  0  0  0  0  0
   57.6342   29.7479   47.4381 H   0  0  0  0  0  0  0  0  0  0  0  0
   59.4960   30.0400   44.9410 H   0  0  0  0  0  0  0  0  0  0  0  0
   57.7686   32.1631   43.3189 H   0  0  0  0  0  0  0  0  0  0  0  0
   57.4373   34.6082   43.6667 H   0  0  0  0  0  0  0  0  0  0  0  0
   57.8910   35.6316   45.8955 H   0  0  0  0  0  0  0  0  0  0  0  0
   59.4583   34.1408   50.0395 H   0  0  0  0  0  0  0  0  0  0  0  0
   59.2836   32.5815   49.1447 H   0  0  0  0  0  0  0  0  0  0  0  0
   61.4213   34.7136   48.6219 H   0  0  0  0  0  0  0  0  0  0  0  0
   61.6571   33.1458   49.5055 H   0  0  0  0  0  0  0  0  0  0  0  0
   61.7987   31.1359   48.3787 H   0  0  0  0  0  0  0  0  0  0  0  0
   62.2404   31.2393   46.6211 H   0  0  0  0  0  0  0  0  0  0  0  0
   63.8174   31.9580   49.0363 H   0  0  0  0  0  0  0  0  0  0  0  0
   64.3409   31.4983   47.3504 H   0  0  0  0  0  0  0  0  0  0  0  0
   63.8869   34.8517   46.1458 H   0  0  0  0  0  0  0  0  0  0  0  0
   63.8397   33.1126   45.6646 H   0  0  0  0  0  0  0  0  0  0  0  0
   61.6339   34.9110   46.6428 H   0  0  0  0  0  0  0  0  0  0  0  0
   61.6161   33.5509   45.4307 H   0  0  0  0  0  0  0  0  0  0  0  0
   59.0207   31.7465   47.4428 H   0  0  0  0  0  0  0  0  0  0  0  0
  1  2  1  0
  2  3  1  0
  3  4  1  0
  4  5  1  0
  5  6  1  0
  6  7  1  0
  7  8  2  0
  8  9  1  0
  9 10  2  0
 10 11  1  0
 11 12  2  0
 12 13  1  0
 13 14  2  0
 14 15  1  0
 15 16  1  0
 16 17  2  0
 16 18  1  0
 18 19  1  0
 18 20  1  0
 15 21  2  0
 10 22  1  0
 22 23  2  0
 23 24  1  0
  3 25  1  0
 25 26  2  0
 25 27  1  0
 27 28  1  0
 28 29  2  0
 29 30  1  0
 30 31  2  0
 31 32  1  0
 32 33  1  0
 33 34  1  0
 34 35  1  0
 35 36  1  0
 36 37  1  0
 37 38  1  0
 38 39  1  0
 39 40  1  0
 40 41  1  0
 32 42  2  0
 24  5  2  0
 42 28  1  0
 24  8  1  0
 41 36  1  0
 21 11  1  0
  1 43  1  0
  1 44  1  0
  1 45  1  0
  2 46  1  0
  2 47  1  0
  4 48  1  0
  4 49  1  0
  9 50  1  0
 12 51  1  0
 13 52  1  0
 14 53  1  0
 19 54  1  0
 19 55  1  0
 19 56  1  0
 20 57  1  0
 20 58  1  0
 20 59  1  0
 21 60  1  0
 22 61  1  0
 23 62  1  0
 27 63  1  0
 29 64  1  0
 30 65  1  0
 31 66  1  0
 34 67  1  0
 34 68  1  0
 35 69  1  0
 35 70  1  0
 37 71  1  0
 37 72  1  0
 38 73  1  0
 38 74  1  0
 40 75  1  0
 40 76  1  0
 41 77  1  0
 41 78  1  0
 42 79  1  0
M  CHG  1   6  -1
M  END
>  <UniqueID>  (12) 
12

>  <SMILES>  (12) 
CCN(Cc1[n-]nc2cc(-c3cccc(C(=O)N(C)C)c3)ccc12)C(=O)Nc1cccc(OCCN2CCOCC2)c1

>  <Energy>  (12) 
141.70923252394124

>  <Genealogy>  (12) 
CCN(Cc1[n-]nc2cc(-c3cccc(C(=O)N(C)C)c3)ccc12)C(=O)Nc1cccc(OCCN2CCOCC2)c1 (protonated)
CCN(Cc1[n-]nc2cc(-c3cccc(C(=O)N(C)C)c3)ccc12)C(=O)Nc1cccc(OCCN2CCOCC2)c1 (3D coordinates assigned)
CCN(Cc1[n-]nc2cc(-c3cccc(C(=O)N(C)C)c3)ccc12)C(=O)Nc1cccc(OCCN2CCOCC2)c1 (nonaromatic ring conformer: 141.70923252394124 kcal/mol)

>  <smiles>  (12) 
CCN(Cc1[nH]nc2cc(-c3cccc(C(=O)N(C)C)c3)ccc12)C(=O)Nc1cccc(OCCN2CCOCC2)c1

>  <score_type>  (12) 
oracle

>  <origin>  (12) 
adg

>  <m_score__min__energy>  (12) 
-11.99

>  <m_primary>  (12) 
energy

$$$$
12:0
     RDKit          3D

 56 59  0  0  0  0  0  0  0  0999 V2000
   57.7480   32.0780   41.5840 C   0  0  0  0  0  0  0  0  0  0  0  0
   57.8420   31.8110   43.0320 N   0  0  0  0  0  0  0  0  0  0  0  0
   58.4110   32.7370   43.8590 C   0  0  0  0  0  0  0  0  0  0  0  0
   58.8520   33.8230   43.3850 O   0  0  0  0  0  0  0  0  0  0  0  0
   58.5130   32.4880   45.2330 C   0  0  0  0  0  0  0  0  0  0  0  0
   59.1290   33.4170   46.0920 C   0  0  0  0  0  0  0  0  0  0  0  0
   59.2560   33.1500   47.4510 C   0  0  0  0  0  0  0  0  0  0  0  0
   58.7890   31.9440   47.9830 C   0  0  0  0  0  0  0  0  0  0  0  0
   58.9510   31.6550   49.4280 C   0  0  0  0  0  0  0  0  0  0  0  0
   59.4900   32.5120   50.1800 O   0  0  0  0  0  0  0  0  0  0  0  0
   58.5530   30.3830   49.9630 N   0  0  0  0  0  0  0  0  0  0  0  0
   58.1980   30.1600   51.3390 C   0  0  0  0  0  0  0  0  0  0  0  0
   59.1680   29.8610   52.3100 C   0  0  0  0  0  0  0  0  0  0  0  0
   58.7980   29.6850   53.6450 C   0  0  0  0  0  0  0  0  0  0  0  0
   57.4620   29.8160   54.0270 C   0  0  0  0  0  0  0  0  0  0  0  0
   56.4770   30.1350   53.0760 C   0  0  0  0  0  0  0  0  0  0  0  0
   55.0560   30.2890   53.4820 C   0  0  0  0  0  0  0  0  0  0  0  0
   54.6490   29.9770   54.7930 C   0  0  0  0  0  0  0  0  0  0  0  0
   53.3120   30.1260   55.1730 C   0  0  0  0  0  0  0  0  0  0  0  0
   52.3680   30.5850   54.2530 C   0  0  0  0  0  0  0  0  0  0  0  0
   52.7580   30.8970   52.9470 C   0  0  0  0  0  0  0  0  0  0  0  0
   51.5710   31.4700   51.7900 Cl  0  0  0  0  0  0  0  0  0  0  0  0
   54.0960   30.7510   52.5630 C   0  0  0  0  0  0  0  0  0  0  0  0
   56.8590   30.3120   51.7330 C   0  0  0  0  0  0  0  0  0  0  0  0
   58.1550   31.0220   47.1340 C   0  0  0  0  0  0  0  0  0  0  0  0
   57.9870   31.2810   45.7490 C   0  0  0  0  0  0  0  0  0  0  0  0
   57.3310   30.4060   44.9020 N   0  0  0  0  0  0  0  0  0  0  0  0
   56.6590   29.1740   45.3910 C   0  0  0  0  0  0  0  0  0  0  0  0
   57.6060   27.9670   45.3700 C   0  0  0  0  0  0  0  0  0  0  0  0
   57.4480   27.1530   46.5770 N   0  0  0  0  0  0  0  0  0  0  0  0
   56.3980   25.7950   46.2940 S   0  0  0  0  0  0  0  0  0  0  0  0
   54.7830   26.3370   45.9990 N   0  0  0  0  0  0  0  0  0  0  0  0
   56.8880   25.0030   45.1130 O   0  0  0  0  0  0  0  0  0  0  0  0
   56.4050   24.9100   47.5080 O   0  0  0  0  0  0  0  0  0  0  0  0
   57.2830   30.6710   43.5510 C   0  0  0  0  0  0  0  0  0  0  0  0
   56.7110   29.8550   42.7720 O   0  0  0  0  0  0  0  0  0  0  0  0
   57.3866   33.1044   41.4231 H   0  0  0  0  0  0  0  0  0  0  0  0
   58.7408   31.9626   41.1247 H   0  0  0  0  0  0  0  0  0  0  0  0
   57.0465   31.3661   41.1247 H   0  0  0  0  0  0  0  0  0  0  0  0
   59.5138   34.3636   45.6846 H   0  0  0  0  0  0  0  0  0  0  0  0
   59.7270   33.8925   48.1119 H   0  0  0  0  0  0  0  0  0  0  0  0
   58.6020   29.5560   49.3280 H   0  0  0  0  0  0  0  0  0  0  0  0
   60.2240   29.7650   52.0174 H   0  0  0  0  0  0  0  0  0  0  0  0
   59.5621   29.4423   54.3981 H   0  0  0  0  0  0  0  0  0  0  0  0
   57.1778   29.6686   55.0794 H   0  0  0  0  0  0  0  0  0  0  0  0
   55.3875   29.6138   55.5228 H   0  0  0  0  0  0  0  0  0  0  0  0
   53.0030   29.8808   56.1999 H   0  0  0  0  0  0  0  0  0  0  0  0
   51.3168   30.7013   54.5555 H   0  0  0  0  0  0  0  0  0  0  0  0
   54.3992   30.9993   51.5352 H   0  0  0  0  0  0  0  0  0  0  0  0
   56.0985   30.5728   50.9822 H   0  0  0  0  0  0  0  0  0  0  0  0
   57.7797   30.0766   47.5528 H   0  0  0  0  0  0  0  0  0  0  0  0
   56.3157   29.3403   46.4227 H   0  0  0  0  0  0  0  0  0  0  0  0
   55.8111   28.9573   44.7246 H   0  0  0  0  0  0  0  0  0  0  0  0
   57.3815   27.3493   44.4880 H   0  0  0  0  0  0  0  0  0  0  0  0
   58.6416   28.3356   45.3298 H   0  0  0  0  0  0  0  0  0  0  0  0
   54.5660   27.0690   46.7120 H   0  0  0  0  0  0  0  0  0  0  0  0
  1  2  1  0
  2  3  1  0
  3  4  2  0
  3  5  1  0
  5  6  2  0
  6  7  1  0
  7  8  2  0
  8  9  1  0
  9 10  2  0
  9 11  1  0
 11 12  1  0
 12 13  2  0
 13 14  1  0
 14 15  2  0
 15 16  1  0
 16 17  1  0
 17 18  2  0
 18 19  1  0
 19 20  2  0
 20 21  1  0
 21 22  1  0
 21 23  2  0
 16 24  2  0
  8 25  1  0
 25 26  2  0
 26 27  1  0
 27 28  1  0
 28 29  1  0
 29 30  1  0
 30 31  1  0
 31 32  1  0
 31 33  2  0
 31 34  2  0
 27 35  1  0
 35 36  2  0
 35  2  1  0
 26  5  1  0
 24 12  1  0
 23 17  1  0
  1 37  1  0
  1 38  1  0
  1 39  1  0
  6 40  1  0
  7 41  1  0
 11 42  1  0
 13 43  1  0
 14 44  1  0
 15 45  1  0
 18 46  1  0
 19 47  1  0
 20 48  1  0
 23 49  1  0
 24 50  1  0
 25 51  1  0
 28 52  1  0
 28 53  1  0
 29 54  1  0
 29 55  1  0
 32 56  1  0
M  CHG  2  30  -1  32  -1
M  END
>  <UniqueID>  (13) 
13

>  <SMILES>  (13) 
Cn1c(=O)c2ccc(C(=O)Nc3cccc(-c4cccc(Cl)c4)c3)cc2n(CC[N-]S([NH-])(=O)=O)c1=O

>  <Energy>  (13) 
82.02781548779284

>  <Genealogy>  (13) 
Cn1c(=O)c2ccc(C(=O)Nc3cccc(-c4cccc(Cl)c4)c3)cc2n(CC[N-]S([NH-])(=O)=O)c1=O (protonated)
Cn1c(=O)c2ccc(C(=O)Nc3cccc(-c4cccc(Cl)c4)c3)cc2n(CC[N-]S([NH-])(=O)=O)c1=O (3D coordinates assigned)
Cn1c(=O)c2ccc(C(=O)Nc3cccc(-c4cccc(Cl)c4)c3)cc2n(CC[N-]S([NH-])(=O)=O)c1=O (optimized conformer: 82.02781548779284 kcal/mol)

>  <smiles>  (13) 
Cn1c(=O)c2ccc(C(=O)Nc3cccc(-c4cccc(Cl)c4)c3)cc2n(CCNS(N)(=O)=O)c1=O

>  <score_type>  (13) 
oracle

>  <origin>  (13) 
adg

>  <m_score__min__energy>  (13) 
-14.720000000000001

>  <m_primary>  (13) 
energy

$$$$
13:0
     RDKit          3D

 59 62  0  0  0  0  0  0  0  0999 V2000
   60.7260   30.1880   46.7090 C   0  0  0  0  0  0  0  0  0  0  0  0
   60.0120   30.9610   47.7750 C   0  0  0  0  0  0  0  0  0  0  0  0
   59.4200   32.2160   47.5830 C   0  0  0  0  0  0  0  0  0  0  0  0
   59.4250   32.9710   46.3630 N   0  0  0  0  0  0  0  0  0  0  0  0
   60.4790   33.9720   46.1380 C   0  0  0  0  0  0  0  0  0  0  0  0
   61.3780   34.1570   47.3740 C   0  0  0  0  0  0  0  0  0  0  0  0
   62.6840   33.3500   47.2880 C   0  0  0  0  0  0  0  0  0  0  0  0
   63.5290   33.5860   48.4850 N   0  0  0  0  0  0  0  0  0  0  0  0
   64.1640   32.3520   48.9890 C   0  0  0  0  0  0  0  0  0  0  0  0
   63.1600   31.4770   49.7530 C   0  0  0  0  0  0  0  0  0  0  0  0
   62.6190   32.1920   50.8430 O   0  0  0  0  0  0  0  0  0  0  0  0
   61.8900   33.3050   50.3660 C   0  0  0  0  0  0  0  0  0  0  0  0
   62.7960   34.2720   49.5770 C   0  0  0  0  0  0  0  0  0  0  0  0
   57.9140   33.1120   45.5120 S   0  0  0  0  0  0  0  0  0  0  0  0
   56.8140   33.3990   46.4970 O   0  0  0  0  0  0  0  0  0  0  0  0
   57.9680   34.2500   44.5290 O   0  0  0  0  0  0  0  0  0  0  0  0
   57.5720   31.6260   44.6380 C   0  0  0  0  0  0  0  0  0  0  0  0
   57.2120   31.6500   43.2830 C   0  0  0  0  0  0  0  0  0  0  0  0
   56.8920   30.4600   42.6200 C   0  0  0  0  0  0  0  0  0  0  0  0
   56.9230   29.2440   43.3070 C   0  0  0  0  0  0  0  0  0  0  0  0
   57.2940   29.2110   44.6590 C   0  0  0  0  0  0  0  0  0  0  0  0
   57.3030   27.6960   45.5580 S   0  0  0  0  0  0  0  0  0  0  0  0
   55.6910   27.0870   45.6800 N   0  0  0  0  0  0  0  0  0  0  0  0
   57.8440   27.9140   46.9410 O   0  0  0  0  0  0  0  0  0  0  0  0
   58.1680   26.6980   44.8420 O   0  0  0  0  0  0  0  0  0  0  0  0
   57.6260   30.4020   45.3160 C   0  0  0  0  0  0  0  0  0  0  0  0
   58.7600   32.7760   49.0360 S   0  0  0  0  0  0  0  0  0  0  0  0
   59.1970   31.4160   49.9200 C   0  0  0  0  0  0  0  0  0  0  0  0
   58.9640   31.1640   51.2690 C   0  0  0  0  0  0  0  0  0  0  0  0
   59.4330   29.9570   51.8110 C   0  0  0  0  0  0  0  0  0  0  0  0
   60.1280   29.0410   51.0030 C   0  0  0  0  0  0  0  0  0  0  0  0
   60.3400   29.3090   49.6390 C   0  0  0  0  0  0  0  0  0  0  0  0
   59.8680   30.5140   49.1020 C   0  0  0  0  0  0  0  0  0  0  0  0
   61.4016   29.4566   47.1766 H   0  0  0  0  0  0  0  0  0  0  0  0
   59.9906   29.6605   46.0838 H   0  0  0  0  0  0  0  0  0  0  0  0
   61.3102   30.8793   46.0838 H   0  0  0  0  0  0  0  0  0  0  0  0
   61.1022   33.6463   45.2921 H   0  0  0  0  0  0  0  0  0  0  0  0
   59.9910   34.9352   45.9279 H   0  0  0  0  0  0  0  0  0  0  0  0
   61.6297   35.2236   47.4689 H   0  0  0  0  0  0  0  0  0  0  0  0
   60.8192   33.7899   48.2475 H   0  0  0  0  0  0  0  0  0  0  0  0
   62.4424   32.2788   47.2226 H   0  0  0  0  0  0  0  0  0  0  0  0
   63.2396   33.6724   46.3950 H   0  0  0  0  0  0  0  0  0  0  0  0
   64.5613   31.7804   48.1373 H   0  0  0  0  0  0  0  0  0  0  0  0
   64.9718   32.6356   49.6797 H   0  0  0  0  0  0  0  0  0  0  0  0
   62.3470   31.1800   49.0742 H   0  0  0  0  0  0  0  0  0  0  0  0
   63.6787   30.5841   50.1321 H   0  0  0  0  0  0  0  0  0  0  0  0
   61.0847   32.9498   49.7063 H   0  0  0  0  0  0  0  0  0  0  0  0
   61.4756   33.8448   51.2302 H   0  0  0  0  0  0  0  0  0  0  0  0
   62.1721   35.0661   49.1409 H   0  0  0  0  0  0  0  0  0  0  0  0
   63.5387   34.6853   50.2753 H   0  0  0  0  0  0  0  0  0  0  0  0
   57.1811   32.6062   42.7401 H   0  0  0  0  0  0  0  0  0  0  0  0
   56.6154   30.4821   41.5556 H   0  0  0  0  0  0  0  0  0  0  0  0
   56.6563   28.3120   42.7872 H   0  0  0  0  0  0  0  0  0  0  0  0
   55.1540   27.4700   44.8690 H   0  0  0  0  0  0  0  0  0  0  0  0
   57.9315   30.3760   46.3724 H   0  0  0  0  0  0  0  0  0  0  0  0
   58.4262   31.8919   51.8942 H   0  0  0  0  0  0  0  0  0  0  0  0
   59.2559   29.7273   52.8721 H   0  0  0  0  0  0  0  0  0  0  0  0
   60.5092   28.1068   51.4411 H   0  0  0  0  0  0  0  0  0  0  0  0
   60.8685   28.5835   49.0031 H   0  0  0  0  0  0  0  0  0  0  0  0
  1  2  1  0
  2  3  2  0
  3  4  1  0
  4  5  1  0
  5  6  1  0
  6  7  1  0
  7  8  1  0
  8  9  1  0
  9 10  1  0
 10 11  1  0
 11 12  1  0
 12 13  1  0
  4 14  1  0
 14 15  2  0
 14 16  2  0
 14 17  1  0
 17 18  2  0
 18 19  1  0
 19 20  2  0
 20 21  1  0
 21 22  1  0
 22 23  1  0
 22 24  2  0
 22 25  2  0
 21 26  2  0
  3 27  1  0
 27 28  1  0
 28 29  2  0
 29 30  1  0
 30 31  2  0
 31 32  1  0
 32 33  2  0
 33  2  1  0
 13  8  1  0
 26 17  1  0
 33 28  1  0
  1 34  1  0
  1 35  1  0
  1 36  1  0
  5 37  1  0
  5 38  1  0
  6 39  1  0
  6 40  1  0
  7 41  1  0
  7 42  1  0
  9 43  1  0
  9 44  1  0
 10 45  1  0
 10 46  1  0
 12 47  1  0
 12 48  1  0
 13 49  1  0
 13 50  1  0
 18 51  1  0
 19 52  1  0
 20 53  1  0
 23 54  1  0
 26 55  1  0
 29 56  1  0
 30 57  1  0
 31 58  1  0
 32 59  1  0
M  CHG  1  23  -1
M  END
>  <UniqueID>  (14) 
14

>  <SMILES>  (14) 
Cc1c(N(CCCN2CCOCC2)S(=O)(=O)c2cccc(S([NH-])(=O)=O)c2)sc2ccccc12

>  <Energy>  (14) 
99.6613098538906

>  <Genealogy>  (14) 
Cc1c(N(CCCN2CCOCC2)S(=O)(=O)c2cccc(S([NH-])(=O)=O)c2)sc2ccccc12 (protonated)
Cc1c(N(CCCN2CCOCC2)S(=O)(=O)c2cccc(S([NH-])(=O)=O)c2)sc2ccccc12 (3D coordinates assigned)
Cc1c(N(CCCN2CCOCC2)S(=O)(=O)c2cccc(S([NH-])(=O)=O)c2)sc2ccccc12 (nonaromatic ring conformer: 99.6613098538906 kcal/mol)

>  <smiles>  (14) 
Cc1c(N(CCCN2CCOCC2)S(=O)(=O)c2cccc(S(N)(=O)=O)c2)sc2ccccc12

>  <score_type>  (14) 
oracle

>  <origin>  (14) 
adg

>  <m_score__min__energy>  (14) 
-12.619999999999999

>  <m_primary>  (14) 
energy

$$$$
14:0
     RDKit          3D

 52 54  0  0  0  0  0  0  0  0999 V2000
   51.4770   22.1320   46.0510 C   0  0  0  0  0  0  0  0  0  0  0  0
   52.5680   22.6240   45.2820 O   0  0  0  0  0  0  0  0  0  0  0  0
   52.9000   23.9830   45.2320 C   0  0  0  0  0  0  0  0  0  0  0  0
   52.0440   24.8380   44.8740 O   0  0  0  0  0  0  0  0  0  0  0  0
   54.2520   24.4200   45.6000 C   0  0  0  0  0  0  0  0  0  0  0  0
   55.2730   23.5340   45.9450 C   0  0  0  0  0  0  0  0  0  0  0  0
   56.6460   24.4390   46.2980 S   0  0  0  0  0  0  0  0  0  0  0  0
   55.8860   25.9130   45.9900 C   0  0  0  0  0  0  0  0  0  0  0  0
   56.4170   27.0980   46.0810 N   0  0  0  0  0  0  0  0  0  0  0  0
   57.1930   27.7950   45.0900 C   0  0  0  0  0  0  0  0  0  0  0  0
   58.1520   27.2260   44.5000 O   0  0  0  0  0  0  0  0  0  0  0  0
   56.8730   29.2250   44.7240 C   0  0  0  0  0  0  0  0  0  0  0  0
   57.9470   29.8850   43.9270 N   0  0  2  0  0  0  0  0  0  0  0  0
   58.9920   30.4530   44.8140 C   0  0  0  0  0  0  0  0  0  0  0  0
   58.4970   31.6650   45.6320 C   0  0  0  0  0  0  0  0  0  0  0  0
   57.5150   32.5660   44.8470 C   0  0  1  0  0  0  0  0  0  0  0  0
   57.6820   34.0120   45.2470 C   0  0  0  0  0  0  0  0  0  0  0  0
   56.6840   34.7850   45.2010 O   0  0  0  0  0  0  0  0  0  0  0  0
   58.9500   34.5040   45.7030 N   0  0  0  0  0  0  0  0  0  0  0  0
   59.2300   34.7970   47.1020 C   0  0  0  0  0  0  0  0  0  0  0  0
   60.5860   34.2530   47.4520 C   0  0  0  0  0  0  0  0  0  0  0  0
   61.4920   33.8920   46.4300 C   0  0  0  0  0  0  0  0  0  0  0  0
   62.7790   33.4560   46.7580 C   0  0  0  0  0  0  0  0  0  0  0  0
   63.1780   33.3940   48.1020 C   0  0  0  0  0  0  0  0  0  0  0  0
   62.2880   33.7640   49.1210 C   0  0  0  0  0  0  0  0  0  0  0  0
   60.9980   34.1960   48.7990 C   0  0  0  0  0  0  0  0  0  0  0  0
   57.6720   32.3550   43.3320 C   0  0  0  0  0  0  0  0  0  0  0  0
   57.4100   30.8860   42.9500 C   0  0  0  0  0  0  0  0  0  0  0  0
   54.5990   25.7380   45.6250 N   0  0  0  0  0  0  0  0  0  0  0  0
   51.7069   22.2357   47.1217 H   0  0  0  0  0  0  0  0  0  0  0  0
   50.5710   22.7087   45.8130 H   0  0  0  0  0  0  0  0  0  0  0  0
   51.3095   21.0712   45.8130 H   0  0  0  0  0  0  0  0  0  0  0  0
   55.1940   22.4374   45.9800 H   0  0  0  0  0  0  0  0  0  0  0  0
   55.9445   29.2349   44.1342 H   0  0  0  0  0  0  0  0  0  0  0  0
   56.7732   29.7872   45.6642 H   0  0  0  0  0  0  0  0  0  0  0  0
   58.4330   29.1340   43.3790 H   0  0  0  0  0  0  0  0  0  0  0  0
   59.3219   29.6700   45.5126 H   0  0  0  0  0  0  0  0  0  0  0  0
   59.8132   30.8036   44.1716 H   0  0  0  0  0  0  0  0  0  0  0  0
   57.9876   31.2944   46.5338 H   0  0  0  0  0  0  0  0  0  0  0  0
   59.3777   32.2763   45.8786 H   0  0  0  0  0  0  0  0  0  0  0  0
   56.4856   32.2768   45.1054 H   0  0  0  0  0  0  0  0  0  0  0  0
   59.2166   35.8854   47.2610 H   0  0  0  0  0  0  0  0  0  0  0  0
   58.4654   34.3303   47.7404 H   0  0  0  0  0  0  0  0  0  0  0  0
   61.1846   33.9540   45.3757 H   0  0  0  0  0  0  0  0  0  0  0  0
   63.4792   33.1614   45.9624 H   0  0  0  0  0  0  0  0  0  0  0  0
   64.1925   33.0540   48.3573 H   0  0  0  0  0  0  0  0  0  0  0  0
   62.6049   33.7143   50.1732 H   0  0  0  0  0  0  0  0  0  0  0  0
   60.3029   34.4921   49.5985 H   0  0  0  0  0  0  0  0  0  0  0  0
   56.9535   32.9981   42.8027 H   0  0  0  0  0  0  0  0  0  0  0  0
   58.7025   32.6132   43.0468 H   0  0  0  0  0  0  0  0  0  0  0  0
   56.3226   30.7401   42.8713 H   0  0  0  0  0  0  0  0  0  0  0  0
   57.9372   30.7107   42.0006 H   0  0  0  0  0  0  0  0  0  0  0  0
  1  2  1  0
  2  3  1  0
  3  4  2  0
  3  5  1  0
  5  6  2  0
  6  7  1  0
  7  8  1  0
  8  9  2  3
  9 10  1  0
 10 11  2  0
 10 12  1  0
 12 13  1  0
 13 14  1  0
 14 15  1  0
 15 16  1  0
 16 17  1  0
 17 18  2  0
 17 19  1  0
 19 20  1  0
 20 21  1  0
 21 22  2  0
 22 23  1  0
 23 24  2  0
 24 25  1  0
 25 26  2  0
 16 27  1  0
 27 28  1  0
  8 29  1  0
 29  5  1  0
 28 13  1  0
 26 21  1  0
  1 30  1  0
  1 31  1  0
  1 32  1  0
  6 33  1  0
 12 34  1  0
 12 35  1  0
 13 36  1  6
 14 37  1  0
 14 38  1  0
 15 39  1  0
 15 40  1  0
 16 41  1  1
 20 42  1  0
 20 43  1  0
 22 44  1  0
 23 45  1  0
 24 46  1  0
 25 47  1  0
 26 48  1  0
 27 49  1  0
 27 50  1  0
 28 51  1  0
 28 52  1  0
M  CHG  3  13   1  19  -1  29  -1
M  END
>  <UniqueID>  (15) 
15

>  <SMILES>  (15) 
COC(=O)c1csc(=NC(=O)C[NH+]2CCC(C(=O)[N-]Cc3ccccc3)CC2)[n-]1

>  <Energy>  (15) 
91.99425909439822

>  <Genealogy>  (15) 
COC(=O)c1csc(=NC(=O)C[NH+]2CCC(C(=O)[N-]Cc3ccccc3)CC2)[n-]1 (protonated)
COC(=O)c1csc(=NC(=O)C[NH+]2CCC(C(=O)[N-]Cc3ccccc3)CC2)[n-]1 (3D coordinates assigned)
COC(=O)c1csc(=NC(=O)C[NH+]2CCC(C(=O)[N-]Cc3ccccc3)CC2)[n-]1 (nonaromatic ring conformer: 91.99425909439822 kcal/mol)

>  <smiles>  (15) 
COC(=O)c1csc(=NC(=O)CN2CCC(C(=O)NCc3ccccc3)CC2)[nH]1

>  <score_type>  (15) 
oracle

>  <origin>  (15) 
adg

>  <m_score__min__energy>  (15) 
-9.8499999999999996

>  <m_primary>  (15) 
energy

$$$$
15:0
     RDKit          3D

 46 48  0  0  0  0  0  0  0  0999 V2000
   57.2280   27.1900   46.7570 N   0  0  0  0  0  0  0  0  0  0  0  0
   58.3090   28.1190   46.6030 C   0  0  0  0  0  0  0  0  0  0  0  0
   58.9010   28.6770   47.7470 C   0  0  0  0  0  0  0  0  0  0  0  0
   59.9440   29.6000   47.6280 C   0  0  0  0  0  0  0  0  0  0  0  0
   60.4030   29.9750   46.3640 C   0  0  0  0  0  0  0  0  0  0  0  0
   59.8240   29.4270   45.2180 C   0  0  0  0  0  0  0  0  0  0  0  0
   58.7880   28.4880   45.3260 C   0  0  0  0  0  0  0  0  0  0  0  0
   58.0710   27.8230   43.8130 S   0  0  0  0  0  0  0  0  0  0  0  0
   57.1270   29.3260   43.3710 C   0  0  0  0  0  0  0  0  0  0  0  0
   56.2620   29.8030   44.5060 C   0  0  0  0  0  0  0  0  0  0  0  0
   55.5380   28.9710   45.1130 O   0  0  0  0  0  0  0  0  0  0  0  0
   56.1430   31.1920   44.8460 N   0  0  0  0  0  0  0  0  0  0  0  0
   57.2150   32.1270   45.0150 C   0  0  0  0  0  0  0  0  0  0  0  0
   57.7640   32.8180   43.9230 C   0  0  0  0  0  0  0  0  0  0  0  0
   58.8260   33.7050   44.1150 C   0  0  0  0  0  0  0  0  0  0  0  0
   59.3630   33.8920   45.3900 C   0  0  0  0  0  0  0  0  0  0  0  0
   58.8510   33.1760   46.4820 C   0  0  0  0  0  0  0  0  0  0  0  0
   59.5360   33.4020   48.0950 S   0  0  0  0  0  0  0  0  0  0  0  0
   59.4940   34.8640   48.4440 O   0  0  0  0  0  0  0  0  0  0  0  0
   58.6900   32.6620   49.0940 O   0  0  0  0  0  0  0  0  0  0  0  0
   61.1850   32.8370   48.2190 N   0  0  0  0  0  0  0  0  0  0  0  0
   61.9300   33.0410   46.9790 C   0  0  0  0  0  0  0  0  0  0  0  0
   63.3980   33.1210   47.3690 C   0  0  0  0  0  0  0  0  0  0  0  0
   63.4020   33.4570   48.8540 C   0  0  0  0  0  0  0  0  0  0  0  0
   61.9360   33.5510   49.2480 C   0  0  0  0  0  0  0  0  0  0  0  0
   57.7780   32.2930   46.2870 C   0  0  0  0  0  0  0  0  0  0  0  0
   56.2610   27.4470   46.4550 H   0  0  0  0  0  0  0  0  0  0  0  0
   57.3660   26.2430   47.1720 H   0  0  0  0  0  0  0  0  0  0  0  0
   58.5413   28.3856   48.7449 H   0  0  0  0  0  0  0  0  0  0  0  0
   60.4030   30.0308   48.5301 H   0  0  0  0  0  0  0  0  0  0  0  0
   61.2221   30.7033   46.2709 H   0  0  0  0  0  0  0  0  0  0  0  0
   60.1826   29.7336   44.2243 H   0  0  0  0  0  0  0  0  0  0  0  0
   57.8351   30.1244   43.1044 H   0  0  0  0  0  0  0  0  0  0  0  0
   56.4699   29.0776   42.5245 H   0  0  0  0  0  0  0  0  0  0  0  0
   57.3567   32.6605   42.9134 H   0  0  0  0  0  0  0  0  0  0  0  0
   59.2404   34.2578   43.2590 H   0  0  0  0  0  0  0  0  0  0  0  0
   60.1895   34.6025   45.5385 H   0  0  0  0  0  0  0  0  0  0  0  0
   61.7641   32.1979   46.2923 H   0  0  0  0  0  0  0  0  0  0  0  0
   61.6037   33.9562   46.4634 H   0  0  0  0  0  0  0  0  0  0  0  0
   63.8970   32.1570   47.1908 H   0  0  0  0  0  0  0  0  0  0  0  0
   63.9390   33.8739   46.7769 H   0  0  0  0  0  0  0  0  0  0  0  0
   63.9050   32.6642   49.4271 H   0  0  0  0  0  0  0  0  0  0  0  0
   63.9433   34.3919   49.0615 H   0  0  0  0  0  0  0  0  0  0  0  0
   61.7754   33.0823   50.2301 H   0  0  0  0  0  0  0  0  0  0  0  0
   61.6103   34.5989   49.3240 H   0  0  0  0  0  0  0  0  0  0  0  0
   57.3757   31.7266   47.1398 H   0  0  0  0  0  0  0  0  0  0  0  0
  1  2  1  0
  2  3  2  0
  3  4  1  0
  4  5  2  0
  5  6  1  0
  6  7  2  0
  7  8  1  0
  8  9  1  0
  9 10  1  0
 10 11  2  0
 10 12  1  0
 12 13  1  0
 13 14  2  0
 14 15  1  0
 15 16  2  0
 16 17  1  0
 17 18  1  0
 18 19  2  0
 18 20  2  0
 18 21  1  0
 21 22  1  0
 22 23  1  0
 23 24  1  0
 24 25  1  0
 17 26  2  0
  7  2  1  0
 26 13  1  0
 25 21  1  0
  1 27  1  0
  1 28  1  0
  3 29  1  0
  4 30  1  0
  5 31  1  0
  6 32  1  0
  9 33  1  0
  9 34  1  0
 14 35  1  0
 15 36  1  0
 16 37  1  0
 22 38  1  0
 22 39  1  0
 23 40  1  0
 23 41  1  0
 24 42  1  0
 24 43  1  0
 25 44  1  0
 25 45  1  0
 26 46  1  0
M  CHG  1  12  -1
M  END
>  <UniqueID>  (16) 
16

>  <SMILES>  (16) 
Nc1ccccc1SCC(=O)[N-]c1cccc(S(=O)(=O)N2CCCC2)c1

>  <Energy>  (16) 
50.03236814325515

>  <Genealogy>  (16) 
Nc1ccccc1SCC(=O)[N-]c1cccc(S(=O)(=O)N2CCCC2)c1 (protonated)
Nc1ccccc1SCC(=O)[N-]c1cccc(S(=O)(=O)N2CCCC2)c1 (3D coordinates assigned)
Nc1ccccc1SCC(=O)[N-]c1cccc(S(=O)(=O)N2CCCC2)c1 (nonaromatic ring conformer: 50.03236814325515 kcal/mol)

>  <smiles>  (16) 
Nc1ccccc1SCC(=O)Nc1cccc(S(=O)(=O)N2CCCC2)c1

>  <score_type>  (16) 
oracle

>  <origin>  (16) 
adg

>  <m_score__min__energy>  (16) 
-11.390000000000001

>  <m_primary>  (16) 
energy

$$$$
16:0
     RDKit          3D

 50 52  0  0  0  0  0  0  0  0999 V2000
   55.1760   29.3290   44.8380 N   0  0  0  0  0  0  0  0  0  0  0  0
   56.7590   29.4760   44.1600 S   0  0  0  0  0  0  0  0  0  0  0  0
   56.6650   29.4840   42.6600 O   0  0  0  0  0  0  0  0  0  0  0  0
   57.5990   28.3050   44.5860 O   0  0  0  0  0  0  0  0  0  0  0  0
   57.4960   30.9730   44.7200 C   0  0  0  0  0  0  0  0  0  0  0  0
   57.4260   32.1300   43.9310 C   0  0  0  0  0  0  0  0  0  0  0  0
   58.0170   33.3190   44.3700 C   0  0  0  0  0  0  0  0  0  0  0  0
   58.6920   33.3610   45.6010 C   0  0  0  0  0  0  0  0  0  0  0  0
   59.3060   34.6420   46.0950 C   0  0  0  0  0  0  0  0  0  0  0  0
   59.7440   34.4910   47.4810 N   0  0  0  0  0  0  0  0  0  0  0  0
   60.9530   33.8090   47.8370 C   0  0  0  0  0  0  0  0  0  0  0  0
   61.6400   33.2330   46.9510 O   0  0  0  0  0  0  0  0  0  0  0  0
   61.3430   33.7490   49.2150 N   0  0  0  0  0  0  0  0  0  0  0  0
   62.6840   33.6630   49.7170 C   0  0  0  0  0  0  0  0  0  0  0  0
   63.1210   34.4300   50.8120 C   0  0  0  0  0  0  0  0  0  0  0  0
   64.4290   34.2980   51.2880 C   0  0  0  0  0  0  0  0  0  0  0  0
   65.3120   33.3930   50.6830 C   0  0  0  0  0  0  0  0  0  0  0  0
   66.9540   33.1990   51.2920 S   0  0  0  0  0  0  0  0  0  0  0  0
   67.8250   32.7320   50.1600 O   0  0  0  0  0  0  0  0  0  0  0  0
   67.4770   34.5240   51.7740 O   0  0  0  0  0  0  0  0  0  0  0  0
   66.9980   32.0130   52.5810 N   0  0  0  0  0  0  0  0  0  0  0  0
   67.8000   30.8310   52.2170 C   0  0  0  0  0  0  0  0  0  0  0  0
   67.0740   29.9200   51.1980 C   0  0  0  0  0  0  0  0  0  0  0  0
   65.6770   30.1460   51.1300 O   0  0  0  0  0  0  0  0  0  0  0  0
   65.1450   30.3190   52.4240 C   0  0  0  0  0  0  0  0  0  0  0  0
   65.6380   31.6450   53.0330 C   0  0  0  0  0  0  0  0  0  0  0  0
   64.8690   32.6070   49.6120 C   0  0  0  0  0  0  0  0  0  0  0  0
   63.5610   32.7390   49.1370 C   0  0  0  0  0  0  0  0  0  0  0  0
   58.7630   32.2000   46.3870 C   0  0  0  0  0  0  0  0  0  0  0  0
   58.1720   31.0120   45.9460 C   0  0  0  0  0  0  0  0  0  0  0  0
   55.2430   28.6450   45.6240 H   0  0  0  0  0  0  0  0  0  0  0  0
   56.9042   32.1023   42.9630 H   0  0  0  0  0  0  0  0  0  0  0  0
   57.9530   34.2247   43.7490 H   0  0  0  0  0  0  0  0  0  0  0  0
   60.1720   34.8959   45.4660 H   0  0  0  0  0  0  0  0  0  0  0  0
   58.5547   35.4437   46.0417 H   0  0  0  0  0  0  0  0  0  0  0  0
   59.1590   34.9040   48.2400 H   0  0  0  0  0  0  0  0  0  0  0  0
   62.4308   35.1367   51.2959 H   0  0  0  0  0  0  0  0  0  0  0  0
   64.7662   34.9064   52.1401 H   0  0  0  0  0  0  0  0  0  0  0  0
   68.7489   31.1696   51.7755 H   0  0  0  0  0  0  0  0  0  0  0  0
   67.9694   30.2444   53.1320 H   0  0  0  0  0  0  0  0  0  0  0  0
   67.5044   30.1004   50.2019 H   0  0  0  0  0  0  0  0  0  0  0  0
   67.2170   28.8823   51.5338 H   0  0  0  0  0  0  0  0  0  0  0  0
   64.0466   30.3329   52.3657 H   0  0  0  0  0  0  0  0  0  0  0  0
   65.4786   29.4871   53.0617 H   0  0  0  0  0  0  0  0  0  0  0  0
   64.9422   32.4457   52.7418 H   0  0  0  0  0  0  0  0  0  0  0  0
   65.6759   31.5143   54.1245 H   0  0  0  0  0  0  0  0  0  0  0  0
   65.5523   31.8836   49.1432 H   0  0  0  0  0  0  0  0  0  0  0  0
   63.2182   32.1118   48.3009 H   0  0  0  0  0  0  0  0  0  0  0  0
   59.2860   32.2250   47.3544 H   0  0  0  0  0  0  0  0  0  0  0  0
   58.2382   30.1046   46.5643 H   0  0  0  0  0  0  0  0  0  0  0  0
  1  2  1  0
  2  3  2  0
  2  4  2  0
  2  5  1  0
  5  6  2  0
  6  7  1  0
  7  8  2  0
  8  9  1  0
  9 10  1  0
 10 11  1  0
 11 12  2  0
 11 13  1  0
 13 14  1  0
 14 15  2  0
 15 16  1  0
 16 17  2  0
 17 18  1  0
 18 19  2  0
 18 20  2  0
 18 21  1  0
 21 22  1  0
 22 23  1  0
 23 24  1  0
 24 25  1  0
 25 26  1  0
 17 27  1  0
 27 28  2  0
  8 29  1  0
 29 30  2  0
 30  5  1  0
 28 14  1  0
 26 21  1  0
  1 31  1  0
  6 32  1  0
  7 33  1  0
  9 34  1  0
  9 35  1  0
 10 36  1  0
 15 37  1  0
 16 38  1  0
 22 39  1  0
 22 40  1  0
 23 41  1  0
 23 42  1  0
 25 43  1  0
 25 44  1  0
 26 45  1  0
 26 46  1  0
 27 47  1  0
 28 48  1  0
 29 49  1  0
 30 50  1  0
M  CHG  2   1  -1  13  -1
M  END
>  <UniqueID>  (17) 
17

>  <SMILES>  (17) 
[NH-]S(=O)(=O)c1ccc(CNC(=O)[N-]c2ccc(S(=O)(=O)N3CCOCC3)cc2)cc1

>  <Energy>  (17) 
62.266236630088834

>  <Genealogy>  (17) 
[NH-]S(=O)(=O)c1ccc(CNC(=O)[N-]c2ccc(S(=O)(=O)N3CCOCC3)cc2)cc1 (protonated)
[NH-]S(=O)(=O)c1ccc(CNC(=O)[N-]c2ccc(S(=O)(=O)N3CCOCC3)cc2)cc1 (3D coordinates assigned)
[NH-]S(=O)(=O)c1ccc(CNC(=O)[N-]c2ccc(S(=O)(=O)N3CCOCC3)cc2)cc1 (nonaromatic ring conformer: 62.266236630088834 kcal/mol)

>  <smiles>  (17) 
NS(=O)(=O)c1ccc(CNC(=O)Nc2ccc(S(=O)(=O)N3CCOCC3)cc2)cc1

>  <score_type>  (17) 
oracle

>  <origin>  (17) 
adg

>  <m_score__min__energy>  (17) 
-12.59

>  <m_primary>  (17) 
energy

$$$$
17:0
     RDKit          3D

 50 52  0  0  0  0  0  0  0  0999 V2000
   59.8350   29.0500   49.4810 C   0  0  0  0  0  0  0  0  0  0  0  0
   59.4370   30.4170   48.9930 C   0  0  0  0  0  0  0  0  0  0  0  0
   58.6460   31.3010   49.7410 C   0  0  0  0  0  0  0  0  0  0  0  0
   58.1480   31.0920   51.1190 C   0  0  0  0  0  0  0  0  0  0  0  0
   57.3990   30.1040   51.3480 O   0  0  0  0  0  0  0  0  0  0  0  0
   58.5070   31.9730   52.2040 N   0  0  0  0  0  0  0  0  0  0  0  0
   58.8830   33.3690   51.9570 C   0  0  0  0  0  0  0  0  0  0  0  0
   58.4010   31.4850   53.5820 C   0  0  0  0  0  0  0  0  0  0  0  0
   58.4310   32.7130   48.8460 S   0  0  0  0  0  0  0  0  0  0  0  0
   59.3480   32.2400   47.5260 C   0  0  0  0  0  0  0  0  0  0  0  0
   59.4940   33.0350   46.3440 N   0  0  0  0  0  0  0  0  0  0  0  0
   58.4630   33.2770   45.3780 C   0  0  0  0  0  0  0  0  0  0  0  0
   57.9490   34.4260   45.2860 O   0  0  0  0  0  0  0  0  0  0  0  0
   57.9640   32.1710   44.5280 C   0  0  0  0  0  0  0  0  0  0  0  0
   57.7510   32.3700   43.1520 C   0  0  0  0  0  0  0  0  0  0  0  0
   57.2710   31.3300   42.3550 C   0  0  0  0  0  0  0  0  0  0  0  0
   57.0000   30.0820   42.9160 C   0  0  0  0  0  0  0  0  0  0  0  0
   57.2080   29.8550   44.2830 C   0  0  0  0  0  0  0  0  0  0  0  0
   56.9120   28.5550   44.8290 N   0  0  0  0  0  0  0  0  0  0  0  0
   58.0130   27.6380   45.8110 S   0  0  0  0  0  0  0  0  0  0  0  0
   59.3410   27.5180   45.1180 O   0  0  0  0  0  0  0  0  0  0  0  0
   58.1860   28.3450   47.1270 O   0  0  0  0  0  0  0  0  0  0  0  0
   57.3630   26.0130   46.0610 C   0  0  0  0  0  0  0  0  0  0  0  0
   58.2490   24.9420   46.2410 C   0  0  0  0  0  0  0  0  0  0  0  0
   57.7590   23.6530   46.4500 C   0  0  0  0  0  0  0  0  0  0  0  0
   56.3800   23.4440   46.4870 C   0  0  0  0  0  0  0  0  0  0  0  0
   55.5300   24.4920   46.3280 N   0  0  0  0  0  0  0  0  0  0  0  0
   55.9780   25.7590   46.1210 C   0  0  0  0  0  0  0  0  0  0  0  0
   55.1430   26.6930   45.9940 O   0  0  0  0  0  0  0  0  0  0  0  0
   57.6860   30.9090   45.0870 C   0  0  0  0  0  0  0  0  0  0  0  0
   59.8260   30.9460   47.7420 C   0  0  0  0  0  0  0  0  0  0  0  0
   60.5560   30.1900   46.7530 C   0  0  0  0  0  0  0  0  0  0  0  0
   61.1390   29.5830   45.9590 N   0  0  0  0  0  0  0  0  0  0  0  0
   59.8380   29.0398   50.5809 H   0  0  0  0  0  0  0  0  0  0  0  0
   59.1166   28.3045   49.1094 H   0  0  0  0  0  0  0  0  0  0  0  0
   60.8413   28.8066   49.1094 H   0  0  0  0  0  0  0  0  0  0  0  0
   59.0224   33.8866   52.9175 H   0  0  0  0  0  0  0  0  0  0  0  0
   59.8215   33.4001   51.3841 H   0  0  0  0  0  0  0  0  0  0  0  0
   58.0870   33.8673   51.3841 H   0  0  0  0  0  0  0  0  0  0  0  0
   58.5814   32.3157   54.2801 H   0  0  0  0  0  0  0  0  0  0  0  0
   57.3933   31.0772   53.7501 H   0  0  0  0  0  0  0  0  0  0  0  0
   59.1487   30.6959   53.7501 H   0  0  0  0  0  0  0  0  0  0  0  0
   57.9640   33.3508   42.7017 H   0  0  0  0  0  0  0  0  0  0  0  0
   57.1057   31.4950   41.2801 H   0  0  0  0  0  0  0  0  0  0  0  0
   56.6198   29.2691   42.2799 H   0  0  0  0  0  0  0  0  0  0  0  0
   55.9890   28.1180   44.6110 H   0  0  0  0  0  0  0  0  0  0  0  0
   59.3345   25.1186   46.2174 H   0  0  0  0  0  0  0  0  0  0  0  0
   58.4526   22.8099   46.5843 H   0  0  0  0  0  0  0  0  0  0  0  0
   55.9811   22.4311   46.6448 H   0  0  0  0  0  0  0  0  0  0  0  0
   57.8437   30.7440   46.1631 H   0  0  0  0  0  0  0  0  0  0  0  0
  1  2  1  0
  2  3  2  0
  3  4  1  0
  4  5  2  0
  4  6  1  0
  6  7  1  0
  6  8  1  0
  3  9  1  0
  9 10  1  0
 10 11  1  0
 11 12  1  0
 12 13  2  0
 12 14  1  0
 14 15  2  0
 15 16  1  0
 16 17  2  0
 17 18  1  0
 18 19  1  0
 19 20  1  0
 20 21  2  0
 20 22  2  0
 20 23  1  0
 23 24  2  0
 24 25  1  0
 25 26  2  0
 26 27  1  0
 27 28  1  0
 28 29  2  0
 18 30  2  0
 10 31  2  0
 31 32  1  0
 32 33  3  0
 31  2  1  0
 30 14  1  0
 28 23  1  0
  1 34  1  0
  1 35  1  0
  1 36  1  0
  7 37  1  0
  7 38  1  0
  7 39  1  0
  8 40  1  0
  8 41  1  0
  8 42  1  0
 15 43  1  0
 16 44  1  0
 17 45  1  0
 19 46  1  0
 24 47  1  0
 25 48  1  0
 26 49  1  0
 30 50  1  0
M  CHG  2  11  -1  27  -1
M  END
>  <UniqueID>  (18) 
18

>  <SMILES>  (18) 
Cc1c(C(=O)N(C)C)sc([N-]C(=O)c2cccc(NS(=O)(=O)c3ccc[n-]c3=O)c2)c1C#N

>  <Energy>  (18) 
93.11506026018718

>  <Genealogy>  (18) 
Cc1c(C(=O)N(C)C)sc([N-]C(=O)c2cccc(NS(=O)(=O)c3ccc[n-]c3=O)c2)c1C#N (protonated)
Cc1c(C(=O)N(C)C)sc([N-]C(=O)c2cccc(NS(=O)(=O)c3ccc[n-]c3=O)c2)c1C#N (3D coordinates assigned)
Cc1c(C(=O)N(C)C)sc([N-]C(=O)c2cccc(NS(=O)(=O)c3ccc[n-]c3=O)c2)c1C#N (optimized conformer: 93.11506026018718 kcal/mol)

>  <smiles>  (18) 
Cc1c(C(=O)N(C)C)sc(NC(=O)c2cccc(NS(=O)(=O)c3ccc[nH]c3=O)c2)c1C#N

>  <score_type>  (18) 
oracle

>  <origin>  (18) 
adg

>  <m_score__min__energy>  (18) 
-13.460000000000001

>  <m_primary>  (18) 
energy

$$$$
18:0
     RDKit          3D

 53 55  0  0  0  0  0  0  0  0999 V2000
   61.0490   34.1870   47.8280 C   0  0  0  0  0  0  0  0  0  0  0  0
   59.8250   33.8650   47.0180 C   0  0  0  0  0  0  0  0  0  0  0  0
   59.3400   34.7990   46.0860 C   0  0  0  0  0  0  0  0  0  0  0  0
   58.2040   34.5130   45.3220 C   0  0  0  0  0  0  0  0  0  0  0  0
   57.5460   33.2930   45.4760 C   0  0  0  0  0  0  0  0  0  0  0  0
   58.0250   32.3500   46.3890 C   0  0  0  0  0  0  0  0  0  0  0  0
   59.1650   32.6240   47.1590 C   0  0  0  0  0  0  0  0  0  0  0  0
   59.6520   31.6330   48.0750 N   0  0  0  0  0  0  0  0  0  0  0  0
   58.7930   31.1550   49.1590 C   0  0  0  0  0  0  0  0  0  0  0  0
   58.9910   29.6420   49.3600 C   0  0  0  0  0  0  0  0  0  0  0  0
   60.4100   29.1910   49.2680 N   0  0  0  0  0  0  0  0  0  0  0  0
   60.6200   28.1900   48.1990 C   0  0  0  0  0  0  0  0  0  0  0  0
   59.3160   27.4460   47.8630 C   0  0  0  0  0  0  0  0  0  0  0  0
   59.5100   26.2450   46.9210 C   0  0  0  0  0  0  0  0  0  0  0  0
   58.2650   25.9420   46.0760 C   0  0  0  0  0  0  0  0  0  0  0  0
   57.6780   27.1930   45.5710 N   0  0  0  0  0  0  0  0  0  0  0  0
   58.5040   28.1750   45.0950 C   0  0  0  0  0  0  0  0  0  0  0  0
   57.9800   29.3850   44.6250 C   0  0  0  0  0  0  0  0  0  0  0  0
   58.8900   30.4680   44.1160 C   0  0  0  0  0  0  0  0  0  0  0  0
   56.5950   29.5700   44.6880 C   0  0  0  0  0  0  0  0  0  0  0  0
   56.0690   30.6460   44.2940 O   0  0  0  0  0  0  0  0  0  0  0  0
   55.8040   28.5840   45.1810 N   0  0  0  0  0  0  0  0  0  0  0  0
   56.3250   27.4100   45.6210 C   0  0  0  0  0  0  0  0  0  0  0  0
   55.5470   26.5300   46.0790 O   0  0  0  0  0  0  0  0  0  0  0  0
   61.3930   30.2940   49.1950 C   0  0  0  0  0  0  0  0  0  0  0  0
   61.0680   31.2620   48.0500 C   0  0  0  0  0  0  0  0  0  0  0  0
   60.8070   34.1233   48.8992 H   0  0  0  0  0  0  0  0  0  0  0  0
   61.8465   33.4681   47.5889 H   0  0  0  0  0  0  0  0  0  0  0  0
   61.3895   35.2053   47.5889 H   0  0  0  0  0  0  0  0  0  0  0  0
   59.8574   35.7611   45.9568 H   0  0  0  0  0  0  0  0  0  0  0  0
   57.8288   35.2516   44.5983 H   0  0  0  0  0  0  0  0  0  0  0  0
   56.6492   33.0730   44.8782 H   0  0  0  0  0  0  0  0  0  0  0  0
   57.5053   31.3874   46.5046 H   0  0  0  0  0  0  0  0  0  0  0  0
   59.0520   31.6829   50.0887 H   0  0  0  0  0  0  0  0  0  0  0  0
   57.7420   31.3501   48.8994 H   0  0  0  0  0  0  0  0  0  0  0  0
   58.6081   29.3737   50.3557 H   0  0  0  0  0  0  0  0  0  0  0  0
   58.4481   29.1422   48.5443 H   0  0  0  0  0  0  0  0  0  0  0  0
   60.9830   28.7019   47.2956 H   0  0  0  0  0  0  0  0  0  0  0  0
   61.3570   27.4543   48.5534 H   0  0  0  0  0  0  0  0  0  0  0  0
   58.8728   27.0822   48.8017 H   0  0  0  0  0  0  0  0  0  0  0  0
   58.6653   28.1616   47.3391 H   0  0  0  0  0  0  0  0  0  0  0  0
   60.3495   26.4618   46.2441 H   0  0  0  0  0  0  0  0  0  0  0  0
   59.7069   25.3624   47.5473 H   0  0  0  0  0  0  0  0  0  0  0  0
   58.5491   25.3045   45.2257 H   0  0  0  0  0  0  0  0  0  0  0  0
   57.5233   25.4240   46.7018 H   0  0  0  0  0  0  0  0  0  0  0  0
   59.5917   28.0116   45.0816 H   0  0  0  0  0  0  0  0  0  0  0  0
   59.3378   31.0010   44.9677 H   0  0  0  0  0  0  0  0  0  0  0  0
   59.6866   30.0199   43.5039 H   0  0  0  0  0  0  0  0  0  0  0  0
   58.3114   31.1755   43.5039 H   0  0  0  0  0  0  0  0  0  0  0  0
   61.3803   30.8476   50.1455 H   0  0  0  0  0  0  0  0  0  0  0  0
   62.3861   29.8594   49.0081 H   0  0  0  0  0  0  0  0  0  0  0  0
   61.6812   32.1688   48.1582 H   0  0  0  0  0  0  0  0  0  0  0  0
   61.2877   30.7659   47.0931 H   0  0  0  0  0  0  0  0  0  0  0  0
  1  2  1  0
  2  3  2  0
  3  4  1  0
  4  5  2  0
  5  6  1  0
  6  7  2  0
  7  8  1  0
  8  9  1  0
  9 10  1  0
 10 11  1  0
 11 12  1  0
 12 13  1  0
 13 14  1  0
 14 15  1  0
 15 16  1  0
 16 17  1  0
 17 18  2  0
 18 19  1  0
 18 20  1  0
 20 21  2  0
 20 22  1  0
 22 23  1  0
 23 24  2  0
 11 25  1  0
 25 26  1  0
  7  2  1  0
 26  8  1  0
 23 16  1  0
  1 27  1  0
  1 28  1  0
  1 29  1  0
  3 30  1  0
  4 31  1  0
  5 32  1  0
  6 33  1  0
  9 34  1  0
  9 35  1  0
 10 36  1  0
 10 37  1  0
 12 38  1  0
 12 39  1  0
 13 40  1  0
 13 41  1  0
 14 42  1  0
 14 43  1  0
 15 44  1  0
 15 45  1  0
 17 46  1  0
 19 47  1  0
 19 48  1  0
 19 49  1  0
 25 50  1  0
 25 51  1  0
 26 52  1  0
 26 53  1  0
M  CHG  1  22  -1
M  END
>  <UniqueID>  (19) 
19

>  <SMILES>  (19) 
Cc1ccccc1N1CCN(CCCCn2cc(C)c(=O)[n-]c2=O)CC1

>  <Energy>  (19) 
64.03135055894224

>  <Genealogy>  (19) 
Cc1ccccc1N1CCN(CCCCn2cc(C)c(=O)[n-]c2=O)CC1 (protonated)
Cc1ccccc1N1CCN(CCCCn2cc(C)c(=O)[n-]c2=O)CC1 (3D coordinates assigned)
Cc1ccccc1N1CCN(CCCCn2cc(C)c(=O)[n-]c2=O)CC1 (nonaromatic ring conformer: 64.03135055894224 kcal/mol)

>  <smiles>  (19) 
Cc1ccccc1N1CCN(CCCCn2cc(C)c(=O)[nH]c2=O)CC1

>  <score_type>  (19) 
oracle

>  <origin>  (19) 
adg

>  <m_score__min__energy>  (19) 
-10.43

>  <m_primary>  (19) 
energy

$$$$
19:0
     RDKit          3D

 47 49  0  0  0  0  0  0  0  0999 V2000
   58.9940   27.8950   43.9380 O   0  0  0  0  0  0  0  0  0  0  0  0
   58.5450   28.5310   44.9290 C   0  0  0  0  0  0  0  0  0  0  0  0
   58.3770   27.8180   46.2390 C   0  0  0  0  0  0  0  0  0  0  0  0
   57.1740   26.9280   46.1770 C   0  0  0  0  0  0  0  0  0  0  0  0
   57.1500   25.6590   46.6230 N   0  0  0  0  0  0  0  0  0  0  0  0
   55.8660   25.2870   46.4290 C   0  0  0  0  0  0  0  0  0  0  0  0
   55.4410   24.1390   46.7240 O   0  0  0  0  0  0  0  0  0  0  0  0
   55.0710   26.2430   45.9000 N   0  0  0  0  0  0  0  0  0  0  0  0
   55.9150   27.2770   45.7520 C   0  0  0  0  0  0  0  0  0  0  0  0
   55.5390   28.5170   45.2480 O   0  0  0  0  0  0  0  0  0  0  0  0
   58.2500   29.9730   44.8010 C   0  0  0  0  0  0  0  0  0  0  0  0
   58.8900   30.8890   45.6530 C   0  0  0  0  0  0  0  0  0  0  0  0
   58.6270   32.2600   45.5640 C   0  0  0  0  0  0  0  0  0  0  0  0
   59.2900   33.1250   46.4490 O   0  0  0  0  0  0  0  0  0  0  0  0
   58.7920   33.5090   47.7260 C   0  0  0  0  0  0  0  0  0  0  0  0
   59.7270   34.5490   48.3430 C   0  0  0  0  0  0  0  0  0  0  0  0
   60.8690   33.8970   49.1330 C   0  0  0  0  0  0  0  0  0  0  0  0
   62.1800   34.2100   48.5140 N   0  0  0  0  0  0  0  0  0  0  0  0
   62.3200   33.6790   47.1410 C   0  0  0  0  0  0  0  0  0  0  0  0
   62.6080   32.1640   47.1170 C   0  0  0  0  0  0  0  0  0  0  0  0
   63.7570   31.8200   47.9640 N   0  0  0  0  0  0  0  0  0  0  0  0
   63.5490   32.2960   49.3360 C   0  0  0  0  0  0  0  0  0  0  0  0
   63.3240   33.8150   49.3610 C   0  0  0  0  0  0  0  0  0  0  0  0
   57.7130   32.7240   44.6020 C   0  0  0  0  0  0  0  0  0  0  0  0
   57.0720   31.8210   43.7500 C   0  0  0  0  0  0  0  0  0  0  0  0
   57.3320   30.4500   43.8420 C   0  0  0  0  0  0  0  0  0  0  0  0
   56.5320   29.3710   42.7040 Cl  0  0  0  0  0  0  0  0  0  0  0  0
   59.2713   27.2107   46.4424 H   0  0  0  0  0  0  0  0  0  0  0  0
   58.2429   28.5574   47.0423 H   0  0  0  0  0  0  0  0  0  0  0  0
   59.6084   30.5225   46.4010 H   0  0  0  0  0  0  0  0  0  0  0  0
   57.7864   33.9403   47.6134 H   0  0  0  0  0  0  0  0  0  0  0  0
   58.7400   32.6267   48.3809 H   0  0  0  0  0  0  0  0  0  0  0  0
   60.1571   35.1624   47.5375 H   0  0  0  0  0  0  0  0  0  0  0  0
   59.1390   35.1640   49.0401 H   0  0  0  0  0  0  0  0  0  0  0  0
   60.8571   34.2771   50.1652 H   0  0  0  0  0  0  0  0  0  0  0  0
   60.7261   32.8063   49.1263 H   0  0  0  0  0  0  0  0  0  0  0  0
   61.3852   33.8685   46.5930 H   0  0  0  0  0  0  0  0  0  0  0  0
   63.1754   34.1880   46.6728 H   0  0  0  0  0  0  0  0  0  0  0  0
   61.7210   31.6259   47.4826 H   0  0  0  0  0  0  0  0  0  0  0  0
   62.8437   31.8744   46.0823 H   0  0  0  0  0  0  0  0  0  0  0  0
   64.6140   32.2780   47.5720 H   0  0  0  0  0  0  0  0  0  0  0  0
   62.6674   31.7943   49.7615 H   0  0  0  0  0  0  0  0  0  0  0  0
   64.4464   32.0639   49.9283 H   0  0  0  0  0  0  0  0  0  0  0  0
   63.1267   34.1295   50.3965 H   0  0  0  0  0  0  0  0  0  0  0  0
   64.2278   34.3029   48.9673 H   0  0  0  0  0  0  0  0  0  0  0  0
   57.5020   33.8004   44.5198 H   0  0  0  0  0  0  0  0  0  0  0  0
   56.3570   32.1915   43.0007 H   0  0  0  0  0  0  0  0  0  0  0  0
  1  2  2  0
  2  3  1  0
  3  4  1  0
  4  5  1  0
  5  6  1  0
  6  7  2  0
  6  8  1  0
  8  9  1  0
  9 10  1  0
  2 11  1  0
 11 12  2  0
 12 13  1  0
 13 14  1  0
 14 15  1  0
 15 16  1  0
 16 17  1  0
 17 18  1  0
 18 19  1  0
 19 20  1  0
 20 21  1  0
 21 22  1  0
 22 23  1  0
 13 24  2  0
 24 25  1  0
 25 26  2  0
 26 27  1  0
  9  4  2  0
 26 11  1  0
 23 18  1  0
  3 28  1  0
  3 29  1  0
 12 30  1  0
 15 31  1  0
 15 32  1  0
 16 33  1  0
 16 34  1  0
 17 35  1  0
 17 36  1  0
 19 37  1  0
 19 38  1  0
 20 39  1  0
 20 40  1  0
 21 41  1  0
 22 42  1  0
 22 43  1  0
 23 44  1  0
 23 45  1  0
 24 46  1  0
 25 47  1  0
M  CHG  3   5  -1   8  -1  10  -1
M  END
>  <UniqueID>  (20) 
20

>  <SMILES>  (20) 
O=C(Cc1[n-]c(=O)[n-]c1[O-])c1cc(OCCCN2CCNCC2)ccc1Cl

>  <Energy>  (20) 
80.57282798531442

>  <Genealogy>  (20) 
O=C(Cc1[n-]c(=O)[n-]c1[O-])c1cc(OCCCN2CCNCC2)ccc1Cl (protonated)
O=C(Cc1[n-]c(=O)[n-]c1[O-])c1cc(OCCCN2CCNCC2)ccc1Cl (3D coordinates assigned)
O=C(Cc1[n-]c(=O)[n-]c1[O-])c1cc(OCCCN2CCNCC2)ccc1Cl (nonaromatic ring conformer: 80.57282798531442 kcal/mol)

>  <smiles>  (20) 
O=C(Cc1[nH]c(=O)[nH]c1O)c1cc(OCCCN2CCNCC2)ccc1Cl

>  <score_type>  (20) 
oracle

>  <origin>  (20) 
adg

>  <m_score__min__energy>  (20) 
-16.57

>  <m_primary>  (20) 
energy

$$$$
20:0
     RDKit          3D

 62 66  0  0  0  0  0  0  0  0999 V2000
   58.7377   26.8942   44.1413 H   0  0  0  0  0  0  0  0  0  0  0  0
   58.8060   27.1580   45.2070 C   0  0  0  0  0  0  0  0  0  0  0  0
   60.2260   27.3380   46.0920 S   0  0  0  0  0  0  0  0  0  0  0  0
   59.4110   27.7020   47.5140 C   0  0  0  0  0  0  0  0  0  0  0  0
   60.0120   27.9870   48.6310 N   0  0  0  0  0  0  0  0  0  0  0  0
   60.0250   29.2580   49.3030 C   0  0  0  0  0  0  0  0  0  0  0  0
   58.9060   30.0940   49.1750 C   0  0  0  0  0  0  0  0  0  0  0  0
   58.0357   29.7556   48.5936 H   0  0  0  0  0  0  0  0  0  0  0  0
   58.8880   31.3550   49.7810 C   0  0  0  0  0  0  0  0  0  0  0  0
   57.9992   31.9966   49.6897 H   0  0  0  0  0  0  0  0  0  0  0  0
   59.9990   31.7990   50.5020 C   0  0  0  0  0  0  0  0  0  0  0  0
   59.9836   32.7888   50.9817 H   0  0  0  0  0  0  0  0  0  0  0  0
   61.1300   30.9860   50.6140 C   0  0  0  0  0  0  0  0  0  0  0  0
   62.0062   31.3397   51.1772 H   0  0  0  0  0  0  0  0  0  0  0  0
   61.1510   29.7240   50.0120 C   0  0  0  0  0  0  0  0  0  0  0  0
   62.0486   29.0931   50.0919 H   0  0  0  0  0  0  0  0  0  0  0  0
   58.0710   27.7110   47.3430 N   0  0  0  0  0  0  0  0  0  0  0  0
   57.7300   27.4020   46.0620 C   0  0  0  0  0  0  0  0  0  0  0  0
   56.3010   27.3300   45.6260 C   0  0  0  0  0  0  0  0  0  0  0  0
   55.6799   26.9741   46.4612 H   0  0  0  0  0  0  0  0  0  0  0  0
   56.2096   26.6334   44.7796 H   0  0  0  0  0  0  0  0  0  0  0  0
   55.8530   28.6540   45.2170 N   0  0  0  0  0  0  0  0  0  0  0  0
   56.5480   29.4890   44.2830 C   0  0  0  0  0  0  0  0  0  0  0  0
   57.1460   28.9450   43.3160 O   0  0  0  0  0  0  0  0  0  0  0  0
   56.6320   30.9840   44.4810 C   0  0  0  0  0  0  0  0  0  0  0  0
   55.7881   31.3069   45.1083 H   0  0  0  0  0  0  0  0  0  0  0  0
   56.5969   31.4600   43.4899 H   0  0  0  0  0  0  0  0  0  0  0  0
   57.9200   31.3950   45.1490 C   0  0  0  0  0  0  0  0  0  0  0  0
   58.1310   32.7300   45.5230 C   0  0  0  0  0  0  0  0  0  0  0  0
   57.3644   33.4876   45.3031 H   0  0  0  0  0  0  0  0  0  0  0  0
   59.3110   33.1030   46.1740 C   0  0  0  0  0  0  0  0  0  0  0  0
   59.4660   34.1522   46.4657 H   0  0  0  0  0  0  0  0  0  0  0  0
   60.3000   32.1460   46.4580 C   0  0  0  0  0  0  0  0  0  0  0  0
   61.5130   32.4950   47.1500 N   0  0  0  0  0  0  0  0  0  0  0  0
   62.4080   32.1080   46.7790 H   0  0  0  0  0  0  0  0  0  0  0  0
   61.5770   33.4350   48.2380 C   0  0  0  0  0  0  0  0  0  0  0  0
   60.6040   34.2010   48.4700 O   0  0  0  0  0  0  0  0  0  0  0  0
   62.7620   33.5360   49.0460 N   0  0  0  0  0  0  0  0  0  0  0  0
   64.0260   32.8590   48.7510 C   0  0  0  0  0  0  0  0  0  0  0  0
   63.8898   31.7683   48.7077 H   0  0  0  0  0  0  0  0  0  0  0  0
   64.4514   33.1399   47.7763 H   0  0  0  0  0  0  0  0  0  0  0  0
   64.8850   33.2440   49.8970 C   0  0  0  0  0  0  0  0  0  0  0  0
   66.2090   32.8770   50.1330 C   0  0  0  0  0  0  0  0  0  0  0  0
   66.7460   32.2269   49.4266 H   0  0  0  0  0  0  0  0  0  0  0  0
   66.8430   33.3550   51.2920 C   0  0  0  0  0  0  0  0  0  0  0  0
   67.8872   33.0771   51.4977 H   0  0  0  0  0  0  0  0  0  0  0  0
   66.1450   34.1940   52.1990 C   0  0  0  0  0  0  0  0  0  0  0  0
   66.7390   34.6920   53.3670 O   0  0  0  0  0  0  0  0  0  0  0  0
   67.2310   36.0200   53.5160 C   0  0  0  0  0  0  0  0  0  0  0  0
   67.3200   36.2602   54.5858 H   0  0  0  0  0  0  0  0  0  0  0  0
   68.2187   36.1008   53.0387 H   0  0  0  0  0  0  0  0  0  0  0  0
   66.5343   36.7248   53.0387 H   0  0  0  0  0  0  0  0  0  0  0  0
   64.8110   34.5470   51.9260 C   0  0  0  0  0  0  0  0  0  0  0  0
   64.2537   35.1978   52.6159 H   0  0  0  0  0  0  0  0  0  0  0  0
   64.2050   34.0600   50.7680 C   0  0  0  0  0  0  0  0  0  0  0  0
   62.8200   34.2990   50.2940 C   0  0  0  0  0  0  0  0  0  0  0  0
   62.0836   33.9250   51.0205 H   0  0  0  0  0  0  0  0  0  0  0  0
   62.5856   35.3655   50.1610 H   0  0  0  0  0  0  0  0  0  0  0  0
   60.0710   30.8050   46.1120 C   0  0  0  0  0  0  0  0  0  0  0  0
   60.8253   30.0418   46.3541 H   0  0  0  0  0  0  0  0  0  0  0  0
   58.8910   30.4330   45.4620 C   0  0  0  0  0  0  0  0  0  0  0  0
   58.7230   29.3794   45.1944 H   0  0  0  0  0  0  0  0  0  0  0  0
  1  2  1  0
  2  3  1  0
  3  4  1  0
  4  5  2  0
  5  6  1  0
  6  7  2  0
  7  8  1  0
  7  9  1  0
  9 10  1  0
  9 11  2  0
 11 12  1  0
 11 13  1  0
 13 14  1  0
 13 15  2  0
 15 16  1  0
  4 17  1  0
 17 18  1  0
 18 19  1  0
 19 20  1  0
 19 21  1  0
 19 22  1  0
 22 23  1  0
 23 24  2  0
 23 25  1  0
 25 26  1  0
 25 27  1  0
 25 28  1  0
 28 29  2  0
 29 30  1  0
 29 31  1  0
 31 32  1  0
 31 33  2  0
 33 34  1  0
 34 35  1  0
 34 36  1  0
 36 37  2  0
 36 38  1  0
 38 39  1  0
 39 40  1  0
 39 41  1  0
 39 42  1  0
 42 43  2  0
 43 44  1  0
 43 45  1  0
 45 46  1  0
 45 47  2  0
 47 48  1  0
 48 49  1  0
 49 50  1  0
 49 51  1  0
 49 52  1  0
 47 53  1  0
 53 54  1  0
 53 55  2  0
 55 56  1  0
 56 57  1  0
 56 58  1  0
 33 59  1  0
 59 60  1  0
 59 61  2  0
 61 62  1  0
 18  2  2  0
 61 28  1  0
 15  6  1  0
 56 38  1  0
 55 42  1  0
M  CHG  2  17  -1  22  -1
M  END
>  <UniqueID>  (21) 
21

>  <SMILES>  (21) 
COc1ccc2c(c1)CN(C(=O)Nc1ccc(CC(=O)[N-]Cc3cs/c(=N/c4ccccc4)[n-]3)cc1)C2

>  <Energy>  (21) 
112.40820501469807

>  <Genealogy>  (21) 
COc1ccc2c(c1)CN(C(=O)Nc1ccc(CC(=O)[N-]Cc3csc(=Nc4ccccc4)[n-]3)cc1)C2 (protonated)
COc1ccc2c(c1)CN(C(=O)Nc1ccc(CC(=O)[N-]Cc3cs/c(=N/c4ccccc4)[n-]3)cc1)C2 (cis-trans isomerization)
COc1ccc2c(c1)CN(C(=O)Nc1ccc(CC(=O)[N-]Cc3cs/c(=N/c4ccccc4)[n-]3)cc1)C2 (3D coordinates assigned)
COc1ccc2c(c1)CN(C(=O)Nc1ccc(CC(=O)[N-]Cc3cs/c(=N/c4ccccc4)[n-]3)cc1)C2 (nonaromatic ring conformer: 112.40820501469807 kcal/mol)

>  <smiles>  (21) 
COc1ccc2c(c1)CN(C(=O)Nc1ccc(CC(=O)NCc3csc(=Nc4ccccc4)[nH]3)cc1)C2

>  <score_type>  (21) 
oracle

>  <origin>  (21) 
adg

>  <m_score__min__energy>  (21) 
-12.789999999999999

>  <m_primary>  (21) 
energy

$$$$
21:0
     RDKit          3D

 55 58  0  0  1  0  0  0  0  0999 V2000
   65.4820   32.8060   49.7760 C   0  0  0  0  0  0  0  0  0  0  0  0
   64.3190   32.0260   49.3800 N   0  0  0  0  0  0  0  0  0  0  0  0
   63.4920   32.5630   48.5560 C   0  0  0  0  0  0  0  0  0  0  0  0
   62.1170   32.4150   48.6670 C   0  0  0  0  0  0  0  0  0  0  0  0
   61.2730   33.0260   47.7420 C   0  0  0  0  0  0  0  0  0  0  0  0
   59.8510   32.8880   47.8120 N   0  0  0  0  0  0  0  0  0  0  0  0
   59.0320   32.8470   46.6460 C   0  0  0  0  0  0  0  0  0  0  0  0
   58.4430   31.6900   46.1800 C   0  0  0  0  0  0  0  0  0  0  0  0
   57.6650   31.7370   45.0590 C   0  0  0  0  0  0  0  0  0  0  0  0
   57.0050   30.6030   44.4810 C   0  0  0  0  0  0  0  0  0  0  0  0
   55.7330   30.5540   44.5110 O   0  0  0  0  0  0  0  0  0  0  0  0
   57.6610   29.5000   43.8640 N   0  0  0  0  0  0  0  0  0  0  0  0
   58.1990   28.5230   44.5450 C   0  0  0  0  0  0  0  0  0  0  0  0
   59.5320   28.6220   44.9050 C   0  0  0  0  0  0  0  0  0  0  0  0
   60.1680   27.6100   45.6300 C   0  0  0  0  0  0  0  0  0  0  0  0
   59.3970   26.5140   45.9650 C   0  0  0  0  0  0  0  0  0  0  0  0
   58.0660   26.4320   45.5960 C   0  0  0  0  0  0  0  0  0  0  0  0
   57.3440   25.2670   45.9790 N   0  0  0  0  0  0  0  0  0  0  0  0
   57.8410   23.9260   46.2370 C   0  0  0  0  0  0  0  0  0  0  0  0
   56.6020   23.0740   46.0290 C   0  0  0  0  0  0  0  0  0  0  0  0
   55.4850   23.9420   46.5860 C   0  0  0  0  0  0  0  0  0  0  0  0
   55.9180   25.2940   46.1670 C   0  0  0  0  0  0  0  0  0  0  0  0
   55.1590   26.3010   46.0040 O   0  0  0  0  0  0  0  0  0  0  0  0
   57.4900   27.4390   44.8910 N   0  0  0  0  0  0  0  0  0  0  0  0
   57.4920   32.9690   44.4180 C   0  0  0  0  0  0  0  0  0  0  0  0
   58.0750   34.1220   44.8760 C   0  0  0  0  0  0  0  0  0  0  0  0
   58.8540   34.0750   45.9980 C   0  0  0  0  0  0  0  0  0  0  0  0
   59.4430   35.2410   46.4630 O   0  0  0  0  0  0  0  0  0  0  0  0
   60.0160   36.2400   45.6750 C   0  0  0  0  0  0  0  0  0  0  0  0
   61.8720   33.7470   46.7650 N   0  0  0  0  0  0  0  0  0  0  0  0
   63.2090   33.8790   46.6720 C   0  0  0  0  0  0  0  0  0  0  0  0
   64.0370   33.3010   47.5500 N   0  0  0  0  0  0  0  0  0  0  0  0
   65.5407   32.8453   50.8737 H   0  0  0  0  0  0  0  0  0  0  0  0
   66.3925   32.3352   49.3768 H   0  0  0  0  0  0  0  0  0  0  0  0
   65.3920   33.8270   49.3768 H   0  0  0  0  0  0  0  0  0  0  0  0
   61.6930   31.8150   49.4857 H   0  0  0  0  0  0  0  0  0  0  0  0
   59.4340   32.8190   48.7690 H   0  0  0  0  0  0  0  0  0  0  0  0
   58.5988   30.7373   46.7072 H   0  0  0  0  0  0  0  0  0  0  0  0
   60.1030   29.5161   44.6144 H   0  0  0  0  0  0  0  0  0  0  0  0
   61.2270   27.6827   45.9186 H   0  0  0  0  0  0  0  0  0  0  0  0
   59.8500   25.6903   46.5363 H   0  0  0  0  0  0  0  0  0  0  0  0
   58.6357   23.6527   45.5273 H   0  0  0  0  0  0  0  0  0  0  0  0
   58.2931   23.8087   47.2329 H   0  0  0  0  0  0  0  0  0  0  0  0
   56.4428   22.8637   44.9611 H   0  0  0  0  0  0  0  0  0  0  0  0
   56.6681   22.0906   46.5175 H   0  0  0  0  0  0  0  0  0  0  0  0
   54.5131   23.6773   46.1439 H   0  0  0  0  0  0  0  0  0  0  0  0
   55.3367   23.8369   47.6709 H   0  0  0  0  0  0  0  0  0  0  0  0
   56.4920   27.3840   44.6130 H   0  0  0  0  0  0  0  0  0  0  0  0
   56.8660   33.0137   43.5146 H   0  0  0  0  0  0  0  0  0  0  0  0
   57.9178   35.0735   44.3469 H   0  0  0  0  0  0  0  0  0  0  0  0
   60.4579   37.0105   46.3239 H   0  0  0  0  0  0  0  0  0  0  0  0
   60.8000   35.8016   45.0400 H   0  0  0  0  0  0  0  0  0  0  0  0
   59.2418   36.6954   45.0400 H   0  0  0  0  0  0  0  0  0  0  0  0
   61.3130   34.2330   46.0250 H   0  0  0  0  0  0  0  0  0  0  0  0
   63.6318   34.4782   45.8521 H   0  0  0  0  0  0  0  0  0  0  0  0
  1  2  1  0
  2  3  2  0
  3  4  1  0
  4  5  2  0
  5  6  1  0
  6  7  1  0
  7  8  2  0
  8  9  1  0
  9 10  1  0
 10 11  2  0
 10 12  1  0
 12 13  2  0
 13 14  1  0
 14 15  2  0
 15 16  1  0
 16 17  2  0
 17 18  1  0
 18 19  1  0
 19 20  1  0
 20 21  1  0
 21 22  1  0
 22 23  2  0
 17 24  1  0
  9 25  2  0
 25 26  1  0
 26 27  2  0
 27 28  1  0
 28 29  1  0
  5 30  1  0
 30 31  1  0
 31 32  2  0
 32  3  1  0
 27  7  1  0
 24 13  1  0
 22 18  1  0
  1 33  1  0
  1 34  1  0
  1 35  1  0
  4 36  1  0
  6 37  1  0
  8 38  1  0
 14 39  1  0
 15 40  1  0
 16 41  1  0
 19 42  1  0
 19 43  1  0
 20 44  1  0
 20 45  1  0
 21 46  1  0
 21 47  1  0
 24 48  1  0
 25 49  1  0
 26 50  1  0
 29 51  1  0
 29 52  1  0
 29 53  1  0
 30 54  1  0
 31 55  1  0
M  END
>  <smiles>  (22) 
CN=c1cc(Nc2cc(C(=O)N=c3cccc(N4CCCC4=O)[nH]3)ccc2OC)[nH]cn1

>  <score_type>  (22) 
oracle

>  <origin>  (22) 
adg

>  <m_score__min__energy>  (22) 
-8.9499999999999993

>  <m_primary>  (22) 
energy

$$$$
22:0
     RDKit          3D

 43 45  0  0  0  0  0  0  0  0999 V2000
   63.3600   33.1480   47.0470 C   0  0  0  0  0  0  0  0  0  0  0  0
   62.5790   31.9590   47.0770 O   0  0  0  0  0  0  0  0  0  0  0  0
   61.3960   31.8070   47.8160 C   0  0  0  0  0  0  0  0  0  0  0  0
   61.0650   32.6520   48.8930 C   0  0  0  0  0  0  0  0  0  0  0  0
   59.8610   32.4780   49.5780 C   0  0  0  0  0  0  0  0  0  0  0  0
   58.9820   31.4560   49.2060 C   0  0  0  0  0  0  0  0  0  0  0  0
   59.3140   30.5880   48.1510 C   0  0  0  0  0  0  0  0  0  0  0  0
   58.4140   29.5680   47.7000 N   0  0  0  0  0  0  0  0  0  0  0  0
   58.7480   28.4840   46.8270 C   0  0  0  0  0  0  0  0  0  0  0  0
   59.8550   27.8910   46.9350 O   0  0  0  0  0  0  0  0  0  0  0  0
   57.7460   28.0300   45.8120 C   0  0  0  0  0  0  0  0  0  0  0  0
   57.4550   29.1400   44.9060 N   0  0  0  0  0  0  0  0  0  0  0  0
   58.3180   30.0850   44.4970 C   0  0  0  0  0  0  0  0  0  0  0  0
   59.6960   30.0200   44.6900 O   0  0  0  0  0  0  0  0  0  0  0  0
   57.6090   31.1220   43.9220 C   0  0  0  0  0  0  0  0  0  0  0  0
   58.1510   32.4660   43.5390 C   0  0  0  0  0  0  0  0  0  0  0  0
   58.4020   33.2840   44.7790 C   0  0  0  0  0  0  0  0  0  0  0  0
   59.4490   34.2230   44.8200 C   0  0  0  0  0  0  0  0  0  0  0  0
   59.7080   34.9400   45.9920 C   0  0  0  0  0  0  0  0  0  0  0  0
   58.9270   34.7280   47.1310 C   0  0  0  0  0  0  0  0  0  0  0  0
   57.8900   33.7930   47.1020 C   0  0  0  0  0  0  0  0  0  0  0  0
   57.6270   33.0720   45.9330 C   0  0  0  0  0  0  0  0  0  0  0  0
   56.2880   30.8470   43.9900 N   0  0  0  0  0  0  0  0  0  0  0  0
   56.2410   29.6400   44.5920 C   0  0  0  0  0  0  0  0  0  0  0  0
   55.1580   29.0610   44.8750 O   0  0  0  0  0  0  0  0  0  0  0  0
   60.5150   30.7810   47.4570 C   0  0  0  0  0  0  0  0  0  0  0  0
   63.5733   33.4727   48.0761 H   0  0  0  0  0  0  0  0  0  0  0  0
   64.3059   32.9522   46.5208 H   0  0  0  0  0  0  0  0  0  0  0  0
   62.8046   33.9384   46.5208 H   0  0  0  0  0  0  0  0  0  0  0  0
   61.7573   33.4516   49.1954 H   0  0  0  0  0  0  0  0  0  0  0  0
   59.6031   33.1466   50.4125 H   0  0  0  0  0  0  0  0  0  0  0  0
   58.0285   31.3309   49.7401 H   0  0  0  0  0  0  0  0  0  0  0  0
   58.1562   27.1844   45.2404 H   0  0  0  0  0  0  0  0  0  0  0  0
   56.8230   27.7085   46.3167 H   0  0  0  0  0  0  0  0  0  0  0  0
   60.1010   29.5080   45.4630 H   0  0  0  0  0  0  0  0  0  0  0  0
   59.0948   32.3365   42.9890 H   0  0  0  0  0  0  0  0  0  0  0  0
   57.4204   32.9854   42.9014 H   0  0  0  0  0  0  0  0  0  0  0  0
   60.0666   34.3938   43.9259 H   0  0  0  0  0  0  0  0  0  0  0  0
   60.5283   35.6725   46.0174 H   0  0  0  0  0  0  0  0  0  0  0  0
   59.1289   35.2974   48.0503 H   0  0  0  0  0  0  0  0  0  0  0  0
   57.2788   33.6233   48.0007 H   0  0  0  0  0  0  0  0  0  0  0  0
   56.8101   32.3356   45.9161 H   0  0  0  0  0  0  0  0  0  0  0  0
   60.7693   30.1167   46.6179 H   0  0  0  0  0  0  0  0  0  0  0  0
  1  2  1  0
  2  3  1  0
  3  4  2  0
  4  5  1  0
  5  6  2  0
  6  7  1  0
  7  8  1  0
  8  9  1  0
  9 10  2  0
  9 11  1  0
 11 12  1  0
 12 13  1  0
 13 14  1  0
 13 15  2  0
 15 16  1  0
 16 17  1  0
 17 18  2  0
 18 19  1  0
 19 20  2  0
 20 21  1  0
 21 22  2  0
 15 23  1  0
 23 24  1  0
 24 25  2  0
  7 26  2  0
 26  3  1  0
 24 12  1  0
 22 17  1  0
  1 27  1  0
  1 28  1  0
  1 29  1  0
  4 30  1  0
  5 31  1  0
  6 32  1  0
 11 33  1  0
 11 34  1  0
 14 35  1  0
 16 36  1  0
 16 37  1  0
 18 38  1  0
 19 39  1  0
 20 40  1  0
 21 41  1  0
 22 42  1  0
 26 43  1  0
M  CHG  2   8  -1  23  -1
M  END
>  <UniqueID>  (23) 
22

>  <SMILES>  (23) 
COc1cccc([N-]C(=O)Cn2c(O)c(Cc3ccccc3)[n-]c2=O)c1

>  <Energy>  (23) 
73.43888745263693

>  <Genealogy>  (23) 
COc1cccc([N-]C(=O)Cn2c(O)c(Cc3ccccc3)[n-]c2=O)c1 (protonated)
COc1cccc([N-]C(=O)Cn2c(O)c(Cc3ccccc3)[n-]c2=O)c1 (3D coordinates assigned)
COc1cccc([N-]C(=O)Cn2c(O)c(Cc3ccccc3)[n-]c2=O)c1 (optimized conformer: 73.43888745263693 kcal/mol)

>  <smiles>  (23) 
COc1cccc(NC(=O)Cn2c(O)c(Cc3ccccc3)[nH]c2=O)c1

>  <score_type>  (23) 
oracle

>  <origin>  (23) 
adg

>  <m_score__min__energy>  (23) 
-11.449999999999999

>  <m_primary>  (23) 
energy

$$$$
23:0
     RDKit          3D

 38 40  0  0  0  0  0  0  0  0999 V2000
   58.5210   30.6650   47.5490 O   0  0  0  0  0  0  0  0  0  0  0  0
   58.1330   31.5310   46.7210 C   0  0  0  0  0  0  0  0  0  0  0  0
   57.5790   31.1010   45.4010 C   0  0  0  0  0  0  0  0  0  0  0  0
   57.9490   29.7110   45.1310 N   0  0  0  0  0  0  0  0  0  0  0  0
   57.1230   28.6790   44.8840 C   0  0  0  0  0  0  0  0  0  0  0  0
   55.7350   28.7770   44.8490 O   0  0  0  0  0  0  0  0  0  0  0  0
   57.8840   27.5480   44.6590 C   0  0  0  0  0  0  0  0  0  0  0  0
   57.3830   26.1860   44.2870 C   0  0  0  0  0  0  0  0  0  0  0  0
   56.9360   25.4450   45.5090 C   0  0  0  0  0  0  0  0  0  0  0  0
   57.6140   24.4260   46.0670 N   0  0  0  0  0  0  0  0  0  0  0  0
   56.8510   24.0930   47.1320 C   0  0  0  0  0  0  0  0  0  0  0  0
   57.1510   23.1560   47.9150 O   0  0  0  0  0  0  0  0  0  0  0  0
   55.7360   24.8420   47.2880 N   0  0  0  0  0  0  0  0  0  0  0  0
   55.8080   25.6930   46.2530 C   0  0  0  0  0  0  0  0  0  0  0  0
   54.8620   26.6770   45.9930 O   0  0  0  0  0  0  0  0  0  0  0  0
   59.1930   27.8640   44.7410 N   0  0  0  0  0  0  0  0  0  0  0  0
   59.1880   29.1840   45.0320 C   0  0  0  0  0  0  0  0  0  0  0  0
   60.2430   29.8530   45.1880 O   0  0  0  0  0  0  0  0  0  0  0  0
   58.2470   32.9250   47.0200 N   0  0  0  0  0  0  0  0  0  0  0  0
   59.1280   33.4520   48.0550 C   0  0  0  0  0  0  0  0  0  0  0  0
   60.5620   33.2070   47.6710 C   0  0  0  0  0  0  0  0  0  0  0  0
   61.2840   32.1710   48.2830 C   0  0  0  0  0  0  0  0  0  0  0  0
   62.6320   31.9700   47.9690 C   0  0  0  0  0  0  0  0  0  0  0  0
   63.2680   32.8060   47.0490 C   0  0  0  0  0  0  0  0  0  0  0  0
   62.5600   33.8500   46.4460 C   0  0  0  0  0  0  0  0  0  0  0  0
   61.2120   34.0540   46.7580 C   0  0  0  0  0  0  0  0  0  0  0  0
   56.4827   31.1889   45.4201 H   0  0  0  0  0  0  0  0  0  0  0  0
   57.9914   31.7444   44.6098 H   0  0  0  0  0  0  0  0  0  0  0  0
   55.1430   27.9760   45.0320 H   0  0  0  0  0  0  0  0  0  0  0  0
   56.5348   26.2881   43.5940 H   0  0  0  0  0  0  0  0  0  0  0  0
   58.1973   25.6243   43.8058 H   0  0  0  0  0  0  0  0  0  0  0  0
   58.9581   34.5333   48.1645 H   0  0  0  0  0  0  0  0  0  0  0  0
   58.9140   32.9469   49.0084 H   0  0  0  0  0  0  0  0  0  0  0  0
   60.7877   31.5143   49.0127 H   0  0  0  0  0  0  0  0  0  0  0  0
   63.1917   31.1526   48.4472 H   0  0  0  0  0  0  0  0  0  0  0  0
   64.3266   32.6431   46.7985 H   0  0  0  0  0  0  0  0  0  0  0  0
   63.0636   34.5114   45.7256 H   0  0  0  0  0  0  0  0  0  0  0  0
   60.6591   34.8802   46.2871 H   0  0  0  0  0  0  0  0  0  0  0  0
  1  2  2  0
  2  3  1  0
  3  4  1  0
  4  5  1  0
  5  6  1  0
  5  7  2  0
  7  8  1  0
  8  9  1  0
  9 10  1  0
 10 11  1  0
 11 12  2  0
 11 13  1  0
 13 14  1  0
 14 15  1  0
  7 16  1  0
 16 17  1  0
 17 18  2  0
  2 19  1  0
 19 20  1  0
 20 21  1  0
 21 22  2  0
 22 23  1  0
 23 24  2  0
 24 25  1  0
 25 26  2  0
 17  4  1  0
 26 21  1  0
 14  9  2  0
  3 27  1  0
  3 28  1  0
  6 29  1  0
  8 30  1  0
  8 31  1  0
 20 32  1  0
 20 33  1  0
 22 34  1  0
 23 35  1  0
 24 36  1  0
 25 37  1  0
 26 38  1  0
M  CHG  5  10  -1  13  -1  15  -1  16  -1  19  -1
M  END
>  <UniqueID>  (24) 
23

>  <SMILES>  (24) 
O=C(Cn1c(O)c(Cc2[n-]c(=O)[n-]c2[O-])[n-]c1=O)[N-]Cc1ccccc1

>  <Energy>  (24) 
92.62430541520241

>  <Genealogy>  (24) 
O=C(Cn1c(O)c(Cc2[n-]c(=O)[n-]c2[O-])[n-]c1=O)[N-]Cc1ccccc1 (protonated)
O=C(Cn1c(O)c(Cc2[n-]c(=O)[n-]c2[O-])[n-]c1=O)[N-]Cc1ccccc1 (3D coordinates assigned)
O=C(Cn1c(O)c(Cc2[n-]c(=O)[n-]c2[O-])[n-]c1=O)[N-]Cc1ccccc1 (optimized conformer: 92.62430541520241 kcal/mol)

>  <smiles>  (24) 
O=C(Cn1c(O)c(Cc2[nH]c(=O)[nH]c2O)[nH]c1=O)NCc1ccccc1

>  <score_type>  (24) 
oracle

>  <origin>  (24) 
adg

>  <m_score__min__energy>  (24) 
-17.890000000000001

>  <m_primary>  (24) 
energy

$$$$
24:0
     RDKit          3D

 46 48  0  0  1  0  0  0  0  0999 V2000
   60.3800   34.5070   48.8870 C   0  0  0  0  0  0  0  0  0  0  0  0
   59.2450   34.6230   48.0840 O   0  0  0  0  0  0  0  0  0  0  0  0
   58.8830   33.7620   47.0660 C   0  0  0  0  0  0  0  0  0  0  0  0
   58.8730   34.1050   45.7320 C   0  0  0  0  0  0  0  0  0  0  0  0
   58.4950   33.1770   44.7570 C   0  0  0  0  0  0  0  0  0  0  0  0
   58.1260   31.9050   45.1190 C   0  0  0  0  0  0  0  0  0  0  0  0
   57.7100   30.8690   44.1120 C   0  0  0  0  0  0  0  0  0  0  0  0
   56.8980   29.8970   44.7980 N   0  0  0  0  0  0  0  0  0  0  0  0
   57.1350   28.6290   44.8010 C   0  0  0  0  0  0  0  0  0  0  0  0
   56.6410   27.8680   45.8470 C   0  0  0  0  0  0  0  0  0  0  0  0
   56.9120   26.5160   45.8190 C   0  0  0  0  0  0  0  0  0  0  0  0
   57.6400   25.9290   44.8060 C   0  0  0  0  0  0  0  0  0  0  0  0
   57.9390   24.5110   44.7340 C   0  0  0  0  0  0  0  0  0  0  0  0
   59.1680   24.1370   45.1970 N   0  0  0  0  0  0  0  0  0  0  0  0
   59.5490   22.8470   45.1790 C   0  0  0  0  0  0  0  0  0  0  0  0
   60.6960   22.5490   45.6180 O   0  0  0  0  0  0  0  0  0  0  0  0
   58.6890   21.9360   44.6920 N   0  0  0  0  0  0  0  0  0  0  0  0
   57.4630   22.2510   44.2220 C   0  0  0  0  0  0  0  0  0  0  0  0
   56.6460   21.1500   43.7360 C   0  0  0  0  0  0  0  0  0  0  0  0
   56.0740   21.2610   42.6190 O   0  0  0  0  0  0  0  0  0  0  0  0
   56.4470   19.9620   44.4180 O   0  0  0  0  0  0  0  0  0  0  0  0
   57.0780   23.5590   44.2400 C   0  0  0  0  0  0  0  0  0  0  0  0
   55.7480   23.9480   43.7060 C   0  0  0  0  0  0  0  0  0  0  0  0
   58.1140   26.7270   43.7840 C   0  0  0  0  0  0  0  0  0  0  0  0
   57.8480   28.0510   43.8100 N   0  0  0  0  0  0  0  0  0  0  0  0
   58.1430   31.5790   46.4730 C   0  0  0  0  0  0  0  0  0  0  0  0
   58.5120   32.4770   47.4420 C   0  0  0  0  0  0  0  0  0  0  0  0
   58.4990   32.0590   48.7650 O   0  0  0  0  0  0  0  0  0  0  0  0
   60.0845   34.5372   49.9461 H   0  0  0  0  0  0  0  0  0  0  0  0
   60.8839   33.5527   48.6740 H   0  0  0  0  0  0  0  0  0  0  0  0
   61.0665   35.3397   48.6740 H   0  0  0  0  0  0  0  0  0  0  0  0
   59.1660   35.1214   45.4301 H   0  0  0  0  0  0  0  0  0  0  0  0
   58.4932   33.4670   43.6959 H   0  0  0  0  0  0  0  0  0  0  0  0
   57.1293   31.3412   43.3059 H   0  0  0  0  0  0  0  0  0  0  0  0
   58.5926   30.3886   43.6645 H   0  0  0  0  0  0  0  0  0  0  0  0
   56.0590   28.3211   46.6631 H   0  0  0  0  0  0  0  0  0  0  0  0
   56.5334   25.8828   46.6349 H   0  0  0  0  0  0  0  0  0  0  0  0
   59.0480   20.9360   44.7050 H   0  0  0  0  0  0  0  0  0  0  0  0
   56.9740   19.1230   44.2180 H   0  0  0  0  0  0  0  0  0  0  0  0
   55.0617   24.1487   44.5419 H   0  0  0  0  0  0  0  0  0  0  0  0
   55.8507   24.8537   43.0903 H   0  0  0  0  0  0  0  0  0  0  0  0
   55.3465   23.1297   43.0903 H   0  0  0  0  0  0  0  0  0  0  0  0
   58.6994   26.2912   42.9610 H   0  0  0  0  0  0  0  0  0  0  0  0
   58.1990   28.6780   43.0430 H   0  0  0  0  0  0  0  0  0  0  0  0
   57.8495   30.5633   46.7767 H   0  0  0  0  0  0  0  0  0  0  0  0
   58.7640   32.7290   49.4840 H   0  0  0  0  0  0  0  0  0  0  0  0
  1  2  1  0
  2  3  1  0
  3  4  2  0
  4  5  1  0
  5  6  2  0
  6  7  1  0
  7  8  1  0
  8  9  2  0
  9 10  1  0
 10 11  2  0
 11 12  1  0
 12 13  1  0
 13 14  2  0
 14 15  1  0
 15 16  2  0
 15 17  1  0
 17 18  1  0
 18 19  1  0
 19 20  2  0
 19 21  1  0
 18 22  2  0
 22 23  1  0
 12 24  2  0
 24 25  1  0
  6 26  1  0
 26 27  2  0
 27 28  1  0
 27  3  1  0
 25  9  1  0
 22 13  1  0
  1 29  1  0
  1 30  1  0
  1 31  1  0
  4 32  1  0
  5 33  1  0
  7 34  1  0
  7 35  1  0
 10 36  1  0
 11 37  1  0
 17 38  1  0
 21 39  1  0
 23 40  1  0
 23 41  1  0
 23 42  1  0
 24 43  1  0
 25 44  1  0
 26 45  1  0
 28 46  1  0
M  END
>  <smiles>  (25) 
COc1ccc(CN=c2ccc(-c3nc(=O)[nH]c(C(=O)O)c3C)c[nH]2)cc1O

>  <score_type>  (25) 
oracle

>  <origin>  (25) 
adg

>  <m_score__min__energy>  (25) 
-9.1099999999999994

>  <m_primary>  (25) 
energy

$$$$
25:0
     RDKit          3D

 49 51  0  0  0  0  0  0  0  0999 V2000
   55.1230   26.1790   46.0060 N   0  0  0  0  0  0  0  0  0  0  0  0
   56.8420   26.3100   45.9080 S   0  0  0  0  0  0  0  0  0  0  0  0
   57.4320   26.1820   47.2830 O   0  0  0  0  0  0  0  0  0  0  0  0
   57.3830   25.2040   45.0450 O   0  0  0  0  0  0  0  0  0  0  0  0
   57.2740   27.8720   45.2200 C   0  0  0  0  0  0  0  0  0  0  0  0
   56.2750   28.7950   44.8810 C   0  0  0  0  0  0  0  0  0  0  0  0
   56.6190   30.0420   44.3490 C   0  0  0  0  0  0  0  0  0  0  0  0
   57.9720   30.3860   44.1630 C   0  0  0  0  0  0  0  0  0  0  0  0
   58.3750   31.6270   43.6420 O   0  0  0  0  0  0  0  0  0  0  0  0
   57.6350   32.8430   43.7360 C   0  0  0  0  0  0  0  0  0  0  0  0
   57.8120   33.4650   45.0840 C   0  0  0  0  0  0  0  0  0  0  0  0
   58.0020   34.7080   45.1720 O   0  0  0  0  0  0  0  0  0  0  0  0
   57.8130   32.6340   46.2520 N   0  0  0  0  0  0  0  0  0  0  0  0
   58.9540   32.0550   46.9020 C   0  0  0  0  0  0  0  0  0  0  0  0
   58.8720   30.8590   47.6400 C   0  0  0  0  0  0  0  0  0  0  0  0
   60.0160   30.3220   48.2370 C   0  0  0  0  0  0  0  0  0  0  0  0
   61.2500   30.9590   48.0900 C   0  0  0  0  0  0  0  0  0  0  0  0
   61.3490   32.1350   47.3370 C   0  0  0  0  0  0  0  0  0  0  0  0
   62.9170   32.9150   47.1430 S   0  0  0  0  0  0  0  0  0  0  0  0
   62.8410   33.8440   45.9640 O   0  0  0  0  0  0  0  0  0  0  0  0
   63.9720   31.8780   46.8800 O   0  0  0  0  0  0  0  0  0  0  0  0
   63.2970   33.8090   48.6000 N   0  0  0  0  0  0  0  0  0  0  0  0
   62.1550   33.8350   49.5420 C   0  0  0  0  0  0  0  0  0  0  0  0
   62.3040   32.8160   50.6860 C   0  0  0  0  0  0  0  0  0  0  0  0
   62.9740   31.6630   50.2280 O   0  0  0  0  0  0  0  0  0  0  0  0
   64.3300   31.9620   49.9500 C   0  0  0  0  0  0  0  0  0  0  0  0
   64.5350   33.3170   49.2290 C   0  0  0  0  0  0  0  0  0  0  0  0
   60.2000   32.6760   46.7430 C   0  0  0  0  0  0  0  0  0  0  0  0
   58.9640   29.4590   44.5050 C   0  0  0  0  0  0  0  0  0  0  0  0
   58.6190   28.2110   45.0340 C   0  0  0  0  0  0  0  0  0  0  0  0
   54.7740   27.0650   46.4350 H   0  0  0  0  0  0  0  0  0  0  0  0
   55.2165   28.5377   45.0339 H   0  0  0  0  0  0  0  0  0  0  0  0
   55.8294   30.7571   44.0747 H   0  0  0  0  0  0  0  0  0  0  0  0
   57.9907   33.5429   42.9656 H   0  0  0  0  0  0  0  0  0  0  0  0
   56.5682   32.6209   43.5857 H   0  0  0  0  0  0  0  0  0  0  0  0
   57.9050   30.3457   47.7471 H   0  0  0  0  0  0  0  0  0  0  0  0
   59.9441   29.3948   48.8244 H   0  0  0  0  0  0  0  0  0  0  0  0
   62.1463   30.5357   48.5670 H   0  0  0  0  0  0  0  0  0  0  0  0
   62.0801   34.8429   49.9763 H   0  0  0  0  0  0  0  0  0  0  0  0
   61.2511   33.5676   48.9751 H   0  0  0  0  0  0  0  0  0  0  0  0
   62.8815   33.2706   51.5044 H   0  0  0  0  0  0  0  0  0  0  0  0
   61.3040   32.5309   51.0447 H   0  0  0  0  0  0  0  0  0  0  0  0
   64.8817   31.9882   50.9013 H   0  0  0  0  0  0  0  0  0  0  0  0
   64.6987   31.1786   49.2716 H   0  0  0  0  0  0  0  0  0  0  0  0
   64.8779   34.0603   49.9638 H   0  0  0  0  0  0  0  0  0  0  0  0
   65.2793   33.1654   48.4333 H   0  0  0  0  0  0  0  0  0  0  0  0
   60.2774   33.5969   46.1464 H   0  0  0  0  0  0  0  0  0  0  0  0
   60.0236   29.7143   44.3564 H   0  0  0  0  0  0  0  0  0  0  0  0
   59.4076   27.4935   45.3048 H   0  0  0  0  0  0  0  0  0  0  0  0
  1  2  1  0
  2  3  2  0
  2  4  2  0
  2  5  1  0
  5  6  2  0
  6  7  1  0
  7  8  2  0
  8  9  1  0
  9 10  1  0
 10 11  1  0
 11 12  2  0
 11 13  1  0
 13 14  1  0
 14 15  2  0
 15 16  1  0
 16 17  2  0
 17 18  1  0
 18 19  1  0
 19 20  2  0
 19 21  2  0
 19 22  1  0
 22 23  1  0
 23 24  1  0
 24 25  1  0
 25 26  1  0
 26 27  1  0
 18 28  2  0
  8 29  1  0
 29 30  2  0
 30  5  1  0
 28 14  1  0
 27 22  1  0
  1 31  1  0
  6 32  1  0
  7 33  1  0
 10 34  1  0
 10 35  1  0
 15 36  1  0
 16 37  1  0
 17 38  1  0
 23 39  1  0
 23 40  1  0
 24 41  1  0
 24 42  1  0
 26 43  1  0
 26 44  1  0
 27 45  1  0
 27 46  1  0
 28 47  1  0
 29 48  1  0
 30 49  1  0
M  CHG  2   1  -1  13  -1
M  END
>  <UniqueID>  (26) 
24

>  <SMILES>  (26) 
[NH-]S(=O)(=O)c1ccc(OCC(=O)[N-]c2cccc(S(=O)(=O)N3CCOCC3)c2)cc1

>  <Energy>  (26) 
63.49130892279093

>  <Genealogy>  (26) 
[NH-]S(=O)(=O)c1ccc(OCC(=O)[N-]c2cccc(S(=O)(=O)N3CCOCC3)c2)cc1 (protonated)
[NH-]S(=O)(=O)c1ccc(OCC(=O)[N-]c2cccc(S(=O)(=O)N3CCOCC3)c2)cc1 (3D coordinates assigned)
[NH-]S(=O)(=O)c1ccc(OCC(=O)[N-]c2cccc(S(=O)(=O)N3CCOCC3)c2)cc1 (nonaromatic ring conformer: 63.49130892279093 kcal/mol)

>  <smiles>  (26) 
NS(=O)(=O)c1ccc(OCC(=O)Nc2cccc(S(=O)(=O)N3CCOCC3)c2)cc1

>  <score_type>  (26) 
oracle

>  <origin>  (26) 
adg

>  <m_score__min__energy>  (26) 
-12.73

>  <m_primary>  (26) 
energy

$$$$
26:0
     RDKit          3D

 58 61  0  0  0  0  0  0  0  0999 V2000
   54.6760   20.8590   50.7770 C   0  0  0  0  0  0  0  0  0  0  0  0
   56.0970   20.5270   50.9710 N   0  0  0  0  0  0  0  0  0  0  0  0
   56.5320   19.4190   50.0800 C   0  0  0  0  0  0  0  0  0  0  0  0
   57.4100   19.8740   48.8990 C   0  0  0  0  0  0  0  0  0  0  0  0
   57.0190   21.2170   48.4620 N   0  0  0  0  0  0  0  0  0  0  0  0
   56.6500   21.4810   47.0950 C   0  0  0  0  0  0  0  0  0  0  0  0
   56.3250   20.4240   46.2290 C   0  0  0  0  0  0  0  0  0  0  0  0
   55.9600   20.6800   44.9070 C   0  0  0  0  0  0  0  0  0  0  0  0
   55.9050   21.9940   44.4320 C   0  0  0  0  0  0  0  0  0  0  0  0
   55.5510   22.2240   43.1070 O   0  0  0  0  0  0  0  0  0  0  0  0
   56.2040   23.0680   45.2920 C   0  0  0  0  0  0  0  0  0  0  0  0
   56.1840   24.4930   44.7900 C   0  0  0  0  0  0  0  0  0  0  0  0
   55.2790   25.3780   45.6110 C   0  0  0  0  0  0  0  0  0  0  0  0
   54.1380   24.9640   45.9520 O   0  0  0  0  0  0  0  0  0  0  0  0
   55.6530   26.7100   45.9840 N   0  0  0  0  0  0  0  0  0  0  0  0
   57.2480   27.3980   45.9480 S   0  0  0  0  0  0  0  0  0  0  0  0
   58.1660   26.4210   45.2700 O   0  0  0  0  0  0  0  0  0  0  0  0
   57.7720   27.6410   47.3350 O   0  0  0  0  0  0  0  0  0  0  0  0
   57.2140   28.9140   45.0510 C   0  0  0  0  0  0  0  0  0  0  0  0
   56.6750   28.9650   43.7580 C   0  0  0  0  0  0  0  0  0  0  0  0
   56.6570   30.1690   43.0540 C   0  0  0  0  0  0  0  0  0  0  0  0
   57.1760   31.3310   43.6320 C   0  0  0  0  0  0  0  0  0  0  0  0
   57.7160   31.2990   44.9300 C   0  0  0  0  0  0  0  0  0  0  0  0
   58.2690   32.5320   45.5470 C   0  0  0  0  0  0  0  0  0  0  0  0
   58.6810   33.6120   44.7430 C   0  0  0  0  0  0  0  0  0  0  0  0
   59.1870   34.7760   45.3270 C   0  0  0  0  0  0  0  0  0  0  0  0
   59.2910   34.8760   46.7170 C   0  0  0  0  0  0  0  0  0  0  0  0
   58.8930   33.8090   47.5240 C   0  0  0  0  0  0  0  0  0  0  0  0
   58.3820   32.6430   46.9460 C   0  0  0  0  0  0  0  0  0  0  0  0
   57.7290   30.0810   45.6330 C   0  0  0  0  0  0  0  0  0  0  0  0
   56.5840   22.8010   46.6180 C   0  0  0  0  0  0  0  0  0  0  0  0
   56.9990   22.2980   49.4540 C   0  0  0  0  0  0  0  0  0  0  0  0
   56.9590   21.7260   50.8820 C   0  0  0  0  0  0  0  0  0  0  0  0
   54.1890   20.9728   51.7567 H   0  0  0  0  0  0  0  0  0  0  0  0
   54.5929   21.8007   50.2147 H   0  0  0  0  0  0  0  0  0  0  0  0
   54.1843   20.0516   50.2147 H   0  0  0  0  0  0  0  0  0  0  0  0
   57.1058   18.6974   50.6800 H   0  0  0  0  0  0  0  0  0  0  0  0
   55.6202   18.9802   49.6487 H   0  0  0  0  0  0  0  0  0  0  0  0
   58.4637   19.8875   49.2144 H   0  0  0  0  0  0  0  0  0  0  0  0
   57.2758   19.1724   48.0624 H   0  0  0  0  0  0  0  0  0  0  0  0
   56.3585   19.3874   46.5956 H   0  0  0  0  0  0  0  0  0  0  0  0
   55.7143   19.8443   44.2352 H   0  0  0  0  0  0  0  0  0  0  0  0
   57.2063   24.8969   44.8319 H   0  0  0  0  0  0  0  0  0  0  0  0
   55.7979   24.4810   43.7600 H   0  0  0  0  0  0  0  0  0  0  0  0
   56.2654   28.0538   43.2977 H   0  0  0  0  0  0  0  0  0  0  0  0
   56.2326   30.2042   42.0398 H   0  0  0  0  0  0  0  0  0  0  0  0
   57.1620   32.2756   43.0685 H   0  0  0  0  0  0  0  0  0  0  0  0
   58.6040   33.5388   43.6481 H   0  0  0  0  0  0  0  0  0  0  0  0
   59.5043   35.6157   44.6912 H   0  0  0  0  0  0  0  0  0  0  0  0
   59.6862   35.7949   47.1747 H   0  0  0  0  0  0  0  0  0  0  0  0
   58.9816   33.8857   48.6177 H   0  0  0  0  0  0  0  0  0  0  0  0
   58.0664   31.8074   47.5880 H   0  0  0  0  0  0  0  0  0  0  0  0
   58.1474   30.0435   46.6496 H   0  0  0  0  0  0  0  0  0  0  0  0
   56.8328   23.6351   47.2906 H   0  0  0  0  0  0  0  0  0  0  0  0
   57.9037   22.9125   49.3365 H   0  0  0  0  0  0  0  0  0  0  0  0
   56.0986   22.9090   49.2927 H   0  0  0  0  0  0  0  0  0  0  0  0
   57.9807   21.4530   51.1847 H   0  0  0  0  0  0  0  0  0  0  0  0
   56.5416   22.4966   51.5468 H   0  0  0  0  0  0  0  0  0  0  0  0
  1  2  1  0
  2  3  1  0
  3  4  1  0
  4  5  1  0
  5  6  1  0
  6  7  2  0
  7  8  1  0
  8  9  2  0
  9 10  1  0
  9 11  1  0
 11 12  1  0
 12 13  1  0
 13 14  2  0
 13 15  1  0
 15 16  1  0
 16 17  2  0
 16 18  2  0
 16 19  1  0
 19 20  2  0
 20 21  1  0
 21 22  2  0
 22 23  1  0
 23 24  1  0
 24 25  2  0
 25 26  1  0
 26 27  2  0
 27 28  1  0
 28 29  2  0
 23 30  2  0
 11 31  2  0
  5 32  1  0
 32 33  1  0
 33  2  1  0
 31  6  1  0
 30 19  1  0
 29 24  1  0
  1 34  1  0
  1 35  1  0
  1 36  1  0
  3 37  1  0
  3 38  1  0
  4 39  1  0
  4 40  1  0
  7 41  1  0
  8 42  1  0
 12 43  1  0
 12 44  1  0
 20 45  1  0
 21 46  1  0
 22 47  1  0
 25 48  1  0
 26 49  1  0
 27 50  1  0
 28 51  1  0
 29 52  1  0
 30 53  1  0
 31 54  1  0
 32 55  1  0
 32 56  1  0
 33 57  1  0
 33 58  1  0
M  CHG  2  10  -1  15  -1
M  END
>  <UniqueID>  (27) 
25

>  <SMILES>  (27) 
CN1CCN(c2ccc([O-])c(CC(=O)[N-]S(=O)(=O)c3cccc(-c4ccccc4)c3)c2)CC1

>  <Energy>  (27) 
82.08650517883035

>  <Genealogy>  (27) 
CN1CCN(c2ccc([O-])c(CC(=O)[N-]S(=O)(=O)c3cccc(-c4ccccc4)c3)c2)CC1 (protonated)
CN1CCN(c2ccc([O-])c(CC(=O)[N-]S(=O)(=O)c3cccc(-c4ccccc4)c3)c2)CC1 (3D coordinates assigned)
CN1CCN(c2ccc([O-])c(CC(=O)[N-]S(=O)(=O)c3cccc(-c4ccccc4)c3)c2)CC1 (nonaromatic ring conformer: 82.08650517883035 kcal/mol)

>  <smiles>  (27) 
CN1CCN(c2ccc(O)c(CC(=O)NS(=O)(=O)c3cccc(-c4ccccc4)c3)c2)CC1

>  <score_type>  (27) 
oracle

>  <origin>  (27) 
adg

>  <m_score__min__energy>  (27) 
-13.1

>  <m_primary>  (27) 
energy

$$$$
27:0
     RDKit          3D

 46 48  0  0  0  0  0  0  0  0999 V2000
   64.7610   32.2370   49.8010 C   0  0  0  0  0  0  0  0  0  0  0  0
   63.7310   33.3350   49.5000 C   0  0  2  0  0  0  0  0  0  0  0  0
   63.5840   34.2680   50.7320 C   0  0  0  0  0  0  0  0  0  0  0  0
   62.5770   33.7050   51.7390 C   0  0  0  0  0  0  0  0  0  0  0  0
   61.2020   33.4510   51.0970 C   0  0  0  0  0  0  0  0  0  0  0  0
   61.2580   33.4360   49.5630 C   0  0  0  0  0  0  0  0  0  0  0  0
   62.4450   32.7000   49.0930 N   0  0  0  0  0  0  0  0  0  0  0  0
   62.3480   32.5100   47.3520 S   0  0  0  0  0  0  0  0  0  0  0  0
   63.4000   31.5350   46.9020 O   0  0  0  0  0  0  0  0  0  0  0  0
   62.6170   33.8220   46.6700 O   0  0  0  0  0  0  0  0  0  0  0  0
   60.7620   31.9140   46.8540 C   0  0  0  0  0  0  0  0  0  0  0  0
   59.6420   32.7530   46.9300 C   0  0  0  0  0  0  0  0  0  0  0  0
   58.3870   32.2930   46.5280 C   0  0  0  0  0  0  0  0  0  0  0  0
   58.2370   30.9880   46.0490 C   0  0  0  0  0  0  0  0  0  0  0  0
   57.0130   30.5510   45.6510 N   0  0  0  0  0  0  0  0  0  0  0  0
   56.8140   29.2910   45.1830 C   0  0  0  0  0  0  0  0  0  0  0  0
   55.5380   28.9080   44.7870 O   0  0  0  0  0  0  0  0  0  0  0  0
   57.8850   28.3860   45.1090 C   0  0  0  0  0  0  0  0  0  0  0  0
   57.6560   27.0280   44.5680 C   0  0  0  0  0  0  0  0  0  0  0  0
   57.3840   25.9410   45.3070 C   0  0  0  0  0  0  0  0  0  0  0  0
   56.2120   25.7760   46.1950 C   0  0  0  0  0  0  0  0  0  0  0  0
   55.1250   26.6960   46.1030 N   0  0  0  0  0  0  0  0  0  0  0  0
   56.1730   24.8600   47.0600 O   0  0  0  0  0  0  0  0  0  0  0  0
   59.1730   28.8200   45.4840 C   0  0  0  0  0  0  0  0  0  0  0  0
   60.1590   28.0400   45.3710 O   0  0  0  0  0  0  0  0  0  0  0  0
   59.3550   30.1280   45.9740 C   0  0  0  0  0  0  0  0  0  0  0  0
   60.6160   30.6010   46.3810 C   0  0  0  0  0  0  0  0  0  0  0  0
   64.8679   32.1231   50.8898 H   0  0  0  0  0  0  0  0  0  0  0  0
   64.4215   31.2861   49.3644 H   0  0  0  0  0  0  0  0  0  0  0  0
   65.7316   32.5151   49.3644 H   0  0  0  0  0  0  0  0  0  0  0  0
   64.0654   33.9657   48.6631 H   0  0  0  0  0  0  0  0  0  0  0  0
   64.5630   34.3701   51.2231 H   0  0  0  0  0  0  0  0  0  0  0  0
   63.2188   35.2460   50.3854 H   0  0  0  0  0  0  0  0  0  0  0  0
   62.9647   32.7552   52.1360 H   0  0  0  0  0  0  0  0  0  0  0  0
   62.4464   34.4470   52.5405 H   0  0  0  0  0  0  0  0  0  0  0  0
   60.8256   32.4777   51.4449 H   0  0  0  0  0  0  0  0  0  0  0  0
   60.5379   34.2750   51.3971 H   0  0  0  0  0  0  0  0  0  0  0  0
   60.3526   32.9479   49.1732 H   0  0  0  0  0  0  0  0  0  0  0  0
   61.3181   34.4729   49.2008 H   0  0  0  0  0  0  0  0  0  0  0  0
   59.7526   33.7799   47.3086 H   0  0  0  0  0  0  0  0  0  0  0  0
   57.5136   32.9590   46.5882 H   0  0  0  0  0  0  0  0  0  0  0  0
   57.7130   26.8994   43.4770 H   0  0  0  0  0  0  0  0  0  0  0  0
   58.0925   25.1017   45.2474 H   0  0  0  0  0  0  0  0  0  0  0  0
   54.3010   26.6000   46.7370 H   0  0  0  0  0  0  0  0  0  0  0  0
   55.1350   27.4690   45.4020 H   0  0  0  0  0  0  0  0  0  0  0  0
   61.4921   29.9380   46.3281 H   0  0  0  0  0  0  0  0  0  0  0  0
  1  2  1  0
  2  3  1  0
  3  4  1  0
  4  5  1  0
  5  6  1  0
  6  7  1  0
  7  8  1  0
  8  9  2  0
  8 10  2  0
  8 11  1  0
 11 12  2  0
 12 13  1  0
 13 14  2  0
 14 15  1  0
 15 16  1  0
 16 17  1  0
 16 18  2  0
 18 19  1  0
 19 20  2  3
 20 21  1  0
 21 22  1  0
 21 23  2  0
 18 24  1  0
 24 25  2  0
 24 26  1  0
 26 27  2  0
  7  2  1  0
 27 11  1  0
 26 14  1  0
  1 28  1  0
  1 29  1  0
  1 30  1  0
  2 31  1  6
  3 32  1  0
  3 33  1  0
  4 34  1  0
  4 35  1  0
  5 36  1  0
  5 37  1  0
  6 38  1  0
  6 39  1  0
 12 40  1  0
 13 41  1  0
 19 42  1  0
 20 43  1  0
 22 44  1  0
 22 45  1  0
 27 46  1  0
M  CHG  2  15  -1  17  -1
M  END
>  <UniqueID>  (28) 
26

>  <SMILES>  (28) 
C[C@@H]1CCCCN1S(=O)(=O)c1ccc2[n-]c([O-])c(C=CC(N)=O)c(=O)c2c1

>  <Energy>  (28) 
62.66023550843653

>  <Genealogy>  (28) 
CC1CCCCN1S(=O)(=O)c1ccc2[n-]c([O-])c(C=CC(N)=O)c(=O)c2c1 (protonated)
C[C@@H]1CCCCN1S(=O)(=O)c1ccc2[n-]c([O-])c(C=CC(N)=O)c(=O)c2c1 (chirality)
C[C@@H]1CCCCN1S(=O)(=O)c1ccc2[n-]c([O-])c(C=CC(N)=O)c(=O)c2c1 (3D coordinates assigned)
C[C@@H]1CCCCN1S(=O)(=O)c1ccc2[n-]c([O-])c(C=CC(N)=O)c(=O)c2c1 (nonaromatic ring conformer: 62.66023550843653 kcal/mol)

>  <smiles>  (28) 
CC1CCCCN1S(=O)(=O)c1ccc2[nH]c(O)c(C=CC(N)=O)c(=O)c2c1

>  <score_type>  (28) 
oracle

>  <origin>  (28) 
adg

>  <m_score__min__energy>  (28) 
-13.789999999999999

>  <m_primary>  (28) 
energy

$$$$
28:0
     RDKit          3D

 45 47  0  0  0  0  0  0  0  0999 V2000
   57.9050   30.9800   53.4610 O   0  0  0  0  0  0  0  0  0  0  0  0
   57.3190   30.4150   52.5000 C   0  0  0  0  0  0  0  0  0  0  0  0
   58.0340   29.4120   51.6780 C   0  0  0  0  0  0  0  0  0  0  0  0
   59.0250   29.6830   50.8160 C   0  0  0  0  0  0  0  0  0  0  0  0
   58.9410   30.6390   49.6900 C   0  0  0  0  0  0  0  0  0  0  0  0
   58.5880   31.9850   49.8980 C   0  0  0  0  0  0  0  0  0  0  0  0
   58.4870   32.8610   48.8160 C   0  0  0  0  0  0  0  0  0  0  0  0
   58.7020   32.3970   47.5160 C   0  0  0  0  0  0  0  0  0  0  0  0
   58.9940   31.0420   47.2870 C   0  0  0  0  0  0  0  0  0  0  0  0
   59.2370   30.5380   45.9670 N   0  0  0  0  0  0  0  0  0  0  0  0
   58.3560   29.7100   45.1970 C   0  0  0  0  0  0  0  0  0  0  0  0
   57.3590   30.2410   44.6380 O   0  0  0  0  0  0  0  0  0  0  0  0
   58.6080   28.2370   45.0180 C   0  0  0  0  0  0  0  0  0  0  0  0
   57.5360   27.4290   45.6860 C   0  0  0  0  0  0  0  0  0  0  0  0
   57.7670   26.3180   46.4080 N   0  0  0  0  0  0  0  0  0  0  0  0
   56.5260   25.9040   46.7480 C   0  0  0  0  0  0  0  0  0  0  0  0
   56.3210   24.8760   47.4440 O   0  0  0  0  0  0  0  0  0  0  0  0
   55.5230   26.6760   46.2770 N   0  0  0  0  0  0  0  0  0  0  0  0
   56.1790   27.6340   45.6010 C   0  0  0  0  0  0  0  0  0  0  0  0
   55.5550   28.6710   44.9160 O   0  0  0  0  0  0  0  0  0  0  0  0
   59.1240   30.1740   48.3790 C   0  0  0  0  0  0  0  0  0  0  0  0
   55.9440   30.7290   52.2570 N   0  0  0  0  0  0  0  0  0  0  0  0
   54.8280   29.8540   52.5950 C   0  0  0  0  0  0  0  0  0  0  0  0
   53.5390   30.6040   52.4300 C   0  0  0  0  0  0  0  0  0  0  0  0
   52.6370   30.7110   53.5010 C   0  0  0  0  0  0  0  0  0  0  0  0
   51.4530   31.4400   53.3550 C   0  0  0  0  0  0  0  0  0  0  0  0
   51.1670   32.0770   52.1440 C   0  0  0  0  0  0  0  0  0  0  0  0
   49.9880   32.7990   52.0000 O   0  0  0  0  0  0  0  0  0  0  0  0
   52.0670   31.9880   51.0780 C   0  0  0  0  0  0  0  0  0  0  0  0
   53.2530   31.2600   51.2210 C   0  0  0  0  0  0  0  0  0  0  0  0
   57.7278   28.3607   51.7828 H   0  0  0  0  0  0  0  0  0  0  0  0
   59.9775   29.1514   50.9576 H   0  0  0  0  0  0  0  0  0  0  0  0
   58.3908   32.3484   50.9173 H   0  0  0  0  0  0  0  0  0  0  0  0
   58.2377   33.9186   48.9873 H   0  0  0  0  0  0  0  0  0  0  0  0
   58.6424   33.0954   46.6682 H   0  0  0  0  0  0  0  0  0  0  0  0
   58.6209   28.0012   43.9437 H   0  0  0  0  0  0  0  0  0  0  0  0
   59.5760   27.9864   45.4764 H   0  0  0  0  0  0  0  0  0  0  0  0
   55.8270   28.8990   43.9680 H   0  0  0  0  0  0  0  0  0  0  0  0
   59.3723   29.1163   48.2066 H   0  0  0  0  0  0  0  0  0  0  0  0
   54.8319   28.9797   51.9275 H   0  0  0  0  0  0  0  0  0  0  0  0
   54.9270   29.5184   53.6379 H   0  0  0  0  0  0  0  0  0  0  0  0
   52.8629   30.2192   54.4587 H   0  0  0  0  0  0  0  0  0  0  0  0
   50.7455   31.5124   54.1942 H   0  0  0  0  0  0  0  0  0  0  0  0
   51.8424   32.4909   50.1258 H   0  0  0  0  0  0  0  0  0  0  0  0
   53.9642   31.2010   50.3839 H   0  0  0  0  0  0  0  0  0  0  0  0
  1  2  2  0
  2  3  1  0
  3  4  2  3
  4  5  1  0
  5  6  2  0
  6  7  1  0
  7  8  2  0
  8  9  1  0
  9 10  1  0
 10 11  1  0
 11 12  2  0
 11 13  1  0
 13 14  1  0
 14 15  1  0
 15 16  1  0
 16 17  2  0
 16 18  1  0
 18 19  1  0
 19 20  1  0
  9 21  2  0
  2 22  1  0
 22 23  1  0
 23 24  1  0
 24 25  2  0
 25 26  1  0
 26 27  2  0
 27 28  1  0
 27 29  1  0
 29 30  2  0
 21  5  1  0
 30 24  1  0
 19 14  2  0
  3 31  1  0
  4 32  1  0
  6 33  1  0
  7 34  1  0
  8 35  1  0
 13 36  1  0
 13 37  1  0
 20 38  1  0
 21 39  1  0
 23 40  1  0
 23 41  1  0
 25 42  1  0
 26 43  1  0
 29 44  1  0
 30 45  1  0
M  CHG  5  10  -1  15  -1  18  -1  22  -1  28  -1
M  END
>  <UniqueID>  (29) 
27

>  <SMILES>  (29) 
O=C(C=Cc1cccc([N-]C(=O)Cc2[n-]c(=O)[n-]c2O)c1)[N-]Cc1ccc([O-])cc1

>  <Energy>  (29) 
85.2846260332798

>  <Genealogy>  (29) 
O=C(C=Cc1cccc([N-]C(=O)Cc2[n-]c(=O)[n-]c2O)c1)[N-]Cc1ccc([O-])cc1 (protonated)
O=C(C=Cc1cccc([N-]C(=O)Cc2[n-]c(=O)[n-]c2O)c1)[N-]Cc1ccc([O-])cc1 (3D coordinates assigned)
O=C(C=Cc1cccc([N-]C(=O)Cc2[n-]c(=O)[n-]c2O)c1)[N-]Cc1ccc([O-])cc1 (optimized conformer: 85.2846260332798 kcal/mol)

>  <smiles>  (29) 
O=C(C=Cc1cccc(NC(=O)Cc2[nH]c(=O)[nH]c2O)c1)NCc1ccc(O)cc1

>  <score_type>  (29) 
oracle

>  <origin>  (29) 
adg

>  <m_score__min__energy>  (29) 
-19.09

>  <m_primary>  (29) 
energy

$$$$
29:0
     RDKit          3D

 66 69  0  0  0  0  0  0  0  0999 V2000
   60.6489   31.9675   52.5489 H   0  0  0  0  0  0  0  0  0  0  0  0
   60.7510   31.4240   51.5980 C   0  0  0  0  0  0  0  0  0  0  0  0
   59.5320   31.1030   50.8360 C   0  0  0  0  0  0  0  0  0  0  0  0
   59.2130   29.8920   50.6770 O   0  0  0  0  0  0  0  0  0  0  0  0
   58.7300   32.1380   50.2550 N   0  0  0  0  0  0  0  0  0  0  0  0
   59.0780   32.8490   49.0600 C   0  0  0  0  0  0  0  0  0  0  0  0
   58.4280   32.5790   47.8430 C   0  0  0  0  0  0  0  0  0  0  0  0
   57.6535   31.7991   47.7995 H   0  0  0  0  0  0  0  0  0  0  0  0
   58.7590   33.2960   46.6840 C   0  0  0  0  0  0  0  0  0  0  0  0
   57.8860   32.9920   45.1820 S   0  0  0  0  0  0  0  0  0  0  0  0
   56.6350   33.8280   45.1680 O   0  0  0  0  0  0  0  0  0  0  0  0
   58.7480   33.4130   44.0230 O   0  0  0  0  0  0  0  0  0  0  0  0
   57.4860   31.2990   45.0210 N   0  0  0  0  0  0  0  0  0  0  0  0
   56.2670   31.1450   44.2100 C   0  0  0  0  0  0  0  0  0  0  0  0
   55.4148   31.5906   44.7440 H   0  0  0  0  0  0  0  0  0  0  0  0
   56.4073   31.6532   43.2446 H   0  0  0  0  0  0  0  0  0  0  0  0
   55.9900   29.6550   43.9620 C   0  0  0  0  0  0  0  0  0  0  0  0
   55.8127   29.1562   44.9263 H   0  0  0  0  0  0  0  0  0  0  0  0
   55.1053   29.5649   43.3146 H   0  0  0  0  0  0  0  0  0  0  0  0
   57.0880   29.0380   43.3160 O   0  0  0  0  0  0  0  0  0  0  0  0
   58.2350   29.1270   44.1390 C   0  0  0  0  0  0  0  0  0  0  0  0
   58.0263   28.6419   45.1039 H   0  0  0  0  0  0  0  0  0  0  0  0
   59.0737   28.6248   43.6345 H   0  0  0  0  0  0  0  0  0  0  0  0
   58.6110   30.5940   44.3830 C   0  0  0  0  0  0  0  0  0  0  0  0
   59.4913   30.6406   45.0410 H   0  0  0  0  0  0  0  0  0  0  0  0
   58.8412   31.0744   43.4206 H   0  0  0  0  0  0  0  0  0  0  0  0
   59.7510   34.2820   46.7430 C   0  0  0  0  0  0  0  0  0  0  0  0
   60.0352   34.8297   45.8324 H   0  0  0  0  0  0  0  0  0  0  0  0
   60.3810   34.5720   47.9560 C   0  0  0  0  0  0  0  0  0  0  0  0
   61.1511   35.3562   47.9992 H   0  0  0  0  0  0  0  0  0  0  0  0
   60.0370   33.8700   49.1150 C   0  0  0  0  0  0  0  0  0  0  0  0
   60.6520   34.1870   50.3200 O   0  0  0  0  0  0  0  0  0  0  0  0
   61.9750   31.0840   51.1850 C   0  0  0  0  0  0  0  0  0  0  0  0
   62.5671   30.3831   51.7918 H   0  0  0  0  0  0  0  0  0  0  0  0
   62.5590   31.6220   49.9350 C   0  0  0  0  0  0  0  0  0  0  0  0
   63.5920   32.5690   50.0350 C   0  0  0  0  0  0  0  0  0  0  0  0
   63.9489   32.8842   51.0266 H   0  0  0  0  0  0  0  0  0  0  0  0
   64.1700   33.1140   48.8850 C   0  0  0  0  0  0  0  0  0  0  0  0
   64.9731   33.8603   48.9743 H   0  0  0  0  0  0  0  0  0  0  0  0
   63.7290   32.7120   47.6240 C   0  0  0  0  0  0  0  0  0  0  0  0
   64.1743   33.1534   46.7202 H   0  0  0  0  0  0  0  0  0  0  0  0
   62.7230   31.7500   47.5070 C   0  0  0  0  0  0  0  0  0  0  0  0
   62.3882   31.4288   46.5097 H   0  0  0  0  0  0  0  0  0  0  0  0
   62.1360   31.1900   48.6530 C   0  0  0  0  0  0  0  0  0  0  0  0
   61.2040   30.1090   48.5140 N   0  0  0  0  0  0  0  0  0  0  0  0
   60.9310   29.5920   49.3790 H   0  0  0  0  0  0  0  0  0  0  0  0
   60.3770   29.9690   47.3520 C   0  0  0  0  0  0  0  0  0  0  0  0
   60.7500   30.4440   46.2440 O   0  0  0  0  0  0  0  0  0  0  0  0
   59.0150   29.3490   47.4710 C   0  0  0  0  0  0  0  0  0  0  0  0
   58.3115   29.9050   46.8338 H   0  0  0  0  0  0  0  0  0  0  0  0
   58.7047   29.3936   48.5254 H   0  0  0  0  0  0  0  0  0  0  0  0
   59.0300   27.9080   47.0420 C   0  0  0  0  0  0  0  0  0  0  0  0
   60.2440   27.2680   46.7520 C   0  0  0  0  0  0  0  0  0  0  0  0
   61.1879   27.8290   46.8175 H   0  0  0  0  0  0  0  0  0  0  0  0
   60.2600   25.9200   46.3800 C   0  0  0  0  0  0  0  0  0  0  0  0
   61.2177   25.4260   46.1589 H   0  0  0  0  0  0  0  0  0  0  0  0
   59.0670   25.1950   46.2870 C   0  0  0  0  0  0  0  0  0  0  0  0
   59.1350   23.8400   45.9310 O   0  0  0  0  0  0  0  0  0  0  0  0
   58.3380   23.2350   44.9190 C   0  0  0  0  0  0  0  0  0  0  0  0
   57.5453   22.6332   45.3874 H   0  0  0  0  0  0  0  0  0  0  0  0
   57.8833   24.0175   44.2937 H   0  0  0  0  0  0  0  0  0  0  0  0
   58.9694   22.5867   44.2937 H   0  0  0  0  0  0  0  0  0  0  0  0
   57.8460   25.8440   46.5530 C   0  0  0  0  0  0  0  0  0  0  0  0
   56.9006   25.2879   46.4693 H   0  0  0  0  0  0  0  0  0  0  0  0
   57.8300   27.1920   46.9230 C   0  0  0  0  0  0  0  0  0  0  0  0
   56.8714   27.6936   47.1218 H   0  0  0  0  0  0  0  0  0  0  0  0
  1  2  1  0
  2  3  1  0
  3  4  2  0
  3  5  1  0
  5  6  1  0
  6  7  2  0
  7  8  1  0
  7  9  1  0
  9 10  1  0
 10 11  2  0
 10 12  2  0
 10 13  1  0
 13 14  1  0
 14 15  1  0
 14 16  1  0
 14 17  1  0
 17 18  1  0
 17 19  1  0
 17 20  1  0
 20 21  1  0
 21 22  1  0
 21 23  1  0
 21 24  1  0
 24 25  1  0
 24 26  1  0
  9 27  2  0
 27 28  1  0
 27 29  1  0
 29 30  1  0
 29 31  2  0
 31 32  1  0
  2 33  2  0
 33 34  1  0
 33 35  1  0
 35 36  2  0
 36 37  1  0
 36 38  1  0
 38 39  1  0
 38 40  2  0
 40 41  1  0
 40 42  1  0
 42 43  1  0
 42 44  2  0
 44 45  1  0
 45 46  1  0
 45 47  1  0
 47 48  2  0
 47 49  1  0
 49 50  1  0
 49 51  1  0
 49 52  1  0
 52 53  2  0
 53 54  1  0
 53 55  1  0
 55 56  1  0
 55 57  2  0
 57 58  1  0
 58 59  1  0
 59 60  1  0
 59 61  1  0
 59 62  1  0
 57 63  1  0
 63 64  1  0
 63 65  2  0
 65 66  1  0
 31  6  1  0
 44 35  1  0
 65 52  1  0
 24 13  1  0
M  CHG  2   5  -1  32  -1
M  END
>  <UniqueID>  (30) 
28

>  <SMILES>  (30) 
COc1ccc(CC(=O)Nc2ccccc2/C=C/C(=O)[N-]c2cc(S(=O)(=O)N3CCOCC3)ccc2[O-])cc1

>  <Energy>  (30) 
81.30955618800672

>  <Genealogy>  (30) 
COc1ccc(CC(=O)Nc2ccccc2C=CC(=O)[N-]c2cc(S(=O)(=O)N3CCOCC3)ccc2[O-])cc1 (protonated)
COc1ccc(CC(=O)Nc2ccccc2/C=C/C(=O)[N-]c2cc(S(=O)(=O)N3CCOCC3)ccc2[O-])cc1 (cis-trans isomerization)
COc1ccc(CC(=O)Nc2ccccc2/C=C/C(=O)[N-]c2cc(S(=O)(=O)N3CCOCC3)ccc2[O-])cc1 (3D coordinates assigned)
COc1ccc(CC(=O)Nc2ccccc2/C=C/C(=O)[N-]c2cc(S(=O)(=O)N3CCOCC3)ccc2[O-])cc1 (nonaromatic ring conformer: 81.30955618800672 kcal/mol)

>  <smiles>  (30) 
COc1ccc(CC(=O)Nc2ccccc2C=CC(=O)Nc2cc(S(=O)(=O)N3CCOCC3)ccc2O)cc1

>  <score_type>  (30) 
oracle

>  <origin>  (30) 
adg

>  <m_score__min__energy>  (30) 
-15.52

>  <m_primary>  (30) 
energy

$$$$
30:0
     RDKit          3D

 53 56  0  0  0  0  0  0  0  0999 V2000
   59.1870   30.3270   49.0890 C   0  0  0  0  0  0  0  0  0  0  0  0
   58.5060   31.6110   49.1940 N   0  0  0  0  0  0  0  0  0  0  0  0
   58.8370   32.7800   48.4340 C   0  0  0  0  0  0  0  0  0  0  0  0
   59.2840   33.7920   49.0380 O   0  0  0  0  0  0  0  0  0  0  0  0
   58.7110   32.8230   46.9630 C   0  0  0  0  0  0  0  0  0  0  0  0
   59.2380   33.9050   46.2210 C   0  0  0  0  0  0  0  0  0  0  0  0
   59.0990   33.9440   44.8250 C   0  0  0  0  0  0  0  0  0  0  0  0
   58.4700   32.8760   44.1860 C   0  0  0  0  0  0  0  0  0  0  0  0
   58.0140   31.7950   44.8890 C   0  0  0  0  0  0  0  0  0  0  0  0
   58.0960   31.7510   46.2860 C   0  0  0  0  0  0  0  0  0  0  0  0
   57.3900   30.8560   44.0250 N   0  0  0  0  0  0  0  0  0  0  0  0
   56.8790   29.5600   44.3690 C   0  0  0  0  0  0  0  0  0  0  0  0
   55.6980   29.4560   44.7970 O   0  0  0  0  0  0  0  0  0  0  0  0
   57.6730   28.3820   44.1570 N   0  0  0  0  0  0  0  0  0  0  0  0
   57.3930   27.1120   44.7680 C   0  0  0  0  0  0  0  0  0  0  0  0
   57.7770   25.9320   44.1170 C   0  0  0  0  0  0  0  0  0  0  0  0
   57.5230   24.6860   44.6970 C   0  0  0  0  0  0  0  0  0  0  0  0
   56.8980   24.5980   45.9550 C   0  0  0  0  0  0  0  0  0  0  0  0
   56.6350   23.2760   46.5710 C   0  0  0  0  0  0  0  0  0  0  0  0
   57.3740   22.8690   47.5100 O   0  0  0  0  0  0  0  0  0  0  0  0
   55.5880   22.4400   46.0450 N   0  0  0  0  0  0  0  0  0  0  0  0
   54.2920   22.5560   46.1500 C   0  0  0  0  0  0  0  0  0  0  0  0
   53.5620   22.1080   47.2720 C   0  0  0  0  0  0  0  0  0  0  0  0
   52.1740   22.2650   47.2970 C   0  0  0  0  0  0  0  0  0  0  0  0
   51.5200   22.8760   46.2280 C   0  0  0  0  0  0  0  0  0  0  0  0
   52.2710   23.3400   45.1450 C   0  0  0  0  0  0  0  0  0  0  0  0
   51.5950   23.9880   43.9750 C   0  0  0  0  0  0  0  0  0  0  0  0
   53.6210   23.1630   45.1350 N   0  0  0  0  0  0  0  0  0  0  0  0
   56.5390   25.7850   46.6210 C   0  0  0  0  0  0  0  0  0  0  0  0
   56.7860   27.0290   46.0320 C   0  0  0  0  0  0  0  0  0  0  0  0
   57.3820   31.3990   42.6660 C   0  0  0  0  0  0  0  0  0  0  0  0
   58.1610   32.7340   42.7360 C   0  0  0  0  0  0  0  0  0  0  0  0
   59.3934   29.9379   50.0970 H   0  0  0  0  0  0  0  0  0  0  0  0
   58.5474   29.6161   48.5454 H   0  0  0  0  0  0  0  0  0  0  0  0
   60.1343   30.4577   48.5454 H   0  0  0  0  0  0  0  0  0  0  0  0
   59.7603   34.7215   46.7412 H   0  0  0  0  0  0  0  0  0  0  0  0
   59.4784   34.7994   44.2468 H   0  0  0  0  0  0  0  0  0  0  0  0
   57.6880   30.8957   46.8446 H   0  0  0  0  0  0  0  0  0  0  0  0
   58.4310   28.4280   43.4380 H   0  0  0  0  0  0  0  0  0  0  0  0
   58.2825   25.9868   43.1415 H   0  0  0  0  0  0  0  0  0  0  0  0
   57.8137   23.7674   44.1664 H   0  0  0  0  0  0  0  0  0  0  0  0
   54.0820   21.6388   48.1202 H   0  0  0  0  0  0  0  0  0  0  0  0
   51.5962   21.9060   48.1615 H   0  0  0  0  0  0  0  0  0  0  0  0
   50.4261   22.9914   46.2371 H   0  0  0  0  0  0  0  0  0  0  0  0
   50.8451   24.7069   44.3368 H   0  0  0  0  0  0  0  0  0  0  0  0
   52.3434   24.5148   43.3647 H   0  0  0  0  0  0  0  0  0  0  0  0
   51.1003   23.2180   43.3647 H   0  0  0  0  0  0  0  0  0  0  0  0
   56.0614   25.7337   47.6106 H   0  0  0  0  0  0  0  0  0  0  0  0
   56.5027   27.9499   46.5628 H   0  0  0  0  0  0  0  0  0  0  0  0
   57.8777   30.7030   41.9733 H   0  0  0  0  0  0  0  0  0  0  0  0
   56.3563   31.5496   42.2982 H   0  0  0  0  0  0  0  0  0  0  0  0
   59.0840   32.6832   42.1397 H   0  0  0  0  0  0  0  0  0  0  0  0
   57.5930   33.5850   42.3320 H   0  0  0  0  0  0  0  0  0  0  0  0
  1  2  1  0
  2  3  1  0
  3  4  2  0
  3  5  1  0
  5  6  2  0
  6  7  1  0
  7  8  2  0
  8  9  1  0
  9 10  2  0
  9 11  1  0
 11 12  1  0
 12 13  2  0
 12 14  1  0
 14 15  1  0
 15 16  2  0
 16 17  1  0
 17 18  2  0
 18 19  1  0
 19 20  2  0
 19 21  1  0
 21 22  2  3
 22 23  1  0
 23 24  2  0
 24 25  1  0
 25 26  2  0
 26 27  1  0
 26 28  1  0
 18 29  1  0
 29 30  2  0
 11 31  1  0
 31 32  1  0
 10  5  1  0
 30 15  1  0
 32  8  1  0
 28 22  1  0
  1 33  1  0
  1 34  1  0
  1 35  1  0
  6 36  1  0
  7 37  1  0
 10 38  1  0
 14 39  1  0
 16 40  1  0
 17 41  1  0
 23 42  1  0
 24 43  1  0
 25 44  1  0
 27 45  1  0
 27 46  1  0
 27 47  1  0
 29 48  1  0
 30 49  1  0
 31 50  1  0
 31 51  1  0
 32 52  1  0
 32 53  1  0
M  CHG  2   2  -1  28  -1
M  END
>  <UniqueID>  (31) 
29

>  <SMILES>  (31) 
C[N-]C(=O)c1ccc2c(c1)N(C(=O)Nc1ccc(C(=O)N=c3cccc(C)[n-]3)cc1)CC2

>  <Energy>  (31) 
88.87748472542235

>  <Genealogy>  (31) 
C[N-]C(=O)c1ccc2c(c1)N(C(=O)Nc1ccc(C(=O)N=c3cccc(C)[n-]3)cc1)CC2 (protonated)
C[N-]C(=O)c1ccc2c(c1)N(C(=O)Nc1ccc(C(=O)N=c3cccc(C)[n-]3)cc1)CC2 (3D coordinates assigned)
C[N-]C(=O)c1ccc2c(c1)N(C(=O)Nc1ccc(C(=O)N=c3cccc(C)[n-]3)cc1)CC2 (nonaromatic ring conformer: 88.87748472542235 kcal/mol)

>  <smiles>  (31) 
CNC(=O)c1ccc2c(c1)N(C(=O)Nc1ccc(C(=O)N=c3cccc(C)[nH]3)cc1)CC2

>  <score_type>  (31) 
oracle

>  <origin>  (31) 
adg

>  <m_score__min__energy>  (31) 
-13.380000000000001

>  <m_primary>  (31) 
energy

$$$$
31:0
     RDKit          3D

 51 53  0  0  0  0  0  0  0  0999 V2000
   57.7690   26.1160   42.8170 C   0  0  0  0  0  0  0  0  0  0  0  0
   57.8490   27.5210   42.6440 O   0  0  0  0  0  0  0  0  0  0  0  0
   58.0920   28.3440   43.7230 N   0  0  0  0  0  0  0  0  0  0  0  0
   57.2550   28.4730   44.7090 C   0  0  0  0  0  0  0  0  0  0  0  0
   56.2880   29.5930   44.7490 C   0  0  0  0  0  0  0  0  0  0  0  0
   55.1280   29.4080   45.2070 O   0  0  0  0  0  0  0  0  0  0  0  0
   56.6850   30.8920   44.2890 N   0  0  0  0  0  0  0  0  0  0  0  0
   57.4050   31.8780   45.0400 C   0  0  0  0  0  0  0  0  0  0  0  0
   57.1150   33.2500   44.9370 C   0  0  0  0  0  0  0  0  0  0  0  0
   57.8650   34.1850   45.6560 C   0  0  0  0  0  0  0  0  0  0  0  0
   58.9160   33.7650   46.4850 C   0  0  0  0  0  0  0  0  0  0  0  0
   59.7560   34.7790   47.2190 C   0  0  0  0  0  0  0  0  0  0  0  0
   60.4730   34.1460   48.4160 C   0  0  0  0  0  0  0  0  0  0  0  0
   61.9220   34.2180   48.2630 N   0  0  0  0  0  0  0  0  0  0  0  0
   62.6330   33.5200   47.2380 C   0  0  0  0  0  0  0  0  0  0  0  0
   63.2710   34.1790   46.3730 O   0  0  0  0  0  0  0  0  0  0  0  0
   62.6210   32.1210   47.2060 O   0  0  0  0  0  0  0  0  0  0  0  0
   62.6940   31.3050   48.3730 C   0  0  0  0  0  0  0  0  0  0  0  0
   61.3300   30.7890   48.7480 C   0  0  0  0  0  0  0  0  0  0  0  0
   60.7110   29.8020   47.9620 C   0  0  0  0  0  0  0  0  0  0  0  0
   59.4500   29.3120   48.3130 C   0  0  0  0  0  0  0  0  0  0  0  0
   58.8010   29.7960   49.4510 C   0  0  0  0  0  0  0  0  0  0  0  0
   59.4110   30.7770   50.2410 C   0  0  0  0  0  0  0  0  0  0  0  0
   60.6720   31.2710   49.8920 C   0  0  0  0  0  0  0  0  0  0  0  0
   59.2210   32.3980   46.5670 C   0  0  0  0  0  0  0  0  0  0  0  0
   58.4730   31.4640   45.8450 C   0  0  0  0  0  0  0  0  0  0  0  0
   57.3360   27.4990   45.8170 C   0  0  0  0  0  0  0  0  0  0  0  0
   58.4860   27.1820   46.4410 N   0  0  0  0  0  0  0  0  0  0  0  0
   58.1130   26.2480   47.3430 C   0  0  0  0  0  0  0  0  0  0  0  0
   58.9270   25.7030   48.1320 O   0  0  0  0  0  0  0  0  0  0  0  0
   56.7990   25.9370   47.3250 N   0  0  0  0  0  0  0  0  0  0  0  0
   56.3210   26.7300   46.3510 C   0  0  0  0  0  0  0  0  0  0  0  0
   54.9950   26.7150   45.9380 O   0  0  0  0  0  0  0  0  0  0  0  0
   57.7555   25.8790   43.8911 H   0  0  0  0  0  0  0  0  0  0  0  0
   56.8480   25.7405   42.3471 H   0  0  0  0  0  0  0  0  0  0  0  0
   58.6414   25.6384   42.3471 H   0  0  0  0  0  0  0  0  0  0  0  0
   56.2943   33.5890   44.2877 H   0  0  0  0  0  0  0  0  0  0  0  0
   57.6298   35.2562   45.5714 H   0  0  0  0  0  0  0  0  0  0  0  0
   60.5067   35.1900   46.5280 H   0  0  0  0  0  0  0  0  0  0  0  0
   59.0936   35.5741   47.5918 H   0  0  0  0  0  0  0  0  0  0  0  0
   60.1822   34.6810   49.3321 H   0  0  0  0  0  0  0  0  0  0  0  0
   60.1818   33.0869   48.4755 H   0  0  0  0  0  0  0  0  0  0  0  0
   63.3610   30.4527   48.1764 H   0  0  0  0  0  0  0  0  0  0  0  0
   63.0837   31.9109   49.2043 H   0  0  0  0  0  0  0  0  0  0  0  0
   61.2206   29.4139   47.0677 H   0  0  0  0  0  0  0  0  0  0  0  0
   58.9676   28.5433   47.6914 H   0  0  0  0  0  0  0  0  0  0  0  0
   57.8100   29.4060   49.7265 H   0  0  0  0  0  0  0  0  0  0  0  0
   58.8988   31.1594   51.1362 H   0  0  0  0  0  0  0  0  0  0  0  0
   61.1507   32.0402   50.5158 H   0  0  0  0  0  0  0  0  0  0  0  0
   60.0527   32.0598   47.2025 H   0  0  0  0  0  0  0  0  0  0  0  0
   58.7253   30.3953   45.9097 H   0  0  0  0  0  0  0  0  0  0  0  0
  1  2  1  0
  2  3  1  0
  3  4  2  3
  4  5  1  0
  5  6  2  0
  5  7  1  0
  7  8  1  0
  8  9  2  0
  9 10  1  0
 10 11  2  0
 11 12  1  0
 12 13  1  0
 13 14  1  0
 14 15  1  0
 15 16  2  0
 15 17  1  0
 17 18  1  0
 18 19  1  0
 19 20  2  0
 20 21  1  0
 21 22  2  0
 22 23  1  0
 23 24  2  0
 11 25  1  0
 25 26  2  0
  4 27  1  0
 27 28  1  0
 28 29  1  0
 29 30  2  0
 29 31  1  0
 31 32  1  0
 32 33  1  0
 26  8  1  0
 32 27  2  0
 24 19  1  0
  1 34  1  0
  1 35  1  0
  1 36  1  0
  9 37  1  0
 10 38  1  0
 12 39  1  0
 12 40  1  0
 13 41  1  0
 13 42  1  0
 18 43  1  0
 18 44  1  0
 20 45  1  0
 21 46  1  0
 22 47  1  0
 23 48  1  0
 24 49  1  0
 25 50  1  0
 26 51  1  0
M  CHG  5   7  -1  14  -1  28  -1  31  -1  33  -1
M  END
>  <UniqueID>  (32) 
30

>  <SMILES>  (32) 
CON=C(C(=O)[N-]c1ccc(CC[N-]C(=O)OCc2ccccc2)cc1)c1[n-]c(=O)[n-]c1[O-]

>  <Energy>  (32) 
80.31612570187835

>  <Genealogy>  (32) 
CON=C(C(=O)[N-]c1ccc(CC[N-]C(=O)OCc2ccccc2)cc1)c1[n-]c(=O)[n-]c1[O-] (protonated)
CON=C(C(=O)[N-]c1ccc(CC[N-]C(=O)OCc2ccccc2)cc1)c1[n-]c(=O)[n-]c1[O-] (3D coordinates assigned)
CON=C(C(=O)[N-]c1ccc(CC[N-]C(=O)OCc2ccccc2)cc1)c1[n-]c(=O)[n-]c1[O-] (optimized conformer: 80.31612570187835 kcal/mol)

>  <smiles>  (32) 
CON=C(C(=O)Nc1ccc(CCNC(=O)OCc2ccccc2)cc1)c1[nH]c(=O)[nH]c1O

>  <score_type>  (32) 
oracle

>  <origin>  (32) 
adg

>  <m_score__min__energy>  (32) 
-18.82

>  <m_primary>  (32) 
energy

$$$$
32:0
     RDKit          3D

 28 30  0  0  1  0  0  0  0  0999 V2000
   58.0270   26.5370   46.5630 O   0  0  0  0  0  0  0  0  0  0  0  0
   56.9210   26.4670   45.9710 C   0  0  0  0  0  0  0  0  0  0  0  0
   56.2860   27.7110   45.6090 N   0  0  0  0  0  0  0  0  0  0  0  0
   56.9680   28.7420   45.2560 C   0  0  0  0  0  0  0  0  0  0  0  0
   58.3010   28.9180   45.2140 N   0  0  0  0  0  0  0  0  0  0  0  0
   58.4950   30.1740   44.7720 C   0  0  0  0  0  0  0  0  0  0  0  0
   57.2660   30.7450   44.5490 C   0  0  0  0  0  0  0  0  0  0  0  0
   56.3740   29.8590   44.8500 O   0  0  0  0  0  0  0  0  0  0  0  0
   56.3420   25.1820   45.6840 C   0  0  0  0  0  0  0  0  0  0  0  0
   54.9650   25.0530   45.6520 C   0  0  0  0  0  0  0  0  0  0  0  0
   54.1930   26.1840   45.8990 O   0  0  0  0  0  0  0  0  0  0  0  0
   54.3270   23.8630   45.3890 C   0  0  0  0  0  0  0  0  0  0  0  0
   55.1050   22.7510   45.1460 C   0  0  0  0  0  0  0  0  0  0  0  0
   56.4950   22.8260   45.1660 C   0  0  0  0  0  0  0  0  0  0  0  0
   57.2760   21.7120   44.9230 C   0  0  0  0  0  0  0  0  0  0  0  0
   56.6840   20.6330   44.6850 O   0  0  0  0  0  0  0  0  0  0  0  0
   58.6220   21.8270   44.9500 N   0  0  0  0  0  0  0  0  0  0  0  0
   59.2050   23.0310   45.2150 C   0  0  0  0  0  0  0  0  0  0  0  0
   58.4210   24.1250   45.4550 N   0  0  0  0  0  0  0  0  0  0  0  0
   57.0930   24.0520   45.4370 C   0  0  0  0  0  0  0  0  0  0  0  0
   59.0030   28.1950   45.4820 H   0  0  0  0  0  0  0  0  0  0  0  0
   59.4696   30.6596   44.6162 H   0  0  0  0  0  0  0  0  0  0  0  0
   57.0763   31.7648   44.1830 H   0  0  0  0  0  0  0  0  0  0  0  0
   54.3910   26.7140   46.7420 H   0  0  0  0  0  0  0  0  0  0  0  0
   53.2289   23.8005   45.3730 H   0  0  0  0  0  0  0  0  0  0  0  0
   54.6189   21.7876   44.9326 H   0  0  0  0  0  0  0  0  0  0  0  0
   59.1930   20.9750   44.7650 H   0  0  0  0  0  0  0  0  0  0  0  0
   60.3011   23.1215   45.2356 H   0  0  0  0  0  0  0  0  0  0  0  0
  1  2  2  0
  2  3  1  0
  3  4  2  0
  4  5  1  0
  5  6  1  0
  6  7  2  0
  7  8  1  0
  2  9  1  0
  9 10  2  0
 10 11  1  0
 10 12  1  0
 12 13  2  0
 13 14  1  0
 14 15  1  0
 15 16  2  0
 15 17  1  0
 17 18  1  0
 18 19  2  0
 19 20  1  0
  8  4  1  0
 20  9  1  0
 20 14  2  0
  5 21  1  0
  6 22  1  0
  7 23  1  0
 11 24  1  0
 12 25  1  0
 13 26  1  0
 17 27  1  0
 18 28  1  0
M  END
>  <smiles>  (33) 
O=C(N=c1[nH]cco1)c1c(O)ccc2c(=O)[nH]cnc12

>  <score_type>  (33) 
oracle

>  <origin>  (33) 
adg

>  <m_score__min__energy>  (33) 
-7.6399999999999997

>  <m_primary>  (33) 
energy

$$$$
33:0
     RDKit          3D

 60 64  0  0  0  0  0  0  0  0999 V2000
   59.7900   34.9320   48.7820 N   0  0  0  0  0  0  0  0  0  0  0  0
   59.2660   34.1710   47.6940 C   0  0  0  0  0  0  0  0  0  0  0  0
   58.3200   33.1620   47.9310 C   0  0  0  0  0  0  0  0  0  0  0  0
   57.8170   32.4060   46.8700 C   0  0  0  0  0  0  0  0  0  0  0  0
   58.2550   32.6510   45.5600 C   0  0  0  0  0  0  0  0  0  0  0  0
   57.6580   31.6790   44.2220 S   0  0  0  0  0  0  0  0  0  0  0  0
   56.2800   31.1760   44.5400 O   0  0  0  0  0  0  0  0  0  0  0  0
   57.5710   32.5210   42.9850 O   0  0  0  0  0  0  0  0  0  0  0  0
   58.7030   30.3110   43.9840 N   0  0  0  0  0  0  0  0  0  0  0  0
   58.7720   29.1880   44.8680 C   0  0  0  0  0  0  0  0  0  0  0  0
   58.5380   28.0370   44.4080 O   0  0  0  0  0  0  0  0  0  0  0  0
   59.1460   29.3360   46.2870 C   0  0  0  0  0  0  0  0  0  0  0  0
   58.5240   28.5580   47.2730 C   0  0  0  0  0  0  0  0  0  0  0  0
   58.8730   28.7060   48.6180 C   0  0  0  0  0  0  0  0  0  0  0  0
   59.8230   29.6650   49.0050 C   0  0  0  0  0  0  0  0  0  0  0  0
   60.2550   29.8150   50.4460 C   0  0  0  0  0  0  0  0  0  0  0  0
   59.8140   31.1200   51.0680 C   0  0  0  0  0  0  0  0  0  0  0  0
   60.7050   32.1950   51.3720 C   0  0  0  0  0  0  0  0  0  0  0  0
   62.4520   32.0890   51.0790 S   0  0  0  0  0  0  0  0  0  0  0  0
   62.9620   30.6910   51.2880 O   0  0  0  0  0  0  0  0  0  0  0  0
   63.1500   33.0090   52.0420 O   0  0  0  0  0  0  0  0  0  0  0  0
   62.8410   32.5450   49.4140 C   0  0  0  0  0  0  0  0  0  0  0  0
   63.0900   31.5400   48.4670 C   0  0  0  0  0  0  0  0  0  0  0  0
   63.4090   31.8710   47.1480 C   0  0  0  0  0  0  0  0  0  0  0  0
   63.4880   33.2090   46.7630 C   0  0  0  0  0  0  0  0  0  0  0  0
   63.2460   34.2190   47.6950 C   0  0  0  0  0  0  0  0  0  0  0  0
   62.9200   33.9020   49.0190 C   0  0  0  0  0  0  0  0  0  0  0  0
   62.6860   34.9540   49.9060 O   0  0  0  0  0  0  0  0  0  0  0  0
   60.1950   33.3730   51.9790 C   0  0  0  0  0  0  0  0  0  0  0  0
   58.8260   33.5100   52.2560 C   0  0  0  0  0  0  0  0  0  0  0  0
   57.9900   32.4510   51.9330 C   0  0  0  0  0  0  0  0  0  0  0  0
   58.4590   31.3100   51.3680 C   0  0  0  0  0  0  0  0  0  0  0  0
   57.4010   30.4380   51.1640 O   0  0  0  0  0  0  0  0  0  0  0  0
   56.2040   31.0690   51.6350 C   0  0  0  0  0  0  0  0  0  0  0  0
   56.6240   32.3550   52.1150 O   0  0  0  0  0  0  0  0  0  0  0  0
   60.4450   30.4440   48.0130 C   0  0  0  0  0  0  0  0  0  0  0  0
   60.0930   30.2950   46.6690 C   0  0  0  0  0  0  0  0  0  0  0  0
   59.1920   33.6670   45.3230 C   0  0  0  0  0  0  0  0  0  0  0  0
   59.6960   34.4240   46.3840 C   0  0  0  0  0  0  0  0  0  0  0  0
   60.7480   34.7410   49.1570 H   0  0  0  0  0  0  0  0  0  0  0  0
   59.2390   35.7160   49.2010 H   0  0  0  0  0  0  0  0  0  0  0  0
   57.9733   32.9658   48.9563 H   0  0  0  0  0  0  0  0  0  0  0  0
   57.0755   31.6165   47.0620 H   0  0  0  0  0  0  0  0  0  0  0  0
   57.7553   27.8254   46.9859 H   0  0  0  0  0  0  0  0  0  0  0  0
   58.4005   28.0671   49.3786 H   0  0  0  0  0  0  0  0  0  0  0  0
   59.8238   28.9872   51.0280 H   0  0  0  0  0  0  0  0  0  0  0  0
   61.3548   29.8018   50.4602 H   0  0  0  0  0  0  0  0  0  0  0  0
   63.0335   30.4829   48.7658 H   0  0  0  0  0  0  0  0  0  0  0  0
   63.5981   31.0755   46.4122 H   0  0  0  0  0  0  0  0  0  0  0  0
   63.7411   33.4683   45.7244 H   0  0  0  0  0  0  0  0  0  0  0  0
   63.3119   35.2729   47.3868 H   0  0  0  0  0  0  0  0  0  0  0  0
   62.7750   34.8670   50.9100 H   0  0  0  0  0  0  0  0  0  0  0  0
   60.8838   34.1912   52.2362 H   0  0  0  0  0  0  0  0  0  0  0  0
   58.4286   34.4275   52.7145 H   0  0  0  0  0  0  0  0  0  0  0  0
   55.4782   31.1805   50.8160 H   0  0  0  0  0  0  0  0  0  0  0  0
   55.7073   30.4783   52.4188 H   0  0  0  0  0  0  0  0  0  0  0  0
   61.2148   31.1765   48.2974 H   0  0  0  0  0  0  0  0  0  0  0  0
   60.5621   30.9343   45.9066 H   0  0  0  0  0  0  0  0  0  0  0  0
   59.5320   33.8691   44.2966 H   0  0  0  0  0  0  0  0  0  0  0  0
   60.4310   35.2193   46.1910 H   0  0  0  0  0  0  0  0  0  0  0  0
  1  2  1  0
  2  3  2  0
  3  4  1  0
  4  5  2  0
  5  6  1  0
  6  7  2  0
  6  8  2  0
  6  9  1  0
  9 10  1  0
 10 11  2  0
 10 12  1  0
 12 13  2  0
 13 14  1  0
 14 15  2  0
 15 16  1  0
 16 17  1  0
 17 18  1  0
 18 19  1  0
 19 20  2  0
 19 21  2  0
 19 22  1  0
 22 23  2  0
 23 24  1  0
 24 25  2  0
 25 26  1  0
 26 27  2  0
 27 28  1  0
 18 29  2  0
 29 30  1  0
 30 31  2  0
 31 32  1  0
 32 33  1  0
 33 34  1  0
 34 35  1  0
 15 36  1  0
 36 37  2  0
  5 38  1  0
 38 39  2  0
 39  2  1  0
 37 12  1  0
 32 17  2  0
 27 22  1  0
 35 31  1  0
  1 40  1  0
  1 41  1  0
  3 42  1  0
  4 43  1  0
 13 44  1  0
 14 45  1  0
 16 46  1  0
 16 47  1  0
 23 48  1  0
 24 49  1  0
 25 50  1  0
 26 51  1  0
 28 52  1  0
 29 53  1  0
 30 54  1  0
 34 55  1  0
 34 56  1  0
 36 57  1  0
 37 58  1  0
 38 59  1  0
 39 60  1  0
M  CHG  1   9  -1
M  END
>  <UniqueID>  (34) 
31

>  <SMILES>  (34) 
Nc1ccc(S(=O)(=O)[N-]C(=O)c2ccc(Cc3c(S(=O)(=O)c4ccccc4O)ccc4c3OCO4)cc2)cc1

>  <Energy>  (34) 
108.77094043820233

>  <Genealogy>  (34) 
Nc1ccc(S(=O)(=O)[N-]C(=O)c2ccc(Cc3c(S(=O)(=O)c4ccccc4O)ccc4c3OCO4)cc2)cc1 (protonated)
Nc1ccc(S(=O)(=O)[N-]C(=O)c2ccc(Cc3c(S(=O)(=O)c4ccccc4O)ccc4c3OCO4)cc2)cc1 (3D coordinates assigned)
Nc1ccc(S(=O)(=O)[N-]C(=O)c2ccc(Cc3c(S(=O)(=O)c4ccccc4O)ccc4c3OCO4)cc2)cc1 (nonaromatic ring conformer: 108.77094043820233 kcal/mol)

>  <smiles>  (34) 
Nc1ccc(S(=O)(=O)NC(=O)c2ccc(Cc3c(S(=O)(=O)c4ccccc4O)ccc4c3OCO4)cc2)cc1

>  <score_type>  (34) 
oracle

>  <origin>  (34) 
adg

>  <m_score__min__energy>  (34) 
-10.91

>  <m_primary>  (34) 
energy

$$$$
34:0
     RDKit          3D

 39 40  0  0  0  0  0  0  0  0999 V2000
   57.5712   34.3294   43.6078 H   0  0  0  0  0  0  0  0  0  0  0  0
   58.1320   33.5810   44.1870 C   0  0  0  0  0  0  0  0  0  0  0  0
   57.9430   32.2990   43.6190 C   0  0  0  0  0  0  0  0  0  0  0  0
   58.3150   32.2090   42.3570 O   0  0  0  0  0  0  0  0  0  0  0  0
   57.4240   31.0660   44.1220 C   0  0  0  0  0  0  0  0  0  0  0  0
   56.1880   30.6250   43.6290 C   0  0  0  0  0  0  0  0  0  0  0  0
   55.6921   31.1953   42.8297 H   0  0  0  0  0  0  0  0  0  0  0  0
   55.5760   29.4810   44.1300 C   0  0  0  0  0  0  0  0  0  0  0  0
   54.6059   29.1663   43.7178 H   0  0  0  0  0  0  0  0  0  0  0  0
   56.1510   28.7400   45.1210 C   0  0  0  0  0  0  0  0  0  0  0  0
   55.5310   27.6020   45.6110 O   0  0  0  0  0  0  0  0  0  0  0  0
   57.3550   29.1470   45.6200 C   0  0  0  0  0  0  0  0  0  0  0  0
   57.8449   28.5716   46.4193 H   0  0  0  0  0  0  0  0  0  0  0  0
   57.9530   30.2810   45.1180 C   0  0  0  0  0  0  0  0  0  0  0  0
   58.9222   30.5795   45.5441 H   0  0  0  0  0  0  0  0  0  0  0  0
   58.7440   34.1550   45.1570 C   0  0  0  0  0  0  0  0  0  0  0  0
   59.2113   35.1056   44.8604 H   0  0  0  0  0  0  0  0  0  0  0  0
   58.9580   33.8420   46.5360 C   0  0  0  0  0  0  0  0  0  0  0  0
   59.8360   34.6260   47.2800 C   0  0  0  0  0  0  0  0  0  0  0  0
   60.2845   35.5095   46.8022 H   0  0  0  0  0  0  0  0  0  0  0  0
   60.1670   34.3470   48.5810 C   0  0  0  0  0  0  0  0  0  0  0  0
   60.8654   34.9991   49.1259 H   0  0  0  0  0  0  0  0  0  0  0  0
   59.6080   33.2210   49.2160 C   0  0  0  0  0  0  0  0  0  0  0  0
   59.8920   32.9290   50.4220 O   0  0  0  0  0  0  0  0  0  0  0  0
   60.1810   32.6330   51.6460 C   0  0  0  0  0  0  0  0  0  0  0  0
   60.7929   33.4474   52.0610 H   0  0  0  0  0  0  0  0  0  0  0  0
   60.7097   31.6688   51.6180 H   0  0  0  0  0  0  0  0  0  0  0  0
   58.9550   32.4350   52.5640 C   0  0  0  0  0  0  0  0  0  0  0  0
   58.9147   33.2501   53.3015 H   0  0  0  0  0  0  0  0  0  0  0  0
   59.0415   31.4701   53.0851 H   0  0  0  0  0  0  0  0  0  0  0  0
   57.6930   32.4450   51.7350 C   0  0  0  0  0  0  0  0  0  0  0  0
   57.9443   32.7005   50.6950 H   0  0  0  0  0  0  0  0  0  0  0  0
   56.9990   33.1908   52.1499 H   0  0  0  0  0  0  0  0  0  0  0  0
   57.0560   31.1380   51.7670 C   0  0  0  0  0  0  0  0  0  0  0  0
   56.5590   30.1000   51.7840 N   0  0  0  0  0  0  0  0  0  0  0  0
   58.7150   32.4150   48.4730 C   0  0  0  0  0  0  0  0  0  0  0  0
   58.2560   31.5268   48.9318 H   0  0  0  0  0  0  0  0  0  0  0  0
   58.4270   32.7500   47.1780 C   0  0  0  0  0  0  0  0  0  0  0  0
   57.7303   32.1080   46.6190 H   0  0  0  0  0  0  0  0  0  0  0  0
  1  2  1  0
  2  3  1  0
  3  4  2  0
  3  5  1  0
  5  6  2  0
  6  7  1  0
  6  8  1  0
  8  9  1  0
  8 10  2  0
 10 11  1  0
 10 12  1  0
 12 13  1  0
 12 14  2  0
 14 15  1  0
  2 16  2  0
 16 17  1  0
 16 18  1  0
 18 19  2  0
 19 20  1  0
 19 21  1  0
 21 22  1  0
 21 23  2  0
 23 24  1  0
 24 25  1  0
 25 26  1  0
 25 27  1  0
 25 28  1  0
 28 29  1  0
 28 30  1  0
 28 31  1  0
 31 32  1  0
 31 33  1  0
 31 34  1  0
 34 35  3  0
 23 36  1  0
 36 37  1  0
 36 38  2  0
 38 39  1  0
 14  5  1  0
 38 18  1  0
M  CHG  1  11  -1
M  END
>  <UniqueID>  (35) 
32

>  <SMILES>  (35) 
N#CCCCOc1ccc(/C=C\C(=O)c2ccc([O-])cc2)cc1

>  <Energy>  (35) 
175.7252276824578

>  <Genealogy>  (35) 
N#CCCCOc1ccc(C=CC(=O)c2ccc([O-])cc2)cc1 (protonated)
N#CCCCOc1ccc(/C=C\C(=O)c2ccc([O-])cc2)cc1 (cis-trans isomerization)
N#CCCCOc1ccc(/C=C\C(=O)c2ccc([O-])cc2)cc1 (3D coordinates assigned)
N#CCCCOc1ccc(/C=C\C(=O)c2ccc([O-])cc2)cc1 (optimized conformer: 175.7252276824578 kcal/mol)

>  <smiles>  (35) 
N#CCCCOc1ccc(C=CC(=O)c2ccc(O)cc2)cc1

>  <score_type>  (35) 
oracle

>  <origin>  (35) 
adg

>  <m_score__min__energy>  (35) 
-10.210000000000001

>  <m_primary>  (35) 
energy

$$$$
35:0
     RDKit          3D

 45 47  0  0  0  0  0  0  0  0999 V2000
   60.2350   28.8250   47.2560 N   0  0  0  0  0  0  0  0  0  0  0  0
   60.4390   30.5390   47.3180 S   0  0  0  0  0  0  0  0  0  0  0  0
   61.7980   30.9000   46.7860 O   0  0  0  0  0  0  0  0  0  0  0  0
   60.3430   31.0040   48.7450 O   0  0  0  0  0  0  0  0  0  0  0  0
   59.1920   31.3200   46.3510 C   0  0  0  0  0  0  0  0  0  0  0  0
   59.1240   32.7180   46.2850 C   0  0  0  0  0  0  0  0  0  0  0  0
   58.1440   33.3370   45.5040 C   0  0  0  0  0  0  0  0  0  0  0  0
   57.2290   32.5640   44.7830 C   0  0  0  0  0  0  0  0  0  0  0  0
   57.2900   31.1610   44.8390 C   0  0  0  0  0  0  0  0  0  0  0  0
   56.3270   30.3210   44.0430 C   0  0  0  0  0  0  0  0  0  0  0  0
   55.7100   29.3020   44.8930 N   0  0  0  0  0  0  0  0  0  0  0  0
   56.2800   28.1900   45.2530 C   0  0  0  0  0  0  0  0  0  0  0  0
   55.5390   27.1140   45.6350 N   0  0  0  0  0  0  0  0  0  0  0  0
   56.1290   25.9520   46.0100 C   0  0  0  0  0  0  0  0  0  0  0  0
   57.5280   25.8330   46.0140 C   0  0  0  0  0  0  0  0  0  0  0  0
   58.1700   24.5580   46.4300 C   0  0  0  0  0  0  0  0  0  0  0  0
   59.3050   24.2380   45.9840 O   0  0  0  0  0  0  0  0  0  0  0  0
   57.4970   23.6800   47.3410 N   0  0  0  0  0  0  0  0  0  0  0  0
   56.6880   22.5420   46.9190 C   0  0  0  0  0  0  0  0  0  0  0  0
   56.6870   22.4330   45.4180 C   0  0  0  0  0  0  0  0  0  0  0  0
   55.7370   23.1390   44.6620 C   0  0  0  0  0  0  0  0  0  0  0  0
   55.7170   23.0210   43.2690 C   0  0  0  0  0  0  0  0  0  0  0  0
   56.6420   22.1950   42.6220 C   0  0  0  0  0  0  0  0  0  0  0  0
   57.5870   21.4860   43.3680 C   0  0  0  0  0  0  0  0  0  0  0  0
   57.6100   21.6000   44.7620 C   0  0  0  0  0  0  0  0  0  0  0  0
   58.2730   26.9630   45.6150 C   0  0  0  0  0  0  0  0  0  0  0  0
   59.5320   26.9380   45.5940 O   0  0  0  0  0  0  0  0  0  0  0  0
   57.6330   28.1040   45.2480 N   0  0  0  0  0  0  0  0  0  0  0  0
   58.2800   30.5450   45.6220 C   0  0  0  0  0  0  0  0  0  0  0  0
   60.8730   28.4670   46.5100 H   0  0  0  0  0  0  0  0  0  0  0  0
   59.2580   28.6440   46.9290 H   0  0  0  0  0  0  0  0  0  0  0  0
   59.8435   33.3297   46.8491 H   0  0  0  0  0  0  0  0  0  0  0  0
   58.0925   34.4348   45.4565 H   0  0  0  0  0  0  0  0  0  0  0  0
   56.4590   33.0554   44.1701 H   0  0  0  0  0  0  0  0  0  0  0  0
   55.5415   30.9683   43.6260 H   0  0  0  0  0  0  0  0  0  0  0  0
   56.8776   29.8214   43.2323 H   0  0  0  0  0  0  0  0  0  0  0  0
   55.5072   25.0967   46.3132 H   0  0  0  0  0  0  0  0  0  0  0  0
   57.1052   21.6199   47.3500 H   0  0  0  0  0  0  0  0  0  0  0  0
   55.6552   22.6864   47.2690 H   0  0  0  0  0  0  0  0  0  0  0  0
   55.0061   23.7871   45.1676 H   0  0  0  0  0  0  0  0  0  0  0  0
   54.9729   23.5784   42.6811 H   0  0  0  0  0  0  0  0  0  0  0  0
   56.6255   22.1036   41.5259 H   0  0  0  0  0  0  0  0  0  0  0  0
   58.3142   20.8370   42.8582 H   0  0  0  0  0  0  0  0  0  0  0  0
   58.3522   21.0364   45.3464 H   0  0  0  0  0  0  0  0  0  0  0  0
   58.3399   29.4474   45.6633 H   0  0  0  0  0  0  0  0  0  0  0  0
  1  2  1  0
  2  3  2  0
  2  4  2  0
  2  5  1  0
  5  6  2  0
  6  7  1  0
  7  8  2  0
  8  9  1  0
  9 10  1  0
 10 11  1  0
 11 12  2  3
 12 13  1  0
 13 14  1  0
 14 15  2  0
 15 16  1  0
 16 17  2  0
 16 18  1  0
 18 19  1  0
 19 20  1  0
 20 21  2  0
 21 22  1  0
 22 23  2  0
 23 24  1  0
 24 25  2  0
 15 26  1  0
 26 27  2  0
 26 28  1  0
  9 29  2  0
 29  5  1  0
 28 12  1  0
 25 20  1  0
  1 30  1  0
  1 31  1  0
  6 32  1  0
  7 33  1  0
  8 34  1  0
 10 35  1  0
 10 36  1  0
 14 37  1  0
 19 38  1  0
 19 39  1  0
 21 40  1  0
 22 41  1  0
 23 42  1  0
 24 43  1  0
 25 44  1  0
 29 45  1  0
M  CHG  3  13  -1  18  -1  28  -1
M  END
>  <UniqueID>  (36) 
33

>  <SMILES>  (36) 
NS(=O)(=O)c1cccc(CN=c2[n-]cc(C(=O)[N-]Cc3ccccc3)c(=O)[n-]2)c1

>  <Energy>  (36) 
46.3807013250031

>  <Genealogy>  (36) 
NS(=O)(=O)c1cccc(CN=c2[n-]cc(C(=O)[N-]Cc3ccccc3)c(=O)[n-]2)c1 (protonated)
NS(=O)(=O)c1cccc(CN=c2[n-]cc(C(=O)[N-]Cc3ccccc3)c(=O)[n-]2)c1 (3D coordinates assigned)
NS(=O)(=O)c1cccc(CN=c2[n-]cc(C(=O)[N-]Cc3ccccc3)c(=O)[n-]2)c1 (optimized conformer: 46.3807013250031 kcal/mol)

>  <smiles>  (36) 
NS(=O)(=O)c1cccc(CN=c2[nH]cc(C(=O)NCc3ccccc3)c(=O)[nH]2)c1

>  <score_type>  (36) 
oracle

>  <origin>  (36) 
adg

>  <m_score__min__energy>  (36) 
-13.550000000000001

>  <m_primary>  (36) 
energy

$$$$
36:0
     RDKit          3D

 58 61  0  0  0  0  0  0  0  0999 V2000
   51.9230   31.7520   49.8020 H   0  0  0  0  0  0  0  0  0  0  0  0
   51.4030   32.4540   50.3770 N   0  0  0  0  0  0  0  0  0  0  0  0
   51.2620   32.3130   51.6580 C   0  0  0  0  0  0  0  0  0  0  0  0
   50.4100   33.1350   52.3340 N   0  0  0  0  0  0  0  0  0  0  0  0
   50.2270   33.0440   53.6760 C   0  0  0  0  0  0  0  0  0  0  0  0
   49.5238   33.7217   54.1822 H   0  0  0  0  0  0  0  0  0  0  0  0
   50.9300   32.0920   54.4130 C   0  0  0  0  0  0  0  0  0  0  0  0
   50.7921   32.0185   55.5018 H   0  0  0  0  0  0  0  0  0  0  0  0
   51.8100   31.2340   53.7540 C   0  0  0  0  0  0  0  0  0  0  0  0
   52.3645   30.4760   54.3267 H   0  0  0  0  0  0  0  0  0  0  0  0
   51.9940   31.3300   52.3640 C   0  0  0  0  0  0  0  0  0  0  0  0
   52.9150   30.3870   51.6820 C   0  0  0  0  0  0  0  0  0  0  0  0
   52.5190   29.7330   50.6780 O   0  0  0  0  0  0  0  0  0  0  0  0
   54.2460   30.1790   52.1730 N   0  0  0  0  0  0  0  0  0  0  0  0
   54.7370   28.8110   52.3720 C   0  0  0  0  0  0  0  0  0  0  0  0
   53.8800   28.1279   52.4667 H   0  0  0  0  0  0  0  0  0  0  0  0
   55.3544   28.5229   51.5084 H   0  0  0  0  0  0  0  0  0  0  0  0
   55.5920   28.7320   53.6470 C   0  0  0  0  0  0  0  0  0  0  0  0
   54.9166   28.7109   54.5150 H   0  0  0  0  0  0  0  0  0  0  0  0
   56.2040   27.8219   53.5624 H   0  0  0  0  0  0  0  0  0  0  0  0
   56.5790   29.9210   53.8250 C   0  0  0  0  0  0  0  0  0  0  0  0
   56.2429   30.5211   54.6835 H   0  0  0  0  0  0  0  0  0  0  0  0
   57.9230   29.3920   54.0710 N   0  0  0  0  0  0  0  0  0  0  0  0
   58.9980   30.0500   54.3970 C   0  0  0  0  0  0  0  0  0  0  0  0
   59.2840   31.2400   53.7160 C   0  0  0  0  0  0  0  0  0  0  0  0
   58.6178   31.5871   52.9125 H   0  0  0  0  0  0  0  0  0  0  0  0
   60.4200   31.9900   54.0580 C   0  0  0  0  0  0  0  0  0  0  0  0
   60.7540   33.1850   53.4050 O   0  0  0  0  0  0  0  0  0  0  0  0
   60.7560   33.3260   52.0130 C   0  0  0  0  0  0  0  0  0  0  0  0
   59.5570   33.6420   51.3410 C   0  0  0  0  0  0  0  0  0  0  0  0
   58.2780   33.8260   52.1080 C   0  0  0  0  0  0  0  0  0  0  0  0
   58.4899   33.7955   53.1870 H   0  0  0  0  0  0  0  0  0  0  0  0
   57.8318   34.7976   51.8493 H   0  0  0  0  0  0  0  0  0  0  0  0
   57.5760   33.0196   51.8493 H   0  0  0  0  0  0  0  0  0  0  0  0
   59.5840   33.8730   49.9560 C   0  0  0  0  0  0  0  0  0  0  0  0
   58.6581   34.1495   49.4304 H   0  0  0  0  0  0  0  0  0  0  0  0
   60.7800   33.7540   49.2400 C   0  0  0  0  0  0  0  0  0  0  0  0
   60.8080   34.0200   47.8250 C   0  0  0  0  0  0  0  0  0  0  0  0
   60.8250   34.2250   46.6840 N   0  0  0  0  0  0  0  0  0  0  0  0
   61.9590   33.4040   49.9030 C   0  0  0  0  0  0  0  0  0  0  0  0
   62.8973   33.3103   49.3365 H   0  0  0  0  0  0  0  0  0  0  0  0
   61.9540   33.1710   51.2880 C   0  0  0  0  0  0  0  0  0  0  0  0
   63.2490   32.8710   51.9940 C   0  0  0  0  0  0  0  0  0  0  0  0
   63.0906   32.9077   53.0819 H   0  0  0  0  0  0  0  0  0  0  0  0
   63.5987   31.8680   51.7080 H   0  0  0  0  0  0  0  0  0  0  0  0
   64.0041   33.6180   51.7080 H   0  0  0  0  0  0  0  0  0  0  0  0
   61.2480   31.5350   55.0830 C   0  0  0  0  0  0  0  0  0  0  0  0
   62.1333   32.1180   55.3769 H   0  0  0  0  0  0  0  0  0  0  0  0
   60.9500   30.3360   55.7360 C   0  0  0  0  0  0  0  0  0  0  0  0
   61.6027   29.9738   56.5440 H   0  0  0  0  0  0  0  0  0  0  0  0
   59.8510   29.6140   55.3730 N   0  0  0  0  0  0  0  0  0  0  0  0
   59.6910   28.7140   55.8730 H   0  0  0  0  0  0  0  0  0  0  0  0
   56.5900   30.8570   52.6020 C   0  0  0  0  0  0  0  0  0  0  0  0
   57.2128   31.7360   52.8245 H   0  0  0  0  0  0  0  0  0  0  0  0
   56.9994   30.3105   51.7396 H   0  0  0  0  0  0  0  0  0  0  0  0
   55.1670   31.3190   52.2660 C   0  0  0  0  0  0  0  0  0  0  0  0
   54.8156   32.0006   53.0546 H   0  0  0  0  0  0  0  0  0  0  0  0
   55.1878   31.8300   51.2921 H   0  0  0  0  0  0  0  0  0  0  0  0
  1  2  1  0
  2  3  2  0
  3  4  1  0
  4  5  1  0
  5  6  1  0
  5  7  2  0
  7  8  1  0
  7  9  1  0
  9 10  1  0
  9 11  2  0
 11 12  1  0
 12 13  2  0
 12 14  1  0
 14 15  1  0
 15 16  1  0
 15 17  1  0
 15 18  1  0
 18 19  1  0
 18 20  1  0
 18 21  1  0
 21 22  1  0
 21 23  1  0
 23 24  2  0
 24 25  1  0
 25 26  1  0
 25 27  2  0
 27 28  1  0
 28 29  1  0
 29 30  2  0
 30 31  1  0
 31 32  1  0
 31 33  1  0
 31 34  1  0
 30 35  1  0
 35 36  1  0
 35 37  2  0
 37 38  1  0
 38 39  3  0
 37 40  1  0
 40 41  1  0
 40 42  2  0
 42 43  1  0
 43 44  1  0
 43 45  1  0
 43 46  1  0
 27 47  1  0
 47 48  1  0
 47 49  2  0
 49 50  1  0
 49 51  1  0
 51 52  1  0
 21 53  1  0
 53 54  1  0
 53 55  1  0
 53 56  1  0
 56 57  1  0
 56 58  1  0
 11  3  1  0
 56 14  1  0
 51 24  1  0
 42 29  1  0
M  CHG  1   4  -1
M  END
>  <UniqueID>  (37) 
34

>  <SMILES>  (37) 
[H]/N=c1\[n-]cccc1C(=O)N1CCC(/N=c2/cc(Oc3c(C)cc(C#N)cc3C)cc[nH]2)CC1

>  <Energy>  (37) 
80.83781609385474

>  <Genealogy>  (37) 
Cc1cc(C#N)cc(C)c1Oc1cc[nH]c(=NC2CCN(C(=O)c3ccc[n-]c3=N)CC2)c1 (protonated)
[H]/N=c1\[n-]cccc1C(=O)N1CCC(/N=c2/cc(Oc3c(C)cc(C#N)cc3C)cc[nH]2)CC1 (cis-trans isomerization)
[H]/N=c1\[n-]cccc1C(=O)N1CCC(/N=c2/cc(Oc3c(C)cc(C#N)cc3C)cc[nH]2)CC1 (3D coordinates assigned)
[H]/N=c1\[n-]cccc1C(=O)N1CCC(/N=c2/cc(Oc3c(C)cc(C#N)cc3C)cc[nH]2)CC1 (nonaromatic ring conformer: 80.83781609385474 kcal/mol)

>  <smiles>  (37) 
Cc1cc(C#N)cc(C)c1Oc1cc[nH]c(=NC2CCN(C(=O)c3ccc[nH]c3=N)CC2)c1

>  <score_type>  (37) 
oracle

>  <origin>  (37) 
adg

>  <m_score__min__energy>  (37) 
-11.369999999999999

>  <m_primary>  (37) 
energy

$$$$
37:0
     RDKit          3D

 49 52  0  0  0  0  0  0  0  0999 V2000
   57.7650   25.1920   47.5510 C   0  0  0  0  0  0  0  0  0  0  0  0
   57.9600   26.0640   46.5480 C   0  0  0  0  0  0  0  0  0  0  0  0
   57.6480   25.8760   45.1930 C   0  0  0  0  0  0  0  0  0  0  0  0
   56.9020   24.9380   44.5790 C   0  0  0  0  0  0  0  0  0  0  0  0
   55.5050   24.6060   44.9040 C   0  0  0  0  0  0  0  0  0  0  0  0
   54.9440   23.3940   44.7320 N   0  0  0  0  0  0  0  0  0  0  0  0
   53.7240   23.5330   45.2920 C   0  0  0  0  0  0  0  0  0  0  0  0
   52.8800   22.6000   45.3170 O   0  0  0  0  0  0  0  0  0  0  0  0
   53.4830   24.7460   45.8340 N   0  0  0  0  0  0  0  0  0  0  0  0
   54.6270   25.4060   45.5920 C   0  0  0  0  0  0  0  0  0  0  0  0
   54.8660   26.7120   46.0010 O   0  0  0  0  0  0  0  0  0  0  0  0
   58.2660   26.9090   44.5060 C   0  0  0  0  0  0  0  0  0  0  0  0
   58.8570   27.7210   45.4530 C   0  0  0  0  0  0  0  0  0  0  0  0
   59.6160   28.9750   45.1400 C   0  0  0  0  0  0  0  0  0  0  0  0
   58.6730   27.2110   46.6910 N   0  0  0  0  0  0  0  0  0  0  0  0
   59.1810   27.7720   47.9170 C   0  0  0  0  0  0  0  0  0  0  0  0
   60.3640   27.2790   48.4820 C   0  0  0  0  0  0  0  0  0  0  0  0
   60.8540   27.8250   49.6690 C   0  0  0  0  0  0  0  0  0  0  0  0
   60.1680   28.8650   50.3010 C   0  0  0  0  0  0  0  0  0  0  0  0
   58.9770   29.3730   49.7490 C   0  0  0  0  0  0  0  0  0  0  0  0
   58.2470   30.4770   50.4140 C   0  0  0  0  0  0  0  0  0  0  0  0
   57.3990   30.2180   51.3120 O   0  0  0  0  0  0  0  0  0  0  0  0
   58.5400   31.8400   50.0760 N   0  0  0  0  0  0  0  0  0  0  0  0
   59.6780   32.3110   49.3400 C   0  0  0  0  0  0  0  0  0  0  0  0
   59.6100   32.5990   47.9660 C   0  0  0  0  0  0  0  0  0  0  0  0
   60.7470   33.0360   47.2790 C   0  0  0  0  0  0  0  0  0  0  0  0
   61.9750   33.1810   47.9490 C   0  0  0  0  0  0  0  0  0  0  0  0
   63.1780   33.6480   47.2220 C   0  0  0  0  0  0  0  0  0  0  0  0
   64.4800   33.4610   47.7760 N   0  0  0  0  0  0  0  0  0  0  0  0
   63.0650   34.2190   46.1030 O   0  0  0  0  0  0  0  0  0  0  0  0
   62.0420   32.8660   49.3180 C   0  0  0  0  0  0  0  0  0  0  0  0
   60.9050   32.4270   50.0010 C   0  0  0  0  0  0  0  0  0  0  0  0
   58.4930   28.8170   48.5500 C   0  0  0  0  0  0  0  0  0  0  0  0
   58.0546   25.4608   48.5776 H   0  0  0  0  0  0  0  0  0  0  0  0
   57.3157   24.2091   47.3458 H   0  0  0  0  0  0  0  0  0  0  0  0
   57.3772   24.3712   43.7648 H   0  0  0  0  0  0  0  0  0  0  0  0
   58.2824   27.0539   43.4157 H   0  0  0  0  0  0  0  0  0  0  0  0
   59.9138   29.4670   46.0777 H   0  0  0  0  0  0  0  0  0  0  0  0
   60.5140   28.7241   44.5563 H   0  0  0  0  0  0  0  0  0  0  0  0
   58.9772   29.6542   44.5563 H   0  0  0  0  0  0  0  0  0  0  0  0
   60.9079   26.4598   47.9890 H   0  0  0  0  0  0  0  0  0  0  0  0
   61.7839   27.4351   50.1087 H   0  0  0  0  0  0  0  0  0  0  0  0
   60.5613   29.2898   51.2364 H   0  0  0  0  0  0  0  0  0  0  0  0
   58.6577   32.4801   47.4284 H   0  0  0  0  0  0  0  0  0  0  0  0
   60.6803   33.2682   46.2059 H   0  0  0  0  0  0  0  0  0  0  0  0
   65.2620   33.0870   47.1940 H   0  0  0  0  0  0  0  0  0  0  0  0
   62.9968   32.9660   49.8551 H   0  0  0  0  0  0  0  0  0  0  0  0
   60.9755   32.1703   51.0683 H   0  0  0  0  0  0  0  0  0  0  0  0
   57.5654   29.2063   48.1049 H   0  0  0  0  0  0  0  0  0  0  0  0
  1  2  2  0
  2  3  1  0
  3  4  2  3
  4  5  1  0
  5  6  1  0
  6  7  1  0
  7  8  2  0
  7  9  1  0
  9 10  1  0
 10 11  1  0
  3 12  1  0
 12 13  2  0
 13 14  1  0
 13 15  1  0
 15 16  1  0
 16 17  2  0
 17 18  1  0
 18 19  2  0
 19 20  1  0
 20 21  1  0
 21 22  2  0
 21 23  1  0
 23 24  1  0
 24 25  2  0
 25 26  1  0
 26 27  2  0
 27 28  1  0
 28 29  1  0
 28 30  2  0
 27 31  1  0
 31 32  2  0
 20 33  2  0
 15  2  1  0
 33 16  1  0
 10  5  2  0
 32 24  1  0
  1 34  1  0
  1 35  1  0
  4 36  1  0
 12 37  1  0
 14 38  1  0
 14 39  1  0
 14 40  1  0
 17 41  1  0
 18 42  1  0
 19 43  1  0
 25 44  1  0
 26 45  1  0
 29 46  1  0
 31 47  1  0
 32 48  1  0
 33 49  1  0
M  CHG  5   6  -1   9  -1  11  -1  23  -1  29  -1
M  END
>  <UniqueID>  (38) 
35

>  <SMILES>  (38) 
C=c1c(=Cc2[n-]c(=O)[n-]c2[O-])cc(C)n1-c1cccc(C(=O)[N-]c2ccc(C([NH-])=O)cc2)c1

>  <Energy>  (38) 
132.78705123533473

>  <Genealogy>  (38) 
C=c1c(=Cc2[n-]c(=O)[n-]c2[O-])cc(C)n1-c1cccc(C(=O)[N-]c2ccc(C([NH-])=O)cc2)c1 (protonated)
C=c1c(=Cc2[n-]c(=O)[n-]c2[O-])cc(C)n1-c1cccc(C(=O)[N-]c2ccc(C([NH-])=O)cc2)c1 (3D coordinates assigned)
C=c1c(=Cc2[n-]c(=O)[n-]c2[O-])cc(C)n1-c1cccc(C(=O)[N-]c2ccc(C([NH-])=O)cc2)c1 (optimized conformer: 132.78705123533473 kcal/mol)

>  <smiles>  (38) 
C=c1c(=Cc2[nH]c(=O)[nH]c2O)cc(C)n1-c1cccc(C(=O)Nc2ccc(C(N)=O)cc2)c1

>  <score_type>  (38) 
oracle

>  <origin>  (38) 
adg

>  <m_score__min__energy>  (38) 
-21.309999999999999

>  <m_primary>  (38) 
energy

$$$$
38:0
     RDKit          3D

 47 49  0  0  0  0  0  0  0  0999 V2000
   57.3880   21.6260   43.3920 C   0  0  0  0  0  0  0  0  0  0  0  0
   57.3350   22.2920   44.7050 N   0  0  0  0  0  0  0  0  0  0  0  0
   58.4920   23.2030   44.8610 C   0  0  0  0  0  0  0  0  0  0  0  0
   58.2590   24.2510   45.9540 C   0  0  0  0  0  0  0  0  0  0  0  0
   57.0520   25.0350   45.6560 N   0  0  0  0  0  0  0  0  0  0  0  0
   56.8920   26.3820   46.1500 C   0  0  0  0  0  0  0  0  0  0  0  0
   56.0340   27.1420   45.6180 O   0  0  0  0  0  0  0  0  0  0  0  0
   57.7760   26.9220   47.2470 C   0  0  0  0  0  0  0  0  0  0  0  0
   59.0700   27.5420   46.7060 C   0  0  0  0  0  0  0  0  0  0  0  0
   59.1550   27.3750   44.8870 S   0  0  0  0  0  0  0  0  0  0  0  0
   58.1900   28.8520   44.5540 C   0  0  0  0  0  0  0  0  0  0  0  0
   58.6510   30.0620   44.9610 N   0  0  0  0  0  0  0  0  0  0  0  0
   57.9460   31.2040   44.7450 C   0  0  0  0  0  0  0  0  0  0  0  0
   58.4760   32.4920   45.2580 C   0  0  0  0  0  0  0  0  0  0  0  0
   59.0050   32.6050   46.5600 C   0  0  0  0  0  0  0  0  0  0  0  0
   59.5170   33.8260   47.0120 C   0  0  0  0  0  0  0  0  0  0  0  0
   59.5090   34.9430   46.1750 C   0  0  0  0  0  0  0  0  0  0  0  0
   58.9780   34.8460   44.8870 C   0  0  0  0  0  0  0  0  0  0  0  0
   58.4570   33.6330   44.4330 C   0  0  0  0  0  0  0  0  0  0  0  0
   56.7110   31.1240   44.0820 C   0  0  0  0  0  0  0  0  0  0  0  0
   56.2560   29.8730   43.6640 C   0  0  0  0  0  0  0  0  0  0  0  0
   56.9990   28.7620   43.9020 N   0  0  0  0  0  0  0  0  0  0  0  0
   56.0290   24.4500   44.7800 C   0  0  0  0  0  0  0  0  0  0  0  0
   56.0100   22.9240   44.9350 C   0  0  0  0  0  0  0  0  0  0  0  0
   57.4745   20.5388   43.5355 H   0  0  0  0  0  0  0  0  0  0  0  0
   56.4692   21.8497   42.8300 H   0  0  0  0  0  0  0  0  0  0  0  0
   58.2598   21.9922   42.8300 H   0  0  0  0  0  0  0  0  0  0  0  0
   59.3788   22.6077   45.1240 H   0  0  0  0  0  0  0  0  0  0  0  0
   58.6350   23.7341   43.9084 H   0  0  0  0  0  0  0  0  0  0  0  0
   58.1334   23.7445   46.9223 H   0  0  0  0  0  0  0  0  0  0  0  0
   59.1257   24.9272   45.9937 H   0  0  0  0  0  0  0  0  0  0  0  0
   57.2201   27.6928   47.8009 H   0  0  0  0  0  0  0  0  0  0  0  0
   58.0550   26.0795   47.8969 H   0  0  0  0  0  0  0  0  0  0  0  0
   59.0982   28.6089   46.9724 H   0  0  0  0  0  0  0  0  0  0  0  0
   59.9274   27.0151   47.1501 H   0  0  0  0  0  0  0  0  0  0  0  0
   59.0152   31.7282   47.2242 H   0  0  0  0  0  0  0  0  0  0  0  0
   59.9269   33.9060   48.0296 H   0  0  0  0  0  0  0  0  0  0  0  0
   59.9208   35.8993   46.5298 H   0  0  0  0  0  0  0  0  0  0  0  0
   58.9703   35.7273   44.2288 H   0  0  0  0  0  0  0  0  0  0  0  0
   58.0280   33.5680   43.4222 H   0  0  0  0  0  0  0  0  0  0  0  0
   56.1143   32.0291   43.8959 H   0  0  0  0  0  0  0  0  0  0  0  0
   55.2926   29.7867   43.1402 H   0  0  0  0  0  0  0  0  0  0  0  0
   56.6440   27.8300   43.5900 H   0  0  0  0  0  0  0  0  0  0  0  0
   55.0430   24.8553   45.0514 H   0  0  0  0  0  0  0  0  0  0  0  0
   56.2635   24.7022   43.7353 H   0  0  0  0  0  0  0  0  0  0  0  0
   55.6801   22.6811   45.9559 H   0  0  0  0  0  0  0  0  0  0  0  0
   55.3240   22.5281   44.1717 H   0  0  0  0  0  0  0  0  0  0  0  0
  1  2  1  0
  2  3  1  0
  3  4  1  0
  4  5  1  0
  5  6  1  0
  6  7  2  0
  6  8  1  0
  8  9  1  0
  9 10  1  0
 10 11  1  0
 11 12  2  0
 12 13  1  0
 13 14  1  0
 14 15  2  0
 15 16  1  0
 16 17  2  0
 17 18  1  0
 18 19  2  0
 13 20  2  0
 20 21  1  0
 21 22  2  0
  5 23  1  0
 23 24  1  0
 24  2  1  0
 22 11  1  0
 19 14  1  0
  1 25  1  0
  1 26  1  0
  1 27  1  0
  3 28  1  0
  3 29  1  0
  4 30  1  0
  4 31  1  0
  8 32  1  0
  8 33  1  0
  9 34  1  0
  9 35  1  0
 15 36  1  0
 16 37  1  0
 17 38  1  0
 18 39  1  0
 19 40  1  0
 20 41  1  0
 21 42  1  0
 22 43  1  0
 23 44  1  0
 23 45  1  0
 24 46  1  0
 24 47  1  0
M  CHG  1  22   1
M  END
>  <UniqueID>  (39) 
36

>  <SMILES>  (39) 
CN1CCN(C(=O)CCSc2nc(-c3ccccc3)cc[nH+]2)CC1

>  <Energy>  (39) 
52.37813924990681

>  <Genealogy>  (39) 
CN1CCN(C(=O)CCSc2nc(-c3ccccc3)cc[nH+]2)CC1 (protonated)
CN1CCN(C(=O)CCSc2nc(-c3ccccc3)cc[nH+]2)CC1 (3D coordinates assigned)
CN1CCN(C(=O)CCSc2nc(-c3ccccc3)cc[nH+]2)CC1 (nonaromatic ring conformer: 52.37813924990681 kcal/mol)

>  <smiles>  (39) 
CN1CCN(C(=O)CCSc2nccc(-c3ccccc3)n2)CC1

>  <score_type>  (39) 
oracle

>  <origin>  (39) 
adg

>  <m_score__min__energy>  (39) 
-7.2699999999999996

>  <m_primary>  (39) 
energy

$$$$
39:0
     RDKit          3D

 64 68  0  0  0  0  0  0  0  0999 V2000
   60.0080   25.0500   46.0000 O   0  0  0  0  0  0  0  0  0  0  0  0
   59.5770   25.9000   46.8270 C   0  0  0  0  0  0  0  0  0  0  0  0
   58.1030   26.0450   47.0630 C   0  0  0  0  0  0  0  0  0  0  0  0
   57.2990   25.1250   46.1870 C   0  0  0  0  0  0  0  0  0  0  0  0
   57.3860   25.1240   44.7840 C   0  0  0  0  0  0  0  0  0  0  0  0
   56.5370   24.2080   44.1750 C   0  0  0  0  0  0  0  0  0  0  0  0
   55.6700   23.4180   45.3820 S   0  0  0  0  0  0  0  0  0  0  0  0
   56.3630   24.2230   46.6870 C   0  0  0  0  0  0  0  0  0  0  0  0
   60.4860   26.6410   47.6490 N   0  0  0  0  0  0  0  0  0  0  0  0
   60.2820   27.9650   48.1730 C   0  0  0  0  0  0  0  0  0  0  0  0
   60.2390   28.2100   49.5590 C   0  0  0  0  0  0  0  0  0  0  0  0
   60.0160   29.5020   50.0420 C   0  0  0  0  0  0  0  0  0  0  0  0
   59.8600   30.5740   49.1570 C   0  0  0  0  0  0  0  0  0  0  0  0
   59.4780   31.8530   49.6870 N   0  0  0  0  0  0  0  0  0  0  0  0
   59.9620   33.1200   49.2270 C   0  0  0  0  0  0  0  0  0  0  0  0
   59.3150   34.1650   49.5030 O   0  0  0  0  0  0  0  0  0  0  0  0
   61.2270   33.1840   48.4550 C   0  0  0  0  0  0  0  0  0  0  0  0
   62.4410   33.0090   49.1540 C   0  0  0  0  0  0  0  0  0  0  0  0
   63.6660   33.0950   48.4930 C   0  0  0  0  0  0  0  0  0  0  0  0
   63.7020   33.3430   47.1210 C   0  0  0  0  0  0  0  0  0  0  0  0
   62.5150   33.5130   46.4030 C   0  0  0  0  0  0  0  0  0  0  0  0
   61.2690   33.4430   47.0560 C   0  0  0  0  0  0  0  0  0  0  0  0
   60.0470   33.5670   46.2290 C   0  0  0  0  0  0  0  0  0  0  0  0
   59.6560   34.8240   45.7320 C   0  0  0  0  0  0  0  0  0  0  0  0
   58.5320   34.9310   44.9060 C   0  0  0  0  0  0  0  0  0  0  0  0
   57.8040   33.7930   44.5610 C   0  0  0  0  0  0  0  0  0  0  0  0
   58.1890   32.5390   45.0500 C   0  0  0  0  0  0  0  0  0  0  0  0
   59.3040   32.4270   45.8850 C   0  0  0  0  0  0  0  0  0  0  0  0
   59.9660   30.3450   47.7730 C   0  0  0  0  0  0  0  0  0  0  0  0
   60.1770   29.0500   47.2820 C   0  0  0  0  0  0  0  0  0  0  0  0
   60.2210   28.8320   45.8240 C   0  0  0  0  0  0  0  0  0  0  0  0
   61.3410   28.8890   45.2380 O   0  0  0  0  0  0  0  0  0  0  0  0
   59.0260   28.5450   45.0680 N   0  0  0  0  0  0  0  0  0  0  0  0
   57.6840   28.8000   45.6160 C   0  0  0  0  0  0  0  0  0  0  0  0
   56.7720   29.4710   44.5620 C   0  0  0  0  0  0  0  0  0  0  0  0
   57.0860   29.1100   43.1650 N   0  0  0  0  0  0  0  0  0  0  0  0
   57.7860   27.8260   43.0510 C   0  0  0  0  0  0  0  0  0  0  0  0
   59.1470   27.9000   43.7540 C   0  0  0  0  0  0  0  0  0  0  0  0
   57.8873   25.8112   48.1160 H   0  0  0  0  0  0  0  0  0  0  0  0
   57.8201   27.0796   46.8190 H   0  0  0  0  0  0  0  0  0  0  0  0
   58.0618   25.7853   44.2218 H   0  0  0  0  0  0  0  0  0  0  0  0
   56.4472   24.0303   43.0932 H   0  0  0  0  0  0  0  0  0  0  0  0
   56.1197   24.0647   47.7480 H   0  0  0  0  0  0  0  0  0  0  0  0
   60.3818   27.3792   50.2657 H   0  0  0  0  0  0  0  0  0  0  0  0
   59.9627   29.6775   51.1266 H   0  0  0  0  0  0  0  0  0  0  0  0
   62.4204   32.8021   50.2342 H   0  0  0  0  0  0  0  0  0  0  0  0
   64.6037   32.9673   49.0537 H   0  0  0  0  0  0  0  0  0  0  0  0
   64.6695   33.4051   46.6014 H   0  0  0  0  0  0  0  0  0  0  0  0
   62.5542   33.7028   45.3202 H   0  0  0  0  0  0  0  0  0  0  0  0
   60.2342   35.7226   45.9930 H   0  0  0  0  0  0  0  0  0  0  0  0
   58.2216   35.9161   44.5275 H   0  0  0  0  0  0  0  0  0  0  0  0
   56.9262   33.8806   43.9039 H   0  0  0  0  0  0  0  0  0  0  0  0
   57.6139   31.6419   44.7770 H   0  0  0  0  0  0  0  0  0  0  0  0
   59.6004   31.4417   46.2741 H   0  0  0  0  0  0  0  0  0  0  0  0
   59.8827   31.1884   47.0717 H   0  0  0  0  0  0  0  0  0  0  0  0
   57.2342   27.8448   45.9247 H   0  0  0  0  0  0  0  0  0  0  0  0
   57.7805   29.4773   46.4774 H   0  0  0  0  0  0  0  0  0  0  0  0
   55.7327   29.1756   44.7684 H   0  0  0  0  0  0  0  0  0  0  0  0
   56.9353   30.5552   44.6503 H   0  0  0  0  0  0  0  0  0  0  0  0
   57.7000   29.8540   42.7580 H   0  0  0  0  0  0  0  0  0  0  0  0
   57.1778   27.0379   43.5189 H   0  0  0  0  0  0  0  0  0  0  0  0
   57.9439   27.5968   41.9868 H   0  0  0  0  0  0  0  0  0  0  0  0
   59.5385   26.8808   43.8882 H   0  0  0  0  0  0  0  0  0  0  0  0
   59.8308   28.4966   43.1323 H   0  0  0  0  0  0  0  0  0  0  0  0
  1  2  2  0
  2  3  1  0
  3  4  1  0
  4  5  1  0
  5  6  2  0
  6  7  1  0
  7  8  1  0
  2  9  1  0
  9 10  1  0
 10 11  2  0
 11 12  1  0
 12 13  2  0
 13 14  1  0
 14 15  1  0
 15 16  2  0
 15 17  1  0
 17 18  2  0
 18 19  1  0
 19 20  2  0
 20 21  1  0
 21 22  2  0
 22 23  1  0
 23 24  2  0
 24 25  1  0
 25 26  2  0
 26 27  1  0
 27 28  2  0
 13 29  1  0
 29 30  2  0
 30 31  1  0
 31 32  2  0
 31 33  1  0
 33 34  1  0
 34 35  1  0
 35 36  1  0
 36 37  1  0
 37 38  1  0
  8  4  2  0
 30 10  1  0
 38 33  1  0
 22 17  1  0
 28 23  1  0
  3 39  1  0
  3 40  1  0
  5 41  1  0
  6 42  1  0
  8 43  1  0
 11 44  1  0
 12 45  1  0
 18 46  1  0
 19 47  1  0
 20 48  1  0
 21 49  1  0
 24 50  1  0
 25 51  1  0
 26 52  1  0
 27 53  1  0
 28 54  1  0
 29 55  1  0
 34 56  1  0
 34 57  1  0
 35 58  1  0
 35 59  1  0
 36 60  1  0
 37 61  1  0
 37 62  1  0
 38 63  1  0
 38 64  1  0
M  CHG  2   9  -1  14  -1
M  END
>  <UniqueID>  (40) 
37

>  <SMILES>  (40) 
O=C(Cc1ccsc1)[N-]c1ccc([N-]C(=O)c2ccccc2-c2ccccc2)cc1C(=O)N1CCNCC1

>  <Energy>  (40) 
126.40030809793092

>  <Genealogy>  (40) 
O=C(Cc1ccsc1)[N-]c1ccc([N-]C(=O)c2ccccc2-c2ccccc2)cc1C(=O)N1CCNCC1 (protonated)
O=C(Cc1ccsc1)[N-]c1ccc([N-]C(=O)c2ccccc2-c2ccccc2)cc1C(=O)N1CCNCC1 (3D coordinates assigned)
O=C(Cc1ccsc1)[N-]c1ccc([N-]C(=O)c2ccccc2-c2ccccc2)cc1C(=O)N1CCNCC1 (nonaromatic ring conformer: 126.40030809793092 kcal/mol)

>  <smiles>  (40) 
O=C(Cc1ccsc1)Nc1ccc(NC(=O)c2ccccc2-c2ccccc2)cc1C(=O)N1CCNCC1

>  <score_type>  (40) 
oracle

>  <origin>  (40) 
adg

>  <m_score__min__energy>  (40) 
-12.779999999999999

>  <m_primary>  (40) 
energy

$$$$
40:0
     RDKit          3D

 49 52  0  0  0  0  0  0  0  0999 V2000
   57.4619   31.7291   41.1396 H   0  0  0  0  0  0  0  0  0  0  0  0
   57.4310   31.7110   42.2390 C   0  0  0  0  0  0  0  0  0  0  0  0
   56.7790   30.7080   42.8830 N   0  0  0  0  0  0  0  0  0  0  0  0
   56.7100   30.6480   44.2430 C   0  0  0  0  0  0  0  0  0  0  0  0
   56.0750   29.6860   44.8480 N   0  0  0  0  0  0  0  0  0  0  0  0
   56.6480   28.5080   45.4390 C   0  0  0  0  0  0  0  0  0  0  0  0
   55.9590   27.4650   45.6170 O   0  0  0  0  0  0  0  0  0  0  0  0
   58.0600   28.5220   45.8400 C   0  0  0  0  0  0  0  0  0  0  0  0
   58.5460   29.2710   46.8490 N   0  0  0  0  0  0  0  0  0  0  0  0
   59.8460   29.0360   46.9190 N   0  0  0  0  0  0  0  0  0  0  0  0
   60.7200   29.6090   47.9330 C   0  0  0  0  0  0  0  0  0  0  0  0
   60.3361   29.3573   48.9326 H   0  0  0  0  0  0  0  0  0  0  0  0
   61.7345   29.2001   47.8162 H   0  0  0  0  0  0  0  0  0  0  0  0
   60.7496   30.7024   47.8162 H   0  0  0  0  0  0  0  0  0  0  0  0
   60.2020   28.1330   45.9860 C   0  0  0  0  0  0  0  0  0  0  0  0
   61.2167   27.7395   45.8264 H   0  0  0  0  0  0  0  0  0  0  0  0
   59.0810   27.7850   45.2650 C   0  0  0  0  0  0  0  0  0  0  0  0
   59.0126   27.0807   44.4228 H   0  0  0  0  0  0  0  0  0  0  0  0
   57.3300   31.6430   45.0080 C   0  0  0  0  0  0  0  0  0  0  0  0
   57.2693   31.6108   46.1058 H   0  0  0  0  0  0  0  0  0  0  0  0
   58.0300   32.6830   44.3730 C   0  0  0  0  0  0  0  0  0  0  0  0
   58.6900   33.7510   45.1580 C   0  0  0  0  0  0  0  0  0  0  0  0
   58.5120   34.9550   44.8280 O   0  0  0  0  0  0  0  0  0  0  0  0
   59.5760   33.4440   46.3030 C   0  0  0  0  0  0  0  0  0  0  0  0
   60.9600   33.5760   46.3400 C   0  0  0  0  0  0  0  0  0  0  0  0
   61.5799   33.9023   45.4920 H   0  0  0  0  0  0  0  0  0  0  0  0
   61.4410   33.2470   47.5660 N   0  0  0  0  0  0  0  0  0  0  0  0
   62.8460   33.3320   47.9980 C   0  0  0  0  0  0  0  0  0  0  0  0
   62.9169   34.0583   48.8210 H   0  0  0  0  0  0  0  0  0  0  0  0
   63.3390   31.9810   48.5310 C   0  0  0  0  0  0  0  0  0  0  0  0
   63.3333   31.9966   49.6309 H   0  0  0  0  0  0  0  0  0  0  0  0
   62.6749   31.1808   48.1722 H   0  0  0  0  0  0  0  0  0  0  0  0
   64.3624   31.7966   48.1722 H   0  0  0  0  0  0  0  0  0  0  0  0
   63.7220   33.8220   46.8430 C   0  0  0  0  0  0  0  0  0  0  0  0
   64.6151   34.3216   47.2465 H   0  0  0  0  0  0  0  0  0  0  0  0
   64.0288   32.9645   46.2261 H   0  0  0  0  0  0  0  0  0  0  0  0
   63.1519   34.5322   46.2261 H   0  0  0  0  0  0  0  0  0  0  0  0
   60.3600   32.9420   48.3180 C   0  0  0  0  0  0  0  0  0  0  0  0
   60.3130   32.5740   49.6670 C   0  0  0  0  0  0  0  0  0  0  0  0
   61.2295   32.4990   50.2707 H   0  0  0  0  0  0  0  0  0  0  0  0
   59.0510   32.3040   50.2210 C   0  0  0  0  0  0  0  0  0  0  0  0
   58.9717   32.0086   51.2776 H   0  0  0  0  0  0  0  0  0  0  0  0
   57.9180   32.4050   49.4580 N   0  0  0  0  0  0  0  0  0  0  0  0
   56.9920   32.1970   49.8940 H   0  0  0  0  0  0  0  0  0  0  0  0
   57.9670   32.7740   48.1440 C   0  0  0  0  0  0  0  0  0  0  0  0
   57.0468   32.8516   47.5463 H   0  0  0  0  0  0  0  0  0  0  0  0
   59.2110   33.0500   47.5780 C   0  0  0  0  0  0  0  0  0  0  0  0
   58.0620   32.7190   42.9710 C   0  0  0  0  0  0  0  0  0  0  0  0
   58.5816   33.5372   42.4508 H   0  0  0  0  0  0  0  0  0  0  0  0
  1  2  1  0
  2  3  1  0
  3  4  1  0
  4  5  2  0
  5  6  1  0
  6  7  2  0
  6  8  1  0
  8  9  2  0
  9 10  1  0
 10 11  1  0
 11 12  1  0
 11 13  1  0
 11 14  1  0
 10 15  1  0
 15 16  1  0
 15 17  2  0
 17 18  1  0
  4 19  1  0
 19 20  1  0
 19 21  2  0
 21 22  1  0
 22 23  2  0
 22 24  1  0
 24 25  2  0
 25 26  1  0
 25 27  1  0
 27 28  1  0
 28 29  1  0
 28 30  1  0
 30 31  1  0
 30 32  1  0
 30 33  1  0
 28 34  1  0
 34 35  1  0
 34 36  1  0
 34 37  1  0
 27 38  1  0
 38 39  2  0
 39 40  1  0
 39 41  1  0
 41 42  1  0
 41 43  2  0
 43 44  1  0
 43 45  1  0
 45 46  1  0
 45 47  2  0
 21 48  1  0
 48 49  1  0
 48  2  2  0
 17  8  1  0
 47 24  1  0
 47 38  1  0
M  CHG  2   3  -1  43   1
M  END
>  <UniqueID>  (41) 
38

>  <SMILES>  (41) 
CC(C)n1cc(C(=O)c2cc[n-]/c(=N\C(=O)c3ccn(C)n3)c2)c2c[nH+]ccc21

>  <Energy>  (41) 
119.53077830119531

>  <Genealogy>  (41) 
CC(C)n1cc(C(=O)c2cc[n-]c(=NC(=O)c3ccn(C)n3)c2)c2c[nH+]ccc21 (protonated)
CC(C)n1cc(C(=O)c2cc[n-]/c(=N\C(=O)c3ccn(C)n3)c2)c2c[nH+]ccc21 (cis-trans isomerization)
CC(C)n1cc(C(=O)c2cc[n-]/c(=N\C(=O)c3ccn(C)n3)c2)c2c[nH+]ccc21 (3D coordinates assigned)
CC(C)n1cc(C(=O)c2cc[n-]/c(=N\C(=O)c3ccn(C)n3)c2)c2c[nH+]ccc21 (optimized conformer: 119.53077830119531 kcal/mol)

>  <smiles>  (41) 
CC(C)n1cc(C(=O)c2cc[nH]c(=NC(=O)c3ccn(C)n3)c2)c2cnccc21

>  <score_type>  (41) 
oracle

>  <origin>  (41) 
adg

>  <m_score__min__energy>  (41) 
-9.9299999999999997

>  <m_primary>  (41) 
energy

$$$$
41:0
     RDKit          3D

 61 63  0  0  0  0  0  0  0  0999 V2000
   61.5397   32.3752   46.7345 H   0  0  0  0  0  0  0  0  0  0  0  0
   62.0470   32.7270   47.6450 C   0  0  0  0  0  0  0  0  0  0  0  0
   63.3990   32.7360   47.7760 N   0  0  0  0  0  0  0  0  0  0  0  0
   63.7780   33.2140   48.9830 C   0  0  0  0  0  0  0  0  0  0  0  0
   65.0150   33.3200   49.3730 N   0  0  0  0  0  0  0  0  0  0  0  0
   65.6870   32.4340   50.2840 C   0  0  0  0  0  0  0  0  0  0  0  0
   65.2830   31.2510   50.4630 O   0  0  0  0  0  0  0  0  0  0  0  0
   66.8860   32.9160   51.0350 C   0  0  0  0  0  0  0  0  0  0  0  0
   67.1931   32.1552   51.7676 H   0  0  0  0  0  0  0  0  0  0  0  0
   66.6434   33.8489   51.5649 H   0  0  0  0  0  0  0  0  0  0  0  0
   67.9370   33.1450   50.1210 O   0  0  0  0  0  0  0  0  0  0  0  0
   68.6540   34.2960   50.5140 C   0  0  0  0  0  0  0  0  0  0  0  0
   68.6876   34.3499   51.6122 H   0  0  0  0  0  0  0  0  0  0  0  0
   69.6789   34.2426   50.1180 H   0  0  0  0  0  0  0  0  0  0  0  0
   68.1542   35.1923   50.1180 H   0  0  0  0  0  0  0  0  0  0  0  0
   62.4620   33.6490   49.9360 S   0  0  0  0  0  0  0  0  0  0  0  0
   61.3580   33.1980   48.7540 C   0  0  0  0  0  0  0  0  0  0  0  0
   59.5780   33.2820   48.9260 S   0  0  0  0  0  0  0  0  0  0  0  0
   59.3310   33.6900   47.2000 C   0  0  0  0  0  0  0  0  0  0  0  0
   59.4860   35.0100   46.7660 C   0  0  0  0  0  0  0  0  0  0  0  0
   59.7577   35.7968   47.4851 H   0  0  0  0  0  0  0  0  0  0  0  0
   59.2960   35.3300   45.4200 C   0  0  0  0  0  0  0  0  0  0  0  0
   59.4245   36.3681   45.0797 H   0  0  0  0  0  0  0  0  0  0  0  0
   58.9430   34.3350   44.5040 C   0  0  0  0  0  0  0  0  0  0  0  0
   58.7768   34.5967   43.4486 H   0  0  0  0  0  0  0  0  0  0  0  0
   58.7990   32.9980   44.9260 C   0  0  0  0  0  0  0  0  0  0  0  0
   58.4000   31.9570   44.0150 N   0  0  0  0  0  0  0  0  0  0  0  0
   58.9460   31.8370   43.1340 H   0  0  0  0  0  0  0  0  0  0  0  0
   57.2850   31.0820   44.2330 C   0  0  0  0  0  0  0  0  0  0  0  0
   56.2630   31.4900   44.8470 O   0  0  0  0  0  0  0  0  0  0  0  0
   57.3160   29.6880   43.6910 C   0  0  0  0  0  0  0  0  0  0  0  0
   56.3261   29.4375   43.2820 H   0  0  0  0  0  0  0  0  0  0  0  0
   58.0802   29.6323   42.9018 H   0  0  0  0  0  0  0  0  0  0  0  0
   57.6660   28.7050   44.7730 C   0  0  0  0  0  0  0  0  0  0  0  0
   58.9750   28.6390   45.2820 C   0  0  0  0  0  0  0  0  0  0  0  0
   59.7486   29.3177   44.8935 H   0  0  0  0  0  0  0  0  0  0  0  0
   59.2970   27.7160   46.2780 C   0  0  0  0  0  0  0  0  0  0  0  0
   60.3180   27.6808   46.6859 H   0  0  0  0  0  0  0  0  0  0  0  0
   58.3210   26.8350   46.7580 C   0  0  0  0  0  0  0  0  0  0  0  0
   58.5804   26.1089   47.5425 H   0  0  0  0  0  0  0  0  0  0  0  0
   57.0140   26.8700   46.2470 C   0  0  0  0  0  0  0  0  0  0  0  0
   56.0930   25.8590   46.6790 N   0  0  0  0  0  0  0  0  0  0  0  0
   55.1730   25.1170   45.8720 C   0  0  0  0  0  0  0  0  0  0  0  0
   54.0190   25.5610   45.6180 O   0  0  0  0  0  0  0  0  0  0  0  0
   55.6180   23.8160   45.2680 C   0  0  0  0  0  0  0  0  0  0  0  0
   56.4463   23.4143   45.8702 H   0  0  0  0  0  0  0  0  0  0  0  0
   54.7504   23.1398   45.2635 H   0  0  0  0  0  0  0  0  0  0  0  0
   56.0990   23.9660   43.8030 C   0  0  0  0  0  0  0  0  0  0  0  0
   55.3007   24.5051   43.2718 H   0  0  0  0  0  0  0  0  0  0  0  0
   57.3820   24.8030   43.7080 C   0  0  0  0  0  0  0  0  0  0  0  0
   57.7423   25.0380   44.7204 H   0  0  0  0  0  0  0  0  0  0  0  0
   58.1524   24.2332   43.1678 H   0  0  0  0  0  0  0  0  0  0  0  0
   57.1709   25.7376   43.1678 H   0  0  0  0  0  0  0  0  0  0  0  0
   56.2780   22.6100   43.1010 C   0  0  0  0  0  0  0  0  0  0  0  0
   56.3827   21.8171   43.8562 H   0  0  0  0  0  0  0  0  0  0  0  0
   55.3993   22.4038   42.4722 H   0  0  0  0  0  0  0  0  0  0  0  0
   57.1801   22.6389   42.4722 H   0  0  0  0  0  0  0  0  0  0  0  0
   56.6910   27.8100   45.2520 C   0  0  0  0  0  0  0  0  0  0  0  0
   55.6695   27.8460   44.8454 H   0  0  0  0  0  0  0  0  0  0  0  0
   58.9890   32.6880   46.2820 C   0  0  0  0  0  0  0  0  0  0  0  0
   58.8684   31.6503   46.6266 H   0  0  0  0  0  0  0  0  0  0  0  0
  1  2  1  0
  2  3  1  0
  3  4  1  0
  4  5  2  0
  5  6  1  0
  6  7  2  0
  6  8  1  0
  8  9  1  0
  8 10  1  0
  8 11  1  0
 11 12  1  0
 12 13  1  0
 12 14  1  0
 12 15  1  0
  4 16  1  0
 16 17  1  0
 17 18  1  0
 18 19  1  0
 19 20  2  0
 20 21  1  0
 20 22  1  0
 22 23  1  0
 22 24  2  0
 24 25  1  0
 24 26  1  0
 26 27  1  0
 27 28  1  0
 27 29  1  0
 29 30  2  0
 29 31  1  0
 31 32  1  0
 31 33  1  0
 31 34  1  0
 34 35  2  0
 35 36  1  0
 35 37  1  0
 37 38  1  0
 37 39  2  0
 39 40  1  0
 39 41  1  0
 41 42  1  0
 42 43  1  0
 43 44  2  0
 43 45  1  0
 45 46  1  0
 45 47  1  0
 45 48  1  0
 48 49  1  0
 48 50  1  0
 50 51  1  0
 50 52  1  0
 50 53  1  0
 48 54  1  0
 54 55  1  0
 54 56  1  0
 54 57  1  0
 41 58  2  0
 58 59  1  0
 26 60  2  0
 60 61  1  0
 17  2  2  0
 60 19  1  0
 58 34  1  0
M  CHG  2   3  -1  42  -1
M  END
>  <UniqueID>  (42) 
39

>  <SMILES>  (42) 
COCC(=O)/N=c1\[n-]cc(Sc2cccc(NC(=O)Cc3cccc([N-]C(=O)CC(C)C)c3)c2)s1

>  <Energy>  (42) 
90.80587968610084

>  <Genealogy>  (42) 
COCC(=O)N=c1[n-]cc(Sc2cccc(NC(=O)Cc3cccc([N-]C(=O)CC(C)C)c3)c2)s1 (protonated)
COCC(=O)/N=c1\[n-]cc(Sc2cccc(NC(=O)Cc3cccc([N-]C(=O)CC(C)C)c3)c2)s1 (cis-trans isomerization)
COCC(=O)/N=c1\[n-]cc(Sc2cccc(NC(=O)Cc3cccc([N-]C(=O)CC(C)C)c3)c2)s1 (3D coordinates assigned)
COCC(=O)/N=c1\[n-]cc(Sc2cccc(NC(=O)Cc3cccc([N-]C(=O)CC(C)C)c3)c2)s1 (optimized conformer: 90.80587968610084 kcal/mol)

>  <smiles>  (42) 
COCC(=O)N=c1[nH]cc(Sc2cccc(NC(=O)Cc3cccc(NC(=O)CC(C)C)c3)c2)s1

>  <score_type>  (42) 
oracle

>  <origin>  (42) 
adg

>  <m_score__min__energy>  (42) 
-13.69

>  <m_primary>  (42) 
energy

$$$$
42:0
     RDKit          3D

 53 56  0  0  0  0  0  0  0  0999 V2000
   57.5730   32.7970   47.0140 O   0  0  0  0  0  0  0  0  0  0  0  0
   57.6970   32.3380   45.8470 C   0  0  0  0  0  0  0  0  0  0  0  0
   57.6440   30.8900   45.6090 C   0  0  0  0  0  0  0  0  0  0  0  0
   57.3960   30.1030   46.5630 O   0  0  0  0  0  0  0  0  0  0  0  0
   57.8790   30.3910   44.2780 N   0  0  0  0  0  0  0  0  0  0  0  0
   57.4790   29.0330   43.8890 C   0  0  0  0  0  0  0  0  0  0  0  0
   57.8570   28.0490   44.9680 C   0  0  0  0  0  0  0  0  0  0  0  0
   59.2090   27.7240   45.1760 C   0  0  0  0  0  0  0  0  0  0  0  0
   59.5710   26.7760   46.1390 C   0  0  0  0  0  0  0  0  0  0  0  0
   61.2600   26.3760   46.3850 Cl  0  0  0  0  0  0  0  0  0  0  0  0
   58.5840   26.1430   46.9000 C   0  0  0  0  0  0  0  0  0  0  0  0
   57.2380   26.4590   46.7030 C   0  0  0  0  0  0  0  0  0  0  0  0
   56.8690   27.4060   45.7410 C   0  0  0  0  0  0  0  0  0  0  0  0
   55.5230   27.7010   45.5630 O   0  0  0  0  0  0  0  0  0  0  0  0
   58.4380   31.3070   43.2730 C   0  0  0  0  0  0  0  0  0  0  0  0
   57.7610   32.6780   43.3720 C   0  0  0  0  0  0  0  0  0  0  0  0
   57.9180   33.2200   44.7300 N   0  0  0  0  0  0  0  0  0  0  0  0
   58.5090   34.5470   44.9370 C   0  0  0  0  0  0  0  0  0  0  0  0
   59.5050   34.4740   46.0500 C   0  0  0  0  0  0  0  0  0  0  0  0
   59.2960   34.9300   47.3470 C   0  0  0  0  0  0  0  0  0  0  0  0
   60.2520   34.4670   48.2570 C   0  0  0  0  0  0  0  0  0  0  0  0
   61.1990   33.6360   47.6740 C   0  0  0  0  0  0  0  0  0  0  0  0
   62.3850   32.6750   48.5440 S   0  0  0  0  0  0  0  0  0  0  0  0
   62.7660   33.3930   49.8090 O   0  0  0  0  0  0  0  0  0  0  0  0
   63.6160   32.5270   47.6950 O   0  0  0  0  0  0  0  0  0  0  0  0
   61.7480   31.0940   48.9420 N   0  0  0  0  0  0  0  0  0  0  0  0
   60.8150   31.1540   50.0900 C   0  0  0  0  0  0  0  0  0  0  0  0
   59.3410   31.0710   49.6460 C   0  0  0  0  0  0  0  0  0  0  0  0
   59.0290   29.9060   48.8940 O   0  0  0  0  0  0  0  0  0  0  0  0
   60.1280   29.3890   48.1540 C   0  0  0  0  0  0  0  0  0  0  0  0
   61.1570   30.4580   47.7490 C   0  0  0  0  0  0  0  0  0  0  0  0
   60.8600   33.4790   46.0380 S   0  0  0  0  0  0  0  0  0  0  0  0
   56.3900   29.0046   43.7368 H   0  0  0  0  0  0  0  0  0  0  0  0
   57.9959   28.7598   42.9572 H   0  0  0  0  0  0  0  0  0  0  0  0
   59.9878   28.2188   44.5771 H   0  0  0  0  0  0  0  0  0  0  0  0
   58.8678   25.3950   47.6550 H   0  0  0  0  0  0  0  0  0  0  0  0
   56.4646   25.9614   47.3065 H   0  0  0  0  0  0  0  0  0  0  0  0
   59.5181   31.4217   43.4468 H   0  0  0  0  0  0  0  0  0  0  0  0
   58.2611   30.8909   42.2702 H   0  0  0  0  0  0  0  0  0  0  0  0
   58.2243   33.3660   42.6495 H   0  0  0  0  0  0  0  0  0  0  0  0
   56.6895   32.5684   43.1488 H   0  0  0  0  0  0  0  0  0  0  0  0
   59.0114   34.8738   44.0146 H   0  0  0  0  0  0  0  0  0  0  0  0
   57.7186   35.2671   45.1953 H   0  0  0  0  0  0  0  0  0  0  0  0
   58.4619   35.5892   47.6292 H   0  0  0  0  0  0  0  0  0  0  0  0
   60.2533   34.7337   49.3242 H   0  0  0  0  0  0  0  0  0  0  0  0
   61.0296   30.3128   50.7655 H   0  0  0  0  0  0  0  0  0  0  0  0
   60.9621   32.1200   50.5952 H   0  0  0  0  0  0  0  0  0  0  0  0
   58.7076   31.0823   50.5453 H   0  0  0  0  0  0  0  0  0  0  0  0
   59.1575   31.9333   48.9882 H   0  0  0  0  0  0  0  0  0  0  0  0
   60.6367   28.6328   48.7700 H   0  0  0  0  0  0  0  0  0  0  0  0
   59.7197   28.9666   47.2240 H   0  0  0  0  0  0  0  0  0  0  0  0
   61.9559   29.9846   47.1594 H   0  0  0  0  0  0  0  0  0  0  0  0
   60.6480   31.2300   47.1532 H   0  0  0  0  0  0  0  0  0  0  0  0
  1  2  2  0
  2  3  1  0
  3  4  2  0
  3  5  1  0
  5  6  1  0
  6  7  1  0
  7  8  2  0
  8  9  1  0
  9 10  1  0
  9 11  2  0
 11 12  1  0
 12 13  2  0
 13 14  1  0
  5 15  1  0
 15 16  1  0
 16 17  1  0
 17 18  1  0
 18 19  1  0
 19 20  2  0
 20 21  1  0
 21 22  2  0
 22 23  1  0
 23 24  2  0
 23 25  2  0
 23 26  1  0
 26 27  1  0
 27 28  1  0
 28 29  1  0
 29 30  1  0
 30 31  1  0
 22 32  1  0
 17  2  1  0
 32 19  1  0
 13  7  1  0
 31 26  1  0
  6 33  1  0
  6 34  1  0
  8 35  1  0
 11 36  1  0
 12 37  1  0
 15 38  1  0
 15 39  1  0
 16 40  1  0
 16 41  1  0
 18 42  1  0
 18 43  1  0
 20 44  1  0
 21 45  1  0
 27 46  1  0
 27 47  1  0
 28 48  1  0
 28 49  1  0
 30 50  1  0
 30 51  1  0
 31 52  1  0
 31 53  1  0
M  CHG  1  14  -1
M  END
>  <UniqueID>  (43) 
40

>  <SMILES>  (43) 
O=C1C(=O)N(Cc2cc(Cl)ccc2[O-])CCN1Cc1ccc(S(=O)(=O)N2CCOCC2)s1

>  <Energy>  (43) 
86.45853327193637

>  <Genealogy>  (43) 
O=C1C(=O)N(Cc2cc(Cl)ccc2[O-])CCN1Cc1ccc(S(=O)(=O)N2CCOCC2)s1 (protonated)
O=C1C(=O)N(Cc2cc(Cl)ccc2[O-])CCN1Cc1ccc(S(=O)(=O)N2CCOCC2)s1 (3D coordinates assigned)
O=C1C(=O)N(Cc2cc(Cl)ccc2[O-])CCN1Cc1ccc(S(=O)(=O)N2CCOCC2)s1 (nonaromatic ring conformer: 86.45853327193637 kcal/mol)

>  <smiles>  (43) 
O=C1C(=O)N(Cc2cc(Cl)ccc2O)CCN1Cc1ccc(S(=O)(=O)N2CCOCC2)s1

>  <score_type>  (43) 
oracle

>  <origin>  (43) 
adg

>  <m_score__min__energy>  (43) 
-12.43

>  <m_primary>  (43) 
energy

$$$$
43:0
     RDKit          3D

 32 34  0  0  0  0  0  0  0  0999 V2000
   56.4940   29.9580   43.9770 C   0  0  0  0  0  0  0  0  0  0  0  0
   57.4590   29.7360   44.8840 C   0  0  0  0  0  0  0  0  0  0  0  0
   57.9750   28.4930   45.2960 C   0  0  0  0  0  0  0  0  0  0  0  0
   57.7140   27.2360   44.8830 C   0  0  0  0  0  0  0  0  0  0  0  0
   57.4220   26.0850   45.7550 C   0  0  0  0  0  0  0  0  0  0  0  0
   56.1260   25.8450   46.2580 C   0  0  0  0  0  0  0  0  0  0  0  0
   55.0570   26.6970   45.9760 O   0  0  0  0  0  0  0  0  0  0  0  0
   55.9020   24.7560   47.0380 N   0  0  0  0  0  0  0  0  0  0  0  0
   56.8980   23.8810   47.3330 C   0  0  0  0  0  0  0  0  0  0  0  0
   56.6610   22.8830   48.0600 O   0  0  0  0  0  0  0  0  0  0  0  0
   58.1460   24.0820   46.8410 N   0  0  0  0  0  0  0  0  0  0  0  0
   58.4280   25.1540   46.0570 C   0  0  0  0  0  0  0  0  0  0  0  0
   59.5980   25.3060   45.6150 O   0  0  0  0  0  0  0  0  0  0  0  0
   58.9120   28.7700   46.2760 C   0  0  0  0  0  0  0  0  0  0  0  0
   58.9550   30.1390   46.4190 C   0  0  0  0  0  0  0  0  0  0  0  0
   59.8460   30.8590   47.3860 C   0  0  0  0  0  0  0  0  0  0  0  0
   58.0840   30.7310   45.5700 N   0  0  0  0  0  0  0  0  0  0  0  0
   57.8330   32.1460   45.4790 C   0  0  0  0  0  0  0  0  0  0  0  0
   58.0250   32.9290   44.3610 C   0  0  0  0  0  0  0  0  0  0  0  0
   57.6710   34.1920   44.7830 C   0  0  0  0  0  0  0  0  0  0  0  0
   57.2980   34.1490   46.0780 N   0  0  0  0  0  0  0  0  0  0  0  0
   57.3980   32.8990   46.5050 N   0  0  0  0  0  0  0  0  0  0  0  0
   56.1824   30.9874   43.7463 H   0  0  0  0  0  0  0  0  0  0  0  0
   56.0151   29.1105   43.4648 H   0  0  0  0  0  0  0  0  0  0  0  0
   57.7196   27.0539   43.7982 H   0  0  0  0  0  0  0  0  0  0  0  0
   55.1410   27.4980   45.3630 H   0  0  0  0  0  0  0  0  0  0  0  0
   59.5097   28.0352   46.8353 H   0  0  0  0  0  0  0  0  0  0  0  0
   59.5436   30.6146   48.4150 H   0  0  0  0  0  0  0  0  0  0  0  0
   60.8886   30.5468   47.2263 H   0  0  0  0  0  0  0  0  0  0  0  0
   59.7596   31.9439   47.2263 H   0  0  0  0  0  0  0  0  0  0  0  0
   58.3777   32.6187   43.3663 H   0  0  0  0  0  0  0  0  0  0  0  0
   57.6898   35.0974   44.1586 H   0  0  0  0  0  0  0  0  0  0  0  0
  1  2  2  0
  2  3  1  0
  3  4  2  3
  4  5  1  0
  5  6  2  0
  6  7  1  0
  6  8  1  0
  8  9  1  0
  9 10  2  0
  9 11  1  0
 11 12  1  0
 12 13  2  0
  3 14  1  0
 14 15  2  0
 15 16  1  0
 15 17  1  0
 17 18  1  0
 18 19  1  0
 19 20  2  0
 20 21  1  0
 21 22  1  0
 17  2  1  0
 22 18  2  0
 12  5  1  0
  1 23  1  0
  1 24  1  0
  4 25  1  0
  7 26  1  0
 14 27  1  0
 16 28  1  0
 16 29  1  0
 16 30  1  0
 19 31  1  0
 20 32  1  0
M  CHG  3   8  -1  11  -1  21  -1
M  END
>  <UniqueID>  (44) 
41

>  <SMILES>  (44) 
C=c1c(=Cc2c(O)[n-]c(=O)[n-]c2=O)cc(C)n1-c1cc[n-]n1

>  <Energy>  (44) 
113.1351422044303

>  <Genealogy>  (44) 
C=c1c(=Cc2c(O)[n-]c(=O)[n-]c2=O)cc(C)n1-c1cc[n-]n1 (protonated)
C=c1c(=Cc2c(O)[n-]c(=O)[n-]c2=O)cc(C)n1-c1cc[n-]n1 (3D coordinates assigned)
C=c1c(=Cc2c(O)[n-]c(=O)[n-]c2=O)cc(C)n1-c1cc[n-]n1 (optimized conformer: 113.1351422044303 kcal/mol)

>  <smiles>  (44) 
C=c1c(=Cc2c(O)[nH]c(=O)[nH]c2=O)cc(C)n1-c1cc[nH]n1

>  <score_type>  (44) 
oracle

>  <origin>  (44) 
adg

>  <m_score__min__energy>  (44) 
-12.73

>  <m_primary>  (44) 
energy

$$$$
44:0
     RDKit          3D

 53 56  0  0  0  0  0  0  0  0999 V2000
   54.5780   25.0070   45.6120 C   0  0  0  0  0  0  0  0  0  0  0  0
   55.1250   26.2620   45.9860 O   0  0  0  0  0  0  0  0  0  0  0  0
   56.4970   26.5460   46.0200 C   0  0  0  0  0  0  0  0  0  0  0  0
   57.3790   25.5070   46.3340 C   0  0  0  0  0  0  0  0  0  0  0  0
   58.7550   25.7380   46.3740 C   0  0  0  0  0  0  0  0  0  0  0  0
   59.2630   27.0120   46.1110 C   0  0  0  0  0  0  0  0  0  0  0  0
   58.3960   28.0700   45.8070 C   0  0  0  0  0  0  0  0  0  0  0  0
   58.9380   29.4590   45.5790 C   0  0  0  0  0  0  0  0  0  0  0  0
   59.7390   29.9330   46.7740 C   0  0  0  0  0  0  0  0  0  0  0  0
   60.9200   30.5770   46.5770 N   0  0  0  0  0  0  0  0  0  0  0  0
   61.6860   30.9770   47.6240 C   0  0  0  0  0  0  0  0  0  0  0  0
   62.9080   31.6260   47.3970 C   0  0  0  0  0  0  0  0  0  0  0  0
   63.6910   31.9940   48.4420 N   0  0  0  0  0  0  0  0  0  0  0  0
   63.3280   31.7520   49.7260 C   0  0  0  0  0  0  0  0  0  0  0  0
   64.0880   32.1060   50.6680 O   0  0  0  0  0  0  0  0  0  0  0  0
   62.1190   31.1170   50.0070 C   0  0  0  0  0  0  0  0  0  0  0  0
   61.2600   30.7310   48.9500 C   0  0  0  0  0  0  0  0  0  0  0  0
   60.0440   30.1180   49.1650 N   0  0  0  0  0  0  0  0  0  0  0  0
   59.5450   29.8410   50.5340 C   0  0  0  0  0  0  0  0  0  0  0  0
   58.2640   30.5740   50.8120 C   0  0  0  0  0  0  0  0  0  0  0  0
   57.3900   30.0760   51.5710 O   0  0  0  0  0  0  0  0  0  0  0  0
   58.0540   31.8570   50.2180 N   0  0  0  0  0  0  0  0  0  0  0  0
   59.1090   32.8530   50.0570 C   0  0  0  0  0  0  0  0  0  0  0  0
   59.1410   33.3440   48.6370 C   0  0  0  0  0  0  0  0  0  0  0  0
   58.1670   32.9120   47.7230 C   0  0  0  0  0  0  0  0  0  0  0  0
   58.2220   33.3240   46.3880 C   0  0  0  0  0  0  0  0  0  0  0  0
   59.2510   34.1620   45.9530 C   0  0  0  0  0  0  0  0  0  0  0  0
   60.2210   34.5980   46.8570 C   0  0  0  0  0  0  0  0  0  0  0  0
   60.1670   34.1930   48.1940 C   0  0  0  0  0  0  0  0  0  0  0  0
   59.2900   29.7070   48.0880 C   0  0  0  0  0  0  0  0  0  0  0  0
   58.1890   29.1120   48.2650 O   0  0  0  0  0  0  0  0  0  0  0  0
   57.0120   27.8310   45.7550 C   0  0  0  0  0  0  0  0  0  0  0  0
   54.3275   24.4322   46.5158 H   0  0  0  0  0  0  0  0  0  0  0  0
   53.6679   25.1669   45.0152 H   0  0  0  0  0  0  0  0  0  0  0  0
   55.3146   24.4492   45.0152 H   0  0  0  0  0  0  0  0  0  0  0  0
   56.9863   24.5026   46.5506 H   0  0  0  0  0  0  0  0  0  0  0  0
   59.4421   24.9131   46.6137 H   0  0  0  0  0  0  0  0  0  0  0  0
   60.3487   27.1857   46.1426 H   0  0  0  0  0  0  0  0  0  0  0  0
   59.5876   29.4503   44.6913 H   0  0  0  0  0  0  0  0  0  0  0  0
   58.0912   30.1452   45.4307 H   0  0  0  0  0  0  0  0  0  0  0  0
   61.2520   30.7520   45.6010 H   0  0  0  0  0  0  0  0  0  0  0  0
   63.2331   31.8376   46.3676 H   0  0  0  0  0  0  0  0  0  0  0  0
   61.8326   30.9160   51.0499 H   0  0  0  0  0  0  0  0  0  0  0  0
   59.3682   28.7603   50.6381 H   0  0  0  0  0  0  0  0  0  0  0  0
   60.3025   30.1851   51.2535 H   0  0  0  0  0  0  0  0  0  0  0  0
   58.9156   33.7005   50.7311 H   0  0  0  0  0  0  0  0  0  0  0  0
   60.0784   32.3945   50.3021 H   0  0  0  0  0  0  0  0  0  0  0  0
   57.3575   32.2469   48.0583 H   0  0  0  0  0  0  0  0  0  0  0  0
   57.4523   32.9870   45.6781 H   0  0  0  0  0  0  0  0  0  0  0  0
   59.2970   34.4777   44.9003 H   0  0  0  0  0  0  0  0  0  0  0  0
   61.0296   35.2616   46.5168 H   0  0  0  0  0  0  0  0  0  0  0  0
   60.9328   34.5416   48.9026 H   0  0  0  0  0  0  0  0  0  0  0  0
   56.3253   28.6533   45.5055 H   0  0  0  0  0  0  0  0  0  0  0  0
  1  2  1  0
  2  3  1  0
  3  4  2  0
  4  5  1  0
  5  6  2  0
  6  7  1  0
  7  8  1  0
  8  9  1  0
  9 10  2  0
 10 11  1  0
 11 12  2  0
 12 13  1  0
 13 14  1  0
 14 15  2  0
 14 16  1  0
 16 17  2  0
 17 18  1  0
 18 19  1  0
 19 20  1  0
 20 21  2  0
 20 22  1  0
 22 23  1  0
 23 24  1  0
 24 25  2  0
 25 26  1  0
 26 27  2  0
 27 28  1  0
 28 29  2  0
 18 30  1  0
 30 31  2  0
  7 32  2  0
 32  3  1  0
 30  9  1  0
 17 11  1  0
 29 24  1  0
  1 33  1  0
  1 34  1  0
  1 35  1  0
  4 36  1  0
  5 37  1  0
  6 38  1  0
  8 39  1  0
  8 40  1  0
 10 41  1  0
 12 42  1  0
 16 43  1  0
 19 44  1  0
 19 45  1  0
 23 46  1  0
 23 47  1  0
 25 48  1  0
 26 49  1  0
 27 50  1  0
 28 51  1  0
 29 52  1  0
 32 53  1  0
M  CHG  3  10   1  13  -1  22  -1
M  END
>  <UniqueID>  (45) 
42

>  <SMILES>  (45) 
COc1cccc(Cc2[nH+]c3c[n-]c(=O)cc3n(CC(=O)[N-]Cc3ccccc3)c2=O)c1

>  <Energy>  (45) 
65.72151343109967

>  <Genealogy>  (45) 
COc1cccc(Cc2[nH+]c3c[n-]c(=O)cc3n(CC(=O)[N-]Cc3ccccc3)c2=O)c1 (protonated)
COc1cccc(Cc2[nH+]c3c[n-]c(=O)cc3n(CC(=O)[N-]Cc3ccccc3)c2=O)c1 (3D coordinates assigned)
COc1cccc(Cc2[nH+]c3c[n-]c(=O)cc3n(CC(=O)[N-]Cc3ccccc3)c2=O)c1 (optimized conformer: 65.72151343109967 kcal/mol)

>  <smiles>  (45) 
COc1cccc(Cc2nc3c[nH]c(=O)cc3n(CC(=O)NCc3ccccc3)c2=O)c1

>  <score_type>  (45) 
oracle

>  <origin>  (45) 
adg

>  <m_score__min__energy>  (45) 
-10.33

>  <m_primary>  (45) 
energy

$$$$
45:0
     RDKit          3D

 51 54  0  0  0  0  0  0  0  0999 V2000
   59.8040   29.8900   47.0320 C   0  0  0  0  0  0  0  0  0  0  0  0
   58.9750   30.7720   46.4470 C   0  0  0  0  0  0  0  0  0  0  0  0
   58.1680   30.5320   45.3320 C   0  0  0  0  0  0  0  0  0  0  0  0
   58.0270   29.3770   44.6540 C   0  0  0  0  0  0  0  0  0  0  0  0
   57.4270   28.1560   45.2370 C   0  0  0  0  0  0  0  0  0  0  0  0
   56.0340   27.9890   45.3270 C   0  0  0  0  0  0  0  0  0  0  0  0
   55.1670   28.9760   44.8700 O   0  0  0  0  0  0  0  0  0  0  0  0
   55.5220   26.8450   45.8490 N   0  0  0  0  0  0  0  0  0  0  0  0
   56.3320   25.8420   46.2720 C   0  0  0  0  0  0  0  0  0  0  0  0
   55.8340   24.7920   46.7550 O   0  0  0  0  0  0  0  0  0  0  0  0
   57.6800   25.9670   46.1680 N   0  0  0  0  0  0  0  0  0  0  0  0
   58.2430   27.0920   45.6560 C   0  0  0  0  0  0  0  0  0  0  0  0
   59.4980   27.1730   45.5720 O   0  0  0  0  0  0  0  0  0  0  0  0
   57.4960   31.7190   45.0740 C   0  0  0  0  0  0  0  0  0  0  0  0
   57.9200   32.6280   46.0230 C   0  0  0  0  0  0  0  0  0  0  0  0
   57.4390   34.0440   46.1130 C   0  0  0  0  0  0  0  0  0  0  0  0
   58.8150   32.0550   46.8620 N   0  0  0  0  0  0  0  0  0  0  0  0
   59.4920   32.7130   47.9930 C   0  0  0  0  0  0  0  0  0  0  0  0
   60.9830   32.8660   47.7450 C   0  0  0  0  0  0  0  0  0  0  0  0
   61.4250   33.6480   46.6570 C   0  0  0  0  0  0  0  0  0  0  0  0
   62.7850   33.7650   46.3650 C   0  0  0  0  0  0  0  0  0  0  0  0
   63.7280   33.1170   47.1590 C   0  0  0  0  0  0  0  0  0  0  0  0
   63.3180   32.3750   48.2660 C   0  0  0  0  0  0  0  0  0  0  0  0
   61.9540   32.2620   48.5920 C   0  0  0  0  0  0  0  0  0  0  0  0
   61.5940   31.5320   49.8300 C   0  0  0  0  0  0  0  0  0  0  0  0
   61.5450   30.2720   49.8250 O   0  0  0  0  0  0  0  0  0  0  0  0
   61.2480   32.2770   51.0100 N   0  0  0  0  0  0  0  0  0  0  0  0
   60.0510   32.5550   51.4440 C   0  0  0  0  0  0  0  0  0  0  0  0
   59.7450   33.8000   51.9100 N   0  0  0  0  0  0  0  0  0  0  0  0
   58.5040   34.1160   52.3660 C   0  0  0  0  0  0  0  0  0  0  0  0
   57.4940   33.1540   52.3660 C   0  0  0  0  0  0  0  0  0  0  0  0
   57.7740   31.8710   51.8950 C   0  0  0  0  0  0  0  0  0  0  0  0
   59.0550   31.5590   51.4290 C   0  0  0  0  0  0  0  0  0  0  0  0
   59.3120   30.2670   50.9640 O   0  0  0  0  0  0  0  0  0  0  0  0
   60.3950   30.1895   47.9101 H   0  0  0  0  0  0  0  0  0  0  0  0
   59.8913   28.8688   46.6326 H   0  0  0  0  0  0  0  0  0  0  0  0
   58.3763   29.3390   43.6116 H   0  0  0  0  0  0  0  0  0  0  0  0
   56.7675   31.9002   44.2700 H   0  0  0  0  0  0  0  0  0  0  0  0
   57.3413   34.3316   47.1702 H   0  0  0  0  0  0  0  0  0  0  0  0
   58.1617   34.7089   45.6174 H   0  0  0  0  0  0  0  0  0  0  0  0
   56.4608   34.1312   45.6174 H   0  0  0  0  0  0  0  0  0  0  0  0
   59.0513   33.7100   48.1408 H   0  0  0  0  0  0  0  0  0  0  0  0
   59.3561   32.0849   48.8858 H   0  0  0  0  0  0  0  0  0  0  0  0
   60.6883   34.1723   46.0307 H   0  0  0  0  0  0  0  0  0  0  0  0
   63.1124   34.3699   45.5065 H   0  0  0  0  0  0  0  0  0  0  0  0
   64.7975   33.1906   46.9125 H   0  0  0  0  0  0  0  0  0  0  0  0
   64.0699   31.8720   48.8919 H   0  0  0  0  0  0  0  0  0  0  0  0
   58.2961   35.1311   52.7353 H   0  0  0  0  0  0  0  0  0  0  0  0
   56.4878   33.4042   52.7333 H   0  0  0  0  0  0  0  0  0  0  0  0
   56.9859   31.1036   51.8902 H   0  0  0  0  0  0  0  0  0  0  0  0
   60.2480   29.9410   50.7620 H   0  0  0  0  0  0  0  0  0  0  0  0
  1  2  2  0
  2  3  1  0
  3  4  2  3
  4  5  1  0
  5  6  2  0
  6  7  1  0
  6  8  1  0
  8  9  1  0
  9 10  2  0
  9 11  1  0
 11 12  1  0
 12 13  2  0
  3 14  1  0
 14 15  2  0
 15 16  1  0
 15 17  1  0
 17 18  1  0
 18 19  1  0
 19 20  2  0
 20 21  1  0
 21 22  2  0
 22 23  1  0
 23 24  2  0
 24 25  1  0
 25 26  2  0
 25 27  1  0
 27 28  2  3
 28 29  1  0
 29 30  1  0
 30 31  2  0
 31 32  1  0
 32 33  2  0
 33 34  1  0
 17  2  1  0
 24 19  1  0
 33 28  1  0
 12  5  1  0
  1 35  1  0
  1 36  1  0
  4 37  1  0
 14 38  1  0
 16 39  1  0
 16 40  1  0
 16 41  1  0
 18 42  1  0
 18 43  1  0
 20 44  1  0
 21 45  1  0
 22 46  1  0
 23 47  1  0
 30 48  1  0
 31 49  1  0
 32 50  1  0
 34 51  1  0
M  CHG  4   7  -1   8  -1  11  -1  29  -1
M  END
>  <UniqueID>  (46) 
43

>  <SMILES>  (46) 
C=c1c(=Cc2c([O-])[n-]c(=O)[n-]c2=O)cc(C)n1Cc1ccccc1C(=O)N=c1[n-]cccc1O

>  <Energy>  (46) 
104.20541496414145

>  <Genealogy>  (46) 
C=c1c(=Cc2c([O-])[n-]c(=O)[n-]c2=O)cc(C)n1Cc1ccccc1C(=O)N=c1[n-]cccc1O (protonated)
C=c1c(=Cc2c([O-])[n-]c(=O)[n-]c2=O)cc(C)n1Cc1ccccc1C(=O)N=c1[n-]cccc1O (3D coordinates assigned)
C=c1c(=Cc2c([O-])[n-]c(=O)[n-]c2=O)cc(C)n1Cc1ccccc1C(=O)N=c1[n-]cccc1O (optimized conformer: 104.20541496414145 kcal/mol)

>  <smiles>  (46) 
C=c1c(=Cc2c(O)[nH]c(=O)[nH]c2=O)cc(C)n1Cc1ccccc1C(=O)N=c1[nH]cccc1O

>  <score_type>  (46) 
oracle

>  <origin>  (46) 
adg

>  <m_score__min__energy>  (46) 
-17.510000000000002

>  <m_primary>  (46) 
energy

$$$$
46:0
     RDKit          3D

 38 40  0  0  0  0  0  0  0  0999 V2000
   56.0830   20.8880   42.6570 O   0  0  0  0  0  0  0  0  0  0  0  0
   56.2700   20.3910   43.8000 C   0  0  0  0  0  0  0  0  0  0  0  0
   55.3340   19.5110   44.3290 O   0  0  0  0  0  0  0  0  0  0  0  0
   57.5090   20.7130   44.5730 C   0  0  0  0  0  0  0  0  0  0  0  0
   57.6360   22.2020   44.7580 C   0  0  0  0  0  0  0  0  0  0  0  0
   56.6120   23.0600   44.3310 C   0  0  0  0  0  0  0  0  0  0  0  0
   56.7380   24.4440   44.4940 C   0  0  0  0  0  0  0  0  0  0  0  0
   57.8960   24.9900   45.0800 C   0  0  0  0  0  0  0  0  0  0  0  0
   58.0650   26.4010   45.2770 N   0  0  0  0  0  0  0  0  0  0  0  0
   57.0300   27.4070   46.2410 S   0  0  0  0  0  0  0  0  0  0  0  0
   55.6080   26.9540   46.0610 O   0  0  0  0  0  0  0  0  0  0  0  0
   57.4250   27.3070   47.6890 O   0  0  0  0  0  0  0  0  0  0  0  0
   57.2040   29.0840   45.7150 C   0  0  0  0  0  0  0  0  0  0  0  0
   58.3180   29.8250   46.1390 C   0  0  0  0  0  0  0  0  0  0  0  0
   58.4870   31.1620   45.7340 C   0  0  0  0  0  0  0  0  0  0  0  0
   59.5940   31.9280   46.1520 C   0  0  0  0  0  0  0  0  0  0  0  0
   60.5500   31.3570   46.9970 O   0  0  0  0  0  0  0  0  0  0  0  0
   59.7280   33.2240   45.7340 N   0  0  0  0  0  0  0  0  0  0  0  0
   60.8030   33.9710   46.1640 O   0  0  0  0  0  0  0  0  0  0  0  0
   58.8130   33.8010   44.9020 C   0  0  0  0  0  0  0  0  0  0  0  0
   58.9670   34.9930   44.5200 O   0  0  0  0  0  0  0  0  0  0  0  0
   57.6960   33.0820   44.4700 C   0  0  0  0  0  0  0  0  0  0  0  0
   57.5230   31.7580   44.8890 C   0  0  0  0  0  0  0  0  0  0  0  0
   56.4010   31.0210   44.4820 C   0  0  0  0  0  0  0  0  0  0  0  0
   56.2330   29.6960   44.9010 C   0  0  0  0  0  0  0  0  0  0  0  0
   55.0920   29.0020   44.5060 O   0  0  0  0  0  0  0  0  0  0  0  0
   58.9240   24.1320   45.4860 C   0  0  0  0  0  0  0  0  0  0  0  0
   58.7990   22.7470   45.3240 C   0  0  0  0  0  0  0  0  0  0  0  0
   57.4583   20.2277   45.5588 H   0  0  0  0  0  0  0  0  0  0  0  0
   58.3839   20.3451   44.0170 H   0  0  0  0  0  0  0  0  0  0  0  0
   55.7063   22.6433   43.8662 H   0  0  0  0  0  0  0  0  0  0  0  0
   55.9274   25.1095   44.1623 H   0  0  0  0  0  0  0  0  0  0  0  0
   59.0665   29.3559   46.7945 H   0  0  0  0  0  0  0  0  0  0  0  0
   61.3500   31.8770   47.3330 H   0  0  0  0  0  0  0  0  0  0  0  0
   56.9574   33.5533   43.8050 H   0  0  0  0  0  0  0  0  0  0  0  0
   55.6483   31.4873   43.8293 H   0  0  0  0  0  0  0  0  0  0  0  0
   59.8372   24.5488   45.9358 H   0  0  0  0  0  0  0  0  0  0  0  0
   59.6162   22.0828   45.6418 H   0  0  0  0  0  0  0  0  0  0  0  0
  1  2  2  0
  2  3  1  0
  2  4  1  0
  4  5  1  0
  5  6  2  0
  6  7  1  0
  7  8  2  0
  8  9  1  0
  9 10  1  0
 10 11  2  0
 10 12  2  0
 10 13  1  0
 13 14  2  0
 14 15  1  0
 15 16  2  0
 16 17  1  0
 16 18  1  0
 18 19  1  0
 18 20  1  0
 20 21  2  0
 20 22  1  0
 22 23  2  0
 23 24  1  0
 24 25  2  0
 25 26  1  0
  8 27  1  0
 27 28  2  0
 28  5  1  0
 25 13  1  0
 23 15  1  0
  4 29  1  0
  4 30  1  0
  6 31  1  0
  7 32  1  0
 14 33  1  0
 17 34  1  0
 22 35  1  0
 24 36  1  0
 27 37  1  0
 28 38  1  0
M  CHG  4   3  -1   9  -1  19  -1  26  -1
M  END
>  <UniqueID>  (47) 
44

>  <SMILES>  (47) 
O=C([O-])Cc1ccc([N-]S(=O)(=O)c2cc3c(O)n([O-])c(=O)cc3cc2[O-])cc1

>  <Energy>  (47) 
49.76647946339078

>  <Genealogy>  (47) 
O=C([O-])Cc1ccc([N-]S(=O)(=O)c2cc3c(O)n([O-])c(=O)cc3cc2[O-])cc1 (protonated)
O=C([O-])Cc1ccc([N-]S(=O)(=O)c2cc3c(O)n([O-])c(=O)cc3cc2[O-])cc1 (3D coordinates assigned)
O=C([O-])Cc1ccc([N-]S(=O)(=O)c2cc3c(O)n([O-])c(=O)cc3cc2[O-])cc1 (optimized conformer: 49.76647946339078 kcal/mol)

>  <smiles>  (47) 
O=C(O)Cc1ccc(NS(=O)(=O)c2cc3c(O)n(O)c(=O)cc3cc2O)cc1

>  <score_type>  (47) 
oracle

>  <origin>  (47) 
adg

>  <m_score__min__energy>  (47) 
-13.41

>  <m_primary>  (47) 
energy

$$$$
47:0
     RDKit          3D

 42 44  0  0  0  0  0  0  0  0999 V2000
   56.0369   26.6683   46.8602 H   0  0  0  0  0  0  0  0  0  0  0  0
   56.6430   27.1930   46.1070 C   0  0  0  0  0  0  0  0  0  0  0  0
   56.1160   28.0930   45.2360 N   0  0  0  0  0  0  0  0  0  0  0  0
   57.0590   28.5930   44.4060 C   0  0  0  0  0  0  0  0  0  0  0  0
   56.8290   29.4700   43.4740 N   0  0  0  0  0  0  0  0  0  0  0  0
   56.8950   30.8980   43.6100 C   0  0  0  0  0  0  0  0  0  0  0  0
   57.0560   31.5950   42.5750 O   0  0  0  0  0  0  0  0  0  0  0  0
   56.8350   31.5220   44.9020 N   0  0  0  0  0  0  0  0  0  0  0  0
   57.6450   32.6100   45.3670 C   0  0  0  0  0  0  0  0  0  0  0  0
   58.2530   33.4460   44.4210 C   0  0  0  0  0  0  0  0  0  0  0  0
   58.0886   33.2669   43.3482 H   0  0  0  0  0  0  0  0  0  0  0  0
   59.0670   34.5060   44.8310 C   0  0  0  0  0  0  0  0  0  0  0  0
   59.5302   35.1646   44.0816 H   0  0  0  0  0  0  0  0  0  0  0  0
   59.2930   34.7300   46.1920 C   0  0  0  0  0  0  0  0  0  0  0  0
   59.9279   35.5685   46.5142 H   0  0  0  0  0  0  0  0  0  0  0  0
   58.7110   33.8870   47.1430 C   0  0  0  0  0  0  0  0  0  0  0  0
   58.9480   34.0910   48.4620 F   0  0  0  0  0  0  0  0  0  0  0  0
   57.8960   32.8260   46.7360 C   0  0  0  0  0  0  0  0  0  0  0  0
   57.4496   32.1580   47.4873 H   0  0  0  0  0  0  0  0  0  0  0  0
   58.5820   27.9470   44.7080 S   0  0  0  0  0  0  0  0  0  0  0  0
   58.0100   26.9900   45.9680 C   0  0  0  0  0  0  0  0  0  0  0  0
   59.0010   25.8500   46.9300 S   0  0  0  0  0  0  0  0  0  0  0  0
   60.5240   26.8640   46.8790 C   0  0  0  0  0  0  0  0  0  0  0  0
   60.5174   27.4685   45.9600 H   0  0  0  0  0  0  0  0  0  0  0  0
   61.3868   26.1820   46.9008 H   0  0  0  0  0  0  0  0  0  0  0  0
   60.6310   27.7990   48.0840 C   0  0  0  0  0  0  0  0  0  0  0  0
   61.6726   28.1361   48.1911 H   0  0  0  0  0  0  0  0  0  0  0  0
   60.3171   27.2568   48.9882 H   0  0  0  0  0  0  0  0  0  0  0  0
   59.7670   28.9570   47.9000 N   0  0  0  0  0  0  0  0  0  0  0  0
   60.1980   30.1580   47.2520 C   0  0  0  0  0  0  0  0  0  0  0  0
   60.2620   30.2020   45.9950 O   0  0  0  0  0  0  0  0  0  0  0  0
   60.5550   31.3270   48.0070 N   0  0  0  0  0  0  0  0  0  0  0  0
   61.6770   31.9860   47.9550 C   0  0  0  0  0  0  0  0  0  0  0  0
   62.6470   31.8190   48.8990 N   0  0  0  0  0  0  0  0  0  0  0  0
   63.8240   32.4980   48.8520 C   0  0  0  0  0  0  0  0  0  0  0  0
   64.5826   32.3380   49.6323 H   0  0  0  0  0  0  0  0  0  0  0  0
   64.0700   33.3980   47.8140 C   0  0  0  0  0  0  0  0  0  0  0  0
   65.0198   33.9511   47.7705 H   0  0  0  0  0  0  0  0  0  0  0  0
   63.0970   33.5880   46.8320 C   0  0  0  0  0  0  0  0  0  0  0  0
   63.2775   34.2923   46.0066 H   0  0  0  0  0  0  0  0  0  0  0  0
   61.8930   32.8820   46.8990 C   0  0  0  0  0  0  0  0  0  0  0  0
   61.1210   33.0282   46.1292 H   0  0  0  0  0  0  0  0  0  0  0  0
  1  2  1  0
  2  3  1  0
  3  4  1  0
  4  5  2  0
  5  6  1  0
  6  7  2  0
  6  8  1  0
  8  9  1  0
  9 10  2  0
 10 11  1  0
 10 12  1  0
 12 13  1  0
 12 14  2  0
 14 15  1  0
 14 16  1  0
 16 17  1  0
 16 18  2  0
 18 19  1  0
  4 20  1  0
 20 21  1  0
 21 22  1  0
 22 23  1  0
 23 24  1  0
 23 25  1  0
 23 26  1  0
 26 27  1  0
 26 28  1  0
 26 29  1  0
 29 30  1  0
 30 31  2  0
 30 32  1  0
 32 33  2  3
 33 34  1  0
 34 35  1  0
 35 36  1  0
 35 37  2  0
 37 38  1  0
 37 39  1  0
 39 40  1  0
 39 41  2  0
 41 42  1  0
 21  2  2  0
 41 33  1  0
 18  9  1  0
M  CHG  4   3  -1   8  -1  29  -1  34  -1
M  END
>  <UniqueID>  (48) 
45

>  <SMILES>  (48) 
O=C(N=c1cccc[n-]1)[N-]CCSc1c[n-]/c(=N\C(=O)[N-]c2cccc(F)c2)s1

>  <Energy>  (48) 
75.81636173431866

>  <Genealogy>  (48) 
O=C(N=c1cccc[n-]1)[N-]CCSc1c[n-]c(=NC(=O)[N-]c2cccc(F)c2)s1 (protonated)
O=C(N=c1cccc[n-]1)[N-]CCSc1c[n-]/c(=N\C(=O)[N-]c2cccc(F)c2)s1 (cis-trans isomerization)
O=C(N=c1cccc[n-]1)[N-]CCSc1c[n-]/c(=N\C(=O)[N-]c2cccc(F)c2)s1 (3D coordinates assigned)
O=C(N=c1cccc[n-]1)[N-]CCSc1c[n-]/c(=N\C(=O)[N-]c2cccc(F)c2)s1 (optimized conformer: 75.81636173431866 kcal/mol)

>  <smiles>  (48) 
O=C(N=c1cccc[nH]1)NCCSc1c[nH]c(=NC(=O)Nc2cccc(F)c2)s1

>  <score_type>  (48) 
oracle

>  <origin>  (48) 
adg

>  <m_score__min__energy>  (48) 
-12.039999999999999

>  <m_primary>  (48) 
energy

$$$$
48:0
     RDKit          3D

 43 45  0  0  0  0  0  0  0  0999 V2000
   63.4010   31.6030   47.0890 C   0  0  0  0  0  0  0  0  0  0  0  0
   61.9080   31.5020   47.1460 C   0  0  0  0  0  0  0  0  0  0  0  0
   61.3500   30.4800   46.6630 O   0  0  0  0  0  0  0  0  0  0  0  0
   61.0760   32.5650   47.7610 C   0  0  0  0  0  0  0  0  0  0  0  0
   61.2580   32.8730   49.1210 C   0  0  0  0  0  0  0  0  0  0  0  0
   60.5040   33.8820   49.7280 C   0  0  0  0  0  0  0  0  0  0  0  0
   59.5570   34.5910   48.9870 C   0  0  0  0  0  0  0  0  0  0  0  0
   59.3510   34.2810   47.6410 C   0  0  0  0  0  0  0  0  0  0  0  0
   60.0890   33.2610   47.0280 C   0  0  0  0  0  0  0  0  0  0  0  0
   59.8100   32.9230   45.7060 O   0  0  0  0  0  0  0  0  0  0  0  0
   58.2160   32.5590   45.2110 S   0  0  0  0  0  0  0  0  0  0  0  0
   57.2310   33.3470   46.0290 O   0  0  0  0  0  0  0  0  0  0  0  0
   58.0540   32.9620   43.7730 O   0  0  0  0  0  0  0  0  0  0  0  0
   57.9410   30.8130   45.3640 C   0  0  0  0  0  0  0  0  0  0  0  0
   58.3850   30.1860   46.5370 C   0  0  0  0  0  0  0  0  0  0  0  0
   58.1510   28.8300   46.7580 C   0  0  0  0  0  0  0  0  0  0  0  0
   57.4710   28.0630   45.8050 C   0  0  0  0  0  0  0  0  0  0  0  0
   57.2260   26.6650   46.0370 N   0  0  0  0  0  0  0  0  0  0  0  0
   56.0270   26.0530   46.1430 C   0  0  0  0  0  0  0  0  0  0  0  0
   54.8030   26.6990   46.0140 O   0  0  0  0  0  0  0  0  0  0  0  0
   56.1780   24.6990   46.3670 C   0  0  0  0  0  0  0  0  0  0  0  0
   57.5410   24.4660   46.4010 C   0  0  0  0  0  0  0  0  0  0  0  0
   58.1460   25.6920   46.1960 C   0  0  0  0  0  0  0  0  0  0  0  0
   59.5220   25.9100   46.1800 O   0  0  0  0  0  0  0  0  0  0  0  0
   57.0280   28.6760   44.6250 C   0  0  0  0  0  0  0  0  0  0  0  0
   57.2440   30.0480   44.3930 C   0  0  0  0  0  0  0  0  0  0  0  0
   56.7550   30.6410   43.0990 C   0  0  0  0  0  0  0  0  0  0  0  0
   63.8059   31.6304   48.1114 H   0  0  0  0  0  0  0  0  0  0  0  0
   63.8075   30.7303   46.5569 H   0  0  0  0  0  0  0  0  0  0  0  0
   63.6863   32.5225   46.5569 H   0  0  0  0  0  0  0  0  0  0  0  0
   61.9996   32.3156   49.7121 H   0  0  0  0  0  0  0  0  0  0  0  0
   60.6574   34.1175   50.7915 H   0  0  0  0  0  0  0  0  0  0  0  0
   58.9736   35.3930   49.4628 H   0  0  0  0  0  0  0  0  0  0  0  0
   58.6046   34.8414   47.0589 H   0  0  0  0  0  0  0  0  0  0  0  0
   58.9259   30.7730   47.2939 H   0  0  0  0  0  0  0  0  0  0  0  0
   58.5031   28.3593   47.6878 H   0  0  0  0  0  0  0  0  0  0  0  0
   55.3767   23.9560   46.4929 H   0  0  0  0  0  0  0  0  0  0  0  0
   58.0425   23.4998   46.5593 H   0  0  0  0  0  0  0  0  0  0  0  0
   59.9960   26.1740   45.3250 H   0  0  0  0  0  0  0  0  0  0  0  0
   56.5029   28.0754   43.8676 H   0  0  0  0  0  0  0  0  0  0  0  0
   56.0686   31.4734   43.3134 H   0  0  0  0  0  0  0  0  0  0  0  0
   57.6124   31.0129   42.5189 H   0  0  0  0  0  0  0  0  0  0  0  0
   56.2266   29.8701   42.5189 H   0  0  0  0  0  0  0  0  0  0  0  0
  1  2  1  0
  2  3  2  0
  2  4  1  0
  4  5  2  0
  5  6  1  0
  6  7  2  0
  7  8  1  0
  8  9  2  0
  9 10  1  0
 10 11  1  0
 11 12  2  0
 11 13  2  0
 11 14  1  0
 14 15  2  0
 15 16  1  0
 16 17  2  0
 17 18  1  0
 18 19  1  0
 19 20  1  0
 19 21  2  0
 21 22  1  0
 22 23  2  0
 23 24  1  0
 17 25  1  0
 25 26  2  0
 26 27  1  0
  9  4  1  0
 26 14  1  0
 23 18  1  0
  1 28  1  0
  1 29  1  0
  1 30  1  0
  5 31  1  0
  6 32  1  0
  7 33  1  0
  8 34  1  0
 15 35  1  0
 16 36  1  0
 21 37  1  0
 22 38  1  0
 24 39  1  0
 25 40  1  0
 27 41  1  0
 27 42  1  0
 27 43  1  0
M  CHG  1  20  -1
M  END
>  <UniqueID>  (49) 
46

>  <SMILES>  (49) 
CC(=O)c1ccccc1OS(=O)(=O)c1ccc(-n2c([O-])ccc2O)cc1C

>  <Energy>  (49) 
86.28569544219935

>  <Genealogy>  (49) 
CC(=O)c1ccccc1OS(=O)(=O)c1ccc(-n2c([O-])ccc2O)cc1C (protonated)
CC(=O)c1ccccc1OS(=O)(=O)c1ccc(-n2c([O-])ccc2O)cc1C (3D coordinates assigned)
CC(=O)c1ccccc1OS(=O)(=O)c1ccc(-n2c([O-])ccc2O)cc1C (optimized conformer: 86.28569544219935 kcal/mol)

>  <smiles>  (49) 
CC(=O)c1ccccc1OS(=O)(=O)c1ccc(-n2c(O)ccc2O)cc1C

>  <score_type>  (49) 
oracle

>  <origin>  (49) 
adg

>  <m_score__min__energy>  (49) 
-11.970000000000001

>  <m_primary>  (49) 
energy

$$$$
49:0
     RDKit          3D

 47 49  0  0  0  0  0  0  0  0999 V2000
   60.5070   30.1380   46.4670 C   0  0  0  0  0  0  0  0  0  0  0  0
   59.0610   30.3340   46.9080 C   0  0  0  0  0  0  0  0  0  0  0  0
   58.4980   31.6240   46.3470 C   0  0  0  0  0  0  0  0  0  0  0  0
   58.0220   31.6840   45.0150 C   0  0  0  0  0  0  0  0  0  0  0  0
   58.0980   30.5500   44.1450 N   0  0  0  0  0  0  0  0  0  0  0  0
   56.9870   29.6820   43.9070 C   0  0  0  0  0  0  0  0  0  0  0  0
   56.5650   29.4890   42.7340 O   0  0  0  0  0  0  0  0  0  0  0  0
   56.2890   29.0440   45.0640 C   0  0  0  0  0  0  0  0  0  0  0  0
   56.9580   27.7410   45.4180 C   0  0  0  0  0  0  0  0  0  0  0  0
   58.3580   27.6370   45.3450 C   0  0  0  0  0  0  0  0  0  0  0  0
   58.9980   26.4450   45.6950 C   0  0  0  0  0  0  0  0  0  0  0  0
   58.2490   25.3490   46.1290 C   0  0  0  0  0  0  0  0  0  0  0  0
   56.8580   25.4460   46.2190 C   0  0  0  0  0  0  0  0  0  0  0  0
   56.2090   26.6360   45.8750 C   0  0  0  0  0  0  0  0  0  0  0  0
   54.8250   26.7150   45.9920 O   0  0  0  0  0  0  0  0  0  0  0  0
   57.4320   32.8560   44.5320 C   0  0  0  0  0  0  0  0  0  0  0  0
   57.3130   33.9750   45.3530 C   0  0  0  0  0  0  0  0  0  0  0  0
   57.7740   33.9310   46.6670 C   0  0  0  0  0  0  0  0  0  0  0  0
   58.3770   32.7660   47.1740 C   0  0  0  0  0  0  0  0  0  0  0  0
   58.8090   32.7060   48.5440 N   0  0  0  0  0  0  0  0  0  0  0  0
   60.0280   33.2490   49.0700 C   0  0  0  0  0  0  0  0  0  0  0  0
   60.0200   33.7340   50.2320 O   0  0  0  0  0  0  0  0  0  0  0  0
   61.3000   33.2060   48.3090 C   0  0  0  0  0  0  0  0  0  0  0  0
   61.4190   33.8590   47.0680 C   0  0  0  0  0  0  0  0  0  0  0  0
   62.6230   33.8100   46.3570 C   0  0  0  0  0  0  0  0  0  0  0  0
   63.7130   33.1030   46.8710 C   0  0  0  0  0  0  0  0  0  0  0  0
   63.6000   32.4420   48.0970 C   0  0  0  0  0  0  0  0  0  0  0  0
   62.3980   32.4850   48.8110 C   0  0  0  0  0  0  0  0  0  0  0  0
   61.1521   30.0506   47.3537 H   0  0  0  0  0  0  0  0  0  0  0  0
   60.5855   29.2210   45.8646 H   0  0  0  0  0  0  0  0  0  0  0  0
   60.8268   31.0010   45.8646 H   0  0  0  0  0  0  0  0  0  0  0  0
   58.4561   29.4892   46.5468 H   0  0  0  0  0  0  0  0  0  0  0  0
   59.0309   30.3842   48.0064 H   0  0  0  0  0  0  0  0  0  0  0  0
   56.3284   29.7204   45.9306 H   0  0  0  0  0  0  0  0  0  0  0  0
   55.2420   28.8481   44.7893 H   0  0  0  0  0  0  0  0  0  0  0  0
   58.9534   28.4992   45.0103 H   0  0  0  0  0  0  0  0  0  0  0  0
   60.0934   26.3698   45.6286 H   0  0  0  0  0  0  0  0  0  0  0  0
   58.7538   24.4100   46.3998 H   0  0  0  0  0  0  0  0  0  0  0  0
   56.2704   24.5818   46.5622 H   0  0  0  0  0  0  0  0  0  0  0  0
   57.0596   32.8946   43.4977 H   0  0  0  0  0  0  0  0  0  0  0  0
   56.8540   34.8955   44.9630 H   0  0  0  0  0  0  0  0  0  0  0  0
   57.6655   34.8146   47.3131 H   0  0  0  0  0  0  0  0  0  0  0  0
   60.5614   34.4105   46.6551 H   0  0  0  0  0  0  0  0  0  0  0  0
   62.7116   34.3292   45.3913 H   0  0  0  0  0  0  0  0  0  0  0  0
   64.6592   33.0667   46.3111 H   0  0  0  0  0  0  0  0  0  0  0  0
   64.4587   31.8863   48.5017 H   0  0  0  0  0  0  0  0  0  0  0  0
   62.3112   31.9524   49.7695 H   0  0  0  0  0  0  0  0  0  0  0  0
  1  2  1  0
  2  3  1  0
  3  4  2  0
  4  5  1  0
  5  6  1  0
  6  7  2  0
  6  8  1  0
  8  9  1  0
  9 10  2  0
 10 11  1  0
 11 12  2  0
 12 13  1  0
 13 14  2  0
 14 15  1  0
  4 16  1  0
 16 17  2  0
 17 18  1  0
 18 19  2  0
 19 20  1  0
 20 21  1  0
 21 22  2  0
 21 23  1  0
 23 24  2  0
 24 25  1  0
 25 26  2  0
 26 27  1  0
 27 28  2  0
 19  3  1  0
 28 23  1  0
 14  9  1  0
  1 29  1  0
  1 30  1  0
  1 31  1  0
  2 32  1  0
  2 33  1  0
  8 34  1  0
  8 35  1  0
 10 36  1  0
 11 37  1  0
 12 38  1  0
 13 39  1  0
 16 40  1  0
 17 41  1  0
 18 42  1  0
 24 43  1  0
 25 44  1  0
 26 45  1  0
 27 46  1  0
 28 47  1  0
M  CHG  3   5  -1  15  -1  20  -1
M  END
>  <UniqueID>  (50) 
47

>  <SMILES>  (50) 
CCc1c([N-]C(=O)Cc2ccccc2[O-])cccc1[N-]C(=O)c1ccccc1

>  <Energy>  (50) 
61.326608824980305

>  <Genealogy>  (50) 
CCc1c([N-]C(=O)Cc2ccccc2[O-])cccc1[N-]C(=O)c1ccccc1 (protonated)
CCc1c([N-]C(=O)Cc2ccccc2[O-])cccc1[N-]C(=O)c1ccccc1 (3D coordinates assigned)
CCc1c([N-]C(=O)Cc2ccccc2[O-])cccc1[N-]C(=O)c1ccccc1 (optimized conformer: 61.326608824980305 kcal/mol)

>  <smiles>  (50) 
CCc1c(NC(=O)Cc2ccccc2O)cccc1NC(=O)c1ccccc1

>  <score_type>  (50) 
oracle

>  <origin>  (50) 
adg

>  <m_score__min__energy>  (50) 
-14.67

>  <m_primary>  (50) 
energy

$$$$
50:0
     RDKit          3D

 40 42  0  0  0  0  0  0  0  0999 V2000
   57.7060   23.2810   45.7750 C   0  0  0  0  0  0  0  0  0  0  0  0
   56.3210   23.7080   45.6000 N   0  0  0  0  0  0  0  0  0  0  0  0
   55.4320   23.2130   44.7240 C   0  0  0  0  0  0  0  0  0  0  0  0
   54.2780   23.9490   44.8540 C   0  0  0  0  0  0  0  0  0  0  0  0
   53.1130   23.7490   44.1220 O   0  0  0  0  0  0  0  0  0  0  0  0
   54.4210   24.9100   45.7890 N   0  0  0  0  0  0  0  0  0  0  0  0
   55.6890   24.7250   46.2230 C   0  0  0  0  0  0  0  0  0  0  0  0
   56.2650   25.4710   47.1220 N   0  0  0  0  0  0  0  0  0  0  0  0
   57.6220   25.9420   47.0720 C   0  0  0  0  0  0  0  0  0  0  0  0
   58.4600   25.4420   47.8680 O   0  0  0  0  0  0  0  0  0  0  0  0
   58.0480   27.0310   46.1610 C   0  0  0  0  0  0  0  0  0  0  0  0
   59.4120   27.2230   45.8800 C   0  0  0  0  0  0  0  0  0  0  0  0
   59.8210   28.2560   45.0330 C   0  0  0  0  0  0  0  0  0  0  0  0
   58.8750   29.1110   44.4620 C   0  0  0  0  0  0  0  0  0  0  0  0
   57.5130   28.9380   44.7390 C   0  0  0  0  0  0  0  0  0  0  0  0
   56.3180   30.0090   44.0160 S   0  0  0  0  0  0  0  0  0  0  0  0
   56.6460   30.2650   42.5710 O   0  0  0  0  0  0  0  0  0  0  0  0
   54.9660   29.3590   44.1040 O   0  0  0  0  0  0  0  0  0  0  0  0
   56.2720   31.5220   44.8620 N   0  0  0  0  0  0  0  0  0  0  0  0
   57.4170   32.3160   45.2040 C   0  0  0  0  0  0  0  0  0  0  0  0
   57.7300   33.5100   44.5280 C   0  0  0  0  0  0  0  0  0  0  0  0
   58.8620   34.2470   44.8910 C   0  0  0  0  0  0  0  0  0  0  0  0
   59.6850   33.8030   45.9280 C   0  0  0  0  0  0  0  0  0  0  0  0
   59.3780   32.6220   46.6060 C   0  0  0  0  0  0  0  0  0  0  0  0
   58.2500   31.8790   46.2450 C   0  0  0  0  0  0  0  0  0  0  0  0
   57.9640   30.7320   46.9120 F   0  0  0  0  0  0  0  0  0  0  0  0
   57.1050   27.9100   45.6000 C   0  0  0  0  0  0  0  0  0  0  0  0
   57.9351   23.2104   46.8486 H   0  0  0  0  0  0  0  0  0  0  0  0
   57.8487   22.2972   45.3042 H   0  0  0  0  0  0  0  0  0  0  0  0
   58.3779   24.0137   45.3042 H   0  0  0  0  0  0  0  0  0  0  0  0
   55.5964   22.3746   44.0312 H   0  0  0  0  0  0  0  0  0  0  0  0
   52.5880   24.5370   43.7650 H   0  0  0  0  0  0  0  0  0  0  0  0
   60.1619   26.5557   46.3298 H   0  0  0  0  0  0  0  0  0  0  0  0
   60.8900   28.3965   44.8152 H   0  0  0  0  0  0  0  0  0  0  0  0
   59.2005   29.9217   43.7935 H   0  0  0  0  0  0  0  0  0  0  0  0
   57.0828   33.8645   43.7122 H   0  0  0  0  0  0  0  0  0  0  0  0
   59.1045   35.1784   44.3584 H   0  0  0  0  0  0  0  0  0  0  0  0
   60.5753   34.3839   46.2107 H   0  0  0  0  0  0  0  0  0  0  0  0
   60.0246   32.2754   47.4256 H   0  0  0  0  0  0  0  0  0  0  0  0
   56.0380   27.7899   45.8388 H   0  0  0  0  0  0  0  0  0  0  0  0
  1  2  1  0
  2  3  1  0
  3  4  2  0
  4  5  1  0
  4  6  1  0
  6  7  1  0
  7  8  2  3
  8  9  1  0
  9 10  2  0
  9 11  1  0
 11 12  2  0
 12 13  1  0
 13 14  2  0
 14 15  1  0
 15 16  1  0
 16 17  2  0
 16 18  2  0
 16 19  1  0
 19 20  1  0
 20 21  2  0
 21 22  1  0
 22 23  2  0
 23 24  1  0
 24 25  2  0
 25 26  1  0
 15 27  2  0
  7  2  1  0
 27 11  1  0
 25 20  1  0
  1 28  1  0
  1 29  1  0
  1 30  1  0
  3 31  1  0
  5 32  1  0
 12 33  1  0
 13 34  1  0
 14 35  1  0
 21 36  1  0
 22 37  1  0
 23 38  1  0
 24 39  1  0
 27 40  1  0
M  CHG  2   6  -1  19  -1
M  END
>  <UniqueID>  (51) 
48

>  <SMILES>  (51) 
Cn1cc(O)[n-]c1=NC(=O)c1cccc(S(=O)(=O)[N-]c2ccccc2F)c1

>  <Energy>  (51) 
81.4298427281423

>  <Genealogy>  (51) 
Cn1cc(O)[n-]c1=NC(=O)c1cccc(S(=O)(=O)[N-]c2ccccc2F)c1 (protonated)
Cn1cc(O)[n-]c1=NC(=O)c1cccc(S(=O)(=O)[N-]c2ccccc2F)c1 (3D coordinates assigned)
Cn1cc(O)[n-]c1=NC(=O)c1cccc(S(=O)(=O)[N-]c2ccccc2F)c1 (optimized conformer: 81.4298427281423 kcal/mol)

>  <smiles>  (51) 
Cn1cc(O)[nH]c1=NC(=O)c1cccc(S(=O)(=O)Nc2ccccc2F)c1

>  <score_type>  (51) 
oracle

>  <origin>  (51) 
adg

>  <m_score__min__energy>  (51) 
-12.65

>  <m_primary>  (51) 
energy

$$$$
51:0
     RDKit          3D

 57 60  0  0  0  0  0  0  0  0999 V2000
   57.5040   27.9240   46.9660 O   0  0  0  0  0  0  0  0  0  0  0  0
   56.7370   27.6260   46.0100 C   0  0  0  0  0  0  0  0  0  0  0  0
   56.0720   26.3610   45.9820 N   0  0  0  0  0  0  0  0  0  0  0  0
   56.5300   25.1860   46.7150 C   0  0  0  0  0  0  0  0  0  0  0  0
   56.7870   24.0250   45.7770 C   0  0  0  0  0  0  0  0  0  0  0  0
   55.6990   23.2360   45.3600 C   0  0  0  0  0  0  0  0  0  0  0  0
   55.8840   22.1840   44.4620 C   0  0  0  0  0  0  0  0  0  0  0  0
   57.1560   21.9030   43.9640 C   0  0  0  0  0  0  0  0  0  0  0  0
   58.2500   22.6680   44.3710 C   0  0  0  0  0  0  0  0  0  0  0  0
   58.0850   23.7190   45.2870 C   0  0  0  0  0  0  0  0  0  0  0  0
   59.2770   24.4900   45.6890 C   0  0  0  0  0  0  0  0  0  0  0  0
   60.3540   23.8890   45.9550 O   0  0  0  0  0  0  0  0  0  0  0  0
   59.2030   25.9180   45.7880 N   0  0  0  0  0  0  0  0  0  0  0  0
   60.3860   26.7510   46.0320 C   0  0  0  0  0  0  0  0  0  0  0  0
   60.1460   28.1730   45.4650 C   0  0  0  0  0  0  0  0  0  0  0  0
   60.6730   29.2790   46.3900 C   0  0  0  0  0  0  0  0  0  0  0  0
   60.1160   29.1850   47.7610 N   0  0  0  0  0  0  0  0  0  0  0  0
   59.0170   30.1320   48.0560 C   0  0  0  0  0  0  0  0  0  0  0  0
   58.9910   31.3460   47.1470 C   0  0  0  0  0  0  0  0  0  0  0  0
   58.1540   31.3760   46.0170 C   0  0  0  0  0  0  0  0  0  0  0  0
   58.1550   32.4830   45.1630 C   0  0  0  0  0  0  0  0  0  0  0  0
   58.9750   33.5790   45.4400 C   0  0  0  0  0  0  0  0  0  0  0  0
   59.7810   33.5780   46.5800 C   0  0  0  0  0  0  0  0  0  0  0  0
   59.7830   32.4720   47.4370 C   0  0  0  0  0  0  0  0  0  0  0  0
   59.8770   27.8120   48.2680 C   0  0  0  0  0  0  0  0  0  0  0  0
   60.7300   26.7720   47.5360 C   0  0  0  0  0  0  0  0  0  0  0  0
   56.4880   28.5910   44.9330 C   0  0  0  0  0  0  0  0  0  0  0  0
   57.3410   28.8860   43.8890 C   0  0  0  0  0  0  0  0  0  0  0  0
   56.6970   29.8560   43.1490 C   0  0  0  0  0  0  0  0  0  0  0  0
   55.4970   30.0920   43.7880 C   0  0  0  0  0  0  0  0  0  0  0  0
   55.4000   29.3230   44.8480 O   0  0  0  0  0  0  0  0  0  0  0  0
   57.4619   25.4334   47.2444 H   0  0  0  0  0  0  0  0  0  0  0  0
   55.7465   24.8919   47.4289 H   0  0  0  0  0  0  0  0  0  0  0  0
   54.6917   23.4508   45.7461 H   0  0  0  0  0  0  0  0  0  0  0  0
   55.0243   21.5748   44.1461 H   0  0  0  0  0  0  0  0  0  0  0  0
   57.2971   21.0781   43.2501 H   0  0  0  0  0  0  0  0  0  0  0  0
   59.2501   22.4456   43.9706 H   0  0  0  0  0  0  0  0  0  0  0  0
   58.2640   26.3700   45.6890 H   0  0  0  0  0  0  0  0  0  0  0  0
   61.2551   26.3230   45.5110 H   0  0  0  0  0  0  0  0  0  0  0  0
   60.6557   28.2547   44.4936 H   0  0  0  0  0  0  0  0  0  0  0  0
   59.0591   28.3120   45.3684 H   0  0  0  0  0  0  0  0  0  0  0  0
   61.7685   29.1984   46.4479 H   0  0  0  0  0  0  0  0  0  0  0  0
   60.3607   30.2454   45.9676 H   0  0  0  0  0  0  0  0  0  0  0  0
   58.0614   29.5980   47.9481 H   0  0  0  0  0  0  0  0  0  0  0  0
   59.1807   30.5024   49.0787 H   0  0  0  0  0  0  0  0  0  0  0  0
   57.4939   30.5224   45.8036 H   0  0  0  0  0  0  0  0  0  0  0  0
   57.5095   32.4907   44.2723 H   0  0  0  0  0  0  0  0  0  0  0  0
   58.9859   34.4434   44.7597 H   0  0  0  0  0  0  0  0  0  0  0  0
   60.4154   34.4480   46.8048 H   0  0  0  0  0  0  0  0  0  0  0  0
   60.4073   32.4830   48.3426 H   0  0  0  0  0  0  0  0  0  0  0  0
   60.1227   27.7817   49.3398 H   0  0  0  0  0  0  0  0  0  0  0  0
   58.8190   27.5658   48.0945 H   0  0  0  0  0  0  0  0  0  0  0  0
   61.7935   27.0240   47.6604 H   0  0  0  0  0  0  0  0  0  0  0  0
   60.5226   25.7792   47.9618 H   0  0  0  0  0  0  0  0  0  0  0  0
   58.3270   28.4413   43.6890 H   0  0  0  0  0  0  0  0  0  0  0  0
   57.0657   30.3430   42.2342 H   0  0  0  0  0  0  0  0  0  0  0  0
   54.7363   30.8153   43.4590 H   0  0  0  0  0  0  0  0  0  0  0  0
  1  2  2  0
  2  3  1  0
  3  4  1  0
  4  5  1  0
  5  6  2  0
  6  7  1  0
  7  8  2  0
  8  9  1  0
  9 10  2  0
 10 11  1  0
 11 12  2  0
 11 13  1  0
 13 14  1  0
 14 15  1  0
 15 16  1  0
 16 17  1  0
 17 18  1  0
 18 19  1  0
 19 20  2  0
 20 21  1  0
 21 22  2  0
 22 23  1  0
 23 24  2  0
 17 25  1  0
 25 26  1  0
  2 27  1  0
 27 28  2  0
 28 29  1  0
 29 30  2  0
 30 31  1  0
 10  5  1  0
 26 14  1  0
 31 27  1  0
 24 19  1  0
  4 32  1  0
  4 33  1  0
  6 34  1  0
  7 35  1  0
  8 36  1  0
  9 37  1  0
 13 38  1  0
 14 39  1  0
 15 40  1  0
 15 41  1  0
 16 42  1  0
 16 43  1  0
 18 44  1  0
 18 45  1  0
 20 46  1  0
 21 47  1  0
 22 48  1  0
 23 49  1  0
 24 50  1  0
 25 51  1  0
 25 52  1  0
 26 53  1  0
 26 54  1  0
 28 55  1  0
 29 56  1  0
 30 57  1  0
M  CHG  1   3  -1
M  END
>  <UniqueID>  (52) 
49

>  <SMILES>  (52) 
O=C([N-]Cc1ccccc1C(=O)NC1CCN(Cc2ccccc2)CC1)c1ccco1

>  <Energy>  (52) 
95.74707270499454

>  <Genealogy>  (52) 
O=C([N-]Cc1ccccc1C(=O)NC1CCN(Cc2ccccc2)CC1)c1ccco1 (protonated)
O=C([N-]Cc1ccccc1C(=O)NC1CCN(Cc2ccccc2)CC1)c1ccco1 (3D coordinates assigned)
O=C([N-]Cc1ccccc1C(=O)NC1CCN(Cc2ccccc2)CC1)c1ccco1 (nonaromatic ring conformer: 95.74707270499454 kcal/mol)

>  <smiles>  (52) 
O=C(NCc1ccccc1C(=O)NC1CCN(Cc2ccccc2)CC1)c1ccco1

>  <score_type>  (52) 
oracle

>  <origin>  (52) 
adg

>  <m_score__min__energy>  (52) 
-11.59

>  <m_primary>  (52) 
energy

$$$$
52:0
     RDKit          3D

 45 47  0  0  0  0  0  0  0  0999 V2000
   55.8254   21.6988   41.7071 H   0  0  0  0  0  0  0  0  0  0  0  0
   56.2890   21.9440   42.6740 C   0  0  0  0  0  0  0  0  0  0  0  0
   55.6510   22.7690   43.5430 N   0  0  0  0  0  0  0  0  0  0  0  0
   57.5200   27.9600   46.0410 C   0  0  0  0  0  0  0  0  0  0  0  0
   58.4630   28.8610   46.0150 N   0  0  0  0  0  0  0  0  0  0  0  0
   55.8810   24.7850   46.5910 C   0  0  0  0  0  0  0  0  0  0  0  0
   55.8140   24.4130   47.7930 O   0  0  0  0  0  0  0  0  0  0  0  0
   56.3320   26.1480   46.2820 C   0  0  0  0  0  0  0  0  0  0  0  0
   55.5760   27.0560   45.6290 N   0  0  0  0  0  0  0  0  0  0  0  0
   56.3080   28.1510   45.4860 N   0  0  0  0  0  0  0  0  0  0  0  0
   55.8260   29.3700   44.8440 C   0  0  0  0  0  0  0  0  0  0  0  0
   55.5372   30.1004   45.6141 H   0  0  0  0  0  0  0  0  0  0  0  0
   56.6240   29.7944   44.2170 H   0  0  0  0  0  0  0  0  0  0  0  0
   54.9536   29.1339   44.2170 H   0  0  0  0  0  0  0  0  0  0  0  0
   56.1750   23.1120   44.7550 C   0  0  0  0  0  0  0  0  0  0  0  0
   55.4820   23.9230   45.5060 N   0  0  0  0  0  0  0  0  0  0  0  0
   59.2000   29.3460   44.8840 C   0  0  0  0  0  0  0  0  0  0  0  0
   60.1920   28.7170   44.4300 O   0  0  0  0  0  0  0  0  0  0  0  0
   58.8170   30.5970   44.3010 N   0  0  0  0  0  0  0  0  0  0  0  0
   58.5220   31.8000   45.0240 C   0  0  0  0  0  0  0  0  0  0  0  0
   57.6050   32.7050   44.4760 C   0  0  0  0  0  0  0  0  0  0  0  0
   57.1154   32.4735   43.5186 H   0  0  0  0  0  0  0  0  0  0  0  0
   57.3070   33.9000   45.1360 C   0  0  0  0  0  0  0  0  0  0  0  0
   56.5683   34.5938   44.7084 H   0  0  0  0  0  0  0  0  0  0  0  0
   57.9450   34.2150   46.3370 C   0  0  0  0  0  0  0  0  0  0  0  0
   57.6941   35.1487   46.8617 H   0  0  0  0  0  0  0  0  0  0  0  0
   58.9050   33.3460   46.8780 C   0  0  0  0  0  0  0  0  0  0  0  0
   59.5920   33.7120   48.1660 C   0  0  0  0  0  0  0  0  0  0  0  0
   59.9741   32.8021   48.6519 H   0  0  0  0  0  0  0  0  0  0  0  0
   58.8785   34.2083   48.8402 H   0  0  0  0  0  0  0  0  0  0  0  0
   60.6650   34.5830   47.8820 O   0  0  0  0  0  0  0  0  0  0  0  0
   61.8120   33.8260   47.5640 C   0  0  0  0  0  0  0  0  0  0  0  0
   62.3053   33.5004   48.4917 H   0  0  0  0  0  0  0  0  0  0  0  0
   61.5179   32.9440   46.9761 H   0  0  0  0  0  0  0  0  0  0  0  0
   62.5073   34.4432   46.9761 H   0  0  0  0  0  0  0  0  0  0  0  0
   59.1890   32.1300   46.2220 C   0  0  0  0  0  0  0  0  0  0  0  0
   60.1490   31.3050   46.7160 F   0  0  0  0  0  0  0  0  0  0  0  0
   57.4420   22.5990   45.1140 C   0  0  0  0  0  0  0  0  0  0  0  0
   57.8996   22.8713   46.0765 H   0  0  0  0  0  0  0  0  0  0  0  0
   57.5800   26.6790   46.5690 C   0  0  0  0  0  0  0  0  0  0  0  0
   58.4196   26.1979   47.0920 H   0  0  0  0  0  0  0  0  0  0  0  0
   58.1080   21.7410   44.2320 C   0  0  0  0  0  0  0  0  0  0  0  0
   59.0900   21.3278   44.5058 H   0  0  0  0  0  0  0  0  0  0  0  0
   57.5310   21.4080   43.0070 C   0  0  0  0  0  0  0  0  0  0  0  0
   58.0498   20.7308   42.3126 H   0  0  0  0  0  0  0  0  0  0  0  0
  1  2  1  0
  2  3  1  0
  3  4  1  0
  4  5  2  0
  5  6  1  0
  6  7  2  0
  6  8  1  0
  8  9  1  0
  9 10  1  0
 10 11  1  0
 11 12  1  0
 11 13  1  0
 11 14  1  0
 10 15  1  0
 15 16  2  0
 16 17  1  0
 17 18  2  0
 17 19  1  0
 19 20  1  0
 20 21  2  0
 21 22  1  0
 21 23  1  0
 23 24  1  0
 23 25  2  0
 25 26  1  0
 25 27  1  0
 27 28  1  0
 28 29  1  0
 28 30  1  0
 28 31  1  0
 31 32  1  0
 32 33  1  0
 32 34  1  0
 32 35  1  0
 27 36  2  0
 36 37  1  0
 15 38  1  0
 38 39  1  0
  4 40  1  0
 40 41  1  0
 40 42  2  0
 42 43  1  0
 42 44  1  0
 44 45  1  0
 44  2  2  0
 38  8  2  0
 36 20  1  0
M  CHG  3   3  -1   9  -1  19  -1
M  END
>  <UniqueID>  (53) 
50

>  <SMILES>  (53) 
COCc1cccc([N-]C(=O)/N=c2\cc(C(=O)/N=c3\cccc[n-]3)[n-]n2C)c1F

>  <Energy>  (53) 
95.79331358942653

>  <Genealogy>  (53) 
COCc1cccc([N-]C(=O)N=c2cc(C(=O)N=c3cccc[n-]3)[n-]n2C)c1F (protonated)
COCc1cccc([N-]C(=O)/N=c2\cc(C(=O)/N=c3\cccc[n-]3)[n-]n2C)c1F (cis-trans isomerization)
COCc1cccc([N-]C(=O)/N=c2\cc(C(=O)/N=c3\cccc[n-]3)[n-]n2C)c1F (3D coordinates assigned)
COCc1cccc([N-]C(=O)/N=c2\cc(C(=O)/N=c3\cccc[n-]3)[n-]n2C)c1F (optimized conformer: 95.79331358942653 kcal/mol)

>  <smiles>  (53) 
COCc1cccc(NC(=O)N=c2cc(C(=O)N=c3cccc[nH]3)[nH]n2C)c1F

>  <score_type>  (53) 
oracle

>  <origin>  (53) 
adg

>  <m_score__min__energy>  (53) 
-11.529999999999999

>  <m_primary>  (53) 
energy

$$$$
53:0
     RDKit          3D

 35 36  0  0  0  0  0  0  0  0999 V2000
   57.9729   32.6735   52.9629 H   0  0  0  0  0  0  0  0  0  0  0  0
   57.8680   32.6620   51.8680 C   0  0  0  0  0  0  0  0  0  0  0  0
   56.9114   32.9446   51.4042 H   0  0  0  0  0  0  0  0  0  0  0  0
   58.8990   32.3060   51.1040 C   0  0  0  0  0  0  0  0  0  0  0  0
   59.8458   32.0274   51.5896 H   0  0  0  0  0  0  0  0  0  0  0  0
   58.8200   32.2710   49.6320 C   0  0  0  0  0  0  0  0  0  0  0  0
   58.5830   31.1850   49.0350 O   0  0  0  0  0  0  0  0  0  0  0  0
   59.0570   33.4740   48.8840 N   0  0  0  0  0  0  0  0  0  0  0  0
   59.5380   34.2650   49.3690 H   0  0  0  0  0  0  0  0  0  0  0  0
   58.7990   33.6190   47.4790 C   0  0  0  0  0  0  0  0  0  0  0  0
   59.4140   34.6220   46.7970 N   0  0  0  0  0  0  0  0  0  0  0  0
   59.1930   34.8350   45.4740 C   0  0  0  0  0  0  0  0  0  0  0  0
   59.7142   35.6539   44.9565 H   0  0  0  0  0  0  0  0  0  0  0  0
   58.3070   34.0190   44.7680 C   0  0  0  0  0  0  0  0  0  0  0  0
   58.1287   34.1919   43.6964 H   0  0  0  0  0  0  0  0  0  0  0  0
   57.6420   32.9710   45.4390 C   0  0  0  0  0  0  0  0  0  0  0  0
   56.7820   32.1800   44.8580 N   0  0  0  0  0  0  0  0  0  0  0  0
   57.0210   31.0370   44.0170 C   0  0  0  0  0  0  0  0  0  0  0  0
   56.9430   31.1470   42.7640 O   0  0  0  0  0  0  0  0  0  0  0  0
   57.4530   29.7500   44.6270 C   0  0  0  0  0  0  0  0  0  0  0  0
   58.8270   29.4930   44.8130 C   0  0  0  0  0  0  0  0  0  0  0  0
   59.5666   30.2435   44.4972 H   0  0  0  0  0  0  0  0  0  0  0  0
   59.2640   28.2940   45.3950 C   0  0  0  0  0  0  0  0  0  0  0  0
   60.7310   28.0200   45.5490 C   0  0  0  0  0  0  0  0  0  0  0  0
   60.9849   27.9726   46.6182 H   0  0  0  0  0  0  0  0  0  0  0  0
   60.9770   27.0604   45.0708 H   0  0  0  0  0  0  0  0  0  0  0  0
   61.3068   28.8261   45.0708 H   0  0  0  0  0  0  0  0  0  0  0  0
   58.3240   27.3260   45.7710 C   0  0  0  0  0  0  0  0  0  0  0  0
   58.6611   26.3736   46.2060 H   0  0  0  0  0  0  0  0  0  0  0  0
   56.9610   27.5670   45.5950 C   0  0  0  0  0  0  0  0  0  0  0  0
   56.2283   26.8060   45.9017 H   0  0  0  0  0  0  0  0  0  0  0  0
   56.5190   28.7680   45.0320 C   0  0  0  0  0  0  0  0  0  0  0  0
   55.1510   28.9670   44.8840 O   0  0  0  0  0  0  0  0  0  0  0  0
   57.8810   32.7930   46.8080 C   0  0  0  0  0  0  0  0  0  0  0  0
   57.3484   32.0042   47.3595 H   0  0  0  0  0  0  0  0  0  0  0  0
  1  2  1  0
  2  3  1  0
  2  4  2  0
  4  5  1  0
  4  6  1  0
  6  7  2  0
  6  8  1  0
  8  9  1  0
  8 10  1  0
 10 11  1  0
 11 12  1  0
 12 13  1  0
 12 14  2  0
 14 15  1  0
 14 16  1  0
 16 17  2  0
 17 18  1  0
 18 19  2  0
 18 20  1  0
 20 21  2  0
 21 22  1  0
 21 23  1  0
 23 24  1  0
 24 25  1  0
 24 26  1  0
 24 27  1  0
 23 28  2  0
 28 29  1  0
 28 30  1  0
 30 31  1  0
 30 32  2  0
 32 33  1  0
 16 34  1  0
 34 35  1  0
 34 10  2  0
 32 20  1  0
M  CHG  2  11  -1  33  -1
M  END
>  <UniqueID>  (54) 
51

>  <SMILES>  (54) 
C=CC(=O)Nc1c/c(=N/C(=O)c2cc(C)ccc2[O-])cc[n-]1

>  <Energy>  (54) 
47.12596315490324

>  <Genealogy>  (54) 
C=CC(=O)Nc1cc(=NC(=O)c2cc(C)ccc2[O-])cc[n-]1 (protonated)
C=CC(=O)Nc1c/c(=N/C(=O)c2cc(C)ccc2[O-])cc[n-]1 (cis-trans isomerization)
C=CC(=O)Nc1c/c(=N/C(=O)c2cc(C)ccc2[O-])cc[n-]1 (3D coordinates assigned)
C=CC(=O)Nc1c/c(=N/C(=O)c2cc(C)ccc2[O-])cc[n-]1 (optimized conformer: 47.12596315490324 kcal/mol)

>  <smiles>  (54) 
C=CC(=O)Nc1cc(=NC(=O)c2cc(C)ccc2O)cc[nH]1

>  <score_type>  (54) 
oracle

>  <origin>  (54) 
adg

>  <m_score__min__energy>  (54) 
-12.41

>  <m_primary>  (54) 
energy

$$$$
54:0
     RDKit          3D

 42 44  0  0  0  0  0  0  0  0999 V2000
   60.0340   34.9630   48.0890 O   0  0  0  0  0  0  0  0  0  0  0  0
   60.3860   34.4060   47.0160 C   0  0  0  0  0  0  0  0  0  0  0  0
   61.7800   33.8530   46.9090 C   0  0  0  0  0  0  0  0  0  0  0  0
   62.4560   33.8820   48.2060 N   0  0  0  0  0  0  0  0  0  0  0  0
   63.6580   33.1330   48.4340 C   0  0  0  0  0  0  0  0  0  0  0  0
   64.0830   32.3470   47.5440 O   0  0  0  0  0  0  0  0  0  0  0  0
   64.4150   33.2590   49.6950 C   0  0  0  0  0  0  0  0  0  0  0  0
   65.6640   32.7170   49.9860 C   0  0  0  0  0  0  0  0  0  0  0  0
   66.1060   33.0100   51.2830 C   0  0  0  0  0  0  0  0  0  0  0  0
   65.2150   33.7780   52.0190 C   0  0  0  0  0  0  0  0  0  0  0  0
   63.8740   34.0900   51.0550 S   0  0  0  0  0  0  0  0  0  0  0  0
   59.4240   34.2620   45.9630 N   0  0  0  0  0  0  0  0  0  0  0  0
   58.7520   33.0550   45.5780 C   0  0  0  0  0  0  0  0  0  0  0  0
   59.1190   31.8500   46.1900 C   0  0  0  0  0  0  0  0  0  0  0  0
   58.4670   30.6590   45.8550 C   0  0  0  0  0  0  0  0  0  0  0  0
   57.4240   30.6650   44.9200 C   0  0  0  0  0  0  0  0  0  0  0  0
   56.6000   29.1640   44.5110 S   0  0  0  0  0  0  0  0  0  0  0  0
   57.1950   28.6160   43.2450 O   0  0  0  0  0  0  0  0  0  0  0  0
   55.1320   29.4040   44.2960 O   0  0  0  0  0  0  0  0  0  0  0  0
   56.8060   27.9990   45.7840 N   0  0  0  0  0  0  0  0  0  0  0  0
   56.6410   26.7100   45.6920 C   0  0  0  0  0  0  0  0  0  0  0  0
   57.6690   25.8410   45.2670 C   0  0  0  0  0  0  0  0  0  0  0  0
   57.4160   24.4700   45.1860 C   0  0  0  0  0  0  0  0  0  0  0  0
   56.1580   23.9710   45.5240 C   0  0  0  0  0  0  0  0  0  0  0  0
   55.1660   24.8560   45.9430 C   0  0  0  0  0  0  0  0  0  0  0  0
   55.4270   26.1880   46.0150 N   0  0  0  0  0  0  0  0  0  0  0  0
   57.0360   31.8730   44.3250 C   0  0  0  0  0  0  0  0  0  0  0  0
   57.6890   33.0630   44.6600 C   0  0  0  0  0  0  0  0  0  0  0  0
   61.7283   32.8134   46.5533 H   0  0  0  0  0  0  0  0  0  0  0  0
   62.3503   34.4739   46.2024 H   0  0  0  0  0  0  0  0  0  0  0  0
   62.0550   34.4620   48.9760 H   0  0  0  0  0  0  0  0  0  0  0  0
   66.2457   32.1186   49.2694 H   0  0  0  0  0  0  0  0  0  0  0  0
   67.0709   32.6630   51.6812 H   0  0  0  0  0  0  0  0  0  0  0  0
   65.3609   34.1227   53.0534 H   0  0  0  0  0  0  0  0  0  0  0  0
   59.9249   31.8402   46.9386 H   0  0  0  0  0  0  0  0  0  0  0  0
   58.7743   29.7143   46.3274 H   0  0  0  0  0  0  0  0  0  0  0  0
   58.6594   26.2397   45.0023 H   0  0  0  0  0  0  0  0  0  0  0  0
   58.2092   23.7832   44.8555 H   0  0  0  0  0  0  0  0  0  0  0  0
   55.9514   22.8924   45.4607 H   0  0  0  0  0  0  0  0  0  0  0  0
   54.1705   24.4759   46.2158 H   0  0  0  0  0  0  0  0  0  0  0  0
   56.2155   31.8850   43.5924 H   0  0  0  0  0  0  0  0  0  0  0  0
   57.3686   34.0105   44.2022 H   0  0  0  0  0  0  0  0  0  0  0  0
  1  2  2  0
  2  3  1  0
  3  4  1  0
  4  5  1  0
  5  6  2  0
  5  7  1  0
  7  8  2  0
  8  9  1  0
  9 10  2  0
 10 11  1  0
  2 12  1  0
 12 13  1  0
 13 14  2  0
 14 15  1  0
 15 16  2  0
 16 17  1  0
 17 18  2  0
 17 19  2  0
 17 20  1  0
 20 21  2  3
 21 22  1  0
 22 23  2  0
 23 24  1  0
 24 25  2  0
 25 26  1  0
 16 27  1  0
 27 28  2  0
 11  7  1  0
 28 13  1  0
 26 21  1  0
  3 29  1  0
  3 30  1  0
  4 31  1  0
  8 32  1  0
  9 33  1  0
 10 34  1  0
 14 35  1  0
 15 36  1  0
 22 37  1  0
 23 38  1  0
 24 39  1  0
 25 40  1  0
 27 41  1  0
 28 42  1  0
M  CHG  2  12  -1  26  -1
M  END
>  <UniqueID>  (55) 
52

>  <SMILES>  (55) 
O=C(CNC(=O)c1cccs1)[N-]c1ccc(S(=O)(=O)N=c2cccc[n-]2)cc1

>  <Energy>  (55) 
78.48237745304233

>  <Genealogy>  (55) 
O=C(CNC(=O)c1cccs1)[N-]c1ccc(S(=O)(=O)N=c2cccc[n-]2)cc1 (protonated)
O=C(CNC(=O)c1cccs1)[N-]c1ccc(S(=O)(=O)N=c2cccc[n-]2)cc1 (3D coordinates assigned)
O=C(CNC(=O)c1cccs1)[N-]c1ccc(S(=O)(=O)N=c2cccc[n-]2)cc1 (optimized conformer: 78.48237745304233 kcal/mol)

>  <smiles>  (55) 
O=C(CNC(=O)c1cccs1)Nc1ccc(S(=O)(=O)N=c2cccc[nH]2)cc1

>  <score_type>  (55) 
oracle

>  <origin>  (55) 
adg

>  <m_score__min__energy>  (55) 
-11.15

>  <m_primary>  (55) 
energy

$$$$
55:0
     RDKit          3D

 53 56  0  0  0  0  0  0  0  0999 V2000
   54.0100   24.0050   46.0370 C   0  0  0  0  0  0  0  0  0  0  0  0
   55.4460   24.3130   45.7300 C   0  0  0  0  0  0  0  0  0  0  0  0
   56.3630   23.2680   45.5190 C   0  0  0  0  0  0  0  0  0  0  0  0
   57.7030   23.5490   45.2580 C   0  0  0  0  0  0  0  0  0  0  0  0
   58.1470   24.8710   45.2180 C   0  0  0  0  0  0  0  0  0  0  0  0
   57.2510   25.9320   45.4190 C   0  0  0  0  0  0  0  0  0  0  0  0
   57.7440   27.3230   45.3460 C   0  0  0  0  0  0  0  0  0  0  0  0
   58.9880   27.5440   45.3810 O   0  0  0  0  0  0  0  0  0  0  0  0
   56.8300   28.4150   45.1620 N   0  0  0  0  0  0  0  0  0  0  0  0
   57.2840   29.7710   45.1850 C   0  0  0  0  0  0  0  0  0  0  0  0
   57.1130   30.5890   44.0620 C   0  0  0  0  0  0  0  0  0  0  0  0
   57.5470   31.9170   44.0880 C   0  0  0  0  0  0  0  0  0  0  0  0
   58.1350   32.4400   45.2450 C   0  0  0  0  0  0  0  0  0  0  0  0
   58.6470   34.1560   45.2920 S   0  0  0  0  0  0  0  0  0  0  0  0
   59.7980   33.8540   46.6250 C   0  0  0  0  0  0  0  0  0  0  0  0
   59.3350   33.5350   47.8620 N   0  0  0  0  0  0  0  0  0  0  0  0
   60.1860   33.3340   48.9050 C   0  0  0  0  0  0  0  0  0  0  0  0
   59.6620   32.9810   50.2000 N   0  0  0  0  0  0  0  0  0  0  0  0
   58.9120   31.7320   50.4110 C   0  0  0  0  0  0  0  0  0  0  0  0
   57.6150   32.0040   51.1840 C   0  0  0  0  0  0  0  0  0  0  0  0
   57.7730   33.0610   52.3000 C   0  0  0  0  0  0  0  0  0  0  0  0
   59.2370   33.3860   52.6160 C   0  0  0  0  0  0  0  0  0  0  0  0
   59.9760   33.8400   51.3490 C   0  0  0  0  0  0  0  0  0  0  0  0
   61.5690   33.4350   48.6840 C   0  0  0  0  0  0  0  0  0  0  0  0
   62.0220   33.7610   47.4050 C   0  0  0  0  0  0  0  0  0  0  0  0
   63.2540   33.8610   47.1750 O   0  0  0  0  0  0  0  0  0  0  0  0
   61.1330   33.9670   46.4040 N   0  0  0  0  0  0  0  0  0  0  0  0
   58.2970   31.6270   46.3740 C   0  0  0  0  0  0  0  0  0  0  0  0
   57.8880   30.2890   46.3390 C   0  0  0  0  0  0  0  0  0  0  0  0
   55.8960   25.6470   45.7000 C   0  0  0  0  0  0  0  0  0  0  0  0
   55.0020   26.6810   45.9650 O   0  0  0  0  0  0  0  0  0  0  0  0
   53.8666   23.9742   47.1272 H   0  0  0  0  0  0  0  0  0  0  0  0
   53.3670   24.7857   45.6044 H   0  0  0  0  0  0  0  0  0  0  0  0
   53.7437   23.0293   45.6044 H   0  0  0  0  0  0  0  0  0  0  0  0
   56.0210   22.2233   45.5601 H   0  0  0  0  0  0  0  0  0  0  0  0
   58.4121   22.7265   45.0831 H   0  0  0  0  0  0  0  0  0  0  0  0
   59.2093   25.0835   45.0271 H   0  0  0  0  0  0  0  0  0  0  0  0
   55.8860   28.2220   44.7720 H   0  0  0  0  0  0  0  0  0  0  0  0
   56.6358   30.1854   43.1568 H   0  0  0  0  0  0  0  0  0  0  0  0
   57.4263   32.5520   43.1979 H   0  0  0  0  0  0  0  0  0  0  0  0
   58.6648   31.2896   49.4347 H   0  0  0  0  0  0  0  0  0  0  0  0
   59.5347   31.0394   50.9963 H   0  0  0  0  0  0  0  0  0  0  0  0
   56.8540   32.3590   50.4734 H   0  0  0  0  0  0  0  0  0  0  0  0
   57.3241   31.0611   51.6701 H   0  0  0  0  0  0  0  0  0  0  0  0
   57.2700   33.9856   51.9804 H   0  0  0  0  0  0  0  0  0  0  0  0
   57.3247   32.6435   53.2136 H   0  0  0  0  0  0  0  0  0  0  0  0
   59.2750   34.1911   53.3646 H   0  0  0  0  0  0  0  0  0  0  0  0
   59.7249   32.4804   53.0056 H   0  0  0  0  0  0  0  0  0  0  0  0
   59.6790   34.8727   51.1138 H   0  0  0  0  0  0  0  0  0  0  0  0
   61.0572   33.7748   51.5406 H   0  0  0  0  0  0  0  0  0  0  0  0
   62.2818   33.2605   49.5035 H   0  0  0  0  0  0  0  0  0  0  0  0
   58.7461   32.0405   47.2890 H   0  0  0  0  0  0  0  0  0  0  0  0
   58.0405   29.6440   47.2169 H   0  0  0  0  0  0  0  0  0  0  0  0
  1  2  1  0
  2  3  2  0
  3  4  1  0
  4  5  2  0
  5  6  1  0
  6  7  1  0
  7  8  2  0
  7  9  1  0
  9 10  1  0
 10 11  2  0
 11 12  1  0
 12 13  2  0
 13 14  1  0
 14 15  1  0
 15 16  2  0
 16 17  1  0
 17 18  1  0
 18 19  1  0
 19 20  1  0
 20 21  1  0
 21 22  1  0
 22 23  1  0
 17 24  2  0
 24 25  1  0
 25 26  2  0
 25 27  1  0
 13 28  1  0
 28 29  2  0
  6 30  2  0
 30 31  1  0
 30  2  1  0
 29 10  1  0
 27 15  1  0
 23 18  1  0
  1 32  1  0
  1 33  1  0
  1 34  1  0
  3 35  1  0
  4 36  1  0
  5 37  1  0
  9 38  1  0
 11 39  1  0
 12 40  1  0
 19 41  1  0
 19 42  1  0
 20 43  1  0
 20 44  1  0
 21 45  1  0
 21 46  1  0
 22 47  1  0
 22 48  1  0
 23 49  1  0
 23 50  1  0
 24 51  1  0
 28 52  1  0
 29 53  1  0
M  CHG  2  27  -1  31  -1
M  END
>  <UniqueID>  (56) 
53

>  <SMILES>  (56) 
Cc1cccc(C(=O)Nc2ccc(Sc3nc(N4CCCCC4)cc(=O)[n-]3)cc2)c1[O-]

>  <Energy>  (56) 
68.47886795073488

>  <Genealogy>  (56) 
Cc1cccc(C(=O)Nc2ccc(Sc3nc(N4CCCCC4)cc(=O)[n-]3)cc2)c1[O-] (protonated)
Cc1cccc(C(=O)Nc2ccc(Sc3nc(N4CCCCC4)cc(=O)[n-]3)cc2)c1[O-] (3D coordinates assigned)
Cc1cccc(C(=O)Nc2ccc(Sc3nc(N4CCCCC4)cc(=O)[n-]3)cc2)c1[O-] (nonaromatic ring conformer: 68.47886795073488 kcal/mol)

>  <smiles>  (56) 
Cc1cccc(C(=O)Nc2ccc(Sc3nc(N4CCCCC4)cc(=O)[nH]3)cc2)c1O

>  <score_type>  (56) 
oracle

>  <origin>  (56) 
adg

>  <m_score__min__energy>  (56) 
-14.619999999999999

>  <m_primary>  (56) 
energy

$$$$
56:0
     RDKit          3D

 58 60  0  0  0  0  0  0  0  0999 V2000
   59.2700   35.1360   46.8390 C   0  0  0  0  0  0  0  0  0  0  0  0
   58.8040   34.0530   45.9260 C   0  0  0  0  0  0  0  0  0  0  0  0
   58.8850   34.0730   44.5390 C   0  0  0  0  0  0  0  0  0  0  0  0
   58.2870   32.9600   43.9370 C   0  0  0  0  0  0  0  0  0  0  0  0
   57.7200   32.0790   44.8510 C   0  0  0  0  0  0  0  0  0  0  0  0
   56.9870   30.8520   44.5220 C   0  0  0  0  0  0  0  0  0  0  0  0
   55.7250   30.8570   44.5410 O   0  0  0  0  0  0  0  0  0  0  0  0
   57.6890   29.6960   44.1610 O   0  0  0  0  0  0  0  0  0  0  0  0
   59.1140   29.6240   44.1380 C   0  0  0  0  0  0  0  0  0  0  0  0
   59.6270   28.7680   45.2660 C   0  0  0  0  0  0  0  0  0  0  0  0
   60.7290   28.1760   45.1050 O   0  0  0  0  0  0  0  0  0  0  0  0
   58.9280   28.6350   46.5260 N   0  0  0  0  0  0  0  0  0  0  0  0
   58.7540   29.7510   47.4750 C   0  0  0  0  0  0  0  0  0  0  0  0
   60.0860   30.3480   47.8500 C   0  0  0  0  0  0  0  0  0  0  0  0
   60.7700   31.1880   46.9530 C   0  0  0  0  0  0  0  0  0  0  0  0
   61.9620   31.8090   47.3380 C   0  0  0  0  0  0  0  0  0  0  0  0
   62.4830   31.5940   48.6170 C   0  0  0  0  0  0  0  0  0  0  0  0
   61.8160   30.7520   49.5100 C   0  0  0  0  0  0  0  0  0  0  0  0
   60.6240   30.1280   49.1280 C   0  0  0  0  0  0  0  0  0  0  0  0
   58.2400   27.4000   46.8010 C   0  0  0  0  0  0  0  0  0  0  0  0
   57.0240   27.0840   46.1600 C   0  0  0  0  0  0  0  0  0  0  0  0
   56.4280   28.0570   45.2810 N   0  0  0  0  0  0  0  0  0  0  0  0
   56.4440   25.8470   46.3660 N   0  0  0  0  0  0  0  0  0  0  0  0
   55.2290   25.4400   45.6260 C   0  0  0  0  0  0  0  0  0  0  0  0
   55.4670   24.1480   44.8080 C   0  0  0  0  0  0  0  0  0  0  0  0
   56.6030   24.3580   43.8020 C   0  0  0  0  0  0  0  0  0  0  0  0
   54.1920   23.7000   44.0820 C   0  0  0  0  0  0  0  0  0  0  0  0
   57.0370   24.9570   47.2330 C   0  0  0  0  0  0  0  0  0  0  0  0
   56.5310   23.8220   47.4460 O   0  0  0  0  0  0  0  0  0  0  0  0
   58.1890   25.2800   47.8710 N   0  0  0  0  0  0  0  0  0  0  0  0
   58.8010   26.4670   47.6730 C   0  0  0  0  0  0  0  0  0  0  0  0
   59.8770   26.7200   48.2780 O   0  0  0  0  0  0  0  0  0  0  0  0
   57.9630   32.6790   46.4050 S   0  0  0  0  0  0  0  0  0  0  0  0
   59.1336   34.8190   47.8835 H   0  0  0  0  0  0  0  0  0  0  0  0
   60.3351   35.3389   46.6535 H   0  0  0  0  0  0  0  0  0  0  0  0
   58.6851   36.0489   46.6535 H   0  0  0  0  0  0  0  0  0  0  0  0
   59.3698   34.8813   43.9719 H   0  0  0  0  0  0  0  0  0  0  0  0
   58.2675   32.7984   42.8491 H   0  0  0  0  0  0  0  0  0  0  0  0
   59.4373   29.1897   43.1805 H   0  0  0  0  0  0  0  0  0  0  0  0
   59.5192   30.6399   44.2553 H   0  0  0  0  0  0  0  0  0  0  0  0
   58.1296   30.5271   47.0083 H   0  0  0  0  0  0  0  0  0  0  0  0
   58.2711   29.3670   48.3857 H   0  0  0  0  0  0  0  0  0  0  0  0
   60.3654   31.3571   45.9442 H   0  0  0  0  0  0  0  0  0  0  0  0
   62.4906   32.4678   46.6333 H   0  0  0  0  0  0  0  0  0  0  0  0
   63.4180   32.0877   48.9203 H   0  0  0  0  0  0  0  0  0  0  0  0
   62.2288   30.5795   50.5149 H   0  0  0  0  0  0  0  0  0  0  0  0
   60.1053   29.4613   49.8326 H   0  0  0  0  0  0  0  0  0  0  0  0
   56.3010   27.8630   44.2650 H   0  0  0  0  0  0  0  0  0  0  0  0
   56.1050   28.9960   45.5950 H   0  0  0  0  0  0  0  0  0  0  0  0
   54.4156   25.2627   46.3450 H   0  0  0  0  0  0  0  0  0  0  0  0
   54.9655   26.2469   44.9263 H   0  0  0  0  0  0  0  0  0  0  0  0
   55.7518   23.3522   45.5119 H   0  0  0  0  0  0  0  0  0  0  0  0
   57.5446   24.5321   44.3433 H   0  0  0  0  0  0  0  0  0  0  0  0
   56.7033   23.4632   43.1701 H   0  0  0  0  0  0  0  0  0  0  0  0
   56.3768   25.2295   43.1701 H   0  0  0  0  0  0  0  0  0  0  0  0
   53.4242   23.4302   44.8221 H   0  0  0  0  0  0  0  0  0  0  0  0
   53.8210   24.5216   43.4517 H   0  0  0  0  0  0  0  0  0  0  0  0
   54.4165   22.8269   43.4517 H   0  0  0  0  0  0  0  0  0  0  0  0
  1  2  1  0
  2  3  2  0
  3  4  1  0
  4  5  2  0
  5  6  1  0
  6  7  2  0
  6  8  1  0
  8  9  1  0
  9 10  1  0
 10 11  2  0
 10 12  1  0
 12 13  1  0
 13 14  1  0
 14 15  2  0
 15 16  1  0
 16 17  2  0
 17 18  1  0
 18 19  2  0
 12 20  1  0
 20 21  2  0
 21 22  1  0
 21 23  1  0
 23 24  1  0
 24 25  1  0
 25 26  1  0
 25 27  1  0
 23 28  1  0
 28 29  2  0
 28 30  1  0
 30 31  1  0
 31 32  2  0
  5 33  1  0
 33  2  1  0
 19 14  1  0
 31 20  1  0
  1 34  1  0
  1 35  1  0
  1 36  1  0
  3 37  1  0
  4 38  1  0
  9 39  1  0
  9 40  1  0
 13 41  1  0
 13 42  1  0
 15 43  1  0
 16 44  1  0
 17 45  1  0
 18 46  1  0
 19 47  1  0
 22 48  1  0
 22 49  1  0
 24 50  1  0
 24 51  1  0
 25 52  1  0
 26 53  1  0
 26 54  1  0
 26 55  1  0
 27 56  1  0
 27 57  1  0
 27 58  1  0
M  CHG  1  30  -1
M  END
>  <UniqueID>  (57) 
54

>  <SMILES>  (57) 
Cc1ccc(C(=O)OCC(=O)N(Cc2ccccc2)c2c(N)n(CC(C)C)c(=O)[n-]c2=O)s1

>  <Energy>  (57) 
85.25961381289308

>  <Genealogy>  (57) 
Cc1ccc(C(=O)OCC(=O)N(Cc2ccccc2)c2c(N)n(CC(C)C)c(=O)[n-]c2=O)s1 (protonated)
Cc1ccc(C(=O)OCC(=O)N(Cc2ccccc2)c2c(N)n(CC(C)C)c(=O)[n-]c2=O)s1 (3D coordinates assigned)
Cc1ccc(C(=O)OCC(=O)N(Cc2ccccc2)c2c(N)n(CC(C)C)c(=O)[n-]c2=O)s1 (optimized conformer: 85.25961381289308 kcal/mol)

>  <smiles>  (57) 
Cc1ccc(C(=O)OCC(=O)N(Cc2ccccc2)c2c(N)n(CC(C)C)c(=O)[nH]c2=O)s1

>  <score_type>  (57) 
oracle

>  <origin>  (57) 
adg

>  <m_score__min__energy>  (57) 
-9.7899999999999991

>  <m_primary>  (57) 
energy

$$$$
57:0
     RDKit          3D

 56 58  0  0  0  0  0  0  0  0999 V2000
   57.5200   22.6870   46.3330 C   0  0  0  0  0  0  0  0  0  0  0  0
   57.3620   24.0200   46.1760 C   0  0  0  0  0  0  0  0  0  0  0  0
   58.5220   24.8150   46.0030 C   0  0  0  0  0  0  0  0  0  0  0  0
   59.7760   24.2080   45.9340 O   0  0  0  0  0  0  0  0  0  0  0  0
   58.4350   26.2150   45.8860 C   0  0  0  0  0  0  0  0  0  0  0  0
   59.6850   27.0410   45.6450 C   0  0  0  0  0  0  0  0  0  0  0  0
   60.5720   26.9760   46.7600 O   0  0  0  0  0  0  0  0  0  0  0  0
   60.2090   27.2910   48.0750 C   0  0  0  0  0  0  0  0  0  0  0  0
   59.8920   26.3740   48.8810 O   0  0  0  0  0  0  0  0  0  0  0  0
   60.1860   28.6680   48.4990 N   0  0  0  0  0  0  0  0  0  0  0  0
   60.8740   29.7010   47.7190 C   0  0  0  0  0  0  0  0  0  0  0  0
   60.0240   30.9770   47.6730 C   0  0  0  0  0  0  0  0  0  0  0  0
   59.5800   31.4120   49.0130 N   0  0  0  0  0  0  0  0  0  0  0  0
   60.6710   32.0040   49.8070 C   0  0  0  0  0  0  0  0  0  0  0  0
   58.8710   30.3390   49.7390 C   0  0  0  0  0  0  0  0  0  0  0  0
   59.6850   29.0390   49.8260 C   0  0  0  0  0  0  0  0  0  0  0  0
   57.1730   26.8350   45.9450 C   0  0  0  0  0  0  0  0  0  0  0  0
   57.0490   28.2280   45.8450 O   0  0  0  0  0  0  0  0  0  0  0  0
   57.4850   28.9720   44.7030 C   0  0  0  0  0  0  0  0  0  0  0  0
   56.2450   29.5930   44.0220 C   0  0  0  0  0  0  0  0  0  0  0  0
   56.6050   30.8560   43.2340 C   0  0  0  0  0  0  0  0  0  0  0  0
   57.1750   31.9530   44.1570 C   0  0  0  0  0  0  0  0  0  0  0  0
   57.9040   31.3930   45.3960 C   0  0  0  0  0  0  0  0  0  0  0  0
   58.5410   30.0320   45.1050 C   0  0  0  0  0  0  0  0  0  0  0  0
   56.0130   26.0620   46.0380 C   0  0  0  0  0  0  0  0  0  0  0  0
   54.7810   26.7130   45.9780 O   0  0  0  0  0  0  0  0  0  0  0  0
   56.0770   24.6560   46.1730 C   0  0  0  0  0  0  0  0  0  0  0  0
   54.9160   23.9720   46.2790 C   0  0  0  0  0  0  0  0  0  0  0  0
   56.6401   22.0412   46.4696 H   0  0  0  0  0  0  0  0  0  0  0  0
   58.5285   22.2479   46.3242 H   0  0  0  0  0  0  0  0  0  0  0  0
   60.2018   26.6570   44.7531 H   0  0  0  0  0  0  0  0  0  0  0  0
   59.3857   28.0895   45.5001 H   0  0  0  0  0  0  0  0  0  0  0  0
   61.8435   29.9259   48.1874 H   0  0  0  0  0  0  0  0  0  0  0  0
   61.0310   29.3346   46.6938 H   0  0  0  0  0  0  0  0  0  0  0  0
   60.6216   31.7824   47.2211 H   0  0  0  0  0  0  0  0  0  0  0  0
   59.1247   30.7572   47.0790 H   0  0  0  0  0  0  0  0  0  0  0  0
   60.4513   31.8848   50.8782 H   0  0  0  0  0  0  0  0  0  0  0  0
   61.6164   31.4952   49.5678 H   0  0  0  0  0  0  0  0  0  0  0  0
   60.7597   33.0740   49.5678 H   0  0  0  0  0  0  0  0  0  0  0  0
   58.6564   30.6881   50.7598 H   0  0  0  0  0  0  0  0  0  0  0  0
   57.9495   30.1155   49.1814 H   0  0  0  0  0  0  0  0  0  0  0  0
   60.5356   29.1874   50.5075 H   0  0  0  0  0  0  0  0  0  0  0  0
   59.0379   28.2339   50.2044 H   0  0  0  0  0  0  0  0  0  0  0  0
   57.9835   28.3089   43.9807 H   0  0  0  0  0  0  0  0  0  0  0  0
   55.8096   28.8546   43.3326 H   0  0  0  0  0  0  0  0  0  0  0  0
   55.5261   29.8714   44.8066 H   0  0  0  0  0  0  0  0  0  0  0  0
   57.3582   30.6009   42.4740 H   0  0  0  0  0  0  0  0  0  0  0  0
   55.6893   31.2422   42.7624 H   0  0  0  0  0  0  0  0  0  0  0  0
   57.8867   32.5604   43.5785 H   0  0  0  0  0  0  0  0  0  0  0  0
   56.3231   32.5457   44.5216 H   0  0  0  0  0  0  0  0  0  0  0  0
   58.6918   32.0993   45.6967 H   0  0  0  0  0  0  0  0  0  0  0  0
   57.1659   31.2633   46.2012 H   0  0  0  0  0  0  0  0  0  0  0  0
   59.2616   30.1457   44.2817 H   0  0  0  0  0  0  0  0  0  0  0  0
   59.0380   29.6858   46.0232 H   0  0  0  0  0  0  0  0  0  0  0  0
   54.9304   22.8772   46.3853 H   0  0  0  0  0  0  0  0  0  0  0  0
   53.9568   24.5101   46.2589 H   0  0  0  0  0  0  0  0  0  0  0  0
  1  2  2  0
  2  3  1  0
  3  4  1  0
  3  5  2  0
  5  6  1  0
  6  7  1  0
  7  8  1  0
  8  9  2  0
  8 10  1  0
 10 11  1  0
 11 12  1  0
 12 13  1  0
 13 14  1  0
 13 15  1  0
 15 16  1  0
  5 17  1  0
 17 18  1  0
 18 19  1  0
 19 20  1  0
 20 21  1  0
 21 22  1  0
 22 23  1  0
 23 24  1  0
 17 25  2  0
 25 26  1  0
 25 27  1  0
 27 28  2  0
 27  2  1  0
 16 10  1  0
 24 19  1  0
  1 29  1  0
  1 30  1  0
  6 31  1  0
  6 32  1  0
 11 33  1  0
 11 34  1  0
 12 35  1  0
 12 36  1  0
 14 37  1  0
 14 38  1  0
 14 39  1  0
 15 40  1  0
 15 41  1  0
 16 42  1  0
 16 43  1  0
 19 44  1  0
 20 45  1  0
 20 46  1  0
 21 47  1  0
 21 48  1  0
 22 49  1  0
 22 50  1  0
 23 51  1  0
 23 52  1  0
 24 53  1  0
 24 54  1  0
 28 55  1  0
 28 56  1  0
M  CHG  2   4  -1  26  -1
M  END
>  <UniqueID>  (58) 
55

>  <SMILES>  (58) 
C=c1c([O-])c(COC(=O)N2CCN(C)CC2)c(OC2CCCCC2)c([O-])c1=C

>  <Energy>  (58) 
76.82964879941628

>  <Genealogy>  (58) 
C=c1c([O-])c(COC(=O)N2CCN(C)CC2)c(OC2CCCCC2)c([O-])c1=C (protonated)
C=c1c([O-])c(COC(=O)N2CCN(C)CC2)c(OC2CCCCC2)c([O-])c1=C (3D coordinates assigned)
C=c1c([O-])c(COC(=O)N2CCN(C)CC2)c(OC2CCCCC2)c([O-])c1=C (nonaromatic ring conformer: 76.82964879941628 kcal/mol)

>  <smiles>  (58) 
C=c1c(O)c(COC(=O)N2CCN(C)CC2)c(OC2CCCCC2)c(O)c1=C

>  <score_type>  (58) 
oracle

>  <origin>  (58) 
adg

>  <m_score__min__energy>  (58) 
-12.73

>  <m_primary>  (58) 
energy

$$$$
58:0
     RDKit          3D

 63 66  0  0  0  0  0  0  0  0999 V2000
   56.8769   34.4893   43.8811 H   0  0  0  0  0  0  0  0  0  0  0  0
   57.3880   33.7250   44.4850 C   0  0  0  0  0  0  0  0  0  0  0  0
   57.7920   34.0170   45.7490 N   0  0  0  0  0  0  0  0  0  0  0  0
   58.4190   33.0980   46.5360 C   0  0  0  0  0  0  0  0  0  0  0  0
   58.8190   33.3980   47.7380 N   0  0  0  0  0  0  0  0  0  0  0  0
   60.1380   33.8270   48.1100 C   0  0  0  0  0  0  0  0  0  0  0  0
   61.2460   33.6230   47.2090 N   0  0  0  0  0  0  0  0  0  0  0  0
   61.0400   33.3590   46.2190 H   0  0  0  0  0  0  0  0  0  0  0  0
   62.6480   33.8680   47.5480 C   0  0  0  0  0  0  0  0  0  0  0  0
   63.1082   34.4880   46.7645 H   0  0  0  0  0  0  0  0  0  0  0  0
   62.6975   34.3881   48.5160 H   0  0  0  0  0  0  0  0  0  0  0  0
   63.4060   32.5420   47.6540 C   0  0  0  0  0  0  0  0  0  0  0  0
   63.5450   32.1236   46.6462 H   0  0  0  0  0  0  0  0  0  0  0  0
   64.3816   32.7282   48.1268 H   0  0  0  0  0  0  0  0  0  0  0  0
   62.6390   31.5590   48.4960 C   0  0  0  0  0  0  0  0  0  0  0  0
   61.5880   30.8110   47.9370 C   0  0  0  0  0  0  0  0  0  0  0  0
   61.3376   30.9276   46.8723 H   0  0  0  0  0  0  0  0  0  0  0  0
   60.8600   29.9190   48.7310 C   0  0  0  0  0  0  0  0  0  0  0  0
   60.0414   29.3319   48.2891 H   0  0  0  0  0  0  0  0  0  0  0  0
   61.1720   29.7730   50.0860 C   0  0  0  0  0  0  0  0  0  0  0  0
   60.4690   28.9050   50.8530 F   0  0  0  0  0  0  0  0  0  0  0  0
   62.2050   30.5240   50.6520 C   0  0  0  0  0  0  0  0  0  0  0  0
   62.4458   30.4112   51.7194 H   0  0  0  0  0  0  0  0  0  0  0  0
   62.9330   31.4190   49.8620 C   0  0  0  0  0  0  0  0  0  0  0  0
   63.7396   32.0161   50.3125 H   0  0  0  0  0  0  0  0  0  0  0  0
   60.2840   34.4830   49.2230 N   0  0  0  0  0  0  0  0  0  0  0  0
   60.9500   34.1890   49.9690 H   0  0  0  0  0  0  0  0  0  0  0  0
   59.7260   35.3470   49.3990 H   0  0  0  0  0  0  0  0  0  0  0  0
   58.6780   31.8200   46.0290 C   0  0  0  0  0  0  0  0  0  0  0  0
   59.1865   31.0719   46.6550 H   0  0  0  0  0  0  0  0  0  0  0  0
   58.2890   31.4940   44.7230 C   0  0  0  0  0  0  0  0  0  0  0  0
   58.5270   30.1670   44.2230 N   0  0  0  0  0  0  0  0  0  0  0  0
   58.6590   30.0520   43.1930 H   0  0  0  0  0  0  0  0  0  0  0  0
   58.5720   28.9850   45.0400 C   0  0  0  0  0  0  0  0  0  0  0  0
   59.6570   28.7890   45.9050 C   0  0  0  0  0  0  0  0  0  0  0  0
   60.4448   29.5533   45.9766 H   0  0  0  0  0  0  0  0  0  0  0  0
   59.7430   27.6290   46.6760 C   0  0  0  0  0  0  0  0  0  0  0  0
   60.5936   27.4867   47.3587 H   0  0  0  0  0  0  0  0  0  0  0  0
   58.7530   26.6480   46.5840 C   0  0  0  0  0  0  0  0  0  0  0  0
   58.8308   25.7333   47.1900 H   0  0  0  0  0  0  0  0  0  0  0  0
   57.6580   26.8240   45.7210 C   0  0  0  0  0  0  0  0  0  0  0  0
   56.6220   25.7740   45.5940 C   0  0  0  0  0  0  0  0  0  0  0  0
   55.5050   25.9420   46.1570 O   0  0  0  0  0  0  0  0  0  0  0  0
   56.8560   24.5720   44.8370 N   0  0  0  0  0  0  0  0  0  0  0  0
   55.7320   23.9500   44.1210 C   0  0  0  0  0  0  0  0  0  0  0  0
   55.1045   23.4024   44.8396 H   0  0  0  0  0  0  0  0  0  0  0  0
   55.1461   24.7395   43.6276 H   0  0  0  0  0  0  0  0  0  0  0  0
   56.2430   22.9760   43.0550 C   0  0  0  0  0  0  0  0  0  0  0  0
   55.3804   22.4819   42.5841 H   0  0  0  0  0  0  0  0  0  0  0  0
   56.8239   23.5536   42.3208 H   0  0  0  0  0  0  0  0  0  0  0  0
   57.1700   21.8970   43.6480 C   0  0  0  0  0  0  0  0  0  0  0  0
   56.5559   21.0299   43.9327 H   0  0  0  0  0  0  0  0  0  0  0  0
   57.9119   21.6502   42.8742 H   0  0  0  0  0  0  0  0  0  0  0  0
   57.9540   22.3670   44.8900 C   0  0  0  0  0  0  0  0  0  0  0  0
   57.3974   22.0728   45.7920 H   0  0  0  0  0  0  0  0  0  0  0  0
   58.9473   21.8954   44.8596 H   0  0  0  0  0  0  0  0  0  0  0  0
   58.1560   23.8850   44.9090 C   0  0  0  0  0  0  0  0  0  0  0  0
   58.6675   24.1718   45.8397 H   0  0  0  0  0  0  0  0  0  0  0  0
   58.7647   24.1769   44.0405 H   0  0  0  0  0  0  0  0  0  0  0  0
   57.5860   27.9860   44.9350 C   0  0  0  0  0  0  0  0  0  0  0  0
   56.7511   28.1165   44.2308 H   0  0  0  0  0  0  0  0  0  0  0  0
   57.6210   32.4560   43.9520 C   0  0  0  0  0  0  0  0  0  0  0  0
   57.2828   32.2124   42.9340 H   0  0  0  0  0  0  0  0  0  0  0  0
  1  2  1  0
  2  3  1  0
  3  4  1  0
  4  5  2  0
  5  6  1  0
  6  7  1  0
  7  8  1  0
  7  9  1  0
  9 10  1  0
  9 11  1  0
  9 12  1  0
 12 13  1  0
 12 14  1  0
 12 15  1  0
 15 16  2  0
 16 17  1  0
 16 18  1  0
 18 19  1  0
 18 20  2  0
 20 21  1  0
 20 22  1  0
 22 23  1  0
 22 24  2  0
 24 25  1  0
  6 26  2  0
 26 27  1  0
 26 28  1  0
  4 29  1  0
 29 30  1  0
 29 31  2  0
 31 32  1  0
 32 33  1  0
 32 34  1  0
 34 35  2  0
 35 36  1  0
 35 37  1  0
 37 38  1  0
 37 39  2  0
 39 40  1  0
 39 41  1  0
 41 42  1  0
 42 43  2  0
 42 44  1  0
 44 45  1  0
 45 46  1  0
 45 47  1  0
 45 48  1  0
 48 49  1  0
 48 50  1  0
 48 51  1  0
 51 52  1  0
 51 53  1  0
 51 54  1  0
 54 55  1  0
 54 56  1  0
 54 57  1  0
 57 58  1  0
 57 59  1  0
 41 60  2  0
 60 61  1  0
 31 62  1  0
 62 63  1  0
 62  2  2  0
 24 15  1  0
 60 34  1  0
 57 44  1  0
M  CHG  2   3  -1  26   1
M  END
>  <UniqueID>  (59) 
56

>  <SMILES>  (59) 
[NH2+]=C(/N=c1/cc(Nc2cccc(C(=O)N3CCCCC3)c2)cc[n-]1)NCCc1ccc(F)cc1

>  <Energy>  (59) 
78.77264806644854

>  <Genealogy>  (59) 
[NH2+]=C(N=c1cc(Nc2cccc(C(=O)N3CCCCC3)c2)cc[n-]1)NCCc1ccc(F)cc1 (protonated)
[NH2+]=C(/N=c1/cc(Nc2cccc(C(=O)N3CCCCC3)c2)cc[n-]1)NCCc1ccc(F)cc1 (cis-trans isomerization)
[NH2+]=C(/N=c1/cc(Nc2cccc(C(=O)N3CCCCC3)c2)cc[n-]1)NCCc1ccc(F)cc1 (3D coordinates assigned)
[NH2+]=C(/N=c1/cc(Nc2cccc(C(=O)N3CCCCC3)c2)cc[n-]1)NCCc1ccc(F)cc1 (nonaromatic ring conformer: 78.77264806644854 kcal/mol)

>  <smiles>  (59) 
N=C(N=c1cc(Nc2cccc(C(=O)N3CCCCC3)c2)cc[nH]1)NCCc1ccc(F)cc1

>  <score_type>  (59) 
oracle

>  <origin>  (59) 
adg

>  <m_score__min__energy>  (59) 
-8.8699999999999992

>  <m_primary>  (59) 
energy

$$$$
59:0
     RDKit          3D

 63 66  0  0  0  0  0  0  0  0999 V2000
   62.7370   30.2380   50.5380 C   0  0  0  0  0  0  0  0  0  0  0  0
   62.6230   31.4090   49.6190 C   0  0  0  0  0  0  0  0  0  0  0  0
   63.3730   31.6160   48.4760 C   0  0  0  0  0  0  0  0  0  0  0  0
   62.9430   32.8420   48.0110 C   0  0  0  0  0  0  0  0  0  0  0  0
   63.4020   33.5010   46.7490 C   0  0  0  0  0  0  0  0  0  0  0  0
   61.9980   33.3200   48.8500 N   0  0  0  0  0  0  0  0  0  0  0  0
   61.2220   34.5500   48.7030 C   0  0  0  0  0  0  0  0  0  0  0  0
   60.1300   34.3550   47.6860 C   0  0  0  0  0  0  0  0  0  0  0  0
   60.3210   34.7400   46.3510 C   0  0  0  0  0  0  0  0  0  0  0  0
   59.3220   34.5080   45.4000 C   0  0  0  0  0  0  0  0  0  0  0  0
   58.1160   33.8980   45.7740 C   0  0  0  0  0  0  0  0  0  0  0  0
   57.0670   33.5880   44.7390 C   0  0  0  0  0  0  0  0  0  0  0  0
   56.8670   32.1440   44.6290 N   0  0  0  0  0  0  0  0  0  0  0  0
   57.5970   31.3540   43.6830 C   0  0  0  0  0  0  0  0  0  0  0  0
   58.4960   31.8840   42.9740 O   0  0  0  0  0  0  0  0  0  0  0  0
   57.3210   29.8810   43.5500 C   0  0  0  0  0  0  0  0  0  0  0  0
   57.6790   29.1030   44.8430 C   0  0  2  0  0  0  0  0  0  0  0  0
   58.3960   30.0280   45.7940 C   0  0  0  0  0  0  0  0  0  0  0  0
   57.7440   30.8080   46.5360 O   0  0  0  0  0  0  0  0  0  0  0  0
   59.8260   30.0920   45.7830 N   0  0  0  0  0  0  0  0  0  0  0  0
   60.6480   29.0050   45.2560 C   0  0  0  0  0  0  0  0  0  0  0  0
   59.9170   28.2280   44.1550 C   0  0  0  0  0  0  0  0  0  0  0  0
   58.5450   27.9250   44.5990 N   0  0  0  0  0  0  0  0  0  0  0  0
   57.9220   26.6890   44.0750 C   0  0  0  0  0  0  0  0  0  0  0  0
   57.7920   25.5770   45.0920 C   0  0  0  0  0  0  0  0  0  0  0  0
   57.8090   24.2320   44.6730 C   0  0  0  0  0  0  0  0  0  0  0  0
   57.6800   23.1990   45.6040 C   0  0  0  0  0  0  0  0  0  0  0  0
   57.5130   23.4950   46.9590 C   0  0  0  0  0  0  0  0  0  0  0  0
   57.3870   22.4680   47.8830 O   0  0  0  0  0  0  0  0  0  0  0  0
   57.4650   24.8280   47.3820 C   0  0  0  0  0  0  0  0  0  0  0  0
   57.5940   25.8630   46.4550 C   0  0  0  0  0  0  0  0  0  0  0  0
   57.9280   33.5050   47.1080 C   0  0  0  0  0  0  0  0  0  0  0  0
   58.9290   33.7310   48.0570 C   0  0  0  0  0  0  0  0  0  0  0  0
   61.7990   32.4520   49.8300 N   0  0  0  0  0  0  0  0  0  0  0  0
   62.7031   30.5858   51.5810 H   0  0  0  0  0  0  0  0  0  0  0  0
   61.9020   29.5457   50.3551 H   0  0  0  0  0  0  0  0  0  0  0  0
   63.6898   29.7197   50.3551 H   0  0  0  0  0  0  0  0  0  0  0  0
   64.1363   30.9558   48.0384 H   0  0  0  0  0  0  0  0  0  0  0  0
   64.0146   34.3805   46.9965 H   0  0  0  0  0  0  0  0  0  0  0  0
   64.0015   32.7902   46.1613 H   0  0  0  0  0  0  0  0  0  0  0  0
   62.5275   33.8169   46.1613 H   0  0  0  0  0  0  0  0  0  0  0  0
   60.7736   34.8151   49.6718 H   0  0  0  0  0  0  0  0  0  0  0  0
   61.8882   35.3574   48.3651 H   0  0  0  0  0  0  0  0  0  0  0  0
   61.2607   35.2266   46.0505 H   0  0  0  0  0  0  0  0  0  0  0  0
   59.4832   34.8056   44.3533 H   0  0  0  0  0  0  0  0  0  0  0  0
   56.1190   34.0635   45.0308 H   0  0  0  0  0  0  0  0  0  0  0  0
   57.4021   33.9758   43.7657 H   0  0  0  0  0  0  0  0  0  0  0  0
   56.1620   31.6730   45.2400 H   0  0  0  0  0  0  0  0  0  0  0  0
   56.2518   29.7382   43.3343 H   0  0  0  0  0  0  0  0  0  0  0  0
   57.9474   29.4905   42.7345 H   0  0  0  0  0  0  0  0  0  0  0  0
   56.7309   28.7366   45.2636 H   0  0  0  0  0  0  0  0  0  0  0  0
   61.5745   29.4274   44.8399 H   0  0  0  0  0  0  0  0  0  0  0  0
   60.8686   28.3098   46.0795 H   0  0  0  0  0  0  0  0  0  0  0  0
   59.8806   28.8360   43.2390 H   0  0  0  0  0  0  0  0  0  0  0  0
   60.4527   27.2895   43.9497 H   0  0  0  0  0  0  0  0  0  0  0  0
   56.9157   26.9395   43.7081 H   0  0  0  0  0  0  0  0  0  0  0  0
   58.5856   26.3140   43.2819 H   0  0  0  0  0  0  0  0  0  0  0  0
   57.9247   23.9939   43.6053 H   0  0  0  0  0  0  0  0  0  0  0  0
   57.7099   22.1514   45.2700 H   0  0  0  0  0  0  0  0  0  0  0  0
   57.3252   25.0606   48.4480 H   0  0  0  0  0  0  0  0  0  0  0  0
   57.5405   26.9087   46.7921 H   0  0  0  0  0  0  0  0  0  0  0  0
   56.9889   33.0170   47.4081 H   0  0  0  0  0  0  0  0  0  0  0  0
   58.7746   33.4181   49.1002 H   0  0  0  0  0  0  0  0  0  0  0  0
  1  2  1  0
  2  3  1  0
  3  4  2  0
  4  5  1  0
  4  6  1  0
  6  7  1  0
  7  8  1  0
  8  9  2  0
  9 10  1  0
 10 11  2  0
 11 12  1  0
 12 13  1  0
 13 14  1  0
 14 15  2  0
 14 16  1  0
 16 17  1  0
 17 18  1  0
 18 19  2  0
 18 20  1  0
 20 21  1  0
 21 22  1  0
 22 23  1  0
 23 24  1  0
 24 25  1  0
 25 26  2  0
 26 27  1  0
 27 28  2  0
 28 29  1  0
 28 30  1  0
 30 31  2  0
 11 32  1  0
 32 33  2  0
  6 34  1  0
 34  2  2  0
 33  8  1  0
 23 17  1  0
 31 25  1  0
  1 35  1  0
  1 36  1  0
  1 37  1  0
  3 38  1  0
  5 39  1  0
  5 40  1  0
  5 41  1  0
  7 42  1  0
  7 43  1  0
  9 44  1  0
 10 45  1  0
 12 46  1  0
 12 47  1  0
 13 48  1  0
 16 49  1  0
 16 50  1  0
 17 51  1  1
 21 52  1  0
 21 53  1  0
 22 54  1  0
 22 55  1  0
 24 56  1  0
 24 57  1  0
 26 58  1  0
 27 59  1  0
 30 60  1  0
 31 61  1  0
 32 62  1  0
 33 63  1  0
M  CHG  2  20  -1  29  -1
M  END
>  <UniqueID>  (60) 
57

>  <SMILES>  (60) 
Cc1cc(C)n(Cc2ccc(CNC(=O)C[C@@H]3C(=O)[N-]CCN3Cc3ccc([O-])cc3)cc2)n1

>  <Energy>  (60) 
100.86091872843637

>  <Genealogy>  (60) 
Cc1cc(C)n(Cc2ccc(CNC(=O)CC3C(=O)[N-]CCN3Cc3ccc([O-])cc3)cc2)n1 (protonated)
Cc1cc(C)n(Cc2ccc(CNC(=O)C[C@@H]3C(=O)[N-]CCN3Cc3ccc([O-])cc3)cc2)n1 (chirality)
Cc1cc(C)n(Cc2ccc(CNC(=O)C[C@@H]3C(=O)[N-]CCN3Cc3ccc([O-])cc3)cc2)n1 (3D coordinates assigned)
Cc1cc(C)n(Cc2ccc(CNC(=O)C[C@@H]3C(=O)[N-]CCN3Cc3ccc([O-])cc3)cc2)n1 (nonaromatic ring conformer: 100.86091872843637 kcal/mol)

>  <smiles>  (60) 
Cc1cc(C)n(Cc2ccc(CNC(=O)CC3C(=O)NCCN3Cc3ccc(O)cc3)cc2)n1

>  <score_type>  (60) 
oracle

>  <origin>  (60) 
adg

>  <m_score__min__energy>  (60) 
-14.15

>  <m_primary>  (60) 
energy

$$$$
60:0
     RDKit          3D

 20 21  0  0  0  0  0  0  0  0999 V2000
   52.1130   25.7000   52.7430 N   0  0  0  0  0  0  0  0  0  0  0  0
   52.6360   26.7090   53.6050 C   0  0  0  0  0  0  0  0  0  0  0  0
   53.5430   26.4040   54.4260 O   0  0  0  0  0  0  0  0  0  0  0  0
   52.1220   28.0980   53.5390 C   0  0  0  0  0  0  0  0  0  0  0  0
   51.5520   28.7050   54.6720 C   0  0  0  0  0  0  0  0  0  0  0  0
   51.0670   30.0150   54.6120 C   0  0  0  0  0  0  0  0  0  0  0  0
   51.1470   30.7420   53.4130 C   0  0  0  0  0  0  0  0  0  0  0  0
   50.6750   32.0620   53.2980 C   0  0  0  0  0  0  0  0  0  0  0  0
   50.1560   32.6440   54.2900 O   0  0  0  0  0  0  0  0  0  0  0  0
   50.7780   32.7190   52.1070 N   0  0  0  0  0  0  0  0  0  0  0  0
   50.3160   34.0120   52.0000 O   0  0  0  0  0  0  0  0  0  0  0  0
   51.3360   32.1110   51.0220 C   0  0  0  0  0  0  0  0  0  0  0  0
   51.4270   32.7270   49.9260 O   0  0  0  0  0  0  0  0  0  0  0  0
   51.7970   30.8370   51.1120 N   0  0  0  0  0  0  0  0  0  0  0  0
   51.7170   30.1410   52.2750 C   0  0  0  0  0  0  0  0  0  0  0  0
   52.2010   28.8290   52.3390 C   0  0  0  0  0  0  0  0  0  0  0  0
   51.0830   25.6080   52.5870 H   0  0  0  0  0  0  0  0  0  0  0  0
   51.4869   28.1433   55.6155 H   0  0  0  0  0  0  0  0  0  0  0  0
   50.6220   30.4771   55.5055 H   0  0  0  0  0  0  0  0  0  0  0  0
   52.6459   28.3665   51.4456 H   0  0  0  0  0  0  0  0  0  0  0  0
  1  2  1  0
  2  3  2  0
  2  4  1  0
  4  5  2  0
  5  6  1  0
  6  7  2  0
  7  8  1  0
  8  9  2  0
  8 10  1  0
 10 11  1  0
 10 12  1  0
 12 13  2  0
 12 14  1  0
 14 15  1  0
 15 16  2  0
 16  4  1  0
 15  7  1  0
  1 17  1  0
  5 18  1  0
  6 19  1  0
 16 20  1  0
M  CHG  3   1  -1  11  -1  14  -1
M  END
>  <UniqueID>  (61) 
58

>  <SMILES>  (61) 
[NH-]C(=O)c1ccc2c(=O)n([O-])c(=O)[n-]c2c1

>  <Energy>  (61) 
26.76302542218585

>  <Genealogy>  (61) 
[NH-]C(=O)c1ccc2c(=O)n([O-])c(=O)[n-]c2c1 (protonated)
[NH-]C(=O)c1ccc2c(=O)n([O-])c(=O)[n-]c2c1 (3D coordinates assigned)
[NH-]C(=O)c1ccc2c(=O)n([O-])c(=O)[n-]c2c1 (optimized conformer: 26.76302542218585 kcal/mol)

>  <smiles>  (61) 
NC(=O)c1ccc2c(=O)n(O)c(=O)[nH]c2c1

>  <score_type>  (61) 
oracle

>  <origin>  (61) 
adg

>  <m_score__min__energy>  (61) 
-12.390000000000001

>  <m_primary>  (61) 
energy

$$$$
61:0
     RDKit          3D

 52 54  0  0  0  0  0  0  0  0999 V2000
   63.8600   33.4180   47.3290 N   0  0  0  0  0  0  0  0  0  0  0  0
   62.9240   32.9440   48.3500 C   0  0  1  0  0  0  0  0  0  0  0  0
   61.9060   34.0470   48.7230 C   0  0  0  0  0  0  0  0  0  0  0  0
   60.6900   34.0350   47.8240 C   0  0  0  0  0  0  0  0  0  0  0  0
   60.8230   34.4140   46.4760 C   0  0  0  0  0  0  0  0  0  0  0  0
   59.7120   34.4230   45.6300 C   0  0  0  0  0  0  0  0  0  0  0  0
   58.4560   34.0550   46.1190 C   0  0  0  0  0  0  0  0  0  0  0  0
   58.3110   33.6710   47.4540 C   0  0  0  0  0  0  0  0  0  0  0  0
   59.4190   33.6610   48.3090 C   0  0  0  0  0  0  0  0  0  0  0  0
   59.2450   33.2810   49.6360 O   0  0  0  0  0  0  0  0  0  0  0  0
   62.2580   31.6780   47.8690 C   0  0  0  0  0  0  0  0  0  0  0  0
   62.6350   31.1630   46.7830 O   0  0  0  0  0  0  0  0  0  0  0  0
   61.1510   31.1120   48.5880 N   0  0  0  0  0  0  0  0  0  0  0  0
   60.5390   29.8650   48.2340 C   0  0  0  0  0  0  0  0  0  0  0  0
   60.7440   28.7170   48.9890 C   0  0  0  0  0  0  0  0  0  0  0  0
   59.9240   27.4530   48.2520 S   0  0  0  0  0  0  0  0  0  0  0  0
   59.3130   28.3320   46.9540 C   0  0  0  0  0  0  0  0  0  0  0  0
   58.4920   27.7430   45.8790 C   0  0  0  0  0  0  0  0  0  0  0  0
   58.8870   27.8260   44.6840 O   0  0  0  0  0  0  0  0  0  0  0  0
   57.2640   27.0740   46.1800 N   0  0  0  0  0  0  0  0  0  0  0  0
   56.9800   25.6880   45.8200 C   0  0  2  0  0  0  0  0  0  0  0  0
   57.3700   25.4320   44.3520 C   0  0  0  0  0  0  0  0  0  0  0  0
   57.2660   23.9710   43.9950 C   0  0  0  0  0  0  0  0  0  0  0  0
   58.0960   23.0240   44.6180 C   0  0  0  0  0  0  0  0  0  0  0  0
   58.0150   21.6740   44.2630 C   0  0  0  0  0  0  0  0  0  0  0  0
   57.1110   21.2610   43.2810 C   0  0  0  0  0  0  0  0  0  0  0  0
   56.2880   22.1970   42.6500 C   0  0  0  0  0  0  0  0  0  0  0  0
   56.3660   23.5490   43.0020 C   0  0  0  0  0  0  0  0  0  0  0  0
   55.5200   25.4170   46.0420 C   0  0  0  0  0  0  0  0  0  0  0  0
   54.6740   26.3420   45.9200 O   0  0  0  0  0  0  0  0  0  0  0  0
   55.0910   24.1320   46.3500 O   0  0  0  0  0  0  0  0  0  0  0  0
   59.7530   29.6560   47.0790 C   0  0  0  0  0  0  0  0  0  0  0  0
   59.4700   30.9010   45.8640 Cl  0  0  0  0  0  0  0  0  0  0  0  0
   63.5090   33.1200   46.3900 H   0  0  0  0  0  0  0  0  0  0  0  0
   64.7910   32.9650   47.4690 H   0  0  0  0  0  0  0  0  0  0  0  0
   63.4725   32.7079   49.2738 H   0  0  0  0  0  0  0  0  0  0  0  0
   61.5794   33.8901   49.7616 H   0  0  0  0  0  0  0  0  0  0  0  0
   62.4047   35.0198   48.6008 H   0  0  0  0  0  0  0  0  0  0  0  0
   61.8092   34.7054   46.0854 H   0  0  0  0  0  0  0  0  0  0  0  0
   59.8259   34.7203   44.5771 H   0  0  0  0  0  0  0  0  0  0  0  0
   57.5811   34.0677   45.4524 H   0  0  0  0  0  0  0  0  0  0  0  0
   57.3223   33.3753   47.8348 H   0  0  0  0  0  0  0  0  0  0  0  0
   60.6520   31.7140   49.2820 H   0  0  0  0  0  0  0  0  0  0  0  0
   61.3407   28.6488   49.9105 H   0  0  0  0  0  0  0  0  0  0  0  0
   57.5720   25.0080   46.4502 H   0  0  0  0  0  0  0  0  0  0  0  0
   56.6976   26.0075   43.6988 H   0  0  0  0  0  0  0  0  0  0  0  0
   58.4155   25.7453   44.2149 H   0  0  0  0  0  0  0  0  0  0  0  0
   58.8124   23.3459   45.3881 H   0  0  0  0  0  0  0  0  0  0  0  0
   58.6639   20.9361   44.7575 H   0  0  0  0  0  0  0  0  0  0  0  0
   57.0473   20.1982   43.0046 H   0  0  0  0  0  0  0  0  0  0  0  0
   55.5780   21.8709   41.8757 H   0  0  0  0  0  0  0  0  0  0  0  0
   55.7203   24.2842   42.4994 H   0  0  0  0  0  0  0  0  0  0  0  0
  1  2  1  0
  2  3  1  0
  3  4  1  0
  4  5  2  0
  5  6  1  0
  6  7  2  0
  7  8  1  0
  8  9  2  0
  9 10  1  0
  2 11  1  0
 11 12  2  0
 11 13  1  0
 13 14  1  0
 14 15  2  0
 15 16  1  0
 16 17  1  0
 17 18  1  0
 18 19  2  0
 18 20  1  0
 20 21  1  0
 21 22  1  0
 22 23  1  0
 23 24  2  0
 24 25  1  0
 25 26  2  0
 26 27  1  0
 27 28  2  0
 21 29  1  0
 29 30  2  0
 29 31  1  0
 17 32  2  0
 32 33  1  0
  9  4  1  0
 32 14  1  0
 28 23  1  0
  1 34  1  0
  1 35  1  0
  2 36  1  1
  3 37  1  0
  3 38  1  0
  5 39  1  0
  6 40  1  0
  7 41  1  0
  8 42  1  0
 13 43  1  0
 15 44  1  0
 21 45  1  1
 22 46  1  0
 22 47  1  0
 24 48  1  0
 25 49  1  0
 26 50  1  0
 27 51  1  0
 28 52  1  0
M  CHG  3  10  -1  20  -1  31  -1
M  END
>  <UniqueID>  (62) 
59

>  <SMILES>  (62) 
N[C@@H](Cc1ccccc1[O-])C(=O)Nc1csc(C(=O)[N-][C@H](Cc2ccccc2)C(=O)[O-])c1Cl

>  <Energy>  (62) 
78.34287484403372

>  <Genealogy>  (62) 
NC(Cc1ccccc1[O-])C(=O)Nc1csc(C(=O)[N-]C(Cc2ccccc2)C(=O)[O-])c1Cl (protonated)
N[C@@H](Cc1ccccc1[O-])C(=O)Nc1csc(C(=O)[N-][C@H](Cc2ccccc2)C(=O)[O-])c1Cl (chirality)
N[C@@H](Cc1ccccc1[O-])C(=O)Nc1csc(C(=O)[N-][C@H](Cc2ccccc2)C(=O)[O-])c1Cl (3D coordinates assigned)
N[C@@H](Cc1ccccc1[O-])C(=O)Nc1csc(C(=O)[N-][C@H](Cc2ccccc2)C(=O)[O-])c1Cl (optimized conformer: 78.34287484403372 kcal/mol)

>  <smiles>  (62) 
NC(Cc1ccccc1O)C(=O)Nc1csc(C(=O)NC(Cc2ccccc2)C(=O)O)c1Cl

>  <score_type>  (62) 
oracle

>  <origin>  (62) 
adg

>  <m_score__min__energy>  (62) 
-14.66

>  <m_primary>  (62) 
energy

$$$$
62:0
     RDKit          3D

 34 36  0  0  0  0  0  0  0  0999 V2000
   59.4572   32.1351   46.9137 H   0  0  0  0  0  0  0  0  0  0  0  0
   58.7110   31.6490   46.2680 C   0  0  0  0  0  0  0  0  0  0  0  0
   57.9480   32.4030   45.4540 C   0  0  0  0  0  0  0  0  0  0  0  0
   58.0910   33.8820   45.4130 C   0  0  0  0  0  0  0  0  0  0  0  0
   57.0650   34.5870   45.2100 O   0  0  0  0  0  0  0  0  0  0  0  0
   59.4090   34.5440   45.5660 C   0  0  0  0  0  0  0  0  0  0  0  0
   59.9191   34.9277   44.6701 H   0  0  0  0  0  0  0  0  0  0  0  0
   59.9990   34.6900   46.7610 C   0  0  0  0  0  0  0  0  0  0  0  0
   59.5913   35.4343   47.4608 H   0  0  0  0  0  0  0  0  0  0  0  0
   61.1780   33.8920   47.1820 C   0  0  0  0  0  0  0  0  0  0  0  0
   62.3390   33.8460   46.3830 C   0  0  0  0  0  0  0  0  0  0  0  0
   62.3796   34.4213   45.4463 H   0  0  0  0  0  0  0  0  0  0  0  0
   63.4380   33.0760   46.7710 C   0  0  0  0  0  0  0  0  0  0  0  0
   64.3411   33.0533   46.1434 H   0  0  0  0  0  0  0  0  0  0  0  0
   63.3930   32.3360   47.9520 C   0  0  0  0  0  0  0  0  0  0  0  0
   64.2613   31.7334   48.2571 H   0  0  0  0  0  0  0  0  0  0  0  0
   62.2460   32.3600   48.7470 C   0  0  0  0  0  0  0  0  0  0  0  0
   62.2135   31.7727   49.6765 H   0  0  0  0  0  0  0  0  0  0  0  0
   61.1370   33.1260   48.3700 C   0  0  0  0  0  0  0  0  0  0  0  0
   59.6120   33.1260   49.5370 Br  0  0  0  0  0  0  0  0  0  0  0  0
   56.9800   31.7430   44.4870 C   0  0  0  0  0  0  0  0  0  0  0  0
   57.4368   31.7334   43.4864 H   0  0  0  0  0  0  0  0  0  0  0  0
   56.0470   32.3253   44.5083 H   0  0  0  0  0  0  0  0  0  0  0  0
   56.6520   30.3980   44.8510 O   0  0  0  0  0  0  0  0  0  0  0  0
   57.5100   29.5940   45.6020 C   0  0  0  0  0  0  0  0  0  0  0  0
   57.3050   28.2120   45.6700 C   0  0  0  0  0  0  0  0  0  0  0  0
   56.4691   27.7516   45.1230 H   0  0  0  0  0  0  0  0  0  0  0  0
   58.1650   27.4160   46.4350 C   0  0  0  0  0  0  0  0  0  0  0  0
   58.0095   26.3281   46.4831 H   0  0  0  0  0  0  0  0  0  0  0  0
   59.2230   28.0030   47.1390 C   0  0  0  0  0  0  0  0  0  0  0  0
   60.3900   26.9150   48.1880 Br  0  0  0  0  0  0  0  0  0  0  0  0
   59.4200   29.3880   47.0810 C   0  0  0  0  0  0  0  0  0  0  0  0
   60.2460   29.8506   47.6411 H   0  0  0  0  0  0  0  0  0  0  0  0
   58.5630   30.1850   46.3080 C   0  0  0  0  0  0  0  0  0  0  0  0
  1  2  1  0
  2  3  2  0
  3  4  1  0
  4  5  2  0
  4  6  1  0
  6  7  1  0
  6  8  2  0
  8  9  1  0
  8 10  1  0
 10 11  2  0
 11 12  1  0
 11 13  1  0
 13 14  1  0
 13 15  2  0
 15 16  1  0
 15 17  1  0
 17 18  1  0
 17 19  2  0
 19 20  1  0
  3 21  1  0
 21 22  1  0
 21 23  1  0
 21 24  1  0
 24 25  1  0
 25 26  2  0
 26 27  1  0
 26 28  1  0
 28 29  1  0
 28 30  2  0
 30 31  1  0
 30 32  1  0
 32 33  1  0
 32 34  2  0
 34  2  1  0
 19 10  1  0
 34 25  1  0
M  END
>  <UniqueID>  (63) 
60

>  <SMILES>  (63) 
O=C(/C=C/c1ccccc1Br)C1=Cc2cc(Br)ccc2OC1

>  <Energy>  (63) 
46.02638752248331

>  <Genealogy>  (63) 
O=C(/C=C/c1ccccc1Br)C1=Cc2cc(Br)ccc2OC1 (cis-trans isomerization)
O=C(/C=C/c1ccccc1Br)C1=Cc2cc(Br)ccc2OC1 (3D coordinates assigned)
O=C(/C=C/c1ccccc1Br)C1=Cc2cc(Br)ccc2OC1 (nonaromatic ring conformer: 46.02638752248331 kcal/mol)

>  <smiles>  (63) 
O=C(C=Cc1ccccc1Br)C1=Cc2cc(Br)ccc2OC1

>  <score_type>  (63) 
oracle

>  <origin>  (63) 
adg

>  <m_score__min__energy>  (63) 
-8.8399999999999999

>  <m_primary>  (63) 
energy

$$$$
63:0
     RDKit          3D

 74 77  0  0  0  0  0  0  0  0999 V2000
   59.6730   28.9150   48.3310 C   0  0  0  0  0  0  0  0  0  0  0  0
   59.1550   28.5970   46.9590 C   0  0  0  0  0  0  0  0  0  0  0  0
   60.0260   28.1260   45.9640 C   0  0  0  0  0  0  0  0  0  0  0  0
   59.5470   27.8670   44.6770 C   0  0  0  0  0  0  0  0  0  0  0  0
   58.2010   28.0850   44.3710 C   0  0  0  0  0  0  0  0  0  0  0  0
   57.3190   28.5640   45.3470 C   0  0  0  0  0  0  0  0  0  0  0  0
   55.9720   28.7500   44.9930 O   0  0  0  0  0  0  0  0  0  0  0  0
   55.4940   29.7210   44.0610 C   0  0  0  0  0  0  0  0  0  0  0  0
   56.5000   30.8150   43.8890 C   0  0  0  0  0  0  0  0  0  0  0  0
   57.0580   31.2220   42.6920 C   0  0  0  0  0  0  0  0  0  0  0  0
   57.9550   32.2160   43.0180 C   0  0  0  0  0  0  0  0  0  0  0  0
   57.8840   32.3480   44.3920 C   0  0  0  0  0  0  0  0  0  0  0  0
   58.6770   33.2630   45.2190 C   0  0  0  0  0  0  0  0  0  0  0  0
   58.8690   34.4350   44.7960 O   0  0  0  0  0  0  0  0  0  0  0  0
   59.1950   32.8630   46.5060 N   0  0  0  0  0  0  0  0  0  0  0  0
   58.9110   33.6800   47.7000 C   0  0  0  0  0  0  0  0  0  0  0  0
   58.8930   32.8430   48.9420 C   0  0  0  0  0  0  0  0  0  0  0  0
   58.1590   31.8220   49.0040 O   0  0  0  0  0  0  0  0  0  0  0  0
   59.7080   33.2210   50.0540 N   0  0  0  0  0  0  0  0  0  0  0  0
   59.2280   33.9220   51.2440 C   0  0  0  0  0  0  0  0  0  0  0  0
   59.5620   33.1410   52.5550 C   0  0  0  0  0  0  0  0  0  0  0  0
   60.9910   32.5470   52.4380 C   0  0  0  0  0  0  0  0  0  0  0  0
   59.5190   34.1650   53.7220 C   0  0  0  0  0  0  0  0  0  0  0  0
   58.5340   32.0690   52.8070 N   0  0  0  0  0  0  0  0  0  0  0  0
   59.0290   30.6660   52.7710 C   0  0  0  0  0  0  0  0  0  0  0  0
   58.4350   29.8750   51.5900 C   0  0  0  0  0  0  0  0  0  0  0  0
   57.0190   29.7980   51.6210 O   0  0  0  0  0  0  0  0  0  0  0  0
   56.3970   30.9510   52.1740 C   0  0  0  0  0  0  0  0  0  0  0  0
   57.2480   32.2310   52.0830 C   0  0  0  0  0  0  0  0  0  0  0  0
   60.1740   31.7650   46.5910 C   0  0  0  0  0  0  0  0  0  0  0  0
   61.4730   32.2440   47.1850 C   0  0  0  0  0  0  0  0  0  0  0  0
   62.0950   33.4030   46.6900 C   0  0  0  0  0  0  0  0  0  0  0  0
   63.2930   33.8550   47.2510 C   0  0  0  0  0  0  0  0  0  0  0  0
   63.8860   33.1480   48.3020 C   0  0  0  0  0  0  0  0  0  0  0  0
   63.2820   31.9860   48.7900 C   0  0  0  0  0  0  0  0  0  0  0  0
   62.0840   31.5310   48.2310 C   0  0  0  0  0  0  0  0  0  0  0  0
   56.9940   31.5190   44.8810 O   0  0  0  0  0  0  0  0  0  0  0  0
   57.8070   28.8340   46.6430 C   0  0  0  0  0  0  0  0  0  0  0  0
   58.9915   28.4966   49.0863 H   0  0  0  0  0  0  0  0  0  0  0  0
   60.6735   28.4753   48.4562 H   0  0  0  0  0  0  0  0  0  0  0  0
   59.7337   30.0062   48.4562 H   0  0  0  0  0  0  0  0  0  0  0  0
   61.0880   27.9604   46.1979 H   0  0  0  0  0  0  0  0  0  0  0  0
   60.2314   27.4904   43.9026 H   0  0  0  0  0  0  0  0  0  0  0  0
   57.8317   27.8787   43.3556 H   0  0  0  0  0  0  0  0  0  0  0  0
   55.3164   29.2354   43.0901 H   0  0  0  0  0  0  0  0  0  0  0  0
   54.5574   30.1531   44.4432 H   0  0  0  0  0  0  0  0  0  0  0  0
   56.8329   30.8333   41.6879 H   0  0  0  0  0  0  0  0  0  0  0  0
   58.5946   32.7860   42.3281 H   0  0  0  0  0  0  0  0  0  0  0  0
   59.6888   34.4514   47.7993 H   0  0  0  0  0  0  0  0  0  0  0  0
   57.9193   34.1399   47.5775 H   0  0  0  0  0  0  0  0  0  0  0  0
   59.7039   34.9127   51.2893 H   0  0  0  0  0  0  0  0  0  0  0  0
   58.1341   34.0104   51.1693 H   0  0  0  0  0  0  0  0  0  0  0  0
   61.4008   32.3767   53.4445 H   0  0  0  0  0  0  0  0  0  0  0  0
   60.9478   31.5923   51.8933 H   0  0  0  0  0  0  0  0  0  0  0  0
   61.6373   33.2510   51.8933 H   0  0  0  0  0  0  0  0  0  0  0  0
   59.5415   33.6282   54.6819 H   0  0  0  0  0  0  0  0  0  0  0  0
   60.3899   34.8337   53.6553 H   0  0  0  0  0  0  0  0  0  0  0  0
   58.5951   34.7583   53.6553 H   0  0  0  0  0  0  0  0  0  0  0  0
   60.1247   30.6783   52.6750 H   0  0  0  0  0  0  0  0  0  0  0  0
   58.7169   30.1714   53.7027 H   0  0  0  0  0  0  0  0  0  0  0  0
   58.7374   30.3665   50.6535 H   0  0  0  0  0  0  0  0  0  0  0  0
   58.8185   28.8465   51.6614 H   0  0  0  0  0  0  0  0  0  0  0  0
   55.4531   31.1252   51.6367 H   0  0  0  0  0  0  0  0  0  0  0  0
   56.2461   30.7466   53.2443 H   0  0  0  0  0  0  0  0  0  0  0  0
   57.4560   32.4499   51.0253 H   0  0  0  0  0  0  0  0  0  0  0  0
   56.6879   33.0572   52.5453 H   0  0  0  0  0  0  0  0  0  0  0  0
   59.7627   30.9647   47.2237 H   0  0  0  0  0  0  0  0  0  0  0  0
   60.3701   31.3912   45.5752 H   0  0  0  0  0  0  0  0  0  0  0  0
   61.6371   33.9570   45.8573 H   0  0  0  0  0  0  0  0  0  0  0  0
   63.7700   34.7681   46.8653 H   0  0  0  0  0  0  0  0  0  0  0  0
   64.8273   33.5063   48.7443 H   0  0  0  0  0  0  0  0  0  0  0  0
   63.7498   31.4287   49.6150 H   0  0  0  0  0  0  0  0  0  0  0  0
   61.6173   30.6105   48.6116 H   0  0  0  0  0  0  0  0  0  0  0  0
   57.1276   29.2326   47.4108 H   0  0  0  0  0  0  0  0  0  0  0  0
  1  2  1  0
  2  3  2  0
  3  4  1  0
  4  5  2  0
  5  6  1  0
  6  7  1  0
  7  8  1  0
  8  9  1  0
  9 10  2  0
 10 11  1  0
 11 12  2  0
 12 13  1  0
 13 14  2  0
 13 15  1  0
 15 16  1  0
 16 17  1  0
 17 18  2  0
 17 19  1  0
 19 20  1  0
 20 21  1  0
 21 22  1  0
 21 23  1  0
 21 24  1  0
 24 25  1  0
 25 26  1  0
 26 27  1  0
 27 28  1  0
 28 29  1  0
 15 30  1  0
 30 31  1  0
 31 32  2  0
 32 33  1  0
 33 34  2  0
 34 35  1  0
 35 36  2  0
 12 37  1  0
  6 38  2  0
 38  2  1  0
 37  9  1  0
 29 24  1  0
 36 31  1  0
  1 39  1  0
  1 40  1  0
  1 41  1  0
  3 42  1  0
  4 43  1  0
  5 44  1  0
  8 45  1  0
  8 46  1  0
 10 47  1  0
 11 48  1  0
 16 49  1  0
 16 50  1  0
 20 51  1  0
 20 52  1  0
 22 53  1  0
 22 54  1  0
 22 55  1  0
 23 56  1  0
 23 57  1  0
 23 58  1  0
 25 59  1  0
 25 60  1  0
 26 61  1  0
 26 62  1  0
 28 63  1  0
 28 64  1  0
 29 65  1  0
 29 66  1  0
 30 67  1  0
 30 68  1  0
 32 69  1  0
 33 70  1  0
 34 71  1  0
 35 72  1  0
 36 73  1  0
 38 74  1  0
M  CHG  1  19  -1
M  END
>  <UniqueID>  (64) 
61

>  <SMILES>  (64) 
Cc1cccc(OCc2ccc(C(=O)N(CC(=O)[N-]CC(C)(C)N3CCOCC3)Cc3ccccc3)o2)c1

>  <Energy>  (64) 
122.70873628699226

>  <Genealogy>  (64) 
Cc1cccc(OCc2ccc(C(=O)N(CC(=O)[N-]CC(C)(C)N3CCOCC3)Cc3ccccc3)o2)c1 (protonated)
Cc1cccc(OCc2ccc(C(=O)N(CC(=O)[N-]CC(C)(C)N3CCOCC3)Cc3ccccc3)o2)c1 (3D coordinates assigned)
Cc1cccc(OCc2ccc(C(=O)N(CC(=O)[N-]CC(C)(C)N3CCOCC3)Cc3ccccc3)o2)c1 (nonaromatic ring conformer: 122.70873628699226 kcal/mol)

>  <smiles>  (64) 
Cc1cccc(OCc2ccc(C(=O)N(CC(=O)NCC(C)(C)N3CCOCC3)Cc3ccccc3)o2)c1

>  <score_type>  (64) 
oracle

>  <origin>  (64) 
adg

>  <m_score__min__energy>  (64) 
-11.32

>  <m_primary>  (64) 
energy

$$$$
64:0
     RDKit          3D

 54 56  0  0  0  0  0  0  0  0999 V2000
   59.8830   27.4890   46.4750 C   0  0  0  0  0  0  0  0  0  0  0  0
   59.6900   28.1420   45.1100 C   0  0  0  0  0  0  0  0  0  0  0  0
   59.3800   29.6010   45.2600 C   0  0  0  0  0  0  0  0  0  0  0  0
   60.1080   30.4340   46.0280 N   0  0  0  0  0  0  0  0  0  0  0  0
   59.5460   31.6310   45.9780 N   0  0  0  0  0  0  0  0  0  0  0  0
   60.0490   32.7670   46.7530 C   0  0  0  0  0  0  0  0  0  0  0  0
   59.6650   32.6080   48.2000 C   0  0  0  0  0  0  0  0  0  0  0  0
   59.6970   33.7080   49.0710 C   0  0  0  0  0  0  0  0  0  0  0  0
   59.2910   33.5650   50.4010 C   0  0  0  0  0  0  0  0  0  0  0  0
   58.8610   32.3230   50.8820 C   0  0  0  0  0  0  0  0  0  0  0  0
   58.4190   32.2190   52.2420 N   0  0  0  0  0  0  0  0  0  0  0  0
   57.1770   31.6550   52.6760 C   0  0  0  0  0  0  0  0  0  0  0  0
   57.0280   31.3910   53.8990 O   0  0  0  0  0  0  0  0  0  0  0  0
   56.1290   31.3630   51.7330 N   0  0  0  0  0  0  0  0  0  0  0  0
   54.8650   30.7790   52.0860 C   0  0  0  0  0  0  0  0  0  0  0  0
   54.7670   29.4500   52.5340 C   0  0  0  0  0  0  0  0  0  0  0  0
   53.5200   28.9000   52.8410 C   0  0  0  0  0  0  0  0  0  0  0  0
   52.3560   29.6620   52.6960 C   0  0  0  0  0  0  0  0  0  0  0  0
   50.8040   28.9330   53.0930 Cl  0  0  0  0  0  0  0  0  0  0  0  0
   52.4420   30.9840   52.2260 C   0  0  0  0  0  0  0  0  0  0  0  0
   51.0020   31.9710   52.0140 Cl  0  0  0  0  0  0  0  0  0  0  0  0
   53.6930   31.5320   51.9180 C   0  0  0  0  0  0  0  0  0  0  0  0
   58.7970   31.2300   50.0020 C   0  0  0  0  0  0  0  0  0  0  0  0
   59.2000   31.3710   48.6710 C   0  0  0  0  0  0  0  0  0  0  0  0
   58.4370   31.5820   45.2020 C   0  0  0  0  0  0  0  0  0  0  0  0
   57.5750   32.7630   44.8360 C   0  0  0  0  0  0  0  0  0  0  0  0
   57.0290   33.4440   46.0870 C   0  0  0  0  0  0  0  0  0  0  0  0
   58.2960   30.2850   44.7300 C   0  0  0  0  0  0  0  0  0  0  0  0
   57.2340   29.7400   43.8150 C   0  0  0  0  0  0  0  0  0  0  0  0
   55.9100   29.7020   44.5080 C   0  0  0  0  0  0  0  0  0  0  0  0
   55.1440   30.7000   44.4670 O   0  0  0  0  0  0  0  0  0  0  0  0
   55.5210   28.5650   45.2030 O   0  0  0  0  0  0  0  0  0  0  0  0
   59.6664   28.2220   47.2660 H   0  0  0  0  0  0  0  0  0  0  0  0
   59.1996   26.6325   46.5716 H   0  0  0  0  0  0  0  0  0  0  0  0
   60.9222   27.1416   46.5716 H   0  0  0  0  0  0  0  0  0  0  0  0
   60.6121   28.0274   44.5212 H   0  0  0  0  0  0  0  0  0  0  0  0
   58.8479   27.6521   44.5993 H   0  0  0  0  0  0  0  0  0  0  0  0
   61.1449   32.8098   46.6687 H   0  0  0  0  0  0  0  0  0  0  0  0
   59.6102   33.6965   46.3611 H   0  0  0  0  0  0  0  0  0  0  0  0
   60.0428   34.6863   48.7058 H   0  0  0  0  0  0  0  0  0  0  0  0
   59.3096   34.4347   51.0742 H   0  0  0  0  0  0  0  0  0  0  0  0
   56.2640   31.6420   50.7360 H   0  0  0  0  0  0  0  0  0  0  0  0
   55.6762   28.8405   52.6433 H   0  0  0  0  0  0  0  0  0  0  0  0
   53.4532   27.8619   53.1987 H   0  0  0  0  0  0  0  0  0  0  0  0
   53.7577   32.5632   51.5405 H   0  0  0  0  0  0  0  0  0  0  0  0
   58.4279   30.2583   50.3621 H   0  0  0  0  0  0  0  0  0  0  0  0
   59.1524   30.5085   47.9900 H   0  0  0  0  0  0  0  0  0  0  0  0
   58.1769   33.4857   44.2656 H   0  0  0  0  0  0  0  0  0  0  0  0
   56.7284   32.4072   44.2305 H   0  0  0  0  0  0  0  0  0  0  0  0
   57.4298   32.9441   46.9811 H   0  0  0  0  0  0  0  0  0  0  0  0
   57.3325   34.5013   46.0910 H   0  0  0  0  0  0  0  0  0  0  0  0
   55.9310   33.3777   46.0910 H   0  0  0  0  0  0  0  0  0  0  0  0
   57.1582   30.3833   42.9259 H   0  0  0  0  0  0  0  0  0  0  0  0
   57.5100   28.7163   43.5221 H   0  0  0  0  0  0  0  0  0  0  0  0
  1  2  1  0
  2  3  1  0
  3  4  2  0
  4  5  1  0
  5  6  1  0
  6  7  1  0
  7  8  2  0
  8  9  1  0
  9 10  2  0
 10 11  1  0
 11 12  1  0
 12 13  2  0
 12 14  1  0
 14 15  1  0
 15 16  2  0
 16 17  1  0
 17 18  2  0
 18 19  1  0
 18 20  1  0
 20 21  1  0
 20 22  2  0
 10 23  1  0
 23 24  2  0
  5 25  1  0
 25 26  1  0
 26 27  1  0
 25 28  2  0
 28 29  1  0
 29 30  1  0
 30 31  2  0
 30 32  1  0
 28  3  1  0
 24  7  1  0
 22 15  1  0
  1 33  1  0
  1 34  1  0
  1 35  1  0
  2 36  1  0
  2 37  1  0
  6 38  1  0
  6 39  1  0
  8 40  1  0
  9 41  1  0
 14 42  1  0
 16 43  1  0
 17 44  1  0
 22 45  1  0
 23 46  1  0
 24 47  1  0
 26 48  1  0
 26 49  1  0
 27 50  1  0
 27 51  1  0
 27 52  1  0
 29 53  1  0
 29 54  1  0
M  CHG  2  11  -1  32  -1
M  END
>  <UniqueID>  (65) 
62

>  <SMILES>  (65) 
CCc1nn(Cc2ccc([N-]C(=O)Nc3ccc(Cl)c(Cl)c3)cc2)c(CC)c1CC(=O)[O-]

>  <Energy>  (65) 
84.67122599873697

>  <Genealogy>  (65) 
CCc1nn(Cc2ccc([N-]C(=O)Nc3ccc(Cl)c(Cl)c3)cc2)c(CC)c1CC(=O)[O-] (protonated)
CCc1nn(Cc2ccc([N-]C(=O)Nc3ccc(Cl)c(Cl)c3)cc2)c(CC)c1CC(=O)[O-] (3D coordinates assigned)
CCc1nn(Cc2ccc([N-]C(=O)Nc3ccc(Cl)c(Cl)c3)cc2)c(CC)c1CC(=O)[O-] (optimized conformer: 84.67122599873697 kcal/mol)

>  <smiles>  (65) 
CCc1nn(Cc2ccc(NC(=O)Nc3ccc(Cl)c(Cl)c3)cc2)c(CC)c1CC(=O)O

>  <score_type>  (65) 
oracle

>  <origin>  (65) 
adg

>  <m_score__min__energy>  (65) 
-12.59

>  <m_primary>  (65) 
energy

$$$$
65:0
     RDKit          3D

 36 38  0  0  0  0  0  0  0  0999 V2000
   55.6850   24.3780   46.8480 O   0  0  0  0  0  0  0  0  0  0  0  0
   56.0610   25.4950   46.4050 C   0  0  0  0  0  0  0  0  0  0  0  0
   55.1920   26.4650   46.0450 N   0  0  0  0  0  0  0  0  0  0  0  0
   56.0070   27.4530   45.6450 C   0  0  0  0  0  0  0  0  0  0  0  0
   55.5590   28.6870   45.1880 O   0  0  0  0  0  0  0  0  0  0  0  0
   57.3200   27.0650   45.7610 C   0  0  0  0  0  0  0  0  0  0  0  0
   58.5290   27.9000   45.4750 C   0  0  0  0  0  0  0  0  0  0  0  0
   59.1990   28.2980   46.7620 C   0  0  0  0  0  0  0  0  0  0  0  0
   59.4480   27.3430   47.7590 C   0  0  0  0  0  0  0  0  0  0  0  0
   60.0450   27.7220   48.9620 C   0  0  0  0  0  0  0  0  0  0  0  0
   60.3900   29.0570   49.1830 C   0  0  0  0  0  0  0  0  0  0  0  0
   60.1370   30.0270   48.2060 C   0  0  0  0  0  0  0  0  0  0  0  0
   60.5060   31.3870   48.4750 N   0  0  0  0  0  0  0  0  0  0  0  0
   59.4520   32.7550   48.3210 S   0  0  0  0  0  0  0  0  0  0  0  0
   58.3450   32.6350   49.3310 O   0  0  0  0  0  0  0  0  0  0  0  0
   60.2300   34.0110   48.5940 O   0  0  0  0  0  0  0  0  0  0  0  0
   58.8010   32.8320   46.6860 C   0  0  0  0  0  0  0  0  0  0  0  0
   59.2930   33.7730   45.7690 C   0  0  0  0  0  0  0  0  0  0  0  0
   58.7580   33.8420   44.4800 C   0  0  0  0  0  0  0  0  0  0  0  0
   57.7290   32.9740   44.1000 C   0  0  0  0  0  0  0  0  0  0  0  0
   57.2340   32.0330   45.0090 C   0  0  0  0  0  0  0  0  0  0  0  0
   56.2070   31.1750   44.6200 O   0  0  0  0  0  0  0  0  0  0  0  0
   57.7730   31.9600   46.3020 C   0  0  0  0  0  0  0  0  0  0  0  0
   59.5320   29.6420   46.9960 C   0  0  0  0  0  0  0  0  0  0  0  0
   57.3660   25.8160   46.2570 N   0  0  0  0  0  0  0  0  0  0  0  0
   59.2346   27.3204   44.8616 H   0  0  0  0  0  0  0  0  0  0  0  0
   58.2204   28.8069   44.9344 H   0  0  0  0  0  0  0  0  0  0  0  0
   59.1716   26.2915   47.5918 H   0  0  0  0  0  0  0  0  0  0  0  0
   60.2442   26.9678   49.7376 H   0  0  0  0  0  0  0  0  0  0  0  0
   60.8641   29.3485   50.1318 H   0  0  0  0  0  0  0  0  0  0  0  0
   60.1013   34.4577   46.0653 H   0  0  0  0  0  0  0  0  0  0  0  0
   59.1467   34.5801   43.7629 H   0  0  0  0  0  0  0  0  0  0  0  0
   57.3086   33.0315   43.0851 H   0  0  0  0  0  0  0  0  0  0  0  0
   55.8370   30.4720   45.2480 H   0  0  0  0  0  0  0  0  0  0  0  0
   57.3881   31.2170   47.0160 H   0  0  0  0  0  0  0  0  0  0  0  0
   59.3181   30.3993   46.2274 H   0  0  0  0  0  0  0  0  0  0  0  0
  1  2  2  0
  2  3  1  0
  3  4  1  0
  4  5  1  0
  4  6  2  0
  6  7  1  0
  7  8  1  0
  8  9  2  0
  9 10  1  0
 10 11  2  0
 11 12  1  0
 12 13  1  0
 13 14  1  0
 14 15  2  0
 14 16  2  0
 14 17  1  0
 17 18  2  0
 18 19  1  0
 19 20  2  0
 20 21  1  0
 21 22  1  0
 21 23  2  0
 12 24  2  0
  6 25  1  0
 25  2  1  0
 24  8  1  0
 23 17  1  0
  7 26  1  0
  7 27  1  0
  9 28  1  0
 10 29  1  0
 11 30  1  0
 18 31  1  0
 19 32  1  0
 20 33  1  0
 22 34  1  0
 23 35  1  0
 24 36  1  0
M  CHG  4   3  -1   5  -1  13  -1  25  -1
M  END
>  <UniqueID>  (66) 
63

>  <SMILES>  (66) 
O=c1[n-]c([O-])c(Cc2cccc([N-]S(=O)(=O)c3cccc(O)c3)c2)[n-]1

>  <Energy>  (66) 
68.239137979722

>  <Genealogy>  (66) 
O=c1[n-]c([O-])c(Cc2cccc([N-]S(=O)(=O)c3cccc(O)c3)c2)[n-]1 (protonated)
O=c1[n-]c([O-])c(Cc2cccc([N-]S(=O)(=O)c3cccc(O)c3)c2)[n-]1 (3D coordinates assigned)
O=c1[n-]c([O-])c(Cc2cccc([N-]S(=O)(=O)c3cccc(O)c3)c2)[n-]1 (optimized conformer: 68.239137979722 kcal/mol)

>  <smiles>  (66) 
O=c1[nH]c(O)c(Cc2cccc(NS(=O)(=O)c3cccc(O)c3)c2)[nH]1

>  <score_type>  (66) 
oracle

>  <origin>  (66) 
adg

>  <m_score__min__energy>  (66) 
-17.16

>  <m_primary>  (66) 
energy

$$$$
66:0
     RDKit          3D

 35 36  0  0  0  0  0  0  0  0999 V2000
   55.3060   29.6730   44.8630 O   0  0  0  0  0  0  0  0  0  0  0  0
   56.5360   29.4930   45.0730 C   0  0  0  0  0  0  0  0  0  0  0  0
   57.0090   28.1900   45.6220 C   0  0  0  0  0  0  0  0  0  0  0  0
   55.9010   27.2460   45.6380 N   0  0  0  0  0  0  0  0  0  0  0  0
   56.0480   25.8790   46.0340 C   0  0  0  0  0  0  0  0  0  0  0  0
   56.2400   25.6030   47.2500 O   0  0  0  0  0  0  0  0  0  0  0  0
   55.9790   24.7840   45.0280 C   0  0  0  0  0  0  0  0  0  0  0  0
   57.1010   24.4900   44.2330 C   0  0  0  0  0  0  0  0  0  0  0  0
   57.0500   23.4940   43.3130 N   0  0  0  0  0  0  0  0  0  0  0  0
   55.9230   22.7590   43.1400 C   0  0  0  0  0  0  0  0  0  0  0  0
   55.8980   21.8400   42.2810 O   0  0  0  0  0  0  0  0  0  0  0  0
   54.8230   23.0160   43.8910 N   0  0  0  0  0  0  0  0  0  0  0  0
   54.8200   24.0020   44.8250 C   0  0  0  0  0  0  0  0  0  0  0  0
   53.7730   24.2000   45.4960 O   0  0  0  0  0  0  0  0  0  0  0  0
   57.4810   30.5480   44.8470 N   0  0  0  0  0  0  0  0  0  0  0  0
   57.3370   31.9400   45.2820 C   0  0  0  0  0  0  0  0  0  0  0  0
   58.1190   32.1920   46.5860 C   0  0  0  0  0  0  0  0  0  0  0  0
   58.1200   33.6860   46.9310 C   0  0  0  0  0  0  0  0  0  0  0  0
   58.7160   34.5620   45.8070 C   0  0  0  0  0  0  0  0  0  0  0  0
   58.8970   33.8230   44.4700 C   0  0  0  0  0  0  0  0  0  0  0  0
   57.6890   32.9340   44.1420 C   0  0  0  0  0  0  0  0  0  0  0  0
   57.8183   27.7965   44.9895 H   0  0  0  0  0  0  0  0  0  0  0  0
   57.3851   28.3352   46.6454 H   0  0  0  0  0  0  0  0  0  0  0  0
   58.0264   25.0715   44.3578 H   0  0  0  0  0  0  0  0  0  0  0  0
   56.2786   32.1260   45.5171 H   0  0  0  0  0  0  0  0  0  0  0  0
   57.6461   31.6314   47.4058 H   0  0  0  0  0  0  0  0  0  0  0  0
   59.1579   31.8579   46.4482 H   0  0  0  0  0  0  0  0  0  0  0  0
   57.0830   34.0051   47.1122 H   0  0  0  0  0  0  0  0  0  0  0  0
   58.7507   33.8185   47.8224 H   0  0  0  0  0  0  0  0  0  0  0  0
   58.0445   35.4174   45.6417 H   0  0  0  0  0  0  0  0  0  0  0  0
   59.7183   34.8698   46.1398 H   0  0  0  0  0  0  0  0  0  0  0  0
   59.0217   34.5646   43.6673 H   0  0  0  0  0  0  0  0  0  0  0  0
   59.7839   33.1777   44.5533 H   0  0  0  0  0  0  0  0  0  0  0  0
   56.8178   33.5804   43.9597 H   0  0  0  0  0  0  0  0  0  0  0  0
   57.9517   32.3374   43.2560 H   0  0  0  0  0  0  0  0  0  0  0  0
  1  2  2  0
  2  3  1  0
  3  4  1  0
  4  5  1  0
  5  6  2  0
  5  7  1  0
  7  8  2  0
  8  9  1  0
  9 10  1  0
 10 11  2  0
 10 12  1  0
 12 13  1  0
 13 14  2  0
  2 15  1  0
 15 16  1  0
 16 17  1  0
 17 18  1  0
 18 19  1  0
 19 20  1  0
 20 21  1  0
 13  7  1  0
 21 16  1  0
  3 22  1  0
  3 23  1  0
  8 24  1  0
 16 25  1  0
 17 26  1  0
 17 27  1  0
 18 28  1  0
 18 29  1  0
 19 30  1  0
 19 31  1  0
 20 32  1  0
 20 33  1  0
 21 34  1  0
 21 35  1  0
M  CHG  4   4  -1   9  -1  12  -1  15  -1
M  END
>  <UniqueID>  (67) 
64

>  <SMILES>  (67) 
O=C(C[N-]C(=O)c1c[n-]c(=O)[n-]c1=O)[N-]C1CCCCC1

>  <Energy>  (67) 
36.335752632353675

>  <Genealogy>  (67) 
O=C(C[N-]C(=O)c1c[n-]c(=O)[n-]c1=O)[N-]C1CCCCC1 (protonated)
O=C(C[N-]C(=O)c1c[n-]c(=O)[n-]c1=O)[N-]C1CCCCC1 (3D coordinates assigned)
O=C(C[N-]C(=O)c1c[n-]c(=O)[n-]c1=O)[N-]C1CCCCC1 (nonaromatic ring conformer: 36.335752632353675 kcal/mol)

>  <smiles>  (67) 
O=C(CNC(=O)c1c[nH]c(=O)[nH]c1=O)NC1CCCCC1

>  <score_type>  (67) 
oracle

>  <origin>  (67) 
adg

>  <m_score__min__energy>  (67) 
-14.85

>  <m_primary>  (67) 
energy

$$$$
67:0
     RDKit          3D

 54 57  0  0  0  0  0  0  0  0999 V2000
   59.5222   34.6486   43.8253 H   0  0  0  0  0  0  0  0  0  0  0  0
   59.0790   33.8830   44.4790 C   0  0  0  0  0  0  0  0  0  0  0  0
   57.9650   33.2130   44.0820 N   0  0  0  0  0  0  0  0  0  0  0  0
   57.3850   32.2540   44.8570 C   0  0  0  0  0  0  0  0  0  0  0  0
   56.3220   31.6130   44.4610 N   0  0  0  0  0  0  0  0  0  0  0  0
   56.2100   30.2070   44.1940 C   0  0  0  0  0  0  0  0  0  0  0  0
   55.9870   29.7870   43.0240 O   0  0  0  0  0  0  0  0  0  0  0  0
   56.4110   29.3100   45.2490 O   0  0  0  0  0  0  0  0  0  0  0  0
   57.6380   28.7270   45.6050 C   0  0  0  0  0  0  0  0  0  0  0  0
   57.7820   27.8950   46.7350 C   0  0  0  0  0  0  0  0  0  0  0  0
   56.9123   27.6799   47.3732 H   0  0  0  0  0  0  0  0  0  0  0  0
   59.0300   27.3430   47.0450 C   0  0  0  0  0  0  0  0  0  0  0  0
   59.1366   26.6852   47.9202 H   0  0  0  0  0  0  0  0  0  0  0  0
   60.1410   27.6250   46.2460 C   0  0  0  0  0  0  0  0  0  0  0  0
   61.1190   27.1838   46.4886 H   0  0  0  0  0  0  0  0  0  0  0  0
   60.0100   28.4680   45.1380 C   0  0  0  0  0  0  0  0  0  0  0  0
   60.8869   28.6972   44.5147 H   0  0  0  0  0  0  0  0  0  0  0  0
   58.7640   29.0200   44.8220 C   0  0  0  0  0  0  0  0  0  0  0  0
   58.6668   29.6882   43.9537 H   0  0  0  0  0  0  0  0  0  0  0  0
   57.9400   31.9470   46.1070 C   0  0  0  0  0  0  0  0  0  0  0  0
   57.4831   31.1721   46.7401 H   0  0  0  0  0  0  0  0  0  0  0  0
   59.0850   32.6360   46.5470 C   0  0  0  0  0  0  0  0  0  0  0  0
   59.6990   32.3490   47.7750 O   0  0  0  0  0  0  0  0  0  0  0  0
   59.0780   31.7410   48.8760 C   0  0  0  0  0  0  0  0  0  0  0  0
   58.4580   32.4930   49.8900 C   0  0  0  0  0  0  0  0  0  0  0  0
   58.4411   33.5910   49.8254 H   0  0  0  0  0  0  0  0  0  0  0  0
   57.8630   31.8500   50.9800 C   0  0  0  0  0  0  0  0  0  0  0  0
   57.3833   32.4440   51.7719 H   0  0  0  0  0  0  0  0  0  0  0  0
   57.8760   30.4470   51.0670 C   0  0  0  0  0  0  0  0  0  0  0  0
   57.3090   29.7610   52.1900 N   0  0  0  0  0  0  0  0  0  0  0  0
   55.9380   29.8070   52.5990 C   0  0  0  0  0  0  0  0  0  0  0  0
   55.5340   28.9740   53.4520 O   0  0  0  0  0  0  0  0  0  0  0  0
   55.0260   30.7510   52.0110 N   0  0  0  0  0  0  0  0  0  0  0  0
   55.3990   31.4470   51.3280 H   0  0  0  0  0  0  0  0  0  0  0  0
   53.6300   30.8360   52.3420 C   0  0  0  0  0  0  0  0  0  0  0  0
   52.6860   31.3310   51.4240 C   0  0  0  0  0  0  0  0  0  0  0  0
   53.0080   31.6321   50.4162 H   0  0  0  0  0  0  0  0  0  0  0  0
   51.3400   31.4420   51.7870 C   0  0  0  0  0  0  0  0  0  0  0  0
   50.6064   31.8227   51.0611 H   0  0  0  0  0  0  0  0  0  0  0  0
   50.9230   31.0710   53.0690 C   0  0  0  0  0  0  0  0  0  0  0  0
   49.8629   31.1595   53.3488 H   0  0  0  0  0  0  0  0  0  0  0  0
   51.8550   30.5860   53.9990 C   0  0  0  0  0  0  0  0  0  0  0  0
   51.4260   30.2290   55.3930 C   0  0  0  0  0  0  0  0  0  0  0  0
   52.0613   30.7577   56.1189 H   0  0  0  0  0  0  0  0  0  0  0  0
   50.3767   30.5243   55.5407 H   0  0  0  0  0  0  0  0  0  0  0  0
   51.5257   29.1435   55.5407 H   0  0  0  0  0  0  0  0  0  0  0  0
   53.2100   30.4890   53.6350 C   0  0  0  0  0  0  0  0  0  0  0  0
   53.9478   30.1376   54.3713 H   0  0  0  0  0  0  0  0  0  0  0  0
   58.5350   29.7050   50.0800 C   0  0  0  0  0  0  0  0  0  0  0  0
   58.5866   28.6094   50.1634 H   0  0  0  0  0  0  0  0  0  0  0  0
   59.1280   30.3470   48.9890 C   0  0  0  0  0  0  0  0  0  0  0  0
   59.6366   29.7533   48.2152 H   0  0  0  0  0  0  0  0  0  0  0  0
   59.6610   33.6000   45.7160 C   0  0  0  0  0  0  0  0  0  0  0  0
   60.5686   34.1334   46.0348 H   0  0  0  0  0  0  0  0  0  0  0  0
  1  2  1  0
  2  3  1  0
  3  4  1  0
  4  5  2  0
  5  6  1  0
  6  7  2  0
  6  8  1  0
  8  9  1  0
  9 10  2  0
 10 11  1  0
 10 12  1  0
 12 13  1  0
 12 14  2  0
 14 15  1  0
 14 16  1  0
 16 17  1  0
 16 18  2  0
 18 19  1  0
  4 20  1  0
 20 21  1  0
 20 22  2  0
 22 23  1  0
 23 24  1  0
 24 25  2  0
 25 26  1  0
 25 27  1  0
 27 28  1  0
 27 29  2  0
 29 30  1  0
 30 31  1  0
 31 32  2  0
 31 33  1  0
 33 34  1  0
 33 35  1  0
 35 36  2  0
 36 37  1  0
 36 38  1  0
 38 39  1  0
 38 40  2  0
 40 41  1  0
 40 42  1  0
 42 43  1  0
 43 44  1  0
 43 45  1  0
 43 46  1  0
 42 47  2  0
 47 48  1  0
 29 49  1  0
 49 50  1  0
 49 51  2  0
 51 52  1  0
 22 53  1  0
 53 54  1  0
 53  2  2  0
 18  9  1  0
 51 24  1  0
 47 35  1  0
M  CHG  2   3  -1  30  -1
M  END
>  <UniqueID>  (68) 
65

>  <SMILES>  (68) 
Cc1cccc(NC(=O)[N-]c2ccc(Oc3cc[n-]/c(=N\C(=O)Oc4ccccc4)c3)cc2)c1

>  <Energy>  (68) 
80.6959432535856

>  <Genealogy>  (68) 
Cc1cccc(NC(=O)[N-]c2ccc(Oc3cc[n-]c(=NC(=O)Oc4ccccc4)c3)cc2)c1 (protonated)
Cc1cccc(NC(=O)[N-]c2ccc(Oc3cc[n-]/c(=N\C(=O)Oc4ccccc4)c3)cc2)c1 (cis-trans isomerization)
Cc1cccc(NC(=O)[N-]c2ccc(Oc3cc[n-]/c(=N\C(=O)Oc4ccccc4)c3)cc2)c1 (3D coordinates assigned)
Cc1cccc(NC(=O)[N-]c2ccc(Oc3cc[n-]/c(=N\C(=O)Oc4ccccc4)c3)cc2)c1 (optimized conformer: 80.6959432535856 kcal/mol)

>  <smiles>  (68) 
Cc1cccc(NC(=O)Nc2ccc(Oc3cc[nH]c(=NC(=O)Oc4ccccc4)c3)cc2)c1

>  <score_type>  (68) 
oracle

>  <origin>  (68) 
adg

>  <m_score__min__energy>  (68) 
-11.119999999999999

>  <m_primary>  (68) 
energy

$$$$
68:0
     RDKit          3D

 38 40  0  0  0  0  0  0  0  0999 V2000
   57.0170   33.4650   47.4950 N   0  0  0  0  0  0  0  0  0  0  0  0
   58.4440   33.3540   47.4110 C   0  0  0  0  0  0  0  0  0  0  0  0
   59.1520   32.8080   48.4940 C   0  0  0  0  0  0  0  0  0  0  0  0
   60.5400   32.6640   48.4330 C   0  0  0  0  0  0  0  0  0  0  0  0
   61.2340   33.0610   47.2890 C   0  0  0  0  0  0  0  0  0  0  0  0
   60.5430   33.6090   46.2070 C   0  0  0  0  0  0  0  0  0  0  0  0
   59.1520   33.7690   46.2610 C   0  0  0  0  0  0  0  0  0  0  0  0
   58.3180   34.5080   44.8480 S   0  0  0  0  0  0  0  0  0  0  0  0
   57.8130   32.9180   44.1870 C   0  0  0  0  0  0  0  0  0  0  0  0
   57.8640   32.6860   42.8080 C   0  0  0  0  0  0  0  0  0  0  0  0
   57.4550   31.4550   42.2910 C   0  0  0  0  0  0  0  0  0  0  0  0
   57.0070   30.4460   43.1480 C   0  0  0  0  0  0  0  0  0  0  0  0
   56.9820   30.6600   44.5390 C   0  0  0  0  0  0  0  0  0  0  0  0
   56.5120   29.6600   45.4550 N   0  0  0  0  0  0  0  0  0  0  0  0
   56.8120   28.2590   45.4190 C   0  0  0  0  0  0  0  0  0  0  0  0
   55.9140   27.4000   45.6260 O   0  0  0  0  0  0  0  0  0  0  0  0
   58.1820   27.8140   45.0210 C   0  0  0  0  0  0  0  0  0  0  0  0
   59.1830   28.6550   45.6680 N   0  0  0  0  0  0  0  0  0  0  0  0
   59.2570   28.9570   46.9760 C   0  0  0  0  0  0  0  0  0  0  0  0
   60.3500   29.6980   47.2190 N   0  0  0  0  0  0  0  0  0  0  0  0
   60.9330   29.8200   46.0090 C   0  0  0  0  0  0  0  0  0  0  0  0
   60.2310   29.1780   45.0530 N   0  0  0  0  0  0  0  0  0  0  0  0
   57.3720   31.9050   45.0480 C   0  0  0  0  0  0  0  0  0  0  0  0
   56.4490   33.8950   46.7330 H   0  0  0  0  0  0  0  0  0  0  0  0
   56.5040   33.0840   48.3200 H   0  0  0  0  0  0  0  0  0  0  0  0
   58.6095   32.4914   49.3970 H   0  0  0  0  0  0  0  0  0  0  0  0
   61.0864   32.2375   49.2871 H   0  0  0  0  0  0  0  0  0  0  0  0
   62.3264   32.9419   47.2400 H   0  0  0  0  0  0  0  0  0  0  0  0
   61.0940   33.9172   45.3062 H   0  0  0  0  0  0  0  0  0  0  0  0
   58.2264   33.4736   42.1310 H   0  0  0  0  0  0  0  0  0  0  0  0
   57.4855   31.2789   41.2056 H   0  0  0  0  0  0  0  0  0  0  0  0
   56.6733   29.4828   42.7347 H   0  0  0  0  0  0  0  0  0  0  0  0
   58.3299   26.7683   45.3285 H   0  0  0  0  0  0  0  0  0  0  0  0
   58.2880   27.8982   43.9294 H   0  0  0  0  0  0  0  0  0  0  0  0
   58.5276   28.6425   47.7370 H   0  0  0  0  0  0  0  0  0  0  0  0
   60.6770   30.0810   48.1330 H   0  0  0  0  0  0  0  0  0  0  0  0
   61.8651   30.3742   45.8247 H   0  0  0  0  0  0  0  0  0  0  0  0
   57.3317   32.0887   46.1318 H   0  0  0  0  0  0  0  0  0  0  0  0
  1  2  1  0
  2  3  2  0
  3  4  1  0
  4  5  2  0
  5  6  1  0
  6  7  2  0
  7  8  1  0
  8  9  1  0
  9 10  2  0
 10 11  1  0
 11 12  2  0
 12 13  1  0
 13 14  1  0
 14 15  1  0
 15 16  2  0
 15 17  1  0
 17 18  1  0
 18 19  1  0
 19 20  2  0
 20 21  1  0
 21 22  2  0
 13 23  2  0
  7  2  1  0
 23  9  1  0
 22 18  1  0
  1 24  1  0
  1 25  1  0
  3 26  1  0
  4 27  1  0
  5 28  1  0
  6 29  1  0
 10 30  1  0
 11 31  1  0
 12 32  1  0
 17 33  1  0
 17 34  1  0
 19 35  1  0
 20 36  1  0
 21 37  1  0
 23 38  1  0
M  CHG  2  14  -1  20   1
M  END
>  <UniqueID>  (69) 
66

>  <SMILES>  (69) 
Nc1ccccc1Sc1cccc([N-]C(=O)Cn2c[nH+]cn2)c1

>  <Energy>  (69) 
71.58806328830447

>  <Genealogy>  (69) 
Nc1ccccc1Sc1cccc([N-]C(=O)Cn2c[nH+]cn2)c1 (protonated)
Nc1ccccc1Sc1cccc([N-]C(=O)Cn2c[nH+]cn2)c1 (3D coordinates assigned)
Nc1ccccc1Sc1cccc([N-]C(=O)Cn2c[nH+]cn2)c1 (optimized conformer: 71.58806328830447 kcal/mol)

>  <smiles>  (69) 
Nc1ccccc1Sc1cccc(NC(=O)Cn2cncn2)c1

>  <score_type>  (69) 
oracle

>  <origin>  (69) 
adg

>  <m_score__min__energy>  (69) 
-8.2400000000000002

>  <m_primary>  (69) 
energy

$$$$
69:0
     RDKit          3D

 65 68  0  0  0  0  0  0  0  0999 V2000
   55.7580   28.8970   44.8650 O   0  0  0  0  0  0  0  0  0  0  0  0
   56.9630   28.7490   44.5200 C   0  0  0  0  0  0  0  0  0  0  0  0
   57.7330   27.5660   45.0310 C   0  0  0  0  0  0  0  0  0  0  0  0
   59.0320   27.9660   45.4690 O   0  0  0  0  0  0  0  0  0  0  0  0
   59.3790   28.2660   46.7970 C   0  0  0  0  0  0  0  0  0  0  0  0
   58.8560   29.4290   47.3730 C   0  0  0  0  0  0  0  0  0  0  0  0
   59.1990   29.7920   48.6800 C   0  0  0  0  0  0  0  0  0  0  0  0
   60.0600   28.9820   49.4350 C   0  0  0  0  0  0  0  0  0  0  0  0
   60.4920   29.4010   50.8150 C   0  0  0  0  0  0  0  0  0  0  0  0
   61.5600   30.4460   50.7300 C   0  0  0  0  0  0  0  0  0  0  0  0
   61.6340   31.3320   51.6240 O   0  0  0  0  0  0  0  0  0  0  0  0
   62.3930   30.4800   49.6030 O   0  0  0  0  0  0  0  0  0  0  0  0
   62.5650   31.5660   48.7280 C   0  0  0  0  0  0  0  0  0  0  0  0
   61.7920   31.7390   47.5600 C   0  0  0  0  0  0  0  0  0  0  0  0
   61.9980   32.8510   46.7390 C   0  0  0  0  0  0  0  0  0  0  0  0
   62.9620   33.8040   47.0770 C   0  0  0  0  0  0  0  0  0  0  0  0
   63.7200   33.6490   48.2400 C   0  0  0  0  0  0  0  0  0  0  0  0
   63.5200   32.5380   49.0630 C   0  0  0  0  0  0  0  0  0  0  0  0
   60.5770   27.8100   48.8650 C   0  0  0  0  0  0  0  0  0  0  0  0
   60.2360   27.4490   47.5590 C   0  0  0  0  0  0  0  0  0  0  0  0
   57.5830   29.6820   43.6230 N   0  0  0  0  0  0  0  0  0  0  0  0
   57.0420   31.0170   43.3740 C   0  0  0  0  0  0  0  0  0  0  0  0
   57.7220   32.0090   44.2780 C   0  0  0  0  0  0  0  0  0  0  0  0
   57.7310   31.8160   45.6690 C   0  0  0  0  0  0  0  0  0  0  0  0
   58.3030   32.7740   46.5110 C   0  0  0  0  0  0  0  0  0  0  0  0
   58.8350   33.9600   45.9780 C   0  0  0  0  0  0  0  0  0  0  0  0
   59.4220   34.9960   46.8510 C   0  0  0  0  0  0  0  0  0  0  0  0
   59.9850   35.9940   46.3210 O   0  0  0  0  0  0  0  0  0  0  0  0
   59.3500   34.9320   48.2840 N   0  0  0  0  0  0  0  0  0  0  0  0
   60.2580   34.2130   49.1770 C   0  0  0  0  0  0  0  0  0  0  0  0
   59.5010   33.4910   50.2610 C   0  0  0  0  0  0  0  0  0  0  0  0
   58.5370   32.5230   49.9280 C   0  0  0  0  0  0  0  0  0  0  0  0
   57.7850   31.9030   50.9320 C   0  0  0  0  0  0  0  0  0  0  0  0
   57.9770   32.2530   52.2690 C   0  0  0  0  0  0  0  0  0  0  0  0
   58.9380   33.2090   52.6110 C   0  0  0  0  0  0  0  0  0  0  0  0
   59.6990   33.8270   51.6130 C   0  0  0  0  0  0  0  0  0  0  0  0
   58.8520   34.1360   44.5850 C   0  0  0  0  0  0  0  0  0  0  0  0
   58.2960   33.1710   43.7400 C   0  0  0  0  0  0  0  0  0  0  0  0
   57.1888   27.1170   45.8749 H   0  0  0  0  0  0  0  0  0  0  0  0
   57.8418   26.8339   44.2173 H   0  0  0  0  0  0  0  0  0  0  0  0
   58.1693   30.0633   46.7933 H   0  0  0  0  0  0  0  0  0  0  0  0
   58.7920   30.7158   49.1170 H   0  0  0  0  0  0  0  0  0  0  0  0
   59.6268   29.8097   51.3576 H   0  0  0  0  0  0  0  0  0  0  0  0
   60.8906   28.5244   51.3468 H   0  0  0  0  0  0  0  0  0  0  0  0
   61.0250   30.9963   47.2950 H   0  0  0  0  0  0  0  0  0  0  0  0
   61.3997   32.9762   45.8245 H   0  0  0  0  0  0  0  0  0  0  0  0
   63.1241   34.6766   46.4272 H   0  0  0  0  0  0  0  0  0  0  0  0
   64.4752   34.4025   48.5081 H   0  0  0  0  0  0  0  0  0  0  0  0
   64.1157   32.4243   49.9807 H   0  0  0  0  0  0  0  0  0  0  0  0
   61.2551   27.1709   49.4495 H   0  0  0  0  0  0  0  0  0  0  0  0
   60.6389   26.5224   47.1242 H   0  0  0  0  0  0  0  0  0  0  0  0
   58.5380   29.4680   43.2570 H   0  0  0  0  0  0  0  0  0  0  0  0
   57.2197   31.2950   42.3246 H   0  0  0  0  0  0  0  0  0  0  0  0
   55.9605   31.0183   43.5750 H   0  0  0  0  0  0  0  0  0  0  0  0
   57.2857   30.9063   46.0981 H   0  0  0  0  0  0  0  0  0  0  0  0
   58.3368   32.5984   47.5964 H   0  0  0  0  0  0  0  0  0  0  0  0
   60.8312   33.4797   48.5907 H   0  0  0  0  0  0  0  0  0  0  0  0
   60.9305   34.9435   49.6504 H   0  0  0  0  0  0  0  0  0  0  0  0
   58.3735   32.2522   48.8745 H   0  0  0  0  0  0  0  0  0  0  0  0
   57.0407   31.1378   50.6666 H   0  0  0  0  0  0  0  0  0  0  0  0
   57.3719   31.7765   53.0543 H   0  0  0  0  0  0  0  0  0  0  0  0
   59.0960   33.4757   53.6664 H   0  0  0  0  0  0  0  0  0  0  0  0
   60.4548   34.5782   51.8861 H   0  0  0  0  0  0  0  0  0  0  0  0
   59.3066   35.0407   44.1551 H   0  0  0  0  0  0  0  0  0  0  0  0
   58.3085   33.3230   42.6506 H   0  0  0  0  0  0  0  0  0  0  0  0
  1  2  2  0
  2  3  1  0
  3  4  1  0
  4  5  1  0
  5  6  2  0
  6  7  1  0
  7  8  2  0
  8  9  1  0
  9 10  1  0
 10 11  2  0
 10 12  1  0
 12 13  1  0
 13 14  2  0
 14 15  1  0
 15 16  2  0
 16 17  1  0
 17 18  2  0
  8 19  1  0
 19 20  2  0
  2 21  1  0
 21 22  1  0
 22 23  1  0
 23 24  2  0
 24 25  1  0
 25 26  2  0
 26 27  1  0
 27 28  2  0
 27 29  1  0
 29 30  1  0
 30 31  1  0
 31 32  2  0
 32 33  1  0
 33 34  2  0
 34 35  1  0
 35 36  2  0
 26 37  1  0
 37 38  2  0
 20  5  1  0
 38 23  1  0
 18 13  1  0
 36 31  1  0
  3 39  1  0
  3 40  1  0
  6 41  1  0
  7 42  1  0
  9 43  1  0
  9 44  1  0
 14 45  1  0
 15 46  1  0
 16 47  1  0
 17 48  1  0
 18 49  1  0
 19 50  1  0
 20 51  1  0
 21 52  1  0
 22 53  1  0
 22 54  1  0
 24 55  1  0
 25 56  1  0
 30 57  1  0
 30 58  1  0
 32 59  1  0
 33 60  1  0
 34 61  1  0
 35 62  1  0
 36 63  1  0
 37 64  1  0
 38 65  1  0
M  CHG  1  29  -1
M  END
>  <UniqueID>  (70) 
67

>  <SMILES>  (70) 
O=C(COc1ccc(CC(=O)Oc2ccccc2)cc1)NCc1ccc(C(=O)[N-]Cc2ccccc2)cc1

>  <Energy>  (70) 
64.34958268968006

>  <Genealogy>  (70) 
O=C(COc1ccc(CC(=O)Oc2ccccc2)cc1)NCc1ccc(C(=O)[N-]Cc2ccccc2)cc1 (protonated)
O=C(COc1ccc(CC(=O)Oc2ccccc2)cc1)NCc1ccc(C(=O)[N-]Cc2ccccc2)cc1 (3D coordinates assigned)
O=C(COc1ccc(CC(=O)Oc2ccccc2)cc1)NCc1ccc(C(=O)[N-]Cc2ccccc2)cc1 (optimized conformer: 64.34958268968006 kcal/mol)

>  <smiles>  (70) 
O=C(COc1ccc(CC(=O)Oc2ccccc2)cc1)NCc1ccc(C(=O)NCc2ccccc2)cc1

>  <score_type>  (70) 
oracle

>  <origin>  (70) 
adg

>  <m_score__min__energy>  (70) 
-11.32

>  <m_primary>  (70) 
energy

$$$$
70:0
     RDKit          3D

 61 64  0  0  0  0  0  0  0  0999 V2000
   61.3039   29.1281   46.3073 H   0  0  0  0  0  0  0  0  0  0  0  0
   60.9290   30.1220   46.5930 C   0  0  0  0  0  0  0  0  0  0  0  0
   61.8030   31.1410   46.7970 N   0  0  0  0  0  0  0  0  0  0  0  0
   61.3940   32.3930   47.1470 C   0  0  0  0  0  0  0  0  0  0  0  0
   62.2600   33.3480   47.3310 N   0  0  0  0  0  0  0  0  0  0  0  0
   63.4110   33.2610   48.1840 C   0  0  0  0  0  0  0  0  0  0  0  0
   64.5350   33.5990   47.7280 O   0  0  0  0  0  0  0  0  0  0  0  0
   63.2880   32.8470   49.6030 C   0  0  0  0  0  0  0  0  0  0  0  0
   63.4200   33.7890   50.6340 C   0  0  0  0  0  0  0  0  0  0  0  0
   63.6095   34.8447   50.3900 H   0  0  0  0  0  0  0  0  0  0  0  0
   63.3120   33.3930   51.9680 C   0  0  0  0  0  0  0  0  0  0  0  0
   63.4194   34.1368   52.7713 H   0  0  0  0  0  0  0  0  0  0  0  0
   63.0680   32.0550   52.2860 C   0  0  0  0  0  0  0  0  0  0  0  0
   62.9913   31.7503   53.3402 H   0  0  0  0  0  0  0  0  0  0  0  0
   62.9200   31.0970   51.2730 C   0  0  0  0  0  0  0  0  0  0  0  0
   62.6870   29.7220   51.6350 N   0  0  0  0  0  0  0  0  0  0  0  0
   63.4650   29.1780   52.0690 H   0  0  0  0  0  0  0  0  0  0  0  0
   61.2300   28.8450   51.2770 S   0  0  0  0  0  0  0  0  0  0  0  0
   61.5990   27.4700   50.7980 O   0  0  0  0  0  0  0  0  0  0  0  0
   60.3990   28.7120   52.5230 O   0  0  0  0  0  0  0  0  0  0  0  0
   60.2880   29.6610   49.9970 C   0  0  0  0  0  0  0  0  0  0  0  0
   60.9801   30.1197   49.2755 H   0  0  0  0  0  0  0  0  0  0  0  0
   59.6530   28.9163   49.4947 H   0  0  0  0  0  0  0  0  0  0  0  0
   59.4090   30.7290   50.5860 C   0  0  0  0  0  0  0  0  0  0  0  0
   59.8220   32.0710   50.5810 C   0  0  0  0  0  0  0  0  0  0  0  0
   60.7979   32.3421   50.1520 H   0  0  0  0  0  0  0  0  0  0  0  0
   58.9980   33.0640   51.1190 C   0  0  0  0  0  0  0  0  0  0  0  0
   59.3278   34.1134   51.1148 H   0  0  0  0  0  0  0  0  0  0  0  0
   57.7560   32.7250   51.6620 C   0  0  0  0  0  0  0  0  0  0  0  0
   57.1105   33.5065   52.0893 H   0  0  0  0  0  0  0  0  0  0  0  0
   57.3340   31.3920   51.6620 C   0  0  0  0  0  0  0  0  0  0  0  0
   56.3558   31.1255   52.0888 H   0  0  0  0  0  0  0  0  0  0  0  0
   58.1540   30.3970   51.1200 C   0  0  0  0  0  0  0  0  0  0  0  0
   57.8143   29.3508   51.1122 H   0  0  0  0  0  0  0  0  0  0  0  0
   63.0130   31.5070   49.9300 C   0  0  0  0  0  0  0  0  0  0  0  0
   62.8688   30.7703   49.1260 H   0  0  0  0  0  0  0  0  0  0  0  0
   60.0270   32.6600   47.3040 C   0  0  0  0  0  0  0  0  0  0  0  0
   59.6290   33.9580   47.6720 O   0  0  0  0  0  0  0  0  0  0  0  0
   59.5080   35.0730   46.7900 C   0  0  0  0  0  0  0  0  0  0  0  0
   60.4568   35.6294   46.7792 H   0  0  0  0  0  0  0  0  0  0  0  0
   58.6910   35.7180   47.1458 H   0  0  0  0  0  0  0  0  0  0  0  0
   59.1840   34.6080   45.3730 C   0  0  0  0  0  0  0  0  0  0  0  0
   58.5557   33.7062   45.4177 H   0  0  0  0  0  0  0  0  0  0  0  0
   58.6445   35.4048   44.8400 H   0  0  0  0  0  0  0  0  0  0  0  0
   60.1183   34.3779   44.8400 H   0  0  0  0  0  0  0  0  0  0  0  0
   59.1070   31.6150   47.1000 C   0  0  0  0  0  0  0  0  0  0  0  0
   58.0304   31.8060   47.2198 H   0  0  0  0  0  0  0  0  0  0  0  0
   59.5500   30.3310   46.7450 C   0  0  0  0  0  0  0  0  0  0  0  0
   58.5840   29.2180   46.5440 C   0  0  0  0  0  0  0  0  0  0  0  0
   57.6040   29.2930   45.5370 C   0  0  0  0  0  0  0  0  0  0  0  0
   57.5598   30.1775   44.8845 H   0  0  0  0  0  0  0  0  0  0  0  0
   56.6860   28.2540   45.3580 C   0  0  0  0  0  0  0  0  0  0  0  0
   55.9258   28.3276   44.5663 H   0  0  0  0  0  0  0  0  0  0  0  0
   56.7270   27.1160   46.1820 C   0  0  0  0  0  0  0  0  0  0  0  0
   55.7570   26.0150   45.9990 C   0  0  0  0  0  0  0  0  0  0  0  0
   56.1530   24.8270   45.8640 O   0  0  0  0  0  0  0  0  0  0  0  0
   54.3920   26.2770   45.9740 O   0  0  0  0  0  0  0  0  0  0  0  0
   57.7080   27.0380   47.1840 C   0  0  0  0  0  0  0  0  0  0  0  0
   57.7539   26.1523   47.8347 H   0  0  0  0  0  0  0  0  0  0  0  0
   58.6260   28.0760   47.3610 C   0  0  0  0  0  0  0  0  0  0  0  0
   59.3900   27.9983   48.1486 H   0  0  0  0  0  0  0  0  0  0  0  0
  1  2  1  0
  2  3  1  0
  3  4  1  0
  4  5  2  0
  5  6  1  0
  6  7  2  0
  6  8  1  0
  8  9  2  0
  9 10  1  0
  9 11  1  0
 11 12  1  0
 11 13  2  0
 13 14  1  0
 13 15  1  0
 15 16  1  0
 16 17  1  0
 16 18  1  0
 18 19  2  0
 18 20  2  0
 18 21  1  0
 21 22  1  0
 21 23  1  0
 21 24  1  0
 24 25  2  0
 25 26  1  0
 25 27  1  0
 27 28  1  0
 27 29  2  0
 29 30  1  0
 29 31  1  0
 31 32  1  0
 31 33  2  0
 33 34  1  0
 15 35  2  0
 35 36  1  0
  4 37  1  0
 37 38  1  0
 38 39  1  0
 39 40  1  0
 39 41  1  0
 39 42  1  0
 42 43  1  0
 42 44  1  0
 42 45  1  0
 37 46  2  0
 46 47  1  0
 46 48  1  0
 48 49  1  0
 49 50  2  0
 50 51  1  0
 50 52  1  0
 52 53  1  0
 52 54  2  0
 54 55  1  0
 55 56  2  0
 55 57  1  0
 54 58  1  0
 58 59  1  0
 58 60  2  0
 60 61  1  0
 48  2  2  0
 60 49  1  0
 35  8  1  0
 33 24  1  0
M  CHG  2   3  -1  57  -1
M  END
>  <UniqueID>  (71) 
68

>  <SMILES>  (71) 
CCOc1cc(-c2ccc(C(=O)[O-])cc2)c[n-]/c1=N\C(=O)c1cccc(NS(=O)(=O)Cc2ccccc2)c1

>  <Energy>  (71) 
69.33580747731351

>  <Genealogy>  (71) 
CCOc1cc(-c2ccc(C(=O)[O-])cc2)c[n-]c1=NC(=O)c1cccc(NS(=O)(=O)Cc2ccccc2)c1 (protonated)
CCOc1cc(-c2ccc(C(=O)[O-])cc2)c[n-]/c1=N\C(=O)c1cccc(NS(=O)(=O)Cc2ccccc2)c1 (cis-trans isomerization)
CCOc1cc(-c2ccc(C(=O)[O-])cc2)c[n-]/c1=N\C(=O)c1cccc(NS(=O)(=O)Cc2ccccc2)c1 (3D coordinates assigned)
CCOc1cc(-c2ccc(C(=O)[O-])cc2)c[n-]/c1=N\C(=O)c1cccc(NS(=O)(=O)Cc2ccccc2)c1 (optimized conformer: 69.33580747731351 kcal/mol)

>  <smiles>  (71) 
CCOc1cc(-c2ccc(C(=O)O)cc2)c[nH]c1=NC(=O)c1cccc(NS(=O)(=O)Cc2ccccc2)c1

>  <score_type>  (71) 
oracle

>  <origin>  (71) 
adg

>  <m_score__min__energy>  (71) 
-11.640000000000001

>  <m_primary>  (71) 
energy

$$$$
71:0
     RDKit          3D

 43 45  0  0  0  0  0  0  0  0999 V2000
   59.8560   34.8020   48.6380 N   0  0  0  0  0  0  0  0  0  0  0  0
   59.2260   33.9550   47.6650 C   0  0  0  0  0  0  0  0  0  0  0  0
   58.5490   34.5650   46.6040 C   0  0  0  0  0  0  0  0  0  0  0  0
   57.9190   33.7700   45.6570 C   0  0  0  0  0  0  0  0  0  0  0  0
   57.3020   34.3060   44.6970 O   0  0  0  0  0  0  0  0  0  0  0  0
   57.9650   32.4210   45.7710 N   0  0  0  0  0  0  0  0  0  0  0  0
   58.6240   31.8220   46.7980 C   0  0  0  0  0  0  0  0  0  0  0  0
   58.6280   30.5610   46.8630 O   0  0  0  0  0  0  0  0  0  0  0  0
   59.2680   32.5770   47.7530 N   0  0  0  0  0  0  0  0  0  0  0  0
   59.9740   31.9070   48.8680 C   0  0  0  0  0  0  0  0  0  0  0  0
   59.0040   31.4420   49.9270 C   0  0  0  0  0  0  0  0  0  0  0  0
   58.1120   32.3490   50.5220 C   0  0  0  0  0  0  0  0  0  0  0  0
   57.2230   31.9210   51.5110 C   0  0  0  0  0  0  0  0  0  0  0  0
   57.2190   30.5780   51.9280 C   0  0  0  0  0  0  0  0  0  0  0  0
   56.3490   30.1170   52.9270 O   0  0  0  0  0  0  0  0  0  0  0  0
   54.9550   30.2810   52.9240 C   0  0  0  0  0  0  0  0  0  0  0  0
   54.2650   30.1840   54.1360 C   0  0  0  0  0  0  0  0  0  0  0  0
   52.8750   30.3100   54.1700 C   0  0  0  0  0  0  0  0  0  0  0  0
   52.1610   30.5310   52.9900 C   0  0  0  0  0  0  0  0  0  0  0  0
   52.8370   30.6310   51.7630 C   0  0  0  0  0  0  0  0  0  0  0  0
   52.0710   30.8300   50.4840 C   0  0  0  0  0  0  0  0  0  0  0  0
   51.3800   32.1550   50.4950 C   0  0  0  0  0  0  0  0  0  0  0  0
   51.0450   32.7060   49.4120 O   0  0  0  0  0  0  0  0  0  0  0  0
   51.0610   32.7630   51.7040 O   0  0  0  0  0  0  0  0  0  0  0  0
   54.2340   30.4890   51.7340 C   0  0  0  0  0  0  0  0  0  0  0  0
   58.1380   29.6840   51.3670 C   0  0  0  0  0  0  0  0  0  0  0  0
   59.0230   30.1090   50.3710 C   0  0  0  0  0  0  0  0  0  0  0  0
   60.8510   34.6400   48.9110 H   0  0  0  0  0  0  0  0  0  0  0  0
   59.3600   35.5740   49.1290 H   0  0  0  0  0  0  0  0  0  0  0  0
   58.5163   35.6614   46.5212 H   0  0  0  0  0  0  0  0  0  0  0  0
   57.4830   31.8300   45.0550 H   0  0  0  0  0  0  0  0  0  0  0  0
   60.5208   31.0370   48.4754 H   0  0  0  0  0  0  0  0  0  0  0  0
   60.6685   32.6279   49.3240 H   0  0  0  0  0  0  0  0  0  0  0  0
   58.1133   33.4030   50.2073 H   0  0  0  0  0  0  0  0  0  0  0  0
   56.5231   32.6376   51.9655 H   0  0  0  0  0  0  0  0  0  0  0  0
   54.8208   30.0073   55.0687 H   0  0  0  0  0  0  0  0  0  0  0  0
   52.3407   30.2350   55.1286 H   0  0  0  0  0  0  0  0  0  0  0  0
   51.0657   30.6270   53.0218 H   0  0  0  0  0  0  0  0  0  0  0  0
   52.7678   30.7910   49.6337 H   0  0  0  0  0  0  0  0  0  0  0  0
   51.3177   30.0340   50.3902 H   0  0  0  0  0  0  0  0  0  0  0  0
   54.7683   30.5408   50.7739 H   0  0  0  0  0  0  0  0  0  0  0  0
   58.1644   28.6398   51.7118 H   0  0  0  0  0  0  0  0  0  0  0  0
   59.7374   29.3963   49.9331 H   0  0  0  0  0  0  0  0  0  0  0  0
  1  2  1  0
  2  3  2  0
  3  4  1  0
  4  5  2  0
  4  6  1  0
  6  7  1  0
  7  8  2  0
  7  9  1  0
  9 10  1  0
 10 11  1  0
 11 12  2  0
 12 13  1  0
 13 14  2  0
 14 15  1  0
 15 16  1  0
 16 17  2  0
 17 18  1  0
 18 19  2  0
 19 20  1  0
 20 21  1  0
 21 22  1  0
 22 23  2  0
 22 24  1  0
 20 25  2  0
 14 26  1  0
 26 27  2  0
  9  2  1  0
 27 11  1  0
 25 16  1  0
  1 28  1  0
  1 29  1  0
  3 30  1  0
  6 31  1  0
 10 32  1  0
 10 33  1  0
 12 34  1  0
 13 35  1  0
 17 36  1  0
 18 37  1  0
 19 38  1  0
 21 39  1  0
 21 40  1  0
 25 41  1  0
 26 42  1  0
 27 43  1  0
M  CHG  1  24  -1
M  END
>  <UniqueID>  (72) 
69

>  <SMILES>  (72) 
Nc1cc(=O)[nH]c(=O)n1Cc1ccc(Oc2cccc(CC(=O)[O-])c2)cc1

>  <Energy>  (72) 
55.462559280762946

>  <Genealogy>  (72) 
Nc1cc(=O)[nH]c(=O)n1Cc1ccc(Oc2cccc(CC(=O)[O-])c2)cc1 (protonated)
Nc1cc(=O)[nH]c(=O)n1Cc1ccc(Oc2cccc(CC(=O)[O-])c2)cc1 (3D coordinates assigned)
Nc1cc(=O)[nH]c(=O)n1Cc1ccc(Oc2cccc(CC(=O)[O-])c2)cc1 (optimized conformer: 55.462559280762946 kcal/mol)

>  <smiles>  (72) 
Nc1cc(=O)[nH]c(=O)n1Cc1ccc(Oc2cccc(CC(=O)O)c2)cc1

>  <score_type>  (72) 
oracle

>  <origin>  (72) 
adg

>  <m_score__min__energy>  (72) 
-11.300000000000001

>  <m_primary>  (72) 
energy

$$$$
72:0
     RDKit          3D

 55 58  0  0  0  0  0  0  0  0999 V2000
   62.1640   32.1300   47.6320 C   0  0  0  0  0  0  0  0  0  0  0  0
   62.0330   30.9350   48.5710 C   0  0  0  0  0  0  0  0  0  0  0  0
   61.2560   31.2990   49.7730 N   0  0  0  0  0  0  0  0  0  0  0  0
   61.8710   31.8790   50.8600 C   0  0  0  0  0  0  0  0  0  0  0  0
   63.2640   32.2180   50.8370 N   0  0  0  0  0  0  0  0  0  0  0  0
   63.6690   33.5280   50.3120 C   0  0  0  0  0  0  0  0  0  0  0  0
   65.0300   33.4500   49.5930 C   0  0  0  0  0  0  0  0  0  0  0  0
   65.9490   32.3330   50.1260 C   0  0  0  0  0  0  0  0  0  0  0  0
   65.6230   31.9700   51.5760 C   0  0  0  0  0  0  0  0  0  0  0  0
   64.1850   31.4430   51.6770 C   0  0  0  0  0  0  0  0  0  0  0  0
   61.1600   32.1480   51.9850 N   0  0  0  0  0  0  0  0  0  0  0  0
   59.8390   31.8670   52.0800 C   0  0  0  0  0  0  0  0  0  0  0  0
   59.1460   32.1540   53.2580 C   0  0  0  0  0  0  0  0  0  0  0  0
   57.7830   31.8610   53.3590 C   0  0  0  0  0  0  0  0  0  0  0  0
   57.0960   31.2920   52.2780 C   0  0  0  0  0  0  0  0  0  0  0  0
   55.6980   30.9840   52.4180 N   0  0  0  0  0  0  0  0  0  0  0  0
   55.1800   29.6560   52.5850 C   0  0  0  0  0  0  0  0  0  0  0  0
   55.9190   28.6500   52.4050 O   0  0  0  0  0  0  0  0  0  0  0  0
   53.7260   29.4510   52.8820 C   0  0  0  0  0  0  0  0  0  0  0  0
   52.8860   30.3000   51.9690 C   0  0  0  0  0  0  0  0  0  0  0  0
   52.5140   31.6000   52.3490 C   0  0  0  0  0  0  0  0  0  0  0  0
   51.7610   32.4000   51.4840 C   0  0  0  0  0  0  0  0  0  0  0  0
   51.3810   31.9110   50.2300 C   0  0  0  0  0  0  0  0  0  0  0  0
   50.6330   32.7060   49.3700 O   0  0  0  0  0  0  0  0  0  0  0  0
   51.7580   30.6210   49.8400 C   0  0  0  0  0  0  0  0  0  0  0  0
   52.5100   29.8200   50.7030 C   0  0  0  0  0  0  0  0  0  0  0  0
   57.8000   30.9820   51.1000 C   0  0  0  0  0  0  0  0  0  0  0  0
   59.1740   31.2760   50.9940 C   0  0  0  0  0  0  0  0  0  0  0  0
   59.9180   30.9890   49.8350 C   0  0  0  0  0  0  0  0  0  0  0  0
   59.3470   30.4380   48.8500 O   0  0  0  0  0  0  0  0  0  0  0  0
   62.2651   33.0518   48.2236 H   0  0  0  0  0  0  0  0  0  0  0  0
   63.0535   32.0021   46.9976 H   0  0  0  0  0  0  0  0  0  0  0  0
   61.2679   32.1978   46.9976 H   0  0  0  0  0  0  0  0  0  0  0  0
   61.5211   30.1162   48.0443 H   0  0  0  0  0  0  0  0  0  0  0  0
   63.0391   30.6178   48.8826 H   0  0  0  0  0  0  0  0  0  0  0  0
   62.9077   33.8789   49.5998 H   0  0  0  0  0  0  0  0  0  0  0  0
   63.7639   34.2252   51.1575 H   0  0  0  0  0  0  0  0  0  0  0  0
   64.8479   33.2691   48.5234 H   0  0  0  0  0  0  0  0  0  0  0  0
   65.5452   34.4046   49.7753 H   0  0  0  0  0  0  0  0  0  0  0  0
   65.8225   31.4385   49.4983 H   0  0  0  0  0  0  0  0  0  0  0  0
   66.9859   32.6985   50.0907 H   0  0  0  0  0  0  0  0  0  0  0  0
   66.3204   31.1930   51.9222 H   0  0  0  0  0  0  0  0  0  0  0  0
   65.7223   32.8682   52.2032 H   0  0  0  0  0  0  0  0  0  0  0  0
   64.1664   30.3924   51.3515 H   0  0  0  0  0  0  0  0  0  0  0  0
   63.8574   31.5368   52.7229 H   0  0  0  0  0  0  0  0  0  0  0  0
   59.6737   32.6114   54.1079 H   0  0  0  0  0  0  0  0  0  0  0  0
   57.2456   32.0786   54.2938 H   0  0  0  0  0  0  0  0  0  0  0  0
   55.0110   31.7630   52.2990 H   0  0  0  0  0  0  0  0  0  0  0  0
   53.4700   28.3919   52.7313 H   0  0  0  0  0  0  0  0  0  0  0  0
   53.5280   29.7400   53.9247 H   0  0  0  0  0  0  0  0  0  0  0  0
   52.8165   31.9907   53.3318 H   0  0  0  0  0  0  0  0  0  0  0  0
   51.4672   33.4149   51.7901 H   0  0  0  0  0  0  0  0  0  0  0  0
   51.4618   30.2371   48.8526 H   0  0  0  0  0  0  0  0  0  0  0  0
   52.8092   28.8088   50.3900 H   0  0  0  0  0  0  0  0  0  0  0  0
   57.2752   30.5078   50.2576 H   0  0  0  0  0  0  0  0  0  0  0  0
  1  2  1  0
  2  3  1  0
  3  4  1  0
  4  5  1  0
  5  6  1  0
  6  7  1  0
  7  8  1  0
  8  9  1  0
  9 10  1  0
  4 11  2  0
 11 12  1  0
 12 13  2  0
 13 14  1  0
 14 15  2  0
 15 16  1  0
 16 17  1  0
 17 18  2  0
 17 19  1  0
 19 20  1  0
 20 21  2  0
 21 22  1  0
 22 23  2  0
 23 24  1  0
 23 25  1  0
 25 26  2  0
 15 27  1  0
 27 28  2  0
 28 29  1  0
 29 30  2  0
 29  3  1  0
 10  5  1  0
 28 12  1  0
 26 20  1  0
  1 31  1  0
  1 32  1  0
  1 33  1  0
  2 34  1  0
  2 35  1  0
  6 36  1  0
  6 37  1  0
  7 38  1  0
  7 39  1  0
  8 40  1  0
  8 41  1  0
  9 42  1  0
  9 43  1  0
 10 44  1  0
 10 45  1  0
 13 46  1  0
 14 47  1  0
 16 48  1  0
 19 49  1  0
 19 50  1  0
 21 51  1  0
 22 52  1  0
 25 53  1  0
 26 54  1  0
 27 55  1  0
M  CHG  1  24  -1
M  END
>  <UniqueID>  (73) 
70

>  <SMILES>  (73) 
CCn1c(N2CCCCC2)nc2ccc(NC(=O)Cc3ccc([O-])cc3)cc2c1=O

>  <Energy>  (73) 
70.0681241106509

>  <Genealogy>  (73) 
CCn1c(N2CCCCC2)nc2ccc(NC(=O)Cc3ccc([O-])cc3)cc2c1=O (protonated)
CCn1c(N2CCCCC2)nc2ccc(NC(=O)Cc3ccc([O-])cc3)cc2c1=O (3D coordinates assigned)
CCn1c(N2CCCCC2)nc2ccc(NC(=O)Cc3ccc([O-])cc3)cc2c1=O (nonaromatic ring conformer: 70.0681241106509 kcal/mol)

>  <smiles>  (73) 
CCn1c(N2CCCCC2)nc2ccc(NC(=O)Cc3ccc(O)cc3)cc2c1=O

>  <score_type>  (73) 
oracle

>  <origin>  (73) 
adg

>  <m_score__min__energy>  (73) 
-11.779999999999999

>  <m_primary>  (73) 
energy

$$$$
73:0
     RDKit          3D

 72 76  0  0  0  0  0  0  0  0999 V2000
   67.0400   31.5720   50.5740 C   0  0  0  0  0  0  0  0  0  0  0  0
   66.7410   33.0600   50.3980 C   0  0  0  0  0  0  0  0  0  0  0  0
   65.3780   33.4540   50.9800 C   0  0  0  0  0  0  0  0  0  0  0  0
   64.3250   32.5580   50.4960 N   0  0  0  0  0  0  0  0  0  0  0  0
   63.9000   31.4910   51.1600 N   0  0  0  0  0  0  0  0  0  0  0  0
   62.8870   30.9190   50.4780 C   0  0  0  0  0  0  0  0  0  0  0  0
   62.6740   31.6570   49.3280 C   0  0  0  0  0  0  0  0  0  0  0  0
   63.5800   32.6930   49.3790 C   0  0  0  0  0  0  0  0  0  0  0  0
   63.7690   33.6910   48.2720 C   0  0  0  0  0  0  0  0  0  0  0  0
   62.5630   33.6880   47.3060 C   0  0  0  0  0  0  0  0  0  0  0  0
   62.0470   32.2600   47.0100 C   0  0  0  0  0  0  0  0  0  0  0  0
   61.5940   31.5350   48.2940 C   0  0  2  0  0  0  0  0  0  0  0  0
   60.3700   32.1540   48.7960 N   0  0  0  0  0  0  0  0  0  0  0  0
   59.8240   33.3780   48.2870 C   0  0  0  0  0  0  0  0  0  0  0  0
   59.8760   34.4240   48.9880 O   0  0  0  0  0  0  0  0  0  0  0  0
   59.2180   33.4170   46.9370 C   0  0  0  0  0  0  0  0  0  0  0  0
   59.2610   34.5980   46.1730 C   0  0  0  0  0  0  0  0  0  0  0  0
   58.7200   34.6270   44.8860 C   0  0  0  0  0  0  0  0  0  0  0  0
   58.1350   33.4810   44.3430 C   0  0  0  0  0  0  0  0  0  0  0  0
   58.0750   32.2990   45.0920 C   0  0  0  0  0  0  0  0  0  0  0  0
   57.3100   30.8630   44.4160 S   0  0  0  0  0  0  0  0  0  0  0  0
   55.8700   30.8090   44.8470 O   0  0  0  0  0  0  0  0  0  0  0  0
   57.3520   30.9430   42.9150 O   0  0  0  0  0  0  0  0  0  0  0  0
   58.1630   29.4380   44.9560 N   0  0  0  0  0  0  0  0  0  0  0  0
   57.8020   28.2750   44.1200 C   0  0  0  0  0  0  0  0  0  0  0  0
   58.8410   27.1370   44.2200 C   0  0  0  0  0  0  0  0  0  0  0  0
   59.6150   27.1950   45.4790 N   0  0  0  0  0  0  0  0  0  0  0  0
   58.7990   26.9100   46.6830 C   0  0  0  0  0  0  0  0  0  0  0  0
   59.2630   27.7210   47.8680 C   0  0  0  0  0  0  0  0  0  0  0  0
   60.3550   27.2840   48.6340 C   0  0  0  0  0  0  0  0  0  0  0  0
   60.7600   28.0090   49.7590 C   0  0  0  0  0  0  0  0  0  0  0  0
   60.0750   29.1720   50.1270 C   0  0  0  0  0  0  0  0  0  0  0  0
   58.9870   29.6120   49.3700 C   0  0  0  0  0  0  0  0  0  0  0  0
   58.5790   28.8910   48.2450 C   0  0  0  0  0  0  0  0  0  0  0  0
   60.3480   28.4820   45.5960 C   0  0  0  0  0  0  0  0  0  0  0  0
   59.6130   29.6690   44.9340 C   0  0  0  0  0  0  0  0  0  0  0  0
   58.6150   32.2710   46.3870 C   0  0  0  0  0  0  0  0  0  0  0  0
   67.0882   31.3320   51.6464 H   0  0  0  0  0  0  0  0  0  0  0  0
   66.2430   30.9794   50.1011 H   0  0  0  0  0  0  0  0  0  0  0  0
   68.0041   31.3333   50.1011 H   0  0  0  0  0  0  0  0  0  0  0  0
   67.5241   33.6406   50.9075 H   0  0  0  0  0  0  0  0  0  0  0  0
   66.7198   33.2730   49.3190 H   0  0  0  0  0  0  0  0  0  0  0  0
   65.4244   33.3957   52.0775 H   0  0  0  0  0  0  0  0  0  0  0  0
   65.1419   34.4795   50.6598 H   0  0  0  0  0  0  0  0  0  0  0  0
   64.2760   31.1700   52.0790 H   0  0  0  0  0  0  0  0  0  0  0  0
   62.3279   30.0222   50.7831 H   0  0  0  0  0  0  0  0  0  0  0  0
   63.8768   34.6950   48.7084 H   0  0  0  0  0  0  0  0  0  0  0  0
   64.6706   33.4161   47.7049 H   0  0  0  0  0  0  0  0  0  0  0  0
   61.7473   34.2716   47.7577 H   0  0  0  0  0  0  0  0  0  0  0  0
   62.8950   34.1282   46.3542 H   0  0  0  0  0  0  0  0  0  0  0  0
   61.1937   32.3262   46.3190 H   0  0  0  0  0  0  0  0  0  0  0  0
   62.8725   31.6841   46.5663 H   0  0  0  0  0  0  0  0  0  0  0  0
   61.4029   30.4739   48.0757 H   0  0  0  0  0  0  0  0  0  0  0  0
   59.7236   35.5037   46.5921 H   0  0  0  0  0  0  0  0  0  0  0  0
   58.7547   35.5558   44.2977 H   0  0  0  0  0  0  0  0  0  0  0  0
   57.7203   33.5067   43.3245 H   0  0  0  0  0  0  0  0  0  0  0  0
   56.8249   27.8920   44.4495 H   0  0  0  0  0  0  0  0  0  0  0  0
   57.7694   28.6102   43.0728 H   0  0  0  0  0  0  0  0  0  0  0  0
   58.3150   26.1721   44.1718 H   0  0  0  0  0  0  0  0  0  0  0  0
   59.5472   27.2507   43.3843 H   0  0  0  0  0  0  0  0  0  0  0  0
   57.7484   27.1568   46.4698 H   0  0  0  0  0  0  0  0  0  0  0  0
   58.9074   25.8436   46.9299 H   0  0  0  0  0  0  0  0  0  0  0  0
   60.8938   26.3685   48.3485 H   0  0  0  0  0  0  0  0  0  0  0  0
   61.6179   27.6646   50.3551 H   0  0  0  0  0  0  0  0  0  0  0  0
   60.3936   29.7403   51.0133 H   0  0  0  0  0  0  0  0  0  0  0  0
   58.4505   30.5275   49.6599 H   0  0  0  0  0  0  0  0  0  0  0  0
   57.7203   29.2393   47.6522 H   0  0  0  0  0  0  0  0  0  0  0  0
   60.4860   28.7089   46.6635 H   0  0  0  0  0  0  0  0  0  0  0  0
   61.3062   28.3591   45.0699 H   0  0  0  0  0  0  0  0  0  0  0  0
   59.8430   30.5928   45.4851 H   0  0  0  0  0  0  0  0  0  0  0  0
   59.9475   29.7637   43.8904 H   0  0  0  0  0  0  0  0  0  0  0  0
   58.5664   31.3443   46.9776 H   0  0  0  0  0  0  0  0  0  0  0  0
  1  2  1  0
  2  3  1  0
  3  4  1  0
  4  5  1  0
  5  6  2  0
  6  7  1  0
  7  8  2  0
  8  9  1  0
  9 10  1  0
 10 11  1  0
 11 12  1  0
 12 13  1  0
 13 14  1  0
 14 15  2  0
 14 16  1  0
 16 17  2  0
 17 18  1  0
 18 19  2  0
 19 20  1  0
 20 21  1  0
 21 22  2  0
 21 23  2  0
 21 24  1  0
 24 25  1  0
 25 26  1  0
 26 27  1  0
 27 28  1  0
 28 29  1  0
 29 30  2  0
 30 31  1  0
 31 32  2  0
 32 33  1  0
 33 34  2  0
 27 35  1  0
 35 36  1  0
 20 37  2  0
  8  4  1  0
 37 16  1  0
 12  7  1  0
 36 24  1  0
 34 29  1  0
  1 38  1  0
  1 39  1  0
  1 40  1  0
  2 41  1  0
  2 42  1  0
  3 43  1  0
  3 44  1  0
  5 45  1  0
  6 46  1  0
  9 47  1  0
  9 48  1  0
 10 49  1  0
 10 50  1  0
 11 51  1  0
 11 52  1  0
 12 53  1  6
 17 54  1  0
 18 55  1  0
 19 56  1  0
 25 57  1  0
 25 58  1  0
 26 59  1  0
 26 60  1  0
 28 61  1  0
 28 62  1  0
 30 63  1  0
 31 64  1  0
 32 65  1  0
 33 66  1  0
 34 67  1  0
 35 68  1  0
 35 69  1  0
 36 70  1  0
 36 71  1  0
 37 72  1  0
M  CHG  2   5   1  13  -1
M  END
>  <UniqueID>  (74) 
71

>  <SMILES>  (74) 
CCCn1[nH+]cc2c1CCC[C@@H]2[N-]C(=O)c1cccc(S(=O)(=O)N2CCN(Cc3ccccc3)CC2)c1

>  <Energy>  (74) 
110.6862382190993

>  <Genealogy>  (74) 
CCCn1[nH+]cc2c1CCCC2[N-]C(=O)c1cccc(S(=O)(=O)N2CCN(Cc3ccccc3)CC2)c1 (protonated)
CCCn1[nH+]cc2c1CCC[C@@H]2[N-]C(=O)c1cccc(S(=O)(=O)N2CCN(Cc3ccccc3)CC2)c1 (chirality)
CCCn1[nH+]cc2c1CCC[C@@H]2[N-]C(=O)c1cccc(S(=O)(=O)N2CCN(Cc3ccccc3)CC2)c1 (3D coordinates assigned)
CCCn1[nH+]cc2c1CCC[C@@H]2[N-]C(=O)c1cccc(S(=O)(=O)N2CCN(Cc3ccccc3)CC2)c1 (nonaromatic ring conformer: 110.6862382190993 kcal/mol)

>  <smiles>  (74) 
CCCn1ncc2c1CCCC2NC(=O)c1cccc(S(=O)(=O)N2CCN(Cc3ccccc3)CC2)c1

>  <score_type>  (74) 
oracle

>  <origin>  (74) 
adg

>  <m_score__min__energy>  (74) 
-11.640000000000001

>  <m_primary>  (74) 
energy

$$$$
74:0
     RDKit          3D

 51 53  0  0  0  0  0  0  0  0999 V2000
   59.8310   33.2460   49.1080 C   0  0  0  0  0  0  0  0  0  0  0  0
   59.7390   34.5820   48.3510 C   0  0  0  0  0  0  0  0  0  0  0  0
   60.3200   34.5560   46.9840 N   0  0  0  0  0  0  0  0  0  0  0  0
   61.2040   33.3910   46.7650 C   0  0  0  0  0  0  0  0  0  0  0  0
   62.6680   33.8220   46.7930 C   0  0  0  0  0  0  0  0  0  0  0  0
   59.3080   34.7020   45.9130 C   0  0  0  0  0  0  0  0  0  0  0  0
   58.0680   33.9110   46.2400 C   0  0  0  0  0  0  0  0  0  0  0  0
   57.9950   32.6120   46.1710 N   0  0  0  0  0  0  0  0  0  0  0  0
   58.0050   31.7720   45.0040 C   0  0  0  0  0  0  0  0  0  0  0  0
   58.2260   32.2560   43.8640 O   0  0  0  0  0  0  0  0  0  0  0  0
   57.7540   30.3160   45.1410 C   0  0  0  0  0  0  0  0  0  0  0  0
   56.7690   29.5750   44.4920 C   0  0  0  0  0  0  0  0  0  0  0  0
   55.7510   30.0940   43.5240 C   0  0  0  0  0  0  0  0  0  0  0  0
   56.8310   28.2840   44.8660 N   0  0  0  0  0  0  0  0  0  0  0  0
   57.8500   28.1670   45.7430 C   0  0  0  0  0  0  0  0  0  0  0  0
   58.2390   26.8900   46.4470 C   0  0  0  0  0  0  0  0  0  0  0  0
   57.4770   25.7000   45.9510 C   0  0  0  0  0  0  0  0  0  0  0  0
   57.9300   24.4960   45.6720 C   0  0  0  0  0  0  0  0  0  0  0  0
   59.4120   23.7200   45.6220 S   0  0  0  0  0  0  0  0  0  0  0  0
   58.7140   22.2150   45.2060 C   0  0  0  0  0  0  0  0  0  0  0  0
   57.3180   22.3330   45.1220 C   0  0  0  0  0  0  0  0  0  0  0  0
   56.9220   23.6360   45.3970 C   0  0  0  0  0  0  0  0  0  0  0  0
   55.7350   24.1450   45.4710 N   0  0  0  0  0  0  0  0  0  0  0  0
   56.0290   25.5000   45.8400 C   0  0  0  0  0  0  0  0  0  0  0  0
   55.1500   26.3750   46.0530 O   0  0  0  0  0  0  0  0  0  0  0  0
   58.4380   29.4090   45.9490 C   0  0  0  0  0  0  0  0  0  0  0  0
   59.5750   29.7120   46.8840 C   0  0  0  0  0  0  0  0  0  0  0  0
   59.8179   33.4367   50.1913 H   0  0  0  0  0  0  0  0  0  0  0  0
   58.9744   32.6113   48.8370 H   0  0  0  0  0  0  0  0  0  0  0  0
   60.7665   32.7347   48.8370 H   0  0  0  0  0  0  0  0  0  0  0  0
   58.6773   34.8576   48.2680 H   0  0  0  0  0  0  0  0  0  0  0  0
   60.3282   35.3100   48.9279 H   0  0  0  0  0  0  0  0  0  0  0  0
   61.0292   32.6491   47.5581 H   0  0  0  0  0  0  0  0  0  0  0  0
   60.9796   32.9524   45.7815 H   0  0  0  0  0  0  0  0  0  0  0  0
   63.0014   33.9202   47.8366 H   0  0  0  0  0  0  0  0  0  0  0  0
   63.2825   33.0666   46.2813 H   0  0  0  0  0  0  0  0  0  0  0  0
   62.7752   34.7898   46.2813 H   0  0  0  0  0  0  0  0  0  0  0  0
   59.0419   35.7644   45.8102 H   0  0  0  0  0  0  0  0  0  0  0  0
   59.7319   34.3217   44.9719 H   0  0  0  0  0  0  0  0  0  0  0  0
   57.1707   34.4633   46.5559 H   0  0  0  0  0  0  0  0  0  0  0  0
   54.9045   30.5255   44.0783 H   0  0  0  0  0  0  0  0  0  0  0  0
   56.2083   30.8690   42.8913 H   0  0  0  0  0  0  0  0  0  0  0  0
   55.3924   29.2687   42.8913 H   0  0  0  0  0  0  0  0  0  0  0  0
   56.1930   27.5250   44.5370 H   0  0  0  0  0  0  0  0  0  0  0  0
   59.3125   26.7124   46.2856 H   0  0  0  0  0  0  0  0  0  0  0  0
   58.0024   27.0142   47.5141 H   0  0  0  0  0  0  0  0  0  0  0  0
   59.2784   21.2874   45.0296 H   0  0  0  0  0  0  0  0  0  0  0  0
   56.6331   21.5090   44.8732 H   0  0  0  0  0  0  0  0  0  0  0  0
   59.2290   29.6198   47.9241 H   0  0  0  0  0  0  0  0  0  0  0  0
   60.3954   29.0011   46.7061 H   0  0  0  0  0  0  0  0  0  0  0  0
   59.9328   30.7368   46.7061 H   0  0  0  0  0  0  0  0  0  0  0  0
  1  2  1  0
  2  3  1  0
  3  4  1  0
  4  5  1  0
  3  6  1  0
  6  7  1  0
  7  8  2  3
  8  9  1  0
  9 10  2  0
  9 11  1  0
 11 12  2  0
 12 13  1  0
 12 14  1  0
 14 15  1  0
 15 16  1  0
 16 17  1  0
 17 18  2  0
 18 19  1  0
 19 20  1  0
 20 21  2  0
 21 22  1  0
 22 23  2  0
 23 24  1  0
 24 25  2  0
 15 26  2  0
 26 27  1  0
 26 11  1  0
 24 17  1  0
 22 18  1  0
  1 28  1  0
  1 29  1  0
  1 30  1  0
  2 31  1  0
  2 32  1  0
  4 33  1  0
  4 34  1  0
  5 35  1  0
  5 36  1  0
  5 37  1  0
  6 38  1  0
  6 39  1  0
  7 40  1  0
 13 41  1  0
 13 42  1  0
 13 43  1  0
 14 44  1  0
 16 45  1  0
 16 46  1  0
 20 47  1  0
 21 48  1  0
 27 49  1  0
 27 50  1  0
 27 51  1  0
M  END
>  <UniqueID>  (75) 
72

>  <SMILES>  (75) 
CCN(CC)CC=NC(=O)c1c(C)[nH]c(CC2=c3sccc3=NC2=O)c1C

>  <Energy>  (75) 
151.8167181799787

>  <Genealogy>  (75) 
CCN(CC)CC=NC(=O)c1c(C)[nH]c(CC2=c3sccc3=NC2=O)c1C (3D coordinates assigned)
CCN(CC)CC=NC(=O)c1c(C)[nH]c(CC2=c3sccc3=NC2=O)c1C (nonaromatic ring conformer: 151.8167181799787 kcal/mol)

>  <smiles>  (75) 
CCN(CC)CC=NC(=O)c1c(C)[nH]c(CC2=c3sccc3=NC2=O)c1C

>  <score_type>  (75) 
oracle

>  <origin>  (75) 
adg

>  <m_score__min__energy>  (75) 
-8.4900000000000002

>  <m_primary>  (75) 
energy

$$$$
75:0
     RDKit          3D

 36 38  0  0  0  0  0  0  0  0999 V2000
   63.9790   33.1060   46.4430 N   0  0  0  0  0  0  0  0  0  0  0  0
   63.2700   32.6760   47.4290 C   0  0  0  0  0  0  0  0  0  0  0  0
   61.9440   32.7380   47.6410 N   0  0  0  0  0  0  0  0  0  0  0  0
   61.6230   32.1670   48.8040 C   0  0  0  0  0  0  0  0  0  0  0  0
   60.3120   31.9860   49.4730 C   0  0  0  0  0  0  0  0  0  0  0  0
   59.1060   31.2140   48.3780 S   0  0  0  0  0  0  0  0  0  0  0  0
   58.7870   32.3590   47.0190 C   0  0  0  0  0  0  0  0  0  0  0  0
   58.5630   33.6760   47.3560 C   0  0  0  0  0  0  0  0  0  0  0  0
   58.3090   34.5760   46.3150 C   0  0  0  0  0  0  0  0  0  0  0  0
   58.2860   34.1490   45.0050 C   0  0  0  0  0  0  0  0  0  0  0  0
   58.5210   32.7990   44.7260 C   0  0  0  0  0  0  0  0  0  0  0  0
   58.7730   31.8900   45.7200 C   0  0  0  0  0  0  0  0  0  0  0  0
   59.0680   30.4910   45.5150 C   0  0  0  0  0  0  0  0  0  0  0  0
   58.2570   29.4720   45.6500 C   0  0  0  0  0  0  0  0  0  0  0  0
   56.9130   29.3790   45.1250 C   0  0  0  0  0  0  0  0  0  0  0  0
   56.3960   30.3210   44.5000 O   0  0  0  0  0  0  0  0  0  0  0  0
   56.1390   28.2050   45.3110 N   0  0  0  0  0  0  0  0  0  0  0  0
   56.6130   27.0610   46.0100 C   0  0  0  0  0  0  0  0  0  0  0  0
   55.9330   26.0170   46.1790 O   0  0  0  0  0  0  0  0  0  0  0  0
   57.9350   27.1350   46.5350 N   0  0  0  0  0  0  0  0  0  0  0  0
   58.7480   28.2870   46.3740 C   0  0  0  0  0  0  0  0  0  0  0  0
   59.9070   28.2590   46.8760 O   0  0  0  0  0  0  0  0  0  0  0  0
   62.7830   31.7360   49.3350 N   0  0  0  0  0  0  0  0  0  0  0  0
   63.7820   32.0360   48.5180 N   0  0  0  0  0  0  0  0  0  0  0  0
   64.8820   32.6510   46.1920 H   0  0  0  0  0  0  0  0  0  0  0  0
   60.4488   31.3484   50.3588 H   0  0  0  0  0  0  0  0  0  0  0  0
   59.9318   32.9784   49.7567 H   0  0  0  0  0  0  0  0  0  0  0  0
   58.5831   34.0077   48.4046 H   0  0  0  0  0  0  0  0  0  0  0  0
   58.1257   35.6360   46.5449 H   0  0  0  0  0  0  0  0  0  0  0  0
   58.0856   34.8602   44.1901 H   0  0  0  0  0  0  0  0  0  0  0  0
   58.5031   32.4576   43.6805 H   0  0  0  0  0  0  0  0  0  0  0  0
   60.0974   30.2532   45.2088 H   0  0  0  0  0  0  0  0  0  0  0  0
   55.1520   28.1370   44.9230 H   0  0  0  0  0  0  0  0  0  0  0  0
   58.2820   26.2960   47.0490 H   0  0  0  0  0  0  0  0  0  0  0  0
   62.9560   31.2350   50.2420 H   0  0  0  0  0  0  0  0  0  0  0  0
   64.8060   31.8210   48.6740 H   0  0  0  0  0  0  0  0  0  0  0  0
  1  2  2  3
  2  3  1  0
  3  4  2  0
  4  5  1  0
  5  6  1  0
  6  7  1  0
  7  8  2  0
  8  9  1  0
  9 10  2  0
 10 11  1  0
 11 12  2  0
 12 13  1  0
 13 14  2  3
 14 15  1  0
 15 16  2  0
 15 17  1  0
 17 18  1  0
 18 19  2  0
 18 20  1  0
 20 21  1  0
 21 22  2  0
  4 23  1  0
 23 24  1  0
 24  2  1  0
 12  7  1  0
 21 14  1  0
  1 25  1  0
  5 26  1  0
  5 27  1  0
  8 28  1  0
  9 29  1  0
 10 30  1  0
 11 31  1  0
 13 32  1  0
 17 33  1  0
 20 34  1  0
 23 35  1  0
 24 36  1  0
M  END
>  <smiles>  (76) 
N=c1nc(CSc2ccccc2C=C2C(=O)NC(=O)NC2=O)[nH][nH]1

>  <score_type>  (76) 
oracle

>  <origin>  (76) 
adg

>  <m_score__min__energy>  (76) 
-8.4299999999999997

>  <m_primary>  (76) 
energy

$$$$
76:0
     RDKit          3D

 62 64  0  0  0  0  0  0  0  0999 V2000
   59.3550   34.5110   50.7160 O   0  0  0  0  0  0  0  0  0  0  0  0
   59.8080   33.3580   50.9190 C   0  0  0  0  0  0  0  0  0  0  0  0
   61.2870   33.1430   51.0290 C   0  0  0  0  0  0  0  0  0  0  0  0
   61.9120   33.2190   49.7030 N   0  0  0  0  0  0  0  0  0  0  0  0
   63.2170   32.8470   49.5450 C   0  0  0  0  0  0  0  0  0  0  0  0
   63.8390   32.9380   48.3000 C   0  0  0  0  0  0  0  0  0  0  0  0
   63.1150   33.4160   47.2090 C   0  0  0  0  0  0  0  0  0  0  0  0
   63.6600   33.4990   46.0800 O   0  0  0  0  0  0  0  0  0  0  0  0
   61.7850   33.8040   47.3780 C   0  0  0  0  0  0  0  0  0  0  0  0
   61.1980   33.7050   48.6410 C   0  0  0  0  0  0  0  0  0  0  0  0
   58.9270   32.2420   51.0560 N   0  0  0  0  0  0  0  0  0  0  0  0
   58.9920   31.0750   50.1870 C   0  0  0  0  0  0  0  0  0  0  0  0
   58.5340   31.4440   48.8120 C   0  0  0  0  0  0  0  0  0  0  0  0
   58.4590   30.5560   47.9200 O   0  0  0  0  0  0  0  0  0  0  0  0
   58.2190   32.8110   48.5080 N   0  0  0  0  0  0  0  0  0  0  0  0
   57.9290   33.2790   47.1510 C   0  0  0  0  0  0  0  0  0  0  0  0
   58.9320   32.7050   46.1490 C   0  0  0  0  0  0  0  0  0  0  0  0
   58.2530   32.1760   44.9100 C   0  0  0  0  0  0  0  0  0  0  0  0
   58.4970   32.7740   43.6650 C   0  0  0  0  0  0  0  0  0  0  0  0
   57.8890   32.2750   42.5110 C   0  0  0  0  0  0  0  0  0  0  0  0
   57.0220   31.1840   42.5910 C   0  0  0  0  0  0  0  0  0  0  0  0
   56.7520   30.5840   43.8300 C   0  0  0  0  0  0  0  0  0  0  0  0
   55.8100   29.4090   43.9080 C   0  0  0  0  0  0  0  0  0  0  0  0
   55.8200   28.8240   45.2470 N   0  0  0  0  0  0  0  0  0  0  0  0
   56.3470   27.5390   45.6010 C   0  0  0  0  0  0  0  0  0  0  0  0
   55.5710   26.6960   46.1190 O   0  0  0  0  0  0  0  0  0  0  0  0
   57.7620   27.1700   45.3700 C   0  0  0  0  0  0  0  0  0  0  0  0
   58.1960   27.0380   44.1950 O   0  0  0  0  0  0  0  0  0  0  0  0
   58.6750   26.8620   46.5220 C   0  0  0  0  0  0  0  0  0  0  0  0
   59.5650   28.0380   46.8210 C   0  0  0  0  0  0  0  0  0  0  0  0
   59.8950   28.9520   45.8060 C   0  0  0  0  0  0  0  0  0  0  0  0
   60.7500   30.0240   46.0760 C   0  0  0  0  0  0  0  0  0  0  0  0
   61.3000   30.1750   47.3550 C   0  0  0  0  0  0  0  0  0  0  0  0
   60.9770   29.2710   48.3630 C   0  0  0  0  0  0  0  0  0  0  0  0
   60.1180   28.2000   48.1010 C   0  0  0  0  0  0  0  0  0  0  0  0
   57.3840   31.0760   44.9860 C   0  0  0  0  0  0  0  0  0  0  0  0
   61.7192   33.9181   51.6790 H   0  0  0  0  0  0  0  0  0  0  0  0
   61.4733   32.1466   51.4562 H   0  0  0  0  0  0  0  0  0  0  0  0
   63.7837   32.4714   50.4097 H   0  0  0  0  0  0  0  0  0  0  0  0
   64.8899   32.6357   48.1803 H   0  0  0  0  0  0  0  0  0  0  0  0
   61.2048   34.1842   46.5243 H   0  0  0  0  0  0  0  0  0  0  0  0
   60.1538   34.0200   48.7837 H   0  0  0  0  0  0  0  0  0  0  0  0
   60.0288   30.7104   50.1414 H   0  0  0  0  0  0  0  0  0  0  0  0
   58.3399   30.2853   50.5884 H   0  0  0  0  0  0  0  0  0  0  0  0
   58.1940   33.5100   49.2840 H   0  0  0  0  0  0  0  0  0  0  0  0
   56.9151   32.9592   46.8688 H   0  0  0  0  0  0  0  0  0  0  0  0
   58.0047   34.3763   47.1343 H   0  0  0  0  0  0  0  0  0  0  0  0
   59.6359   33.4983   45.8570 H   0  0  0  0  0  0  0  0  0  0  0  0
   59.4552   31.8675   46.6337 H   0  0  0  0  0  0  0  0  0  0  0  0
   59.1709   33.6407   43.5971 H   0  0  0  0  0  0  0  0  0  0  0  0
   58.0938   32.7428   41.5367 H   0  0  0  0  0  0  0  0  0  0  0  0
   56.5484   30.7930   41.6785 H   0  0  0  0  0  0  0  0  0  0  0  0
   54.7908   29.7474   43.6699 H   0  0  0  0  0  0  0  0  0  0  0  0
   56.1381   28.6456   43.1872 H   0  0  0  0  0  0  0  0  0  0  0  0
   58.0700   26.6311   47.4112 H   0  0  0  0  0  0  0  0  0  0  0  0
   59.3039   25.9997   46.2556 H   0  0  0  0  0  0  0  0  0  0  0  0
   59.4791   28.8233   44.7958 H   0  0  0  0  0  0  0  0  0  0  0  0
   60.9908   30.7488   45.2843 H   0  0  0  0  0  0  0  0  0  0  0  0
   61.9874   31.0082   47.5631 H   0  0  0  0  0  0  0  0  0  0  0  0
   61.3997   29.4001   49.3703 H   0  0  0  0  0  0  0  0  0  0  0  0
   59.8749   27.4830   48.8990 H   0  0  0  0  0  0  0  0  0  0  0  0
   57.1960   30.5952   45.9573 H   0  0  0  0  0  0  0  0  0  0  0  0
  1  2  2  0
  2  3  1  0
  3  4  1  0
  4  5  1  0
  5  6  2  0
  6  7  1  0
  7  8  2  0
  7  9  1  0
  9 10  2  0
  2 11  1  0
 11 12  1  0
 12 13  1  0
 13 14  2  0
 13 15  1  0
 15 16  1  0
 16 17  1  0
 17 18  1  0
 18 19  2  0
 19 20  1  0
 20 21  2  0
 21 22  1  0
 22 23  1  0
 23 24  1  0
 24 25  1  0
 25 26  2  0
 25 27  1  0
 27 28  2  0
 27 29  1  0
 29 30  1  0
 30 31  2  0
 31 32  1  0
 32 33  2  0
 33 34  1  0
 34 35  2  0
 22 36  2  0
 10  4  1  0
 36 18  1  0
 35 30  1  0
  3 37  1  0
  3 38  1  0
  5 39  1  0
  6 40  1  0
  9 41  1  0
 10 42  1  0
 12 43  1  0
 12 44  1  0
 15 45  1  0
 16 46  1  0
 16 47  1  0
 17 48  1  0
 17 49  1  0
 19 50  1  0
 20 51  1  0
 21 52  1  0
 23 53  1  0
 23 54  1  0
 29 55  1  0
 29 56  1  0
 31 57  1  0
 32 58  1  0
 33 59  1  0
 34 60  1  0
 35 61  1  0
 36 62  1  0
M  CHG  2  11  -1  24  -1
M  END
>  <UniqueID>  (77) 
73

>  <SMILES>  (77) 
O=C(Cn1ccc(=O)cc1)[N-]CC(=O)NCCc1cccc(C[N-]C(=O)C(=O)Cc2ccccc2)c1

>  <Energy>  (77) 
48.33428184250812

>  <Genealogy>  (77) 
O=C(Cn1ccc(=O)cc1)[N-]CC(=O)NCCc1cccc(C[N-]C(=O)C(=O)Cc2ccccc2)c1 (protonated)
O=C(Cn1ccc(=O)cc1)[N-]CC(=O)NCCc1cccc(C[N-]C(=O)C(=O)Cc2ccccc2)c1 (3D coordinates assigned)
O=C(Cn1ccc(=O)cc1)[N-]CC(=O)NCCc1cccc(C[N-]C(=O)C(=O)Cc2ccccc2)c1 (optimized conformer: 48.33428184250812 kcal/mol)

>  <smiles>  (77) 
O=C(CNC(=O)Cn1ccc(=O)cc1)NCCc1cccc(CNC(=O)C(=O)Cc2ccccc2)c1

>  <score_type>  (77) 
oracle

>  <origin>  (77) 
adg

>  <m_score__min__energy>  (77) 
-12.98

>  <m_primary>  (77) 
energy

$$$$
77:0
     RDKit          3D

 59 61  0  0  0  0  0  0  0  0999 V2000
   55.0460   31.1280   52.1120 C   0  0  0  0  0  0  0  0  0  0  0  0
   56.2940   31.6050   52.5540 O   0  0  0  0  0  0  0  0  0  0  0  0
   57.4600   31.6060   51.8270 C   0  0  0  0  0  0  0  0  0  0  0  0
   58.1050   32.7430   51.3880 C   0  0  0  0  0  0  0  0  0  0  0  0
   59.2930   32.6830   50.6510 C   0  0  0  0  0  0  0  0  0  0  0  0
   59.9840   33.8940   50.1860 C   0  0  0  0  0  0  0  0  0  0  0  0
   60.2840   33.8850   48.8030 N   0  0  0  0  0  0  0  0  0  0  0  0
   61.6070   33.6290   48.3960 C   0  0  0  0  0  0  0  0  0  0  0  0
   61.9060   32.2510   47.8790 C   0  0  0  0  0  0  0  0  0  0  0  0
   60.6950   31.5130   47.5630 N   0  0  0  0  0  0  0  0  0  0  0  0
   60.6600   30.4140   46.6690 C   0  0  0  0  0  0  0  0  0  0  0  0
   61.7260   30.0330   46.1010 O   0  0  0  0  0  0  0  0  0  0  0  0
   59.4550   29.6650   46.3440 C   0  0  0  0  0  0  0  0  0  0  0  0
   58.9460   28.8000   47.2910 C   0  0  0  0  0  0  0  0  0  0  0  0
   57.7890   28.0500   47.0470 C   0  0  0  0  0  0  0  0  0  0  0  0
   57.1300   28.1630   45.8410 C   0  0  0  0  0  0  0  0  0  0  0  0
   55.9800   27.4040   45.6210 O   0  0  0  0  0  0  0  0  0  0  0  0
   57.6330   29.0240   44.8900 C   0  0  0  0  0  0  0  0  0  0  0  0
   58.7840   29.7640   45.1490 C   0  0  0  0  0  0  0  0  0  0  0  0
   59.4940   34.7480   47.9990 C   0  0  0  0  0  0  0  0  0  0  0  0
   59.0330   34.1040   46.7360 C   0  0  0  0  0  0  0  0  0  0  0  0
   59.4650   34.5870   45.5040 C   0  0  0  0  0  0  0  0  0  0  0  0
   59.0640   34.0230   44.3510 N   0  0  0  0  0  0  0  0  0  0  0  0
   58.2280   32.9680   44.3540 C   0  0  0  0  0  0  0  0  0  0  0  0
   57.7970   32.3590   43.0700 C   0  0  0  0  0  0  0  0  0  0  0  0
   57.8170   32.5100   45.5480 N   0  0  0  0  0  0  0  0  0  0  0  0
   58.1800   33.0280   46.7240 C   0  0  0  0  0  0  0  0  0  0  0  0
   57.7710   32.5680   47.8690 N   0  0  0  0  0  0  0  0  0  0  0  0
   59.7810   31.4210   50.3860 C   0  0  0  0  0  0  0  0  0  0  0  0
   59.1720   30.2610   50.8020 C   0  0  0  0  0  0  0  0  0  0  0  0
   58.0050   30.3560   51.5260 C   0  0  0  0  0  0  0  0  0  0  0  0
   57.3710   29.1820   51.9590 O   0  0  0  0  0  0  0  0  0  0  0  0
   54.4166   30.8874   52.9814 H   0  0  0  0  0  0  0  0  0  0  0  0
   54.5523   31.9008   51.5045 H   0  0  0  0  0  0  0  0  0  0  0  0
   55.1936   30.2229   51.5045 H   0  0  0  0  0  0  0  0  0  0  0  0
   57.6727   33.7265   51.6242 H   0  0  0  0  0  0  0  0  0  0  0  0
   59.3417   34.7620   50.3959 H   0  0  0  0  0  0  0  0  0  0  0  0
   60.9436   33.9410   50.7217 H   0  0  0  0  0  0  0  0  0  0  0  0
   61.8527   34.3439   47.5969 H   0  0  0  0  0  0  0  0  0  0  0  0
   62.2117   33.7292   49.3094 H   0  0  0  0  0  0  0  0  0  0  0  0
   62.5165   32.3383   46.9681 H   0  0  0  0  0  0  0  0  0  0  0  0
   62.4425   31.7018   48.6668 H   0  0  0  0  0  0  0  0  0  0  0  0
   59.7620   31.7760   48.0010 H   0  0  0  0  0  0  0  0  0  0  0  0
   59.4600   28.6975   48.2581 H   0  0  0  0  0  0  0  0  0  0  0  0
   57.4045   27.3684   47.8200 H   0  0  0  0  0  0  0  0  0  0  0  0
   55.9230   26.7020   44.8910 H   0  0  0  0  0  0  0  0  0  0  0  0
   57.1227   29.1274   43.9210 H   0  0  0  0  0  0  0  0  0  0  0  0
   59.1665   30.4465   44.3757 H   0  0  0  0  0  0  0  0  0  0  0  0
   58.6112   35.0566   48.5781 H   0  0  0  0  0  0  0  0  0  0  0  0
   60.1223   35.6071   47.7211 H   0  0  0  0  0  0  0  0  0  0  0  0
   60.1488   35.4481   45.4730 H   0  0  0  0  0  0  0  0  0  0  0  0
   59.4350   34.4480   43.4630 H   0  0  0  0  0  0  0  0  0  0  0  0
   57.1726   31.4767   43.2740 H   0  0  0  0  0  0  0  0  0  0  0  0
   57.2165   33.0934   42.4924 H   0  0  0  0  0  0  0  0  0  0  0  0
   58.6827   32.0558   42.4924 H   0  0  0  0  0  0  0  0  0  0  0  0
   58.3780   32.8180   48.7020 H   0  0  0  0  0  0  0  0  0  0  0  0
   60.7128   31.3375   49.8074 H   0  0  0  0  0  0  0  0  0  0  0  0
   59.6071   29.2796   50.5619 H   0  0  0  0  0  0  0  0  0  0  0  0
   56.5780   29.3280   52.5950 H   0  0  0  0  0  0  0  0  0  0  0  0
  1  2  1  0
  2  3  1  0
  3  4  2  0
  4  5  1  0
  5  6  1  0
  6  7  1  0
  7  8  1  0
  8  9  1  0
  9 10  1  0
 10 11  1  0
 11 12  2  0
 11 13  1  0
 13 14  2  0
 14 15  1  0
 15 16  2  0
 16 17  1  0
 16 18  1  0
 18 19  2  0
  7 20  1  0
 20 21  1  0
 21 22  2  0
 22 23  1  0
 23 24  1  0
 24 25  1  0
 24 26  2  0
 26 27  1  0
 27 28  2  3
  5 29  2  0
 29 30  1  0
 30 31  2  0
 31 32  1  0
 31  3  1  0
 19 13  1  0
 27 21  1  0
  1 33  1  0
  1 34  1  0
  1 35  1  0
  4 36  1  0
  6 37  1  0
  6 38  1  0
  8 39  1  0
  8 40  1  0
  9 41  1  0
  9 42  1  0
 10 43  1  0
 14 44  1  0
 15 45  1  0
 17 46  1  0
 18 47  1  0
 19 48  1  0
 20 49  1  0
 20 50  1  0
 22 51  1  0
 23 52  1  0
 25 53  1  0
 25 54  1  0
 25 55  1  0
 28 56  1  0
 29 57  1  0
 30 58  1  0
 32 59  1  0
M  END
>  <smiles>  (78) 
COc1cc(CN(CCNC(=O)c2ccc(O)cc2)Cc2c[nH]c(C)nc2=N)ccc1O

>  <score_type>  (78) 
oracle

>  <origin>  (78) 
adg

>  <m_score__min__energy>  (78) 
-8.0999999999999996

>  <m_primary>  (78) 
energy

$$$$
78:0
     RDKit          3D

 53 56  0  0  1  0  0  0  0  0999 V2000
   57.8750   32.4720   41.1110 C   0  0  0  0  0  0  0  0  0  0  0  0
   57.3960   31.9280   42.4310 C   0  0  0  0  0  0  0  0  0  0  0  0
   56.6910   30.8860   42.4670 O   0  0  0  0  0  0  0  0  0  0  0  0
   57.7540   32.6090   43.6270 N   0  0  0  0  0  0  0  0  0  0  0  0
   58.4120   32.0350   44.5800 C   0  0  0  0  0  0  0  0  0  0  0  0
   59.1690   32.7840   45.4550 C   0  0  0  0  0  0  0  0  0  0  0  0
   59.8440   32.1370   46.4420 C   0  0  0  0  0  0  0  0  0  0  0  0
   60.6670   32.8530   47.4080 C   0  0  0  0  0  0  0  0  0  0  0  0
   62.0380   32.9290   47.3350 C   0  0  0  0  0  0  0  0  0  0  0  0
   62.7990   33.6200   48.2730 C   0  0  0  0  0  0  0  0  0  0  0  0
   62.1820   34.2680   49.3320 C   0  0  0  0  0  0  0  0  0  0  0  0
   60.8020   34.1920   49.4050 C   0  0  0  0  0  0  0  0  0  0  0  0
   60.0740   33.5120   48.4820 C   0  0  0  0  0  0  0  0  0  0  0  0
   59.7490   30.8000   46.5310 N   0  0  0  0  0  0  0  0  0  0  0  0
   59.0160   30.0310   45.6920 C   0  0  0  0  0  0  0  0  0  0  0  0
   58.9790   28.5860   45.8740 C   0  0  0  0  0  0  0  0  0  0  0  0
   59.9760   28.0090   46.6310 C   0  0  0  0  0  0  0  0  0  0  0  0
   59.9930   26.6530   46.8360 C   0  0  0  0  0  0  0  0  0  0  0  0
   58.9890   25.8760   46.2690 C   0  0  0  0  0  0  0  0  0  0  0  0
   57.9750   26.3990   45.5070 C   0  0  0  0  0  0  0  0  0  0  0  0
   56.9310   25.6790   44.9050 N   0  0  0  0  0  0  0  0  0  0  0  0
   55.7900   25.1420   45.5270 C   0  0  0  0  0  0  0  0  0  0  0  0
   55.6370   25.2920   46.7500 O   0  0  0  0  0  0  0  0  0  0  0  0
   54.8070   24.4330   44.7970 N   0  0  0  0  0  0  0  0  0  0  0  0
   53.6370   23.8520   45.2770 C   0  0  0  0  0  0  0  0  0  0  0  0
   53.7410   22.9350   46.3360 C   0  0  0  0  0  0  0  0  0  0  0  0
   52.6400   22.3120   46.8750 C   0  0  0  0  0  0  0  0  0  0  0  0
   51.3670   22.5510   46.4080 C   0  0  0  0  0  0  0  0  0  0  0  0
   50.0060   21.7290   47.1340 Cl  0  0  0  0  0  0  0  0  0  0  0  0
   51.2420   23.4480   45.3690 C   0  0  0  0  0  0  0  0  0  0  0  0
   52.3610   24.0750   44.8270 C   0  0  0  0  0  0  0  0  0  0  0  0
   58.0060   27.7860   45.3300 C   0  0  0  0  0  0  0  0  0  0  0  0
   58.3550   30.6800   44.7220 N   0  0  0  0  0  0  0  0  0  0  0  0
   58.5924   33.2867   41.2888 H   0  0  0  0  0  0  0  0  0  0  0  0
   58.3653   31.6698   40.5400 H   0  0  0  0  0  0  0  0  0  0  0  0
   57.0172   32.8569   40.5400 H   0  0  0  0  0  0  0  0  0  0  0  0
   59.2256   33.8782   45.3572 H   0  0  0  0  0  0  0  0  0  0  0  0
   62.5526   32.4246   46.5039 H   0  0  0  0  0  0  0  0  0  0  0  0
   63.8941   33.6522   48.1739 H   0  0  0  0  0  0  0  0  0  0  0  0
   62.7655   34.8200   50.0836 H   0  0  0  0  0  0  0  0  0  0  0  0
   60.2810   34.6957   50.2326 H   0  0  0  0  0  0  0  0  0  0  0  0
   58.9794   33.4807   48.5862 H   0  0  0  0  0  0  0  0  0  0  0  0
   60.7619   28.6392   47.0729 H   0  0  0  0  0  0  0  0  0  0  0  0
   60.7872   26.1882   47.4386 H   0  0  0  0  0  0  0  0  0  0  0  0
   59.0086   24.7895   46.4396 H   0  0  0  0  0  0  0  0  0  0  0  0
   56.9990   25.5140   43.8560 H   0  0  0  0  0  0  0  0  0  0  0  0
   55.0020   24.3420   43.7540 H   0  0  0  0  0  0  0  0  0  0  0  0
   54.7355   22.7079   46.7475 H   0  0  0  0  0  0  0  0  0  0  0  0
   52.7804   21.6020   47.7034 H   0  0  0  0  0  0  0  0  0  0  0  0
   50.2447   23.6716   44.9624 H   0  0  0  0  0  0  0  0  0  0  0  0
   52.2143   24.7831   43.9981 H   0  0  0  0  0  0  0  0  0  0  0  0
   57.2149   28.2566   44.7277 H   0  0  0  0  0  0  0  0  0  0  0  0
   57.7740   30.1830   44.0400 H   0  0  0  0  0  0  0  0  0  0  0  0
  1  2  1  0
  2  3  2  0
  2  4  1  0
  4  5  2  0
  5  6  1  0
  6  7  2  0
  7  8  1  0
  8  9  2  0
  9 10  1  0
 10 11  2  0
 11 12  1  0
 12 13  2  0
  7 14  1  0
 14 15  2  0
 15 16  1  0
 16 17  2  0
 17 18  1  0
 18 19  2  0
 19 20  1  0
 20 21  1  0
 21 22  1  0
 22 23  2  0
 22 24  1  0
 24 25  1  0
 25 26  2  0
 26 27  1  0
 27 28  2  0
 28 29  1  0
 28 30  1  0
 30 31  2  0
 20 32  2  0
 15 33  1  0
 33  5  1  0
 13  8  1  0
 32 16  1  0
 31 25  1  0
  1 34  1  0
  1 35  1  0
  1 36  1  0
  6 37  1  0
  9 38  1  0
 10 39  1  0
 11 40  1  0
 12 41  1  0
 13 42  1  0
 17 43  1  0
 18 44  1  0
 19 45  1  0
 21 46  1  0
 24 47  1  0
 26 48  1  0
 27 49  1  0
 30 50  1  0
 31 51  1  0
 32 52  1  0
 33 53  1  0
M  END
>  <smiles>  (79) 
CC(=O)N=c1cc(-c2ccccc2)nc(-c2cccc(NC(=O)Nc3ccc(Cl)cc3)c2)[nH]1

>  <score_type>  (79) 
oracle

>  <origin>  (79) 
adg

>  <m_score__min__energy>  (79) 
-9.3800000000000008

>  <m_primary>  (79) 
energy

$$$$
79:0
     RDKit          3D

 46 48  0  0  0  0  0  0  0  0999 V2000
   58.4690   33.8250   44.7480 O   0  0  0  0  0  0  0  0  0  0  0  0
   58.8850   32.8070   45.3660 C   0  0  0  0  0  0  0  0  0  0  0  0
   60.1290   32.8730   46.0820 N   0  0  0  0  0  0  0  0  0  0  0  0
   60.8030   34.1400   46.3580 C   0  0  0  0  0  0  0  0  0  0  0  0
   61.8510   33.9470   47.4200 C   0  0  0  0  0  0  0  0  0  0  0  0
   61.5640   34.2210   48.7680 C   0  0  0  0  0  0  0  0  0  0  0  0
   62.5360   34.0130   49.7510 C   0  0  0  0  0  0  0  0  0  0  0  0
   63.7970   33.5260   49.3970 C   0  0  0  0  0  0  0  0  0  0  0  0
   64.0880   33.2440   48.0590 C   0  0  0  0  0  0  0  0  0  0  0  0
   63.1190   33.4510   47.0730 C   0  0  0  0  0  0  0  0  0  0  0  0
   58.0870   31.5590   45.3310 C   0  0  0  0  0  0  0  0  0  0  0  0
   57.0320   31.3970   44.4150 C   0  0  0  0  0  0  0  0  0  0  0  0
   56.2960   30.2100   44.3810 C   0  0  0  0  0  0  0  0  0  0  0  0
   56.6070   29.1560   45.2570 C   0  0  0  0  0  0  0  0  0  0  0  0
   55.8940   27.9130   45.2430 N   0  0  0  0  0  0  0  0  0  0  0  0
   56.5140   26.3850   45.7840 S   0  0  0  0  0  0  0  0  0  0  0  0
   55.3860   25.4060   45.9490 O   0  0  0  0  0  0  0  0  0  0  0  0
   57.1810   26.5820   47.1140 O   0  0  0  0  0  0  0  0  0  0  0  0
   57.7190   25.7490   44.6260 C   0  0  0  0  0  0  0  0  0  0  0  0
   57.4390   24.3040   44.3180 C   0  0  0  0  0  0  0  0  0  0  0  0
   58.1390   23.2900   44.9910 C   0  0  0  0  0  0  0  0  0  0  0  0
   57.9090   21.9470   44.6760 C   0  0  0  0  0  0  0  0  0  0  0  0
   56.9840   21.6080   43.6840 C   0  0  0  0  0  0  0  0  0  0  0  0
   56.2890   22.6130   43.0060 C   0  0  0  0  0  0  0  0  0  0  0  0
   56.5150   23.9570   43.3190 C   0  0  0  0  0  0  0  0  0  0  0  0
   57.6570   29.3140   46.1680 C   0  0  0  0  0  0  0  0  0  0  0  0
   58.3960   30.5000   46.2020 C   0  0  0  0  0  0  0  0  0  0  0  0
   60.6010   31.9920   46.3860 H   0  0  0  0  0  0  0  0  0  0  0  0
   61.2810   34.5060   45.4374 H   0  0  0  0  0  0  0  0  0  0  0  0
   60.0624   34.8724   46.7117 H   0  0  0  0  0  0  0  0  0  0  0  0
   60.5710   34.6005   49.0508 H   0  0  0  0  0  0  0  0  0  0  0  0
   62.3079   34.2330   50.8044 H   0  0  0  0  0  0  0  0  0  0  0  0
   64.5612   33.3644   50.1716 H   0  0  0  0  0  0  0  0  0  0  0  0
   65.0804   32.8589   47.7819 H   0  0  0  0  0  0  0  0  0  0  0  0
   63.3500   33.2248   46.0216 H   0  0  0  0  0  0  0  0  0  0  0  0
   56.7842   32.2122   43.7192 H   0  0  0  0  0  0  0  0  0  0  0  0
   55.4685   30.0998   43.6646 H   0  0  0  0  0  0  0  0  0  0  0  0
   57.6711   26.3337   43.6955 H   0  0  0  0  0  0  0  0  0  0  0  0
   58.7208   25.8307   45.0729 H   0  0  0  0  0  0  0  0  0  0  0  0
   58.8710   23.5528   45.7689 H   0  0  0  0  0  0  0  0  0  0  0  0
   58.4567   21.1562   45.2095 H   0  0  0  0  0  0  0  0  0  0  0  0
   56.8035   20.5513   43.4375 H   0  0  0  0  0  0  0  0  0  0  0  0
   55.5625   22.3463   42.2243 H   0  0  0  0  0  0  0  0  0  0  0  0
   55.9674   24.7449   42.7811 H   0  0  0  0  0  0  0  0  0  0  0  0
   57.9031   28.4980   46.8634 H   0  0  0  0  0  0  0  0  0  0  0  0
   59.2260   30.6054   46.9161 H   0  0  0  0  0  0  0  0  0  0  0  0
  1  2  2  0
  2  3  1  0
  3  4  1  0
  4  5  1  0
  5  6  2  0
  6  7  1  0
  7  8  2  0
  8  9  1  0
  9 10  2  0
  2 11  1  0
 11 12  2  0
 12 13  1  0
 13 14  2  0
 14 15  1  0
 15 16  1  0
 16 17  2  0
 16 18  2  0
 16 19  1  0
 19 20  1  0
 20 21  2  0
 21 22  1  0
 22 23  2  0
 23 24  1  0
 24 25  2  0
 14 26  1  0
 26 27  2  0
 10  5  1  0
 27 11  1  0
 25 20  1  0
  3 28  1  0
  4 29  1  0
  4 30  1  0
  6 31  1  0
  7 32  1  0
  8 33  1  0
  9 34  1  0
 10 35  1  0
 12 36  1  0
 13 37  1  0
 19 38  1  0
 19 39  1  0
 21 40  1  0
 22 41  1  0
 23 42  1  0
 24 43  1  0
 25 44  1  0
 26 45  1  0
 27 46  1  0
M  CHG  1  15  -1
M  END
>  <UniqueID>  (80) 
74

>  <SMILES>  (80) 
O=C(NCc1ccccc1)c1ccc([N-]S(=O)(=O)Cc2ccccc2)cc1

>  <Energy>  (80) 
45.624492032966174

>  <Genealogy>  (80) 
O=C(NCc1ccccc1)c1ccc([N-]S(=O)(=O)Cc2ccccc2)cc1 (protonated)
O=C(NCc1ccccc1)c1ccc([N-]S(=O)(=O)Cc2ccccc2)cc1 (3D coordinates assigned)
O=C(NCc1ccccc1)c1ccc([N-]S(=O)(=O)Cc2ccccc2)cc1 (optimized conformer: 45.624492032966174 kcal/mol)

>  <smiles>  (80) 
O=C(NCc1ccccc1)c1ccc(NS(=O)(=O)Cc2ccccc2)cc1

>  <score_type>  (80) 
oracle

>  <origin>  (80) 
adg

>  <m_score__min__energy>  (80) 
-10.699999999999999

>  <m_primary>  (80) 
energy

$$$$
80:0
     RDKit          3D

 51 54  0  0  0  0  0  0  0  0999 V2000
   56.2470   23.2660   43.0480 O   0  0  0  0  0  0  0  0  0  0  0  0
   56.9260   23.6760   44.0250 C   0  0  0  0  0  0  0  0  0  0  0  0
   57.3480   22.7310   45.0160 N   0  0  0  0  0  0  0  0  0  0  0  0
   56.3780   22.1730   46.3440 S   0  0  0  0  0  0  0  0  0  0  0  0
   55.5880   20.9630   45.9300 O   0  0  0  0  0  0  0  0  0  0  0  0
   57.2910   21.7860   47.4720 O   0  0  0  0  0  0  0  0  0  0  0  0
   55.2980   23.4770   46.9190 C   0  0  0  0  0  0  0  0  0  0  0  0
   53.9520   23.3750   46.2600 C   0  0  0  0  0  0  0  0  0  0  0  0
   53.6710   24.1220   45.1050 C   0  0  0  0  0  0  0  0  0  0  0  0
   52.4020   24.0590   44.5180 C   0  0  0  0  0  0  0  0  0  0  0  0
   51.4060   23.2600   45.0860 C   0  0  0  0  0  0  0  0  0  0  0  0
   51.6770   22.5200   46.2400 C   0  0  0  0  0  0  0  0  0  0  0  0
   52.9450   22.5780   46.8270 C   0  0  0  0  0  0  0  0  0  0  0  0
   57.2750   25.1060   44.1010 C   0  0  0  0  0  0  0  0  0  0  0  0
   57.7610   25.7680   42.9650 C   0  0  0  0  0  0  0  0  0  0  0  0
   58.1150   27.1170   43.0340 C   0  0  0  0  0  0  0  0  0  0  0  0
   57.9520   27.8350   44.2280 C   0  0  0  0  0  0  0  0  0  0  0  0
   58.3640   29.2120   44.2840 N   0  0  0  0  0  0  0  0  0  0  0  0
   57.5280   30.2820   44.7560 C   0  0  0  0  0  0  0  0  0  0  0  0
   56.2830   30.1150   44.8590 O   0  0  0  0  0  0  0  0  0  0  0  0
   58.1160   31.5930   45.0810 C   0  0  0  0  0  0  0  0  0  0  0  0
   57.7040   32.7850   44.4880 C   0  0  0  0  0  0  0  0  0  0  0  0
   58.6210   34.0290   45.1470 S   0  0  0  0  0  0  0  0  0  0  0  0
   59.5050   33.0100   46.1570 C   0  0  0  0  0  0  0  0  0  0  0  0
   60.5590   33.4300   47.1090 C   0  0  0  0  0  0  0  0  0  0  0  0
   60.2330   33.8400   48.4160 C   0  0  0  0  0  0  0  0  0  0  0  0
   61.2380   34.2260   49.3070 C   0  0  0  0  0  0  0  0  0  0  0  0
   62.5750   34.2100   48.9060 C   0  0  0  0  0  0  0  0  0  0  0  0
   62.9110   33.8070   47.6110 C   0  0  0  0  0  0  0  0  0  0  0  0
   61.9090   33.4200   46.7150 C   0  0  0  0  0  0  0  0  0  0  0  0
   59.1100   31.7250   46.0030 N   0  0  0  0  0  0  0  0  0  0  0  0
   57.4480   27.1740   45.3610 C   0  0  0  0  0  0  0  0  0  0  0  0
   57.0990   25.8220   45.2930 C   0  0  0  0  0  0  0  0  0  0  0  0
   55.1749   23.3908   48.0087 H   0  0  0  0  0  0  0  0  0  0  0  0
   55.7463   24.4485   46.6634 H   0  0  0  0  0  0  0  0  0  0  0  0
   54.4502   24.7584   44.6602 H   0  0  0  0  0  0  0  0  0  0  0  0
   52.1883   24.6392   43.6082 H   0  0  0  0  0  0  0  0  0  0  0  0
   50.4085   23.2136   44.6246 H   0  0  0  0  0  0  0  0  0  0  0  0
   50.8926   21.8916   46.6869 H   0  0  0  0  0  0  0  0  0  0  0  0
   53.1542   21.9965   47.7370 H   0  0  0  0  0  0  0  0  0  0  0  0
   57.8639   25.2226   42.0153 H   0  0  0  0  0  0  0  0  0  0  0  0
   58.5246   27.6202   42.1457 H   0  0  0  0  0  0  0  0  0  0  0  0
   59.2990   29.4560   43.8860 H   0  0  0  0  0  0  0  0  0  0  0  0
   56.9189   32.8922   43.7250 H   0  0  0  0  0  0  0  0  0  0  0  0
   59.1812   33.8566   48.7376 H   0  0  0  0  0  0  0  0  0  0  0  0
   60.9749   34.5432   50.3269 H   0  0  0  0  0  0  0  0  0  0  0  0
   63.3639   34.5146   49.6094 H   0  0  0  0  0  0  0  0  0  0  0  0
   63.9648   33.7941   47.2957 H   0  0  0  0  0  0  0  0  0  0  0  0
   62.1786   33.1059   45.6959 H   0  0  0  0  0  0  0  0  0  0  0  0
   57.3275   27.7233   46.3064 H   0  0  0  0  0  0  0  0  0  0  0  0
   56.6846   25.3181   46.1786 H   0  0  0  0  0  0  0  0  0  0  0  0
  1  2  2  0
  2  3  1  0
  3  4  1  0
  4  5  2  0
  4  6  2  0
  4  7  1  0
  7  8  1  0
  8  9  2  0
  9 10  1  0
 10 11  2  0
 11 12  1  0
 12 13  2  0
  2 14  1  0
 14 15  2  0
 15 16  1  0
 16 17  2  0
 17 18  1  0
 18 19  1  0
 19 20  2  0
 19 21  1  0
 21 22  2  0
 22 23  1  0
 23 24  1  0
 24 25  1  0
 25 26  2  0
 26 27  1  0
 27 28  2  0
 28 29  1  0
 29 30  2  0
 24 31  2  0
 17 32  1  0
 32 33  2  0
 13  8  1  0
 33 14  1  0
 31 21  1  0
 30 25  1  0
  7 34  1  0
  7 35  1  0
  9 36  1  0
 10 37  1  0
 11 38  1  0
 12 39  1  0
 13 40  1  0
 15 41  1  0
 16 42  1  0
 18 43  1  0
 22 44  1  0
 26 45  1  0
 27 46  1  0
 28 47  1  0
 29 48  1  0
 30 49  1  0
 32 50  1  0
 33 51  1  0
M  CHG  1   3  -1
M  END
>  <UniqueID>  (81) 
75

>  <SMILES>  (81) 
O=C([N-]S(=O)(=O)Cc1ccccc1)c1ccc(NC(=O)c2csc(-c3ccccc3)n2)cc1

>  <Energy>  (81) 
91.41607957339806

>  <Genealogy>  (81) 
O=C([N-]S(=O)(=O)Cc1ccccc1)c1ccc(NC(=O)c2csc(-c3ccccc3)n2)cc1 (protonated)
O=C([N-]S(=O)(=O)Cc1ccccc1)c1ccc(NC(=O)c2csc(-c3ccccc3)n2)cc1 (3D coordinates assigned)
O=C([N-]S(=O)(=O)Cc1ccccc1)c1ccc(NC(=O)c2csc(-c3ccccc3)n2)cc1 (optimized conformer: 91.41607957339806 kcal/mol)

>  <smiles>  (81) 
O=C(NS(=O)(=O)Cc1ccccc1)c1ccc(NC(=O)c2csc(-c3ccccc3)n2)cc1

>  <score_type>  (81) 
oracle

>  <origin>  (81) 
adg

>  <m_score__min__energy>  (81) 
-10.85

>  <m_primary>  (81) 
energy

$$$$
81:0
     RDKit          3D

 53 56  0  0  0  0  0  0  0  0999 V2000
   59.2340   24.4340   46.3770 O   0  0  0  0  0  0  0  0  0  0  0  0
   59.2990   25.6900   46.4350 C   0  0  0  0  0  0  0  0  0  0  0  0
   59.4170   26.3710   47.7770 C   0  0  0  0  0  0  0  0  0  0  0  0
   60.6060   27.3430   47.8400 C   0  0  0  0  0  0  0  0  0  0  0  0
   60.2990   28.5670   48.6530 C   0  0  0  0  0  0  0  0  0  0  0  0
   59.1650   28.6220   49.4000 N   0  0  0  0  0  0  0  0  0  0  0  0
   58.8620   29.7120   50.1520 C   0  0  0  0  0  0  0  0  0  0  0  0
   57.8010   29.7190   50.8330 O   0  0  0  0  0  0  0  0  0  0  0  0
   59.7340   30.8120   50.1650 C   0  0  0  0  0  0  0  0  0  0  0  0
   59.4790   31.9720   50.9190 C   0  0  0  0  0  0  0  0  0  0  0  0
   60.3920   33.0340   50.8990 C   0  0  0  0  0  0  0  0  0  0  0  0
   61.5560   32.9480   50.1290 C   0  0  0  0  0  0  0  0  0  0  0  0
   61.8150   31.8000   49.3720 C   0  0  0  0  0  0  0  0  0  0  0  0
   60.9110   30.7320   49.3880 C   0  0  0  0  0  0  0  0  0  0  0  0
   61.1640   29.6170   48.6570 N   0  0  0  0  0  0  0  0  0  0  0  0
   59.2500   26.4390   45.2130 N   0  0  0  0  0  0  0  0  0  0  0  0
   58.6000   27.7050   45.0490 C   0  0  0  0  0  0  0  0  0  0  0  0
   57.2030   27.7580   45.0880 C   0  0  0  0  0  0  0  0  0  0  0  0
   56.5320   28.9710   44.9040 C   0  0  0  0  0  0  0  0  0  0  0  0
   55.1440   28.9970   44.9230 O   0  0  0  0  0  0  0  0  0  0  0  0
   57.2520   30.1550   44.6960 C   0  0  0  0  0  0  0  0  0  0  0  0
   56.5380   31.3470   44.4920 O   0  0  0  0  0  0  0  0  0  0  0  0
   56.7290   32.5560   45.2310 C   0  0  0  0  0  0  0  0  0  0  0  0
   58.1030   33.1150   44.9770 C   0  0  0  0  0  0  0  0  0  0  0  0
   58.5250   33.1670   43.7890 O   0  0  0  0  0  0  0  0  0  0  0  0
   58.9320   33.6100   46.0440 N   0  0  0  0  0  0  0  0  0  0  0  0
   60.3170   34.0000   45.8430 C   0  0  0  0  0  0  0  0  0  0  0  0
   60.8580   34.3280   47.2280 C   0  0  0  0  0  0  0  0  0  0  0  0
   59.6320   34.5280   48.1160 C   0  0  0  0  0  0  0  0  0  0  0  0
   58.4860   33.8080   47.4130 C   0  0  0  0  0  0  0  0  0  0  0  0
   58.6600   30.1090   44.7010 C   0  0  0  0  0  0  0  0  0  0  0  0
   59.3330   28.8960   44.8850 C   0  0  0  0  0  0  0  0  0  0  0  0
   61.0910   28.9200   44.9760 Cl  0  0  0  0  0  0  0  0  0  0  0  0
   58.4912   26.9328   47.9704 H   0  0  0  0  0  0  0  0  0  0  0  0
   59.5818   25.5909   48.5349 H   0  0  0  0  0  0  0  0  0  0  0  0
   61.4637   26.8238   48.2925 H   0  0  0  0  0  0  0  0  0  0  0  0
   60.8293   27.6684   46.8132 H   0  0  0  0  0  0  0  0  0  0  0  0
   58.5631   32.0449   51.5239 H   0  0  0  0  0  0  0  0  0  0  0  0
   60.1926   33.9392   51.4913 H   0  0  0  0  0  0  0  0  0  0  0  0
   62.2698   33.7848   50.1183 H   0  0  0  0  0  0  0  0  0  0  0  0
   62.7296   31.7371   48.7641 H   0  0  0  0  0  0  0  0  0  0  0  0
   56.6271   26.8376   45.2649 H   0  0  0  0  0  0  0  0  0  0  0  0
   55.9745   33.2937   44.9203 H   0  0  0  0  0  0  0  0  0  0  0  0
   56.6253   32.3382   46.3042 H   0  0  0  0  0  0  0  0  0  0  0  0
   60.8871   33.1730   45.3945 H   0  0  0  0  0  0  0  0  0  0  0  0
   60.4021   34.8583   45.1602 H   0  0  0  0  0  0  0  0  0  0  0  0
   61.4733   33.4980   47.6055 H   0  0  0  0  0  0  0  0  0  0  0  0
   61.4970   35.2232   47.2118 H   0  0  0  0  0  0  0  0  0  0  0  0
   59.8049   34.0921   49.1111 H   0  0  0  0  0  0  0  0  0  0  0  0
   59.4092   35.5951   48.2633 H   0  0  0  0  0  0  0  0  0  0  0  0
   58.2866   32.8400   47.8959 H   0  0  0  0  0  0  0  0  0  0  0  0
   57.5521   34.3874   47.4577 H   0  0  0  0  0  0  0  0  0  0  0  0
   59.2358   31.0354   44.5589 H   0  0  0  0  0  0  0  0  0  0  0  0
  1  2  2  0
  2  3  1  0
  3  4  1  0
  4  5  1  0
  5  6  2  0
  6  7  1  0
  7  8  2  0
  7  9  1  0
  9 10  2  0
 10 11  1  0
 11 12  2  0
 12 13  1  0
 13 14  2  0
 14 15  1  0
  2 16  1  0
 16 17  1  0
 17 18  2  0
 18 19  1  0
 19 20  1  0
 19 21  2  0
 21 22  1  0
 22 23  1  0
 23 24  1  0
 24 25  2  0
 24 26  1  0
 26 27  1  0
 27 28  1  0
 28 29  1  0
 29 30  1  0
 21 31  1  0
 31 32  2  0
 32 33  1  0
 15  5  1  0
 32 17  1  0
 14  9  1  0
 30 26  1  0
  3 34  1  0
  3 35  1  0
  4 36  1  0
  4 37  1  0
 10 38  1  0
 11 39  1  0
 12 40  1  0
 13 41  1  0
 18 42  1  0
 23 43  1  0
 23 44  1  0
 27 45  1  0
 27 46  1  0
 28 47  1  0
 28 48  1  0
 29 49  1  0
 29 50  1  0
 30 51  1  0
 30 52  1  0
 31 53  1  0
M  CHG  3  15  -1  16  -1  20  -1
M  END
>  <UniqueID>  (82) 
76

>  <SMILES>  (82) 
O=C(CCc1nc(=O)c2ccccc2[n-]1)[N-]c1cc([O-])c(OCC(=O)N2CCCC2)cc1Cl

>  <Energy>  (82) 
64.7244468047149

>  <Genealogy>  (82) 
O=C(CCc1nc(=O)c2ccccc2[n-]1)[N-]c1cc([O-])c(OCC(=O)N2CCCC2)cc1Cl (protonated)
O=C(CCc1nc(=O)c2ccccc2[n-]1)[N-]c1cc([O-])c(OCC(=O)N2CCCC2)cc1Cl (3D coordinates assigned)
O=C(CCc1nc(=O)c2ccccc2[n-]1)[N-]c1cc([O-])c(OCC(=O)N2CCCC2)cc1Cl (nonaromatic ring conformer: 64.7244468047149 kcal/mol)

>  <smiles>  (82) 
O=C(CCc1nc(=O)c2ccccc2[nH]1)Nc1cc(O)c(OCC(=O)N2CCCC2)cc1Cl

>  <score_type>  (82) 
oracle

>  <origin>  (82) 
adg

>  <m_score__min__energy>  (82) 
-15.98

>  <m_primary>  (82) 
energy

$$$$
82:0
     RDKit          3D

 26 27  0  0  0  0  0  0  0  0999 V2000
   59.9740   36.0300   45.9720 C   0  0  0  0  0  0  0  0  0  0  0  0
   59.1760   35.3520   45.0070 O   0  0  0  0  0  0  0  0  0  0  0  0
   58.8040   34.0030   45.0940 C   0  0  0  0  0  0  0  0  0  0  0  0
   58.5090   33.2250   43.9570 C   0  0  0  0  0  0  0  0  0  0  0  0
   58.1430   31.8830   44.0970 C   0  0  0  0  0  0  0  0  0  0  0  0
   58.0700   31.2950   45.3690 C   0  0  0  0  0  0  0  0  0  0  0  0
   57.6820   29.9140   45.5160 N   0  0  0  0  0  0  0  0  0  0  0  0
   58.5610   29.0330   46.0790 C   0  0  0  0  0  0  0  0  0  0  0  0
   58.2140   27.6930   46.2440 C   0  0  0  0  0  0  0  0  0  0  0  0
   59.4570   26.4750   47.0440 Br  0  0  0  0  0  0  0  0  0  0  0  0
   56.9540   27.2730   45.8180 C   0  0  0  0  0  0  0  0  0  0  0  0
   56.6060   26.0700   45.9520 O   0  0  0  0  0  0  0  0  0  0  0  0
   56.1000   28.1680   45.2550 N   0  0  0  0  0  0  0  0  0  0  0  0
   56.4510   29.4740   45.0970 C   0  0  0  0  0  0  0  0  0  0  0  0
   55.6390   30.2690   44.5480 O   0  0  0  0  0  0  0  0  0  0  0  0
   58.3570   32.0740   46.5010 C   0  0  0  0  0  0  0  0  0  0  0  0
   58.7240   33.4150   46.3610 C   0  0  0  0  0  0  0  0  0  0  0  0
   59.6439   35.7495   46.9831 H   0  0  0  0  0  0  0  0  0  0  0  0
   61.0288   35.7477   45.8392 H   0  0  0  0  0  0  0  0  0  0  0  0
   59.8658   37.1166   45.8392 H   0  0  0  0  0  0  0  0  0  0  0  0
   58.5669   33.6753   42.9551 H   0  0  0  0  0  0  0  0  0  0  0  0
   57.9107   31.2840   43.2041 H   0  0  0  0  0  0  0  0  0  0  0  0
   59.5512   29.3839   46.4050 H   0  0  0  0  0  0  0  0  0  0  0  0
   55.1590   27.8460   44.9320 H   0  0  0  0  0  0  0  0  0  0  0  0
   58.2926   31.6263   47.5037 H   0  0  0  0  0  0  0  0  0  0  0  0
   58.9521   34.0138   47.2551 H   0  0  0  0  0  0  0  0  0  0  0  0
  1  2  1  0
  2  3  1  0
  3  4  2  0
  4  5  1  0
  5  6  2  0
  6  7  1  0
  7  8  1  0
  8  9  2  0
  9 10  1  0
  9 11  1  0
 11 12  2  0
 11 13  1  0
 13 14  1  0
 14 15  2  0
  6 16  1  0
 16 17  2  0
 17  3  1  0
 14  7  1  0
  1 18  1  0
  1 19  1  0
  1 20  1  0
  4 21  1  0
  5 22  1  0
  8 23  1  0
 13 24  1  0
 16 25  1  0
 17 26  1  0
M  END
>  <UniqueID>  (83) 
77

>  <SMILES>  (83) 
COc1ccc(-n2cc(Br)c(=O)[nH]c2=O)cc1

>  <Energy>  (83) 
35.3361277402711

>  <Genealogy>  (83) 
COc1ccc(-n2cc(Br)c(=O)[nH]c2=O)cc1 (3D coordinates assigned)
COc1ccc(-n2cc(Br)c(=O)[nH]c2=O)cc1 (optimized conformer: 35.3361277402711 kcal/mol)

>  <smiles>  (83) 
COc1ccc(-n2cc(Br)c(=O)[nH]c2=O)cc1

>  <score_type>  (83) 
oracle

>  <origin>  (83) 
adg

>  <m_score__min__energy>  (83) 
-6.2599999999999998

>  <m_primary>  (83) 
energy

$$$$
83:0
     RDKit          3D

 46 48  0  0  0  0  0  0  0  0999 V2000
   54.6980   25.9640   45.9460 O   0  0  0  0  0  0  0  0  0  0  0  0
   55.8440   25.5250   45.6590 C   0  0  0  0  0  0  0  0  0  0  0  0
   55.9840   24.4710   44.5930 C   0  0  0  0  0  0  0  0  0  0  0  0
   56.2320   23.0960   45.2210 C   0  0  0  0  0  0  0  0  0  0  0  0
   57.6210   22.6960   45.0230 N   0  0  0  0  0  0  0  0  0  0  0  0
   58.6880   23.1020   45.7270 C   0  0  0  0  0  0  0  0  0  0  0  0
   59.8250   22.5780   45.2300 N   0  0  0  0  0  0  0  0  0  0  0  0
   59.3770   21.8440   44.1850 C   0  0  0  0  0  0  0  0  0  0  0  0
   58.0380   21.9140   44.0430 N   0  0  0  0  0  0  0  0  0  0  0  0
   56.9910   26.1060   46.2950 N   0  0  0  0  0  0  0  0  0  0  0  0
   57.7430   27.1870   45.7350 C   0  0  0  0  0  0  0  0  0  0  0  0
   59.1400   27.0990   45.6640 C   0  0  0  0  0  0  0  0  0  0  0  0
   59.8810   28.1300   45.0860 C   0  0  0  0  0  0  0  0  0  0  0  0
   59.2320   29.2500   44.5650 C   0  0  0  0  0  0  0  0  0  0  0  0
   57.8350   29.3540   44.6260 C   0  0  0  0  0  0  0  0  0  0  0  0
   57.0520   30.7600   43.8960 S   0  0  0  0  0  0  0  0  0  0  0  0
   57.7180   31.1170   42.5960 O   0  0  0  0  0  0  0  0  0  0  0  0
   55.6080   30.4280   43.6390 O   0  0  0  0  0  0  0  0  0  0  0  0
   57.1650   32.1210   44.9860 N   0  0  0  0  0  0  0  0  0  0  0  0
   57.8930   31.7520   46.2290 C   0  0  0  0  0  0  0  0  0  0  0  0
   59.3370   32.2730   46.2560 C   0  0  0  0  0  0  0  0  0  0  0  0
   59.3760   33.8030   46.1220 C   0  0  0  0  0  0  0  0  0  0  0  0
   58.2310   34.3530   45.2510 C   0  0  0  0  0  0  0  0  0  0  0  0
   57.7190   33.2920   44.2720 C   0  0  0  0  0  0  0  0  0  0  0  0
   57.0860   28.3310   45.2420 C   0  0  0  0  0  0  0  0  0  0  0  0
   55.6980   28.4510   45.3440 O   0  0  0  0  0  0  0  0  0  0  0  0
   55.0599   24.4347   43.9974 H   0  0  0  0  0  0  0  0  0  0  0  0
   56.8408   24.7272   43.9525 H   0  0  0  0  0  0  0  0  0  0  0  0
   56.0178   23.1446   46.2988 H   0  0  0  0  0  0  0  0  0  0  0  0
   55.5733   22.3574   44.7407 H   0  0  0  0  0  0  0  0  0  0  0  0
   58.6408   23.7746   46.5961 H   0  0  0  0  0  0  0  0  0  0  0  0
   60.0320   21.2560   43.5252 H   0  0  0  0  0  0  0  0  0  0  0  0
   59.6542   26.2134   46.0657 H   0  0  0  0  0  0  0  0  0  0  0  0
   60.9778   28.0600   45.0409 H   0  0  0  0  0  0  0  0  0  0  0  0
   59.8202   30.0567   44.1033 H   0  0  0  0  0  0  0  0  0  0  0  0
   57.3525   32.1727   47.0897 H   0  0  0  0  0  0  0  0  0  0  0  0
   57.9388   30.6537   46.2696 H   0  0  0  0  0  0  0  0  0  0  0  0
   59.8054   31.9838   47.2083 H   0  0  0  0  0  0  0  0  0  0  0  0
   59.8825   31.8341   45.4076 H   0  0  0  0  0  0  0  0  0  0  0  0
   59.2986   34.2462   47.1258 H   0  0  0  0  0  0  0  0  0  0  0  0
   60.3239   34.0694   45.6315 H   0  0  0  0  0  0  0  0  0  0  0  0
   57.4034   34.6677   45.9037 H   0  0  0  0  0  0  0  0  0  0  0  0
   58.6141   35.2054   44.6708 H   0  0  0  0  0  0  0  0  0  0  0  0
   56.9310   33.7344   43.6448 H   0  0  0  0  0  0  0  0  0  0  0  0
   58.5646   32.9532   43.6555 H   0  0  0  0  0  0  0  0  0  0  0  0
   55.1460   27.8830   45.9750 H   0  0  0  0  0  0  0  0  0  0  0  0
  1  2  2  0
  2  3  1  0
  3  4  1  0
  4  5  1  0
  5  6  1  0
  6  7  2  0
  7  8  1  0
  8  9  2  0
  2 10  1  0
 10 11  1  0
 11 12  2  0
 12 13  1  0
 13 14  2  0
 14 15  1  0
 15 16  1  0
 16 17  2  0
 16 18  2  0
 16 19  1  0
 19 20  1  0
 20 21  1  0
 21 22  1  0
 22 23  1  0
 23 24  1  0
 15 25  2  0
 25 26  1  0
  9  5  1  0
 25 11  1  0
 24 19  1  0
  3 27  1  0
  3 28  1  0
  4 29  1  0
  4 30  1  0
  6 31  1  0
  8 32  1  0
 12 33  1  0
 13 34  1  0
 14 35  1  0
 20 36  1  0
 20 37  1  0
 21 38  1  0
 21 39  1  0
 22 40  1  0
 22 41  1  0
 23 42  1  0
 23 43  1  0
 24 44  1  0
 24 45  1  0
 26 46  1  0
M  CHG  1  10  -1
M  END
>  <UniqueID>  (84) 
78

>  <SMILES>  (84) 
O=C(CCn1cncn1)[N-]c1cccc(S(=O)(=O)N2CCCCC2)c1O

>  <Energy>  (84) 
87.47612750228774

>  <Genealogy>  (84) 
O=C(CCn1cncn1)[N-]c1cccc(S(=O)(=O)N2CCCCC2)c1O (protonated)
O=C(CCn1cncn1)[N-]c1cccc(S(=O)(=O)N2CCCCC2)c1O (3D coordinates assigned)
O=C(CCn1cncn1)[N-]c1cccc(S(=O)(=O)N2CCCCC2)c1O (nonaromatic ring conformer: 87.47612750228774 kcal/mol)

>  <smiles>  (84) 
O=C(CCn1cncn1)Nc1cccc(S(=O)(=O)N2CCCCC2)c1O

>  <score_type>  (84) 
oracle

>  <origin>  (84) 
adg

>  <m_score__min__energy>  (84) 
-12.199999999999999

>  <m_primary>  (84) 
energy

$$$$
84:0
     RDKit          3D

 40 42  0  0  0  0  0  0  0  0999 V2000
   58.1246   35.4898   46.3695 H   0  0  0  0  0  0  0  0  0  0  0  0
   58.2470   34.4340   46.0860 C   0  0  0  0  0  0  0  0  0  0  0  0
   57.7010   33.9770   44.9180 N   0  0  0  0  0  0  0  0  0  0  0  0
   57.8560   32.6720   44.5840 C   0  0  0  0  0  0  0  0  0  0  0  0
   58.5440   31.7950   45.3740 C   0  0  0  0  0  0  0  0  0  0  0  0
   59.1230   32.2090   46.5700 C   0  0  0  0  0  0  0  0  0  0  0  0
   59.6807   31.5076   47.2080 H   0  0  0  0  0  0  0  0  0  0  0  0
   58.9670   33.5600   46.9310 C   0  0  0  0  0  0  0  0  0  0  0  0
   59.6670   34.1570   48.4250 Cl  0  0  0  0  0  0  0  0  0  0  0  0
   58.5160   30.5750   44.7280 C   0  0  0  0  0  0  0  0  0  0  0  0
   59.2040   29.3070   45.1340 C   0  0  0  0  0  0  0  0  0  0  0  0
   59.8122   29.4943   46.0313 H   0  0  0  0  0  0  0  0  0  0  0  0
   59.8480   28.9670   44.3096 H   0  0  0  0  0  0  0  0  0  0  0  0
   58.1870   28.2410   45.4360 C   0  0  0  0  0  0  0  0  0  0  0  0
   56.8160   28.5000   45.3100 C   0  0  0  0  0  0  0  0  0  0  0  0
   56.4744   29.4843   44.9572 H   0  0  0  0  0  0  0  0  0  0  0  0
   55.9070   27.5400   45.6220 N   0  0  0  0  0  0  0  0  0  0  0  0
   56.2700   26.3080   46.0730 C   0  0  0  0  0  0  0  0  0  0  0  0
   55.3310   25.4480   46.3500 N   0  0  0  0  0  0  0  0  0  0  0  0
   55.1400   24.1200   45.7630 C   0  0  0  0  0  0  0  0  0  0  0  0
   54.0634   23.9022   45.7045 H   0  0  0  0  0  0  0  0  0  0  0  0
   55.6451   23.3764   46.3970 H   0  0  0  0  0  0  0  0  0  0  0  0
   55.7420   24.0600   44.3580 C   0  0  0  0  0  0  0  0  0  0  0  0
   56.6202   24.7209   44.3137 H   0  0  0  0  0  0  0  0  0  0  0  0
   54.9800   24.3854   43.6345 H   0  0  0  0  0  0  0  0  0  0  0  0
   56.2420   22.3950   43.9510 S   0  0  0  0  0  0  0  0  0  0  0  0
   55.9180   22.1030   42.5140 O   0  0  0  0  0  0  0  0  0  0  0  0
   55.5210   21.4160   44.8350 O   0  0  0  0  0  0  0  0  0  0  0  0
   57.9950   22.2310   44.2020 C   0  0  0  0  0  0  0  0  0  0  0  0
   58.2107   22.2108   45.2805 H   0  0  0  0  0  0  0  0  0  0  0  0
   58.3456   21.2961   43.7404 H   0  0  0  0  0  0  0  0  0  0  0  0
   58.5129   23.0846   43.7404 H   0  0  0  0  0  0  0  0  0  0  0  0
   57.6410   26.0120   46.2190 C   0  0  0  0  0  0  0  0  0  0  0  0
   57.9590   25.0222   46.5783 H   0  0  0  0  0  0  0  0  0  0  0  0
   58.5920   26.9850   45.9040 C   0  0  0  0  0  0  0  0  0  0  0  0
   59.6629   26.7639   46.0240 H   0  0  0  0  0  0  0  0  0  0  0  0
   57.8090   30.7930   43.5460 C   0  0  0  0  0  0  0  0  0  0  0  0
   57.6113   30.0257   42.7830 H   0  0  0  0  0  0  0  0  0  0  0  0
   57.4000   32.0810   43.4690 N   0  0  0  0  0  0  0  0  0  0  0  0
   56.8590   32.5250   42.6940 H   0  0  0  0  0  0  0  0  0  0  0  0
  1  2  1  0
  2  3  2  0
  3  4  1  0
  4  5  2  0
  5  6  1  0
  6  7  1  0
  6  8  2  0
  8  9  1  0
  5 10  1  0
 10 11  1  0
 11 12  1  0
 11 13  1  0
 11 14  1  0
 14 15  2  0
 15 16  1  0
 15 17  1  0
 17 18  1  0
 18 19  2  0
 19 20  1  0
 20 21  1  0
 20 22  1  0
 20 23  1  0
 23 24  1  0
 23 25  1  0
 23 26  1  0
 26 27  2  0
 26 28  2  0
 26 29  1  0
 29 30  1  0
 29 31  1  0
 29 32  1  0
 18 33  1  0
 33 34  1  0
 33 35  2  0
 35 36  1  0
 10 37  2  0
 37 38  1  0
 37 39  1  0
 39 40  1  0
  8  2  1  0
 35 14  1  0
 39  4  1  0
M  CHG  1  17  -1
M  END
>  <UniqueID>  (85) 
79

>  <SMILES>  (85) 
CS(=O)(=O)CC/N=c1\ccc(Cc2c[nH]c3ncc(Cl)cc23)c[n-]1

>  <Energy>  (85) 
68.34105957658122

>  <Genealogy>  (85) 
CS(=O)(=O)CCN=c1ccc(Cc2c[nH]c3ncc(Cl)cc23)c[n-]1 (protonated)
CS(=O)(=O)CC/N=c1\ccc(Cc2c[nH]c3ncc(Cl)cc23)c[n-]1 (cis-trans isomerization)
CS(=O)(=O)CC/N=c1\ccc(Cc2c[nH]c3ncc(Cl)cc23)c[n-]1 (3D coordinates assigned)
CS(=O)(=O)CC/N=c1\ccc(Cc2c[nH]c3ncc(Cl)cc23)c[n-]1 (optimized conformer: 68.34105957658122 kcal/mol)

>  <smiles>  (85) 
CS(=O)(=O)CCN=c1ccc(Cc2c[nH]c3ncc(Cl)cc23)c[nH]1

>  <score_type>  (85) 
oracle

>  <origin>  (85) 
adg

>  <m_score__min__energy>  (85) 
-10.69

>  <m_primary>  (85) 
energy

$$$$
85:0
     RDKit          3D

 45 47  0  0  0  0  0  0  0  0999 V2000
   54.1410   24.1280   45.0530 C   0  0  0  0  0  0  0  0  0  0  0  0
   55.1540   25.0130   45.6940 C   0  0  0  0  0  0  0  0  0  0  0  0
   56.3120   24.6020   46.3180 C   0  0  0  0  0  0  0  0  0  0  0  0
   56.8790   25.7970   46.7260 C   0  0  0  0  0  0  0  0  0  0  0  0
   58.0010   25.9470   47.3640 N   0  0  0  0  0  0  0  0  0  0  0  0
   59.4020   26.7340   46.7080 S   0  0  0  0  0  0  0  0  0  0  0  0
   59.2880   26.7680   45.2090 O   0  0  0  0  0  0  0  0  0  0  0  0
   60.6280   25.9550   47.0890 O   0  0  0  0  0  0  0  0  0  0  0  0
   59.5400   28.3660   47.3550 C   0  0  0  0  0  0  0  0  0  0  0  0
   60.7630   29.0440   47.2900 C   0  0  0  0  0  0  0  0  0  0  0  0
   60.8820   30.3350   47.8100 C   0  0  0  0  0  0  0  0  0  0  0  0
   59.7730   30.9710   48.3960 C   0  0  0  0  0  0  0  0  0  0  0  0
   59.8830   32.3160   48.9090 N   0  0  0  0  0  0  0  0  0  0  0  0
   60.5330   33.1630   47.9390 C   0  0  0  0  0  0  0  0  0  0  0  0
   61.8930   33.9800   48.3630 S   0  0  0  0  0  0  0  0  0  0  0  0
   59.8840   33.5140   46.7040 N   0  0  0  0  0  0  0  0  0  0  0  0
   58.9290   32.6770   46.0370 C   0  0  0  0  0  0  0  0  0  0  0  0
   59.2940   31.4180   45.5400 C   0  0  0  0  0  0  0  0  0  0  0  0
   58.3540   30.6160   44.8880 C   0  0  0  0  0  0  0  0  0  0  0  0
   57.0330   31.0680   44.7080 C   0  0  0  0  0  0  0  0  0  0  0  0
   56.0320   30.2180   44.0220 C   0  0  0  0  0  0  0  0  0  0  0  0
   55.1960   29.3350   44.7690 N   0  0  0  0  0  0  0  0  0  0  0  0
   55.9080   30.2670   42.7680 O   0  0  0  0  0  0  0  0  0  0  0  0
   56.6810   32.3440   45.1830 C   0  0  0  0  0  0  0  0  0  0  0  0
   57.6250   33.1440   45.8330 C   0  0  0  0  0  0  0  0  0  0  0  0
   58.5460   30.2860   48.4550 C   0  0  0  0  0  0  0  0  0  0  0  0
   58.4310   28.9940   47.9380 C   0  0  0  0  0  0  0  0  0  0  0  0
   56.1020   26.8330   46.3640 N   0  0  0  0  0  0  0  0  0  0  0  0
   55.0750   26.3250   45.7460 O   0  0  0  0  0  0  0  0  0  0  0  0
   53.5557   23.6167   45.8315 H   0  0  0  0  0  0  0  0  0  0  0  0
   53.4688   24.7334   44.4272 H   0  0  0  0  0  0  0  0  0  0  0  0
   54.6506   23.3806   44.4272 H   0  0  0  0  0  0  0  0  0  0  0  0
   56.6913   23.5789   46.4572 H   0  0  0  0  0  0  0  0  0  0  0  0
   61.6345   28.5578   46.8272 H   0  0  0  0  0  0  0  0  0  0  0  0
   61.8489   30.8573   47.7608 H   0  0  0  0  0  0  0  0  0  0  0  0
   60.4140   32.3270   49.8070 H   0  0  0  0  0  0  0  0  0  0  0  0
   58.9250   32.6780   49.1260 H   0  0  0  0  0  0  0  0  0  0  0  0
   60.0640   34.4620   46.3030 H   0  0  0  0  0  0  0  0  0  0  0  0
   60.3265   31.0595   45.6641 H   0  0  0  0  0  0  0  0  0  0  0  0
   58.6481   29.6247   44.5128 H   0  0  0  0  0  0  0  0  0  0  0  0
   55.4920   28.3540   44.9670 H   0  0  0  0  0  0  0  0  0  0  0  0
   55.6552   32.7152   45.0420 H   0  0  0  0  0  0  0  0  0  0  0  0
   57.3417   34.1464   46.1864 H   0  0  0  0  0  0  0  0  0  0  0  0
   57.6709   30.7715   48.9116 H   0  0  0  0  0  0  0  0  0  0  0  0
   57.4666   28.4673   47.9885 H   0  0  0  0  0  0  0  0  0  0  0  0
  1  2  1  0
  2  3  2  0
  3  4  1  0
  4  5  2  3
  5  6  1  0
  6  7  2  0
  6  8  2  0
  6  9  1  0
  9 10  2  0
 10 11  1  0
 11 12  2  0
 12 13  1  0
 13 14  1  0
 14 15  2  0
 14 16  1  0
 16 17  1  0
 17 18  2  0
 18 19  1  0
 19 20  2  0
 20 21  1  0
 21 22  1  0
 21 23  2  0
 20 24  1  0
 24 25  2  0
 12 26  1  0
 26 27  2  0
  4 28  1  0
 28 29  1  0
 29  2  1  0
 27  9  1  0
 25 17  1  0
  1 30  1  0
  1 31  1  0
  1 32  1  0
  3 33  1  0
 10 34  1  0
 11 35  1  0
 13 36  1  0
 13 37  1  0
 16 38  1  0
 18 39  1  0
 19 40  1  0
 22 41  1  0
 24 42  1  0
 25 43  1  0
 26 44  1  0
 27 45  1  0
M  CHG  3  13   1  22  -1  28  -1
M  END
>  <UniqueID>  (86) 
80

>  <SMILES>  (86) 
Cc1cc(=NS(=O)(=O)c2ccc([NH2+]C(=S)Nc3ccc(C([NH-])=O)cc3)cc2)[n-]o1

>  <Energy>  (86) 
85.71913460438276

>  <Genealogy>  (86) 
Cc1cc(=NS(=O)(=O)c2ccc([NH2+]C(=S)Nc3ccc(C([NH-])=O)cc3)cc2)[n-]o1 (protonated)
Cc1cc(=NS(=O)(=O)c2ccc([NH2+]C(=S)Nc3ccc(C([NH-])=O)cc3)cc2)[n-]o1 (3D coordinates assigned)
Cc1cc(=NS(=O)(=O)c2ccc([NH2+]C(=S)Nc3ccc(C([NH-])=O)cc3)cc2)[n-]o1 (optimized conformer: 85.71913460438276 kcal/mol)

>  <smiles>  (86) 
Cc1cc(=NS(=O)(=O)c2ccc(NC(=S)Nc3ccc(C(N)=O)cc3)cc2)[nH]o1

>  <score_type>  (86) 
oracle

>  <origin>  (86) 
adg

>  <m_score__min__energy>  (86) 
-12.09

>  <m_primary>  (86) 
energy

$$$$
86:0
     RDKit          3D

 37 38  0  0  0  0  0  0  0  0999 V2000
   60.3940   27.6380   49.2670 C   0  0  0  0  0  0  0  0  0  0  0  0
   59.8360   28.8270   49.8160 O   0  0  0  0  0  0  0  0  0  0  0  0
   59.4080   29.9270   49.0570 C   0  0  0  0  0  0  0  0  0  0  0  0
   59.1200   31.1190   49.7260 C   0  0  0  0  0  0  0  0  0  0  0  0
   58.6760   32.2400   49.0230 C   0  0  0  0  0  0  0  0  0  0  0  0
   58.5060   32.1840   47.6320 C   0  0  0  0  0  0  0  0  0  0  0  0
   58.0680   33.2820   46.9510 N   0  0  0  0  0  0  0  0  0  0  0  0
   57.9000   33.2690   45.5990 C   0  0  0  0  0  0  0  0  0  0  0  0
   57.3900   34.4900   44.8950 C   0  0  0  0  0  0  0  0  0  0  0  0
   58.1430   32.0930   44.8800 C   0  0  0  0  0  0  0  0  0  0  0  0
   58.5820   30.9440   45.5410 C   0  0  0  0  0  0  0  0  0  0  0  0
   58.8720   29.4590   44.5570 S   0  0  0  0  0  0  0  0  0  0  0  0
   57.3270   29.5940   43.5900 C   0  0  0  0  0  0  0  0  0  0  0  0
   56.1480   29.7300   44.4970 C   0  0  0  0  0  0  0  0  0  0  0  0
   55.5300   30.8270   44.5600 O   0  0  0  0  0  0  0  0  0  0  0  0
   55.6930   28.5970   45.2450 N   0  0  0  0  0  0  0  0  0  0  0  0
   56.5560   27.4860   45.6290 C   0  0  0  0  0  0  0  0  0  0  0  0
   55.7390   26.3660   46.1880 C   0  0  0  0  0  0  0  0  0  0  0  0
   54.4960   26.3270   45.9930 O   0  0  0  0  0  0  0  0  0  0  0  0
   56.3480   25.3790   46.9530 O   0  0  0  0  0  0  0  0  0  0  0  0
   58.7890   30.9820   46.9370 C   0  0  0  0  0  0  0  0  0  0  0  0
   59.2550   29.8650   47.6590 C   0  0  0  0  0  0  0  0  0  0  0  0
   60.7076   26.9697   50.0825 H   0  0  0  0  0  0  0  0  0  0  0  0
   59.6397   27.1312   48.6472 H   0  0  0  0  0  0  0  0  0  0  0  0
   61.2658   27.8944   48.6472 H   0  0  0  0  0  0  0  0  0  0  0  0
   59.2444   31.1747   50.8175 H   0  0  0  0  0  0  0  0  0  0  0  0
   58.4581   33.1731   49.5632 H   0  0  0  0  0  0  0  0  0  0  0  0
   57.8580   34.1620   47.4760 H   0  0  0  0  0  0  0  0  0  0  0  0
   57.0775   35.2382   45.6384 H   0  0  0  0  0  0  0  0  0  0  0  0
   58.1879   34.9101   44.2650 H   0  0  0  0  0  0  0  0  0  0  0  0
   56.5304   34.2178   44.2650 H   0  0  0  0  0  0  0  0  0  0  0  0
   57.9877   32.0738   43.7912 H   0  0  0  0  0  0  0  0  0  0  0  0
   57.3850   30.4779   42.9378 H   0  0  0  0  0  0  0  0  0  0  0  0
   57.2062   28.6824   42.9864 H   0  0  0  0  0  0  0  0  0  0  0  0
   57.1042   27.1294   44.7445 H   0  0  0  0  0  0  0  0  0  0  0  0
   57.2644   27.8309   46.3966 H   0  0  0  0  0  0  0  0  0  0  0  0
   59.5016   28.9355   47.1249 H   0  0  0  0  0  0  0  0  0  0  0  0
  1  2  1  0
  2  3  1  0
  3  4  2  0
  4  5  1  0
  5  6  2  0
  6  7  1  0
  7  8  2  0
  8  9  1  0
  8 10  1  0
 10 11  2  0
 11 12  1  0
 12 13  1  0
 13 14  1  0
 14 15  2  0
 14 16  1  0
 16 17  1  0
 17 18  1  0
 18 19  2  0
 18 20  1  0
 11 21  1  0
 21 22  2  0
 22  3  1  0
 21  6  1  0
  1 23  1  0
  1 24  1  0
  1 25  1  0
  4 26  1  0
  5 27  1  0
  7 28  1  0
  9 29  1  0
  9 30  1  0
  9 31  1  0
 10 32  1  0
 13 33  1  0
 13 34  1  0
 17 35  1  0
 17 36  1  0
 22 37  1  0
M  CHG  3   7   1  16  -1  20  -1
M  END
>  <UniqueID>  (87) 
81

>  <SMILES>  (87) 
COc1ccc2[nH+]c(C)cc(SCC(=O)[N-]CC(=O)[O-])c2c1

>  <Energy>  (87) 
30.079871202235427

>  <Genealogy>  (87) 
COc1ccc2[nH+]c(C)cc(SCC(=O)[N-]CC(=O)[O-])c2c1 (protonated)
COc1ccc2[nH+]c(C)cc(SCC(=O)[N-]CC(=O)[O-])c2c1 (3D coordinates assigned)
COc1ccc2[nH+]c(C)cc(SCC(=O)[N-]CC(=O)[O-])c2c1 (optimized conformer: 30.079871202235427 kcal/mol)

>  <smiles>  (87) 
COc1ccc2nc(C)cc(SCC(=O)NCC(=O)O)c2c1

>  <score_type>  (87) 
oracle

>  <origin>  (87) 
adg

>  <m_score__min__energy>  (87) 
-11.08

>  <m_primary>  (87) 
energy

$$$$
87:0
     RDKit          3D

 39 41  0  0  0  0  0  0  0  0999 V2000
   58.7948   31.3535   43.8005 H   0  0  0  0  0  0  0  0  0  0  0  0
   58.6190   30.3470   44.2080 C   0  0  0  0  0  0  0  0  0  0  0  0
   58.3653   29.5167   43.5325 H   0  0  0  0  0  0  0  0  0  0  0  0
   58.7140   30.1320   45.5290 C   0  0  0  0  0  0  0  0  0  0  0  0
   58.5230   28.9200   46.2120 C   0  0  0  0  0  0  0  0  0  0  0  0
   58.4040   27.6580   45.7580 C   0  0  0  0  0  0  0  0  0  0  0  0
   59.2835   27.2147   45.2682 H   0  0  0  0  0  0  0  0  0  0  0  0
   57.1980   26.8210   45.8610 C   0  0  0  0  0  0  0  0  0  0  0  0
   57.1760   25.5660   46.3480 N   0  0  0  0  0  0  0  0  0  0  0  0
   55.8590   25.2690   46.3800 C   0  0  0  0  0  0  0  0  0  0  0  0
   55.4250   24.1540   46.7700 O   0  0  0  0  0  0  0  0  0  0  0  0
   55.0420   26.2640   45.9730 N   0  0  0  0  0  0  0  0  0  0  0  0
   55.9070   27.2430   45.6620 C   0  0  0  0  0  0  0  0  0  0  0  0
   55.5230   28.4990   45.2110 O   0  0  0  0  0  0  0  0  0  0  0  0
   58.5050   29.2350   47.5630 C   0  0  0  0  0  0  0  0  0  0  0  0
   58.3333   28.5381   48.3966 H   0  0  0  0  0  0  0  0  0  0  0  0
   58.7440   30.5910   47.6600 C   0  0  0  0  0  0  0  0  0  0  0  0
   58.8710   31.3520   48.9430 C   0  0  0  0  0  0  0  0  0  0  0  0
   58.7558   30.6617   49.7917 H   0  0  0  0  0  0  0  0  0  0  0  0
   59.8611   31.8289   48.9900 H   0  0  0  0  0  0  0  0  0  0  0  0
   58.0894   32.1245   48.9900 H   0  0  0  0  0  0  0  0  0  0  0  0
   58.8910   31.1290   46.4310 N   0  0  0  0  0  0  0  0  0  0  0  0
   59.1020   32.5240   46.1540 C   0  0  0  0  0  0  0  0  0  0  0  0
   58.0620   33.2560   45.5640 C   0  0  0  0  0  0  0  0  0  0  0  0
   57.1246   32.7494   45.2906 H   0  0  0  0  0  0  0  0  0  0  0  0
   58.2070   34.6220   45.3210 C   0  0  0  0  0  0  0  0  0  0  0  0
   57.3873   35.1876   44.8538 H   0  0  0  0  0  0  0  0  0  0  0  0
   59.3900   35.2700   45.6700 C   0  0  0  0  0  0  0  0  0  0  0  0
   59.5007   36.3482   45.4823 H   0  0  0  0  0  0  0  0  0  0  0  0
   60.4350   34.5550   46.2570 C   0  0  0  0  0  0  0  0  0  0  0  0
   61.3644   35.0765   46.5294 H   0  0  0  0  0  0  0  0  0  0  0  0
   60.3140   33.1730   46.5050 C   0  0  0  0  0  0  0  0  0  0  0  0
   61.4560   32.4420   47.1120 C   0  0  0  0  0  0  0  0  0  0  0  0
   61.5820   31.2010   46.9160 O   0  0  0  0  0  0  0  0  0  0  0  0
   62.3830   33.1130   47.9150 O   0  0  0  0  0  0  0  0  0  0  0  0
   63.7840   33.0720   47.6780 C   0  0  0  0  0  0  0  0  0  0  0  0
   64.3182   33.0564   48.6394 H   0  0  0  0  0  0  0  0  0  0  0  0
   64.0327   32.1662   47.1056 H   0  0  0  0  0  0  0  0  0  0  0  0
   64.0852   33.9617   47.1056 H   0  0  0  0  0  0  0  0  0  0  0  0
  1  2  1  0
  2  3  1  0
  2  4  2  0
  4  5  1  0
  5  6  2  0
  6  7  1  0
  6  8  1  0
  8  9  1  0
  9 10  1  0
 10 11  2  0
 10 12  1  0
 12 13  1  0
 13 14  1  0
  5 15  1  0
 15 16  1  0
 15 17  2  0
 17 18  1  0
 18 19  1  0
 18 20  1  0
 18 21  1  0
 17 22  1  0
 22 23  1  0
 23 24  2  0
 24 25  1  0
 24 26  1  0
 26 27  1  0
 26 28  2  0
 28 29  1  0
 28 30  1  0
 30 31  1  0
 30 32  2  0
 32 33  1  0
 33 34  2  0
 33 35  1  0
 35 36  1  0
 36 37  1  0
 36 38  1  0
 36 39  1  0
 22  4  1  0
 32 23  1  0
 13  8  2  0
M  CHG  3   9  -1  12  -1  14  -1
M  END
>  <UniqueID>  (88) 
82

>  <SMILES>  (88) 
C=c1/c(=C\c2[n-]c(=O)[n-]c2[O-])cc(C)n1-c1ccccc1C(=O)OC

>  <Energy>  (88) 
115.69060343274087

>  <Genealogy>  (88) 
C=c1c(=Cc2[n-]c(=O)[n-]c2[O-])cc(C)n1-c1ccccc1C(=O)OC (protonated)
C=c1/c(=C\c2[n-]c(=O)[n-]c2[O-])cc(C)n1-c1ccccc1C(=O)OC (cis-trans isomerization)
C=c1/c(=C\c2[n-]c(=O)[n-]c2[O-])cc(C)n1-c1ccccc1C(=O)OC (3D coordinates assigned)
C=c1/c(=C\c2[n-]c(=O)[n-]c2[O-])cc(C)n1-c1ccccc1C(=O)OC (optimized conformer: 115.69060343274087 kcal/mol)

>  <smiles>  (88) 
C=c1c(=Cc2[nH]c(=O)[nH]c2O)cc(C)n1-c1ccccc1C(=O)OC

>  <score_type>  (88) 
oracle

>  <origin>  (88) 
adg

>  <m_score__min__energy>  (88) 
-15.26

>  <m_primary>  (88) 
energy

$$$$
88:0
     RDKit          3D

 59 62  0  0  0  0  0  0  0  0999 V2000
   56.5250   22.3320   41.4410 H   0  0  0  0  0  0  0  0  0  0  0  0
   58.8730   34.4970   47.5860 N   0  0  0  0  0  0  0  0  0  0  0  0
   58.5120   33.8640   46.5100 C   0  0  0  0  0  0  0  0  0  0  0  0
   58.3970   34.4430   45.2940 N   0  0  0  0  0  0  0  0  0  0  0  0
   55.0800   23.5270   45.2070 C   0  0  0  0  0  0  0  0  0  0  0  0
   53.7660   24.0590   45.6950 C   0  0  0  0  0  0  0  0  0  0  0  0
   53.7575   24.0624   46.7950 H   0  0  0  0  0  0  0  0  0  0  0  0
   53.6252   25.0850   45.3240 H   0  0  0  0  0  0  0  0  0  0  0  0
   52.9511   23.4199   45.3240 H   0  0  0  0  0  0  0  0  0  0  0  0
   56.2700   23.6600   45.9610 C   0  0  0  0  0  0  0  0  0  0  0  0
   56.2990   24.3700   47.2900 C   0  0  0  0  0  0  0  0  0  0  0  0
   55.2720   24.4887   47.6659 H   0  0  0  0  0  0  0  0  0  0  0  0
   56.8846   23.7802   48.0106 H   0  0  0  0  0  0  0  0  0  0  0  0
   56.9100   25.6810   47.1210 N   0  0  0  0  0  0  0  0  0  0  0  0
   56.3900   26.6850   46.2440 C   0  0  0  0  0  0  0  0  0  0  0  0
   55.1560   26.7140   45.9870 O   0  0  0  0  0  0  0  0  0  0  0  0
   57.3080   27.6670   45.6220 C   0  0  0  0  0  0  0  0  0  0  0  0
   58.6930   27.4320   45.5860 C   0  0  0  0  0  0  0  0  0  0  0  0
   59.0989   26.4907   45.9849 H   0  0  0  0  0  0  0  0  0  0  0  0
   59.5570   28.3880   45.0460 C   0  0  0  0  0  0  0  0  0  0  0  0
   60.6398   28.1960   45.0222 H   0  0  0  0  0  0  0  0  0  0  0  0
   59.0520   29.5870   44.5360 C   0  0  0  0  0  0  0  0  0  0  0  0
   59.7393   30.3411   44.1249 H   0  0  0  0  0  0  0  0  0  0  0  0
   57.6720   29.8310   44.5470 C   0  0  0  0  0  0  0  0  0  0  0  0
   57.1240   31.1490   44.0670 C   0  0  0  0  0  0  0  0  0  0  0  0
   57.3452   31.2694   42.9962 H   0  0  0  0  0  0  0  0  0  0  0  0
   56.0353   31.1706   44.2225 H   0  0  0  0  0  0  0  0  0  0  0  0
   57.7580   32.2650   44.8350 C   0  0  0  0  0  0  0  0  0  0  0  0
   58.1030   32.2350   46.4830 S   0  0  0  0  0  0  0  0  0  0  0  0
   56.2690   22.4060   43.4690 C   0  0  0  0  0  0  0  0  0  0  0  0
   56.2560   21.8240   42.3140 N   0  0  0  0  0  0  0  0  0  0  0  0
   59.8520   34.0260   48.5240 C   0  0  0  0  0  0  0  0  0  0  0  0
   59.5200   33.9140   49.7350 O   0  0  0  0  0  0  0  0  0  0  0  0
   61.2530   33.7390   48.1200 C   0  0  0  0  0  0  0  0  0  0  0  0
   61.6460   33.8870   46.7790 C   0  0  0  0  0  0  0  0  0  0  0  0
   60.9144   34.2195   46.0279 H   0  0  0  0  0  0  0  0  0  0  0  0
   62.9610   33.6140   46.3950 C   0  0  0  0  0  0  0  0  0  0  0  0
   63.2622   33.7389   45.3444 H   0  0  0  0  0  0  0  0  0  0  0  0
   63.8950   33.1830   47.3400 C   0  0  0  0  0  0  0  0  0  0  0  0
   64.9294   32.9731   47.0301 H   0  0  0  0  0  0  0  0  0  0  0  0
   63.5210   33.0160   48.6840 C   0  0  0  0  0  0  0  0  0  0  0  0
   64.5070   32.5770   49.6950 C   0  0  0  0  0  0  0  0  0  0  0  0
   64.2880   31.5440   50.3870 O   0  0  0  0  0  0  0  0  0  0  0  0
   65.6900   33.3010   49.8730 O   0  0  0  0  0  0  0  0  0  0  0  0
   66.8720   32.7210   50.4100 C   0  0  0  0  0  0  0  0  0  0  0  0
   66.8252   32.7440   51.5088 H   0  0  0  0  0  0  0  0  0  0  0  0
   66.9570   31.6789   50.0683 H   0  0  0  0  0  0  0  0  0  0  0  0
   67.7483   33.2915   50.0683 H   0  0  0  0  0  0  0  0  0  0  0  0
   62.1950   33.2850   49.0620 C   0  0  0  0  0  0  0  0  0  0  0  0
   61.8888   33.1388   50.1084 H   0  0  0  0  0  0  0  0  0  0  0  0
   55.1190   22.9050   43.9960 N   0  0  0  0  0  0  0  0  0  0  0  0
   57.9710   33.5560   44.3580 C   0  0  0  0  0  0  0  0  0  0  0  0
   57.8072   33.8351   43.3067 H   0  0  0  0  0  0  0  0  0  0  0  0
   56.8050   28.8680   45.0890 C   0  0  0  0  0  0  0  0  0  0  0  0
   55.7210   29.0548   45.0968 H   0  0  0  0  0  0  0  0  0  0  0  0
   57.4660   23.1610   45.4200 C   0  0  0  0  0  0  0  0  0  0  0  0
   58.4065   23.2673   45.9804 H   0  0  0  0  0  0  0  0  0  0  0  0
   57.4670   22.5310   44.1750 C   0  0  0  0  0  0  0  0  0  0  0  0
   58.4033   22.1364   43.7535 H   0  0  0  0  0  0  0  0  0  0  0  0
  1  2  1  0
  2  3  2  0
  3  4  1  0
  4  5  1  0
  5  6  1  0
  6  7  1  0
  6  8  1  0
  6  9  1  0
  5 10  2  0
 10 11  1  0
 11 12  1  0
 11 13  1  0
 11 14  1  0
 14 15  1  0
 15 16  2  0
 15 17  1  0
 17 18  2  0
 18 19  1  0
 18 20  1  0
 20 21  1  0
 20 22  2  0
 22 23  1  0
 22 24  1  0
 24 25  1  0
 25 26  1  0
 25 27  1  0
 25 28  1  0
 28 29  1  0
 29 30  1  0
 30 31  2  0
 31 32  1  0
 32 33  2  0
 32 34  1  0
 34 35  2  0
 35 36  1  0
 35 37  1  0
 37 38  1  0
 37 39  2  0
 39 40  1  0
 39 41  1  0
 41 42  1  0
 42 43  2  0
 42 44  1  0
 44 45  1  0
 45 46  1  0
 45 47  1  0
 45 48  1  0
 41 49  2  0
 49 50  1  0
 30 51  1  0
 51 52  1  0
 52 53  1  0
 24 54  2  0
 54 55  1  0
 10 56  1  0
 56 57  1  0
 56 58  2  0
 58 59  1  0
 58  3  1  0
 54 17  1  0
 52 28  2  0
 49 34  1  0
M  CHG  3   4  -1  14  -1  51  -1
M  END
>  <UniqueID>  (89) 
83

>  <SMILES>  (89) 
[H]/N=c1/ccc(C[N-]C(=O)c2cccc(Cc3c[n-]/c(=N\C(=O)c4cccc(C(=O)OC)c4)s3)c2)c(C)[n-]1

>  <Energy>  (89) 
90.80951744465936

>  <Genealogy>  (89) 
COC(=O)c1cccc(C(=O)N=c2[n-]cc(Cc3cccc(C(=O)[N-]Cc4ccc(=N)[n-]c4C)c3)s2)c1 (protonated)
[H]/N=c1/ccc(C[N-]C(=O)c2cccc(Cc3c[n-]/c(=N\C(=O)c4cccc(C(=O)OC)c4)s3)c2)c(C)[n-]1 (cis-trans isomerization)
[H]/N=c1/ccc(C[N-]C(=O)c2cccc(Cc3c[n-]/c(=N\C(=O)c4cccc(C(=O)OC)c4)s3)c2)c(C)[n-]1 (3D coordinates assigned)
[H]/N=c1/ccc(C[N-]C(=O)c2cccc(Cc3c[n-]/c(=N\C(=O)c4cccc(C(=O)OC)c4)s3)c2)c(C)[n-]1 (optimized conformer: 90.80951744465936 kcal/mol)

>  <smiles>  (89) 
COC(=O)c1cccc(C(=O)N=c2[nH]cc(Cc3cccc(C(=O)NCc4ccc(=N)[nH]c4C)c3)s2)c1

>  <score_type>  (89) 
oracle

>  <origin>  (89) 
adg

>  <m_score__min__energy>  (89) 
-15.380000000000001

>  <m_primary>  (89) 
energy

$$$$
89:0
     RDKit          3D

 58 62  0  0  0  0  0  0  0  0999 V2000
   57.7923   33.6006   45.5513 H   0  0  0  0  0  0  0  0  0  0  0  0
   58.4640   33.6780   46.4190 C   0  0  0  0  0  0  0  0  0  0  0  0
   59.6250   34.4500   46.3360 C   0  0  0  0  0  0  0  0  0  0  0  0
   59.8642   34.9840   45.4045 H   0  0  0  0  0  0  0  0  0  0  0  0
   60.4840   34.5450   47.4360 C   0  0  0  0  0  0  0  0  0  0  0  0
   61.4015   35.1477   47.3652 H   0  0  0  0  0  0  0  0  0  0  0  0
   60.1780   33.8730   48.6300 C   0  0  0  0  0  0  0  0  0  0  0  0
   61.1240   33.9410   49.8010 C   0  0  0  0  0  0  0  0  0  0  0  0
   61.3255   32.9199   50.1572 H   0  0  0  0  0  0  0  0  0  0  0  0
   60.6529   34.5459   50.5898 H   0  0  0  0  0  0  0  0  0  0  0  0
   62.4520   34.6050   49.4150 C   0  0  0  0  0  0  0  0  0  0  0  0
   62.5134   35.5884   49.9041 H   0  0  0  0  0  0  0  0  0  0  0  0
   62.4779   34.7048   48.3198 H   0  0  0  0  0  0  0  0  0  0  0  0
   63.5760   33.8190   49.8150 O   0  0  0  0  0  0  0  0  0  0  0  0
   63.5180   32.6600   50.6070 C   0  0  0  0  0  0  0  0  0  0  0  0
   62.9730   31.4170   50.2940 C   0  0  0  0  0  0  0  0  0  0  0  0
   62.1250   31.0330   49.1540 C   0  0  0  0  0  0  0  0  0  0  0  0
   62.4470   31.4680   47.8620 C   0  0  0  0  0  0  0  0  0  0  0  0
   63.3571   32.0631   47.6962 H   0  0  0  0  0  0  0  0  0  0  0  0
   61.6180   31.1500   46.7820 C   0  0  0  0  0  0  0  0  0  0  0  0
   61.8820   31.4891   45.7694 H   0  0  0  0  0  0  0  0  0  0  0  0
   60.4510   30.4000   46.9860 C   0  0  0  0  0  0  0  0  0  0  0  0
   59.6050   30.0820   45.9140 C   0  0  0  0  0  0  0  0  0  0  0  0
   59.8510   30.4208   44.8968 H   0  0  0  0  0  0  0  0  0  0  0  0
   58.4360   29.3250   46.1460 C   0  0  0  0  0  0  0  0  0  0  0  0
   57.5960   29.0000   45.2010 N   0  0  0  0  0  0  0  0  0  0  0  0
   56.4690   29.7340   44.6910 C   0  0  0  0  0  0  0  0  0  0  0  0
   55.2940   29.3240   44.8760 O   0  0  0  0  0  0  0  0  0  0  0  0
   56.6600   31.0590   44.0090 C   0  0  0  0  0  0  0  0  0  0  0  0
   55.9144   31.5927   44.6167 H   0  0  0  0  0  0  0  0  0  0  0  0
   58.0600   31.4150   43.5230 C   0  0  0  0  0  0  0  0  0  0  0  0
   58.3865   32.4653   43.5085 H   0  0  0  0  0  0  0  0  0  0  0  0
   59.0796   31.1016   43.7919 H   0  0  0  0  0  0  0  0  0  0  0  0
   57.0130   30.9310   42.5330 C   0  0  0  0  0  0  0  0  0  0  0  0
   56.5824   31.6312   41.8021 H   0  0  0  0  0  0  0  0  0  0  0  0
   56.9620   30.1224   41.7890 H   0  0  0  0  0  0  0  0  0  0  0  0
   58.1430   28.9440   47.4190 N   0  0  0  0  0  0  0  0  0  0  0  0
   58.9410   29.2410   48.4770 C   0  0  0  0  0  0  0  0  0  0  0  0
   58.6617   28.9036   49.4860 H   0  0  0  0  0  0  0  0  0  0  0  0
   60.1160   29.9740   48.2880 C   0  0  0  0  0  0  0  0  0  0  0  0
   60.9510   30.2960   49.3670 C   0  0  0  0  0  0  0  0  0  0  0  0
   60.6847   29.9698   50.3832 H   0  0  0  0  0  0  0  0  0  0  0  0
   63.2630   30.6260   51.3990 C   0  0  0  0  0  0  0  0  0  0  0  0
   62.9060   29.1850   51.5860 C   0  0  0  0  0  0  0  0  0  0  0  0
   62.8497   28.9577   52.6608 H   0  0  0  0  0  0  0  0  0  0  0  0
   61.9311   28.9850   51.1173 H   0  0  0  0  0  0  0  0  0  0  0  0
   63.6747   28.5530   51.1173 H   0  0  0  0  0  0  0  0  0  0  0  0
   63.9380   31.3610   52.3040 N   0  0  0  0  0  0  0  0  0  0  0  0
   64.3020   31.0310   53.2260 H   0  0  0  0  0  0  0  0  0  0  0  0
   64.0680   32.5930   51.8350 N   0  0  0  0  0  0  0  0  0  0  0  0
   64.8060   33.6540   52.5090 C   0  0  0  0  0  0  0  0  0  0  0  0
   64.7178   33.5272   53.5981 H   0  0  0  0  0  0  0  0  0  0  0  0
   65.8659   33.6049   52.2188 H   0  0  0  0  0  0  0  0  0  0  0  0
   64.3912   34.6306   52.2188 H   0  0  0  0  0  0  0  0  0  0  0  0
   59.0080   33.1000   48.7060 C   0  0  0  0  0  0  0  0  0  0  0  0
   58.7620   32.5682   49.6369 H   0  0  0  0  0  0  0  0  0  0  0  0
   58.1550   33.0040   47.6030 C   0  0  0  0  0  0  0  0  0  0  0  0
   57.2397   32.3973   47.6672 H   0  0  0  0  0  0  0  0  0  0  0  0
  1  2  1  0
  2  3  2  0
  3  4  1  0
  3  5  1  0
  5  6  1  0
  5  7  2  0
  7  8  1  0
  8  9  1  0
  8 10  1  0
  8 11  1  0
 11 12  1  0
 11 13  1  0
 11 14  1  0
 14 15  1  0
 15 16  2  0
 16 17  1  0
 17 18  1  0
 18 19  1  0
 18 20  2  0
 20 21  1  0
 20 22  1  0
 22 23  2  0
 23 24  1  0
 23 25  1  0
 25 26  2  0
 26 27  1  0
 27 28  2  0
 27 29  1  0
 29 30  1  0
 29 31  1  0
 31 32  1  0
 31 33  1  0
 31 34  1  0
 34 35  1  0
 34 36  1  0
 25 37  1  0
 37 38  1  0
 38 39  1  0
 38 40  2  0
 40 41  1  0
 41 42  1  0
 16 43  1  0
 43 44  1  0
 44 45  1  0
 44 46  1  0
 44 47  1  0
 43 48  2  0
 48 49  1  0
 48 50  1  0
 50 51  1  0
 51 52  1  0
 51 53  1  0
 51 54  1  0
  7 55  1  0
 55 56  1  0
 55 57  2  0
 57 58  1  0
 57  2  1  0
 50 15  1  0
 41 17  2  0
 40 22  1  0
 34 29  1  0
M  CHG  2  37  -1  48   1
M  END
>  <UniqueID>  (90) 
84

>  <SMILES>  (90) 
Cc1[nH+]n(C)c(OCCc2ccccc2)c1-c1ccc2c/c(=N\C(=O)C3CC3)[n-]cc2c1

>  <Energy>  (90) 
371.5452893815203

>  <Genealogy>  (90) 
Cc1[nH+]n(C)c(OCCc2ccccc2)c1-c1ccc2cc(=NC(=O)C3CC3)[n-]cc2c1 (protonated)
Cc1[nH+]n(C)c(OCCc2ccccc2)c1-c1ccc2c/c(=N\C(=O)C3CC3)[n-]cc2c1 (cis-trans isomerization)
Cc1[nH+]n(C)c(OCCc2ccccc2)c1-c1ccc2c/c(=N\C(=O)C3CC3)[n-]cc2c1 (3D coordinates assigned)
Cc1[nH+]n(C)c(OCCc2ccccc2)c1-c1ccc2c/c(=N\C(=O)C3CC3)[n-]cc2c1 (nonaromatic ring conformer: 371.5452893815203 kcal/mol)

>  <smiles>  (90) 
Cc1nn(C)c(OCCc2ccccc2)c1-c1ccc2cc(=NC(=O)C3CC3)[nH]cc2c1

>  <score_type>  (90) 
oracle

>  <origin>  (90) 
adg

>  <m_score__min__energy>  (90) 
-9.8499999999999996

>  <m_primary>  (90) 
energy

$$$$
90:0
     RDKit          3D

 39 40  0  0  0  0  0  0  0  0999 V2000
   58.1440   29.7730   46.1670 O   0  0  0  0  0  0  0  0  0  0  0  0
   57.7180   28.6250   45.8650 C   0  0  0  0  0  0  0  0  0  0  0  0
   58.4480   27.4130   46.3630 C   0  0  0  0  0  0  0  0  0  0  0  0
   57.4980   26.4240   47.0510 C   0  0  0  0  0  0  0  0  0  0  0  0
   57.0130   25.4030   46.1060 N   0  0  0  0  0  0  0  0  0  0  0  0
   57.8700   24.4130   45.7090 C   0  0  0  0  0  0  0  0  0  0  0  0
   57.4470   23.4180   44.8300 C   0  0  0  0  0  0  0  0  0  0  0  0
   56.1360   23.4530   44.3680 C   0  0  0  0  0  0  0  0  0  0  0  0
   55.7180   22.5710   43.5730 O   0  0  0  0  0  0  0  0  0  0  0  0
   55.3040   24.4430   44.7770 N   0  0  0  0  0  0  0  0  0  0  0  0
   55.7240   25.4100   45.6340 C   0  0  0  0  0  0  0  0  0  0  0  0
   54.9130   26.3080   45.9840 O   0  0  0  0  0  0  0  0  0  0  0  0
   56.5340   28.4770   45.0680 N   0  0  0  0  0  0  0  0  0  0  0  0
   55.7660   29.6210   44.5780 C   0  0  0  0  0  0  0  0  0  0  0  0
   56.3290   30.1490   43.2480 C   0  0  0  0  0  0  0  0  0  0  0  0
   57.7340   30.7620   43.3700 C   0  0  0  0  0  0  0  0  0  0  0  0
   57.7420   32.2880   43.2120 C   0  0  0  0  0  0  0  0  0  0  0  0
   57.8030   32.9550   44.5510 C   0  0  0  0  0  0  0  0  0  0  0  0
   58.5340   34.0750   44.8640 C   0  0  0  0  0  0  0  0  0  0  0  0
   58.2860   34.4110   46.1420 N   0  0  0  0  0  0  0  0  0  0  0  0
   57.4010   33.4820   46.5610 C   0  0  0  0  0  0  0  0  0  0  0  0
   57.0740   32.5780   45.6140 N   0  0  0  0  0  0  0  0  0  0  0  0
   58.9296   26.9112   45.5108 H   0  0  0  0  0  0  0  0  0  0  0  0
   59.1959   27.7407   47.1000 H   0  0  0  0  0  0  0  0  0  0  0  0
   58.0329   25.9261   47.8732 H   0  0  0  0  0  0  0  0  0  0  0  0
   56.6314   26.9833   47.4332 H   0  0  0  0  0  0  0  0  0  0  0  0
   58.9028   24.4025   46.0874 H   0  0  0  0  0  0  0  0  0  0  0  0
   58.1351   22.6223   44.5086 H   0  0  0  0  0  0  0  0  0  0  0  0
   56.2660   27.5220   44.7380 H   0  0  0  0  0  0  0  0  0  0  0  0
   54.7213   29.3118   44.4264 H   0  0  0  0  0  0  0  0  0  0  0  0
   55.8314   30.4262   45.3246 H   0  0  0  0  0  0  0  0  0  0  0  0
   56.3759   29.3130   42.5347 H   0  0  0  0  0  0  0  0  0  0  0  0
   55.6567   30.9518   42.9111 H   0  0  0  0  0  0  0  0  0  0  0  0
   58.1405   30.5107   44.3608 H   0  0  0  0  0  0  0  0  0  0  0  0
   58.3449   30.3453   42.5557 H   0  0  0  0  0  0  0  0  0  0  0  0
   58.6195   32.5857   42.6193 H   0  0  0  0  0  0  0  0  0  0  0  0
   56.8171   32.5972   42.7031 H   0  0  0  0  0  0  0  0  0  0  0  0
   59.2111   34.6093   44.1812 H   0  0  0  0  0  0  0  0  0  0  0  0
   56.9852   33.4635   47.5792 H   0  0  0  0  0  0  0  0  0  0  0  0
  1  2  2  0
  2  3  1  0
  3  4  1  0
  4  5  1  0
  5  6  1  0
  6  7  2  0
  7  8  1  0
  8  9  2  0
  8 10  1  0
 10 11  1  0
 11 12  2  0
  2 13  1  0
 13 14  1  0
 14 15  1  0
 15 16  1  0
 16 17  1  0
 17 18  1  0
 18 19  2  0
 19 20  1  0
 20 21  1  0
 21 22  2  0
 11  5  1  0
 22 18  1  0
  3 23  1  0
  3 24  1  0
  4 25  1  0
  4 26  1  0
  6 27  1  0
  7 28  1  0
 13 29  1  0
 14 30  1  0
 14 31  1  0
 15 32  1  0
 15 33  1  0
 16 34  1  0
 16 35  1  0
 17 36  1  0
 17 37  1  0
 19 38  1  0
 21 39  1  0
M  CHG  2  10  -1  20  -1
M  END
>  <UniqueID>  (91) 
85

>  <SMILES>  (91) 
O=C(CCn1ccc(=O)[n-]c1=O)NCCCCc1c[n-]cn1

>  <Energy>  (91) 
57.253561995383066

>  <Genealogy>  (91) 
O=C(CCn1ccc(=O)[n-]c1=O)NCCCCc1c[n-]cn1 (protonated)
O=C(CCn1ccc(=O)[n-]c1=O)NCCCCc1c[n-]cn1 (3D coordinates assigned)
O=C(CCn1ccc(=O)[n-]c1=O)NCCCCc1c[n-]cn1 (optimized conformer: 57.253561995383066 kcal/mol)

>  <smiles>  (91) 
O=C(CCn1ccc(=O)[nH]c1=O)NCCCCc1c[nH]cn1

>  <score_type>  (91) 
oracle

>  <origin>  (91) 
adg

>  <m_score__min__energy>  (91) 
-10.08

>  <m_primary>  (91) 
energy

$$$$
91:0
     RDKit          3D

 21 22  0  0  0  0  0  0  0  0999 V2000
   59.6270   27.5440   47.6240 C   0  0  0  0  0  0  0  0  0  0  0  0
   58.8540   28.2610   46.5480 C   0  0  0  0  0  0  0  0  0  0  0  0
   59.2740   29.5440   46.1550 C   0  0  0  0  0  0  0  0  0  0  0  0
   58.6000   30.2360   45.1480 C   0  0  0  0  0  0  0  0  0  0  0  0
   57.4940   29.6600   44.5260 C   0  0  0  0  0  0  0  0  0  0  0  0
   57.0530   28.3940   44.9120 C   0  0  0  0  0  0  0  0  0  0  0  0
   57.7180   27.6780   45.9260 C   0  0  0  0  0  0  0  0  0  0  0  0
   57.1970   26.3490   46.3290 C   0  0  0  0  0  0  0  0  0  0  0  0
   57.9670   25.3290   46.7500 N   0  0  0  0  0  0  0  0  0  0  0  0
   57.0770   24.3520   47.0270 C   0  0  0  0  0  0  0  0  0  0  0  0
   57.4240   23.2200   47.4520 O   0  0  0  0  0  0  0  0  0  0  0  0
   55.7870   24.6830   46.8100 N   0  0  0  0  0  0  0  0  0  0  0  0
   55.8780   25.9490   46.3710 C   0  0  0  0  0  0  0  0  0  0  0  0
   54.7780   26.7110   45.9950 O   0  0  0  0  0  0  0  0  0  0  0  0
   59.2720   27.8732   48.6117 H   0  0  0  0  0  0  0  0  0  0  0  0
   59.4759   26.4591   47.5230 H   0  0  0  0  0  0  0  0  0  0  0  0
   60.6975   27.7761   47.5230 H   0  0  0  0  0  0  0  0  0  0  0  0
   60.1426   30.0069   46.6463 H   0  0  0  0  0  0  0  0  0  0  0  0
   58.9419   31.2367   44.8450 H   0  0  0  0  0  0  0  0  0  0  0  0
   56.9674   30.2049   43.7287 H   0  0  0  0  0  0  0  0  0  0  0  0
   56.1758   27.9500   44.4187 H   0  0  0  0  0  0  0  0  0  0  0  0
  1  2  1  0
  2  3  2  0
  3  4  1  0
  4  5  2  0
  5  6  1  0
  6  7  2  0
  7  8  1  0
  8  9  1  0
  9 10  1  0
 10 11  2  0
 10 12  1  0
 12 13  1  0
 13 14  1  0
  7  2  1  0
 13  8  2  0
  1 15  1  0
  1 16  1  0
  1 17  1  0
  3 18  1  0
  4 19  1  0
  5 20  1  0
  6 21  1  0
M  CHG  3   9  -1  12  -1  14  -1
M  END
>  <UniqueID>  (92) 
86

>  <SMILES>  (92) 
Cc1ccccc1-c1[n-]c(=O)[n-]c1[O-]

>  <Energy>  (92) 
56.603855142104685

>  <Genealogy>  (92) 
Cc1ccccc1-c1[n-]c(=O)[n-]c1[O-] (protonated)
Cc1ccccc1-c1[n-]c(=O)[n-]c1[O-] (3D coordinates assigned)
Cc1ccccc1-c1[n-]c(=O)[n-]c1[O-] (optimized conformer: 56.603855142104685 kcal/mol)

>  <smiles>  (92) 
Cc1ccccc1-c1[nH]c(=O)[nH]c1O

>  <score_type>  (92) 
oracle

>  <origin>  (92) 
adg

>  <m_score__min__energy>  (92) 
-14.710000000000001

>  <m_primary>  (92) 
energy

$$$$
92:0
     RDKit          3D

 43 44  0  0  0  0  0  0  0  0999 V2000
   57.0080   27.9650   45.4360 C   0  0  0  0  0  0  0  0  0  0  0  0
   57.7900   29.1790   45.1770 N   0  0  0  0  0  0  0  0  0  0  0  0
   59.2420   29.1600   45.4070 C   0  0  0  0  0  0  0  0  0  0  0  0
   59.5500   29.5850   46.8090 C   0  0  0  0  0  0  0  0  0  0  0  0
   58.6290   29.6090   47.6690 O   0  0  0  0  0  0  0  0  0  0  0  0
   60.8930   29.9290   47.1760 N   0  0  0  0  0  0  0  0  0  0  0  0
   61.2350   30.4530   48.4960 C   0  0  0  0  0  0  0  0  0  0  0  0
   62.1690   31.6260   48.3640 C   0  0  0  0  0  0  0  0  0  0  0  0
   62.3630   32.2510   47.1220 C   0  0  0  0  0  0  0  0  0  0  0  0
   63.2470   33.3300   47.0090 C   0  0  0  0  0  0  0  0  0  0  0  0
   63.9450   33.7850   48.1300 C   0  0  0  0  0  0  0  0  0  0  0  0
   63.7630   33.1610   49.3680 C   0  0  0  0  0  0  0  0  0  0  0  0
   62.8800   32.0840   49.4860 C   0  0  0  0  0  0  0  0  0  0  0  0
   57.1630   30.3880   44.6840 C   0  0  0  0  0  0  0  0  0  0  0  0
   55.9130   30.4170   44.5160 O   0  0  0  0  0  0  0  0  0  0  0  0
   57.9420   31.6340   44.3570 C   0  0  0  0  0  0  0  0  0  0  0  0
   57.0250   33.1230   44.8850 S   0  0  0  0  0  0  0  0  0  0  0  0
   58.1660   33.5520   46.2020 C   0  0  0  0  0  0  0  0  0  0  0  0
   58.1360   32.8500   47.4150 C   0  0  0  0  0  0  0  0  0  0  0  0
   59.0330   33.1810   48.4360 C   0  0  0  0  0  0  0  0  0  0  0  0
   59.9570   34.2150   48.2490 C   0  0  0  0  0  0  0  0  0  0  0  0
   60.8220   34.5380   49.2430 F   0  0  0  0  0  0  0  0  0  0  0  0
   59.9920   34.9110   47.0370 C   0  0  0  0  0  0  0  0  0  0  0  0
   59.1020   34.5760   46.0120 C   0  0  0  0  0  0  0  0  0  0  0  0
   56.9117   27.8155   46.5215 H   0  0  0  0  0  0  0  0  0  0  0  0
   56.0079   28.0710   44.9903 H   0  0  0  0  0  0  0  0  0  0  0  0
   57.5180   27.0983   44.9903 H   0  0  0  0  0  0  0  0  0  0  0  0
   59.6221   28.1406   45.2448 H   0  0  0  0  0  0  0  0  0  0  0  0
   59.7250   29.8573   44.7067 H   0  0  0  0  0  0  0  0  0  0  0  0
   61.6580   29.8140   46.4720 H   0  0  0  0  0  0  0  0  0  0  0  0
   60.3164   30.7758   49.0079 H   0  0  0  0  0  0  0  0  0  0  0  0
   61.7316   29.6627   49.0781 H   0  0  0  0  0  0  0  0  0  0  0  0
   61.8191   31.8919   46.2359 H   0  0  0  0  0  0  0  0  0  0  0  0
   63.3924   33.8208   46.0354 H   0  0  0  0  0  0  0  0  0  0  0  0
   64.6380   34.6344   48.0389 H   0  0  0  0  0  0  0  0  0  0  0  0
   64.3152   33.5180   50.2498 H   0  0  0  0  0  0  0  0  0  0  0  0
   62.7412   31.5933   50.4606 H   0  0  0  0  0  0  0  0  0  0  0  0
   58.9103   31.6021   44.8780 H   0  0  0  0  0  0  0  0  0  0  0  0
   58.0966   31.6801   43.2689 H   0  0  0  0  0  0  0  0  0  0  0  0
   57.4075   32.0393   47.5638 H   0  0  0  0  0  0  0  0  0  0  0  0
   59.0120   32.6280   49.3867 H   0  0  0  0  0  0  0  0  0  0  0  0
   60.7200   35.7224   46.8897 H   0  0  0  0  0  0  0  0  0  0  0  0
   59.1371   35.1175   45.0552 H   0  0  0  0  0  0  0  0  0  0  0  0
  1  2  1  0
  2  3  1  0
  3  4  1  0
  4  5  2  0
  4  6  1  0
  6  7  1  0
  7  8  1  0
  8  9  2  0
  9 10  1  0
 10 11  2  0
 11 12  1  0
 12 13  2  0
  2 14  1  0
 14 15  2  0
 14 16  1  0
 16 17  1  0
 17 18  1  0
 18 19  2  0
 19 20  1  0
 20 21  2  0
 21 22  1  0
 21 23  1  0
 23 24  2  0
 13  8  1  0
 24 18  1  0
  1 25  1  0
  1 26  1  0
  1 27  1  0
  3 28  1  0
  3 29  1  0
  6 30  1  0
  7 31  1  0
  7 32  1  0
  9 33  1  0
 10 34  1  0
 11 35  1  0
 12 36  1  0
 13 37  1  0
 16 38  1  0
 16 39  1  0
 19 40  1  0
 20 41  1  0
 23 42  1  0
 24 43  1  0
M  END
>  <UniqueID>  (93) 
87

>  <SMILES>  (93) 
CN(CC(=O)NCc1ccccc1)C(=O)CSc1ccc(F)cc1

>  <Energy>  (93) 
30.20589373779323

>  <Genealogy>  (93) 
CN(CC(=O)NCc1ccccc1)C(=O)CSc1ccc(F)cc1 (3D coordinates assigned)
CN(CC(=O)NCc1ccccc1)C(=O)CSc1ccc(F)cc1 (optimized conformer: 30.20589373779323 kcal/mol)

>  <smiles>  (93) 
CN(CC(=O)NCc1ccccc1)C(=O)CSc1ccc(F)cc1

>  <score_type>  (93) 
oracle

>  <origin>  (93) 
adg

>  <m_score__min__energy>  (93) 
-8.0700000000000003

>  <m_primary>  (93) 
energy

$$$$
93:0
     RDKit          3D

 58 61  0  0  0  0  0  0  0  0999 V2000
   56.7904   26.1353   46.8148 H   0  0  0  0  0  0  0  0  0  0  0  0
   57.2380   26.8120   46.0720 C   0  0  0  0  0  0  0  0  0  0  0  0
   56.5310   27.8770   45.6140 N   0  0  0  0  0  0  0  0  0  0  0  0
   57.0410   28.7510   44.7040 C   0  0  0  0  0  0  0  0  0  0  0  0
   56.2090   29.8740   44.2240 C   0  0  0  0  0  0  0  0  0  0  0  0
   55.5030   29.7290   43.1900 O   0  0  0  0  0  0  0  0  0  0  0  0
   56.2430   31.1580   44.8590 N   0  0  0  0  0  0  0  0  0  0  0  0
   57.4230   31.8760   45.2480 C   0  0  0  0  0  0  0  0  0  0  0  0
   58.2600   31.4170   46.2810 C   0  0  0  0  0  0  0  0  0  0  0  0
   58.0115   30.4883   46.8155 H   0  0  0  0  0  0  0  0  0  0  0  0
   59.4060   32.1360   46.6310 C   0  0  0  0  0  0  0  0  0  0  0  0
   60.0680   31.7588   47.4243 H   0  0  0  0  0  0  0  0  0  0  0  0
   59.7160   33.3370   45.9750 C   0  0  0  0  0  0  0  0  0  0  0  0
   60.9500   34.1110   46.3620 C   0  0  0  0  0  0  0  0  0  0  0  0
   60.6740   35.1596   46.5472 H   0  0  0  0  0  0  0  0  0  0  0  0
   61.6784   34.0446   45.5404 H   0  0  0  0  0  0  0  0  0  0  0  0
   61.5640   33.5490   47.5840 N   0  0  0  0  0  0  0  0  0  0  0  0
   61.0520   34.2180   48.8040 C   0  0  0  0  0  0  0  0  0  0  0  0
   60.0525   33.8164   49.0272 H   0  0  0  0  0  0  0  0  0  0  0  0
   61.0324   35.2978   48.5952 H   0  0  0  0  0  0  0  0  0  0  0  0
   61.9500   34.0130   50.0470 C   0  0  0  0  0  0  0  0  0  0  0  0
   61.3083   33.7947   50.9134 H   0  0  0  0  0  0  0  0  0  0  0  0
   62.5305   34.9355   50.1951 H   0  0  0  0  0  0  0  0  0  0  0  0
   62.9060   32.9060   49.8770 N   0  0  0  0  0  0  0  0  0  0  0  0
   63.2970   32.1130   51.0190 C   0  0  0  0  0  0  0  0  0  0  0  0
   62.8660   32.4020   52.1690 O   0  0  0  0  0  0  0  0  0  0  0  0
   64.2210   30.9380   50.8790 C   0  0  0  0  0  0  0  0  0  0  0  0
   64.5064   30.5750   51.8774 H   0  0  0  0  0  0  0  0  0  0  0  0
   63.7108   30.1339   50.3285 H   0  0  0  0  0  0  0  0  0  0  0  0
   65.1228   31.2442   50.3285 H   0  0  0  0  0  0  0  0  0  0  0  0
   63.6240   32.7500   48.6000 C   0  0  0  0  0  0  0  0  0  0  0  0
   63.5555   31.7008   48.2766 H   0  0  0  0  0  0  0  0  0  0  0  0
   64.6730   33.0429   48.7543 H   0  0  0  0  0  0  0  0  0  0  0  0
   63.0300   33.6440   47.5150 C   0  0  0  0  0  0  0  0  0  0  0  0
   63.3776   33.3090   46.5266 H   0  0  0  0  0  0  0  0  0  0  0  0
   63.3482   34.6857   47.6685 H   0  0  0  0  0  0  0  0  0  0  0  0
   58.8560   33.8170   44.9730 C   0  0  0  0  0  0  0  0  0  0  0  0
   59.0799   34.7681   44.4678 H   0  0  0  0  0  0  0  0  0  0  0  0
   57.7170   33.0900   44.6160 C   0  0  0  0  0  0  0  0  0  0  0  0
   57.0469   33.4744   43.8330 H   0  0  0  0  0  0  0  0  0  0  0  0
   58.3500   28.5700   44.2370 C   0  0  0  0  0  0  0  0  0  0  0  0
   58.7865   29.2820   43.5211 H   0  0  0  0  0  0  0  0  0  0  0  0
   59.0950   27.4800   44.6870 C   0  0  0  0  0  0  0  0  0  0  0  0
   60.1229   27.3313   44.3246 H   0  0  0  0  0  0  0  0  0  0  0  0
   58.5370   26.5720   45.6010 C   0  0  0  0  0  0  0  0  0  0  0  0
   59.2920   25.3800   46.0590 C   0  0  0  0  0  0  0  0  0  0  0  0
   60.5020   25.5020   46.3850 O   0  0  0  0  0  0  0  0  0  0  0  0
   58.7030   24.0680   46.0770 N   0  0  0  0  0  0  0  0  0  0  0  0
   58.0720   23.4680   45.1040 C   0  0  0  0  0  0  0  0  0  0  0  0
   57.0390   24.1210   44.5040 N   0  0  0  0  0  0  0  0  0  0  0  0
   56.3250   23.5710   43.4860 C   0  0  0  0  0  0  0  0  0  0  0  0
   55.4908   24.1292   43.0360 H   0  0  0  0  0  0  0  0  0  0  0  0
   56.6490   22.2990   43.0110 C   0  0  0  0  0  0  0  0  0  0  0  0
   56.0713   21.8465   42.1916 H   0  0  0  0  0  0  0  0  0  0  0  0
   57.7150   21.6090   43.5890 C   0  0  0  0  0  0  0  0  0  0  0  0
   57.9850   20.6074   43.2231 H   0  0  0  0  0  0  0  0  0  0  0  0
   58.4390   22.1900   44.6320 C   0  0  0  0  0  0  0  0  0  0  0  0
   59.2887   21.6557   45.0821 H   0  0  0  0  0  0  0  0  0  0  0  0
  1  2  1  0
  2  3  2  0
  3  4  1  0
  4  5  1  0
  5  6  2  0
  5  7  1  0
  7  8  1  0
  8  9  2  0
  9 10  1  0
  9 11  1  0
 11 12  1  0
 11 13  2  0
 13 14  1  0
 14 15  1  0
 14 16  1  0
 14 17  1  0
 17 18  1  0
 18 19  1  0
 18 20  1  0
 18 21  1  0
 21 22  1  0
 21 23  1  0
 21 24  1  0
 24 25  1  0
 25 26  2  0
 25 27  1  0
 27 28  1  0
 27 29  1  0
 27 30  1  0
 24 31  1  0
 31 32  1  0
 31 33  1  0
 31 34  1  0
 34 35  1  0
 34 36  1  0
 13 37  1  0
 37 38  1  0
 37 39  2  0
 39 40  1  0
  4 41  2  0
 41 42  1  0
 41 43  1  0
 43 44  1  0
 43 45  2  0
 45 46  1  0
 46 47  2  0
 46 48  1  0
 48 49  2  0
 49 50  1  0
 50 51  1  0
 51 52  1  0
 51 53  2  0
 53 54  1  0
 53 55  1  0
 55 56  1  0
 55 57  2  0
 57 58  1  0
 45  2  1  0
 57 49  1  0
 39  8  1  0
 34 17  1  0
M  CHG  2   7  -1  50  -1
M  END
>  <UniqueID>  (94) 
88

>  <SMILES>  (94) 
CC(=O)N1CCN(Cc2ccc([N-]C(=O)c3ccc(C(=O)/N=c4/cccc[n-]4)cn3)cc2)CC1

>  <Energy>  (94) 
83.71997696960293

>  <Genealogy>  (94) 
CC(=O)N1CCN(Cc2ccc([N-]C(=O)c3ccc(C(=O)N=c4cccc[n-]4)cn3)cc2)CC1 (protonated)
CC(=O)N1CCN(Cc2ccc([N-]C(=O)c3ccc(C(=O)/N=c4/cccc[n-]4)cn3)cc2)CC1 (cis-trans isomerization)
CC(=O)N1CCN(Cc2ccc([N-]C(=O)c3ccc(C(=O)/N=c4/cccc[n-]4)cn3)cc2)CC1 (3D coordinates assigned)
CC(=O)N1CCN(Cc2ccc([N-]C(=O)c3ccc(C(=O)/N=c4/cccc[n-]4)cn3)cc2)CC1 (nonaromatic ring conformer: 83.71997696960293 kcal/mol)

>  <smiles>  (94) 
CC(=O)N1CCN(Cc2ccc(NC(=O)c3ccc(C(=O)N=c4cccc[nH]4)cn3)cc2)CC1

>  <score_type>  (94) 
oracle

>  <origin>  (94) 
adg

>  <m_score__min__energy>  (94) 
-12.390000000000001

>  <m_primary>  (94) 
energy

$$$$
94:0
     RDKit          3D

 46 47  0  0  0  0  0  0  0  0999 V2000
   58.4410   29.9360   43.8590 N   0  0  0  0  0  0  0  0  0  0  0  0
   57.3500   30.4480   44.6970 C   0  0  1  0  0  0  0  0  0  0  0  0
   57.0460   31.9160   44.3460 C   0  0  0  0  0  0  0  0  0  0  0  0
   57.8650   32.8610   45.1870 C   0  0  0  0  0  0  0  0  0  0  0  0
   57.8420   32.7680   46.5890 C   0  0  0  0  0  0  0  0  0  0  0  0
   58.5790   33.6670   47.3670 C   0  0  0  0  0  0  0  0  0  0  0  0
   59.3360   34.6680   46.7520 C   0  0  0  0  0  0  0  0  0  0  0  0
   59.3550   34.7740   45.3580 C   0  0  0  0  0  0  0  0  0  0  0  0
   58.6180   33.8770   44.5770 C   0  0  0  0  0  0  0  0  0  0  0  0
   56.0980   29.6090   44.5400 C   0  0  0  0  0  0  0  0  0  0  0  0
   55.1520   30.0330   43.8260 O   0  0  0  0  0  0  0  0  0  0  0  0
   55.9260   28.3700   45.2390 N   0  0  0  0  0  0  0  0  0  0  0  0
   56.9850   27.3980   45.4890 C   0  0  0  0  0  0  0  0  0  0  0  0
   57.8260   27.8370   46.6870 C   0  0  0  0  0  0  0  0  0  0  0  0
   59.1810   28.1880   46.2740 N   0  0  0  0  0  0  0  0  0  0  0  0
   59.8140   29.4290   46.5980 C   0  0  0  0  0  0  0  0  0  0  0  0
   60.5000   30.0340   45.7300 O   0  0  0  0  0  0  0  0  0  0  0  0
   59.6980   29.9480   47.9750 C   0  0  0  0  0  0  0  0  0  0  0  0
   60.7030   30.4420   48.7130 C   0  0  0  0  0  0  0  0  0  0  0  0
   61.4990   31.6420   48.3830 C   0  0  0  0  0  0  0  0  0  0  0  0
   62.5120   31.5520   47.4170 C   0  0  0  0  0  0  0  0  0  0  0  0
   63.3090   32.6630   47.1230 C   0  0  0  0  0  0  0  0  0  0  0  0
   63.1130   33.8660   47.8080 C   0  0  0  0  0  0  0  0  0  0  0  0
   62.1260   33.9560   48.7940 C   0  0  0  0  0  0  0  0  0  0  0  0
   61.3270   32.8470   49.0900 C   0  0  0  0  0  0  0  0  0  0  0  0
   58.9900   29.2380   44.4110 H   0  0  0  0  0  0  0  0  0  0  0  0
   58.0470   29.4430   43.0250 H   0  0  0  0  0  0  0  0  0  0  0  0
   57.6760   30.3888   45.7459 H   0  0  0  0  0  0  0  0  0  0  0  0
   57.2798   32.0865   43.2847 H   0  0  0  0  0  0  0  0  0  0  0  0
   55.9813   32.1074   44.5456 H   0  0  0  0  0  0  0  0  0  0  0  0
   57.2422   31.9853   47.0765 H   0  0  0  0  0  0  0  0  0  0  0  0
   58.5627   33.5860   48.4639 H   0  0  0  0  0  0  0  0  0  0  0  0
   59.9171   35.3727   47.3649 H   0  0  0  0  0  0  0  0  0  0  0  0
   59.9498   35.5632   44.8749 H   0  0  0  0  0  0  0  0  0  0  0  0
   58.6286   33.9681   43.4808 H   0  0  0  0  0  0  0  0  0  0  0  0
   56.5359   26.4162   45.6995 H   0  0  0  0  0  0  0  0  0  0  0  0
   57.6301   27.3307   44.6006 H   0  0  0  0  0  0  0  0  0  0  0  0
   57.3544   28.7133   47.1558 H   0  0  0  0  0  0  0  0  0  0  0  0
   57.8823   27.0018   47.4007 H   0  0  0  0  0  0  0  0  0  0  0  0
   58.6996   29.9278   48.4363 H   0  0  0  0  0  0  0  0  0  0  0  0
   60.9557   29.9092   49.6416 H   0  0  0  0  0  0  0  0  0  0  0  0
   62.6805   30.6025   46.8878 H   0  0  0  0  0  0  0  0  0  0  0  0
   64.0906   32.5903   46.3524 H   0  0  0  0  0  0  0  0  0  0  0  0
   63.7353   34.7416   47.5711 H   0  0  0  0  0  0  0  0  0  0  0  0
   61.9776   34.9006   49.3378 H   0  0  0  0  0  0  0  0  0  0  0  0
   60.5621   32.9166   49.8774 H   0  0  0  0  0  0  0  0  0  0  0  0
  1  2  1  0
  2  3  1  0
  3  4  1  0
  4  5  2  0
  5  6  1  0
  6  7  2  0
  7  8  1  0
  8  9  2  0
  2 10  1  0
 10 11  2  0
 10 12  1  0
 12 13  1  0
 13 14  1  0
 14 15  1  0
 15 16  1  0
 16 17  2  0
 16 18  1  0
 18 19  2  3
 19 20  1  0
 20 21  2  0
 21 22  1  0
 22 23  2  0
 23 24  1  0
 24 25  2  0
  9  4  1  0
 25 20  1  0
  1 26  1  0
  1 27  1  0
  2 28  1  1
  3 29  1  0
  3 30  1  0
  5 31  1  0
  6 32  1  0
  7 33  1  0
  8 34  1  0
  9 35  1  0
 13 36  1  0
 13 37  1  0
 14 38  1  0
 14 39  1  0
 18 40  1  0
 19 41  1  0
 21 42  1  0
 22 43  1  0
 23 44  1  0
 24 45  1  0
 25 46  1  0
M  CHG  2  12  -1  15  -1
M  END
>  <UniqueID>  (95) 
89

>  <SMILES>  (95) 
N[C@@H](Cc1ccccc1)C(=O)[N-]CC[N-]C(=O)C=Cc1ccccc1

>  <Energy>  (95) 
45.181544962457565

>  <Genealogy>  (95) 
NC(Cc1ccccc1)C(=O)[N-]CC[N-]C(=O)C=Cc1ccccc1 (protonated)
N[C@@H](Cc1ccccc1)C(=O)[N-]CC[N-]C(=O)C=Cc1ccccc1 (chirality)
N[C@@H](Cc1ccccc1)C(=O)[N-]CC[N-]C(=O)C=Cc1ccccc1 (3D coordinates assigned)
N[C@@H](Cc1ccccc1)C(=O)[N-]CC[N-]C(=O)C=Cc1ccccc1 (optimized conformer: 45.181544962457565 kcal/mol)

>  <smiles>  (95) 
NC(Cc1ccccc1)C(=O)NCCNC(=O)C=Cc1ccccc1

>  <score_type>  (95) 
oracle

>  <origin>  (95) 
adg

>  <m_score__min__energy>  (95) 
-11.59

>  <m_primary>  (95) 
energy

$$$$
95:0
     RDKit          3D

 48 49  0  0  0  0  0  0  0  0999 V2000
   63.0030   34.2090   49.0210 C   0  0  0  0  0  0  0  0  0  0  0  0
   62.7010   32.8730   48.4240 C   0  0  0  0  0  0  0  0  0  0  0  0
   63.5520   32.3300   47.6680 O   0  0  0  0  0  0  0  0  0  0  0  0
   61.4990   32.1800   48.7910 N   0  0  0  0  0  0  0  0  0  0  0  0
   61.0280   30.9820   48.1500 C   0  0  0  0  0  0  0  0  0  0  0  0
   60.7840   29.8040   48.8790 C   0  0  0  0  0  0  0  0  0  0  0  0
   60.3480   28.6470   48.2280 C   0  0  0  0  0  0  0  0  0  0  0  0
   60.1590   28.6470   46.8390 C   0  0  0  0  0  0  0  0  0  0  0  0
   59.6320   27.1850   46.0080 S   0  0  0  0  0  0  0  0  0  0  0  0
   60.6470   26.0990   46.2310 O   0  0  0  0  0  0  0  0  0  0  0  0
   59.5250   27.4400   44.5300 O   0  0  0  0  0  0  0  0  0  0  0  0
   58.0960   26.6650   46.6340 N   0  0  0  0  0  0  0  0  0  0  0  0
   57.0580   26.8750   45.6300 C   0  0  0  0  0  0  0  0  0  0  0  0
   56.6900   28.3200   45.5940 C   0  0  0  0  0  0  0  0  0  0  0  0
   57.4240   29.1650   46.1760 O   0  0  0  0  0  0  0  0  0  0  0  0
   55.5220   28.7380   44.8810 N   0  0  0  0  0  0  0  0  0  0  0  0
   55.5250   29.7730   43.8520 C   0  0  0  0  0  0  0  0  0  0  0  0
   56.9520   30.0580   43.3680 C   0  0  0  0  0  0  0  0  0  0  0  0
   57.4440   31.3300   43.8980 N   0  0  0  0  0  0  0  0  0  0  0  0
   57.3990   31.6430   45.1840 N   0  0  0  0  0  0  0  0  0  0  0  0
   57.8900   32.8910   45.3130 C   0  0  0  0  0  0  0  0  0  0  0  0
   57.9420   33.6360   46.6040 C   0  0  0  0  0  0  0  0  0  0  0  0
   58.2360   33.3980   44.0740 C   0  0  0  0  0  0  0  0  0  0  0  0
   57.9440   32.3730   43.1980 C   0  0  0  0  0  0  0  0  0  0  0  0
   58.1410   32.4120   41.7140 C   0  0  0  0  0  0  0  0  0  0  0  0
   60.4280   29.8090   46.1060 C   0  0  0  0  0  0  0  0  0  0  0  0
   60.8640   30.9660   46.7570 C   0  0  0  0  0  0  0  0  0  0  0  0
   62.9857   34.1327   50.1182 H   0  0  0  0  0  0  0  0  0  0  0  0
   63.9988   34.5409   48.6921 H   0  0  0  0  0  0  0  0  0  0  0  0
   62.2467   34.9370   48.6921 H   0  0  0  0  0  0  0  0  0  0  0  0
   60.9760   32.5250   49.6280 H   0  0  0  0  0  0  0  0  0  0  0  0
   60.9374   29.7935   49.9682 H   0  0  0  0  0  0  0  0  0  0  0  0
   60.1524   27.7328   48.8076 H   0  0  0  0  0  0  0  0  0  0  0  0
   57.4340   26.5672   44.6432 H   0  0  0  0  0  0  0  0  0  0  0  0
   56.1717   26.2760   45.8864 H   0  0  0  0  0  0  0  0  0  0  0  0
   54.9162   29.4359   43.0001 H   0  0  0  0  0  0  0  0  0  0  0  0
   55.1078   30.6963   44.2804 H   0  0  0  0  0  0  0  0  0  0  0  0
   57.6146   29.2476   43.7061 H   0  0  0  0  0  0  0  0  0  0  0  0
   56.9430   30.1173   42.2696 H   0  0  0  0  0  0  0  0  0  0  0  0
   57.8923   32.9236   47.4407 H   0  0  0  0  0  0  0  0  0  0  0  0
   58.8820   34.2044   46.6617 H   0  0  0  0  0  0  0  0  0  0  0  0
   57.0901   34.3295   46.6617 H   0  0  0  0  0  0  0  0  0  0  0  0
   58.6491   34.3904   43.8405 H   0  0  0  0  0  0  0  0  0  0  0  0
   59.1974   32.6211   41.4897 H   0  0  0  0  0  0  0  0  0  0  0  0
   57.8596   31.4407   41.2811 H   0  0  0  0  0  0  0  0  0  0  0  0
   57.5107   33.2028   41.2811 H   0  0  0  0  0  0  0  0  0  0  0  0
   60.2957   29.8112   45.0140 H   0  0  0  0  0  0  0  0  0  0  0  0
   61.0805   31.8721   46.1720 H   0  0  0  0  0  0  0  0  0  0  0  0
  1  2  1  0
  2  3  2  0
  2  4  1  0
  4  5  1  0
  5  6  2  0
  6  7  1  0
  7  8  2  0
  8  9  1  0
  9 10  2  0
  9 11  2  0
  9 12  1  0
 12 13  1  0
 13 14  1  0
 14 15  2  0
 14 16  1  0
 16 17  1  0
 17 18  1  0
 18 19  1  0
 19 20  1  0
 20 21  2  0
 21 22  1  0
 21 23  1  0
 23 24  2  0
 24 25  1  0
  8 26  1  0
 26 27  2  0
 27  5  1  0
 24 19  1  0
  1 28  1  0
  1 29  1  0
  1 30  1  0
  4 31  1  0
  6 32  1  0
  7 33  1  0
 13 34  1  0
 13 35  1  0
 17 36  1  0
 17 37  1  0
 18 38  1  0
 18 39  1  0
 22 40  1  0
 22 41  1  0
 22 42  1  0
 23 43  1  0
 25 44  1  0
 25 45  1  0
 25 46  1  0
 26 47  1  0
 27 48  1  0
M  CHG  2  12  -1  16  -1
M  END
>  <UniqueID>  (96) 
90

>  <SMILES>  (96) 
CC(=O)Nc1ccc(S(=O)(=O)[N-]CC(=O)[N-]CCn2nc(C)cc2C)cc1

>  <Energy>  (96) 
68.19444083091464

>  <Genealogy>  (96) 
CC(=O)Nc1ccc(S(=O)(=O)[N-]CC(=O)[N-]CCn2nc(C)cc2C)cc1 (protonated)
CC(=O)Nc1ccc(S(=O)(=O)[N-]CC(=O)[N-]CCn2nc(C)cc2C)cc1 (3D coordinates assigned)
CC(=O)Nc1ccc(S(=O)(=O)[N-]CC(=O)[N-]CCn2nc(C)cc2C)cc1 (optimized conformer: 68.19444083091464 kcal/mol)

>  <smiles>  (96) 
CC(=O)Nc1ccc(S(=O)(=O)NCC(=O)NCCn2nc(C)cc2C)cc1

>  <score_type>  (96) 
oracle

>  <origin>  (96) 
adg

>  <m_score__min__energy>  (96) 
-11.74

>  <m_primary>  (96) 
energy

$$$$
