0:0
     RDKit          3D

 58 61  0  0  0  0  0  0  0  0999 V2000
   56.9740   21.0760   42.9340 C   0  0  0  0  0  0  0  0  0  0  0  0
   56.3130   21.7310   44.0740 N   0  0  0  0  0  0  0  0  0  0  0  0
   56.3100   20.8310   45.2520 C   0  0  0  0  0  0  0  0  0  0  0  0
   56.1730   21.6230   46.5570 C   0  0  0  0  0  0  0  0  0  0  0  0
   57.3320   22.5310   46.7650 N   0  0  0  0  0  0  0  0  0  0  0  0
   56.9890   23.6450   47.6750 C   0  0  0  0  0  0  0  0  0  0  0  0
   57.2310   24.9740   47.0070 C   0  0  0  0  0  0  0  0  0  0  0  0
   56.1960   25.5990   46.2960 C   0  0  0  0  0  0  0  0  0  0  0  0
   56.4180   26.8160   45.6480 C   0  0  0  0  0  0  0  0  0  0  0  0
   57.6820   27.4300   45.7100 C   0  0  0  0  0  0  0  0  0  0  0  0
   57.9490   28.6700   45.0400 N   0  0  0  0  0  0  0  0  0  0  0  0
   57.0910   29.8200   45.0310 C   0  0  0  0  0  0  0  0  0  0  0  0
   55.8430   29.6430   45.0410 O   0  0  0  0  0  0  0  0  0  0  0  0
   57.6290   31.1990   44.9620 C   0  0  0  0  0  0  0  0  0  0  0  0
   57.6250   31.9150   43.7520 C   0  0  0  0  0  0  0  0  0  0  0  0
   58.1370   33.2140   43.6980 C   0  0  0  0  0  0  0  0  0  0  0  0
   58.6510   33.8140   44.8500 C   0  0  0  0  0  0  0  0  0  0  0  0
   58.6390   33.1240   46.0690 C   0  0  0  0  0  0  0  0  0  0  0  0
   59.2780   33.8860   47.5230 S   0  0  0  0  0  0  0  0  0  0  0  0
   58.8930   35.3390   47.5180 O   0  0  0  0  0  0  0  0  0  0  0  0
   58.6990   33.2300   48.7460 O   0  0  0  0  0  0  0  0  0  0  0  0
   61.0300   33.7100   47.5790 C   0  0  0  0  0  0  0  0  0  0  0  0
   61.6590   33.4220   48.7990 C   0  0  0  0  0  0  0  0  0  0  0  0
   63.0480   33.2630   48.8530 C   0  0  0  0  0  0  0  0  0  0  0  0
   63.8140   33.3930   47.6900 C   0  0  0  0  0  0  0  0  0  0  0  0
   63.1910   33.6830   46.4720 C   0  0  0  0  0  0  0  0  0  0  0  0
   61.8030   33.8420   46.4150 C   0  0  0  0  0  0  0  0  0  0  0  0
   58.1330   31.8170   46.1200 C   0  0  0  0  0  0  0  0  0  0  0  0
   58.7220   26.7910   46.3950 C   0  0  0  0  0  0  0  0  0  0  0  0
   58.5000   25.5740   47.0440 C   0  0  0  0  0  0  0  0  0  0  0  0
   57.9280   23.0210   45.4970 C   0  0  0  0  0  0  0  0  0  0  0  0
   56.9040   23.0630   44.3490 C   0  0  0  0  0  0  0  0  0  0  0  0
   57.7094   20.3473   43.3058 H   0  0  0  0  0  0  0  0  0  0  0  0
   56.2212   20.5576   42.3220 H   0  0  0  0  0  0  0  0  0  0  0  0
   57.4855   21.8335   42.3220 H   0  0  0  0  0  0  0  0  0  0  0  0
   55.4651   20.1318   45.1667 H   0  0  0  0  0  0  0  0  0  0  0  0
   57.2652   20.2859   45.2751 H   0  0  0  0  0  0  0  0  0  0  0  0
   55.2515   22.2224   46.5168 H   0  0  0  0  0  0  0  0  0  0  0  0
   56.1382   20.9091   47.3931 H   0  0  0  0  0  0  0  0  0  0  0  0
   55.9277   23.5693   47.9540 H   0  0  0  0  0  0  0  0  0  0  0  0
   57.6252   23.5786   48.5699 H   0  0  0  0  0  0  0  0  0  0  0  0
   55.2033   25.1276   46.2485 H   0  0  0  0  0  0  0  0  0  0  0  0
   55.6021   27.2958   45.0875 H   0  0  0  0  0  0  0  0  0  0  0  0
   57.2165   31.4499   42.8427 H   0  0  0  0  0  0  0  0  0  0  0  0
   58.1353   33.7654   42.7462 H   0  0  0  0  0  0  0  0  0  0  0  0
   59.0664   34.8313   44.7998 H   0  0  0  0  0  0  0  0  0  0  0  0
   61.0590   33.3209   49.7154 H   0  0  0  0  0  0  0  0  0  0  0  0
   63.5381   33.0355   49.8111 H   0  0  0  0  0  0  0  0  0  0  0  0
   64.9059   33.2672   47.7333 H   0  0  0  0  0  0  0  0  0  0  0  0
   63.7937   33.7861   45.5576 H   0  0  0  0  0  0  0  0  0  0  0  0
   61.3158   34.0711   45.4557 H   0  0  0  0  0  0  0  0  0  0  0  0
   58.1304   31.2704   47.0746 H   0  0  0  0  0  0  0  0  0  0  0  0
   59.7211   27.2503   46.4225 H   0  0  0  0  0  0  0  0  0  0  0  0
   59.3223   25.0840   47.5860 H   0  0  0  0  0  0  0  0  0  0  0  0
   58.3197   24.0360   45.6591 H   0  0  0  0  0  0  0  0  0  0  0  0
   58.7282   22.3232   45.2092 H   0  0  0  0  0  0  0  0  0  0  0  0
   56.0967   23.7592   44.6202 H   0  0  0  0  0  0  0  0  0  0  0  0
   57.4297   23.3923   43.4406 H   0  0  0  0  0  0  0  0  0  0  0  0
  1  2  1  0
  2  3  1  0
  3  4  1  0
  4  5  1  0
  5  6  1  0
  6  7  1  0
  7  8  2  0
  8  9  1  0
  9 10  2  0
 10 11  1  0
 11 12  1  0
 12 13  2  0
 12 14  1  0
 14 15  2  0
 15 16  1  0
 16 17  2  0
 17 18  1  0
 18 19  1  0
 19 20  2  0
 19 21  2  0
 19 22  1  0
 22 23  2  0
 23 24  1  0
 24 25  2  0
 25 26  1  0
 26 27  2  0
 18 28  2  0
 10 29  1  0
 29 30  2  0
  5 31  1  0
 31 32  1  0
 32  2  1  0
 30  7  1  0
 28 14  1  0
 27 22  1  0
  1 33  1  0
  1 34  1  0
  1 35  1  0
  3 36  1  0
  3 37  1  0
  4 38  1  0
  4 39  1  0
  6 40  1  0
  6 41  1  0
  8 42  1  0
  9 43  1  0
 15 44  1  0
 16 45  1  0
 17 46  1  0
 23 47  1  0
 24 48  1  0
 25 49  1  0
 26 50  1  0
 27 51  1  0
 28 52  1  0
 29 53  1  0
 30 54  1  0
 31 55  1  0
 31 56  1  0
 32 57  1  0
 32 58  1  0
M  CHG  1  11  -1
M  END
>  <UniqueID>  (1) 
1

>  <SMILES>  (1) 
CN1CCN(Cc2ccc([N-]C(=O)c3cccc(S(=O)(=O)c4ccccc4)c3)cc2)CC1

>  <Energy>  (1) 
82.43518793915163

>  <Genealogy>  (1) 
CN1CCN(Cc2ccc([N-]C(=O)c3cccc(S(=O)(=O)c4ccccc4)c3)cc2)CC1 (protonated)
CN1CCN(Cc2ccc([N-]C(=O)c3cccc(S(=O)(=O)c4ccccc4)c3)cc2)CC1 (3D coordinates assigned)
CN1CCN(Cc2ccc([N-]C(=O)c3cccc(S(=O)(=O)c4ccccc4)c3)cc2)CC1 (nonaromatic ring conformer: 82.43518793915163 kcal/mol)

>  <smiles>  (1) 
CN1CCN(Cc2ccc(NC(=O)c3cccc(S(=O)(=O)c4ccccc4)c3)cc2)CC1

>  <score_type>  (1) 
oracle

>  <origin>  (1) 
adg

>  <m_score__min__energy>  (1) 
-12.279999999999999

>  <m_primary>  (1) 
energy

$$$$
1:0
     RDKit          3D

 30 31  0  0  0  0  0  0  0  0999 V2000
   56.5890   20.4590   44.8440 C   0  0  0  0  0  0  0  0  0  0  0  0
   56.8120   21.9010   44.8770 N   0  0  0  0  0  0  0  0  0  0  0  0
   56.5020   22.7920   43.9090 C   0  0  0  0  0  0  0  0  0  0  0  0
   55.9310   22.4600   42.6840 O   0  0  0  0  0  0  0  0  0  0  0  0
   56.8100   24.0830   44.3020 C   0  0  0  0  0  0  0  0  0  0  0  0
   57.3370   23.9620   45.5780 C   0  0  0  0  0  0  0  0  0  0  0  0
   57.7300   25.0250   46.4570 N   0  0  0  0  0  0  0  0  0  0  0  0
   58.2640   26.2830   46.0100 C   0  0  0  0  0  0  0  0  0  0  0  0
   59.6410   26.5580   46.0840 C   0  0  0  0  0  0  0  0  0  0  0  0
   60.1350   27.7950   45.6640 C   0  0  0  0  0  0  0  0  0  0  0  0
   59.2620   28.7740   45.1850 C   0  0  0  0  0  0  0  0  0  0  0  0
   57.8840   28.5240   45.1360 C   0  0  0  0  0  0  0  0  0  0  0  0
   56.7800   29.7550   44.5330 S   0  0  0  0  0  0  0  0  0  0  0  0
   55.1500   29.2590   44.8210 N   0  0  0  0  0  0  0  0  0  0  0  0
   56.9880   29.9510   43.0580 O   0  0  0  0  0  0  0  0  0  0  0  0
   57.0400   31.0590   45.2330 O   0  0  0  0  0  0  0  0  0  0  0  0
   57.3900   27.2790   45.5520 C   0  0  0  0  0  0  0  0  0  0  0  0
   57.3040   22.6220   45.9040 C   0  0  0  0  0  0  0  0  0  0  0  0
   57.7110   22.0800   47.1180 O   0  0  0  0  0  0  0  0  0  0  0  0
   56.5294   20.0736   45.8725 H   0  0  0  0  0  0  0  0  0  0  0  0
   55.6472   20.2456   44.3173 H   0  0  0  0  0  0  0  0  0  0  0  0
   57.4224   19.9711   44.3173 H   0  0  0  0  0  0  0  0  0  0  0  0
   56.4370   22.5740   41.8160 H   0  0  0  0  0  0  0  0  0  0  0  0
   56.6669   25.0081   43.7244 H   0  0  0  0  0  0  0  0  0  0  0  0
   57.5600   24.8990   47.4800 H   0  0  0  0  0  0  0  0  0  0  0  0
   60.3317   25.7960   46.4742 H   0  0  0  0  0  0  0  0  0  0  0  0
   61.2150   27.9987   45.7107 H   0  0  0  0  0  0  0  0  0  0  0  0
   59.6566   29.7430   44.8456 H   0  0  0  0  0  0  0  0  0  0  0  0
   54.7590   29.9030   45.5440 H   0  0  0  0  0  0  0  0  0  0  0  0
   56.3082   27.0824   45.5187 H   0  0  0  0  0  0  0  0  0  0  0  0
  1  2  1  0
  2  3  1  0
  3  4  1  0
  3  5  2  0
  5  6  1  0
  6  7  1  0
  7  8  1  0
  8  9  2  0
  9 10  1  0
 10 11  2  0
 11 12  1  0
 12 13  1  0
 13 14  1  0
 13 15  2  0
 13 16  2  0
 12 17  2  0
  6 18  2  0
 18 19  1  0
 18  2  1  0
 17  8  1  0
  1 20  1  0
  1 21  1  0
  1 22  1  0
  4 23  1  0
  5 24  1  0
  7 25  1  0
  9 26  1  0
 10 27  1  0
 11 28  1  0
 14 29  1  0
 17 30  1  0
M  CHG  2  14  -1  19  -1
M  END
>  <UniqueID>  (2) 
2

>  <SMILES>  (2) 
Cn1c(O)cc(Nc2cccc(S([NH-])(=O)=O)c2)c1[O-]

>  <Energy>  (2) 
62.26423871894846

>  <Genealogy>  (2) 
Cn1c(O)cc(Nc2cccc(S([NH-])(=O)=O)c2)c1[O-] (protonated)
Cn1c(O)cc(Nc2cccc(S([NH-])(=O)=O)c2)c1[O-] (3D coordinates assigned)
Cn1c(O)cc(Nc2cccc(S([NH-])(=O)=O)c2)c1[O-] (optimized conformer: 62.26423871894846 kcal/mol)

>  <smiles>  (2) 
Cn1c(O)cc(Nc2cccc(S(N)(=O)=O)c2)c1O

>  <score_type>  (2) 
oracle

>  <origin>  (2) 
adg

>  <m_score__min__energy>  (2) 
-13.029999999999999

>  <m_primary>  (2) 
energy

$$$$
2:0
     RDKit          3D

 47 50  0  0  0  0  0  0  0  0999 V2000
   57.4170   32.0740   44.0150 C   0  0  0  0  0  0  0  0  0  0  0  0
   56.9650   30.7030   44.3970 C   0  0  0  0  0  0  0  0  0  0  0  0
   55.6790   30.3000   44.3620 N   0  0  0  0  0  0  0  0  0  0  0  0
   55.6480   29.0840   44.8270 O   0  0  0  0  0  0  0  0  0  0  0  0
   56.8470   28.6750   45.1760 C   0  0  0  0  0  0  0  0  0  0  0  0
   57.1440   27.3320   45.7550 C   0  0  0  0  0  0  0  0  0  0  0  0
   57.7460   29.6930   44.9270 C   0  0  0  0  0  0  0  0  0  0  0  0
   59.2290   29.7070   45.1820 C   0  0  0  0  0  0  0  0  0  0  0  0
   59.5190   30.3560   46.4760 N   0  0  0  0  0  0  0  0  0  0  0  0
   60.7050   29.7770   47.1350 C   0  0  0  0  0  0  0  0  0  0  0  0
   60.4120   29.6400   48.6010 C   0  0  0  0  0  0  0  0  0  0  0  0
   60.7760   28.4530   49.2630 C   0  0  0  0  0  0  0  0  0  0  0  0
   60.4240   28.2460   50.5970 C   0  0  0  0  0  0  0  0  0  0  0  0
   59.7000   29.2190   51.2860 C   0  0  0  0  0  0  0  0  0  0  0  0
   59.3460   30.4080   50.6490 C   0  0  0  0  0  0  0  0  0  0  0  0
   59.7140   30.6470   49.3180 C   0  0  0  0  0  0  0  0  0  0  0  0
   59.3710   31.9010   48.7750 O   0  0  0  0  0  0  0  0  0  0  0  0
   59.9510   32.5630   47.6380 C   0  0  1  0  0  0  0  0  0  0  0  0
   61.4220   32.9380   47.8310 C   0  0  0  0  0  0  0  0  0  0  0  0
   62.2320   33.4040   46.7730 C   0  0  0  0  0  0  0  0  0  0  0  0
   63.5800   33.7090   46.9870 C   0  0  0  0  0  0  0  0  0  0  0  0
   64.1510   33.5240   48.2460 C   0  0  0  0  0  0  0  0  0  0  0  0
   63.3810   33.0130   49.2900 C   0  0  0  0  0  0  0  0  0  0  0  0
   62.0330   32.7070   49.0820 C   0  0  0  0  0  0  0  0  0  0  0  0
   59.6490   31.8140   46.3090 C   0  0  0  0  0  0  0  0  0  0  0  0
   57.6111   32.6626   44.9238 H   0  0  0  0  0  0  0  0  0  0  0  0
   58.3394   32.0034   43.4199 H   0  0  0  0  0  0  0  0  0  0  0  0
   56.6335   32.5659   43.4199 H   0  0  0  0  0  0  0  0  0  0  0  0
   57.1301   27.3949   46.8531 H   0  0  0  0  0  0  0  0  0  0  0  0
   56.3835   26.6117   45.4193 H   0  0  0  0  0  0  0  0  0  0  0  0
   58.1374   26.9995   45.4193 H   0  0  0  0  0  0  0  0  0  0  0  0
   59.6037   28.6730   45.2023 H   0  0  0  0  0  0  0  0  0  0  0  0
   59.7254   30.2713   44.3788 H   0  0  0  0  0  0  0  0  0  0  0  0
   60.9230   28.7880   46.7056 H   0  0  0  0  0  0  0  0  0  0  0  0
   61.5781   30.4287   46.9830 H   0  0  0  0  0  0  0  0  0  0  0  0
   61.3437   27.6806   48.7234 H   0  0  0  0  0  0  0  0  0  0  0  0
   60.7173   27.3157   51.1054 H   0  0  0  0  0  0  0  0  0  0  0  0
   59.4080   29.0483   52.3327 H   0  0  0  0  0  0  0  0  0  0  0  0
   58.7707   31.1679   51.1982 H   0  0  0  0  0  0  0  0  0  0  0  0
   59.4437   33.5352   47.5511 H   0  0  0  0  0  0  0  0  0  0  0  0
   61.7984   33.5285   45.7698 H   0  0  0  0  0  0  0  0  0  0  0  0
   64.1922   34.0963   46.1592 H   0  0  0  0  0  0  0  0  0  0  0  0
   65.2072   33.7808   48.4150 H   0  0  0  0  0  0  0  0  0  0  0  0
   63.8349   32.8504   50.2787 H   0  0  0  0  0  0  0  0  0  0  0  0
   61.4404   32.2803   49.9046 H   0  0  0  0  0  0  0  0  0  0  0  0
   58.7067   32.2031   45.8957 H   0  0  0  0  0  0  0  0  0  0  0  0
   60.5015   31.9892   45.6363 H   0  0  0  0  0  0  0  0  0  0  0  0
  1  2  1  0
  2  3  2  0
  3  4  1  0
  4  5  1  0
  5  6  1  0
  5  7  2  0
  7  8  1  0
  8  9  1  0
  9 10  1  0
 10 11  1  0
 11 12  2  0
 12 13  1  0
 13 14  2  0
 14 15  1  0
 15 16  2  0
 16 17  1  0
 17 18  1  0
 18 19  1  0
 19 20  2  0
 20 21  1  0
 21 22  2  0
 22 23  1  0
 23 24  2  0
 18 25  1  0
  7  2  1  0
 25  9  1  0
 16 11  1  0
 24 19  1  0
  1 26  1  0
  1 27  1  0
  1 28  1  0
  6 29  1  0
  6 30  1  0
  6 31  1  0
  8 32  1  0
  8 33  1  0
 10 34  1  0
 10 35  1  0
 12 36  1  0
 13 37  1  0
 14 38  1  0
 15 39  1  0
 18 40  1  6
 20 41  1  0
 21 42  1  0
 22 43  1  0
 23 44  1  0
 24 45  1  0
 25 46  1  0
 25 47  1  0
M  END
>  <UniqueID>  (3) 
3

>  <SMILES>  (3) 
Cc1noc(C)c1CN1Cc2ccccc2O[C@@H](c2ccccc2)C1

>  <Energy>  (3) 
94.53396806685616

>  <Genealogy>  (3) 
Cc1noc(C)c1CN1Cc2ccccc2O[C@@H](c2ccccc2)C1 (chirality)
Cc1noc(C)c1CN1Cc2ccccc2O[C@@H](c2ccccc2)C1 (3D coordinates assigned)
Cc1noc(C)c1CN1Cc2ccccc2O[C@@H](c2ccccc2)C1 (nonaromatic ring conformer: 94.53396806685616 kcal/mol)

>  <smiles>  (3) 
Cc1noc(C)c1CN1Cc2ccccc2OC(c2ccccc2)C1

>  <score_type>  (3) 
oracle

>  <origin>  (3) 
adg

>  <m_score__min__energy>  (3) 
-7.0499999999999998

>  <m_primary>  (3) 
energy

$$$$
3:0
     RDKit          3D

 56 58  0  0  0  0  0  0  0  0999 V2000
   58.6010   34.3081   43.3483 H   0  0  0  0  0  0  0  0  0  0  0  0
   58.2230   33.3840   43.8100 C   0  0  0  0  0  0  0  0  0  0  0  0
   58.0650   33.2890   45.1950 C   0  0  0  0  0  0  0  0  0  0  0  0
   58.3660   34.4560   46.0800 C   0  0  0  0  0  0  0  0  0  0  0  0
   58.2865   34.1478   47.1329 H   0  0  0  0  0  0  0  0  0  0  0  0
   59.3862   34.8151   45.8791 H   0  0  0  0  0  0  0  0  0  0  0  0
   57.6468   35.2637   45.8791 H   0  0  0  0  0  0  0  0  0  0  0  0
   57.5790   32.1410   45.7380 N   0  0  0  0  0  0  0  0  0  0  0  0
   57.2540   31.0690   44.9650 C   0  0  0  0  0  0  0  0  0  0  0  0
   56.8200   29.9540   45.4890 N   0  0  0  0  0  0  0  0  0  0  0  0
   57.6110   28.8320   45.9240 C   0  0  0  0  0  0  0  0  0  0  0  0
   58.5280   28.9920   46.8380 N   0  0  0  0  0  0  0  0  0  0  0  0
   59.1970   30.1940   47.2650 C   0  0  0  0  0  0  0  0  0  0  0  0
   60.1240   30.7720   46.3880 C   0  0  0  0  0  0  0  0  0  0  0  0
   60.2892   30.3253   45.3964 H   0  0  0  0  0  0  0  0  0  0  0  0
   60.8400   31.9110   46.7630 C   0  0  0  0  0  0  0  0  0  0  0  0
   61.5595   32.3622   46.0639 H   0  0  0  0  0  0  0  0  0  0  0  0
   60.6440   32.4780   48.0240 C   0  0  0  0  0  0  0  0  0  0  0  0
   61.1997   33.3827   48.3117 H   0  0  0  0  0  0  0  0  0  0  0  0
   59.7430   31.8980   48.9210 C   0  0  0  0  0  0  0  0  0  0  0  0
   59.5963   32.3468   49.9145 H   0  0  0  0  0  0  0  0  0  0  0  0
   59.0190   30.7390   48.5610 C   0  0  0  0  0  0  0  0  0  0  0  0
   58.1570   30.1010   49.4660 O   0  0  0  0  0  0  0  0  0  0  0  0
   58.3300   30.0700   50.8780 C   0  0  0  0  0  0  0  0  0  0  0  0
   57.3616   30.2435   51.3700 H   0  0  0  0  0  0  0  0  0  0  0  0
   58.7227   29.0872   51.1778 H   0  0  0  0  0  0  0  0  0  0  0  0
   59.0395   30.8553   51.1778 H   0  0  0  0  0  0  0  0  0  0  0  0
   57.3240   27.5440   45.3480 N   0  0  0  0  0  0  0  0  0  0  0  0
   57.1020   27.5320   44.3280 H   0  0  0  0  0  0  0  0  0  0  0  0
   57.1360   26.3390   46.1150 C   0  0  0  0  0  0  0  0  0  0  0  0
   57.1830   26.3780   47.3740 O   0  0  0  0  0  0  0  0  0  0  0  0
   56.8380   25.0510   45.4470 C   0  0  0  0  0  0  0  0  0  0  0  0
   57.8680   24.2550   44.9220 C   0  0  0  0  0  0  0  0  0  0  0  0
   58.9154   24.5697   45.0402 H   0  0  0  0  0  0  0  0  0  0  0  0
   57.5730   23.0670   44.2510 C   0  0  0  0  0  0  0  0  0  0  0  0
   58.3898   22.4555   43.8399 H   0  0  0  0  0  0  0  0  0  0  0  0
   56.2390   22.6450   44.0960 C   0  0  0  0  0  0  0  0  0  0  0  0
   55.9030   21.4580   43.4210 O   0  0  0  0  0  0  0  0  0  0  0  0
   56.2640   20.1490   43.8540 C   0  0  0  0  0  0  0  0  0  0  0  0
   56.2731   20.1160   44.9535 H   0  0  0  0  0  0  0  0  0  0  0  0
   55.5329   19.4216   43.4714 H   0  0  0  0  0  0  0  0  0  0  0  0
   57.2646   19.8991   43.4714 H   0  0  0  0  0  0  0  0  0  0  0  0
   55.2000   23.4280   44.6270 C   0  0  0  0  0  0  0  0  0  0  0  0
   53.8770   22.9810   44.4610 O   0  0  0  0  0  0  0  0  0  0  0  0
   52.7210   23.7150   44.8520 C   0  0  0  0  0  0  0  0  0  0  0  0
   52.6637   23.7514   45.9499 H   0  0  0  0  0  0  0  0  0  0  0  0
   52.7846   24.7385   44.4541 H   0  0  0  0  0  0  0  0  0  0  0  0
   51.8217   23.2221   44.4541 H   0  0  0  0  0  0  0  0  0  0  0  0
   55.5060   24.6300   45.3000 C   0  0  0  0  0  0  0  0  0  0  0  0
   54.6926   25.2440   45.7140 H   0  0  0  0  0  0  0  0  0  0  0  0
   57.4100   31.1470   43.6160 N   0  0  0  0  0  0  0  0  0  0  0  0
   57.8890   32.2760   43.0250 C   0  0  0  0  0  0  0  0  0  0  0  0
   58.0350   32.3330   41.5350 C   0  0  0  0  0  0  0  0  0  0  0  0
   59.0315   32.7220   41.2788 H   0  0  0  0  0  0  0  0  0  0  0  0
   57.9170   31.3228   41.1161 H   0  0  0  0  0  0  0  0  0  0  0  0
   57.2637   32.9960   41.1161 H   0  0  0  0  0  0  0  0  0  0  0  0
  1  2  1  0
  2  3  1  0
  3  4  1  0
  4  5  1  0
  4  6  1  0
  4  7  1  0
  3  8  2  0
  8  9  1  0
  9 10  2  0
 10 11  1  0
 11 12  2  0
 12 13  1  0
 13 14  2  0
 14 15  1  0
 14 16  1  0
 16 17  1  0
 16 18  2  0
 18 19  1  0
 18 20  1  0
 20 21  1  0
 20 22  2  0
 22 23  1  0
 23 24  1  0
 24 25  1  0
 24 26  1  0
 24 27  1  0
 11 28  1  0
 28 29  1  0
 28 30  1  0
 30 31  2  0
 30 32  1  0
 32 33  2  0
 33 34  1  0
 33 35  1  0
 35 36  1  0
 35 37  2  0
 37 38  1  0
 38 39  1  0
 39 40  1  0
 39 41  1  0
 39 42  1  0
 37 43  1  0
 43 44  1  0
 44 45  1  0
 45 46  1  0
 45 47  1  0
 45 48  1  0
 43 49  2  0
 49 50  1  0
  9 51  1  0
 51 52  1  0
 52 53  1  0
 53 54  1  0
 53 55  1  0
 53 56  1  0
 52  2  2  0
 22 13  1  0
 49 32  1  0
M  CHG  1  51  -1
M  END
>  <UniqueID>  (4) 
4

>  <SMILES>  (4) 
COc1ccccc1/N=C(/N=c1nc(C)cc(C)[n-]1)NC(=O)c1ccc(OC)c(OC)c1

>  <Energy>  (4) 
72.84813627843566

>  <Genealogy>  (4) 
COc1ccccc1N=C(N=c1nc(C)cc(C)[n-]1)NC(=O)c1ccc(OC)c(OC)c1 (protonated)
COc1ccccc1/N=C(/N=c1nc(C)cc(C)[n-]1)NC(=O)c1ccc(OC)c(OC)c1 (cis-trans isomerization)
COc1ccccc1/N=C(/N=c1nc(C)cc(C)[n-]1)NC(=O)c1ccc(OC)c(OC)c1 (3D coordinates assigned)
COc1ccccc1/N=C(/N=c1nc(C)cc(C)[n-]1)NC(=O)c1ccc(OC)c(OC)c1 (optimized conformer: 72.84813627843566 kcal/mol)

>  <smiles>  (4) 
COc1ccccc1N=C(N=c1nc(C)cc(C)[nH]1)NC(=O)c1ccc(OC)c(OC)c1

>  <score_type>  (4) 
oracle

>  <origin>  (4) 
adg

>  <m_score__min__energy>  (4) 
-9.6899999999999995

>  <m_primary>  (4) 
energy

$$$$
4:0
     RDKit          3D

 45 46  0  0  0  0  0  0  0  0999 V2000
   62.9070   33.9340   49.2480 C   0  0  0  0  0  0  0  0  0  0  0  0
   63.3900   32.4800   48.3430 S   0  0  0  0  0  0  0  0  0  0  0  0
   63.7630   32.8470   46.9330 O   0  0  0  0  0  0  0  0  0  0  0  0
   64.5800   31.8670   49.0230 O   0  0  0  0  0  0  0  0  0  0  0  0
   62.0930   31.3280   48.3300 N   0  0  0  0  0  0  0  0  0  0  0  0
   60.8060   31.6310   47.7650 C   0  0  0  0  0  0  0  0  0  0  0  0
   60.5290   32.9450   47.3480 C   0  0  0  0  0  0  0  0  0  0  0  0
   59.2720   33.2830   46.8450 C   0  0  0  0  0  0  0  0  0  0  0  0
   58.2730   32.3150   46.7500 C   0  0  0  0  0  0  0  0  0  0  0  0
   57.0500   32.6480   46.2680 F   0  0  0  0  0  0  0  0  0  0  0  0
   58.5320   31.0050   47.1520 C   0  0  0  0  0  0  0  0  0  0  0  0
   59.7950   30.6400   47.6540 C   0  0  0  0  0  0  0  0  0  0  0  0
   60.0070   29.2390   48.0970 C   0  0  0  0  0  0  0  0  0  0  0  0
   60.5890   29.0070   49.1910 O   0  0  0  0  0  0  0  0  0  0  0  0
   59.5080   28.0800   47.2780 C   0  0  0  0  0  0  0  0  0  0  0  0
   57.9970   27.8380   47.4370 C   0  0  0  0  0  0  0  0  0  0  0  0
   57.4390   27.0650   46.3140 N   0  0  0  0  0  0  0  0  0  0  0  0
   58.0200   27.2300   44.9690 C   0  0  0  0  0  0  0  0  0  0  0  0
   57.8310   28.6420   44.4670 C   0  0  0  0  0  0  0  0  0  0  0  0
   56.5280   29.1090   44.2140 C   0  0  0  0  0  0  0  0  0  0  0  0
   56.3100   30.4260   43.8060 C   0  0  0  0  0  0  0  0  0  0  0  0
   57.3890   31.2940   43.6390 C   0  0  0  0  0  0  0  0  0  0  0  0
   58.6910   30.8450   43.8750 C   0  0  0  0  0  0  0  0  0  0  0  0
   58.9210   29.5260   44.2850 C   0  0  0  0  0  0  0  0  0  0  0  0
   60.5870   29.0190   44.5260 Cl  0  0  0  0  0  0  0  0  0  0  0  0
   56.2260   26.3020   46.4940 C   0  0  0  0  0  0  0  0  0  0  0  0
   55.1340   26.7090   46.0160 O   0  0  0  0  0  0  0  0  0  0  0  0
   56.2400   25.0960   47.1840 O   0  0  0  0  0  0  0  0  0  0  0  0
   62.9738   33.7330   50.3274 H   0  0  0  0  0  0  0  0  0  0  0  0
   63.5767   34.7670   48.9880 H   0  0  0  0  0  0  0  0  0  0  0  0
   61.8720   34.2007   48.9880 H   0  0  0  0  0  0  0  0  0  0  0  0
   62.2460   30.4450   48.8600 H   0  0  0  0  0  0  0  0  0  0  0  0
   61.3116   33.7148   47.4190 H   0  0  0  0  0  0  0  0  0  0  0  0
   59.0689   34.3150   46.5229 H   0  0  0  0  0  0  0  0  0  0  0  0
   57.7386   30.2470   47.0757 H   0  0  0  0  0  0  0  0  0  0  0  0
   59.7210   28.2824   46.2180 H   0  0  0  0  0  0  0  0  0  0  0  0
   60.0252   27.1775   47.6357 H   0  0  0  0  0  0  0  0  0  0  0  0
   57.8228   27.2833   48.3708 H   0  0  0  0  0  0  0  0  0  0  0  0
   57.4969   28.8176   47.4559 H   0  0  0  0  0  0  0  0  0  0  0  0
   59.0958   27.0044   45.0118 H   0  0  0  0  0  0  0  0  0  0  0  0
   57.5089   26.5417   44.2797 H   0  0  0  0  0  0  0  0  0  0  0  0
   55.6723   28.4292   44.3390 H   0  0  0  0  0  0  0  0  0  0  0  0
   55.2859   30.7798   43.6159 H   0  0  0  0  0  0  0  0  0  0  0  0
   57.2149   32.3326   43.3213 H   0  0  0  0  0  0  0  0  0  0  0  0
   59.5397   31.5313   43.7380 H   0  0  0  0  0  0  0  0  0  0  0  0
  1  2  1  0
  2  3  2  0
  2  4  2  0
  2  5  1  0
  5  6  1  0
  6  7  2  0
  7  8  1  0
  8  9  2  0
  9 10  1  0
  9 11  1  0
 11 12  2  0
 12 13  1  0
 13 14  2  0
 13 15  1  0
 15 16  1  0
 16 17  1  0
 17 18  1  0
 18 19  1  0
 19 20  2  0
 20 21  1  0
 21 22  2  0
 22 23  1  0
 23 24  2  0
 24 25  1  0
 17 26  1  0
 26 27  2  0
 26 28  1  0
 12  6  1  0
 24 19  1  0
  1 29  1  0
  1 30  1  0
  1 31  1  0
  5 32  1  0
  7 33  1  0
  8 34  1  0
 11 35  1  0
 15 36  1  0
 15 37  1  0
 16 38  1  0
 16 39  1  0
 18 40  1  0
 18 41  1  0
 20 42  1  0
 21 43  1  0
 22 44  1  0
 23 45  1  0
M  CHG  1  28  -1
M  END
>  <UniqueID>  (5) 
5

>  <SMILES>  (5) 
CS(=O)(=O)Nc1ccc(F)cc1C(=O)CCN(Cc1ccccc1Cl)C(=O)[O-]

>  <Energy>  (5) 
48.471361439669614

>  <Genealogy>  (5) 
CS(=O)(=O)Nc1ccc(F)cc1C(=O)CCN(Cc1ccccc1Cl)C(=O)[O-] (protonated)
CS(=O)(=O)Nc1ccc(F)cc1C(=O)CCN(Cc1ccccc1Cl)C(=O)[O-] (3D coordinates assigned)
CS(=O)(=O)Nc1ccc(F)cc1C(=O)CCN(Cc1ccccc1Cl)C(=O)[O-] (optimized conformer: 48.471361439669614 kcal/mol)

>  <smiles>  (5) 
CS(=O)(=O)Nc1ccc(F)cc1C(=O)CCN(Cc1ccccc1Cl)C(=O)O

>  <score_type>  (5) 
oracle

>  <origin>  (5) 
adg

>  <m_score__min__energy>  (5) 
-10.6

>  <m_primary>  (5) 
energy

$$$$
5:0
     RDKit          3D

 55 58  0  0  1  0  0  0  0  0999 V2000
   65.7450   33.1920   50.3130 N   0  0  0  0  0  0  0  0  0  0  0  0
   64.7890   33.3130   49.6640 C   0  0  0  0  0  0  0  0  0  0  0  0
   63.6020   33.4490   48.8430 C   0  0  0  0  0  0  0  0  0  0  0  0
   62.3930   33.7410   49.4510 C   0  0  0  0  0  0  0  0  0  0  0  0
   61.2540   33.8710   48.6620 C   0  0  0  0  0  0  0  0  0  0  0  0
   61.2900   33.7190   47.2880 C   0  0  0  0  0  0  0  0  0  0  0  0
   60.1230   33.8530   46.4820 N   0  0  0  0  0  0  0  0  0  0  0  0
   59.4030   32.8610   46.1120 C   0  0  0  0  0  0  0  0  0  0  0  0
   58.1110   33.0380   45.8070 N   0  0  0  0  0  0  0  0  0  0  0  0
   57.4140   31.9500   45.4250 C   0  0  0  0  0  0  0  0  0  0  0  0
   57.9960   30.6850   45.3430 C   0  0  0  0  0  0  0  0  0  0  0  0
   57.1040   29.2700   44.8580 S   0  0  0  0  0  0  0  0  0  0  0  0
   57.6920   28.8140   43.5500 O   0  0  0  0  0  0  0  0  0  0  0  0
   55.7040   29.7370   44.5440 O   0  0  0  0  0  0  0  0  0  0  0  0
   57.1230   28.0470   46.0420 N   0  0  0  0  0  0  0  0  0  0  0  0
   57.7470   26.7880   45.9270 C   0  0  0  0  0  0  0  0  0  0  0  0
   57.1730   25.8320   45.1160 C   0  0  0  0  0  0  0  0  0  0  0  0
   57.7120   24.5810   44.9020 C   0  0  0  0  0  0  0  0  0  0  0  0
   58.8910   24.2620   45.5310 C   0  0  0  0  0  0  0  0  0  0  0  0
   59.4390   23.0050   45.3190 O   0  0  0  0  0  0  0  0  0  0  0  0
   59.5020   25.2010   46.3610 C   0  0  0  0  0  0  0  0  0  0  0  0
   58.9440   26.4630   46.5680 C   0  0  0  0  0  0  0  0  0  0  0  0
   59.5950   27.4270   47.4840 C   0  0  0  0  0  0  0  0  0  0  0  0
   60.8240   27.3690   47.5720 O   0  0  0  0  0  0  0  0  0  0  0  0
   58.8920   28.3740   48.2320 N   0  0  0  0  0  0  0  0  0  0  0  0
   59.4100   29.3300   49.1240 C   0  0  0  0  0  0  0  0  0  0  0  0
   58.8170   30.5970   49.1750 C   0  0  0  0  0  0  0  0  0  0  0  0
   59.2640   31.5860   50.0200 C   0  0  0  0  0  0  0  0  0  0  0  0
   60.3270   31.3830   50.8690 C   0  0  0  0  0  0  0  0  0  0  0  0
   60.9280   30.1450   50.8380 C   0  0  0  0  0  0  0  0  0  0  0  0
   60.4690   29.1430   49.9760 C   0  0  0  0  0  0  0  0  0  0  0  0
   59.3440   30.5440   45.6700 C   0  0  0  0  0  0  0  0  0  0  0  0
   59.8930   29.3820   45.5990 N   0  0  0  0  0  0  0  0  0  0  0  0
   59.9960   31.6570   46.0450 N   0  0  0  0  0  0  0  0  0  0  0  0
   62.4940   33.4290   46.6880 C   0  0  0  0  0  0  0  0  0  0  0  0
   63.6440   33.2960   47.4720 C   0  0  0  0  0  0  0  0  0  0  0  0
   62.3335   33.8684   50.5420 H   0  0  0  0  0  0  0  0  0  0  0  0
   60.2941   34.1021   49.1470 H   0  0  0  0  0  0  0  0  0  0  0  0
   57.6950   33.9780   45.8720 H   0  0  0  0  0  0  0  0  0  0  0  0
   56.3502   32.0632   45.1692 H   0  0  0  0  0  0  0  0  0  0  0  0
   56.6330   28.2780   46.9630 H   0  0  0  0  0  0  0  0  0  0  0  0
   56.2290   26.0821   44.6097 H   0  0  0  0  0  0  0  0  0  0  0  0
   57.2104   23.8563   44.2439 H   0  0  0  0  0  0  0  0  0  0  0  0
   60.0640   22.5730   46.0160 H   0  0  0  0  0  0  0  0  0  0  0  0
   60.4451   24.9411   46.8639 H   0  0  0  0  0  0  0  0  0  0  0  0
   57.8340   28.3760   48.1170 H   0  0  0  0  0  0  0  0  0  0  0  0
   57.9627   30.8094   48.5155 H   0  0  0  0  0  0  0  0  0  0  0  0
   58.7590   32.5632   50.0167 H   0  0  0  0  0  0  0  0  0  0  0  0
   60.6816   32.1760   51.5438 H   0  0  0  0  0  0  0  0  0  0  0  0
   61.7818   29.9404   51.5007 H   0  0  0  0  0  0  0  0  0  0  0  0
   60.9770   28.1673   49.9816 H   0  0  0  0  0  0  0  0  0  0  0  0
   60.5760   29.1490   46.3590 H   0  0  0  0  0  0  0  0  0  0  0  0
   61.0030   31.5490   46.2870 H   0  0  0  0  0  0  0  0  0  0  0  0
   62.5514   33.3024   45.5968 H   0  0  0  0  0  0  0  0  0  0  0  0
   64.6030   33.0644   46.9856 H   0  0  0  0  0  0  0  0  0  0  0  0
  1  2  3  0
  2  3  1  0
  3  4  2  0
  4  5  1  0
  5  6  2  0
  6  7  1  0
  7  8  2  0
  8  9  1  0
  9 10  1  0
 10 11  2  0
 11 12  1  0
 12 13  2  0
 12 14  2  0
 12 15  1  0
 15 16  1  0
 16 17  2  0
 17 18  1  0
 18 19  2  0
 19 20  1  0
 19 21  1  0
 21 22  2  0
 22 23  1  0
 23 24  2  0
 23 25  1  0
 25 26  1  0
 26 27  2  0
 27 28  1  0
 28 29  2  0
 29 30  1  0
 30 31  2  0
 11 32  1  0
 32 33  2  3
 32 34  1  0
  6 35  1  0
 35 36  2  0
 36  3  1  0
 34  8  1  0
 22 16  1  0
 31 26  1  0
  4 37  1  0
  5 38  1  0
  9 39  1  0
 10 40  1  0
 15 41  1  0
 17 42  1  0
 18 43  1  0
 20 44  1  0
 21 45  1  0
 25 46  1  0
 27 47  1  0
 28 48  1  0
 29 49  1  0
 30 50  1  0
 31 51  1  0
 33 52  1  0
 34 53  1  0
 35 54  1  0
 36 55  1  0
M  END
>  <smiles>  (6) 
N#Cc1ccc(N=c2[nH]cc(S(=O)(=O)Nc3ccc(O)cc3C(=O)Nc3ccccc3)c(=N)[nH]2)cc1

>  <score_type>  (6) 
oracle

>  <origin>  (6) 
adg

>  <m_score__min__energy>  (6) 
-9.75

>  <m_primary>  (6) 
energy

$$$$
6:0
     RDKit          3D

 40 42  0  0  0  0  0  0  0  0999 V2000
   54.7690   26.3340   46.0220 N   0  0  0  0  0  0  0  0  0  0  0  0
   56.3360   25.6450   46.2590 S   0  0  0  0  0  0  0  0  0  0  0  0
   56.6520   24.7120   45.1230 O   0  0  0  0  0  0  0  0  0  0  0  0
   56.3540   24.8640   47.5440 O   0  0  0  0  0  0  0  0  0  0  0  0
   57.5350   26.9320   46.3280 C   0  0  0  0  0  0  0  0  0  0  0  0
   58.5980   26.8510   47.2370 C   0  0  0  0  0  0  0  0  0  0  0  0
   59.5330   27.8860   47.3150 C   0  0  0  0  0  0  0  0  0  0  0  0
   59.4160   29.0020   46.4830 C   0  0  0  0  0  0  0  0  0  0  0  0
   58.3690   29.0880   45.5560 C   0  0  0  0  0  0  0  0  0  0  0  0
   58.2720   30.2620   44.7360 N   0  0  0  0  0  0  0  0  0  0  0  0
   57.5000   31.4390   45.0150 C   0  0  0  0  0  0  0  0  0  0  0  0
   56.2490   31.4130   44.8640 O   0  0  0  0  0  0  0  0  0  0  0  0
   58.1870   32.6920   45.4380 C   0  0  0  0  0  0  0  0  0  0  0  0
   58.5150   33.6540   44.4590 C   0  0  0  0  0  0  0  0  0  0  0  0
   59.1650   34.8370   44.8070 C   0  0  0  0  0  0  0  0  0  0  0  0
   59.5010   35.0850   46.1350 C   0  0  0  0  0  0  0  0  0  0  0  0
   59.1860   34.1520   47.1230 C   0  0  0  0  0  0  0  0  0  0  0  0
   58.5280   32.9510   46.7930 C   0  0  0  0  0  0  0  0  0  0  0  0
   58.1920   31.9970   47.8130 N   0  0  0  0  0  0  0  0  0  0  0  0
   59.2020   31.5290   49.1410 S   0  0  0  0  0  0  0  0  0  0  0  0
   59.0750   30.0490   49.3700 O   0  0  0  0  0  0  0  0  0  0  0  0
   58.8060   32.2770   50.3840 O   0  0  0  0  0  0  0  0  0  0  0  0
   60.8650   31.9120   48.7450 C   0  0  0  0  0  0  0  0  0  0  0  0
   61.6600   32.8330   49.4080 C   0  0  0  0  0  0  0  0  0  0  0  0
   62.9500   32.9240   48.8720 C   0  0  0  0  0  0  0  0  0  0  0  0
   63.1660   32.0790   47.7910 C   0  0  0  0  0  0  0  0  0  0  0  0
   61.7520   31.2130   47.5020 S   0  0  0  0  0  0  0  0  0  0  0  0
   57.4130   28.0570   45.5000 C   0  0  0  0  0  0  0  0  0  0  0  0
   54.6540   27.0840   46.7410 H   0  0  0  0  0  0  0  0  0  0  0  0
   58.6965   25.9714   47.8901 H   0  0  0  0  0  0  0  0  0  0  0  0
   60.3635   27.8220   48.0334 H   0  0  0  0  0  0  0  0  0  0  0  0
   60.1501   29.8179   46.5561 H   0  0  0  0  0  0  0  0  0  0  0  0
   58.2541   33.4678   43.4067 H   0  0  0  0  0  0  0  0  0  0  0  0
   59.4129   35.5760   44.0308 H   0  0  0  0  0  0  0  0  0  0  0  0
   60.0159   36.0186   46.4058 H   0  0  0  0  0  0  0  0  0  0  0  0
   59.4541   34.3561   48.1701 H   0  0  0  0  0  0  0  0  0  0  0  0
   61.3141   33.4296   50.2650 H   0  0  0  0  0  0  0  0  0  0  0  0
   63.7203   33.6012   49.2696 H   0  0  0  0  0  0  0  0  0  0  0  0
   64.1024   31.9907   47.2205 H   0  0  0  0  0  0  0  0  0  0  0  0
   56.5655   28.1340   44.8030 H   0  0  0  0  0  0  0  0  0  0  0  0
  1  2  1  0
  2  3  2  0
  2  4  2  0
  2  5  1  0
  5  6  2  0
  6  7  1  0
  7  8  2  0
  8  9  1  0
  9 10  1  0
 10 11  1  0
 11 12  2  0
 11 13  1  0
 13 14  2  0
 14 15  1  0
 15 16  2  0
 16 17  1  0
 17 18  2  0
 18 19  1  0
 19 20  1  0
 20 21  2  0
 20 22  2  0
 20 23  1  0
 23 24  2  0
 24 25  1  0
 25 26  2  0
 26 27  1  0
  9 28  2  0
 28  5  1  0
 18 13  1  0
 27 23  1  0
  1 29  1  0
  6 30  1  0
  7 31  1  0
  8 32  1  0
 14 33  1  0
 15 34  1  0
 16 35  1  0
 17 36  1  0
 24 37  1  0
 25 38  1  0
 26 39  1  0
 28 40  1  0
M  CHG  3   1  -1  10  -1  19  -1
M  END
>  <UniqueID>  (7) 
6

>  <SMILES>  (7) 
[NH-]S(=O)(=O)c1cccc([N-]C(=O)c2ccccc2[N-]S(=O)(=O)c2cccs2)c1

>  <Energy>  (7) 
79.28327661483671

>  <Genealogy>  (7) 
[NH-]S(=O)(=O)c1cccc([N-]C(=O)c2ccccc2[N-]S(=O)(=O)c2cccs2)c1 (protonated)
[NH-]S(=O)(=O)c1cccc([N-]C(=O)c2ccccc2[N-]S(=O)(=O)c2cccs2)c1 (3D coordinates assigned)
[NH-]S(=O)(=O)c1cccc([N-]C(=O)c2ccccc2[N-]S(=O)(=O)c2cccs2)c1 (optimized conformer: 79.28327661483671 kcal/mol)

>  <smiles>  (7) 
NS(=O)(=O)c1cccc(NC(=O)c2ccccc2NS(=O)(=O)c2cccs2)c1

>  <score_type>  (7) 
oracle

>  <origin>  (7) 
adg

>  <m_score__min__energy>  (7) 
-14.35

>  <m_primary>  (7) 
energy

$$$$
7:0
     RDKit          3D

 35 36  0  0  0  0  0  0  0  0999 V2000
   55.1620   24.8280   47.7280 H   0  0  0  0  0  0  0  0  0  0  0  0
   56.1600   24.7730   47.5590 O   0  0  0  0  0  0  0  0  0  0  0  0
   56.8550   25.7840   46.8970 C   0  0  0  0  0  0  0  0  0  0  0  0
   58.2480   25.8350   47.0020 C   0  0  0  0  0  0  0  0  0  0  0  0
   58.7793   25.0805   47.6007 H   0  0  0  0  0  0  0  0  0  0  0  0
   58.9700   26.8400   46.3500 C   0  0  0  0  0  0  0  0  0  0  0  0
   60.0665   26.8671   46.4340 H   0  0  0  0  0  0  0  0  0  0  0  0
   58.3030   27.8170   45.5870 C   0  0  0  0  0  0  0  0  0  0  0  0
   59.0220   28.8970   44.8670 C   0  0  0  0  0  0  0  0  0  0  0  0
   59.5352   28.6417   43.9282 H   0  0  0  0  0  0  0  0  0  0  0  0
   59.0820   30.1660   45.2950 C   0  0  0  0  0  0  0  0  0  0  0  0
   60.0615   30.5914   45.5590 H   0  0  0  0  0  0  0  0  0  0  0  0
   57.8830   31.0100   45.4240 C   0  0  0  0  0  0  0  0  0  0  0  0
   56.7770   30.6390   44.9420 O   0  0  0  0  0  0  0  0  0  0  0  0
   57.9910   32.2360   46.0890 O   0  0  0  0  0  0  0  0  0  0  0  0
   58.5350   33.4100   45.4880 C   0  0  0  0  0  0  0  0  0  0  0  0
   59.0173   33.1387   44.5373 H   0  0  0  0  0  0  0  0  0  0  0  0
   57.7199   34.1272   45.3112 H   0  0  0  0  0  0  0  0  0  0  0  0
   59.5530   34.0480   46.3940 C   0  0  0  0  0  0  0  0  0  0  0  0
   59.3250   35.2130   46.8190 O   0  0  0  0  0  0  0  0  0  0  0  0
   60.7980   33.3450   46.8100 C   0  0  0  0  0  0  0  0  0  0  0  0
   62.0740   33.8660   46.5090 C   0  0  0  0  0  0  0  0  0  0  0  0
   62.1599   34.8139   45.9576 H   0  0  0  0  0  0  0  0  0  0  0  0
   63.2310   33.1870   46.9060 C   0  0  0  0  0  0  0  0  0  0  0  0
   64.2208   33.6020   46.6652 H   0  0  0  0  0  0  0  0  0  0  0  0
   63.1320   31.9840   47.6070 C   0  0  0  0  0  0  0  0  0  0  0  0
   64.0431   31.4515   47.9173 H   0  0  0  0  0  0  0  0  0  0  0  0
   61.8770   31.4570   47.9140 C   0  0  0  0  0  0  0  0  0  0  0  0
   61.8003   30.5095   48.4675 H   0  0  0  0  0  0  0  0  0  0  0  0
   60.7170   32.1300   47.5200 C   0  0  0  0  0  0  0  0  0  0  0  0
   59.7317   31.7075   47.7663 H   0  0  0  0  0  0  0  0  0  0  0  0
   56.9040   27.7490   45.4740 C   0  0  0  0  0  0  0  0  0  0  0  0
   56.3711   28.4944   44.8654 H   0  0  0  0  0  0  0  0  0  0  0  0
   56.1810   26.7450   46.1260 C   0  0  0  0  0  0  0  0  0  0  0  0
   54.7970   26.7070   46.0040 O   0  0  0  0  0  0  0  0  0  0  0  0
  1  2  1  0
  2  3  1  0
  3  4  2  0
  4  5  1  0
  4  6  1  0
  6  7  1  0
  6  8  2  0
  8  9  1  0
  9 10  1  0
  9 11  2  0
 11 12  1  0
 11 13  1  0
 13 14  2  0
 13 15  1  0
 15 16  1  0
 16 17  1  0
 16 18  1  0
 16 19  1  0
 19 20  2  0
 19 21  1  0
 21 22  2  0
 22 23  1  0
 22 24  1  0
 24 25  1  0
 24 26  2  0
 26 27  1  0
 26 28  1  0
 28 29  1  0
 28 30  2  0
 30 31  1  0
  8 32  1  0
 32 33  1  0
 32 34  2  0
 34 35  1  0
 34  3  1  0
 30 21  1  0
M  CHG  1  35  -1
M  END
>  <UniqueID>  (8) 
7

>  <SMILES>  (8) 
O=C(/C=C/c1ccc(O)c([O-])c1)OCC(=O)c1ccccc1

>  <Energy>  (8) 
36.819560018506

>  <Genealogy>  (8) 
O=C(C=Cc1ccc(O)c([O-])c1)OCC(=O)c1ccccc1 (protonated)
O=C(/C=C/c1ccc(O)c([O-])c1)OCC(=O)c1ccccc1 (cis-trans isomerization)
O=C(/C=C/c1ccc(O)c([O-])c1)OCC(=O)c1ccccc1 (3D coordinates assigned)
O=C(/C=C/c1ccc(O)c([O-])c1)OCC(=O)c1ccccc1 (optimized conformer: 36.819560018506 kcal/mol)

>  <smiles>  (8) 
O=C(C=Cc1ccc(O)c(O)c1)OCC(=O)c1ccccc1

>  <score_type>  (8) 
oracle

>  <origin>  (8) 
adg

>  <m_score__min__energy>  (8) 
-11.56

>  <m_primary>  (8) 
energy

$$$$
8:0
     RDKit          3D

 42 44  0  0  0  0  0  0  0  0999 V2000
   60.1350   29.0170   45.9930 O   0  0  0  0  0  0  0  0  0  0  0  0
   59.0240   29.2540   46.5410 C   0  0  0  0  0  0  0  0  0  0  0  0
   57.9660   28.1940   46.5320 C   0  0  0  0  0  0  0  0  0  0  0  0
   57.1470   28.3020   45.3280 N   0  0  0  0  0  0  0  0  0  0  0  0
   56.3990   29.4370   44.8660 C   0  0  0  0  0  0  0  0  0  0  0  0
   55.1440   29.3410   44.8250 O   0  0  0  0  0  0  0  0  0  0  0  0
   57.0230   30.7200   44.4810 C   0  0  0  0  0  0  0  0  0  0  0  0
   57.3880   31.0740   43.1930 C   0  0  0  0  0  0  0  0  0  0  0  0
   57.9190   32.3430   43.2850 C   0  0  0  0  0  0  0  0  0  0  0  0
   57.8410   32.6840   44.6180 C   0  0  0  0  0  0  0  0  0  0  0  0
   58.4290   34.3280   45.3820 Br  0  0  0  0  0  0  0  0  0  0  0  0
   57.3020   31.7040   45.3030 O   0  0  0  0  0  0  0  0  0  0  0  0
   58.7750   30.5350   47.1400 N   0  0  0  0  0  0  0  0  0  0  0  0
   59.8260   31.4030   47.5980 C   0  0  0  0  0  0  0  0  0  0  0  0
   60.7560   31.9380   46.6880 C   0  0  0  0  0  0  0  0  0  0  0  0
   61.8190   32.7250   47.1400 C   0  0  0  0  0  0  0  0  0  0  0  0
   61.9720   32.9760   48.5030 C   0  0  0  0  0  0  0  0  0  0  0  0
   61.0620   32.4460   49.4190 C   0  0  0  0  0  0  0  0  0  0  0  0
   59.9860   31.6590   48.9770 C   0  0  0  0  0  0  0  0  0  0  0  0
   59.0290   31.1610   49.9240 N   0  0  0  0  0  0  0  0  0  0  0  0
   58.9680   29.7200   50.1760 C   0  0  0  0  0  0  0  0  0  0  0  0
   58.3330   29.4600   51.5440 C   0  0  0  0  0  0  0  0  0  0  0  0
   57.0970   30.1400   51.6630 O   0  0  0  0  0  0  0  0  0  0  0  0
   57.3130   31.5380   51.6300 C   0  0  0  0  0  0  0  0  0  0  0  0
   57.8580   31.9710   50.2650 C   0  0  0  0  0  0  0  0  0  0  0  0
   58.4447   27.2040   46.5570 H   0  0  0  0  0  0  0  0  0  0  0  0
   57.3222   28.3252   47.4142 H   0  0  0  0  0  0  0  0  0  0  0  0
   57.2770   30.4668   42.2825 H   0  0  0  0  0  0  0  0  0  0  0  0
   58.3213   32.9559   42.4649 H   0  0  0  0  0  0  0  0  0  0  0  0
   57.7880   30.8570   47.2360 H   0  0  0  0  0  0  0  0  0  0  0  0
   60.6457   31.7354   45.6125 H   0  0  0  0  0  0  0  0  0  0  0  0
   62.5355   33.1467   46.4198 H   0  0  0  0  0  0  0  0  0  0  0  0
   62.8113   33.5927   48.8569 H   0  0  0  0  0  0  0  0  0  0  0  0
   61.1883   32.6458   50.4933 H   0  0  0  0  0  0  0  0  0  0  0  0
   58.3623   29.2378   49.3945 H   0  0  0  0  0  0  0  0  0  0  0  0
   59.9868   29.3054   50.1635 H   0  0  0  0  0  0  0  0  0  0  0  0
   58.1630   28.3798   51.6630 H   0  0  0  0  0  0  0  0  0  0  0  0
   59.0146   29.8291   52.3245 H   0  0  0  0  0  0  0  0  0  0  0  0
   56.3605   32.0549   51.8187 H   0  0  0  0  0  0  0  0  0  0  0  0
   58.0498   31.7998   52.4036 H   0  0  0  0  0  0  0  0  0  0  0  0
   57.0807   31.8311   49.4994 H   0  0  0  0  0  0  0  0  0  0  0  0
   58.1472   33.0315   50.3069 H   0  0  0  0  0  0  0  0  0  0  0  0
  1  2  2  0
  2  3  1  0
  3  4  1  0
  4  5  1  0
  5  6  2  0
  5  7  1  0
  7  8  2  0
  8  9  1  0
  9 10  2  0
 10 11  1  0
 10 12  1  0
  2 13  1  0
 13 14  1  0
 14 15  2  0
 15 16  1  0
 16 17  2  0
 17 18  1  0
 18 19  2  0
 19 20  1  0
 20 21  1  0
 21 22  1  0
 22 23  1  0
 23 24  1  0
 24 25  1  0
 12  7  1  0
 19 14  1  0
 25 20  1  0
  3 26  1  0
  3 27  1  0
  8 28  1  0
  9 29  1  0
 13 30  1  0
 15 31  1  0
 16 32  1  0
 17 33  1  0
 18 34  1  0
 21 35  1  0
 21 36  1  0
 22 37  1  0
 22 38  1  0
 24 39  1  0
 24 40  1  0
 25 41  1  0
 25 42  1  0
M  CHG  1   4  -1
M  END
>  <UniqueID>  (9) 
8

>  <SMILES>  (9) 
O=C(C[N-]C(=O)c1ccc(Br)o1)Nc1ccccc1N1CCOCC1

>  <Energy>  (9) 
75.1872661734212

>  <Genealogy>  (9) 
O=C(C[N-]C(=O)c1ccc(Br)o1)Nc1ccccc1N1CCOCC1 (protonated)
O=C(C[N-]C(=O)c1ccc(Br)o1)Nc1ccccc1N1CCOCC1 (3D coordinates assigned)
O=C(C[N-]C(=O)c1ccc(Br)o1)Nc1ccccc1N1CCOCC1 (nonaromatic ring conformer: 75.1872661734212 kcal/mol)

>  <smiles>  (9) 
O=C(CNC(=O)c1ccc(Br)o1)Nc1ccccc1N1CCOCC1

>  <score_type>  (9) 
oracle

>  <origin>  (9) 
adg

>  <m_score__min__energy>  (9) 
-9.2100000000000009

>  <m_primary>  (9) 
energy

$$$$
9:0
     RDKit          3D

 44 47  0  0  0  0  0  0  0  0999 V2000
   59.8070   31.5110   48.5610 O   0  0  0  0  0  0  0  0  0  0  0  0
   59.1060   31.0660   47.6120 C   0  0  0  0  0  0  0  0  0  0  0  0
   58.7640   29.6720   47.5780 N   0  0  0  0  0  0  0  0  0  0  0  0
   59.1070   28.7780   48.6830 C   0  0  0  0  0  0  0  0  0  0  0  0
   58.8490   29.4450   49.9980 C   0  0  0  0  0  0  0  0  0  0  0  0
   59.6710   29.3910   51.1060 C   0  0  0  0  0  0  0  0  0  0  0  0
   59.0230   30.1200   52.0800 C   0  0  0  0  0  0  0  0  0  0  0  0
   57.8490   30.5680   51.5080 C   0  0  0  0  0  0  0  0  0  0  0  0
   57.7730   30.1470   50.2660 O   0  0  0  0  0  0  0  0  0  0  0  0
   58.6370   31.9880   46.5460 C   0  0  0  0  0  0  0  0  0  0  0  0
   58.7520   33.3780   46.7340 C   0  0  0  0  0  0  0  0  0  0  0  0
   58.3300   34.2680   45.7450 C   0  0  0  0  0  0  0  0  0  0  0  0
   57.7790   33.7840   44.5590 C   0  0  0  0  0  0  0  0  0  0  0  0
   57.6610   32.4090   44.3510 C   0  0  0  0  0  0  0  0  0  0  0  0
   58.1050   31.4970   45.3280 C   0  0  0  0  0  0  0  0  0  0  0  0
   57.9350   30.0830   45.1400 N   0  0  0  0  0  0  0  0  0  0  0  0
   56.7150   29.3430   45.2870 C   0  0  0  0  0  0  0  0  0  0  0  0
   55.6070   29.9420   45.2060 O   0  0  0  0  0  0  0  0  0  0  0  0
   56.7720   27.9130   45.4700 N   0  0  0  0  0  0  0  0  0  0  0  0
   55.6110   27.2700   45.6310 N   0  0  0  0  0  0  0  0  0  0  0  0
   55.5290   25.9280   45.8080 C   0  0  0  0  0  0  0  0  0  0  0  0
   54.3980   25.3930   45.9560 O   0  0  0  0  0  0  0  0  0  0  0  0
   56.7000   25.1610   45.8230 C   0  0  0  0  0  0  0  0  0  0  0  0
   56.6670   23.7640   46.0030 C   0  0  0  0  0  0  0  0  0  0  0  0
   57.8540   23.0280   46.0140 C   0  0  0  0  0  0  0  0  0  0  0  0
   59.0810   23.6740   45.8490 C   0  0  0  0  0  0  0  0  0  0  0  0
   59.1280   25.0590   45.6710 C   0  0  0  0  0  0  0  0  0  0  0  0
   57.9390   25.8160   45.6550 C   0  0  0  0  0  0  0  0  0  0  0  0
   57.9560   27.2120   45.4770 C   0  0  0  0  0  0  0  0  0  0  0  0
   59.0590   27.8090   45.3250 O   0  0  0  0  0  0  0  0  0  0  0  0
   58.2970   29.2820   46.7280 H   0  0  0  0  0  0  0  0  0  0  0  0
   58.4956   27.8662   48.6137 H   0  0  0  0  0  0  0  0  0  0  0  0
   60.1754   28.5249   48.6166 H   0  0  0  0  0  0  0  0  0  0  0  0
   60.6386   28.8752   51.1931 H   0  0  0  0  0  0  0  0  0  0  0  0
   59.3712   30.3072   53.1065 H   0  0  0  0  0  0  0  0  0  0  0  0
   57.0920   31.1841   52.0154 H   0  0  0  0  0  0  0  0  0  0  0  0
   59.1789   33.7671   47.6701 H   0  0  0  0  0  0  0  0  0  0  0  0
   58.4322   35.3520   45.9013 H   0  0  0  0  0  0  0  0  0  0  0  0
   57.4366   34.4874   43.7857 H   0  0  0  0  0  0  0  0  0  0  0  0
   57.2177   32.0346   43.4165 H   0  0  0  0  0  0  0  0  0  0  0  0
   55.7029   23.2511   46.1353 H   0  0  0  0  0  0  0  0  0  0  0  0
   57.8223   21.9373   46.1529 H   0  0  0  0  0  0  0  0  0  0  0  0
   60.0135   23.0906   45.8592 H   0  0  0  0  0  0  0  0  0  0  0  0
   60.0981   25.5614   45.5427 H   0  0  0  0  0  0  0  0  0  0  0  0
  1  2  2  0
  2  3  1  0
  3  4  1  0
  4  5  1  0
  5  6  2  0
  6  7  1  0
  7  8  2  0
  8  9  1  0
  2 10  1  0
 10 11  2  0
 11 12  1  0
 12 13  2  0
 13 14  1  0
 14 15  2  0
 15 16  1  0
 16 17  1  0
 17 18  2  0
 17 19  1  0
 19 20  1  0
 20 21  1  0
 21 22  2  0
 21 23  1  0
 23 24  2  0
 24 25  1  0
 25 26  2  0
 26 27  1  0
 27 28  2  0
 28 29  1  0
 29 30  2  0
  9  5  1  0
 15 10  1  0
 29 19  1  0
 28 23  1  0
  3 31  1  0
  4 32  1  0
  4 33  1  0
  6 34  1  0
  7 35  1  0
  8 36  1  0
 11 37  1  0
 12 38  1  0
 13 39  1  0
 14 40  1  0
 24 41  1  0
 25 42  1  0
 26 43  1  0
 27 44  1  0
M  CHG  2  16  -1  20  -1
M  END
>  <UniqueID>  (10) 
9

>  <SMILES>  (10) 
O=C(NCc1ccco1)c1ccccc1[N-]C(=O)n1[n-]c(=O)c2ccccc2c1=O

>  <Energy>  (10) 
89.71270878301377

>  <Genealogy>  (10) 
O=C(NCc1ccco1)c1ccccc1[N-]C(=O)n1[n-]c(=O)c2ccccc2c1=O (protonated)
O=C(NCc1ccco1)c1ccccc1[N-]C(=O)n1[n-]c(=O)c2ccccc2c1=O (3D coordinates assigned)
O=C(NCc1ccco1)c1ccccc1[N-]C(=O)n1[n-]c(=O)c2ccccc2c1=O (optimized conformer: 89.71270878301377 kcal/mol)

>  <smiles>  (10) 
O=C(NCc1ccco1)c1ccccc1NC(=O)n1[nH]c(=O)c2ccccc2c1=O

>  <score_type>  (10) 
oracle

>  <origin>  (10) 
adg

>  <m_score__min__energy>  (10) 
-11.640000000000001

>  <m_primary>  (10) 
energy

$$$$
10:0
     RDKit          3D

 40 42  0  0  0  0  0  0  0  0999 V2000
   57.4050   25.7160   47.1600 O   0  0  0  0  0  0  0  0  0  0  0  0
   56.4850   26.0480   46.3650 C   0  0  0  0  0  0  0  0  0  0  0  0
   55.2940   25.2550   46.3180 N   0  0  0  0  0  0  0  0  0  0  0  0
   55.2620   23.8290   46.1860 C   0  0  0  0  0  0  0  0  0  0  0  0
   54.7180   23.0690   47.2300 C   0  0  0  0  0  0  0  0  0  0  0  0
   54.6730   21.6750   47.1430 C   0  0  0  0  0  0  0  0  0  0  0  0
   55.1910   21.0290   46.0180 C   0  0  0  0  0  0  0  0  0  0  0  0
   55.7670   21.7760   44.9860 C   0  0  0  0  0  0  0  0  0  0  0  0
   55.8150   23.1720   45.0660 C   0  0  0  0  0  0  0  0  0  0  0  0
   56.6370   24.0570   43.7850 Cl  0  0  0  0  0  0  0  0  0  0  0  0
   56.6260   27.2220   45.5480 N   0  0  0  0  0  0  0  0  0  0  0  0
   57.8410   27.9830   45.5050 C   0  0  0  0  0  0  0  0  0  0  0  0
   59.0530   27.3210   45.7490 C   0  0  0  0  0  0  0  0  0  0  0  0
   60.2550   28.0280   45.7820 C   0  0  0  0  0  0  0  0  0  0  0  0
   60.2600   29.4050   45.5640 C   0  0  0  0  0  0  0  0  0  0  0  0
   59.0650   30.0760   45.2920 C   0  0  0  0  0  0  0  0  0  0  0  0
   57.8440   29.3780   45.2390 C   0  0  0  0  0  0  0  0  0  0  0  0
   56.6120   30.1090   44.8620 C   0  0  0  0  0  0  0  0  0  0  0  0
   55.4970   29.5190   44.8810 O   0  0  0  0  0  0  0  0  0  0  0  0
   56.6970   31.4650   44.4070 N   0  0  0  0  0  0  0  0  0  0  0  0
   57.4300   32.5260   45.0360 C   0  0  0  0  0  0  0  0  0  0  0  0
   57.4080   32.7240   46.4290 C   0  0  0  0  0  0  0  0  0  0  0  0
   58.1570   33.7560   47.0050 C   0  0  0  0  0  0  0  0  0  0  0  0
   58.9410   34.5860   46.2000 C   0  0  0  0  0  0  0  0  0  0  0  0
   58.9870   34.3800   44.8190 C   0  0  0  0  0  0  0  0  0  0  0  0
   58.2400   33.3480   44.2400 C   0  0  0  0  0  0  0  0  0  0  0  0
   54.3235   23.5733   48.1245 H   0  0  0  0  0  0  0  0  0  0  0  0
   54.2299   21.0867   47.9600 H   0  0  0  0  0  0  0  0  0  0  0  0
   55.1457   19.9324   45.9440 H   0  0  0  0  0  0  0  0  0  0  0  0
   56.1845   21.2636   44.1067 H   0  0  0  0  0  0  0  0  0  0  0  0
   55.8960   27.4400   44.8330 H   0  0  0  0  0  0  0  0  0  0  0  0
   59.0558   26.2337   45.9160 H   0  0  0  0  0  0  0  0  0  0  0  0
   61.1989   27.4991   45.9800 H   0  0  0  0  0  0  0  0  0  0  0  0
   61.2063   29.9642   45.6062 H   0  0  0  0  0  0  0  0  0  0  0  0
   59.0787   31.1620   45.1173 H   0  0  0  0  0  0  0  0  0  0  0  0
   56.8002   32.0655   47.0670 H   0  0  0  0  0  0  0  0  0  0  0  0
   58.1285   33.9140   48.0932 H   0  0  0  0  0  0  0  0  0  0  0  0
   59.5224   35.4021   46.6537 H   0  0  0  0  0  0  0  0  0  0  0  0
   59.6105   35.0291   44.1866 H   0  0  0  0  0  0  0  0  0  0  0  0
   58.2887   33.1808   43.1539 H   0  0  0  0  0  0  0  0  0  0  0  0
  1  2  2  0
  2  3  1  0
  3  4  1  0
  4  5  2  0
  5  6  1  0
  6  7  2  0
  7  8  1  0
  8  9  2  0
  9 10  1  0
  2 11  1  0
 11 12  1  0
 12 13  2  0
 13 14  1  0
 14 15  2  0
 15 16  1  0
 16 17  2  0
 17 18  1  0
 18 19  2  0
 18 20  1  0
 20 21  1  0
 21 22  2  0
 22 23  1  0
 23 24  2  0
 24 25  1  0
 25 26  2  0
  9  4  1  0
 17 12  1  0
 26 21  1  0
  5 27  1  0
  6 28  1  0
  7 29  1  0
  8 30  1  0
 11 31  1  0
 13 32  1  0
 14 33  1  0
 15 34  1  0
 16 35  1  0
 22 36  1  0
 23 37  1  0
 24 38  1  0
 25 39  1  0
 26 40  1  0
M  CHG  2   3  -1  20  -1
M  END
>  <UniqueID>  (11) 
10

>  <SMILES>  (11) 
O=C([N-]c1ccccc1Cl)Nc1ccccc1C(=O)[N-]c1ccccc1

>  <Energy>  (11) 
61.90330956839868

>  <Genealogy>  (11) 
O=C([N-]c1ccccc1Cl)Nc1ccccc1C(=O)[N-]c1ccccc1 (protonated)
O=C([N-]c1ccccc1Cl)Nc1ccccc1C(=O)[N-]c1ccccc1 (3D coordinates assigned)
O=C([N-]c1ccccc1Cl)Nc1ccccc1C(=O)[N-]c1ccccc1 (optimized conformer: 61.90330956839868 kcal/mol)

>  <smiles>  (11) 
O=C(Nc1ccccc1Cl)Nc1ccccc1C(=O)Nc1ccccc1

>  <score_type>  (11) 
oracle

>  <origin>  (11) 
adg

>  <m_score__min__energy>  (11) 
-12.050000000000001

>  <m_primary>  (11) 
energy

$$$$
11:0
     RDKit          3D

 48 50  0  0  0  0  0  0  0  0999 V2000
   59.9960   30.4840   46.3840 N   0  0  0  0  0  0  0  0  0  0  0  0
   59.5320   29.4360   46.2210 C   0  0  0  0  0  0  0  0  0  0  0  0
   58.9530   28.1300   46.0200 C   0  0  0  0  0  0  0  0  0  0  0  0
   59.7960   27.0110   45.9950 C   0  0  0  0  0  0  0  0  0  0  0  0
   59.2580   25.7260   45.8810 C   0  0  0  0  0  0  0  0  0  0  0  0
   57.8740   25.5520   45.8030 C   0  0  0  0  0  0  0  0  0  0  0  0
   57.0270   26.6620   45.8280 C   0  0  0  0  0  0  0  0  0  0  0  0
   57.5540   27.9570   45.9150 C   0  0  0  0  0  0  0  0  0  0  0  0
   56.6640   29.0380   45.9310 O   0  0  0  0  0  0  0  0  0  0  0  0
   56.2350   29.7150   44.7820 C   0  0  0  0  0  0  0  0  0  0  0  0
   55.1850   29.3480   44.1860 O   0  0  0  0  0  0  0  0  0  0  0  0
   56.9990   30.8810   44.2870 C   0  0  0  0  0  0  0  0  0  0  0  0
   57.2510   31.0440   42.9130 C   0  0  0  0  0  0  0  0  0  0  0  0
   57.9870   32.1400   42.4540 C   0  0  0  0  0  0  0  0  0  0  0  0
   58.4780   33.0840   43.3590 C   0  0  0  0  0  0  0  0  0  0  0  0
   58.2300   32.9410   44.7280 C   0  0  0  0  0  0  0  0  0  0  0  0
   58.8820   34.1190   45.8660 S   0  0  0  0  0  0  0  0  0  0  0  0
   57.7890   34.5860   46.7870 O   0  0  0  0  0  0  0  0  0  0  0  0
   59.3860   35.3020   45.0860 O   0  0  0  0  0  0  0  0  0  0  0  0
   60.1920   33.4070   46.7860 N   0  0  0  0  0  0  0  0  0  0  0  0
   59.8800   33.4900   48.2300 C   0  0  0  0  0  0  0  0  0  0  0  0
   60.9580   32.8550   49.1320 C   0  0  0  0  0  0  0  0  0  0  0  0
   62.2830   33.6360   49.2560 C   0  0  0  0  0  0  0  0  0  0  0  0
   63.3180   33.3320   48.1620 C   0  0  0  0  0  0  0  0  0  0  0  0
   62.7390   33.1390   46.7370 C   0  0  0  0  0  0  0  0  0  0  0  0
   61.4970   33.9900   46.3820 C   0  0  0  0  0  0  0  0  0  0  0  0
   57.4960   31.8380   45.1910 C   0  0  0  0  0  0  0  0  0  0  0  0
   60.8856   27.1444   46.0654 H   0  0  0  0  0  0  0  0  0  0  0  0
   59.9245   24.8514   45.8527 H   0  0  0  0  0  0  0  0  0  0  0  0
   57.4511   24.5398   45.7218 H   0  0  0  0  0  0  0  0  0  0  0  0
   55.9375   26.5183   45.7790 H   0  0  0  0  0  0  0  0  0  0  0  0
   56.8665   30.3044   42.1952 H   0  0  0  0  0  0  0  0  0  0  0  0
   58.1800   32.2594   41.3777 H   0  0  0  0  0  0  0  0  0  0  0  0
   59.0613   33.9422   42.9940 H   0  0  0  0  0  0  0  0  0  0  0  0
   60.2070   32.3930   46.5230 H   0  0  0  0  0  0  0  0  0  0  0  0
   59.7784   34.5506   48.5034 H   0  0  0  0  0  0  0  0  0  0  0  0
   58.9501   32.9253   48.3921 H   0  0  0  0  0  0  0  0  0  0  0  0
   60.5333   32.7506   50.1413 H   0  0  0  0  0  0  0  0  0  0  0  0
   61.2205   31.9003   48.6528 H   0  0  0  0  0  0  0  0  0  0  0  0
   62.0511   34.7106   49.2178 H   0  0  0  0  0  0  0  0  0  0  0  0
   62.7382   33.3222   50.2070 H   0  0  0  0  0  0  0  0  0  0  0  0
   64.0322   34.1679   48.1282 H   0  0  0  0  0  0  0  0  0  0  0  0
   63.7770   32.3707   48.4364 H   0  0  0  0  0  0  0  0  0  0  0  0
   63.5323   33.3866   46.0163 H   0  0  0  0  0  0  0  0  0  0  0  0
   62.3999   32.0933   46.6968 H   0  0  0  0  0  0  0  0  0  0  0  0
   61.6011   34.9665   46.8776 H   0  0  0  0  0  0  0  0  0  0  0  0
   61.4752   34.0534   45.2840 H   0  0  0  0  0  0  0  0  0  0  0  0
   57.3079   31.7208   46.2684 H   0  0  0  0  0  0  0  0  0  0  0  0
  1  2  3  0
  2  3  1  0
  3  4  2  0
  4  5  1  0
  5  6  2  0
  6  7  1  0
  7  8  2  0
  8  9  1  0
  9 10  1  0
 10 11  2  0
 10 12  1  0
 12 13  2  0
 13 14  1  0
 14 15  2  0
 15 16  1  0
 16 17  1  0
 17 18  2  0
 17 19  2  0
 17 20  1  0
 20 21  1  0
 21 22  1  0
 22 23  1  0
 23 24  1  0
 24 25  1  0
 25 26  1  0
 16 27  2  0
  8  3  1  0
 27 12  1  0
 26 20  1  0
  4 28  1  0
  5 29  1  0
  6 30  1  0
  7 31  1  0
 13 32  1  0
 14 33  1  0
 15 34  1  0
 20 35  1  0
 21 36  1  0
 21 37  1  0
 22 38  1  0
 22 39  1  0
 23 40  1  0
 23 41  1  0
 24 42  1  0
 24 43  1  0
 25 44  1  0
 25 45  1  0
 26 46  1  0
 26 47  1  0
 27 48  1  0
M  CHG  1  20   1
M  END
>  <UniqueID>  (12) 
11

>  <SMILES>  (12) 
N#Cc1ccccc1OC(=O)c1cccc(S(=O)(=O)[NH+]2CCCCCC2)c1

>  <Energy>  (12) 
68.44860739023336

>  <Genealogy>  (12) 
N#Cc1ccccc1OC(=O)c1cccc(S(=O)(=O)[NH+]2CCCCCC2)c1 (protonated)
N#Cc1ccccc1OC(=O)c1cccc(S(=O)(=O)[NH+]2CCCCCC2)c1 (3D coordinates assigned)
N#Cc1ccccc1OC(=O)c1cccc(S(=O)(=O)[NH+]2CCCCCC2)c1 (nonaromatic ring conformer: 68.44860739023336 kcal/mol)

>  <smiles>  (12) 
N#Cc1ccccc1OC(=O)c1cccc(S(=O)(=O)N2CCCCCC2)c1

>  <score_type>  (12) 
oracle

>  <origin>  (12) 
adg

>  <m_score__min__energy>  (12) 
-6.25

>  <m_primary>  (12) 
energy

$$$$
12:0
     RDKit          3D

 59 62  0  0  0  0  0  0  0  0999 V2000
   51.0400   24.5250   43.9270 C   0  0  0  0  0  0  0  0  0  0  0  0
   51.3590   23.6060   45.0750 C   0  0  0  0  0  0  0  0  0  0  0  0
   50.3440   22.8180   45.6460 C   0  0  0  0  0  0  0  0  0  0  0  0
   50.6290   21.9600   46.7100 C   0  0  0  0  0  0  0  0  0  0  0  0
   51.9270   21.8790   47.2140 C   0  0  0  0  0  0  0  0  0  0  0  0
   52.9470   22.6480   46.6500 C   0  0  0  0  0  0  0  0  0  0  0  0
   52.6790   23.5040   45.5660 C   0  0  0  0  0  0  0  0  0  0  0  0
   53.7050   24.3430   45.0100 N   0  0  0  0  0  0  0  0  0  0  0  0
   54.6850   25.0760   45.7490 C   0  0  0  0  0  0  0  0  0  0  0  0
   54.7350   26.3270   45.6200 O   0  0  0  0  0  0  0  0  0  0  0  0
   55.6160   24.4000   46.6030 N   0  0  0  0  0  0  0  0  0  0  0  0
   56.9820   24.1550   46.2460 C   0  0  0  0  0  0  0  0  0  0  0  0
   57.3370   22.8920   45.7530 C   0  0  0  0  0  0  0  0  0  0  0  0
   58.6630   22.6190   45.4060 C   0  0  0  0  0  0  0  0  0  0  0  0
   59.6410   23.6090   45.5400 C   0  0  0  0  0  0  0  0  0  0  0  0
   59.2900   24.8800   46.0020 C   0  0  0  0  0  0  0  0  0  0  0  0
   57.9580   25.1720   46.3310 C   0  0  0  0  0  0  0  0  0  0  0  0
   57.6020   26.4940   46.7520 N   0  0  0  0  0  0  0  0  0  0  0  0
   58.5430   27.4530   47.2790 C   0  0  0  0  0  0  0  0  0  0  0  0
   59.5740   27.0660   48.1600 C   0  0  0  0  0  0  0  0  0  0  0  0
   60.4490   28.0170   48.6900 C   0  0  0  0  0  0  0  0  0  0  0  0
   60.3080   29.3620   48.3560 C   0  0  0  0  0  0  0  0  0  0  0  0
   59.3050   29.7600   47.4690 C   0  0  0  0  0  0  0  0  0  0  0  0
   58.4430   28.8080   46.8960 C   0  0  0  0  0  0  0  0  0  0  0  0
   57.4630   29.1860   45.9660 O   0  0  0  0  0  0  0  0  0  0  0  0
   57.5360   30.2780   45.0850 C   0  0  0  0  0  0  0  0  0  0  0  0
   57.3450   30.1440   43.6980 C   0  0  0  0  0  0  0  0  0  0  0  0
   57.4340   31.2610   42.8650 C   0  0  0  0  0  0  0  0  0  0  0  0
   57.6850   32.5230   43.4080 C   0  0  0  0  0  0  0  0  0  0  0  0
   57.8320   32.6820   44.7910 C   0  0  0  0  0  0  0  0  0  0  0  0
   58.0480   34.0020   45.3090 N   0  0  0  0  0  0  0  0  0  0  0  0
   59.4510   34.5300   46.1840 S   0  0  0  0  0  0  0  0  0  0  0  0
   59.2770   34.1500   47.9140 C   0  0  0  0  0  0  0  0  0  0  0  0
   60.6540   33.8080   45.6470 O   0  0  0  0  0  0  0  0  0  0  0  0
   59.6500   36.0070   45.9900 O   0  0  0  0  0  0  0  0  0  0  0  0
   57.7580   31.5510   45.6260 C   0  0  0  0  0  0  0  0  0  0  0  0
   50.7028   25.4964   44.3177 H   0  0  0  0  0  0  0  0  0  0  0  0
   51.9405   24.6697   43.3120 H   0  0  0  0  0  0  0  0  0  0  0  0
   50.2435   24.0807   43.3120 H   0  0  0  0  0  0  0  0  0  0  0  0
   49.3188   22.8779   45.2519 H   0  0  0  0  0  0  0  0  0  0  0  0
   49.8290   21.3473   47.1512 H   0  0  0  0  0  0  0  0  0  0  0  0
   52.1476   21.2081   48.0573 H   0  0  0  0  0  0  0  0  0  0  0  0
   53.9673   22.5841   47.0561 H   0  0  0  0  0  0  0  0  0  0  0  0
   56.5691   22.1127   45.6388 H   0  0  0  0  0  0  0  0  0  0  0  0
   58.9376   21.6236   45.0268 H   0  0  0  0  0  0  0  0  0  0  0  0
   60.6870   23.3872   45.2817 H   0  0  0  0  0  0  0  0  0  0  0  0
   60.0624   25.6559   46.1083 H   0  0  0  0  0  0  0  0  0  0  0  0
   56.6320   26.8140   46.5390 H   0  0  0  0  0  0  0  0  0  0  0  0
   59.6900   26.0065   48.4320 H   0  0  0  0  0  0  0  0  0  0  0  0
   61.2519   27.7029   49.3732 H   0  0  0  0  0  0  0  0  0  0  0  0
   60.9865   30.1107   48.7908 H   0  0  0  0  0  0  0  0  0  0  0  0
   59.1887   30.8245   47.2172 H   0  0  0  0  0  0  0  0  0  0  0  0
   57.1247   29.1558   43.2680 H   0  0  0  0  0  0  0  0  0  0  0  0
   57.3061   31.1467   41.7785 H   0  0  0  0  0  0  0  0  0  0  0  0
   57.7677   33.3970   42.7452 H   0  0  0  0  0  0  0  0  0  0  0  0
   59.6608   34.9883   48.5139 H   0  0  0  0  0  0  0  0  0  0  0  0
   58.2147   33.9874   48.1486 H   0  0  0  0  0  0  0  0  0  0  0  0
   59.8479   33.2395   48.1486 H   0  0  0  0  0  0  0  0  0  0  0  0
   57.8756   31.6679   46.7134 H   0  0  0  0  0  0  0  0  0  0  0  0
  1  2  1  0
  2  3  2  0
  3  4  1  0
  4  5  2  0
  5  6  1  0
  6  7  2  0
  7  8  1  0
  8  9  1  0
  9 10  2  0
  9 11  1  0
 11 12  1  0
 12 13  2  0
 13 14  1  0
 14 15  2  0
 15 16  1  0
 16 17  2  0
 17 18  1  0
 18 19  1  0
 19 20  2  0
 20 21  1  0
 21 22  2  0
 22 23  1  0
 23 24  2  0
 24 25  1  0
 25 26  1  0
 26 27  2  0
 27 28  1  0
 28 29  2  0
 29 30  1  0
 30 31  1  0
 31 32  1  0
 32 33  1  0
 32 34  2  0
 32 35  2  0
 30 36  2  0
  7  2  1  0
 17 12  1  0
 24 19  1  0
 36 26  1  0
  1 37  1  0
  1 38  1  0
  1 39  1  0
  3 40  1  0
  4 41  1  0
  5 42  1  0
  6 43  1  0
 13 44  1  0
 14 45  1  0
 15 46  1  0
 16 47  1  0
 18 48  1  0
 20 49  1  0
 21 50  1  0
 22 51  1  0
 23 52  1  0
 27 53  1  0
 28 54  1  0
 29 55  1  0
 33 56  1  0
 33 57  1  0
 33 58  1  0
 36 59  1  0
M  CHG  3   8  -1  11  -1  31  -1
M  END
>  <UniqueID>  (13) 
12

>  <SMILES>  (13) 
Cc1ccccc1[N-]C(=O)[N-]c1ccccc1Nc1ccccc1Oc1cccc([N-]S(C)(=O)=O)c1

>  <Energy>  (13) 
85.96964894776227

>  <Genealogy>  (13) 
Cc1ccccc1[N-]C(=O)[N-]c1ccccc1Nc1ccccc1Oc1cccc([N-]S(C)(=O)=O)c1 (protonated)
Cc1ccccc1[N-]C(=O)[N-]c1ccccc1Nc1ccccc1Oc1cccc([N-]S(C)(=O)=O)c1 (3D coordinates assigned)
Cc1ccccc1[N-]C(=O)[N-]c1ccccc1Nc1ccccc1Oc1cccc([N-]S(C)(=O)=O)c1 (optimized conformer: 85.96964894776227 kcal/mol)

>  <smiles>  (13) 
Cc1ccccc1NC(=O)Nc1ccccc1Nc1ccccc1Oc1cccc(NS(C)(=O)=O)c1

>  <score_type>  (13) 
oracle

>  <origin>  (13) 
adg

>  <m_score__min__energy>  (13) 
-13.470000000000001

>  <m_primary>  (13) 
energy

$$$$
13:0
     RDKit          3D

 49 51  0  0  0  0  0  0  0  0999 V2000
   64.6260   32.0070   47.2000 H   0  0  0  0  0  0  0  0  0  0  0  0
   63.8290   31.8310   47.8010 O   0  0  0  0  0  0  0  0  0  0  0  0
   62.5580   32.3040   47.4850 C   0  0  0  0  0  0  0  0  0  0  0  0
   61.4150   31.5930   47.8780 C   0  0  0  0  0  0  0  0  0  0  0  0
   61.5202   30.6546   48.4422 H   0  0  0  0  0  0  0  0  0  0  0  0
   60.1420   32.0730   47.5550 C   0  0  0  0  0  0  0  0  0  0  0  0
   59.0450   31.3760   47.9440 F   0  0  0  0  0  0  0  0  0  0  0  0
   59.9990   33.2590   46.8210 C   0  0  0  0  0  0  0  0  0  0  0  0
   58.6810   33.7370   46.5160 N   0  0  0  0  0  0  0  0  0  0  0  0
   57.9010   33.3860   45.3650 C   0  0  0  0  0  0  0  0  0  0  0  0
   57.4840   34.3050   44.6120 O   0  0  0  0  0  0  0  0  0  0  0  0
   57.5250   31.9930   45.0690 C   0  0  0  0  0  0  0  0  0  0  0  0
   56.2610   31.5970   44.8270 N   0  0  0  0  0  0  0  0  0  0  0  0
   56.2970   30.3120   44.6280 O   0  0  0  0  0  0  0  0  0  0  0  0
   57.5220   29.8450   44.7330 C   0  0  0  0  0  0  0  0  0  0  0  0
   57.9000   28.4170   44.5680 C   0  0  0  0  0  0  0  0  0  0  0  0
   58.3590   27.6800   45.6180 C   0  0  0  0  0  0  0  0  0  0  0  0
   57.4480   27.1440   46.6600 C   0  0  0  0  0  0  0  0  0  0  0  0
   57.7900   27.1930   47.8710 O   0  0  0  0  0  0  0  0  0  0  0  0
   56.2310   26.4860   46.2830 N   0  0  0  0  0  0  0  0  0  0  0  0
   56.1170   25.2830   45.5080 C   0  0  0  0  0  0  0  0  0  0  0  0
   57.1980   24.8920   44.7110 C   0  0  0  0  0  0  0  0  0  0  0  0
   58.1173   25.4960   44.7037 H   0  0  0  0  0  0  0  0  0  0  0  0
   57.1190   23.7400   43.9240 C   0  0  0  0  0  0  0  0  0  0  0  0
   57.9815   23.4360   43.3127 H   0  0  0  0  0  0  0  0  0  0  0  0
   55.9500   22.9700   43.9080 C   0  0  0  0  0  0  0  0  0  0  0  0
   55.9200   21.8210   43.1030 O   0  0  0  0  0  0  0  0  0  0  0  0
   56.9940   20.8930   42.9880 C   0  0  0  0  0  0  0  0  0  0  0  0
   57.3339   20.5993   43.9921 H   0  0  0  0  0  0  0  0  0  0  0  0
   56.6516   20.0018   42.4415 H   0  0  0  0  0  0  0  0  0  0  0  0
   57.8261   21.3610   42.4415 H   0  0  0  0  0  0  0  0  0  0  0  0
   54.8520   23.3720   44.6910 C   0  0  0  0  0  0  0  0  0  0  0  0
   53.9264   22.7776   44.6829 H   0  0  0  0  0  0  0  0  0  0  0  0
   54.9330   24.5250   45.4800 C   0  0  0  0  0  0  0  0  0  0  0  0
   54.0669   24.8396   46.0807 H   0  0  0  0  0  0  0  0  0  0  0  0
   59.8330   27.3830   45.7800 C   0  0  0  0  0  0  0  0  0  0  0  0
   60.0815   27.3329   46.8504 H   0  0  0  0  0  0  0  0  0  0  0  0
   60.0674   26.4196   45.3037 H   0  0  0  0  0  0  0  0  0  0  0  0
   60.4222   28.1805   45.3037 H   0  0  0  0  0  0  0  0  0  0  0  0
   57.7750   27.8160   43.1850 C   0  0  0  0  0  0  0  0  0  0  0  0
   57.5517   26.7423   43.2706 H   0  0  0  0  0  0  0  0  0  0  0  0
   56.9619   28.3173   42.6395 H   0  0  0  0  0  0  0  0  0  0  0  0
   58.7205   27.9515   42.6395 H   0  0  0  0  0  0  0  0  0  0  0  0
   58.3650   30.8980   45.0310 C   0  0  0  0  0  0  0  0  0  0  0  0
   59.4518   30.8705   45.1988 H   0  0  0  0  0  0  0  0  0  0  0  0
   61.1470   33.9820   46.4490 C   0  0  0  0  0  0  0  0  0  0  0  0
   61.0435   34.9302   45.9011 H   0  0  0  0  0  0  0  0  0  0  0  0
   62.4200   33.5000   46.7730 C   0  0  0  0  0  0  0  0  0  0  0  0
   63.5190   34.2010   46.4000 F   0  0  0  0  0  0  0  0  0  0  0  0
  1  2  1  0
  2  3  1  0
  3  4  2  0
  4  5  1  0
  4  6  1  0
  6  7  1  0
  6  8  2  0
  8  9  1  0
  9 10  1  0
 10 11  2  0
 10 12  1  0
 12 13  2  0
 13 14  1  0
 14 15  1  0
 15 16  1  0
 16 17  2  0
 17 18  1  0
 18 19  2  0
 18 20  1  0
 20 21  1  0
 21 22  2  0
 22 23  1  0
 22 24  1  0
 24 25  1  0
 24 26  2  0
 26 27  1  0
 27 28  1  0
 28 29  1  0
 28 30  1  0
 28 31  1  0
 26 32  1  0
 32 33  1  0
 32 34  2  0
 34 35  1  0
 17 36  1  0
 36 37  1  0
 36 38  1  0
 36 39  1  0
 16 40  1  0
 40 41  1  0
 40 42  1  0
 40 43  1  0
 15 44  2  0
 44 45  1  0
  8 46  1  0
 46 47  1  0
 46 48  2  0
 48 49  1  0
 48  3  1  0
 44 12  1  0
 34 21  1  0
M  CHG  2   9  -1  20  -1
M  END
>  <UniqueID>  (14) 
13

>  <SMILES>  (14) 
COc1ccc([N-]C(=O)/C(C)=C(\C)c2cc(C(=O)[N-]c3cc(F)c(O)cc3F)no2)cc1

>  <Energy>  (14) 
98.87238915065822

>  <Genealogy>  (14) 
COc1ccc([N-]C(=O)C(C)=C(C)c2cc(C(=O)[N-]c3cc(F)c(O)cc3F)no2)cc1 (protonated)
COc1ccc([N-]C(=O)/C(C)=C(\C)c2cc(C(=O)[N-]c3cc(F)c(O)cc3F)no2)cc1 (cis-trans isomerization)
COc1ccc([N-]C(=O)/C(C)=C(\C)c2cc(C(=O)[N-]c3cc(F)c(O)cc3F)no2)cc1 (3D coordinates assigned)
COc1ccc([N-]C(=O)/C(C)=C(\C)c2cc(C(=O)[N-]c3cc(F)c(O)cc3F)no2)cc1 (optimized conformer: 98.87238915065822 kcal/mol)

>  <smiles>  (14) 
COc1ccc(NC(=O)C(C)=C(C)c2cc(C(=O)Nc3cc(F)c(O)cc3F)no2)cc1

>  <score_type>  (14) 
oracle

>  <origin>  (14) 
adg

>  <m_score__min__energy>  (14) 
-12.869999999999999

>  <m_primary>  (14) 
energy

$$$$
14:0
     RDKit          3D

 65 67  0  0  0  0  0  0  0  0999 V2000
   57.4000   34.0020   44.9360 C   0  0  0  0  0  0  0  0  0  0  0  0
   57.7800   32.6480   45.4660 C   0  0  0  0  0  0  0  0  0  0  0  0
   57.2310   31.5630   44.8710 N   0  0  0  0  0  0  0  0  0  0  0  0
   57.4850   30.2890   45.2560 C   0  0  0  0  0  0  0  0  0  0  0  0
   56.7140   29.0110   44.3080 S   0  0  0  0  0  0  0  0  0  0  0  0
   55.5160   29.7200   43.1980 C   0  0  0  0  0  0  0  0  0  0  0  0
   57.7300   28.2150   43.5390 O   0  0  0  0  0  0  0  0  0  0  0  0
   55.9980   28.0780   45.2430 O   0  0  0  0  0  0  0  0  0  0  0  0
   58.3500   30.0460   46.3530 C   0  0  0  0  0  0  0  0  0  0  0  0
   58.5810   28.6350   46.8770 C   0  0  0  0  0  0  0  0  0  0  0  0
   58.8780   27.7100   45.7820 N   0  0  0  0  0  0  0  0  0  0  0  0
   58.9450   31.1630   47.0020 C   0  0  0  0  0  0  0  0  0  0  0  0
   59.7770   30.9690   48.2150 C   0  0  0  0  0  0  0  0  0  0  0  0
   61.1560   30.7320   48.1120 C   0  0  0  0  0  0  0  0  0  0  0  0
   61.9340   30.5890   49.2640 C   0  0  0  0  0  0  0  0  0  0  0  0
   61.3470   30.7040   50.5350 C   0  0  0  0  0  0  0  0  0  0  0  0
   62.1750   30.5450   51.7480 C   0  0  0  0  0  0  0  0  0  0  0  0
   62.3220   31.5380   52.5140 O   0  0  0  0  0  0  0  0  0  0  0  0
   62.8080   29.2910   52.0770 N   0  0  0  0  0  0  0  0  0  0  0  0
   62.2000   28.0200   51.6670 C   0  0  0  0  0  0  0  0  0  0  0  0
   63.9850   29.2950   52.9520 C   0  0  0  0  0  0  0  0  0  0  0  0
   59.9640   30.9250   50.6360 C   0  0  0  0  0  0  0  0  0  0  0  0
   59.1870   31.0660   49.4850 C   0  0  0  0  0  0  0  0  0  0  0  0
   58.7030   32.4780   46.5210 C   0  0  0  0  0  0  0  0  0  0  0  0
   59.4460   33.6840   47.0890 C   0  0  0  0  0  0  0  0  0  0  0  0
   59.5120   33.6400   48.5030 O   0  0  0  0  0  0  0  0  0  0  0  0
   60.4380   34.5850   49.0170 C   0  0  0  0  0  0  0  0  0  0  0  0
   61.8310   34.0150   48.9630 C   0  0  0  0  0  0  0  0  0  0  0  0
   62.4490   33.7430   47.7310 C   0  0  0  0  0  0  0  0  0  0  0  0
   63.7600   33.2660   47.6910 C   0  0  0  0  0  0  0  0  0  0  0  0
   64.4690   33.0590   48.8760 C   0  0  0  0  0  0  0  0  0  0  0  0
   63.8630   33.3190   50.1140 C   0  0  0  0  0  0  0  0  0  0  0  0
   64.5890   33.1100   51.3280 N   0  0  0  0  0  0  0  0  0  0  0  0
   62.5430   33.7940   50.1530 C   0  0  0  0  0  0  0  0  0  0  0  0
   57.2085   34.6845   45.7772 H   0  0  0  0  0  0  0  0  0  0  0  0
   58.2214   34.3990   44.3215 H   0  0  0  0  0  0  0  0  0  0  0  0
   56.4920   33.9136   44.3215 H   0  0  0  0  0  0  0  0  0  0  0  0
   54.7129   30.1953   43.7803 H   0  0  0  0  0  0  0  0  0  0  0  0
   56.0049   30.4743   42.5640 H   0  0  0  0  0  0  0  0  0  0  0  0
   55.0901   28.9284   42.5640 H   0  0  0  0  0  0  0  0  0  0  0  0
   59.4285   28.6461   47.5782 H   0  0  0  0  0  0  0  0  0  0  0  0
   57.6656   28.2954   47.3836 H   0  0  0  0  0  0  0  0  0  0  0  0
   59.3240   28.2390   44.9970 H   0  0  0  0  0  0  0  0  0  0  0  0
   58.0020   27.2590   45.4330 H   0  0  0  0  0  0  0  0  0  0  0  0
   59.5420   26.9710   46.1050 H   0  0  0  0  0  0  0  0  0  0  0  0
   61.6266   30.6585   47.1205 H   0  0  0  0  0  0  0  0  0  0  0  0
   63.0113   30.3854   49.1751 H   0  0  0  0  0  0  0  0  0  0  0  0
   61.9230   27.4410   52.5603 H   0  0  0  0  0  0  0  0  0  0  0  0
   61.3004   28.2207   51.0667 H   0  0  0  0  0  0  0  0  0  0  0  0
   62.9208   27.4455   51.0667 H   0  0  0  0  0  0  0  0  0  0  0  0
   63.6605   29.2939   54.0031 H   0  0  0  0  0  0  0  0  0  0  0  0
   64.5917   28.3989   52.7546 H   0  0  0  0  0  0  0  0  0  0  0  0
   64.5856   30.1952   52.7546 H   0  0  0  0  0  0  0  0  0  0  0  0
   59.4906   30.9873   51.6270 H   0  0  0  0  0  0  0  0  0  0  0  0
   58.1068   31.2541   49.5736 H   0  0  0  0  0  0  0  0  0  0  0  0
   60.4689   33.6955   46.6845 H   0  0  0  0  0  0  0  0  0  0  0  0
   58.8975   34.5924   46.7993 H   0  0  0  0  0  0  0  0  0  0  0  0
   60.3956   35.5036   48.4133 H   0  0  0  0  0  0  0  0  0  0  0  0
   60.1800   34.8157   50.0611 H   0  0  0  0  0  0  0  0  0  0  0  0
   61.8971   33.9067   46.7937 H   0  0  0  0  0  0  0  0  0  0  0  0
   64.2363   33.0524   46.7228 H   0  0  0  0  0  0  0  0  0  0  0  0
   65.5050   32.6912   48.8386 H   0  0  0  0  0  0  0  0  0  0  0  0
   65.5510   33.5000   51.4490 H   0  0  0  0  0  0  0  0  0  0  0  0
   64.1760   32.5510   52.1080 H   0  0  0  0  0  0  0  0  0  0  0  0
   62.0629   33.9945   51.1222 H   0  0  0  0  0  0  0  0  0  0  0  0
  1  2  1  0
  2  3  2  0
  3  4  1  0
  4  5  1  0
  5  6  1  0
  5  7  2  0
  5  8  2  0
  4  9  2  0
  9 10  1  0
 10 11  1  0
  9 12  1  0
 12 13  1  0
 13 14  2  0
 14 15  1  0
 15 16  2  0
 16 17  1  0
 17 18  2  0
 17 19  1  0
 19 20  1  0
 19 21  1  0
 16 22  1  0
 22 23  2  0
 12 24  2  0
 24 25  1  0
 25 26  1  0
 26 27  1  0
 27 28  1  0
 28 29  2  0
 29 30  1  0
 30 31  2  0
 31 32  1  0
 32 33  1  0
 32 34  2  0
 24  2  1  0
 34 28  1  0
 23 13  1  0
  1 35  1  0
  1 36  1  0
  1 37  1  0
  6 38  1  0
  6 39  1  0
  6 40  1  0
 10 41  1  0
 10 42  1  0
 11 43  1  0
 11 44  1  0
 11 45  1  0
 14 46  1  0
 15 47  1  0
 20 48  1  0
 20 49  1  0
 20 50  1  0
 21 51  1  0
 21 52  1  0
 21 53  1  0
 22 54  1  0
 23 55  1  0
 25 56  1  0
 25 57  1  0
 27 58  1  0
 27 59  1  0
 29 60  1  0
 30 61  1  0
 31 62  1  0
 33 63  1  0
 33 64  1  0
 34 65  1  0
M  CHG  1  11   1
M  END
>  <UniqueID>  (15) 
14

>  <SMILES>  (15) 
Cc1nc(S(C)(=O)=O)c(C[NH3+])c(-c2ccc(C(=O)N(C)C)cc2)c1COCc1cccc(N)c1

>  <Energy>  (15) 
78.38859225361146

>  <Genealogy>  (15) 
Cc1nc(S(C)(=O)=O)c(C[NH3+])c(-c2ccc(C(=O)N(C)C)cc2)c1COCc1cccc(N)c1 (protonated)
Cc1nc(S(C)(=O)=O)c(C[NH3+])c(-c2ccc(C(=O)N(C)C)cc2)c1COCc1cccc(N)c1 (3D coordinates assigned)
Cc1nc(S(C)(=O)=O)c(C[NH3+])c(-c2ccc(C(=O)N(C)C)cc2)c1COCc1cccc(N)c1 (optimized conformer: 78.38859225361146 kcal/mol)

>  <smiles>  (15) 
Cc1nc(S(C)(=O)=O)c(CN)c(-c2ccc(C(=O)N(C)C)cc2)c1COCc1cccc(N)c1

>  <score_type>  (15) 
oracle

>  <origin>  (15) 
adg

>  <m_score__min__energy>  (15) 
-6.9699999999999998

>  <m_primary>  (15) 
energy

$$$$
15:0
     RDKit          3D

 49 51  0  0  0  0  0  0  0  0999 V2000
   56.0750   29.3620   44.4660 C   0  0  0  0  0  0  0  0  0  0  0  0
   57.5420   29.0880   44.6310 C   0  0  0  0  0  0  0  0  0  0  0  0
   58.5540   30.0300   44.7370 C   0  0  0  0  0  0  0  0  0  0  0  0
   58.4280   31.4960   44.7930 C   0  0  0  0  0  0  0  0  0  0  0  0
   58.4800   32.1520   43.7180 O   0  0  0  0  0  0  0  0  0  0  0  0
   58.3060   32.1860   46.0500 N   0  0  0  0  0  0  0  0  0  0  0  0
   59.0340   31.6890   47.2280 C   0  0  0  0  0  0  0  0  0  0  0  0
   59.1230   32.7580   48.3290 C   0  0  0  0  0  0  0  0  0  0  0  0
   59.4630   34.1450   47.7450 C   0  0  0  0  0  0  0  0  0  0  0  0
   60.9010   34.1730   47.2590 C   0  0  0  0  0  0  0  0  0  0  0  0
   61.1410   34.4850   46.0600 O   0  0  0  0  0  0  0  0  0  0  0  0
   61.9940   33.7900   48.1160 N   0  0  0  0  0  0  0  0  0  0  0  0
   61.8540   33.3310   49.4880 C   0  0  0  0  0  0  0  0  0  0  0  0
   63.2400   32.8610   49.9080 C   0  0  0  0  0  0  0  0  0  0  0  0
   64.2100   33.4680   48.9000 C   0  0  0  0  0  0  0  0  0  0  0  0
   63.3770   33.8010   47.6700 C   0  0  0  0  0  0  0  0  0  0  0  0
   58.4640   34.5820   46.6320 C   0  0  0  0  0  0  0  0  0  0  0  0
   57.5570   33.4450   46.1370 C   0  0  0  0  0  0  0  0  0  0  0  0
   59.7390   29.3300   44.7810 C   0  0  0  0  0  0  0  0  0  0  0  0
   59.4900   28.0420   44.7200 O   0  0  0  0  0  0  0  0  0  0  0  0
   58.1920   27.8550   44.6130 C   0  0  0  0  0  0  0  0  0  0  0  0
   57.6110   26.5000   44.5250 C   0  0  0  0  0  0  0  0  0  0  0  0
   57.2780   25.7660   45.5920 C   0  0  0  0  0  0  0  0  0  0  0  0
   55.8950   25.6980   46.0880 C   0  0  0  0  0  0  0  0  0  0  0  0
   55.1470   26.7050   45.9840 O   0  0  0  0  0  0  0  0  0  0  0  0
   55.3990   24.5390   46.6740 O   0  0  0  0  0  0  0  0  0  0  0  0
   55.6047   29.4498   45.4565 H   0  0  0  0  0  0  0  0  0  0  0  0
   55.9377   30.3013   43.9103 H   0  0  0  0  0  0  0  0  0  0  0  0
   55.6079   28.5356   43.9103 H   0  0  0  0  0  0  0  0  0  0  0  0
   58.5094   30.8083   47.6268 H   0  0  0  0  0  0  0  0  0  0  0  0
   60.0565   31.4288   46.9168 H   0  0  0  0  0  0  0  0  0  0  0  0
   58.1555   32.8167   48.8491 H   0  0  0  0  0  0  0  0  0  0  0  0
   59.9251   32.4706   49.0247 H   0  0  0  0  0  0  0  0  0  0  0  0
   59.3575   34.8841   48.5529 H   0  0  0  0  0  0  0  0  0  0  0  0
   61.5154   34.1536   50.1351 H   0  0  0  0  0  0  0  0  0  0  0  0
   61.1090   32.5262   49.5731 H   0  0  0  0  0  0  0  0  0  0  0  0
   63.4725   33.2143   50.9234 H   0  0  0  0  0  0  0  0  0  0  0  0
   63.3071   31.7631   49.9227 H   0  0  0  0  0  0  0  0  0  0  0  0
   64.6680   34.3799   49.3106 H   0  0  0  0  0  0  0  0  0  0  0  0
   65.0288   32.7743   48.6583 H   0  0  0  0  0  0  0  0  0  0  0  0
   63.6467   34.7942   47.2817 H   0  0  0  0  0  0  0  0  0  0  0  0
   63.5469   33.0793   46.8574 H   0  0  0  0  0  0  0  0  0  0  0  0
   57.8276   35.3851   47.0320 H   0  0  0  0  0  0  0  0  0  0  0  0
   59.0646   34.9125   45.7718 H   0  0  0  0  0  0  0  0  0  0  0  0
   56.7194   33.3194   46.8389 H   0  0  0  0  0  0  0  0  0  0  0  0
   57.1801   33.7028   45.1362 H   0  0  0  0  0  0  0  0  0  0  0  0
   60.7399   29.7802   44.8557 H   0  0  0  0  0  0  0  0  0  0  0  0
   57.4429   26.0708   43.5263 H   0  0  0  0  0  0  0  0  0  0  0  0
   58.0611   25.1965   46.1139 H   0  0  0  0  0  0  0  0  0  0  0  0
  1  2  1  0
  2  3  1  0
  3  4  1  0
  4  5  2  0
  4  6  1  0
  6  7  1  0
  7  8  1  0
  8  9  1  0
  9 10  1  0
 10 11  2  0
 10 12  1  0
 12 13  1  0
 13 14  1  0
 14 15  1  0
 15 16  1  0
  9 17  1  0
 17 18  1  0
  3 19  2  0
 19 20  1  0
 20 21  1  0
 21 22  1  0
 22 23  2  3
 23 24  1  0
 24 25  2  0
 24 26  1  0
 21  2  2  0
 18  6  1  0
 16 12  1  0
  1 27  1  0
  1 28  1  0
  1 29  1  0
  7 30  1  0
  7 31  1  0
  8 32  1  0
  8 33  1  0
  9 34  1  0
 13 35  1  0
 13 36  1  0
 14 37  1  0
 14 38  1  0
 15 39  1  0
 15 40  1  0
 16 41  1  0
 16 42  1  0
 17 43  1  0
 17 44  1  0
 18 45  1  0
 18 46  1  0
 19 47  1  0
 22 48  1  0
 23 49  1  0
M  CHG  1  26  -1
M  END
>  <UniqueID>  (16) 
15

>  <SMILES>  (16) 
Cc1c(C(=O)N2CCC(C(=O)N3CCCC3)CC2)coc1C=CC(=O)[O-]

>  <Energy>  (16) 
85.00744754379939

>  <Genealogy>  (16) 
Cc1c(C(=O)N2CCC(C(=O)N3CCCC3)CC2)coc1C=CC(=O)[O-] (protonated)
Cc1c(C(=O)N2CCC(C(=O)N3CCCC3)CC2)coc1C=CC(=O)[O-] (3D coordinates assigned)
Cc1c(C(=O)N2CCC(C(=O)N3CCCC3)CC2)coc1C=CC(=O)[O-] (nonaromatic ring conformer: 85.00744754379939 kcal/mol)

>  <smiles>  (16) 
Cc1c(C(=O)N2CCC(C(=O)N3CCCC3)CC2)coc1C=CC(=O)O

>  <score_type>  (16) 
oracle

>  <origin>  (16) 
adg

>  <m_score__min__energy>  (16) 
-12.34

>  <m_primary>  (16) 
energy

$$$$
16:0
     RDKit          3D

 55 59  0  0  0  0  0  0  0  0999 V2000
   56.6569   21.9770   41.5348 H   0  0  0  0  0  0  0  0  0  0  0  0
   56.6090   22.0890   42.6280 C   0  0  0  0  0  0  0  0  0  0  0  0
   56.7280   20.9960   43.4280 N   0  0  0  0  0  0  0  0  0  0  0  0
   56.6810   21.0920   44.7850 C   0  0  0  0  0  0  0  0  0  0  0  0
   56.8270   19.8640   45.6240 C   0  0  0  0  0  0  0  0  0  0  0  0
   56.7941   20.1409   46.6881 H   0  0  0  0  0  0  0  0  0  0  0  0
   56.0053   19.1676   45.4008 H   0  0  0  0  0  0  0  0  0  0  0  0
   57.7891   19.3796   45.4008 H   0  0  0  0  0  0  0  0  0  0  0  0
   56.4950   22.3440   45.3880 C   0  0  0  0  0  0  0  0  0  0  0  0
   56.4628   22.4302   46.4841 H   0  0  0  0  0  0  0  0  0  0  0  0
   56.3500   23.4870   44.5860 C   0  0  0  0  0  0  0  0  0  0  0  0
   56.1670   24.8250   45.1850 C   0  0  0  0  0  0  0  0  0  0  0  0
   55.1280   25.1500   45.9930 N   0  0  0  0  0  0  0  0  0  0  0  0
   55.2410   26.4220   46.3610 N   0  0  0  0  0  0  0  0  0  0  0  0
   56.3590   26.9050   45.7920 C   0  0  0  0  0  0  0  0  0  0  0  0
   56.8860   28.1840   45.9120 C   0  0  0  0  0  0  0  0  0  0  0  0
   56.3765   28.9591   46.5033 H   0  0  0  0  0  0  0  0  0  0  0  0
   58.1090   28.4520   45.2410 C   0  0  0  0  0  0  0  0  0  0  0  0
   58.6780   29.6250   45.2490 N   0  0  0  0  0  0  0  0  0  0  0  0
   58.1050   30.9020   45.5700 C   0  0  0  0  0  0  0  0  0  0  0  0
   57.0040   31.2180   45.0460 O   0  0  0  0  0  0  0  0  0  0  0  0
   58.8140   31.8570   46.3760 N   0  0  0  0  0  0  0  0  0  0  0  0
   59.8180   31.6610   46.5910 H   0  0  0  0  0  0  0  0  0  0  0  0
   58.2460   33.1690   46.7340 C   0  0  2  0  0  0  0  0  0  0  0  0
   57.7010   33.0031   47.6750 H   0  0  0  0  0  0  0  0  0  0  0  0
   57.3720   33.6970   45.5960 C   0  0  0  0  0  0  0  0  0  0  0  0
   56.9253   32.8602   45.0390 H   0  0  0  0  0  0  0  0  0  0  0  0
   56.5468   34.3153   45.9791 H   0  0  0  0  0  0  0  0  0  0  0  0
   58.2980   34.5070   44.6840 C   0  0  0  0  0  0  0  0  0  0  0  0
   58.4743   33.9626   43.7446 H   0  0  0  0  0  0  0  0  0  0  0  0
   57.8491   35.4788   44.4307 H   0  0  0  0  0  0  0  0  0  0  0  0
   59.6150   34.6930   45.4390 C   0  0  0  0  0  0  0  0  0  0  0  0
   60.4052   34.0708   44.9934 H   0  0  0  0  0  0  0  0  0  0  0  0
   59.9666   35.7345   45.3973 H   0  0  0  0  0  0  0  0  0  0  0  0
   59.3280   34.2470   46.8730 C   0  0  2  0  0  0  0  0  0  0  0  0
   58.9778   35.0877   47.4900 H   0  0  0  0  0  0  0  0  0  0  0  0
   60.5480   33.8210   47.6600 C   0  0  0  0  0  0  0  0  0  0  0  0
   61.4770   32.9920   47.1080 N   0  0  0  0  0  0  0  0  0  0  0  0
   62.5580   32.5430   47.8030 C   0  0  0  0  0  0  0  0  0  0  0  0
   63.5160   31.5960   47.1530 C   0  0  0  0  0  0  0  0  0  0  0  0
   64.0714   31.0470   47.9277 H   0  0  0  0  0  0  0  0  0  0  0  0
   62.9592   30.8835   46.5266 H   0  0  0  0  0  0  0  0  0  0  0  0
   64.2220   32.1610   46.5266 H   0  0  0  0  0  0  0  0  0  0  0  0
   62.7270   32.9210   49.1410 C   0  0  0  0  0  0  0  0  0  0  0  0
   63.5884   32.5538   49.7181 H   0  0  0  0  0  0  0  0  0  0  0  0
   61.7900   33.7690   49.7340 C   0  0  0  0  0  0  0  0  0  0  0  0
   61.9154   34.0815   50.7812 H   0  0  0  0  0  0  0  0  0  0  0  0
   60.6940   34.2200   48.9970 C   0  0  0  0  0  0  0  0  0  0  0  0
   59.9498   34.8838   49.4613 H   0  0  0  0  0  0  0  0  0  0  0  0
   58.7070   27.4510   44.5170 N   0  0  0  0  0  0  0  0  0  0  0  0
   58.1780   26.1960   44.4110 C   0  0  0  0  0  0  0  0  0  0  0  0
   58.6915   25.4115   43.8358 H   0  0  0  0  0  0  0  0  0  0  0  0
   56.9710   25.9400   45.0520 C   0  0  0  0  0  0  0  0  0  0  0  0
   56.4260   23.3540   43.1920 C   0  0  0  0  0  0  0  0  0  0  0  0
   56.3420   24.2406   42.5464 H   0  0  0  0  0  0  0  0  0  0  0  0
  1  2  1  0
  2  3  2  0
  3  4  1  0
  4  5  1  0
  5  6  1  0
  5  7  1  0
  5  8  1  0
  4  9  2  0
  9 10  1  0
  9 11  1  0
 11 12  1  0
 12 13  2  0
 13 14  1  0
 14 15  1  0
 15 16  2  0
 16 17  1  0
 16 18  1  0
 18 19  2  0
 19 20  1  0
 20 21  2  0
 20 22  1  0
 22 23  1  0
 22 24  1  0
 24 25  1  1
 24 26  1  0
 26 27  1  0
 26 28  1  0
 26 29  1  0
 29 30  1  0
 29 31  1  0
 29 32  1  0
 32 33  1  0
 32 34  1  0
 32 35  1  0
 35 36  1  1
 35 37  1  0
 37 38  2  0
 38 39  1  0
 39 40  1  0
 40 41  1  0
 40 42  1  0
 40 43  1  0
 39 44  2  0
 44 45  1  0
 44 46  1  0
 46 47  1  0
 46 48  2  0
 48 49  1  0
 18 50  1  0
 50 51  1  0
 51 52  1  0
 51 53  2  0
 11 54  2  0
 54 55  1  0
 54  2  1  0
 53 12  1  0
 53 15  1  0
 35 24  1  0
 48 37  1  0
M  CHG  2  14  -1  50  -1
M  END
>  <UniqueID>  (17) 
16

>  <SMILES>  (17) 
Cc1cc(-c2n[n-]c3c/c(=N\C(=O)N[C@@H]4CCC[C@@H]4c4cccc(C)n4)[n-]cc23)ccn1

>  <Energy>  (17) 
110.33678438124711

>  <Genealogy>  (17) 
Cc1cc(-c2n[n-]c3cc(=NC(=O)NC4CCCC4c4cccc(C)n4)[n-]cc23)ccn1 (protonated)
Cc1cc(-c2n[n-]c3cc(=NC(=O)N[C@@H]4CCC[C@@H]4c4cccc(C)n4)[n-]cc23)ccn1 (chirality)
Cc1cc(-c2n[n-]c3c/c(=N\C(=O)N[C@@H]4CCC[C@@H]4c4cccc(C)n4)[n-]cc23)ccn1 (cis-trans isomerization)
Cc1cc(-c2n[n-]c3c/c(=N\C(=O)N[C@@H]4CCC[C@@H]4c4cccc(C)n4)[n-]cc23)ccn1 (3D coordinates assigned)
Cc1cc(-c2n[n-]c3c/c(=N\C(=O)N[C@@H]4CCC[C@@H]4c4cccc(C)n4)[n-]cc23)ccn1 (nonaromatic ring conformer: 110.33678438124711 kcal/mol)

>  <smiles>  (17) 
Cc1cc(-c2n[nH]c3cc(=NC(=O)NC4CCCC4c4cccc(C)n4)[nH]cc23)ccn1

>  <score_type>  (17) 
oracle

>  <origin>  (17) 
adg

>  <m_score__min__energy>  (17) 
-13.970000000000001

>  <m_primary>  (17) 
energy

$$$$
17:0
     RDKit          3D

 58 61  0  0  0  0  0  0  0  0999 V2000
   58.7560   21.1975   44.7826 H   0  0  0  0  0  0  0  0  0  0  0  0
   58.0550   21.4880   45.5790 C   0  0  0  0  0  0  0  0  0  0  0  0
   57.4320   20.5050   46.3530 C   0  0  0  0  0  0  0  0  0  0  0  0
   57.6479   19.4424   46.1679 H   0  0  0  0  0  0  0  0  0  0  0  0
   56.5350   20.8690   47.3620 C   0  0  0  0  0  0  0  0  0  0  0  0
   56.0474   20.0927   47.9699 H   0  0  0  0  0  0  0  0  0  0  0  0
   56.2550   22.2290   47.6010 C   0  0  0  0  0  0  0  0  0  0  0  0
   55.3450   22.6380   48.5840 O   0  0  0  0  0  0  0  0  0  0  0  0
   54.7760   21.7750   49.5610 C   0  0  0  0  0  0  0  0  0  0  0  0
   55.0214   22.1473   50.5666 H   0  0  0  0  0  0  0  0  0  0  0  0
   53.6834   21.7495   49.4360 H   0  0  0  0  0  0  0  0  0  0  0  0
   55.1831   20.7608   49.4360 H   0  0  0  0  0  0  0  0  0  0  0  0
   56.8940   23.2110   46.8240 C   0  0  0  0  0  0  0  0  0  0  0  0
   56.6120   24.5940   47.0380 N   0  0  0  0  0  0  0  0  0  0  0  0
   56.2550   25.6420   45.7080 S   0  0  0  0  0  0  0  0  0  0  0  0
   56.1440   24.8240   44.4530 O   0  0  0  0  0  0  0  0  0  0  0  0
   54.9410   26.3390   45.9460 O   0  0  0  0  0  0  0  0  0  0  0  0
   57.5450   26.8310   45.5330 C   0  0  0  0  0  0  0  0  0  0  0  0
   58.0910   27.1130   44.2710 C   0  0  0  0  0  0  0  0  0  0  0  0
   57.6681   26.6415   43.3716 H   0  0  0  0  0  0  0  0  0  0  0  0
   59.1700   27.9910   44.1560 C   0  0  0  0  0  0  0  0  0  0  0  0
   59.5919   28.2156   43.1653 H   0  0  0  0  0  0  0  0  0  0  0  0
   59.7150   28.5850   45.2970 C   0  0  0  0  0  0  0  0  0  0  0  0
   60.5675   29.2734   45.1998 H   0  0  0  0  0  0  0  0  0  0  0  0
   59.1810   28.3090   46.5710 C   0  0  0  0  0  0  0  0  0  0  0  0
   59.7610   28.9320   47.7830 C   0  0  0  0  0  0  0  0  0  0  0  0
   59.1630   28.8290   48.8900 O   0  0  0  0  0  0  0  0  0  0  0  0
   61.0190   29.6150   47.7120 N   0  0  0  0  0  0  0  0  0  0  0  0
   61.1980   31.0020   47.3990 C   0  0  0  0  0  0  0  0  0  0  0  0
   62.4860   31.5500   47.4590 C   0  0  0  0  0  0  0  0  0  0  0  0
   63.3343   30.9241   47.7732 H   0  0  0  0  0  0  0  0  0  0  0  0
   62.6960   32.8890   47.1210 C   0  0  0  0  0  0  0  0  0  0  0  0
   63.7050   33.3212   47.1930 H   0  0  0  0  0  0  0  0  0  0  0  0
   61.6260   33.6820   46.6910 C   0  0  0  0  0  0  0  0  0  0  0  0
   61.7987   34.7327   46.4148 H   0  0  0  0  0  0  0  0  0  0  0  0
   60.3330   33.1410   46.6110 C   0  0  0  0  0  0  0  0  0  0  0  0
   58.9970   34.1350   46.0310 S   0  0  0  0  0  0  0  0  0  0  0  0
   58.5820   35.1340   47.0730 O   0  0  0  0  0  0  0  0  0  0  0  0
   59.4450   34.8990   44.8170 O   0  0  0  0  0  0  0  0  0  0  0  0
   57.6590   33.1240   45.5830 N   0  0  0  0  0  0  0  0  0  0  0  0
   57.5510   32.4470   44.4790 C   0  0  0  0  0  0  0  0  0  0  0  0
   58.0680   32.8520   43.2270 N   0  0  0  0  0  0  0  0  0  0  0  0
   58.6580   33.6830   43.0420 H   0  0  0  0  0  0  0  0  0  0  0  0
   57.7750   31.8500   42.2240 C   0  0  0  0  0  0  0  0  0  0  0  0
   58.7047   31.3798   41.8709 H   0  0  0  0  0  0  0  0  0  0  0  0
   57.2786   32.2917   41.3474 H   0  0  0  0  0  0  0  0  0  0  0  0
   56.8770   30.8070   42.9130 C   0  0  0  0  0  0  0  0  0  0  0  0
   57.2794   29.7962   42.7508 H   0  0  0  0  0  0  0  0  0  0  0  0
   55.8571   30.8347   42.5018 H   0  0  0  0  0  0  0  0  0  0  0  0
   56.8720   31.1380   44.4120 C   0  0  0  0  0  0  0  0  0  0  0  0
   57.4252   30.3786   44.9840 H   0  0  0  0  0  0  0  0  0  0  0  0
   55.8600   31.1582   44.8426 H   0  0  0  0  0  0  0  0  0  0  0  0
   60.1210   31.8030   46.9660 C   0  0  0  0  0  0  0  0  0  0  0  0
   59.1095   31.3747   46.9068 H   0  0  0  0  0  0  0  0  0  0  0  0
   58.0870   27.4320   46.6750 C   0  0  0  0  0  0  0  0  0  0  0  0
   57.6532   27.2163   47.6626 H   0  0  0  0  0  0  0  0  0  0  0  0
   57.7890   22.8380   45.8150 C   0  0  0  0  0  0  0  0  0  0  0  0
   58.2837   23.6097   45.2069 H   0  0  0  0  0  0  0  0  0  0  0  0
  1  2  1  0
  2  3  2  0
  3  4  1  0
  3  5  1  0
  5  6  1  0
  5  7  2  0
  7  8  1  0
  8  9  1  0
  9 10  1  0
  9 11  1  0
  9 12  1  0
  7 13  1  0
 13 14  1  0
 14 15  1  0
 15 16  2  0
 15 17  2  0
 15 18  1  0
 18 19  2  0
 19 20  1  0
 19 21  1  0
 21 22  1  0
 21 23  2  0
 23 24  1  0
 23 25  1  0
 25 26  1  0
 26 27  2  0
 26 28  1  0
 28 29  1  0
 29 30  2  0
 30 31  1  0
 30 32  1  0
 32 33  1  0
 32 34  2  0
 34 35  1  0
 34 36  1  0
 36 37  1  0
 37 38  2  0
 37 39  2  0
 37 40  1  0
 40 41  2  0
 41 42  1  0
 42 43  1  0
 42 44  1  0
 44 45  1  0
 44 46  1  0
 44 47  1  0
 47 48  1  0
 47 49  1  0
 47 50  1  0
 50 51  1  0
 50 52  1  0
 36 53  2  0
 53 54  1  0
 25 55  2  0
 55 56  1  0
 13 57  2  0
 57 58  1  0
 57  2  1  0
 55 18  1  0
 53 29  1  0
 50 41  1  0
M  CHG  2  14  -1  28  -1
M  END
>  <UniqueID>  (18) 
17

>  <SMILES>  (18) 
COc1ccccc1[N-]S(=O)(=O)c1cccc(C(=O)[N-]c2cccc(S(=O)(=O)/N=C3/CCCN3)c2)c1

>  <Energy>  (18) 
82.79437614353823

>  <Genealogy>  (18) 
COc1ccccc1[N-]S(=O)(=O)c1cccc(C(=O)[N-]c2cccc(S(=O)(=O)N=C3CCCN3)c2)c1 (protonated)
COc1ccccc1[N-]S(=O)(=O)c1cccc(C(=O)[N-]c2cccc(S(=O)(=O)/N=C3/CCCN3)c2)c1 (cis-trans isomerization)
COc1ccccc1[N-]S(=O)(=O)c1cccc(C(=O)[N-]c2cccc(S(=O)(=O)/N=C3/CCCN3)c2)c1 (3D coordinates assigned)
COc1ccccc1[N-]S(=O)(=O)c1cccc(C(=O)[N-]c2cccc(S(=O)(=O)/N=C3/CCCN3)c2)c1 (nonaromatic ring conformer: 82.79437614353823 kcal/mol)

>  <smiles>  (18) 
COc1ccccc1NS(=O)(=O)c1cccc(C(=O)Nc2cccc(S(=O)(=O)N=C3CCCN3)c2)c1

>  <score_type>  (18) 
oracle

>  <origin>  (18) 
adg

>  <m_score__min__energy>  (18) 
-13.26

>  <m_primary>  (18) 
energy

$$$$
18:0
     RDKit          3D

 34 36  0  0  0  0  0  0  0  0999 V2000
   56.1490   29.7310   43.1790 C   0  0  0  0  0  0  0  0  0  0  0  0
   56.2610   30.2650   44.4920 O   0  0  0  0  0  0  0  0  0  0  0  0
   57.4910   30.4480   45.1290 C   0  0  0  0  0  0  0  0  0  0  0  0
   57.7360   31.5240   45.9290 N   0  0  0  0  0  0  0  0  0  0  0  0
   58.9710   31.4420   46.3970 N   0  0  0  0  0  0  0  0  0  0  0  0
   59.7140   32.1980   47.2110 C   0  0  0  0  0  0  0  0  0  0  0  0
   60.9490   31.5310   47.3050 C   0  0  0  0  0  0  0  0  0  0  0  0
   62.1200   31.9750   48.1040 C   0  0  0  0  0  0  0  0  0  0  0  0
   63.0210   32.9220   47.5890 C   0  0  0  0  0  0  0  0  0  0  0  0
   64.1220   33.3400   48.3400 C   0  0  0  0  0  0  0  0  0  0  0  0
   64.3590   32.8210   49.6290 C   0  0  0  0  0  0  0  0  0  0  0  0
   65.5020   33.2550   50.4110 N   0  0  0  0  0  0  0  0  0  0  0  0
   65.3390   34.2220   51.5030 C   0  0  0  0  0  0  0  0  0  0  0  0
   66.8440   32.7320   50.1220 C   0  0  0  0  0  0  0  0  0  0  0  0
   63.4520   31.8690   50.1380 C   0  0  0  0  0  0  0  0  0  0  0  0
   62.3500   31.4540   49.3870 C   0  0  0  0  0  0  0  0  0  0  0  0
   60.9180   30.3930   46.5480 N   0  0  0  0  0  0  0  0  0  0  0  0
   59.6830   30.4080   46.0270 C   0  0  0  0  0  0  0  0  0  0  0  0
   58.8420   29.3760   45.0080 S   0  0  0  0  0  0  0  0  0  0  0  0
   55.9235   28.6560   43.2384 H   0  0  0  0  0  0  0  0  0  0  0  0
   55.3394   30.2463   42.6414 H   0  0  0  0  0  0  0  0  0  0  0  0
   57.0974   29.8776   42.6414 H   0  0  0  0  0  0  0  0  0  0  0  0
   59.4228   33.1385   47.7015 H   0  0  0  0  0  0  0  0  0  0  0  0
   62.8577   33.3385   46.5841 H   0  0  0  0  0  0  0  0  0  0  0  0
   64.8139   34.0847   47.9196 H   0  0  0  0  0  0  0  0  0  0  0  0
   65.4265   33.7027   52.4687 H   0  0  0  0  0  0  0  0  0  0  0  0
   66.1198   34.9933   51.4293 H   0  0  0  0  0  0  0  0  0  0  0  0
   64.3485   34.6947   51.4293 H   0  0  0  0  0  0  0  0  0  0  0  0
   67.3691   32.5274   51.0667 H   0  0  0  0  0  0  0  0  0  0  0  0
   66.7578   31.8017   49.5415 H   0  0  0  0  0  0  0  0  0  0  0  0
   67.4100   33.4753   49.5415 H   0  0  0  0  0  0  0  0  0  0  0  0
   63.6146   31.4472   51.1408 H   0  0  0  0  0  0  0  0  0  0  0  0
   61.6550   30.7111   49.8053 H   0  0  0  0  0  0  0  0  0  0  0  0
   61.6530   29.6650   46.4130 H   0  0  0  0  0  0  0  0  0  0  0  0
  1  2  1  0
  2  3  1  0
  3  4  2  0
  4  5  1  0
  5  6  1  0
  6  7  2  0
  7  8  1  0
  8  9  2  0
  9 10  1  0
 10 11  2  0
 11 12  1  0
 12 13  1  0
 12 14  1  0
 11 15  1  0
 15 16  2  0
  7 17  1  0
 17 18  2  0
 18 19  1  0
 19  3  1  0
 18  5  1  0
 16  8  1  0
  1 20  1  0
  1 21  1  0
  1 22  1  0
  6 23  1  0
  9 24  1  0
 10 25  1  0
 13 26  1  0
 13 27  1  0
 13 28  1  0
 14 29  1  0
 14 30  1  0
 14 31  1  0
 15 32  1  0
 16 33  1  0
 17 34  1  0
M  CHG  1  17   1
M  END
>  <UniqueID>  (19) 
18

>  <SMILES>  (19) 
COc1nn2cc(-c3ccc(N(C)C)cc3)[nH+]c2s1

>  <Energy>  (19) 
123.6206876324998

>  <Genealogy>  (19) 
COc1nn2cc(-c3ccc(N(C)C)cc3)[nH+]c2s1 (protonated)
COc1nn2cc(-c3ccc(N(C)C)cc3)[nH+]c2s1 (3D coordinates assigned)
COc1nn2cc(-c3ccc(N(C)C)cc3)[nH+]c2s1 (optimized conformer: 123.6206876324998 kcal/mol)

>  <smiles>  (19) 
COc1nn2cc(-c3ccc(N(C)C)cc3)nc2s1

>  <score_type>  (19) 
oracle

>  <origin>  (19) 
adg

>  <m_score__min__energy>  (19) 
-4.6100000000000003

>  <m_primary>  (19) 
energy

$$$$
19:0
     RDKit          3D

 25 26  0  0  0  0  0  0  0  0999 V2000
   57.9060   25.2205   44.7357 H   0  0  0  0  0  0  0  0  0  0  0  0
   57.7600   26.2990   44.5760 C   0  0  0  0  0  0  0  0  0  0  0  0
   57.0260   27.3690   45.6510 S   0  0  0  0  0  0  0  0  0  0  0  0
   57.2350   28.7010   44.6370 C   0  0  0  0  0  0  0  0  0  0  0  0
   56.8760   29.9300   44.8780 N   0  0  0  0  0  0  0  0  0  0  0  0
   57.3710   31.1270   44.2570 C   0  0  0  0  0  0  0  0  0  0  0  0
   57.3740   31.2500   43.0010 O   0  0  0  0  0  0  0  0  0  0  0  0
   57.9500   32.2070   45.0880 C   0  0  0  0  0  0  0  0  0  0  0  0
   57.4720   33.5160   44.8880 C   0  0  0  0  0  0  0  0  0  0  0  0
   56.6618   33.6930   44.1653 H   0  0  0  0  0  0  0  0  0  0  0  0
   58.0110   34.5910   45.5930 C   0  0  0  0  0  0  0  0  0  0  0  0
   57.6238   35.6071   45.4269 H   0  0  0  0  0  0  0  0  0  0  0  0
   59.0390   34.3790   46.5070 C   0  0  0  0  0  0  0  0  0  0  0  0
   59.4748   35.2309   47.0495 H   0  0  0  0  0  0  0  0  0  0  0  0
   59.5180   33.0900   46.7370 C   0  0  0  0  0  0  0  0  0  0  0  0
   60.3371   32.9361   47.4549 H   0  0  0  0  0  0  0  0  0  0  0  0
   58.9670   31.9800   46.0620 C   0  0  0  0  0  0  0  0  0  0  0  0
   59.4860   30.5920   46.3890 C   0  0  0  0  0  0  0  0  0  0  0  0
   58.5240   29.8570   47.0590 F   0  0  0  0  0  0  0  0  0  0  0  0
   59.8370   29.9420   45.2210 F   0  0  0  0  0  0  0  0  0  0  0  0
   60.6040   30.6530   47.2060 F   0  0  0  0  0  0  0  0  0  0  0  0
   57.8570   28.3450   43.4920 N   0  0  0  0  0  0  0  0  0  0  0  0
   58.0910   29.0110   42.7230 H   0  0  0  0  0  0  0  0  0  0  0  0
   58.1490   27.0190   43.4510 C   0  0  0  0  0  0  0  0  0  0  0  0
   58.6544   26.5503   42.5937 H   0  0  0  0  0  0  0  0  0  0  0  0
  1  2  1  0
  2  3  1  0
  3  4  1  0
  4  5  2  0
  5  6  1  0
  6  7  2  0
  6  8  1  0
  8  9  2  0
  9 10  1  0
  9 11  1  0
 11 12  1  0
 11 13  2  0
 13 14  1  0
 13 15  1  0
 15 16  1  0
 15 17  2  0
 17 18  1  0
 18 19  1  0
 18 20  1  0
 18 21  1  0
  4 22  1  0
 22 23  1  0
 22 24  1  0
 24 25  1  0
 24  2  2  0
 17  8  1  0
M  END
>  <UniqueID>  (20) 
19

>  <SMILES>  (20) 
O=C(/N=c1/[nH]ccs1)c1ccccc1C(F)(F)F

>  <Energy>  (20) 
66.49724805417198

>  <Genealogy>  (20) 
O=C(/N=c1/[nH]ccs1)c1ccccc1C(F)(F)F (cis-trans isomerization)
O=C(/N=c1/[nH]ccs1)c1ccccc1C(F)(F)F (3D coordinates assigned)
O=C(/N=c1/[nH]ccs1)c1ccccc1C(F)(F)F (optimized conformer: 66.49724805417198 kcal/mol)

>  <smiles>  (20) 
O=C(N=c1[nH]ccs1)c1ccccc1C(F)(F)F

>  <score_type>  (20) 
oracle

>  <origin>  (20) 
adg

>  <m_score__min__energy>  (20) 
-6.04

>  <m_primary>  (20) 
energy

$$$$
20:0
     RDKit          3D

 34 36  0  0  0  0  0  0  0  0999 V2000
   56.5100   29.0350   42.6230 N   0  0  0  0  0  0  0  0  0  0  0  0
   56.5990   29.5480   44.2690 S   0  0  0  0  0  0  0  0  0  0  0  0
   57.2960   28.4880   45.0860 O   0  0  0  0  0  0  0  0  0  0  0  0
   55.2210   29.7100   44.8740 O   0  0  0  0  0  0  0  0  0  0  0  0
   57.4620   31.0600   44.3850 C   0  0  0  0  0  0  0  0  0  0  0  0
   57.4610   31.8660   43.2460 C   0  0  0  0  0  0  0  0  0  0  0  0
   58.1400   33.0710   43.3170 C   0  0  0  0  0  0  0  0  0  0  0  0
   58.8010   33.4680   44.4730 C   0  0  0  0  0  0  0  0  0  0  0  0
   58.7870   32.6490   45.5870 C   0  0  0  0  0  0  0  0  0  0  0  0
   59.4760   33.0750   46.7770 C   0  0  0  0  0  0  0  0  0  0  0  0
   60.7670   32.8620   47.1170 N   0  0  0  0  0  0  0  0  0  0  0  0
   61.0360   33.4180   48.3090 C   0  0  0  0  0  0  0  0  0  0  0  0
   62.2820   33.4340   49.0510 C   0  0  0  0  0  0  0  0  0  0  0  0
   63.3820   32.7180   48.6400 C   0  0  0  0  0  0  0  0  0  0  0  0
   64.5750   32.7160   49.3250 C   0  0  0  0  0  0  0  0  0  0  0  0
   64.6850   33.4630   50.4800 C   0  0  0  0  0  0  0  0  0  0  0  0
   63.5780   34.1930   50.9060 C   0  0  0  0  0  0  0  0  0  0  0  0
   62.3880   34.1810   50.2030 C   0  0  0  0  0  0  0  0  0  0  0  0
   59.8450   34.0080   48.7300 C   0  0  0  0  0  0  0  0  0  0  0  0
   58.8960   33.7880   47.7770 N   0  0  0  0  0  0  0  0  0  0  0  0
   58.1180   31.4440   45.5450 C   0  0  0  0  0  0  0  0  0  0  0  0
   55.5240   29.1710   42.3110 H   0  0  0  0  0  0  0  0  0  0  0  0
   56.6250   27.9770   42.6320 H   0  0  0  0  0  0  0  0  0  0  0  0
   56.9411   31.5564   42.3274 H   0  0  0  0  0  0  0  0  0  0  0  0
   58.1564   33.7301   42.4365 H   0  0  0  0  0  0  0  0  0  0  0  0
   59.3334   34.4302   44.5018 H   0  0  0  0  0  0  0  0  0  0  0  0
   63.3042   32.1190   47.7207 H   0  0  0  0  0  0  0  0  0  0  0  0
   65.4286   32.1276   48.9574 H   0  0  0  0  0  0  0  0  0  0  0  0
   65.6250   33.4815   51.0509 H   0  0  0  0  0  0  0  0  0  0  0  0
   63.6526   34.7938   51.8244 H   0  0  0  0  0  0  0  0  0  0  0  0
   61.5287   34.7661   50.5625 H   0  0  0  0  0  0  0  0  0  0  0  0
   59.6966   34.5576   49.6712 H   0  0  0  0  0  0  0  0  0  0  0  0
   57.9160   34.1300   47.8550 H   0  0  0  0  0  0  0  0  0  0  0  0
   58.1047   30.7893   46.4288 H   0  0  0  0  0  0  0  0  0  0  0  0
  1  2  1  0
  2  3  2  0
  2  4  2  0
  2  5  1  0
  5  6  2  0
  6  7  1  0
  7  8  2  0
  8  9  1  0
  9 10  1  0
 10 11  2  0
 11 12  1  0
 12 13  1  0
 13 14  2  0
 14 15  1  0
 15 16  2  0
 16 17  1  0
 17 18  2  0
 12 19  2  0
 19 20  1  0
  9 21  2  0
 21  5  1  0
 20 10  1  0
 18 13  1  0
  1 22  1  0
  1 23  1  0
  6 24  1  0
  7 25  1  0
  8 26  1  0
 14 27  1  0
 15 28  1  0
 16 29  1  0
 17 30  1  0
 18 31  1  0
 19 32  1  0
 20 33  1  0
 21 34  1  0
M  END
>  <smiles>  (21) 
NS(=O)(=O)c1cccc(-c2nc(-c3ccccc3)c[nH]2)c1

>  <score_type>  (21) 
oracle

>  <origin>  (21) 
adg

>  <m_score__min__energy>  (21) 
-8.1699999999999999

>  <m_primary>  (21) 
energy

$$$$
21:0
     RDKit          3D

 38 40  0  0  0  0  0  0  0  0999 V2000
   64.0896   31.4043   46.4505 H   0  0  0  0  0  0  0  0  0  0  0  0
   63.4720   31.9770   47.1580 C   0  0  0  0  0  0  0  0  0  0  0  0
   62.3820   31.4440   47.7710 N   0  0  0  0  0  0  0  0  0  0  0  0
   61.7930   32.3420   48.5910 C   0  0  0  0  0  0  0  0  0  0  0  0
   60.7340   32.0930   49.2970 N   0  0  0  0  0  0  0  0  0  0  0  0
   59.3070   33.0740   49.2420 S   0  0  0  0  0  0  0  0  0  0  0  0
   58.1590   32.3470   49.8850 O   0  0  0  0  0  0  0  0  0  0  0  0
   59.5470   34.3650   49.9750 O   0  0  0  0  0  0  0  0  0  0  0  0
   58.9140   33.4120   47.5590 C   0  0  0  0  0  0  0  0  0  0  0  0
   59.6130   34.4000   46.8530 C   0  0  0  0  0  0  0  0  0  0  0  0
   60.3978   34.9831   47.3571 H   0  0  0  0  0  0  0  0  0  0  0  0
   59.3160   34.6460   45.5120 C   0  0  0  0  0  0  0  0  0  0  0  0
   59.8692   35.4209   44.9610 H   0  0  0  0  0  0  0  0  0  0  0  0
   58.3180   33.9110   44.8670 C   0  0  0  0  0  0  0  0  0  0  0  0
   58.0945   34.1023   43.8071 H   0  0  0  0  0  0  0  0  0  0  0  0
   57.5980   32.9270   45.5690 C   0  0  0  0  0  0  0  0  0  0  0  0
   56.5870   32.1270   44.9390 N   0  0  0  0  0  0  0  0  0  0  0  0
   56.7900   30.9170   44.1950 C   0  0  0  0  0  0  0  0  0  0  0  0
   56.2780   30.7940   43.0490 O   0  0  0  0  0  0  0  0  0  0  0  0
   57.5550   29.7940   44.8010 C   0  0  0  0  0  0  0  0  0  0  0  0
   58.9590   29.8730   44.8770 C   0  0  0  0  0  0  0  0  0  0  0  0
   59.4754   30.7617   44.4852 H   0  0  0  0  0  0  0  0  0  0  0  0
   59.7020   28.8380   45.4430 C   0  0  0  0  0  0  0  0  0  0  0  0
   60.7979   28.9165   45.4969 H   0  0  0  0  0  0  0  0  0  0  0  0
   59.0620   27.7040   45.9410 C   0  0  0  0  0  0  0  0  0  0  0  0
   59.6550   26.8928   46.3885 H   0  0  0  0  0  0  0  0  0  0  0  0
   57.6670   27.5930   45.8740 C   0  0  0  0  0  0  0  0  0  0  0  0
   56.9810   26.3700   46.4150 C   0  0  0  0  0  0  0  0  0  0  0  0
   56.9963   26.3972   47.5146 H   0  0  0  0  0  0  0  0  0  0  0  0
   55.9390   26.3482   46.0632 H   0  0  0  0  0  0  0  0  0  0  0  0
   57.5057   25.4695   46.0632 H   0  0  0  0  0  0  0  0  0  0  0  0
   56.9110   28.6380   45.3060 C   0  0  0  0  0  0  0  0  0  0  0  0
   55.5260   28.5140   45.2440 O   0  0  0  0  0  0  0  0  0  0  0  0
   57.9190   32.6700   46.9090 C   0  0  0  0  0  0  0  0  0  0  0  0
   57.3849   31.8786   47.4553 H   0  0  0  0  0  0  0  0  0  0  0  0
   62.5880   33.8200   48.5930 S   0  0  0  0  0  0  0  0  0  0  0  0
   63.7500   33.2990   47.4900 C   0  0  0  0  0  0  0  0  0  0  0  0
   64.5844   33.9003   47.0998 H   0  0  0  0  0  0  0  0  0  0  0  0
  1  2  1  0
  2  3  1  0
  3  4  1  0
  4  5  2  0
  5  6  1  0
  6  7  2  0
  6  8  2  0
  6  9  1  0
  9 10  2  0
 10 11  1  0
 10 12  1  0
 12 13  1  0
 12 14  2  0
 14 15  1  0
 14 16  1  0
 16 17  1  0
 17 18  1  0
 18 19  2  0
 18 20  1  0
 20 21  2  0
 21 22  1  0
 21 23  1  0
 23 24  1  0
 23 25  2  0
 25 26  1  0
 25 27  1  0
 27 28  1  0
 28 29  1  0
 28 30  1  0
 28 31  1  0
 27 32  2  0
 32 33  1  0
 16 34  2  0
 34 35  1  0
  4 36  1  0
 36 37  1  0
 37 38  1  0
 37  2  2  0
 34  9  1  0
 32 20  1  0
M  CHG  3   3  -1  17  -1  33  -1
M  END
>  <UniqueID>  (22) 
20

>  <SMILES>  (22) 
Cc1cccc(C(=O)[N-]c2cccc(S(=O)(=O)/N=c3\[n-]ccs3)c2)c1[O-]

>  <Energy>  (22) 
80.42048152117404

>  <Genealogy>  (22) 
Cc1cccc(C(=O)[N-]c2cccc(S(=O)(=O)N=c3[n-]ccs3)c2)c1[O-] (protonated)
Cc1cccc(C(=O)[N-]c2cccc(S(=O)(=O)/N=c3\[n-]ccs3)c2)c1[O-] (cis-trans isomerization)
Cc1cccc(C(=O)[N-]c2cccc(S(=O)(=O)/N=c3\[n-]ccs3)c2)c1[O-] (3D coordinates assigned)
Cc1cccc(C(=O)[N-]c2cccc(S(=O)(=O)/N=c3\[n-]ccs3)c2)c1[O-] (optimized conformer: 80.42048152117404 kcal/mol)

>  <smiles>  (22) 
Cc1cccc(C(=O)Nc2cccc(S(=O)(=O)N=c3[nH]ccs3)c2)c1O

>  <score_type>  (22) 
oracle

>  <origin>  (22) 
adg

>  <m_score__min__energy>  (22) 
-15.44

>  <m_primary>  (22) 
energy

$$$$
22:0
     RDKit          3D

 47 49  0  0  0  0  0  0  0  0999 V2000
   60.5440   28.9960   50.5050 C   0  0  0  0  0  0  0  0  0  0  0  0
   60.9480   29.6020   49.2820 O   0  0  0  0  0  0  0  0  0  0  0  0
   60.3870   29.3080   48.0290 C   0  0  0  0  0  0  0  0  0  0  0  0
   60.7820   29.9720   46.8530 C   0  0  0  0  0  0  0  0  0  0  0  0
   60.1890   29.6520   45.6280 C   0  0  0  0  0  0  0  0  0  0  0  0
   59.2000   28.6610   45.5580 C   0  0  0  0  0  0  0  0  0  0  0  0
   58.5300   28.3390   44.2460 C   0  0  0  0  0  0  0  0  0  0  0  0
   57.0250   28.6210   44.2970 C   0  0  0  0  0  0  0  0  0  0  0  0
   56.7530   29.8620   45.0270 N   0  0  0  0  0  0  0  0  0  0  0  0
   57.1080   31.1600   44.5210 C   0  0  0  0  0  0  0  0  0  0  0  0
   57.6680   31.2710   43.3970 O   0  0  0  0  0  0  0  0  0  0  0  0
   56.8300   32.3510   45.2650 N   0  0  0  0  0  0  0  0  0  0  0  0
   57.5420   33.6190   45.1410 C   0  0  0  0  0  0  0  0  0  0  0  0
   58.7860   33.6340   45.9840 C   0  0  0  0  0  0  0  0  0  0  0  0
   60.0680   33.9340   45.5280 C   0  0  0  0  0  0  0  0  0  0  0  0
   60.9770   33.7160   46.5070 N   0  0  0  0  0  0  0  0  0  0  0  0
   62.4260   33.8400   46.3830 C   0  0  0  0  0  0  0  0  0  0  0  0
   60.2880   33.2620   47.5730 C   0  0  0  0  0  0  0  0  0  0  0  0
   60.7940   32.8600   48.8120 C   0  0  0  0  0  0  0  0  0  0  0  0
   59.8860   32.3790   49.7720 C   0  0  0  0  0  0  0  0  0  0  0  0
   58.5080   32.2960   49.4750 C   0  0  0  0  0  0  0  0  0  0  0  0
   58.0260   32.6970   48.2160 C   0  0  0  0  0  0  0  0  0  0  0  0
   58.9460   33.1890   47.2880 C   0  0  0  0  0  0  0  0  0  0  0  0
   58.8050   28.0000   46.7320 C   0  0  0  0  0  0  0  0  0  0  0  0
   59.3980   28.3210   47.9560 C   0  0  0  0  0  0  0  0  0  0  0  0
   60.9342   29.5813   51.3507 H   0  0  0  0  0  0  0  0  0  0  0  0
   59.4455   28.9674   50.5547 H   0  0  0  0  0  0  0  0  0  0  0  0
   60.9401   27.9710   50.5547 H   0  0  0  0  0  0  0  0  0  0  0  0
   61.5614   30.7469   46.8977 H   0  0  0  0  0  0  0  0  0  0  0  0
   60.5000   30.1804   44.7147 H   0  0  0  0  0  0  0  0  0  0  0  0
   58.9818   28.9543   43.4540 H   0  0  0  0  0  0  0  0  0  0  0  0
   58.6725   27.2678   44.0408 H   0  0  0  0  0  0  0  0  0  0  0  0
   56.6406   28.7146   43.2706 H   0  0  0  0  0  0  0  0  0  0  0  0
   56.5277   27.7893   44.8176 H   0  0  0  0  0  0  0  0  0  0  0  0
   56.2330   29.7880   45.9290 H   0  0  0  0  0  0  0  0  0  0  0  0
   57.8214   33.7711   44.0880 H   0  0  0  0  0  0  0  0  0  0  0  0
   56.8783   34.4242   45.4890 H   0  0  0  0  0  0  0  0  0  0  0  0
   60.3071   34.2961   44.5172 H   0  0  0  0  0  0  0  0  0  0  0  0
   62.8778   33.8787   47.3852 H   0  0  0  0  0  0  0  0  0  0  0  0
   62.8227   32.9725   45.8352 H   0  0  0  0  0  0  0  0  0  0  0  0
   62.6695   34.7623   45.8352 H   0  0  0  0  0  0  0  0  0  0  0  0
   61.8706   32.9181   49.0299 H   0  0  0  0  0  0  0  0  0  0  0  0
   60.2516   32.0653   50.7609 H   0  0  0  0  0  0  0  0  0  0  0  0
   57.8073   31.9155   50.2328 H   0  0  0  0  0  0  0  0  0  0  0  0
   56.9563   32.6252   47.9698 H   0  0  0  0  0  0  0  0  0  0  0  0
   58.0249   27.2257   46.6881 H   0  0  0  0  0  0  0  0  0  0  0  0
   59.0848   27.7936   48.8691 H   0  0  0  0  0  0  0  0  0  0  0  0
  1  2  1  0
  2  3  1  0
  3  4  2  0
  4  5  1  0
  5  6  2  0
  6  7  1  0
  7  8  1  0
  8  9  1  0
  9 10  1  0
 10 11  2  0
 10 12  1  0
 12 13  1  0
 13 14  1  0
 14 15  2  0
 15 16  1  0
 16 17  1  0
 16 18  1  0
 18 19  2  0
 19 20  1  0
 20 21  2  0
 21 22  1  0
 22 23  2  0
  6 24  1  0
 24 25  2  0
 25  3  1  0
 23 14  1  0
 23 18  1  0
  1 26  1  0
  1 27  1  0
  1 28  1  0
  4 29  1  0
  5 30  1  0
  7 31  1  0
  7 32  1  0
  8 33  1  0
  8 34  1  0
  9 35  1  0
 13 36  1  0
 13 37  1  0
 15 38  1  0
 17 39  1  0
 17 40  1  0
 17 41  1  0
 19 42  1  0
 20 43  1  0
 21 44  1  0
 22 45  1  0
 24 46  1  0
 25 47  1  0
M  CHG  1  12  -1
M  END
>  <UniqueID>  (23) 
21

>  <SMILES>  (23) 
COc1ccc(CCNC(=O)[N-]Cc2cn(C)c3ccccc23)cc1

>  <Energy>  (23) 
72.51528742541556

>  <Genealogy>  (23) 
COc1ccc(CCNC(=O)[N-]Cc2cn(C)c3ccccc23)cc1 (protonated)
COc1ccc(CCNC(=O)[N-]Cc2cn(C)c3ccccc23)cc1 (3D coordinates assigned)
COc1ccc(CCNC(=O)[N-]Cc2cn(C)c3ccccc23)cc1 (optimized conformer: 72.51528742541556 kcal/mol)

>  <smiles>  (23) 
COc1ccc(CCNC(=O)NCc2cn(C)c3ccccc23)cc1

>  <score_type>  (23) 
oracle

>  <origin>  (23) 
adg

>  <m_score__min__energy>  (23) 
-9.5500000000000007

>  <m_primary>  (23) 
energy

$$$$
23:0
     RDKit          3D

 38 40  0  0  0  0  0  0  0  0999 V2000
   61.3078   27.3666   48.6116 H   0  0  0  0  0  0  0  0  0  0  0  0
   60.6900   28.0040   47.9620 C   0  0  0  0  0  0  0  0  0  0  0  0
   60.2900   27.4990   46.7870 C   0  0  0  0  0  0  0  0  0  0  0  0
   61.0430   27.2520   46.0241 H   0  0  0  0  0  0  0  0  0  0  0  0
   58.8590   27.2660   46.4920 C   0  0  0  0  0  0  0  0  0  0  0  0
   58.2860   26.0770   46.9700 C   0  0  0  0  0  0  0  0  0  0  0  0
   58.9133   25.3467   47.5020 H   0  0  0  0  0  0  0  0  0  0  0  0
   56.9300   25.8110   46.7780 C   0  0  0  0  0  0  0  0  0  0  0  0
   56.4947   24.8800   47.1702 H   0  0  0  0  0  0  0  0  0  0  0  0
   56.1230   26.7180   46.0920 C   0  0  0  0  0  0  0  0  0  0  0  0
   54.7720   26.4400   45.9170 O   0  0  0  0  0  0  0  0  0  0  0  0
   56.6770   27.8970   45.5750 C   0  0  0  0  0  0  0  0  0  0  0  0
   55.8890   28.7640   44.8810 N   0  0  0  0  0  0  0  0  0  0  0  0
   56.3840   29.9020   44.3310 C   0  0  0  0  0  0  0  0  0  0  0  0
   55.7151   30.5846   43.7864 H   0  0  0  0  0  0  0  0  0  0  0  0
   57.7380   30.2070   44.4550 C   0  0  0  0  0  0  0  0  0  0  0  0
   58.1431   31.1227   43.9996 H   0  0  0  0  0  0  0  0  0  0  0  0
   58.5760   29.3440   45.1600 C   0  0  0  0  0  0  0  0  0  0  0  0
   59.6479   29.5739   45.2507 H   0  0  0  0  0  0  0  0  0  0  0  0
   58.0550   28.1780   45.7570 C   0  0  0  0  0  0  0  0  0  0  0  0
   60.3540   29.3680   48.4450 C   0  0  0  0  0  0  0  0  0  0  0  0
   60.0140   29.6410   49.7850 C   0  0  0  0  0  0  0  0  0  0  0  0
   60.0062   28.8266   50.5244 H   0  0  0  0  0  0  0  0  0  0  0  0
   59.6870   30.9400   50.1790 C   0  0  0  0  0  0  0  0  0  0  0  0
   59.4303   31.1449   51.2288 H   0  0  0  0  0  0  0  0  0  0  0  0
   59.6840   31.9800   49.2480 C   0  0  0  0  0  0  0  0  0  0  0  0
   59.4275   33.0012   49.5665 H   0  0  0  0  0  0  0  0  0  0  0  0
   60.0080   31.7250   47.9050 C   0  0  0  0  0  0  0  0  0  0  0  0
   60.0080   32.7580   46.9090 N   0  0  0  0  0  0  0  0  0  0  0  0
   58.6610   33.7680   46.4940 S   0  0  0  0  0  0  0  0  0  0  0  0
   58.8970   35.1680   46.9900 O   0  0  0  0  0  0  0  0  0  0  0  0
   57.4270   33.2240   47.1540 O   0  0  0  0  0  0  0  0  0  0  0  0
   58.4120   33.7690   44.7310 C   0  0  0  0  0  0  0  0  0  0  0  0
   57.3338   33.7733   44.5130 H   0  0  0  0  0  0  0  0  0  0  0  0
   58.8778   34.6653   44.2954 H   0  0  0  0  0  0  0  0  0  0  0  0
   58.8706   32.8690   44.2954 H   0  0  0  0  0  0  0  0  0  0  0  0
   60.3380   30.4210   47.5150 C   0  0  0  0  0  0  0  0  0  0  0  0
   60.5888   30.2179   46.4634 H   0  0  0  0  0  0  0  0  0  0  0  0
  1  2  1  0
  2  3  2  0
  3  4  1  0
  3  5  1  0
  5  6  2  0
  6  7  1  0
  6  8  1  0
  8  9  1  0
  8 10  2  0
 10 11  1  0
 10 12  1  0
 12 13  2  0
 13 14  1  0
 14 15  1  0
 14 16  2  0
 16 17  1  0
 16 18  1  0
 18 19  1  0
 18 20  2  0
  2 21  1  0
 21 22  2  0
 22 23  1  0
 22 24  1  0
 24 25  1  0
 24 26  2  0
 26 27  1  0
 26 28  1  0
 28 29  1  0
 29 30  1  0
 30 31  2  0
 30 32  2  0
 30 33  1  0
 33 34  1  0
 33 35  1  0
 33 36  1  0
 28 37  2  0
 37 38  1  0
 20  5  1  0
 37 21  1  0
 20 12  1  0
M  CHG  2  11  -1  29  -1
M  END
>  <UniqueID>  (24) 
22

>  <SMILES>  (24) 
CS(=O)(=O)[N-]c1cccc(/C=C/c2ccc([O-])c3ncccc23)c1

>  <Energy>  (24) 
53.428690322963284

>  <Genealogy>  (24) 
CS(=O)(=O)[N-]c1cccc(C=Cc2ccc([O-])c3ncccc23)c1 (protonated)
CS(=O)(=O)[N-]c1cccc(/C=C/c2ccc([O-])c3ncccc23)c1 (cis-trans isomerization)
CS(=O)(=O)[N-]c1cccc(/C=C/c2ccc([O-])c3ncccc23)c1 (3D coordinates assigned)
CS(=O)(=O)[N-]c1cccc(/C=C/c2ccc([O-])c3ncccc23)c1 (optimized conformer: 53.428690322963284 kcal/mol)

>  <smiles>  (24) 
CS(=O)(=O)Nc1cccc(C=Cc2ccc(O)c3ncccc23)c1

>  <score_type>  (24) 
oracle

>  <origin>  (24) 
adg

>  <m_score__min__energy>  (24) 
-12.949999999999999

>  <m_primary>  (24) 
energy

$$$$
24:0
     RDKit          3D

 61 64  0  0  0  0  0  0  0  0999 V2000
   61.5750   31.5320   50.2340 N   0  0  0  0  0  0  0  0  0  0  0  0
   62.0530   32.8990   50.4780 C   0  0  1  0  0  0  0  0  0  0  0  0
   63.3280   33.1700   49.6300 C   0  0  0  0  0  0  0  0  0  0  0  0
   63.0750   33.8660   48.2730 C   0  0  0  0  0  0  0  0  0  0  0  0
   61.6630   33.6980   47.7710 C   0  0  0  0  0  0  0  0  0  0  0  0
   61.4140   33.5350   46.4000 C   0  0  0  0  0  0  0  0  0  0  0  0
   60.1030   33.4860   45.9280 C   0  0  0  0  0  0  0  0  0  0  0  0
   59.0350   33.6410   46.8110 C   0  0  0  0  0  0  0  0  0  0  0  0
   57.7300   33.6460   46.3240 O   0  0  0  0  0  0  0  0  0  0  0  0
   57.4460   33.7420   44.9290 C   0  0  0  0  0  0  0  0  0  0  0  0
   57.5090   32.3620   44.2890 C   0  0  0  0  0  0  0  0  0  0  0  0
   56.6590   31.4360   45.0350 N   0  0  0  0  0  0  0  0  0  0  0  0
   56.4920   29.9270   44.1820 S   0  0  0  0  0  0  0  0  0  0  0  0
   55.9870   30.1480   42.7810 O   0  0  0  0  0  0  0  0  0  0  0  0
   55.5170   29.0480   44.9140 O   0  0  0  0  0  0  0  0  0  0  0  0
   58.0750   29.1040   44.1210 C   0  0  0  0  0  0  0  0  0  0  0  0
   58.6680   29.0080   45.4990 C   0  0  0  0  0  0  0  0  0  0  0  0
   58.4150   27.8820   46.3000 C   0  0  0  0  0  0  0  0  0  0  0  0
   59.0260   27.7570   47.5520 C   0  0  0  0  0  0  0  0  0  0  0  0
   59.8840   28.7580   48.0180 C   0  0  0  0  0  0  0  0  0  0  0  0
   60.6690   28.5920   49.5790 Cl  0  0  0  0  0  0  0  0  0  0  0  0
   60.1370   29.8830   47.2280 C   0  0  0  0  0  0  0  0  0  0  0  0
   59.5410   30.0040   45.9680 C   0  0  0  0  0  0  0  0  0  0  0  0
   59.2740   33.7890   48.1820 C   0  0  0  0  0  0  0  0  0  0  0  0
   60.5910   33.8080   48.6780 C   0  0  0  0  0  0  0  0  0  0  0  0
   60.9430   33.9370   50.1560 C   0  0  1  0  0  0  0  0  0  0  0  0
   59.7590   33.8220   51.1600 C   0  0  0  0  0  0  0  0  0  0  0  0
   59.2870   32.4010   51.3900 C   0  0  0  0  0  0  0  0  0  0  0  0
   59.5460   31.7570   52.6160 C   0  0  0  0  0  0  0  0  0  0  0  0
   59.0800   30.4590   52.8450 C   0  0  0  0  0  0  0  0  0  0  0  0
   58.3340   29.7990   51.8670 C   0  0  0  0  0  0  0  0  0  0  0  0
   58.0370   30.4430   50.6640 C   0  0  0  0  0  0  0  0  0  0  0  0
   58.4970   31.7420   50.4300 C   0  0  0  0  0  0  0  0  0  0  0  0
   61.9010   30.9150   51.0130 H   0  0  0  0  0  0  0  0  0  0  0  0
   62.0470   31.1600   49.3770 H   0  0  0  0  0  0  0  0  0  0  0  0
   62.3082   33.0014   51.5431 H   0  0  0  0  0  0  0  0  0  0  0  0
   64.0012   33.8087   50.2207 H   0  0  0  0  0  0  0  0  0  0  0  0
   63.7556   32.1842   49.3946 H   0  0  0  0  0  0  0  0  0  0  0  0
   63.2791   34.9407   48.3884 H   0  0  0  0  0  0  0  0  0  0  0  0
   63.7414   33.3946   47.5356 H   0  0  0  0  0  0  0  0  0  0  0  0
   62.2546   33.4457   45.6962 H   0  0  0  0  0  0  0  0  0  0  0  0
   59.9108   33.3248   44.8570 H   0  0  0  0  0  0  0  0  0  0  0  0
   56.4390   34.1623   44.7903 H   0  0  0  0  0  0  0  0  0  0  0  0
   58.1917   34.3955   44.4527 H   0  0  0  0  0  0  0  0  0  0  0  0
   57.1572   32.4246   43.2487 H   0  0  0  0  0  0  0  0  0  0  0  0
   58.5472   31.9988   44.3056 H   0  0  0  0  0  0  0  0  0  0  0  0
   57.9418   28.0915   43.7122 H   0  0  0  0  0  0  0  0  0  0  0  0
   58.7546   29.6838   43.4792 H   0  0  0  0  0  0  0  0  0  0  0  0
   57.7341   27.0960   45.9414 H   0  0  0  0  0  0  0  0  0  0  0  0
   58.8311   26.8692   48.1715 H   0  0  0  0  0  0  0  0  0  0  0  0
   60.8057   30.6744   47.5975 H   0  0  0  0  0  0  0  0  0  0  0  0
   59.7567   30.8824   45.3420 H   0  0  0  0  0  0  0  0  0  0  0  0
   58.4270   33.8911   48.8764 H   0  0  0  0  0  0  0  0  0  0  0  0
   61.2893   34.9708   50.3024 H   0  0  0  0  0  0  0  0  0  0  0  0
   60.0808   34.2408   52.1249 H   0  0  0  0  0  0  0  0  0  0  0  0
   58.9136   34.3730   50.7222 H   0  0  0  0  0  0  0  0  0  0  0  0
   60.1181   32.2785   53.3975 H   0  0  0  0  0  0  0  0  0  0  0  0
   59.3017   29.9566   53.7981 H   0  0  0  0  0  0  0  0  0  0  0  0
   57.9804   28.7725   52.0438 H   0  0  0  0  0  0  0  0  0  0  0  0
   57.4394   29.9266   49.8984 H   0  0  0  0  0  0  0  0  0  0  0  0
   58.2399   32.2521   49.4899 H   0  0  0  0  0  0  0  0  0  0  0  0
  1  2  1  0
  2  3  1  0
  3  4  1  0
  4  5  1  0
  5  6  2  0
  6  7  1  0
  7  8  2  0
  8  9  1  0
  9 10  1  0
 10 11  1  0
 11 12  1  0
 12 13  1  0
 13 14  2  0
 13 15  2  0
 13 16  1  0
 16 17  1  0
 17 18  2  0
 18 19  1  0
 19 20  2  0
 20 21  1  0
 20 22  1  0
 22 23  2  0
  8 24  1  0
 24 25  2  0
 25 26  1  0
 26 27  1  0
 27 28  1  0
 28 29  2  0
 29 30  1  0
 30 31  2  0
 31 32  1  0
 32 33  2  0
 26  2  1  0
 33 28  1  0
 25  5  1  0
 23 17  1  0
  1 34  1  0
  1 35  1  0
  2 36  1  1
  3 37  1  0
  3 38  1  0
  4 39  1  0
  4 40  1  0
  6 41  1  0
  7 42  1  0
 10 43  1  0
 10 44  1  0
 11 45  1  0
 11 46  1  0
 16 47  1  0
 16 48  1  0
 18 49  1  0
 19 50  1  0
 22 51  1  0
 23 52  1  0
 24 53  1  0
 26 54  1  6
 27 55  1  0
 27 56  1  0
 29 57  1  0
 30 58  1  0
 31 59  1  0
 32 60  1  0
 33 61  1  0
M  CHG  1  12  -1
M  END
>  <UniqueID>  (25) 
23

>  <SMILES>  (25) 
N[C@H]1CCc2ccc(OCC[N-]S(=O)(=O)Cc3ccc(Cl)cc3)cc2[C@H]1Cc1ccccc1

>  <Energy>  (25) 
67.8796213063378

>  <Genealogy>  (25) 
NC1CCc2ccc(OCC[N-]S(=O)(=O)Cc3ccc(Cl)cc3)cc2C1Cc1ccccc1 (protonated)
N[C@H]1CCc2ccc(OCC[N-]S(=O)(=O)Cc3ccc(Cl)cc3)cc2[C@H]1Cc1ccccc1 (chirality)
N[C@H]1CCc2ccc(OCC[N-]S(=O)(=O)Cc3ccc(Cl)cc3)cc2[C@H]1Cc1ccccc1 (3D coordinates assigned)
N[C@H]1CCc2ccc(OCC[N-]S(=O)(=O)Cc3ccc(Cl)cc3)cc2[C@H]1Cc1ccccc1 (nonaromatic ring conformer: 67.8796213063378 kcal/mol)

>  <smiles>  (25) 
NC1CCc2ccc(OCCNS(=O)(=O)Cc3ccc(Cl)cc3)cc2C1Cc1ccccc1

>  <score_type>  (25) 
oracle

>  <origin>  (25) 
adg

>  <m_score__min__energy>  (25) 
-11.4

>  <m_primary>  (25) 
energy

$$$$
25:0
     RDKit          3D

 44 46  0  0  1  0  0  0  0  0999 V2000
   57.5340   27.7140   44.8350 N   0  0  0  0  0  0  0  0  0  0  0  0
   57.9010   26.3490   45.1290 C   0  0  0  0  0  0  0  0  0  0  0  0
   57.0380   25.3200   44.7340 C   0  0  0  0  0  0  0  0  0  0  0  0
   57.3560   23.9880   44.9830 C   0  0  0  0  0  0  0  0  0  0  0  0
   58.5500   23.7400   45.6290 C   0  0  0  0  0  0  0  0  0  0  0  0
   59.4070   24.7740   46.0200 C   0  0  0  0  0  0  0  0  0  0  0  0
   59.0790   26.1080   45.7650 C   0  0  0  0  0  0  0  0  0  0  0  0
   59.9800   27.0570   46.1830 O   0  0  0  0  0  0  0  0  0  0  0  0
   60.0930   27.4700   47.4900 C   0  0  0  0  0  0  0  0  0  0  0  0
   60.6730   26.7350   48.5010 C   0  0  0  0  0  0  0  0  0  0  0  0
   60.7600   27.1990   49.8050 C   0  0  0  0  0  0  0  0  0  0  0  0
   60.2520   28.4390   50.1300 C   0  0  0  0  0  0  0  0  0  0  0  0
   59.6660   29.1900   49.1330 C   0  0  0  0  0  0  0  0  0  0  0  0
   59.5780   28.7320   47.8280 C   0  0  0  0  0  0  0  0  0  0  0  0
   59.0000   29.4520   46.8020 O   0  0  0  0  0  0  0  0  0  0  0  0
   59.6110   30.3140   45.9050 C   0  0  0  0  0  0  0  0  0  0  0  0
   58.9180   31.6030   45.6900 C   0  0  0  0  0  0  0  0  0  0  0  0
   59.4180   32.8230   46.0990 C   0  0  0  0  0  0  0  0  0  0  0  0
   58.7670   34.0210   45.8980 C   0  0  0  0  0  0  0  0  0  0  0  0
   57.5440   34.0250   45.2540 C   0  0  0  0  0  0  0  0  0  0  0  0
   57.0160   32.8190   44.8300 C   0  0  0  0  0  0  0  0  0  0  0  0
   57.7000   31.6140   45.0470 C   0  0  0  0  0  0  0  0  0  0  0  0
   57.0420   30.4230   44.5360 C   0  0  0  0  0  0  0  0  0  0  0  0
   57.4450   29.7440   43.3930 O   0  0  0  0  0  0  0  0  0  0  0  0
   56.0020   29.9130   45.1460 N   0  0  0  0  0  0  0  0  0  0  0  0
   55.1920   28.9760   44.5000 O   0  0  0  0  0  0  0  0  0  0  0  0
   56.5950   27.9150   44.3880 H   0  0  0  0  0  0  0  0  0  0  0  0
   58.1990   28.4840   45.0660 H   0  0  0  0  0  0  0  0  0  0  0  0
   56.0971   25.5671   44.2206 H   0  0  0  0  0  0  0  0  0  0  0  0
   56.6861   23.1703   44.6787 H   0  0  0  0  0  0  0  0  0  0  0  0
   58.8359   22.6995   45.8425 H   0  0  0  0  0  0  0  0  0  0  0  0
   60.3496   24.5343   46.5339 H   0  0  0  0  0  0  0  0  0  0  0  0
   61.0828   25.7419   48.2646 H   0  0  0  0  0  0  0  0  0  0  0  0
   61.2340   26.5782   50.5796 H   0  0  0  0  0  0  0  0  0  0  0  0
   60.3128   28.8201   51.1601 H   0  0  0  0  0  0  0  0  0  0  0  0
   59.2568   30.1806   49.3805 H   0  0  0  0  0  0  0  0  0  0  0  0
   60.6227   30.5309   46.2785 H   0  0  0  0  0  0  0  0  0  0  0  0
   59.5991   29.7982   44.9335 H   0  0  0  0  0  0  0  0  0  0  0  0
   60.3899   32.8399   46.6139 H   0  0  0  0  0  0  0  0  0  0  0  0
   59.2155   34.9632   46.2461 H   0  0  0  0  0  0  0  0  0  0  0  0
   57.0024   34.9669   45.0824 H   0  0  0  0  0  0  0  0  0  0  0  0
   56.0444   32.8047   44.3145 H   0  0  0  0  0  0  0  0  0  0  0  0
   58.2320   30.0400   42.8110 H   0  0  0  0  0  0  0  0  0  0  0  0
   55.5090   28.6040   43.6230 H   0  0  0  0  0  0  0  0  0  0  0  0
  1  2  1  0
  2  3  2  0
  3  4  1  0
  4  5  2  0
  5  6  1  0
  6  7  2  0
  7  8  1  0
  8  9  1  0
  9 10  2  0
 10 11  1  0
 11 12  2  0
 12 13  1  0
 13 14  2  0
 14 15  1  0
 15 16  1  0
 16 17  1  0
 17 18  2  0
 18 19  1  0
 19 20  2  0
 20 21  1  0
 21 22  2  0
 22 23  1  0
 23 24  1  0
 23 25  2  0
 25 26  1  0
  7  2  1  0
 14  9  1  0
 22 17  1  0
  1 27  1  0
  1 28  1  0
  3 29  1  0
  4 30  1  0
  5 31  1  0
  6 32  1  0
 10 33  1  0
 11 34  1  0
 12 35  1  0
 13 36  1  0
 16 37  1  0
 16 38  1  0
 18 39  1  0
 19 40  1  0
 20 41  1  0
 21 42  1  0
 24 43  1  0
 26 44  1  0
M  END
>  <smiles>  (26) 
Nc1ccccc1Oc1ccccc1OCc1ccccc1C(O)=NO

>  <score_type>  (26) 
oracle

>  <origin>  (26) 
adg

>  <m_score__min__energy>  (26) 
-8.5600000000000005

>  <m_primary>  (26) 
energy

$$$$
26:0
     RDKit          3D

 26 29  0  0  0  0  0  0  0  0999 V2000
   57.8210   30.3750   45.0670 C   0  0  0  0  0  0  0  0  0  0  0  0
   58.4860   29.5350   44.1690 C   0  0  0  0  0  0  0  0  0  0  0  0
   58.0870   28.3070   44.4940 N   0  0  0  0  0  0  0  0  0  0  0  0
   58.3520   27.0940   44.0340 N   0  0  0  0  0  0  0  0  0  0  0  0
   57.6520   26.1710   44.7580 C   0  0  0  0  0  0  0  0  0  0  0  0
   57.7330   24.7540   44.4990 N   0  0  0  0  0  0  0  0  0  0  0  0
   58.7410   23.9200   45.1970 C   0  0  0  0  0  0  0  0  0  0  0  0
   58.1920   22.5200   45.5310 C   0  0  0  0  0  0  0  0  0  0  0  0
   57.4860   21.9720   44.3420 C   0  0  0  0  0  0  0  0  0  0  0  0
   57.1550   20.6990   44.0900 N   0  0  0  0  0  0  0  0  0  0  0  0
   56.4470   20.7210   42.9940 O   0  0  0  0  0  0  0  0  0  0  0  0
   56.2750   21.9260   42.5140 N   0  0  0  0  0  0  0  0  0  0  0  0
   56.9250   22.7360   43.3700 C   0  0  0  0  0  0  0  0  0  0  0  0
   57.0190   24.2250   43.3160 C   0  0  0  0  0  0  0  0  0  0  0  0
   56.6900   26.9040   45.9970 S   0  0  0  0  0  0  0  0  0  0  0  0
   57.2550   28.4000   45.4990 C   0  0  0  0  0  0  0  0  0  0  0  0
   57.0320   29.6570   45.9210 N   0  0  0  0  0  0  0  0  0  0  0  0
   57.9199   31.4704   45.0840 H   0  0  0  0  0  0  0  0  0  0  0  0
   59.1847   29.8246   43.3702 H   0  0  0  0  0  0  0  0  0  0  0  0
   59.6235   23.8113   44.5494 H   0  0  0  0  0  0  0  0  0  0  0  0
   59.0032   24.4190   46.1416 H   0  0  0  0  0  0  0  0  0  0  0  0
   59.0243   21.8543   45.8032 H   0  0  0  0  0  0  0  0  0  0  0  0
   57.4907   22.5911   46.3755 H   0  0  0  0  0  0  0  0  0  0  0  0
   57.3910   19.8500   44.6490 H   0  0  0  0  0  0  0  0  0  0  0  0
   57.5633   24.5184   42.4063 H   0  0  0  0  0  0  0  0  0  0  0  0
   56.0005   24.6405   43.3063 H   0  0  0  0  0  0  0  0  0  0  0  0
  1  2  2  0
  2  3  1  0
  3  4  1  0
  4  5  2  0
  5  6  1  0
  6  7  1  0
  7  8  1  0
  8  9  1  0
  9 10  2  0
 10 11  1  0
 11 12  1  0
 12 13  2  0
 13 14  1  0
  5 15  1  0
 15 16  1  0
 16 17  2  0
 17  1  1  0
 16  3  1  0
 14  6  1  0
 13  9  1  0
  1 18  1  0
  2 19  1  0
  7 20  1  0
  7 21  1  0
  8 22  1  0
  8 23  1  0
 10 24  1  0
 14 25  1  0
 14 26  1  0
M  CHG  1  10   1
M  END
>  <UniqueID>  (27) 
24

>  <SMILES>  (27) 
c1cn2nc(N3CCc4[nH+]onc4C3)sc2n1

>  <Energy>  (27) 
153.36188639017098

>  <Genealogy>  (27) 
c1cn2nc(N3CCc4[nH+]onc4C3)sc2n1 (protonated)
c1cn2nc(N3CCc4[nH+]onc4C3)sc2n1 (3D coordinates assigned)
c1cn2nc(N3CCc4[nH+]onc4C3)sc2n1 (nonaromatic ring conformer: 153.36188639017098 kcal/mol)

>  <smiles>  (27) 
c1cn2nc(N3CCc4nonc4C3)sc2n1

>  <score_type>  (27) 
oracle

>  <origin>  (27) 
adg

>  <m_score__min__energy>  (27) 
-5.4900000000000002

>  <m_primary>  (27) 
energy

$$$$
27:0
     RDKit          3D

 65 69  0  0  0  0  0  0  0  0999 V2000
   54.5150   26.1100   45.9880 N   0  0  0  0  0  0  0  0  0  0  0  0
   55.9780   25.2090   45.8040 S   0  0  0  0  0  0  0  0  0  0  0  0
   55.7310   24.0190   44.9190 O   0  0  0  0  0  0  0  0  0  0  0  0
   56.4350   24.7210   47.1520 O   0  0  0  0  0  0  0  0  0  0  0  0
   57.2150   26.2370   45.0860 C   0  0  0  0  0  0  0  0  0  0  0  0
   57.5210   26.1320   43.7220 C   0  0  0  0  0  0  0  0  0  0  0  0
   58.5110   26.9450   43.1600 C   0  0  0  0  0  0  0  0  0  0  0  0
   59.2060   27.8590   43.9570 C   0  0  0  0  0  0  0  0  0  0  0  0
   58.9160   27.9600   45.3260 C   0  0  0  0  0  0  0  0  0  0  0  0
   59.6310   28.9380   46.1670 C   0  0  0  0  0  0  0  0  0  0  0  0
   59.6350   30.2790   45.7600 C   0  0  0  0  0  0  0  0  0  0  0  0
   60.3030   31.2460   46.5080 C   0  0  0  0  0  0  0  0  0  0  0  0
   60.9820   30.8940   47.6830 C   0  0  0  0  0  0  0  0  0  0  0  0
   61.6990   31.9310   48.4610 C   0  0  0  0  0  0  0  0  0  0  0  0
   61.7230   33.1200   48.0350 O   0  0  0  0  0  0  0  0  0  0  0  0
   62.3210   31.6150   49.7180 N   0  0  0  0  0  0  0  0  0  0  0  0
   63.2370   32.4980   50.3870 C   0  0  0  0  0  0  0  0  0  0  0  0
   62.8970   33.8360   50.6420 C   0  0  0  0  0  0  0  0  0  0  0  0
   63.7960   34.6740   51.3020 C   0  0  0  0  0  0  0  0  0  0  0  0
   65.0420   34.1910   51.7100 C   0  0  0  0  0  0  0  0  0  0  0  0
   65.4160   32.8600   51.4390 C   0  0  0  0  0  0  0  0  0  0  0  0
   66.7220   32.3080   51.8970 C   0  0  0  0  0  0  0  0  0  0  0  0
   67.7180   33.1180   52.4690 C   0  0  0  0  0  0  0  0  0  0  0  0
   68.9050   32.5370   52.9130 C   0  0  0  0  0  0  0  0  0  0  0  0
   69.1080   31.1630   52.7760 C   0  0  0  0  0  0  0  0  0  0  0  0
   68.1130   30.3700   52.1710 C   0  0  0  0  0  0  0  0  0  0  0  0
   68.2750   28.9410   51.9820 N   0  0  0  0  0  0  0  0  0  0  0  0
   69.0010   28.1890   53.0230 C   0  0  0  0  0  0  0  0  0  0  0  0
   68.9130   26.6760   52.8250 C   0  0  0  0  0  0  0  0  0  0  0  0
   69.1100   26.3420   51.4700 O   0  0  0  0  0  0  0  0  0  0  0  0
   67.9900   26.7780   50.7330 C   0  0  0  0  0  0  0  0  0  0  0  0
   67.9010   28.3090   50.7010 C   0  0  0  0  0  0  0  0  0  0  0  0
   66.9600   30.9730   51.7610 N   0  0  0  0  0  0  0  0  0  0  0  0
   64.5010   32.0250   50.7660 C   0  0  0  0  0  0  0  0  0  0  0  0
   60.9850   29.5500   48.0940 C   0  0  0  0  0  0  0  0  0  0  0  0
   60.3010   28.5600   47.3580 C   0  0  0  0  0  0  0  0  0  0  0  0
   60.3160   27.1170   47.8280 C   0  0  0  0  0  0  0  0  0  0  0  0
   60.7470   26.3010   46.7990 F   0  0  0  0  0  0  0  0  0  0  0  0
   59.0450   26.7320   48.2140 F   0  0  0  0  0  0  0  0  0  0  0  0
   61.1620   26.9390   48.9100 F   0  0  0  0  0  0  0  0  0  0  0  0
   57.9130   27.1530   45.8850 C   0  0  0  0  0  0  0  0  0  0  0  0
   54.7690   27.0150   46.4450 H   0  0  0  0  0  0  0  0  0  0  0  0
   56.9816   25.4090   43.0924 H   0  0  0  0  0  0  0  0  0  0  0  0
   58.7432   26.8647   42.0878 H   0  0  0  0  0  0  0  0  0  0  0  0
   59.9809   28.4996   43.5106 H   0  0  0  0  0  0  0  0  0  0  0  0
   59.1056   30.5709   44.8410 H   0  0  0  0  0  0  0  0  0  0  0  0
   60.2977   32.2941   46.1740 H   0  0  0  0  0  0  0  0  0  0  0  0
   61.9770   30.7800   50.2450 H   0  0  0  0  0  0  0  0  0  0  0  0
   61.9194   34.2245   50.3206 H   0  0  0  0  0  0  0  0  0  0  0  0
   63.5225   35.7205   51.5023 H   0  0  0  0  0  0  0  0  0  0  0  0
   65.7359   34.8547   52.2466 H   0  0  0  0  0  0  0  0  0  0  0  0
   67.5621   34.2026   52.5657 H   0  0  0  0  0  0  0  0  0  0  0  0
   69.6838   33.1633   53.3726 H   0  0  0  0  0  0  0  0  0  0  0  0
   70.0389   30.7022   53.1381 H   0  0  0  0  0  0  0  0  0  0  0  0
   70.0597   28.4864   52.9986 H   0  0  0  0  0  0  0  0  0  0  0  0
   68.5350   28.4258   53.9909 H   0  0  0  0  0  0  0  0  0  0  0  0
   69.6864   26.1858   53.4345 H   0  0  0  0  0  0  0  0  0  0  0  0
   67.9137   26.3350   53.1332 H   0  0  0  0  0  0  0  0  0  0  0  0
   68.0720   26.4029   49.7022 H   0  0  0  0  0  0  0  0  0  0  0  0
   67.0833   26.3891   51.2196 H   0  0  0  0  0  0  0  0  0  0  0  0
   68.5764   28.6820   49.9170 H   0  0  0  0  0  0  0  0  0  0  0  0
   66.8514   28.5710   50.5018 H   0  0  0  0  0  0  0  0  0  0  0  0
   64.7830   30.9872   50.5349 H   0  0  0  0  0  0  0  0  0  0  0  0
   61.5304   29.2651   49.0058 H   0  0  0  0  0  0  0  0  0  0  0  0
   57.6735   27.2398   46.9551 H   0  0  0  0  0  0  0  0  0  0  0  0
  1  2  1  0
  2  3  2  0
  2  4  2  0
  2  5  1  0
  5  6  2  0
  6  7  1  0
  7  8  2  0
  8  9  1  0
  9 10  1  0
 10 11  2  0
 11 12  1  0
 12 13  2  0
 13 14  1  0
 14 15  2  0
 14 16  1  0
 16 17  1  0
 17 18  2  0
 18 19  1  0
 19 20  2  0
 20 21  1  0
 21 22  1  0
 22 23  2  0
 23 24  1  0
 24 25  2  0
 25 26  1  0
 26 27  1  0
 27 28  1  0
 28 29  1  0
 29 30  1  0
 30 31  1  0
 31 32  1  0
 26 33  2  0
 21 34  2  0
 13 35  1  0
 35 36  2  0
 36 37  1  0
 37 38  1  0
 37 39  1  0
 37 40  1  0
  9 41  2  0
 41  5  1  0
 36 10  1  0
 34 17  1  0
 33 22  1  0
 32 27  1  0
  1 42  1  0
  6 43  1  0
  7 44  1  0
  8 45  1  0
 11 46  1  0
 12 47  1  0
 16 48  1  0
 18 49  1  0
 19 50  1  0
 20 51  1  0
 23 52  1  0
 24 53  1  0
 25 54  1  0
 28 55  1  0
 28 56  1  0
 29 57  1  0
 29 58  1  0
 31 59  1  0
 31 60  1  0
 32 61  1  0
 32 62  1  0
 34 63  1  0
 35 64  1  0
 41 65  1  0
M  CHG  1   1  -1
M  END
>  <UniqueID>  (28) 
25

>  <SMILES>  (28) 
[NH-]S(=O)(=O)c1cccc(-c2ccc(C(=O)Nc3cccc(-c4cccc(N5CCOCC5)n4)c3)cc2C(F)(F)F)c1

>  <Energy>  (28) 
95.35687177074269

>  <Genealogy>  (28) 
[NH-]S(=O)(=O)c1cccc(-c2ccc(C(=O)Nc3cccc(-c4cccc(N5CCOCC5)n4)c3)cc2C(F)(F)F)c1 (protonated)
[NH-]S(=O)(=O)c1cccc(-c2ccc(C(=O)Nc3cccc(-c4cccc(N5CCOCC5)n4)c3)cc2C(F)(F)F)c1 (3D coordinates assigned)
[NH-]S(=O)(=O)c1cccc(-c2ccc(C(=O)Nc3cccc(-c4cccc(N5CCOCC5)n4)c3)cc2C(F)(F)F)c1 (nonaromatic ring conformer: 95.35687177074269 kcal/mol)

>  <smiles>  (28) 
NS(=O)(=O)c1cccc(-c2ccc(C(=O)Nc3cccc(-c4cccc(N5CCOCC5)n4)c3)cc2C(F)(F)F)c1

>  <score_type>  (28) 
oracle

>  <origin>  (28) 
adg

>  <m_score__min__energy>  (28) 
-12.51

>  <m_primary>  (28) 
energy

$$$$
28:0
     RDKit          3D

 38 41  0  0  1  0  0  0  0  0999 V2000
   59.1960   26.0350   46.7450 Br  0  0  0  0  0  0  0  0  0  0  0  0
   58.3400   27.5880   46.0590 C   0  0  0  0  0  0  0  0  0  0  0  0
   57.3730   27.5350   45.0860 C   0  0  0  0  0  0  0  0  0  0  0  0
   56.7830   28.6650   44.6190 N   0  0  0  0  0  0  0  0  0  0  0  0
   60.1700   30.1960   47.7340 C   0  0  0  0  0  0  0  0  0  0  0  0
   59.6790   29.0180   47.5540 N   0  0  0  0  0  0  0  0  0  0  0  0
   57.3340   32.2150   44.8710 C   0  0  0  0  0  0  0  0  0  0  0  0
   58.2420   32.6280   43.9170 C   0  0  0  0  0  0  0  0  0  0  0  0
   58.8950   33.8290   44.1270 C   0  0  0  0  0  0  0  0  0  0  0  0
   58.6800   34.6210   45.2340 C   0  0  0  0  0  0  0  0  0  0  0  0
   57.7600   34.2010   46.1990 C   0  0  0  0  0  0  0  0  0  0  0  0
   57.1200   33.0020   45.9750 C   0  0  0  0  0  0  0  0  0  0  0  0
   58.1030   29.9730   46.0820 N   0  0  0  0  0  0  0  0  0  0  0  0
   58.6910   28.8310   46.5450 C   0  0  0  0  0  0  0  0  0  0  0  0
   56.6250   30.9790   44.7120 N   0  0  0  0  0  0  0  0  0  0  0  0
   57.1550   29.8760   45.1230 C   0  0  0  0  0  0  0  0  0  0  0  0
   61.5090   30.4370   47.9860 C   0  0  0  0  0  0  0  0  0  0  0  0
   61.6740   31.8010   48.1230 C   0  0  0  0  0  0  0  0  0  0  0  0
   62.9650   32.4780   48.4010 C   0  0  0  0  0  0  0  0  0  0  0  0
   63.7500   32.7860   47.1170 C   0  0  0  0  0  0  0  0  0  0  0  0
   63.2050   33.8680   48.0100 C   0  0  0  0  0  0  0  0  0  0  0  0
   60.4620   32.3600   47.9570 N   0  0  0  0  0  0  0  0  0  0  0  0
   59.5640   31.3980   47.7240 N   0  0  0  0  0  0  0  0  0  0  0  0
   57.0708   26.5594   44.6774 H   0  0  0  0  0  0  0  0  0  0  0  0
   56.0350   28.6130   43.8650 H   0  0  0  0  0  0  0  0  0  0  0  0
   58.4396   32.0225   43.0201 H   0  0  0  0  0  0  0  0  0  0  0  0
   59.6212   34.1685   43.3738 H   0  0  0  0  0  0  0  0  0  0  0  0
   59.2240   35.5692   45.3564 H   0  0  0  0  0  0  0  0  0  0  0  0
   57.5561   34.8016   47.0977 H   0  0  0  0  0  0  0  0  0  0  0  0
   56.3945   32.6547   46.7253 H   0  0  0  0  0  0  0  0  0  0  0  0
   62.3008   29.6774   48.0634 H   0  0  0  0  0  0  0  0  0  0  0  0
   63.1101   31.9615   49.3613 H   0  0  0  0  0  0  0  0  0  0  0  0
   64.8326   32.5976   47.0677 H   0  0  0  0  0  0  0  0  0  0  0  0
   63.6646   32.5192   46.0533 H   0  0  0  0  0  0  0  0  0  0  0  0
   63.8978   34.4865   48.5994 H   0  0  0  0  0  0  0  0  0  0  0  0
   62.5533   34.7387   47.8450 H   0  0  0  0  0  0  0  0  0  0  0  0
   60.2770   33.3880   48.0070 H   0  0  0  0  0  0  0  0  0  0  0  0
   58.5400   31.5470   47.5580 H   0  0  0  0  0  0  0  0  0  0  0  0
  1  2  1  0
  2  3  2  0
  3  4  1  0
  4  5  1  0
  5  6  2  0
  6  7  1  0
  7  8  2  0
  8  9  1  0
  9 10  2  0
 10 11  1  0
 11 12  2  0
  5 13  1  0
 13 14  2  0
 14 15  1  0
 15 16  2  0
 16 17  1  0
 17 18  2  0
 18 19  1  0
 19 20  1  0
 20 21  1  0
 18 22  1  0
 22 23  1  0
 14  2  1  0
 23 16  1  0
 12  7  1  0
 21 19  1  0
  3 24  1  0
  4 25  1  0
  8 26  1  0
  9 27  1  0
 10 28  1  0
 11 29  1  0
 12 30  1  0
 17 31  1  0
 19 32  1  0
 20 33  1  0
 20 34  1  0
 21 35  1  0
 21 36  1  0
 22 37  1  0
 23 38  1  0
M  END
>  <smiles>  (29) 
Brc1c[nH]c(=Nc2ccccc2)nc1N=c1cc(C2CC2)[nH][nH]1

>  <score_type>  (29) 
oracle

>  <origin>  (29) 
adg

>  <m_score__min__energy>  (29) 
-8.6400000000000006

>  <m_primary>  (29) 
energy

$$$$
29:0
     RDKit          3D

 68 73  0  0  0  0  0  0  0  0999 V2000
   63.6570   30.4680   50.8080 N   0  0  0  0  0  0  0  0  0  0  0  0
   64.9440   31.0850   50.9370 C   0  0  0  0  0  0  0  0  0  0  0  0
   65.8650   30.5640   51.8600 C   0  0  0  0  0  0  0  0  0  0  0  0
   67.1530   31.0950   51.9530 C   0  0  0  0  0  0  0  0  0  0  0  0
   67.5390   32.1450   51.1190 C   0  0  0  0  0  0  0  0  0  0  0  0
   66.6320   32.6770   50.2000 C   0  0  0  0  0  0  0  0  0  0  0  0
   65.3250   32.1730   50.1150 C   0  0  0  0  0  0  0  0  0  0  0  0
   64.4110   32.7710   49.1850 N   0  0  0  0  0  0  0  0  0  0  0  0
   63.0890   33.1810   49.5700 C   0  0  0  0  0  0  0  0  0  0  0  0
   62.7700   33.1940   50.7910 O   0  0  0  0  0  0  0  0  0  0  0  0
   62.1020   33.6160   48.5540 C   0  0  0  0  0  0  0  0  0  0  0  0
   62.3630   33.4520   47.1820 C   0  0  0  0  0  0  0  0  0  0  0  0
   61.4270   33.8660   46.2300 C   0  0  0  0  0  0  0  0  0  0  0  0
   60.2160   34.4520   46.6290 C   0  0  0  0  0  0  0  0  0  0  0  0
   59.2320   34.9400   45.5910 C   0  0  0  0  0  0  0  0  0  0  0  0
   57.8510   34.5660   45.9350 N   0  0  0  0  0  0  0  0  0  0  0  0
   57.2290   33.6940   44.9190 C   0  0  0  0  0  0  0  0  0  0  0  0
   57.5580   32.2510   45.1650 C   0  0  0  0  0  0  0  0  0  0  0  0
   57.0320   31.1730   44.4910 C   0  0  0  0  0  0  0  0  0  0  0  0
   57.5090   30.0920   45.0540 O   0  0  0  0  0  0  0  0  0  0  0  0
   58.2970   30.4760   46.0360 C   0  0  0  0  0  0  0  0  0  0  0  0
   59.0120   29.5400   46.9260 C   0  0  0  0  0  0  0  0  0  0  0  0
   58.9460   28.1540   46.7130 C   0  0  0  0  0  0  0  0  0  0  0  0
   59.6320   27.2780   47.5570 C   0  0  0  0  0  0  0  0  0  0  0  0
   60.4120   27.7780   48.6040 C   0  0  0  0  0  0  0  0  0  0  0  0
   60.5200   29.1580   48.8060 C   0  0  0  0  0  0  0  0  0  0  0  0
   61.3710   29.6420   49.8550 N   0  0  0  0  0  0  0  0  0  0  0  0
   60.9660   29.9390   51.2000 C   0  0  0  0  0  0  0  0  0  0  0  0
   61.7730   29.7050   52.1370 O   0  0  0  0  0  0  0  0  0  0  0  0
   59.6520   30.5480   51.5120 C   0  0  0  0  0  0  0  0  0  0  0  0
   59.4950   31.9600   51.5500 C   0  0  0  0  0  0  0  0  0  0  0  0
   58.2410   32.5360   51.8200 C   0  0  0  0  0  0  0  0  0  0  0  0
   57.1730   31.6810   52.0670 C   0  0  0  0  0  0  0  0  0  0  0  0
   57.3170   30.3320   52.0540 C   0  0  0  0  0  0  0  0  0  0  0  0
   58.5390   29.7220   51.7880 C   0  0  0  0  0  0  0  0  0  0  0  0
   56.1020   29.7380   52.3380 O   0  0  0  0  0  0  0  0  0  0  0  0
   55.1340   30.7790   52.5350 C   0  0  0  0  0  0  0  0  0  0  0  0
   55.8610   32.0020   52.3550 O   0  0  0  0  0  0  0  0  0  0  0  0
   59.7850   30.0360   47.9890 C   0  0  0  0  0  0  0  0  0  0  0  0
   58.3620   31.8200   46.1540 N   0  0  0  0  0  0  0  0  0  0  0  0
   59.9480   34.6040   47.9980 C   0  0  0  0  0  0  0  0  0  0  0  0
   60.8790   34.1850   48.9520 C   0  0  0  0  0  0  0  0  0  0  0  0
   63.5390   29.4320   50.8360 H   0  0  0  0  0  0  0  0  0  0  0  0
   62.7920   31.0500   50.7560 H   0  0  0  0  0  0  0  0  0  0  0  0
   65.5695   29.7311   52.5149 H   0  0  0  0  0  0  0  0  0  0  0  0
   67.8645   30.6850   52.6849 H   0  0  0  0  0  0  0  0  0  0  0  0
   68.5580   32.5538   51.1854 H   0  0  0  0  0  0  0  0  0  0  0  0
   66.9445   33.4976   49.5375 H   0  0  0  0  0  0  0  0  0  0  0  0
   64.8010   33.1320   48.2860 H   0  0  0  0  0  0  0  0  0  0  0  0
   63.3092   32.9953   46.8561 H   0  0  0  0  0  0  0  0  0  0  0  0
   61.6414   33.7314   45.1595 H   0  0  0  0  0  0  0  0  0  0  0  0
   59.2987   36.0359   45.5234 H   0  0  0  0  0  0  0  0  0  0  0  0
   59.4859   34.4707   44.6291 H   0  0  0  0  0  0  0  0  0  0  0  0
   57.8420   34.1260   46.8860 H   0  0  0  0  0  0  0  0  0  0  0  0
   56.1373   33.8239   44.9550 H   0  0  0  0  0  0  0  0  0  0  0  0
   57.6218   33.9765   43.9311 H   0  0  0  0  0  0  0  0  0  0  0  0
   56.3392   31.2124   43.6375 H   0  0  0  0  0  0  0  0  0  0  0  0
   58.3513   27.7562   45.8775 H   0  0  0  0  0  0  0  0  0  0  0  0
   59.5585   26.1921   47.3976 H   0  0  0  0  0  0  0  0  0  0  0  0
   60.9429   27.0834   49.2716 H   0  0  0  0  0  0  0  0  0  0  0  0
   60.3638   32.6092   51.3662 H   0  0  0  0  0  0  0  0  0  0  0  0
   58.1093   33.6280   51.8353 H   0  0  0  0  0  0  0  0  0  0  0  0
   58.6361   28.6263   51.7924 H   0  0  0  0  0  0  0  0  0  0  0  0
   54.3239   30.6985   51.7952 H   0  0  0  0  0  0  0  0  0  0  0  0
   54.6620   30.7215   53.5269 H   0  0  0  0  0  0  0  0  0  0  0  0
   59.8157   31.1182   48.1837 H   0  0  0  0  0  0  0  0  0  0  0  0
   58.9990   35.0559   48.3222 H   0  0  0  0  0  0  0  0  0  0  0  0
   60.6536   34.3011   50.0224 H   0  0  0  0  0  0  0  0  0  0  0  0
  1  2  1  0
  2  3  2  0
  3  4  1  0
  4  5  2  0
  5  6  1  0
  6  7  2  0
  7  8  1  0
  8  9  1  0
  9 10  2  0
  9 11  1  0
 11 12  2  0
 12 13  1  0
 13 14  2  0
 14 15  1  0
 15 16  1  0
 16 17  1  0
 17 18  1  0
 18 19  2  0
 19 20  1  0
 20 21  1  0
 21 22  1  0
 22 23  2  0
 23 24  1  0
 24 25  2  0
 25 26  1  0
 26 27  1  0
 27 28  1  0
 28 29  2  0
 28 30  1  0
 30 31  2  0
 31 32  1  0
 32 33  2  0
 33 34  1  0
 34 35  2  0
 34 36  1  0
 36 37  1  0
 37 38  1  0
 26 39  2  0
 21 40  2  0
 14 41  1  0
 41 42  2  0
  7  2  1  0
 42 11  1  0
 40 18  1  0
 39 22  1  0
 35 30  1  0
 38 33  1  0
  1 43  1  0
  1 44  1  0
  3 45  1  0
  4 46  1  0
  5 47  1  0
  6 48  1  0
  8 49  1  0
 12 50  1  0
 13 51  1  0
 15 52  1  0
 15 53  1  0
 16 54  1  0
 17 55  1  0
 17 56  1  0
 19 57  1  0
 23 58  1  0
 24 59  1  0
 25 60  1  0
 31 61  1  0
 32 62  1  0
 35 63  1  0
 37 64  1  0
 37 65  1  0
 39 66  1  0
 41 67  1  0
 42 68  1  0
M  CHG  1  27  -1
M  END
>  <UniqueID>  (30) 
26

>  <SMILES>  (30) 
Nc1ccccc1NC(=O)c1ccc(CNCc2coc(-c3cccc([N-]C(=O)c4ccc5c(c4)OCO5)c3)n2)cc1

>  <Energy>  (30) 
149.3746573997154

>  <Genealogy>  (30) 
Nc1ccccc1NC(=O)c1ccc(CNCc2coc(-c3cccc([N-]C(=O)c4ccc5c(c4)OCO5)c3)n2)cc1 (protonated)
Nc1ccccc1NC(=O)c1ccc(CNCc2coc(-c3cccc([N-]C(=O)c4ccc5c(c4)OCO5)c3)n2)cc1 (3D coordinates assigned)
Nc1ccccc1NC(=O)c1ccc(CNCc2coc(-c3cccc([N-]C(=O)c4ccc5c(c4)OCO5)c3)n2)cc1 (nonaromatic ring conformer: 149.3746573997154 kcal/mol)

>  <smiles>  (30) 
Nc1ccccc1NC(=O)c1ccc(CNCc2coc(-c3cccc(NC(=O)c4ccc5c(c4)OCO5)c3)n2)cc1

>  <score_type>  (30) 
oracle

>  <origin>  (30) 
adg

>  <m_score__min__energy>  (30) 
-11.470000000000001

>  <m_primary>  (30) 
energy

$$$$
30:0
     RDKit          3D

 43 46  0  0  0  0  0  0  0  0999 V2000
   64.3841   33.9350   47.1685 H   0  0  0  0  0  0  0  0  0  0  0  0
   63.3140   33.8260   47.3990 C   0  0  0  0  0  0  0  0  0  0  0  0
   62.8900   33.7400   48.7540 C   0  0  0  0  0  0  0  0  0  0  0  0
   63.7910   33.7970   49.8260 O   0  0  0  0  0  0  0  0  0  0  0  0
   64.9630   32.9940   49.9330 C   0  0  0  0  0  0  0  0  0  0  0  0
   65.2004   32.8314   50.9947 H   0  0  0  0  0  0  0  0  0  0  0  0
   64.7891   32.0244   49.4435 H   0  0  0  0  0  0  0  0  0  0  0  0
   65.8044   33.5062   49.4435 H   0  0  0  0  0  0  0  0  0  0  0  0
   61.5200   33.5940   49.0440 C   0  0  0  0  0  0  0  0  0  0  0  0
   61.1703   33.5249   50.0846 H   0  0  0  0  0  0  0  0  0  0  0  0
   60.6180   33.5390   47.9860 C   0  0  0  0  0  0  0  0  0  0  0  0
   58.9490   33.3630   48.0390 S   0  0  0  0  0  0  0  0  0  0  0  0
   58.8260   33.4200   46.3530 C   0  0  0  0  0  0  0  0  0  0  0  0
   57.2830   33.3060   45.4560 S   0  0  0  0  0  0  0  0  0  0  0  0
   57.8610   31.9350   44.4040 C   0  0  0  0  0  0  0  0  0  0  0  0
   57.6698   32.1794   43.3487 H   0  0  0  0  0  0  0  0  0  0  0  0
   58.9395   31.7872   44.5620 H   0  0  0  0  0  0  0  0  0  0  0  0
   57.1350   30.6790   44.7610 C   0  0  0  0  0  0  0  0  0  0  0  0
   55.8970   30.5960   44.5330 O   0  0  0  0  0  0  0  0  0  0  0  0
   57.8640   29.5760   45.3200 N   0  0  0  0  0  0  0  0  0  0  0  0
   57.5900   28.3170   45.1550 C   0  0  0  0  0  0  0  0  0  0  0  0
   56.7760   27.6010   45.9720 N   0  0  0  0  0  0  0  0  0  0  0  0
   56.6780   26.3170   45.5420 C   0  0  0  0  0  0  0  0  0  0  0  0
   55.9170   25.3320   46.1730 C   0  0  0  0  0  0  0  0  0  0  0  0
   55.3445   25.5624   47.0836 H   0  0  0  0  0  0  0  0  0  0  0  0
   55.8970   24.0390   45.6210 C   0  0  0  0  0  0  0  0  0  0  0  0
   55.3092   23.2476   46.1091 H   0  0  0  0  0  0  0  0  0  0  0  0
   56.6240   23.7460   44.4460 C   0  0  0  0  0  0  0  0  0  0  0  0
   56.5940   22.1240   43.7620 S   0  0  0  0  0  0  0  0  0  0  0  0
   55.7310   21.2260   44.6030 O   0  0  0  0  0  0  0  0  0  0  0  0
   56.0260   22.1740   42.3710 O   0  0  0  0  0  0  0  0  0  0  0  0
   58.2480   21.4740   43.7120 C   0  0  0  0  0  0  0  0  0  0  0  0
   58.6163   21.3293   44.7384 H   0  0  0  0  0  0  0  0  0  0  0  0
   58.2471   20.5094   43.1833 H   0  0  0  0  0  0  0  0  0  0  0  0
   58.9041   22.1812   43.1833 H   0  0  0  0  0  0  0  0  0  0  0  0
   57.3940   24.7490   43.8290 C   0  0  0  0  0  0  0  0  0  0  0  0
   57.9750   24.5347   42.9199 H   0  0  0  0  0  0  0  0  0  0  0  0
   57.4020   26.0190   44.3980 C   0  0  0  0  0  0  0  0  0  0  0  0
   58.2170   27.3940   43.8830 S   0  0  0  0  0  0  0  0  0  0  0  0
   60.0300   33.5690   45.7450 N   0  0  0  0  0  0  0  0  0  0  0  0
   61.0260   33.6300   46.6640 C   0  0  0  0  0  0  0  0  0  0  0  0
   62.3780   33.7730   46.3520 C   0  0  0  0  0  0  0  0  0  0  0  0
   62.7060   33.8431   45.3044 H   0  0  0  0  0  0  0  0  0  0  0  0
  1  2  1  0
  2  3  2  0
  3  4  1  0
  4  5  1  0
  5  6  1  0
  5  7  1  0
  5  8  1  0
  3  9  1  0
  9 10  1  0
  9 11  2  0
 11 12  1  0
 12 13  1  0
 13 14  1  0
 14 15  1  0
 15 16  1  0
 15 17  1  0
 15 18  1  0
 18 19  2  0
 18 20  1  0
 20 21  2  0
 21 22  1  0
 22 23  1  0
 23 24  2  0
 24 25  1  0
 24 26  1  0
 26 27  1  0
 26 28  2  0
 28 29  1  0
 29 30  2  0
 29 31  2  0
 29 32  1  0
 32 33  1  0
 32 34  1  0
 32 35  1  0
 28 36  1  0
 36 37  1  0
 36 38  2  0
 38 39  1  0
 13 40  2  0
 40 41  1  0
 41 42  2  0
 42 43  1  0
 42  2  1  0
 41 11  1  0
 39 21  1  0
 38 23  1  0
M  CHG  1  22  -1
M  END
>  <UniqueID>  (31) 
27

>  <SMILES>  (31) 
COc1ccc2nc(SCC(=O)/N=c3\[n-]c4ccc(S(C)(=O)=O)cc4s3)sc2c1

>  <Energy>  (31) 
110.31036619865212

>  <Genealogy>  (31) 
COc1ccc2nc(SCC(=O)N=c3[n-]c4ccc(S(C)(=O)=O)cc4s3)sc2c1 (protonated)
COc1ccc2nc(SCC(=O)/N=c3\[n-]c4ccc(S(C)(=O)=O)cc4s3)sc2c1 (cis-trans isomerization)
COc1ccc2nc(SCC(=O)/N=c3\[n-]c4ccc(S(C)(=O)=O)cc4s3)sc2c1 (3D coordinates assigned)
COc1ccc2nc(SCC(=O)/N=c3\[n-]c4ccc(S(C)(=O)=O)cc4s3)sc2c1 (optimized conformer: 110.31036619865212 kcal/mol)

>  <smiles>  (31) 
COc1ccc2nc(SCC(=O)N=c3[nH]c4ccc(S(C)(=O)=O)cc4s3)sc2c1

>  <score_type>  (31) 
oracle

>  <origin>  (31) 
adg

>  <m_score__min__energy>  (31) 
-11.199999999999999

>  <m_primary>  (31) 
energy

$$$$
31:0
     RDKit          3D

 42 44  0  0  0  0  0  0  0  0999 V2000
   59.3270   35.2090   47.0990 C   0  0  0  0  0  0  0  0  0  0  0  0
   58.7270   34.1240   46.2410 C   0  0  0  0  0  0  0  0  0  0  0  0
   57.9740   33.0890   46.8250 C   0  0  0  0  0  0  0  0  0  0  0  0
   57.7800   33.0480   48.2430 N   0  0  0  0  0  0  0  0  0  0  0  0
   58.9720   32.4180   49.3300 S   0  0  0  0  0  0  0  0  0  0  0  0
   58.7190   30.9550   49.5540 O   0  0  0  0  0  0  0  0  0  0  0  0
   58.8720   33.1220   50.6540 O   0  0  0  0  0  0  0  0  0  0  0  0
   60.5780   32.6360   48.6430 C   0  0  0  0  0  0  0  0  0  0  0  0
   61.3920   33.6880   49.0820 C   0  0  0  0  0  0  0  0  0  0  0  0
   62.6720   33.8570   48.5410 C   0  0  0  0  0  0  0  0  0  0  0  0
   63.1440   32.9730   47.5650 C   0  0  0  0  0  0  0  0  0  0  0  0
   64.3830   33.1360   47.0400 F   0  0  0  0  0  0  0  0  0  0  0  0
   62.3350   31.9180   47.1280 C   0  0  0  0  0  0  0  0  0  0  0  0
   61.0560   31.7490   47.6670 C   0  0  0  0  0  0  0  0  0  0  0  0
   57.4340   32.1210   46.0390 N   0  0  0  0  0  0  0  0  0  0  0  0
   57.6100   32.1230   44.6950 C   0  0  0  0  0  0  0  0  0  0  0  0
   56.8740   30.8270   43.7020 S   0  0  0  0  0  0  0  0  0  0  0  0
   58.0680   29.5700   44.2570 C   0  0  0  0  0  0  0  0  0  0  0  0
   57.6310   29.0160   45.5700 C   0  0  0  0  0  0  0  0  0  0  0  0
   58.0920   29.5050   46.6360 O   0  0  0  0  0  0  0  0  0  0  0  0
   56.6150   28.0080   45.6070 N   0  0  0  0  0  0  0  0  0  0  0  0
   56.7710   26.6970   46.1740 C   0  0  0  0  0  0  0  0  0  0  0  0
   55.6500   25.8760   46.3310 C   0  0  0  0  0  0  0  0  0  0  0  0
   54.3880   26.3370   45.9770 O   0  0  0  0  0  0  0  0  0  0  0  0
   55.7880   24.6250   46.8450 N   0  0  0  0  0  0  0  0  0  0  0  0
   57.0070   24.1420   47.1990 C   0  0  0  0  0  0  0  0  0  0  0  0
   57.1130   22.9790   47.6710 O   0  0  0  0  0  0  0  0  0  0  0  0
   58.1150   24.9080   47.0320 N   0  0  0  0  0  0  0  0  0  0  0  0
   58.0300   26.1650   46.5230 C   0  0  0  0  0  0  0  0  0  0  0  0
   59.0840   26.8260   46.3360 O   0  0  0  0  0  0  0  0  0  0  0  0
   58.3420   33.1020   44.1080 N   0  0  0  0  0  0  0  0  0  0  0  0
   58.9060   34.0950   44.8440 C   0  0  0  0  0  0  0  0  0  0  0  0
   59.5870   34.9810   44.2630 O   0  0  0  0  0  0  0  0  0  0  0  0
   59.1873   34.9564   48.1605 H   0  0  0  0  0  0  0  0  0  0  0  0
   60.4017   35.2964   46.8812 H   0  0  0  0  0  0  0  0  0  0  0  0
   58.8297   36.1657   46.8812 H   0  0  0  0  0  0  0  0  0  0  0  0
   61.0251   34.3820   49.8526 H   0  0  0  0  0  0  0  0  0  0  0  0
   63.3078   34.6865   48.8840 H   0  0  0  0  0  0  0  0  0  0  0  0
   62.7052   31.2220   46.3608 H   0  0  0  0  0  0  0  0  0  0  0  0
   60.4224   30.9176   47.3245 H   0  0  0  0  0  0  0  0  0  0  0  0
   58.1184   28.7592   43.5153 H   0  0  0  0  0  0  0  0  0  0  0  0
   59.0614   30.0299   44.3651 H   0  0  0  0  0  0  0  0  0  0  0  0
  1  2  1  0
  2  3  2  0
  3  4  1  0
  4  5  1  0
  5  6  2  0
  5  7  2  0
  5  8  1  0
  8  9  2  0
  9 10  1  0
 10 11  2  0
 11 12  1  0
 11 13  1  0
 13 14  2  0
  3 15  1  0
 15 16  1  0
 16 17  1  0
 17 18  1  0
 18 19  1  0
 19 20  2  0
 19 21  1  0
 21 22  1  0
 22 23  2  0
 23 24  1  0
 23 25  1  0
 25 26  1  0
 26 27  2  0
 26 28  1  0
 28 29  1  0
 29 30  2  0
 16 31  2  0
 31 32  1  0
 32 33  2  0
 32  2  1  0
 14  8  1  0
 29 22  1  0
  1 34  1  0
  1 35  1  0
  1 36  1  0
  9 37  1  0
 10 38  1  0
 13 39  1  0
 14 40  1  0
 18 41  1  0
 18 42  1  0
M  CHG  6   4  -1  15  -1  21  -1  24  -1  25  -1  28  -1
M  END
>  <UniqueID>  (32) 
28

>  <SMILES>  (32) 
Cc1c([N-]S(=O)(=O)c2ccc(F)cc2)[n-]c(SCC(=O)[N-]c2c([O-])[n-]c(=O)[n-]c2=O)nc1=O

>  <Energy>  (32) 
50.059621493765796

>  <Genealogy>  (32) 
Cc1c([N-]S(=O)(=O)c2ccc(F)cc2)[n-]c(SCC(=O)[N-]c2c([O-])[n-]c(=O)[n-]c2=O)nc1=O (protonated)
Cc1c([N-]S(=O)(=O)c2ccc(F)cc2)[n-]c(SCC(=O)[N-]c2c([O-])[n-]c(=O)[n-]c2=O)nc1=O (3D coordinates assigned)
Cc1c([N-]S(=O)(=O)c2ccc(F)cc2)[n-]c(SCC(=O)[N-]c2c([O-])[n-]c(=O)[n-]c2=O)nc1=O (optimized conformer: 50.059621493765796 kcal/mol)

>  <smiles>  (32) 
Cc1c(NS(=O)(=O)c2ccc(F)cc2)[nH]c(SCC(=O)Nc2c(O)[nH]c(=O)[nH]c2=O)nc1=O

>  <score_type>  (32) 
oracle

>  <origin>  (32) 
adg

>  <m_score__min__energy>  (32) 
-20.079999999999998

>  <m_primary>  (32) 
energy

$$$$
32:0
     RDKit          3D

106112  0  0  0  0  0  0  0  0999 V2000
   67.5010   29.1280   50.4750 N   0  0  0  0  0  0  0  0  0  0  0  0
   68.3110   28.0180   50.9740 C   0  0  0  0  0  0  0  0  0  0  0  0
   67.4560   27.0190   51.7830 C   0  0  0  0  0  0  0  0  0  0  0  0
   66.3860   26.3370   50.8920 C   0  0  0  0  0  0  0  0  0  0  0  0
   65.0900   26.0590   51.6570 C   0  0  0  0  0  0  0  0  0  0  0  0
   64.5570   27.3310   52.1640 N   0  0  0  0  0  0  0  0  0  0  0  0
   63.1590   27.6350   51.9960 C   0  0  0  0  0  0  0  0  0  0  0  0
   62.3020   26.7300   52.1720 O   0  0  0  0  0  0  0  0  0  0  0  0
   62.6980   29.0020   51.5620 C   0  0  0  0  0  0  0  0  0  0  0  0
   63.1000   30.1140   52.5540 C   0  0  1  0  0  0  0  0  0  0  0  0
   63.4510   31.3390   51.8390 N   0  0  0  0  0  0  0  0  0  0  0  0
   64.5770   31.5080   50.9690 C   0  0  0  0  0  0  0  0  0  0  0  0
   65.5160   30.6720   51.0430 O   0  0  0  0  0  0  0  0  0  0  0  0
   64.6850   32.6730   50.0180 C   0  0  0  0  0  0  0  0  0  0  0  0
   63.4180   32.8930   49.2290 C   0  0  0  0  0  0  0  0  0  0  0  0
   62.2750   33.4040   49.8560 C   0  0  0  0  0  0  0  0  0  0  0  0
   61.1100   33.6380   49.1190 C   0  0  0  0  0  0  0  0  0  0  0  0
   61.0750   33.3780   47.7390 C   0  0  0  0  0  0  0  0  0  0  0  0
   59.8530   33.6600   46.9500 C   0  0  0  0  0  0  0  0  0  0  0  0
   59.9510   34.1870   45.6500 C   0  0  0  0  0  0  0  0  0  0  0  0
   58.7970   34.4490   44.9070 C   0  0  0  0  0  0  0  0  0  0  0  0
   57.5360   34.1880   45.4450 C   0  0  0  0  0  0  0  0  0  0  0  0
   57.4280   33.6670   46.7370 C   0  0  0  0  0  0  0  0  0  0  0  0
   58.5780   33.4080   47.4890 C   0  0  0  0  0  0  0  0  0  0  0  0
   62.2190   32.8600   47.1160 C   0  0  0  0  0  0  0  0  0  0  0  0
   63.3790   32.6130   47.8530 C   0  0  0  0  0  0  0  0  0  0  0  0
   61.9990   30.3960   53.5500 C   0  0  0  0  0  0  0  0  0  0  0  0
   62.0440   29.8120   54.6640 O   0  0  0  0  0  0  0  0  0  0  0  0
   60.8910   31.2720   53.2990 N   0  0  0  0  0  0  0  0  0  0  0  0
   59.8870   31.2210   52.2330 C   0  0  2  0  0  0  0  0  0  0  0  0
   58.7360   32.1880   52.5750 C   0  0  0  0  0  0  0  0  0  0  0  0
   57.6840   31.5000   53.3930 C   0  0  0  0  0  0  0  0  0  0  0  0
   57.8340   31.0400   54.6990 C   0  0  0  0  0  0  0  0  0  0  0  0
   56.7360   30.3530   55.0870 N   0  0  0  0  0  0  0  0  0  0  0  0
   55.9040   30.3590   54.0350 C   0  0  0  0  0  0  0  0  0  0  0  0
   54.6670   29.7270   53.9380 C   0  0  0  0  0  0  0  0  0  0  0  0
   53.9700   29.8270   52.7180 C   0  0  0  0  0  0  0  0  0  0  0  0
   54.5230   30.5450   51.6320 C   0  0  0  0  0  0  0  0  0  0  0  0
   55.7790   31.1650   51.7580 C   0  0  0  0  0  0  0  0  0  0  0  0
   56.4440   31.0510   52.9790 C   0  0  0  0  0  0  0  0  0  0  0  0
   59.3610   29.8060   52.0990 C   0  0  0  0  0  0  0  0  0  0  0  0
   59.4880   29.0010   53.0610 O   0  0  0  0  0  0  0  0  0  0  0  0
   58.6390   29.3700   50.9390 N   0  0  0  0  0  0  0  0  0  0  0  0
   59.1650   29.3340   49.6100 C   0  0  0  0  0  0  0  0  0  0  0  0
   58.8910   30.3930   48.7350 C   0  0  0  0  0  0  0  0  0  0  0  0
   59.4220   30.3880   47.4420 C   0  0  0  0  0  0  0  0  0  0  0  0
   60.2090   29.3180   46.9990 C   0  0  0  0  0  0  0  0  0  0  0  0
   60.7520   29.3840   45.7050 O   0  0  0  0  0  0  0  0  0  0  0  0
   60.0970   28.9480   44.5120 C   0  0  0  0  0  0  0  0  0  0  0  0
   58.6660   29.4200   44.4750 C   0  0  0  0  0  0  0  0  0  0  0  0
   57.6210   28.5560   44.8530 C   0  0  0  0  0  0  0  0  0  0  0  0
   56.2960   29.0000   44.8260 C   0  0  0  0  0  0  0  0  0  0  0  0
   56.0010   30.3010   44.4090 C   0  0  0  0  0  0  0  0  0  0  0  0
   57.0320   31.1600   44.0200 C   0  0  0  0  0  0  0  0  0  0  0  0
   58.3590   30.7210   44.0440 C   0  0  0  0  0  0  0  0  0  0  0  0
   60.4330   28.2280   47.8640 C   0  0  0  0  0  0  0  0  0  0  0  0
   59.9120   28.2360   49.1590 C   0  0  0  0  0  0  0  0  0  0  0  0
   65.4670   28.3110   52.7710 C   0  0  0  0  0  0  0  0  0  0  0  0
   66.8520   27.7050   53.0360 C   0  0  0  0  0  0  0  0  0  0  0  0
   67.5610   29.9140   51.1660 H   0  0  0  0  0  0  0  0  0  0  0  0
   66.5030   28.8160   50.4740 H   0  0  0  0  0  0  0  0  0  0  0  0
   68.7639   27.4927   50.1202 H   0  0  0  0  0  0  0  0  0  0  0  0
   69.0884   28.4259   51.6368 H   0  0  0  0  0  0  0  0  0  0  0  0
   68.1096   26.2115   52.1445 H   0  0  0  0  0  0  0  0  0  0  0  0
   66.1607   26.9965   50.0410 H   0  0  0  0  0  0  0  0  0  0  0  0
   66.7925   25.3725   50.5537 H   0  0  0  0  0  0  0  0  0  0  0  0
   64.3559   25.5928   50.9834 H   0  0  0  0  0  0  0  0  0  0  0  0
   65.2905   25.3768   52.4963 H   0  0  0  0  0  0  0  0  0  0  0  0
   63.1435   29.2280   50.5820 H   0  0  0  0  0  0  0  0  0  0  0  0
   61.5991   28.9811   51.5169 H   0  0  0  0  0  0  0  0  0  0  0  0
   63.9795   29.7564   53.1095 H   0  0  0  0  0  0  0  0  0  0  0  0
   64.9024   33.5825   50.5973 H   0  0  0  0  0  0  0  0  0  0  0  0
   65.4897   32.4476   49.3027 H   0  0  0  0  0  0  0  0  0  0  0  0
   62.2937   33.6225   50.9339 H   0  0  0  0  0  0  0  0  0  0  0  0
   60.2141   34.0287   49.6237 H   0  0  0  0  0  0  0  0  0  0  0  0
   60.9404   34.3939   45.2161 H   0  0  0  0  0  0  0  0  0  0  0  0
   58.8830   34.8635   43.8917 H   0  0  0  0  0  0  0  0  0  0  0  0
   56.6307   34.3916   44.8543 H   0  0  0  0  0  0  0  0  0  0  0  0
   56.4355   33.4600   47.1637 H   0  0  0  0  0  0  0  0  0  0  0  0
   58.4853   33.0048   48.5082 H   0  0  0  0  0  0  0  0  0  0  0  0
   62.2027   32.6462   46.0371 H   0  0  0  0  0  0  0  0  0  0  0  0
   64.2666   32.1972   47.3537 H   0  0  0  0  0  0  0  0  0  0  0  0
   60.3404   31.5225   51.2772 H   0  0  0  0  0  0  0  0  0  0  0  0
   59.1375   33.0381   53.1461 H   0  0  0  0  0  0  0  0  0  0  0  0
   58.2795   32.5366   51.6369 H   0  0  0  0  0  0  0  0  0  0  0  0
   58.7210   31.2115   55.3266 H   0  0  0  0  0  0  0  0  0  0  0  0
   56.5880   29.8800   56.0070 H   0  0  0  0  0  0  0  0  0  0  0  0
   54.2475   29.1675   54.7871 H   0  0  0  0  0  0  0  0  0  0  0  0
   52.9882   29.3430   52.6090 H   0  0  0  0  0  0  0  0  0  0  0  0
   53.9683   30.6187   50.6849 H   0  0  0  0  0  0  0  0  0  0  0  0
   56.2231   31.7223   50.9201 H   0  0  0  0  0  0  0  0  0  0  0  0
   58.2574   31.2292   49.0657 H   0  0  0  0  0  0  0  0  0  0  0  0
   59.2198   31.2322   46.7664 H   0  0  0  0  0  0  0  0  0  0  0  0
   60.6315   29.3531   43.6401 H   0  0  0  0  0  0  0  0  0  0  0  0
   60.1027   27.8482   44.4924 H   0  0  0  0  0  0  0  0  0  0  0  0
   57.8480   27.5277   45.1708 H   0  0  0  0  0  0  0  0  0  0  0  0
   55.4841   28.3245   45.1334 H   0  0  0  0  0  0  0  0  0  0  0  0
   54.9576   30.6485   44.3871 H   0  0  0  0  0  0  0  0  0  0  0  0
   56.7989   32.1844   43.6940 H   0  0  0  0  0  0  0  0  0  0  0  0
   59.1657   31.3970   43.7242 H   0  0  0  0  0  0  0  0  0  0  0  0
   61.0217   27.3661   47.5166 H   0  0  0  0  0  0  0  0  0  0  0  0
   60.0876   27.3798   49.8268 H   0  0  0  0  0  0  0  0  0  0  0  0
   65.5762   29.1673   52.0892 H   0  0  0  0  0  0  0  0  0  0  0  0
   65.0396   28.6283   53.7336 H   0  0  0  0  0  0  0  0  0  0  0  0
   67.5311   28.5077   53.3593 H   0  0  0  0  0  0  0  0  0  0  0  0
   66.7340   26.9342   53.8118 H   0  0  0  0  0  0  0  0  0  0  0  0
  1  2  1  0
  2  3  1  0
  3  4  1  0
  4  5  1  0
  5  6  1  0
  6  7  1  0
  7  8  2  0
  7  9  1  0
  9 10  1  0
 10 11  1  0
 11 12  1  0
 12 13  2  0
 12 14  1  0
 14 15  1  0
 15 16  2  0
 16 17  1  0
 17 18  2  0
 18 19  1  0
 19 20  2  0
 20 21  1  0
 21 22  2  0
 22 23  1  0
 23 24  2  0
 18 25  1  0
 25 26  2  0
 10 27  1  0
 27 28  2  0
 27 29  1  0
 29 30  1  0
 30 31  1  0
 31 32  1  0
 32 33  2  0
 33 34  1  0
 34 35  1  0
 35 36  2  0
 36 37  1  0
 37 38  2  0
 38 39  1  0
 39 40  2  0
 30 41  1  0
 41 42  2  0
 41 43  1  0
 43 44  1  0
 44 45  2  0
 45 46  1  0
 46 47  2  0
 47 48  1  0
 48 49  1  0
 49 50  1  0
 50 51  2  0
 51 52  1  0
 52 53  2  0
 53 54  1  0
 54 55  2  0
 47 56  1  0
 56 57  2  0
  6 58  1  0
 58 59  1  0
 59  3  1  0
 26 15  1  0
 40 32  1  0
 57 44  1  0
 24 19  1  0
 40 35  1  0
 55 50  1  0
  1 60  1  0
  1 61  1  0
  2 62  1  0
  2 63  1  0
  3 64  1  0
  4 65  1  0
  4 66  1  0
  5 67  1  0
  5 68  1  0
  9 69  1  0
  9 70  1  0
 10 71  1  1
 14 72  1  0
 14 73  1  0
 16 74  1  0
 17 75  1  0
 20 76  1  0
 21 77  1  0
 22 78  1  0
 23 79  1  0
 24 80  1  0
 25 81  1  0
 26 82  1  0
 30 83  1  6
 31 84  1  0
 31 85  1  0
 33 86  1  0
 34 87  1  0
 36 88  1  0
 37 89  1  0
 38 90  1  0
 39 91  1  0
 45 92  1  0
 46 93  1  0
 49 94  1  0
 49 95  1  0
 51 96  1  0
 52 97  1  0
 53 98  1  0
 54 99  1  0
 55100  1  0
 56101  1  0
 57102  1  0
 58103  1  0
 58104  1  0
 59105  1  0
 59106  1  0
M  CHG  3  11  -1  29  -1  43  -1
M  END
>  <UniqueID>  (33) 
29

>  <SMILES>  (33) 
NCC1CCN(C(=O)C[C@@H]([N-]C(=O)Cc2ccc(-c3ccccc3)cc2)C(=O)[N-][C@H](Cc2c[nH]c3ccccc23)C(=O)[N-]c2ccc(OCc3ccccc3)cc2)CC1

>  <Energy>  (33) 
148.26231318119457

>  <Genealogy>  (33) 
NCC1CCN(C(=O)CC([N-]C(=O)Cc2ccc(-c3ccccc3)cc2)C(=O)[N-]C(Cc2c[nH]c3ccccc23)C(=O)[N-]c2ccc(OCc3ccccc3)cc2)CC1 (protonated)
NCC1CCN(C(=O)C[C@@H]([N-]C(=O)Cc2ccc(-c3ccccc3)cc2)C(=O)[N-][C@H](Cc2c[nH]c3ccccc23)C(=O)[N-]c2ccc(OCc3ccccc3)cc2)CC1 (chirality)
NCC1CCN(C(=O)C[C@@H]([N-]C(=O)Cc2ccc(-c3ccccc3)cc2)C(=O)[N-][C@H](Cc2c[nH]c3ccccc23)C(=O)[N-]c2ccc(OCc3ccccc3)cc2)CC1 (3D coordinates assigned)
NCC1CCN(C(=O)C[C@@H]([N-]C(=O)Cc2ccc(-c3ccccc3)cc2)C(=O)[N-][C@H](Cc2c[nH]c3ccccc23)C(=O)[N-]c2ccc(OCc3ccccc3)cc2)CC1 (nonaromatic ring conformer: 148.26231318119457 kcal/mol)

>  <smiles>  (33) 
NCC1CCN(C(=O)CC(NC(=O)Cc2ccc(-c3ccccc3)cc2)C(=O)NC(Cc2c[nH]c3ccccc23)C(=O)Nc2ccc(OCc3ccccc3)cc2)CC1

>  <score_type>  (33) 
oracle

>  <origin>  (33) 
adg

>  <m_score__min__energy>  (33) 
-14.699999999999999

>  <m_primary>  (33) 
energy

$$$$
33:0
     RDKit          3D

 42 44  0  0  0  0  0  0  0  0999 V2000
   67.8380   32.4560   50.9670 C   0  0  0  0  0  0  0  0  0  0  0  0
   66.7930   30.9660   50.9080 S   0  0  0  0  0  0  0  0  0  0  0  0
   65.3040   31.8820   50.5120 C   0  0  0  0  0  0  0  0  0  0  0  0
   65.3750   33.1090   49.8480 C   0  0  0  0  0  0  0  0  0  0  0  0
   64.2350   33.7920   49.5670 N   0  0  0  0  0  0  0  0  0  0  0  0
   63.0200   33.2980   49.9190 C   0  0  0  0  0  0  0  0  0  0  0  0
   61.5340   34.2330   49.5690 S   0  0  0  0  0  0  0  0  0  0  0  0
   60.8080   32.8870   48.6220 C   0  0  0  0  0  0  0  0  0  0  0  0
   59.5960   32.3530   49.0800 C   0  0  0  0  0  0  0  0  0  0  0  0
   58.9730   31.3100   48.3950 C   0  0  0  0  0  0  0  0  0  0  0  0
   59.5520   30.7770   47.2400 C   0  0  0  0  0  0  0  0  0  0  0  0
   58.8740   29.7200   46.5360 N   0  0  0  0  0  0  0  0  0  0  0  0
   58.0480   29.9340   45.3800 C   0  0  0  0  0  0  0  0  0  0  0  0
   58.2760   31.0780   44.6020 C   0  0  0  0  0  0  0  0  0  0  0  0
   57.4560   31.3670   43.5100 C   0  0  0  0  0  0  0  0  0  0  0  0
   56.4070   30.5120   43.1800 C   0  0  0  0  0  0  0  0  0  0  0  0
   56.1840   29.3530   43.9270 C   0  0  0  0  0  0  0  0  0  0  0  0
   57.0090   29.0350   45.0220 C   0  0  0  0  0  0  0  0  0  0  0  0
   56.7930   27.7520   45.7340 C   0  0  0  0  0  0  0  0  0  0  0  0
   55.5420   27.0750   45.6300 N   0  0  0  0  0  0  0  0  0  0  0  0
   57.7170   27.2320   46.4130 O   0  0  0  0  0  0  0  0  0  0  0  0
   60.7890   31.2780   46.7980 C   0  0  0  0  0  0  0  0  0  0  0  0
   61.4290   32.3360   47.4730 C   0  0  0  0  0  0  0  0  0  0  0  0
   62.7070   32.8000   46.9950 N   0  0  0  0  0  0  0  0  0  0  0  0
   63.7040   32.0500   47.0480 O   0  0  0  0  0  0  0  0  0  0  0  0
   62.8320   34.0110   46.3550 O   0  0  0  0  0  0  0  0  0  0  0  0
   62.9310   32.1000   50.5550 N   0  0  0  0  0  0  0  0  0  0  0  0
   64.0450   31.3850   50.8550 C   0  0  0  0  0  0  0  0  0  0  0  0
   68.0291   32.7285   52.0154 H   0  0  0  0  0  0  0  0  0  0  0  0
   68.7934   32.2541   50.4606 H   0  0  0  0  0  0  0  0  0  0  0  0
   67.3227   33.2855   50.4606 H   0  0  0  0  0  0  0  0  0  0  0  0
   66.3515   33.5210   49.5535 H   0  0  0  0  0  0  0  0  0  0  0  0
   59.1310   32.7609   49.9896 H   0  0  0  0  0  0  0  0  0  0  0  0
   58.0202   30.9044   48.7660 H   0  0  0  0  0  0  0  0  0  0  0  0
   59.0790   28.7300   46.8060 H   0  0  0  0  0  0  0  0  0  0  0  0
   59.1073   31.7528   44.8541 H   0  0  0  0  0  0  0  0  0  0  0  0
   57.6383   32.2705   42.9096 H   0  0  0  0  0  0  0  0  0  0  0  0
   55.7524   30.7502   42.3287 H   0  0  0  0  0  0  0  0  0  0  0  0
   55.3553   28.6821   43.6567 H   0  0  0  0  0  0  0  0  0  0  0  0
   54.8590   27.0870   46.4200 H   0  0  0  0  0  0  0  0  0  0  0  0
   61.2652   30.8364   45.9101 H   0  0  0  0  0  0  0  0  0  0  0  0
   63.9562   30.4157   51.3674 H   0  0  0  0  0  0  0  0  0  0  0  0
  1  2  1  0
  2  3  1  0
  3  4  2  0
  4  5  1  0
  5  6  2  0
  6  7  1  0
  7  8  1  0
  8  9  2  0
  9 10  1  0
 10 11  2  0
 11 12  1  0
 12 13  1  0
 13 14  2  0
 14 15  1  0
 15 16  2  0
 16 17  1  0
 17 18  2  0
 18 19  1  0
 19 20  1  0
 19 21  2  0
 11 22  1  0
 22 23  2  0
 23 24  1  0
 24 25  2  0
 24 26  1  0
  6 27  1  0
 27 28  2  0
 28  3  1  0
 23  8  1  0
 18 13  1  0
  1 29  1  0
  1 30  1  0
  1 31  1  0
  4 32  1  0
  9 33  1  0
 10 34  1  0
 12 35  1  0
 14 36  1  0
 15 37  1  0
 16 38  1  0
 17 39  1  0
 20 40  1  0
 22 41  1  0
 28 42  1  0
M  CHG  3  20  -1  24   1  26  -1
M  END
>  <UniqueID>  (34) 
30

>  <SMILES>  (34) 
CSc1cnc(Sc2ccc(Nc3ccccc3C([NH-])=O)cc2[N+](=O)[O-])nc1

>  <Energy>  (34) 
52.56870096400954

>  <Genealogy>  (34) 
CSc1cnc(Sc2ccc(Nc3ccccc3C([NH-])=O)cc2[N+](=O)[O-])nc1 (protonated)
CSc1cnc(Sc2ccc(Nc3ccccc3C([NH-])=O)cc2[N+](=O)[O-])nc1 (3D coordinates assigned)
CSc1cnc(Sc2ccc(Nc3ccccc3C([NH-])=O)cc2[N+](=O)[O-])nc1 (optimized conformer: 52.56870096400954 kcal/mol)

>  <smiles>  (34) 
CSc1cnc(Sc2ccc(Nc3ccccc3C(N)=O)cc2[N+](=O)[O-])nc1

>  <score_type>  (34) 
oracle

>  <origin>  (34) 
adg

>  <m_score__min__energy>  (34) 
-12.529999999999999

>  <m_primary>  (34) 
energy

$$$$
34:0
     RDKit          3D

 53 55  0  0  0  0  0  0  0  0999 V2000
   62.9610   33.7940   46.4260 C   0  0  0  0  0  0  0  0  0  0  0  0
   63.4080   33.4000   47.7190 O   0  0  0  0  0  0  0  0  0  0  0  0
   62.7630   32.4480   48.5220 C   0  0  0  0  0  0  0  0  0  0  0  0
   63.5190   31.7540   49.4730 C   0  0  0  0  0  0  0  0  0  0  0  0
   62.9150   30.8260   50.3220 C   0  0  0  0  0  0  0  0  0  0  0  0
   61.5330   30.5710   50.2340 C   0  0  0  0  0  0  0  0  0  0  0  0
   60.8900   29.6620   51.0890 O   0  0  0  0  0  0  0  0  0  0  0  0
   60.7820   28.2630   50.8480 C   0  0  0  0  0  0  0  0  0  0  0  0
   60.7710   31.2490   49.2660 C   0  0  0  0  0  0  0  0  0  0  0  0
   59.0280   30.9810   49.1540 S   0  0  0  0  0  0  0  0  0  0  0  0
   58.5130   30.5440   50.4970 O   0  0  0  0  0  0  0  0  0  0  0  0
   58.7220   29.8960   48.1580 O   0  0  0  0  0  0  0  0  0  0  0  0
   58.2130   32.4360   48.6740 N   0  0  0  0  0  0  0  0  0  0  0  0
   58.4610   33.0680   47.4070 C   0  0  0  0  0  0  0  0  0  0  0  0
   58.9890   34.3670   47.3660 C   0  0  0  0  0  0  0  0  0  0  0  0
   59.2040   35.0030   46.1390 C   0  0  0  0  0  0  0  0  0  0  0  0
   58.8980   34.3450   44.9430 C   0  0  0  0  0  0  0  0  0  0  0  0
   58.3850   33.0410   44.9740 C   0  0  0  0  0  0  0  0  0  0  0  0
   58.0950   32.3210   43.7740 N   0  0  0  0  0  0  0  0  0  0  0  0
   57.0470   30.9430   43.6970 S   0  0  0  0  0  0  0  0  0  0  0  0
   56.6930   30.6650   42.2640 O   0  0  0  0  0  0  0  0  0  0  0  0
   55.7800   31.1880   44.4700 O   0  0  0  0  0  0  0  0  0  0  0  0
   57.8980   29.5790   44.4100 C   0  0  0  0  0  0  0  0  0  0  0  0
   59.2880   29.6110   44.5860 C   0  0  0  0  0  0  0  0  0  0  0  0
   59.9440   28.5310   45.1850 C   0  0  0  0  0  0  0  0  0  0  0  0
   59.2150   27.4190   45.6150 C   0  0  0  0  0  0  0  0  0  0  0  0
   57.8220   27.3860   45.4570 C   0  0  0  0  0  0  0  0  0  0  0  0
   56.8930   25.9930   46.0020 S   0  0  0  0  0  0  0  0  0  0  0  0
   55.2100   26.3820   46.0010 N   0  0  0  0  0  0  0  0  0  0  0  0
   57.1400   24.8350   45.0770 O   0  0  0  0  0  0  0  0  0  0  0  0
   57.3000   25.6130   47.3980 O   0  0  0  0  0  0  0  0  0  0  0  0
   57.1690   28.4660   44.8510 C   0  0  0  0  0  0  0  0  0  0  0  0
   58.1910   32.4020   46.2010 C   0  0  0  0  0  0  0  0  0  0  0  0
   61.3880   32.1750   48.4110 C   0  0  0  0  0  0  0  0  0  0  0  0
   62.1393   34.5183   46.5270 H   0  0  0  0  0  0  0  0  0  0  0  0
   63.7930   34.2578   45.8760 H   0  0  0  0  0  0  0  0  0  0  0  0
   62.6053   32.9103   45.8760 H   0  0  0  0  0  0  0  0  0  0  0  0
   64.6000   31.9418   49.5521 H   0  0  0  0  0  0  0  0  0  0  0  0
   63.5229   30.2897   51.0655 H   0  0  0  0  0  0  0  0  0  0  0  0
   60.7407   27.7277   51.8081 H   0  0  0  0  0  0  0  0  0  0  0  0
   59.8655   28.0593   50.2749 H   0  0  0  0  0  0  0  0  0  0  0  0
   61.6564   27.9211   50.2749 H   0  0  0  0  0  0  0  0  0  0  0  0
   57.3590   32.7030   49.2110 H   0  0  0  0  0  0  0  0  0  0  0  0
   59.2351   34.8878   48.3031 H   0  0  0  0  0  0  0  0  0  0  0  0
   59.6147   36.0231   46.1144 H   0  0  0  0  0  0  0  0  0  0  0  0
   59.0598   34.8504   43.9794 H   0  0  0  0  0  0  0  0  0  0  0  0
   59.8638   30.4869   44.2525 H   0  0  0  0  0  0  0  0  0  0  0  0
   61.0356   28.5568   45.3179 H   0  0  0  0  0  0  0  0  0  0  0  0
   59.7350   26.5677   46.0785 H   0  0  0  0  0  0  0  0  0  0  0  0
   55.1390   27.4230   46.0000 H   0  0  0  0  0  0  0  0  0  0  0  0
   56.0771   28.4410   44.7201 H   0  0  0  0  0  0  0  0  0  0  0  0
   57.8227   31.3657   46.2225 H   0  0  0  0  0  0  0  0  0  0  0  0
   60.7901   32.6925   47.6463 H   0  0  0  0  0  0  0  0  0  0  0  0
  1  2  1  0
  2  3  1  0
  3  4  2  0
  4  5  1  0
  5  6  2  0
  6  7  1  0
  7  8  1  0
  6  9  1  0
  9 10  1  0
 10 11  2  0
 10 12  2  0
 10 13  1  0
 13 14  1  0
 14 15  2  0
 15 16  1  0
 16 17  2  0
 17 18  1  0
 18 19  1  0
 19 20  1  0
 20 21  2  0
 20 22  2  0
 20 23  1  0
 23 24  2  0
 24 25  1  0
 25 26  2  0
 26 27  1  0
 27 28  1  0
 28 29  1  0
 28 30  2  0
 28 31  2  0
 27 32  2  0
 18 33  2  0
  9 34  2  0
 34  3  1  0
 33 14  1  0
 32 23  1  0
  1 35  1  0
  1 36  1  0
  1 37  1  0
  4 38  1  0
  5 39  1  0
  8 40  1  0
  8 41  1  0
  8 42  1  0
 13 43  1  0
 15 44  1  0
 16 45  1  0
 17 46  1  0
 24 47  1  0
 25 48  1  0
 26 49  1  0
 29 50  1  0
 32 51  1  0
 33 52  1  0
 34 53  1  0
M  CHG  2  19  -1  29  -1
M  END
>  <UniqueID>  (35) 
31

>  <SMILES>  (35) 
COc1ccc(OC)c(S(=O)(=O)Nc2cccc([N-]S(=O)(=O)c3cccc(S([NH-])(=O)=O)c3)c2)c1

>  <Energy>  (35) 
62.42503704662718

>  <Genealogy>  (35) 
COc1ccc(OC)c(S(=O)(=O)Nc2cccc([N-]S(=O)(=O)c3cccc(S([NH-])(=O)=O)c3)c2)c1 (protonated)
COc1ccc(OC)c(S(=O)(=O)Nc2cccc([N-]S(=O)(=O)c3cccc(S([NH-])(=O)=O)c3)c2)c1 (3D coordinates assigned)
COc1ccc(OC)c(S(=O)(=O)Nc2cccc([N-]S(=O)(=O)c3cccc(S([NH-])(=O)=O)c3)c2)c1 (optimized conformer: 62.42503704662718 kcal/mol)

>  <smiles>  (35) 
COc1ccc(OC)c(S(=O)(=O)Nc2cccc(NS(=O)(=O)c3cccc(S(N)(=O)=O)c3)c2)c1

>  <score_type>  (35) 
oracle

>  <origin>  (35) 
adg

>  <m_score__min__energy>  (35) 
-14.59

>  <m_primary>  (35) 
energy

$$$$
35:0
     RDKit          3D

 55 58  0  0  0  0  0  0  0  0999 V2000
   57.5690   21.5590   43.4860 C   0  0  0  0  0  0  0  0  0  0  0  0
   56.8030   22.8280   43.7120 C   0  0  0  0  0  0  0  0  0  0  0  0
   55.6090   22.8830   43.3140 O   0  0  0  0  0  0  0  0  0  0  0  0
   57.4140   24.0060   44.3870 C   0  0  0  0  0  0  0  0  0  0  0  0
   58.0400   23.8520   45.6380 C   0  0  0  0  0  0  0  0  0  0  0  0
   58.6230   24.9460   46.2800 C   0  0  0  0  0  0  0  0  0  0  0  0
   58.5850   26.2150   45.6950 C   0  0  0  0  0  0  0  0  0  0  0  0
   59.1680   27.3270   46.3870 N   0  0  0  0  0  0  0  0  0  0  0  0
   58.7410   27.6380   47.7560 C   0  0  0  0  0  0  0  0  0  0  0  0
   58.5440   29.1510   47.9230 C   0  0  0  0  0  0  0  0  0  0  0  0
   59.6190   29.9170   47.2720 N   0  0  0  0  0  0  0  0  0  0  0  0
   59.5010   31.3480   47.1600 C   0  0  0  0  0  0  0  0  0  0  0  0
   58.2740   31.9840   47.4150 C   0  0  0  0  0  0  0  0  0  0  0  0
   58.1570   33.3720   47.2870 C   0  0  0  0  0  0  0  0  0  0  0  0
   59.2610   34.1350   46.8980 C   0  0  0  0  0  0  0  0  0  0  0  0
   60.4830   33.5120   46.6340 C   0  0  0  0  0  0  0  0  0  0  0  0
   60.6050   32.1240   46.7620 C   0  0  0  0  0  0  0  0  0  0  0  0
   60.7500   29.2090   46.6570 C   0  0  0  0  0  0  0  0  0  0  0  0
   60.2210   28.1140   45.7280 C   0  0  0  0  0  0  0  0  0  0  0  0
   57.9580   26.3920   44.4460 C   0  0  0  0  0  0  0  0  0  0  0  0
   57.9800   27.6810   43.8110 N   0  0  0  0  0  0  0  0  0  0  0  0
   57.1850   28.7950   44.2560 C   0  0  0  0  0  0  0  0  0  0  0  0
   56.3220   28.6310   45.1600 O   0  0  0  0  0  0  0  0  0  0  0  0
   57.3730   30.1450   43.6750 C   0  0  0  0  0  0  0  0  0  0  0  0
   58.1130   31.1130   44.3780 C   0  0  0  0  0  0  0  0  0  0  0  0
   58.3050   32.3900   43.8400 C   0  0  0  0  0  0  0  0  0  0  0  0
   57.7690   32.7090   42.5900 C   0  0  0  0  0  0  0  0  0  0  0  0
   57.0450   31.7530   41.8750 C   0  0  0  0  0  0  0  0  0  0  0  0
   56.8490   30.4760   42.4100 C   0  0  0  0  0  0  0  0  0  0  0  0
   57.3880   25.2840   43.7950 C   0  0  0  0  0  0  0  0  0  0  0  0
   57.8371   21.1149   44.4560 H   0  0  0  0  0  0  0  0  0  0  0  0
   56.9470   20.8514   42.9181 H   0  0  0  0  0  0  0  0  0  0  0  0
   58.4849   21.7797   42.9181 H   0  0  0  0  0  0  0  0  0  0  0  0
   58.0702   22.8609   46.1141 H   0  0  0  0  0  0  0  0  0  0  0  0
   59.1160   24.8084   47.2536 H   0  0  0  0  0  0  0  0  0  0  0  0
   57.7917   27.1233   47.9656 H   0  0  0  0  0  0  0  0  0  0  0  0
   59.5170   27.2990   48.4581 H   0  0  0  0  0  0  0  0  0  0  0  0
   57.5812   29.4364   47.4741 H   0  0  0  0  0  0  0  0  0  0  0  0
   58.5625   29.3817   48.9984 H   0  0  0  0  0  0  0  0  0  0  0  0
   57.4008   31.3870   47.7169 H   0  0  0  0  0  0  0  0  0  0  0  0
   57.1947   33.8635   47.4928 H   0  0  0  0  0  0  0  0  0  0  0  0
   59.1678   35.2266   46.7996 H   0  0  0  0  0  0  0  0  0  0  0  0
   61.3507   34.1134   46.3250 H   0  0  0  0  0  0  0  0  0  0  0  0
   61.5685   31.6373   46.5505 H   0  0  0  0  0  0  0  0  0  0  0  0
   61.3566   29.9204   46.0774 H   0  0  0  0  0  0  0  0  0  0  0  0
   61.3702   28.7548   47.4438 H   0  0  0  0  0  0  0  0  0  0  0  0
   59.8076   28.5801   44.8215 H   0  0  0  0  0  0  0  0  0  0  0  0
   61.0522   27.4411   45.4706 H   0  0  0  0  0  0  0  0  0  0  0  0
   58.6790   27.8260   43.0490 H   0  0  0  0  0  0  0  0  0  0  0  0
   58.5442   30.8638   45.3588 H   0  0  0  0  0  0  0  0  0  0  0  0
   58.8780   33.1429   44.4012 H   0  0  0  0  0  0  0  0  0  0  0  0
   57.9175   33.7142   42.1687 H   0  0  0  0  0  0  0  0  0  0  0  0
   56.6279   32.0049   40.8888 H   0  0  0  0  0  0  0  0  0  0  0  0
   56.2822   29.7254   41.8396 H   0  0  0  0  0  0  0  0  0  0  0  0
   56.9155   25.4167   42.8105 H   0  0  0  0  0  0  0  0  0  0  0  0
  1  2  1  0
  2  3  2  0
  2  4  1  0
  4  5  2  0
  5  6  1  0
  6  7  2  0
  7  8  1  0
  8  9  1  0
  9 10  1  0
 10 11  1  0
 11 12  1  0
 12 13  2  0
 13 14  1  0
 14 15  2  0
 15 16  1  0
 16 17  2  0
 11 18  1  0
 18 19  1  0
  7 20  1  0
 20 21  1  0
 21 22  1  0
 22 23  2  0
 22 24  1  0
 24 25  2  0
 25 26  1  0
 26 27  2  0
 27 28  1  0
 28 29  2  0
 20 30  2  0
 30  4  1  0
 19  8  1  0
 29 24  1  0
 17 12  1  0
  1 31  1  0
  1 32  1  0
  1 33  1  0
  5 34  1  0
  6 35  1  0
  9 36  1  0
  9 37  1  0
 10 38  1  0
 10 39  1  0
 13 40  1  0
 14 41  1  0
 15 42  1  0
 16 43  1  0
 17 44  1  0
 18 45  1  0
 18 46  1  0
 19 47  1  0
 19 48  1  0
 21 49  1  0
 25 50  1  0
 26 51  1  0
 27 52  1  0
 28 53  1  0
 29 54  1  0
 30 55  1  0
M  END
>  <UniqueID>  (36) 
32

>  <SMILES>  (36) 
CC(=O)c1ccc(N2CCN(c3ccccc3)CC2)c(NC(=O)c2ccccc2)c1

>  <Energy>  (36) 
75.01673730595084

>  <Genealogy>  (36) 
CC(=O)c1ccc(N2CCN(c3ccccc3)CC2)c(NC(=O)c2ccccc2)c1 (3D coordinates assigned)
CC(=O)c1ccc(N2CCN(c3ccccc3)CC2)c(NC(=O)c2ccccc2)c1 (nonaromatic ring conformer: 75.01673730595084 kcal/mol)

>  <smiles>  (36) 
CC(=O)c1ccc(N2CCN(c3ccccc3)CC2)c(NC(=O)c2ccccc2)c1

>  <score_type>  (36) 
oracle

>  <origin>  (36) 
adg

>  <m_score__min__energy>  (36) 
-8.8599999999999994

>  <m_primary>  (36) 
energy

$$$$
36:0
     RDKit          3D

 37 39  0  0  0  0  0  0  0  0999 V2000
   55.5340   29.9940   44.6120 O   0  0  0  0  0  0  0  0  0  0  0  0
   56.7320   29.7650   44.9240 C   0  0  0  0  0  0  0  0  0  0  0  0
   57.4720   28.6620   44.2100 C   0  0  0  0  0  0  0  0  0  0  0  0
   57.8510   27.4670   45.0720 C   0  0  0  0  0  0  0  0  0  0  0  0
   59.1920   27.0440   45.2170 C   0  0  0  0  0  0  0  0  0  0  0  0
   59.5120   25.9410   46.0110 C   0  0  0  0  0  0  0  0  0  0  0  0
   58.5060   25.2390   46.6730 C   0  0  0  0  0  0  0  0  0  0  0  0
   57.1760   25.6360   46.5400 C   0  0  0  0  0  0  0  0  0  0  0  0
   56.8370   26.7390   45.7460 C   0  0  0  0  0  0  0  0  0  0  0  0
   55.4850   27.0800   45.6490 O   0  0  0  0  0  0  0  0  0  0  0  0
   57.3720   30.6250   45.8790 N   0  0  0  0  0  0  0  0  0  0  0  0
   57.9560   31.9130   45.6330 C   0  0  0  0  0  0  0  0  0  0  0  0
   57.3660   32.8080   44.7230 C   0  0  0  0  0  0  0  0  0  0  0  0
   57.9240   34.0680   44.5070 C   0  0  0  0  0  0  0  0  0  0  0  0
   59.0820   34.4450   45.1850 C   0  0  0  0  0  0  0  0  0  0  0  0
   59.6960   33.5560   46.0680 C   0  0  0  0  0  0  0  0  0  0  0  0
   59.1540   32.2770   46.2870 C   0  0  0  0  0  0  0  0  0  0  0  0
   59.8150   31.3730   47.1930 N   0  0  0  0  0  0  0  0  0  0  0  0
   60.0690   30.0650   46.9870 C   0  0  0  0  0  0  0  0  0  0  0  0
   60.7580   29.5450   48.0640 C   0  0  0  0  0  0  0  0  0  0  0  0
   60.9340   30.5840   48.9570 C   0  0  0  0  0  0  0  0  0  0  0  0
   60.3490   31.6960   48.3890 C   0  0  0  0  0  0  0  0  0  0  0  0
   56.8339   28.3005   43.3902 H   0  0  0  0  0  0  0  0  0  0  0  0
   58.4203   29.1036   43.8698 H   0  0  0  0  0  0  0  0  0  0  0  0
   59.9932   27.5905   44.6979 H   0  0  0  0  0  0  0  0  0  0  0  0
   60.5606   25.6252   46.1144 H   0  0  0  0  0  0  0  0  0  0  0  0
   58.7613   24.3721   47.3001 H   0  0  0  0  0  0  0  0  0  0  0  0
   56.3857   25.0779   47.0634 H   0  0  0  0  0  0  0  0  0  0  0  0
   55.1530   27.9110   45.1760 H   0  0  0  0  0  0  0  0  0  0  0  0
   56.4577   32.5123   44.1775 H   0  0  0  0  0  0  0  0  0  0  0  0
   57.4495   34.7651   43.8006 H   0  0  0  0  0  0  0  0  0  0  0  0
   59.5123   35.4444   45.0238 H   0  0  0  0  0  0  0  0  0  0  0  0
   60.6117   33.8582   46.5973 H   0  0  0  0  0  0  0  0  0  0  0  0
   59.7714   29.4967   46.0934 H   0  0  0  0  0  0  0  0  0  0  0  0
   61.0999   28.5068   48.1871 H   0  0  0  0  0  0  0  0  0  0  0  0
   61.4419   30.5341   49.9314 H   0  0  0  0  0  0  0  0  0  0  0  0
   60.3218   32.6974   48.8434 H   0  0  0  0  0  0  0  0  0  0  0  0
  1  2  2  0
  2  3  1  0
  3  4  1  0
  4  5  2  0
  5  6  1  0
  6  7  2  0
  7  8  1  0
  8  9  2  0
  9 10  1  0
  2 11  1  0
 11 12  1  0
 12 13  2  0
 13 14  1  0
 14 15  2  0
 15 16  1  0
 16 17  2  0
 17 18  1  0
 18 19  1  0
 19 20  2  0
 20 21  1  0
 21 22  2  0
  9  4  1  0
 17 12  1  0
 22 18  1  0
  3 23  1  0
  3 24  1  0
  5 25  1  0
  6 26  1  0
  7 27  1  0
  8 28  1  0
 10 29  1  0
 13 30  1  0
 14 31  1  0
 15 32  1  0
 16 33  1  0
 19 34  1  0
 20 35  1  0
 21 36  1  0
 22 37  1  0
M  CHG  1  11  -1
M  END
>  <UniqueID>  (37) 
33

>  <SMILES>  (37) 
O=C(Cc1ccccc1O)[N-]c1ccccc1-n1cccc1

>  <Energy>  (37) 
79.01059830257867

>  <Genealogy>  (37) 
O=C(Cc1ccccc1O)[N-]c1ccccc1-n1cccc1 (protonated)
O=C(Cc1ccccc1O)[N-]c1ccccc1-n1cccc1 (3D coordinates assigned)
O=C(Cc1ccccc1O)[N-]c1ccccc1-n1cccc1 (optimized conformer: 79.01059830257867 kcal/mol)

>  <smiles>  (37) 
O=C(Cc1ccccc1O)Nc1ccccc1-n1cccc1

>  <score_type>  (37) 
oracle

>  <origin>  (37) 
adg

>  <m_score__min__energy>  (37) 
-9.9900000000000002

>  <m_primary>  (37) 
energy

$$$$
37:0
     RDKit          3D

 38 40  0  0  0  0  0  0  0  0999 V2000
   54.8410   20.6850   45.6760 O   0  0  0  0  0  0  0  0  0  0  0  0
   54.3490   21.8440   45.6430 C   0  0  0  0  0  0  0  0  0  0  0  0
   52.9670   21.9900   45.6570 O   0  0  0  0  0  0  0  0  0  0  0  0
   55.2290   23.0330   45.5900 C   0  0  0  0  0  0  0  0  0  0  0  0
   56.5950   22.8920   45.2940 C   0  0  0  0  0  0  0  0  0  0  0  0
   57.4290   24.0120   45.2440 C   0  0  0  0  0  0  0  0  0  0  0  0
   56.9140   25.2920   45.4910 C   0  0  0  0  0  0  0  0  0  0  0  0
   57.7790   26.4380   45.4400 N   0  0  0  0  0  0  0  0  0  0  0  0
   58.3890   26.9570   46.6710 C   0  0  0  0  0  0  0  0  0  0  0  0
   58.2500   28.4850   46.7240 C   0  0  0  0  0  0  0  0  0  0  0  0
   58.5220   29.1010   45.4150 N   0  0  0  0  0  0  0  0  0  0  0  0
   58.2420   30.4990   45.2170 C   0  0  0  0  0  0  0  0  0  0  0  0
   58.0440   31.0090   43.9220 C   0  0  0  0  0  0  0  0  0  0  0  0
   57.7600   32.3650   43.7320 C   0  0  0  0  0  0  0  0  0  0  0  0
   57.6660   33.2230   44.8320 C   0  0  0  0  0  0  0  0  0  0  0  0
   57.3900   34.5370   44.6430 F   0  0  0  0  0  0  0  0  0  0  0  0
   57.8550   32.7250   46.1240 C   0  0  0  0  0  0  0  0  0  0  0  0
   57.7660   33.5550   47.1920 F   0  0  0  0  0  0  0  0  0  0  0  0
   58.1390   31.3680   46.3180 C   0  0  0  0  0  0  0  0  0  0  0  0
   59.0030   28.2680   44.3040 C   0  0  0  0  0  0  0  0  0  0  0  0
   58.0910   27.0490   44.1390 C   0  0  0  0  0  0  0  0  0  0  0  0
   55.5470   25.4410   45.7800 C   0  0  0  0  0  0  0  0  0  0  0  0
   55.0060   26.7040   46.0010 O   0  0  0  0  0  0  0  0  0  0  0  0
   54.7130   24.3190   45.8330 C   0  0  0  0  0  0  0  0  0  0  0  0
   57.0112   21.8924   45.1001 H   0  0  0  0  0  0  0  0  0  0  0  0
   58.4965   23.8884   45.0093 H   0  0  0  0  0  0  0  0  0  0  0  0
   57.8833   26.5151   47.5422 H   0  0  0  0  0  0  0  0  0  0  0  0
   59.4564   26.6915   46.6840 H   0  0  0  0  0  0  0  0  0  0  0  0
   57.2251   28.7395   47.0319 H   0  0  0  0  0  0  0  0  0  0  0  0
   58.9851   28.8719   47.4450 H   0  0  0  0  0  0  0  0  0  0  0  0
   58.1129   30.3377   43.0533 H   0  0  0  0  0  0  0  0  0  0  0  0
   57.6103   32.7574   42.7153 H   0  0  0  0  0  0  0  0  0  0  0  0
   58.2824   30.9793   47.3370 H   0  0  0  0  0  0  0  0  0  0  0  0
   58.9963   28.8578   43.3755 H   0  0  0  0  0  0  0  0  0  0  0  0
   60.0271   27.9296   44.5199 H   0  0  0  0  0  0  0  0  0  0  0  0
   57.1540   27.3646   43.6569 H   0  0  0  0  0  0  0  0  0  0  0  0
   58.6136   26.3042   43.5208 H   0  0  0  0  0  0  0  0  0  0  0  0
   53.6453   24.4433   46.0665 H   0  0  0  0  0  0  0  0  0  0  0  0
  1  2  2  0
  2  3  1  0
  2  4  1  0
  4  5  2  0
  5  6  1  0
  6  7  2  0
  7  8  1  0
  8  9  1  0
  9 10  1  0
 10 11  1  0
 11 12  1  0
 12 13  2  0
 13 14  1  0
 14 15  2  0
 15 16  1  0
 15 17  1  0
 17 18  1  0
 17 19  2  0
 11 20  1  0
 20 21  1  0
  7 22  1  0
 22 23  1  0
 22 24  2  0
 24  4  1  0
 21  8  1  0
 19 12  1  0
  5 25  1  0
  6 26  1  0
  9 27  1  0
  9 28  1  0
 10 29  1  0
 10 30  1  0
 13 31  1  0
 14 32  1  0
 19 33  1  0
 20 34  1  0
 20 35  1  0
 21 36  1  0
 21 37  1  0
 24 38  1  0
M  CHG  2   3  -1  23  -1
M  END
>  <UniqueID>  (38) 
34

>  <SMILES>  (38) 
O=C([O-])c1ccc(N2CCN(c3ccc(F)c(F)c3)CC2)c([O-])c1

>  <Energy>  (38) 
50.5978046581493

>  <Genealogy>  (38) 
O=C([O-])c1ccc(N2CCN(c3ccc(F)c(F)c3)CC2)c([O-])c1 (protonated)
O=C([O-])c1ccc(N2CCN(c3ccc(F)c(F)c3)CC2)c([O-])c1 (3D coordinates assigned)
O=C([O-])c1ccc(N2CCN(c3ccc(F)c(F)c3)CC2)c([O-])c1 (nonaromatic ring conformer: 50.5978046581493 kcal/mol)

>  <smiles>  (38) 
O=C(O)c1ccc(N2CCN(c3ccc(F)c(F)c3)CC2)c(O)c1

>  <score_type>  (38) 
oracle

>  <origin>  (38) 
adg

>  <m_score__min__energy>  (38) 
-12.42

>  <m_primary>  (38) 
energy

$$$$
38:0
     RDKit          3D

 51 52  0  0  0  0  0  0  0  0999 V2000
   56.6260   22.1840   42.6960 C   0  0  0  0  0  0  0  0  0  0  0  0
   56.7870   22.7260   44.1150 C   0  0  0  0  0  0  0  0  0  0  0  0
   56.2960   24.1800   44.2190 C   0  0  0  0  0  0  0  0  0  0  0  0
   57.4540   25.2130   44.1480 C   0  0  1  0  0  0  0  0  0  0  0  0
   57.7620   25.6230   42.6830 C   0  0  0  0  0  0  0  0  0  0  0  0
   57.2580   26.4060   45.0410 N   0  0  1  0  0  0  0  0  0  0  0  0
   56.6450   26.1410   46.3720 C   0  0  0  0  0  0  0  0  0  0  0  0
   57.3340   25.0210   47.1540 C   0  0  0  0  0  0  0  0  0  0  0  0
   58.5300   27.0950   45.2110 C   0  0  0  0  0  0  0  0  0  0  0  0
   59.3660   26.6720   45.9960 O   0  0  0  0  0  0  0  0  0  0  0  0
   58.8750   28.2950   44.3690 C   0  0  0  0  0  0  0  0  0  0  0  0
   57.8050   28.5900   43.4110 N   0  0  0  0  0  0  0  0  0  0  0  0
   56.6190   29.6710   44.0920 S   0  0  0  0  0  0  0  0  0  0  0  0
   55.6100   30.0470   43.0460 O   0  0  0  0  0  0  0  0  0  0  0  0
   55.8970   28.9600   45.2060 O   0  0  0  0  0  0  0  0  0  0  0  0
   57.3850   31.1230   44.7410 C   0  0  0  0  0  0  0  0  0  0  0  0
   57.5360   32.2690   43.9150 C   0  0  0  0  0  0  0  0  0  0  0  0
   58.1500   33.4350   44.4090 C   0  0  0  0  0  0  0  0  0  0  0  0
   58.5950   33.4180   45.7300 C   0  0  0  0  0  0  0  0  0  0  0  0
   58.4520   32.3170   46.5290 C   0  0  0  0  0  0  0  0  0  0  0  0
   57.8430   31.1500   46.0770 C   0  0  0  0  0  0  0  0  0  0  0  0
   58.9800   32.5620   47.7050 O   0  0  0  0  0  0  0  0  0  0  0  0
   59.4470   33.7950   47.6310 C   0  0  0  0  0  0  0  0  0  0  0  0
   60.0530   34.3590   48.5770 O   0  0  0  0  0  0  0  0  0  0  0  0
   59.2220   34.3790   46.4270 N   0  0  0  0  0  0  0  0  0  0  0  0
   59.6570   35.6940   45.9660 C   0  0  0  0  0  0  0  0  0  0  0  0
   56.3130   21.1304   42.7393 H   0  0  0  0  0  0  0  0  0  0  0  0
   55.8636   22.7714   42.1634 H   0  0  0  0  0  0  0  0  0  0  0  0
   57.5855   22.2599   42.1634 H   0  0  0  0  0  0  0  0  0  0  0  0
   56.2024   22.1005   44.8056 H   0  0  0  0  0  0  0  0  0  0  0  0
   57.8553   22.7017   44.3760 H   0  0  0  0  0  0  0  0  0  0  0  0
   55.5992   24.3757   43.3907 H   0  0  0  0  0  0  0  0  0  0  0  0
   55.8086   24.2957   45.1983 H   0  0  0  0  0  0  0  0  0  0  0  0
   58.3410   24.6985   44.5461 H   0  0  0  0  0  0  0  0  0  0  0  0
   58.4227   26.5025   42.6796 H   0  0  0  0  0  0  0  0  0  0  0  0
   58.2589   24.7891   42.1656 H   0  0  0  0  0  0  0  0  0  0  0  0
   56.8227   25.8680   42.1656 H   0  0  0  0  0  0  0  0  0  0  0  0
   56.6250   27.0820   44.5550 H   0  0  0  0  0  0  0  0  0  0  0  0
   56.6971   27.0639   46.9683 H   0  0  0  0  0  0  0  0  0  0  0  0
   55.6097   25.8167   46.1905 H   0  0  0  0  0  0  0  0  0  0  0  0
   57.2214   25.2041   48.2328 H   0  0  0  0  0  0  0  0  0  0  0  0
   56.8730   24.0562   46.8957 H   0  0  0  0  0  0  0  0  0  0  0  0
   58.4030   24.9974   46.8957 H   0  0  0  0  0  0  0  0  0  0  0  0
   59.0199   29.1655   45.0257 H   0  0  0  0  0  0  0  0  0  0  0  0
   59.7964   28.0769   43.8090 H   0  0  0  0  0  0  0  0  0  0  0  0
   57.1691   32.2447   42.8783 H   0  0  0  0  0  0  0  0  0  0  0  0
   58.2741   34.3264   43.7765 H   0  0  0  0  0  0  0  0  0  0  0  0
   57.7225   30.2786   46.7374 H   0  0  0  0  0  0  0  0  0  0  0  0
   59.8691   36.3352   46.8342 H   0  0  0  0  0  0  0  0  0  0  0  0
   60.5675   35.5868   45.3582 H   0  0  0  0  0  0  0  0  0  0  0  0
   58.8621   36.1509   45.3582 H   0  0  0  0  0  0  0  0  0  0  0  0
  1  2  1  0
  2  3  1  0
  3  4  1  0
  4  5  1  0
  4  6  1  0
  6  7  1  0
  7  8  1  0
  6  9  1  0
  9 10  2  0
  9 11  1  0
 11 12  1  0
 12 13  1  0
 13 14  2  0
 13 15  2  0
 13 16  1  0
 16 17  2  0
 17 18  1  0
 18 19  2  0
 19 20  1  0
 20 21  2  0
 20 22  1  0
 22 23  1  0
 23 24  2  0
 23 25  1  0
 25 26  1  0
 21 16  1  0
 25 19  1  0
  1 27  1  0
  1 28  1  0
  1 29  1  0
  2 30  1  0
  2 31  1  0
  3 32  1  0
  3 33  1  0
  4 34  1  1
  5 35  1  0
  5 36  1  0
  5 37  1  0
  6 38  1  6
  7 39  1  0
  7 40  1  0
  8 41  1  0
  8 42  1  0
  8 43  1  0
 11 44  1  0
 11 45  1  0
 17 46  1  0
 18 47  1  0
 21 48  1  0
 26 49  1  0
 26 50  1  0
 26 51  1  0
M  CHG  2   6   1  12  -1
M  END
>  <UniqueID>  (39) 
35

>  <SMILES>  (39) 
CCC[C@@H](C)[N@@H+](CC)C(=O)C[N-]S(=O)(=O)c1ccc2c(c1)oc(=O)n2C

>  <Energy>  (39) 
91.64500648720924

>  <Genealogy>  (39) 
CCCC(C)[NH+](CC)C(=O)C[N-]S(=O)(=O)c1ccc2c(c1)oc(=O)n2C (protonated)
CCC[C@@H](C)[N@@H+](CC)C(=O)C[N-]S(=O)(=O)c1ccc2c(c1)oc(=O)n2C (chirality)
CCC[C@@H](C)[N@@H+](CC)C(=O)C[N-]S(=O)(=O)c1ccc2c(c1)oc(=O)n2C (3D coordinates assigned)
CCC[C@@H](C)[N@@H+](CC)C(=O)C[N-]S(=O)(=O)c1ccc2c(c1)oc(=O)n2C (optimized conformer: 91.64500648720924 kcal/mol)

>  <smiles>  (39) 
CCCC(C)N(CC)C(=O)CNS(=O)(=O)c1ccc2c(c1)oc(=O)n2C

>  <score_type>  (39) 
oracle

>  <origin>  (39) 
adg

>  <m_score__min__energy>  (39) 
-7.0899999999999999

>  <m_primary>  (39) 
energy

$$$$
39:0
     RDKit          3D

 55 58  0  0  0  0  0  0  0  0999 V2000
   55.1440   27.8700   45.0620 H   0  0  0  0  0  0  0  0  0  0  0  0
   55.5720   27.1760   45.6650 O   0  0  0  0  0  0  0  0  0  0  0  0
   56.9570   27.0680   45.8080 C   0  0  0  0  0  0  0  0  0  0  0  0
   57.4720   26.1670   46.7460 C   0  0  0  0  0  0  0  0  0  0  0  0
   56.7883   25.5668   47.3643 H   0  0  0  0  0  0  0  0  0  0  0  0
   58.8520   26.0290   46.8980 C   0  0  0  0  0  0  0  0  0  0  0  0
   59.2620   25.3119   47.6244 H   0  0  0  0  0  0  0  0  0  0  0  0
   59.7090   26.8120   46.1170 C   0  0  0  0  0  0  0  0  0  0  0  0
   60.7989   26.7172   46.2312 H   0  0  0  0  0  0  0  0  0  0  0  0
   59.1940   27.6880   45.2190 N   0  0  0  0  0  0  0  0  0  0  0  0
   57.8510   27.8330   45.0290 C   0  0  0  0  0  0  0  0  0  0  0  0
   57.3800   28.6810   44.1600 N   0  0  0  0  0  0  0  0  0  0  0  0
   56.5130   29.8110   44.3760 C   0  0  0  0  0  0  0  0  0  0  0  0
   55.3590   29.5980   44.8390 O   0  0  0  0  0  0  0  0  0  0  0  0
   56.8850   31.2270   43.9990 C   0  0  0  0  0  0  0  0  0  0  0  0
   57.4425   31.2021   43.0510 H   0  0  0  0  0  0  0  0  0  0  0  0
   55.9500   31.7999   43.9116 H   0  0  0  0  0  0  0  0  0  0  0  0
   57.7390   31.9130   45.0420 C   0  0  0  0  0  0  0  0  0  0  0  0
   57.4390   33.2280   45.4360 C   0  0  0  0  0  0  0  0  0  0  0  0
   56.5775   33.7487   44.9926 H   0  0  0  0  0  0  0  0  0  0  0  0
   58.2290   33.8780   46.3880 C   0  0  0  0  0  0  0  0  0  0  0  0
   57.9870   34.9078   46.6895 H   0  0  0  0  0  0  0  0  0  0  0  0
   59.3240   33.2260   46.9580 C   0  0  0  0  0  0  0  0  0  0  0  0
   59.9374   33.7413   47.7118 H   0  0  0  0  0  0  0  0  0  0  0  0
   59.6450   31.9140   46.5720 C   0  0  0  0  0  0  0  0  0  0  0  0
   60.7730   31.1950   47.2030 C   0  0  0  0  0  0  0  0  0  0  0  0
   60.7680   29.9370   47.2640 O   0  0  0  0  0  0  0  0  0  0  0  0
   61.8910   31.9260   47.7320 N   0  0  0  0  0  0  0  0  0  0  0  0
   62.5590   32.8730   46.8250 C   0  0  0  0  0  0  0  0  0  0  0  0
   62.9903   32.3146   45.9811 H   0  0  0  0  0  0  0  0  0  0  0  0
   61.8105   33.5993   46.4754 H   0  0  0  0  0  0  0  0  0  0  0  0
   63.6770   33.6430   47.5340 C   0  0  0  0  0  0  0  0  0  0  0  0
   64.5249   32.9671   47.7191 H   0  0  0  0  0  0  0  0  0  0  0  0
   64.0009   34.4796   46.8975 H   0  0  0  0  0  0  0  0  0  0  0  0
   63.1660   34.1920   48.8660 C   0  0  0  0  0  0  0  0  0  0  0  0
   63.9937   34.7077   49.3749 H   0  0  0  0  0  0  0  0  0  0  0  0
   62.3340   34.8770   48.6459 H   0  0  0  0  0  0  0  0  0  0  0  0
   62.6250   33.0850   49.7990 C   0  0  0  0  0  0  0  0  0  0  0  0
   63.3430   32.9448   50.6204 H   0  0  0  0  0  0  0  0  0  0  0  0
   61.6377   33.4209   50.1488 H   0  0  0  0  0  0  0  0  0  0  0  0
   62.4090   31.7150   49.1020 C   0  0  1  0  0  0  0  0  0  0  0  0
   63.3726   31.1923   49.0113 H   0  0  0  0  0  0  0  0  0  0  0  0
   61.5000   30.7970   49.9570 C   0  0  0  0  0  0  0  0  0  0  0  0
   61.2316   29.9108   49.3633 H   0  0  0  0  0  0  0  0  0  0  0  0
   62.0574   30.5158   50.8627 H   0  0  0  0  0  0  0  0  0  0  0  0
   60.2420   31.4920   50.3850 C   0  0  0  0  0  0  0  0  0  0  0  0
   60.1300   32.6350   51.6140 S   0  0  0  0  0  0  0  0  0  0  0  0
   58.4620   32.8350   51.5210 C   0  0  0  0  0  0  0  0  0  0  0  0
   57.8595   33.5139   52.1423 H   0  0  0  0  0  0  0  0  0  0  0  0
   57.9750   31.9960   50.5250 C   0  0  0  0  0  0  0  0  0  0  0  0
   56.9093   31.9323   50.2600 H   0  0  0  0  0  0  0  0  0  0  0  0
   58.9680   31.2400   49.8910 C   0  0  0  0  0  0  0  0  0  0  0  0
   58.7611   30.5207   49.0849 H   0  0  0  0  0  0  0  0  0  0  0  0
   58.8670   31.2770   45.5910 C   0  0  0  0  0  0  0  0  0  0  0  0
   59.1432   30.2690   45.2482 H   0  0  0  0  0  0  0  0  0  0  0  0
  1  2  1  0
  2  3  1  0
  3  4  2  0
  4  5  1  0
  4  6  1  0
  6  7  1  0
  6  8  2  0
  8  9  1  0
  8 10  1  0
 10 11  1  0
 11 12  2  0
 12 13  1  0
 13 14  2  0
 13 15  1  0
 15 16  1  0
 15 17  1  0
 15 18  1  0
 18 19  2  0
 19 20  1  0
 19 21  1  0
 21 22  1  0
 21 23  2  0
 23 24  1  0
 23 25  1  0
 25 26  1  0
 26 27  2  0
 26 28  1  0
 28 29  1  0
 29 30  1  0
 29 31  1  0
 29 32  1  0
 32 33  1  0
 32 34  1  0
 32 35  1  0
 35 36  1  0
 35 37  1  0
 35 38  1  0
 38 39  1  0
 38 40  1  0
 38 41  1  0
 41 42  1  6
 41 43  1  0
 43 44  1  0
 43 45  1  0
 43 46  1  0
 46 47  1  0
 47 48  1  0
 48 49  1  0
 48 50  2  0
 50 51  1  0
 50 52  1  0
 52 53  1  0
 25 54  2  0
 54 55  1  0
 11  3  1  0
 54 18  1  0
 41 28  1  0
 52 46  2  0
M  CHG  1  10  -1
M  END
>  <UniqueID>  (40) 
36

>  <SMILES>  (40) 
O=C(Cc1cccc(C(=O)N2CCCC[C@H]2Cc2cccs2)c1)/N=c1\[n-]cccc1O

>  <Energy>  (40) 
94.84517452954108

>  <Genealogy>  (40) 
O=C(Cc1cccc(C(=O)N2CCCCC2Cc2cccs2)c1)N=c1[n-]cccc1O (protonated)
O=C(Cc1cccc(C(=O)N2CCCC[C@H]2Cc2cccs2)c1)N=c1[n-]cccc1O (chirality)
O=C(Cc1cccc(C(=O)N2CCCC[C@H]2Cc2cccs2)c1)/N=c1\[n-]cccc1O (cis-trans isomerization)
O=C(Cc1cccc(C(=O)N2CCCC[C@H]2Cc2cccs2)c1)/N=c1\[n-]cccc1O (3D coordinates assigned)
O=C(Cc1cccc(C(=O)N2CCCC[C@H]2Cc2cccs2)c1)/N=c1\[n-]cccc1O (nonaromatic ring conformer: 94.84517452954108 kcal/mol)

>  <smiles>  (40) 
O=C(Cc1cccc(C(=O)N2CCCCC2Cc2cccs2)c1)N=c1[nH]cccc1O

>  <score_type>  (40) 
oracle

>  <origin>  (40) 
adg

>  <m_score__min__energy>  (40) 
-11.92

>  <m_primary>  (40) 
energy

$$$$
40:0
     RDKit          3D

 58 61  0  0  0  0  0  0  0  0999 V2000
   60.7350   33.8020   48.7950 O   0  0  0  0  0  0  0  0  0  0  0  0
   60.6770   33.3860   47.6070 C   0  0  0  0  0  0  0  0  0  0  0  0
   60.7420   34.3730   46.4790 C   0  0  0  0  0  0  0  0  0  0  0  0
   59.0740   34.9580   46.0180 S   0  0  0  0  0  0  0  0  0  0  0  0
   58.5210   33.3690   45.3960 C   0  0  0  0  0  0  0  0  0  0  0  0
   58.3930   33.1510   44.0200 C   0  0  0  0  0  0  0  0  0  0  0  0
   57.9410   31.9120   43.5660 C   0  0  0  0  0  0  0  0  0  0  0  0
   57.6300   30.9020   44.4830 C   0  0  0  0  0  0  0  0  0  0  0  0
   57.0140   29.3510   43.9160 S   0  0  0  0  0  0  0  0  0  0  0  0
   55.9390   28.8950   44.8610 O   0  0  0  0  0  0  0  0  0  0  0  0
   56.4040   29.5170   42.5510 O   0  0  0  0  0  0  0  0  0  0  0  0
   58.2930   28.1530   43.8770 N   0  0  0  0  0  0  0  0  0  0  0  0
   57.8520   26.8520   44.4080 C   0  0  0  0  0  0  0  0  0  0  0  0
   57.7000   26.8700   45.9480 C   0  0  0  0  0  0  0  0  0  0  0  0
   58.3830   27.9430   46.5740 O   0  0  0  0  0  0  0  0  0  0  0  0
   59.6560   28.1170   45.9910 C   0  0  0  0  0  0  0  0  0  0  0  0
   59.5190   28.6420   44.5480 C   0  0  0  0  0  0  0  0  0  0  0  0
   57.7780   31.1590   45.8520 C   0  0  0  0  0  0  0  0  0  0  0  0
   58.2160   32.3750   46.2720 N   0  0  0  0  0  0  0  0  0  0  0  0
   60.4960   31.9900   47.3290 N   0  0  0  0  0  0  0  0  0  0  0  0
   60.4930   30.9770   48.3490 C   0  0  0  0  0  0  0  0  0  0  0  0
   59.3520   30.1820   48.5550 C   0  0  0  0  0  0  0  0  0  0  0  0
   59.3180   29.2490   49.5930 C   0  0  0  0  0  0  0  0  0  0  0  0
   60.4150   29.1090   50.4450 C   0  0  0  0  0  0  0  0  0  0  0  0
   61.5520   29.8980   50.2570 C   0  0  0  0  0  0  0  0  0  0  0  0
   61.6020   30.8320   49.2110 C   0  0  0  0  0  0  0  0  0  0  0  0
   62.8060   31.5900   49.0100 N   0  0  0  0  0  0  0  0  0  0  0  0
   63.3810   31.7230   47.6710 C   0  0  0  0  0  0  0  0  0  0  0  0
   64.0050   33.1140   47.5220 C   0  0  0  0  0  0  0  0  0  0  0  0
   64.8950   33.3860   48.5890 O   0  0  0  0  0  0  0  0  0  0  0  0
   64.1820   33.4430   49.8110 C   0  0  0  0  0  0  0  0  0  0  0  0
   63.5810   32.0770   50.1530 C   0  0  0  0  0  0  0  0  0  0  0  0
   61.3512   35.2344   46.7903 H   0  0  0  0  0  0  0  0  0  0  0  0
   61.1910   33.8762   45.6063 H   0  0  0  0  0  0  0  0  0  0  0  0
   58.6459   33.9474   43.3045 H   0  0  0  0  0  0  0  0  0  0  0  0
   57.8291   31.7289   42.4871 H   0  0  0  0  0  0  0  0  0  0  0  0
   56.8806   26.5971   43.9592 H   0  0  0  0  0  0  0  0  0  0  0  0
   58.6190   26.1059   44.1532 H   0  0  0  0  0  0  0  0  0  0  0  0
   56.6301   26.9501   46.1908 H   0  0  0  0  0  0  0  0  0  0  0  0
   58.1468   25.9389   46.3268 H   0  0  0  0  0  0  0  0  0  0  0  0
   60.2317   28.8406   46.5868 H   0  0  0  0  0  0  0  0  0  0  0  0
   60.1745   27.1471   45.9701 H   0  0  0  0  0  0  0  0  0  0  0  0
   59.4913   29.7413   44.5744 H   0  0  0  0  0  0  0  0  0  0  0  0
   60.3820   28.2710   43.9757 H   0  0  0  0  0  0  0  0  0  0  0  0
   57.5396   30.3764   46.5873 H   0  0  0  0  0  0  0  0  0  0  0  0
   60.2870   31.7040   46.3450 H   0  0  0  0  0  0  0  0  0  0  0  0
   58.4802   30.2958   47.8939 H   0  0  0  0  0  0  0  0  0  0  0  0
   58.4254   28.6232   49.7398 H   0  0  0  0  0  0  0  0  0  0  0  0
   60.3839   28.3766   51.2651 H   0  0  0  0  0  0  0  0  0  0  0  0
   62.4129   29.7866   50.9326 H   0  0  0  0  0  0  0  0  0  0  0  0
   64.1557   30.9556   47.5263 H   0  0  0  0  0  0  0  0  0  0  0  0
   62.5911   31.5916   46.9168 H   0  0  0  0  0  0  0  0  0  0  0  0
   64.5571   33.1610   46.5718 H   0  0  0  0  0  0  0  0  0  0  0  0
   63.1999   33.8634   47.5364 H   0  0  0  0  0  0  0  0  0  0  0  0
   64.8682   33.7468   50.6153 H   0  0  0  0  0  0  0  0  0  0  0  0
   63.3651   34.1726   49.7093 H   0  0  0  0  0  0  0  0  0  0  0  0
   64.3893   31.3659   50.3788 H   0  0  0  0  0  0  0  0  0  0  0  0
   62.9241   32.1723   51.0302 H   0  0  0  0  0  0  0  0  0  0  0  0
  1  2  2  0
  2  3  1  0
  3  4  1  0
  4  5  1  0
  5  6  2  0
  6  7  1  0
  7  8  2  0
  8  9  1  0
  9 10  2  0
  9 11  2  0
  9 12  1  0
 12 13  1  0
 13 14  1  0
 14 15  1  0
 15 16  1  0
 16 17  1  0
  8 18  1  0
 18 19  2  0
  2 20  1  0
 20 21  1  0
 21 22  2  0
 22 23  1  0
 23 24  2  0
 24 25  1  0
 25 26  2  0
 26 27  1  0
 27 28  1  0
 28 29  1  0
 29 30  1  0
 30 31  1  0
 31 32  1  0
 19  5  1  0
 26 21  1  0
 32 27  1  0
 17 12  1  0
  3 33  1  0
  3 34  1  0
  6 35  1  0
  7 36  1  0
 13 37  1  0
 13 38  1  0
 14 39  1  0
 14 40  1  0
 16 41  1  0
 16 42  1  0
 17 43  1  0
 17 44  1  0
 18 45  1  0
 20 46  1  0
 22 47  1  0
 23 48  1  0
 24 49  1  0
 25 50  1  0
 28 51  1  0
 28 52  1  0
 29 53  1  0
 29 54  1  0
 31 55  1  0
 31 56  1  0
 32 57  1  0
 32 58  1  0
M  END
>  <UniqueID>  (41) 
37

>  <SMILES>  (41) 
O=C(CSc1ccc(S(=O)(=O)N2CCOCC2)cn1)Nc1ccccc1N1CCOCC1

>  <Energy>  (41) 
74.57170989624481

>  <Genealogy>  (41) 
O=C(CSc1ccc(S(=O)(=O)N2CCOCC2)cn1)Nc1ccccc1N1CCOCC1 (3D coordinates assigned)
O=C(CSc1ccc(S(=O)(=O)N2CCOCC2)cn1)Nc1ccccc1N1CCOCC1 (nonaromatic ring conformer: 74.57170989624481 kcal/mol)

>  <smiles>  (41) 
O=C(CSc1ccc(S(=O)(=O)N2CCOCC2)cn1)Nc1ccccc1N1CCOCC1

>  <score_type>  (41) 
oracle

>  <origin>  (41) 
adg

>  <m_score__min__energy>  (41) 
-8.9600000000000009

>  <m_primary>  (41) 
energy

$$$$
41:0
     RDKit          3D

 83 87  0  0  0  0  0  0  0  0999 V2000
   57.8700   29.1450   52.8780 C   0  0  0  0  0  0  0  0  0  0  0  0
   58.7870   29.7610   51.8220 C   0  0  2  0  0  0  0  0  0  0  0  0
   60.1150   29.1520   51.9240 N   0  0  0  0  0  0  0  0  0  0  0  0
   60.9210   28.7110   50.8230 C   0  0  0  0  0  0  0  0  0  0  0  0
   61.1820   27.4820   50.7200 O   0  0  0  0  0  0  0  0  0  0  0  0
   61.4100   29.6660   49.7690 C   0  0  0  0  0  0  0  0  0  0  0  0
   60.3590   29.9040   48.7550 N   0  0  0  0  0  0  0  0  0  0  0  0
   60.3750   31.2910   48.2480 C   0  0  0  0  0  0  0  0  0  0  0  0
   59.1760   32.0600   48.8130 C   0  0  0  0  0  0  0  0  0  0  0  0
   59.0670   33.3900   48.1850 N   0  0  0  0  0  0  0  0  0  0  0  0
   57.8840   33.4510   47.3200 C   0  0  0  0  0  0  0  0  0  0  0  0
   60.5090   33.8030   47.2670 S   0  0  0  0  0  0  0  0  0  0  0  0
   60.3890   35.1660   46.6390 O   0  0  0  0  0  0  0  0  0  0  0  0
   60.7630   32.7970   46.1790 O   0  0  0  0  0  0  0  0  0  0  0  0
   61.8740   33.8270   48.3730 C   0  0  0  0  0  0  0  0  0  0  0  0
   61.6800   34.2570   49.6910 C   0  0  0  0  0  0  0  0  0  0  0  0
   62.7500   34.2830   50.5880 C   0  0  0  0  0  0  0  0  0  0  0  0
   64.0260   33.8680   50.1820 C   0  0  0  0  0  0  0  0  0  0  0  0
   65.1420   33.8440   51.0790 N   0  0  0  0  0  0  0  0  0  0  0  0
   66.3850   32.6300   51.1070 S   0  0  0  0  0  0  0  0  0  0  0  0
   66.9890   32.5570   49.7390 O   0  0  0  0  0  0  0  0  0  0  0  0
   67.4720   32.9970   52.0730 O   0  0  0  0  0  0  0  0  0  0  0  0
   65.6900   31.0570   51.5130 C   0  0  0  0  0  0  0  0  0  0  0  0
   66.4860   29.9030   51.4800 C   0  0  0  0  0  0  0  0  0  0  0  0
   65.9220   28.6540   51.7630 C   0  0  0  0  0  0  0  0  0  0  0  0
   64.5580   28.5500   52.0790 C   0  0  0  0  0  0  0  0  0  0  0  0
   63.7630   29.6960   52.1210 C   0  0  0  0  0  0  0  0  0  0  0  0
   64.3270   30.9460   51.8480 C   0  0  0  0  0  0  0  0  0  0  0  0
   64.2230   33.4780   48.8510 C   0  0  0  0  0  0  0  0  0  0  0  0
   63.1530   33.4490   47.9520 C   0  0  0  0  0  0  0  0  0  0  0  0
   60.5130   28.7480   47.4480 S   0  0  0  0  0  0  0  0  0  0  0  0
   61.2710   27.5530   47.9520 O   0  0  0  0  0  0  0  0  0  0  0  0
   61.2510   29.3500   46.2850 O   0  0  0  0  0  0  0  0  0  0  0  0
   58.8900   28.2790   46.9020 C   0  0  0  0  0  0  0  0  0  0  0  0
   58.4180   27.0170   47.2910 C   0  0  0  0  0  0  0  0  0  0  0  0
   57.1790   26.5560   46.8690 C   0  0  0  0  0  0  0  0  0  0  0  0
   56.7450   25.2930   47.2650 O   0  0  0  0  0  0  0  0  0  0  0  0
   56.3800   27.3370   46.0350 C   0  0  0  0  0  0  0  0  0  0  0  0
   55.1540   26.8240   45.6280 O   0  0  0  0  0  0  0  0  0  0  0  0
   56.8140   28.6200   45.6260 C   0  0  0  0  0  0  0  0  0  0  0  0
   56.0320   29.4270   44.7670 C   0  0  0  0  0  0  0  0  0  0  0  0
   54.8350   28.9690   44.2300 O   0  0  0  0  0  0  0  0  0  0  0  0
   56.4590   30.7140   44.4320 C   0  0  0  0  0  0  0  0  0  0  0  0
   57.6430   31.2220   44.9480 C   0  0  0  0  0  0  0  0  0  0  0  0
   58.4410   30.4350   45.7720 C   0  0  0  0  0  0  0  0  0  0  0  0
   58.0650   29.1150   46.1010 C   0  0  0  0  0  0  0  0  0  0  0  0
   58.8640   31.2600   52.0180 C   0  0  0  0  0  0  0  0  0  0  0  0
   57.6860   32.0260   52.0870 C   0  0  0  0  0  0  0  0  0  0  0  0
   57.7490   33.4050   52.3080 C   0  0  0  0  0  0  0  0  0  0  0  0
   58.9870   34.0280   52.4830 C   0  0  0  0  0  0  0  0  0  0  0  0
   60.1630   33.2740   52.4280 C   0  0  0  0  0  0  0  0  0  0  0  0
   60.1050   31.9000   52.1870 C   0  0  0  0  0  0  0  0  0  0  0  0
   58.2449   29.3968   53.8810 H   0  0  0  0  0  0  0  0  0  0  0  0
   56.8517   29.5429   52.7565 H   0  0  0  0  0  0  0  0  0  0  0  0
   57.8534   28.0519   52.7565 H   0  0  0  0  0  0  0  0  0  0  0  0
   58.3833   29.5676   50.8172 H   0  0  0  0  0  0  0  0  0  0  0  0
   61.6781   30.6217   50.2432 H   0  0  0  0  0  0  0  0  0  0  0  0
   62.2888   29.2279   49.2733 H   0  0  0  0  0  0  0  0  0  0  0  0
   61.3068   31.7844   48.5615 H   0  0  0  0  0  0  0  0  0  0  0  0
   60.3157   31.2786   47.1497 H   0  0  0  0  0  0  0  0  0  0  0  0
   58.2559   31.4906   48.6149 H   0  0  0  0  0  0  0  0  0  0  0  0
   59.3181   32.1908   49.8959 H   0  0  0  0  0  0  0  0  0  0  0  0
   56.9775   33.4977   47.9413 H   0  0  0  0  0  0  0  0  0  0  0  0
   57.9399   34.3475   46.6850 H   0  0  0  0  0  0  0  0  0  0  0  0
   57.8474   32.5535   46.6850 H   0  0  0  0  0  0  0  0  0  0  0  0
   60.6804   34.5758   50.0215 H   0  0  0  0  0  0  0  0  0  0  0  0
   62.5907   34.6312   51.6192 H   0  0  0  0  0  0  0  0  0  0  0  0
   67.5548   29.9797   51.2314 H   0  0  0  0  0  0  0  0  0  0  0  0
   66.5493   27.7508   51.7378 H   0  0  0  0  0  0  0  0  0  0  0  0
   64.1163   27.5657   52.2934 H   0  0  0  0  0  0  0  0  0  0  0  0
   62.6942   29.6162   52.3685 H   0  0  0  0  0  0  0  0  0  0  0  0
   63.7012   31.8494   51.8953 H   0  0  0  0  0  0  0  0  0  0  0  0
   65.2290   33.1919   48.5102 H   0  0  0  0  0  0  0  0  0  0  0  0
   63.3171   33.1286   46.9126 H   0  0  0  0  0  0  0  0  0  0  0  0
   59.0394   26.3829   47.9405 H   0  0  0  0  0  0  0  0  0  0  0  0
   55.8514   31.3304   43.7531 H   0  0  0  0  0  0  0  0  0  0  0  0
   57.9512   32.2496   44.7048 H   0  0  0  0  0  0  0  0  0  0  0  0
   59.3786   30.8474   46.1730 H   0  0  0  0  0  0  0  0  0  0  0  0
   56.7084   31.5364   51.9662 H   0  0  0  0  0  0  0  0  0  0  0  0
   56.8240   33.9993   52.3441 H   0  0  0  0  0  0  0  0  0  0  0  0
   59.0366   35.1119   52.6641 H   0  0  0  0  0  0  0  0  0  0  0  0
   61.1365   33.7645   52.5750 H   0  0  0  0  0  0  0  0  0  0  0  0
   61.0347   31.3150   52.1290 H   0  0  0  0  0  0  0  0  0  0  0  0
  1  2  1  0
  2  3  1  0
  3  4  1  0
  4  5  2  0
  4  6  1  0
  6  7  1  0
  7  8  1  0
  8  9  1  0
  9 10  1  0
 10 11  1  0
 10 12  1  0
 12 13  2  0
 12 14  2  0
 12 15  1  0
 15 16  2  0
 16 17  1  0
 17 18  2  0
 18 19  1  0
 19 20  1  0
 20 21  2  0
 20 22  2  0
 20 23  1  0
 23 24  2  0
 24 25  1  0
 25 26  2  0
 26 27  1  0
 27 28  2  0
 18 29  1  0
 29 30  2  0
  7 31  1  0
 31 32  2  0
 31 33  2  0
 31 34  1  0
 34 35  2  0
 35 36  1  0
 36 37  1  0
 36 38  2  0
 38 39  1  0
 38 40  1  0
 40 41  2  0
 41 42  1  0
 41 43  1  0
 43 44  2  0
 44 45  1  0
 45 46  2  0
  2 47  1  0
 47 48  2  0
 48 49  1  0
 49 50  2  0
 50 51  1  0
 51 52  2  0
 30 15  1  0
 46 34  1  0
 52 47  1  0
 28 23  1  0
 46 40  1  0
  1 53  1  0
  1 54  1  0
  1 55  1  0
  2 56  1  6
  6 57  1  0
  6 58  1  0
  8 59  1  0
  8 60  1  0
  9 61  1  0
  9 62  1  0
 11 63  1  0
 11 64  1  0
 11 65  1  0
 16 66  1  0
 17 67  1  0
 24 68  1  0
 25 69  1  0
 26 70  1  0
 27 71  1  0
 28 72  1  0
 29 73  1  0
 30 74  1  0
 35 75  1  0
 43 76  1  0
 44 77  1  0
 45 78  1  0
 48 79  1  0
 49 80  1  0
 50 81  1  0
 51 82  1  0
 52 83  1  0
M  CHG  5   3  -1  19  -1  37  -1  39  -1  42  -1
M  END
>  <UniqueID>  (42) 
38

>  <SMILES>  (42) 
C[C@H]([N-]C(=O)CN(CCN(C)S(=O)(=O)c1ccc([N-]S(=O)(=O)c2ccccc2)cc1)S(=O)(=O)c1cc([O-])c([O-])c2c([O-])cccc12)c1ccccc1

>  <Energy>  (42) 
99.04977383129463

>  <Genealogy>  (42) 
CC([N-]C(=O)CN(CCN(C)S(=O)(=O)c1ccc([N-]S(=O)(=O)c2ccccc2)cc1)S(=O)(=O)c1cc([O-])c([O-])c2c([O-])cccc12)c1ccccc1 (protonated)
C[C@H]([N-]C(=O)CN(CCN(C)S(=O)(=O)c1ccc([N-]S(=O)(=O)c2ccccc2)cc1)S(=O)(=O)c1cc([O-])c([O-])c2c([O-])cccc12)c1ccccc1 (chirality)
C[C@H]([N-]C(=O)CN(CCN(C)S(=O)(=O)c1ccc([N-]S(=O)(=O)c2ccccc2)cc1)S(=O)(=O)c1cc([O-])c([O-])c2c([O-])cccc12)c1ccccc1 (3D coordinates assigned)
C[C@H]([N-]C(=O)CN(CCN(C)S(=O)(=O)c1ccc([N-]S(=O)(=O)c2ccccc2)cc1)S(=O)(=O)c1cc([O-])c([O-])c2c([O-])cccc12)c1ccccc1 (optimized conformer: 99.04977383129463 kcal/mol)

>  <smiles>  (42) 
CC(NC(=O)CN(CCN(C)S(=O)(=O)c1ccc(NS(=O)(=O)c2ccccc2)cc1)S(=O)(=O)c1cc(O)c(O)c2c(O)cccc12)c1ccccc1

>  <score_type>  (42) 
oracle

>  <origin>  (42) 
adg

>  <m_score__min__energy>  (42) 
-21.100000000000001

>  <m_primary>  (42) 
energy

$$$$
42:0
     RDKit          3D

 36 38  0  0  0  0  0  0  0  0999 V2000
   55.8061   24.5985   46.6410 H   0  0  0  0  0  0  0  0  0  0  0  0
   56.3300   25.5440   46.4370 C   0  0  0  0  0  0  0  0  0  0  0  0
   55.6450   26.6020   45.9360 N   0  0  0  0  0  0  0  0  0  0  0  0
   56.2660   27.7660   45.6190 C   0  0  0  0  0  0  0  0  0  0  0  0
   55.5530   28.7740   45.0620 N   0  0  0  0  0  0  0  0  0  0  0  0
   56.1450   29.9180   44.6420 C   0  0  0  0  0  0  0  0  0  0  0  0
   55.4310   30.8370   44.1610 O   0  0  0  0  0  0  0  0  0  0  0  0
   57.5470   30.0470   44.7300 C   0  0  0  0  0  0  0  0  0  0  0  0
   58.2540   31.2540   44.2280 C   0  0  0  0  0  0  0  0  0  0  0  0
   58.3900   31.4280   42.9860 O   0  0  0  0  0  0  0  0  0  0  0  0
   58.7690   32.2010   45.1240 O   0  0  0  0  0  0  0  0  0  0  0  0
   58.0250   33.3180   45.6040 C   0  0  0  0  0  0  0  0  0  0  0  0
   56.9789   33.0154   45.7592 H   0  0  0  0  0  0  0  0  0  0  0  0
   58.0818   34.1268   44.8607 H   0  0  0  0  0  0  0  0  0  0  0  0
   58.6010   33.8220   46.9220 C   0  0  0  0  0  0  0  0  0  0  0  0
   58.0646   33.3527   47.7599 H   0  0  0  0  0  0  0  0  0  0  0  0
   59.6685   33.5626   46.9787 H   0  0  0  0  0  0  0  0  0  0  0  0
   58.4856   34.9145   46.9787 H   0  0  0  0  0  0  0  0  0  0  0  0
   58.2650   29.0220   45.2820 N   0  0  0  0  0  0  0  0  0  0  0  0
   59.3020   29.0670   45.2120 H   0  0  0  0  0  0  0  0  0  0  0  0
   57.6570   27.9160   45.8160 C   0  0  0  0  0  0  0  0  0  0  0  0
   58.3660   26.8610   46.4700 C   0  0  0  0  0  0  0  0  0  0  0  0
   59.5860   26.9490   46.9330 N   0  0  0  0  0  0  0  0  0  0  0  0
   60.1520   27.8840   47.8630 C   0  0  0  0  0  0  0  0  0  0  0  0
   60.4380   27.4660   49.1690 C   0  0  0  0  0  0  0  0  0  0  0  0
   60.2573   26.4214   49.4627 H   0  0  0  0  0  0  0  0  0  0  0  0
   60.9530   28.3740   50.1010 C   0  0  0  0  0  0  0  0  0  0  0  0
   61.1952   28.0371   51.1198 H   0  0  0  0  0  0  0  0  0  0  0  0
   61.1600   29.7070   49.7400 C   0  0  0  0  0  0  0  0  0  0  0  0
   61.5748   30.4166   50.4710 H   0  0  0  0  0  0  0  0  0  0  0  0
   60.8400   30.1400   48.4490 C   0  0  0  0  0  0  0  0  0  0  0  0
   60.9947   31.1922   48.1681 H   0  0  0  0  0  0  0  0  0  0  0  0
   60.3240   29.2370   47.5160 C   0  0  0  0  0  0  0  0  0  0  0  0
   60.0517   29.5842   46.5084 H   0  0  0  0  0  0  0  0  0  0  0  0
   57.6950   25.6510   46.6940 C   0  0  0  0  0  0  0  0  0  0  0  0
   58.2495   24.7807   47.0750 H   0  0  0  0  0  0  0  0  0  0  0  0
  1  2  1  0
  2  3  1  0
  3  4  1  0
  4  5  1  0
  5  6  1  0
  6  7  2  0
  6  8  1  0
  8  9  1  0
  9 10  2  0
  9 11  1  0
 11 12  1  0
 12 13  1  0
 12 14  1  0
 12 15  1  0
 15 16  1  0
 15 17  1  0
 15 18  1  0
  8 19  2  0
 19 20  1  0
 19 21  1  0
 21 22  1  0
 22 23  2  0
 23 24  1  0
 24 25  2  0
 25 26  1  0
 25 27  1  0
 27 28  1  0
 27 29  2  0
 29 30  1  0
 29 31  1  0
 31 32  1  0
 31 33  2  0
 33 34  1  0
 22 35  1  0
 35 36  1  0
 35  2  2  0
 21  4  2  0
 33 24  1  0
M  CHG  3   3  -1   5  -1  19   1
M  END
>  <UniqueID>  (43) 
39

>  <SMILES>  (43) 
CCOC(=O)c1[nH+]c2/c(=N\c3ccccc3)cc[n-]c2[n-]c1=O

>  <Energy>  (43) 
60.43697402126072

>  <Genealogy>  (43) 
CCOC(=O)c1[nH+]c2c(=Nc3ccccc3)cc[n-]c2[n-]c1=O (protonated)
CCOC(=O)c1[nH+]c2/c(=N\c3ccccc3)cc[n-]c2[n-]c1=O (cis-trans isomerization)
CCOC(=O)c1[nH+]c2/c(=N\c3ccccc3)cc[n-]c2[n-]c1=O (3D coordinates assigned)
CCOC(=O)c1[nH+]c2/c(=N\c3ccccc3)cc[n-]c2[n-]c1=O (optimized conformer: 60.43697402126072 kcal/mol)

>  <smiles>  (43) 
CCOC(=O)c1nc2c(=Nc3ccccc3)cc[nH]c2[nH]c1=O

>  <score_type>  (43) 
oracle

>  <origin>  (43) 
adg

>  <m_score__min__energy>  (43) 
-8.6899999999999995

>  <m_primary>  (43) 
energy

$$$$
43:0
     RDKit          3D

 56 59  0  0  0  0  0  0  0  0999 V2000
   55.5390   29.1540   45.2390 O   0  0  0  0  0  0  0  0  0  0  0  0
   56.6570   29.6790   44.9790 C   0  0  0  0  0  0  0  0  0  0  0  0
   56.7230   31.0090   44.4520 N   0  0  0  0  0  0  0  0  0  0  0  0
   57.4440   32.1030   45.0380 C   0  0  0  0  0  0  0  0  0  0  0  0
   57.4930   33.3150   44.3510 C   0  0  0  0  0  0  0  0  0  0  0  0
   58.1870   34.3930   44.8890 C   0  0  0  0  0  0  0  0  0  0  0  0
   58.8380   34.2500   46.1120 C   0  0  0  0  0  0  0  0  0  0  0  0
   58.8120   33.0580   46.7870 N   0  0  0  0  0  0  0  0  0  0  0  0
   59.5160   32.9490   48.0790 C   0  0  0  0  0  0  0  0  0  0  0  0
   61.0080   32.8000   47.8740 C   0  0  0  0  0  0  0  0  0  0  0  0
   61.7910   33.9460   47.6440 C   0  0  0  0  0  0  0  0  0  0  0  0
   63.1660   33.8370   47.4200 C   0  0  0  0  0  0  0  0  0  0  0  0
   63.7770   32.5830   47.4260 C   0  0  0  0  0  0  0  0  0  0  0  0
   63.0180   31.4360   47.6620 C   0  0  0  0  0  0  0  0  0  0  0  0
   61.6390   31.5340   47.8870 C   0  0  0  0  0  0  0  0  0  0  0  0
   60.7490   30.0480   48.2000 Cl  0  0  0  0  0  0  0  0  0  0  0  0
   58.1550   31.9750   46.2500 C   0  0  0  0  0  0  0  0  0  0  0  0
   58.2160   30.8520   46.8210 O   0  0  0  0  0  0  0  0  0  0  0  0
   57.8720   28.9540   45.2030 N   0  0  0  0  0  0  0  0  0  0  0  0
   57.9350   27.5520   45.5190 C   0  0  0  0  0  0  0  0  0  0  0  0
   59.1860   26.9190   45.5840 C   0  0  0  0  0  0  0  0  0  0  0  0
   59.2740   25.5520   45.8580 C   0  0  0  0  0  0  0  0  0  0  0  0
   58.1140   24.8000   46.0570 C   0  0  0  0  0  0  0  0  0  0  0  0
   56.8570   25.4140   45.9790 C   0  0  0  0  0  0  0  0  0  0  0  0
   55.3950   24.4520   46.1880 S   0  0  0  0  0  0  0  0  0  0  0  0
   54.1820   25.3150   45.9660 O   0  0  0  0  0  0  0  0  0  0  0  0
   55.3560   23.9280   47.5980 O   0  0  0  0  0  0  0  0  0  0  0  0
   55.3940   23.1120   45.0650 N   0  0  0  0  0  0  0  0  0  0  0  0
   56.5190   22.2040   45.3630 C   0  0  0  0  0  0  0  0  0  0  0  0
   56.8780   21.3610   44.1280 C   0  0  0  0  0  0  0  0  0  0  0  0
   57.2780   22.1300   43.0010 O   0  0  0  0  0  0  0  0  0  0  0  0
   56.7810   23.4610   43.0080 C   0  0  0  0  0  0  0  0  0  0  0  0
   55.3940   23.5920   43.6660 C   0  0  0  0  0  0  0  0  0  0  0  0
   56.7690   26.7860   45.6980 C   0  0  0  0  0  0  0  0  0  0  0  0
   56.9821   33.4186   43.3824 H   0  0  0  0  0  0  0  0  0  0  0  0
   58.2217   35.3525   44.3523 H   0  0  0  0  0  0  0  0  0  0  0  0
   59.3801   35.1053   46.5416 H   0  0  0  0  0  0  0  0  0  0  0  0
   59.3232   33.8558   48.6711 H   0  0  0  0  0  0  0  0  0  0  0  0
   59.1444   32.0578   48.6060 H   0  0  0  0  0  0  0  0  0  0  0  0
   61.3159   34.9381   47.6405 H   0  0  0  0  0  0  0  0  0  0  0  0
   63.7668   34.7404   47.2389 H   0  0  0  0  0  0  0  0  0  0  0  0
   64.8586   32.4982   47.2445 H   0  0  0  0  0  0  0  0  0  0  0  0
   63.5052   30.4498   47.6714 H   0  0  0  0  0  0  0  0  0  0  0  0
   58.7620   29.5020   45.2130 H   0  0  0  0  0  0  0  0  0  0  0  0
   60.1032   27.5031   45.4181 H   0  0  0  0  0  0  0  0  0  0  0  0
   60.2594   25.0666   45.9172 H   0  0  0  0  0  0  0  0  0  0  0  0
   58.1873   23.7244   46.2752 H   0  0  0  0  0  0  0  0  0  0  0  0
   57.3946   22.7994   45.6609 H   0  0  0  0  0  0  0  0  0  0  0  0
   56.2220   21.5283   46.1786 H   0  0  0  0  0  0  0  0  0  0  0  0
   57.7040   20.6864   44.3975 H   0  0  0  0  0  0  0  0  0  0  0  0
   55.9667   20.8182   43.8365 H   0  0  0  0  0  0  0  0  0  0  0  0
   57.4902   24.0953   43.5600 H   0  0  0  0  0  0  0  0  0  0  0  0
   56.6738   23.7735   41.9588 H   0  0  0  0  0  0  0  0  0  0  0  0
   55.0944   24.6503   43.6542 H   0  0  0  0  0  0  0  0  0  0  0  0
   54.6883   22.9709   43.0949 H   0  0  0  0  0  0  0  0  0  0  0  0
   55.7822   27.2653   45.6172 H   0  0  0  0  0  0  0  0  0  0  0  0
  1  2  2  0
  2  3  1  0
  3  4  1  0
  4  5  2  0
  5  6  1  0
  6  7  2  0
  7  8  1  0
  8  9  1  0
  9 10  1  0
 10 11  2  0
 11 12  1  0
 12 13  2  0
 13 14  1  0
 14 15  2  0
 15 16  1  0
  8 17  1  0
 17 18  2  0
  2 19  1  0
 19 20  1  0
 20 21  2  0
 21 22  1  0
 22 23  2  0
 23 24  1  0
 24 25  1  0
 25 26  2  0
 25 27  2  0
 25 28  1  0
 28 29  1  0
 29 30  1  0
 30 31  1  0
 31 32  1  0
 32 33  1  0
 24 34  2  0
 17  4  1  0
 34 20  1  0
 15 10  1  0
 33 28  1  0
  5 35  1  0
  6 36  1  0
  7 37  1  0
  9 38  1  0
  9 39  1  0
 11 40  1  0
 12 41  1  0
 13 42  1  0
 14 43  1  0
 19 44  1  0
 21 45  1  0
 22 46  1  0
 23 47  1  0
 29 48  1  0
 29 49  1  0
 30 50  1  0
 30 51  1  0
 32 52  1  0
 32 53  1  0
 33 54  1  0
 33 55  1  0
 34 56  1  0
M  CHG  1   3  -1
M  END
>  <UniqueID>  (44) 
40

>  <SMILES>  (44) 
O=C([N-]c1cccn(Cc2ccccc2Cl)c1=O)Nc1cccc(S(=O)(=O)N2CCOCC2)c1

>  <Energy>  (44) 
83.91691041809939

>  <Genealogy>  (44) 
O=C([N-]c1cccn(Cc2ccccc2Cl)c1=O)Nc1cccc(S(=O)(=O)N2CCOCC2)c1 (protonated)
O=C([N-]c1cccn(Cc2ccccc2Cl)c1=O)Nc1cccc(S(=O)(=O)N2CCOCC2)c1 (3D coordinates assigned)
O=C([N-]c1cccn(Cc2ccccc2Cl)c1=O)Nc1cccc(S(=O)(=O)N2CCOCC2)c1 (nonaromatic ring conformer: 83.91691041809939 kcal/mol)

>  <smiles>  (44) 
O=C(Nc1cccc(S(=O)(=O)N2CCOCC2)c1)Nc1cccn(Cc2ccccc2Cl)c1=O

>  <score_type>  (44) 
oracle

>  <origin>  (44) 
adg

>  <m_score__min__energy>  (44) 
-12.98

>  <m_primary>  (44) 
energy

$$$$
44:0
     RDKit          3D

 49 52  0  0  0  0  0  0  0  0999 V2000
   52.8538   21.3992   48.0158 H   0  0  0  0  0  0  0  0  0  0  0  0
   53.6380   21.6520   47.2870 C   0  0  0  0  0  0  0  0  0  0  0  0
   54.1560   20.6640   46.4540 C   0  0  0  0  0  0  0  0  0  0  0  0
   53.7711   19.6354   46.5152 H   0  0  0  0  0  0  0  0  0  0  0  0
   55.1640   20.9790   45.5410 C   0  0  0  0  0  0  0  0  0  0  0  0
   55.5641   20.1951   44.8811 H   0  0  0  0  0  0  0  0  0  0  0  0
   55.6740   22.2870   45.4550 C   0  0  0  0  0  0  0  0  0  0  0  0
   56.7920   22.5560   44.4820 C   0  0  0  0  0  0  0  0  0  0  0  0
   57.7155   22.7782   45.0369 H   0  0  0  0  0  0  0  0  0  0  0  0
   56.9486   21.6699   43.8493 H   0  0  0  0  0  0  0  0  0  0  0  0
   56.5284   23.4163   43.8493 H   0  0  0  0  0  0  0  0  0  0  0  0
   55.1270   23.3070   46.2840 C   0  0  0  0  0  0  0  0  0  0  0  0
   55.5850   24.7200   46.2210 C   0  0  0  0  0  0  0  0  0  0  0  0
   54.7830   25.7720   45.9440 N   0  0  0  0  0  0  0  0  0  0  0  0
   55.5180   26.8710   45.9810 N   0  0  0  0  0  0  0  0  0  0  0  0
   55.1500   27.8300   45.7980 H   0  0  0  0  0  0  0  0  0  0  0  0
   56.7820   26.5440   46.2940 C   0  0  0  0  0  0  0  0  0  0  0  0
   57.7280   27.4340   46.4060 N   0  0  0  0  0  0  0  0  0  0  0  0
   59.0350   27.2790   46.9870 C   0  0  0  0  0  0  0  0  0  0  0  0
   59.4890   26.1340   47.2550 O   0  0  0  0  0  0  0  0  0  0  0  0
   59.8420   28.4800   47.3100 C   0  0  0  0  0  0  0  0  0  0  0  0
   60.3040   29.3280   46.2880 C   0  0  0  0  0  0  0  0  0  0  0  0
   60.0661   29.0978   45.2390 H   0  0  0  0  0  0  0  0  0  0  0  0
   61.0630   30.4610   46.5940 C   0  0  0  0  0  0  0  0  0  0  0  0
   61.4166   31.1155   45.7837 H   0  0  0  0  0  0  0  0  0  0  0  0
   61.3780   30.7710   47.9260 C   0  0  0  0  0  0  0  0  0  0  0  0
   62.1300   31.9580   48.2430 N   0  0  0  0  0  0  0  0  0  0  0  0
   61.8700   33.2300   47.5590 C   0  0  0  0  0  0  0  0  0  0  0  0
   61.1853   33.0536   46.7164 H   0  0  0  0  0  0  0  0  0  0  0  0
   61.4194   33.9317   48.2763 H   0  0  0  0  0  0  0  0  0  0  0  0
   63.1820   33.8400   47.0260 C   0  0  0  0  0  0  0  0  0  0  0  0
   63.3107   33.5244   45.9801 H   0  0  0  0  0  0  0  0  0  0  0  0
   63.0918   34.9313   47.1302 H   0  0  0  0  0  0  0  0  0  0  0  0
   64.3830   33.4350   47.7850 N   0  0  0  0  0  0  0  0  0  0  0  0
   64.7890   32.5770   47.3410 H   0  0  0  0  0  0  0  0  0  0  0  0
   64.0850   33.1350   49.1920 C   0  0  0  0  0  0  0  0  0  0  0  0
   65.0236   32.9193   49.7235 H   0  0  0  0  0  0  0  0  0  0  0  0
   63.5861   34.0045   49.6449 H   0  0  0  0  0  0  0  0  0  0  0  0
   63.1550   31.9180   49.2930 C   0  0  0  0  0  0  0  0  0  0  0  0
   63.7496   30.9993   49.1820 H   0  0  0  0  0  0  0  0  0  0  0  0
   62.6568   31.9348   50.2736 H   0  0  0  0  0  0  0  0  0  0  0  0
   60.9130   29.9290   48.9490 C   0  0  0  0  0  0  0  0  0  0  0  0
   61.1460   30.1648   49.9979 H   0  0  0  0  0  0  0  0  0  0  0  0
   60.1560   28.7930   48.6450 C   0  0  0  0  0  0  0  0  0  0  0  0
   59.8034   28.1391   49.4562 H   0  0  0  0  0  0  0  0  0  0  0  0
   56.8780   25.1730   46.4570 C   0  0  0  0  0  0  0  0  0  0  0  0
   57.7687   24.5806   46.7133 H   0  0  0  0  0  0  0  0  0  0  0  0
   54.1110   22.9630   47.2000 C   0  0  0  0  0  0  0  0  0  0  0  0
   53.6855   23.7379   47.8546 H   0  0  0  0  0  0  0  0  0  0  0  0
  1  2  1  0
  2  3  2  0
  3  4  1  0
  3  5  1  0
  5  6  1  0
  5  7  2  0
  7  8  1  0
  8  9  1  0
  8 10  1  0
  8 11  1  0
  7 12  1  0
 12 13  1  0
 13 14  1  0
 14 15  1  0
 15 16  1  0
 15 17  1  0
 17 18  2  0
 18 19  1  0
 19 20  2  0
 19 21  1  0
 21 22  2  0
 22 23  1  0
 22 24  1  0
 24 25  1  0
 24 26  2  0
 26 27  1  0
 27 28  1  0
 28 29  1  0
 28 30  1  0
 28 31  1  0
 31 32  1  0
 31 33  1  0
 31 34  1  0
 34 35  1  0
 34 36  1  0
 36 37  1  0
 36 38  1  0
 36 39  1  0
 39 40  1  0
 39 41  1  0
 26 42  1  0
 42 43  1  0
 42 44  2  0
 44 45  1  0
 17 46  1  0
 46 47  1  0
 12 48  2  0
 48 49  1  0
 48  2  1  0
 46 13  2  0
 44 21  1  0
 39 27  1  0
M  CHG  1  14  -1
M  END
>  <UniqueID>  (45) 
41

>  <SMILES>  (45) 
Cc1ccccc1-c1c/c(=N\C(=O)c2ccc(N3CCNCC3)cc2)[nH][n-]1

>  <Energy>  (45) 
101.55562566971344

>  <Genealogy>  (45) 
Cc1ccccc1-c1cc(=NC(=O)c2ccc(N3CCNCC3)cc2)[nH][n-]1 (protonated)
Cc1ccccc1-c1c/c(=N\C(=O)c2ccc(N3CCNCC3)cc2)[nH][n-]1 (cis-trans isomerization)
Cc1ccccc1-c1c/c(=N\C(=O)c2ccc(N3CCNCC3)cc2)[nH][n-]1 (3D coordinates assigned)
Cc1ccccc1-c1c/c(=N\C(=O)c2ccc(N3CCNCC3)cc2)[nH][n-]1 (nonaromatic ring conformer: 101.55562566971344 kcal/mol)

>  <smiles>  (45) 
Cc1ccccc1-c1cc(=NC(=O)c2ccc(N3CCNCC3)cc2)[nH][nH]1

>  <score_type>  (45) 
oracle

>  <origin>  (45) 
adg

>  <m_score__min__energy>  (45) 
-11.07

>  <m_primary>  (45) 
energy

$$$$
45:0
     RDKit          3D

 47 49  0  0  0  0  0  0  0  0999 V2000
   54.7310   27.0920   46.7790 H   0  0  0  0  0  0  0  0  0  0  0  0
   55.1470   26.5630   45.9800 N   0  0  0  0  0  0  0  0  0  0  0  0
   56.8520   26.8370   46.0280 S   0  0  0  0  0  0  0  0  0  0  0  0
   57.5520   25.7740   45.2290 O   0  0  0  0  0  0  0  0  0  0  0  0
   57.3340   26.7660   47.4490 O   0  0  0  0  0  0  0  0  0  0  0  0
   57.2120   28.4230   45.3550 C   0  0  0  0  0  0  0  0  0  0  0  0
   56.1880   29.1930   44.7850 C   0  0  0  0  0  0  0  0  0  0  0  0
   55.1571   28.8096   44.7703 H   0  0  0  0  0  0  0  0  0  0  0  0
   56.4730   30.4450   44.2360 C   0  0  0  0  0  0  0  0  0  0  0  0
   55.6648   31.0431   43.7899 H   0  0  0  0  0  0  0  0  0  0  0  0
   57.7850   30.9450   44.2500 C   0  0  0  0  0  0  0  0  0  0  0  0
   58.1000   32.2750   43.6140 C   0  0  0  0  0  0  0  0  0  0  0  0
   59.1553   32.2823   43.3036 H   0  0  0  0  0  0  0  0  0  0  0  0
   57.4370   32.4096   42.7466 H   0  0  0  0  0  0  0  0  0  0  0  0
   57.8590   33.4330   44.5900 C   0  0  0  0  0  0  0  0  0  0  0  0
   58.0853   34.3824   44.0826 H   0  0  0  0  0  0  0  0  0  0  0  0
   56.8070   33.4041   44.9102 H   0  0  0  0  0  0  0  0  0  0  0  0
   58.7060   33.3130   45.7760 N   0  0  0  0  0  0  0  0  0  0  0  0
   59.7400   33.2910   45.6300 H   0  0  0  0  0  0  0  0  0  0  0  0
   58.1690   33.2760   47.1090 C   0  0  0  0  0  0  0  0  0  0  0  0
   56.9260   33.3890   47.2850 O   0  0  0  0  0  0  0  0  0  0  0  0
   59.0550   33.1360   48.2920 C   0  0  0  0  0  0  0  0  0  0  0  0
   60.0720   34.0050   48.4790 C   0  0  0  0  0  0  0  0  0  0  0  0
   59.8790   34.8757   49.1230 H   0  0  0  0  0  0  0  0  0  0  0  0
   61.4220   33.8840   47.8910 C   0  0  0  0  0  0  0  0  0  0  0  0
   61.6340   33.8680   46.5950 O   0  0  0  0  0  0  0  0  0  0  0  0
   62.9260   33.7880   46.3780 C   0  0  0  0  0  0  0  0  0  0  0  0
   63.4003   33.7485   45.3863 H   0  0  0  0  0  0  0  0  0  0  0  0
   63.5990   33.7610   47.5820 C   0  0  0  0  0  0  0  0  0  0  0  0
   64.6872   33.6979   47.7297 H   0  0  0  0  0  0  0  0  0  0  0  0
   62.6330   33.8290   48.5620 C   0  0  0  0  0  0  0  0  0  0  0  0
   62.7904   33.8378   49.6506 H   0  0  0  0  0  0  0  0  0  0  0  0
   58.8440   31.9660   49.1780 C   0  0  0  0  0  0  0  0  0  0  0  0
   59.1830   30.6780   48.7340 C   0  0  0  0  0  0  0  0  0  0  0  0
   59.5950   30.5375   47.7238 H   0  0  0  0  0  0  0  0  0  0  0  0
   58.9990   29.5730   49.5710 C   0  0  0  0  0  0  0  0  0  0  0  0
   59.2565   28.5648   49.2143 H   0  0  0  0  0  0  0  0  0  0  0  0
   58.4880   29.7480   50.8610 C   0  0  0  0  0  0  0  0  0  0  0  0
   58.3411   28.8776   51.5173 H   0  0  0  0  0  0  0  0  0  0  0  0
   58.1640   31.0290   51.3160 C   0  0  0  0  0  0  0  0  0  0  0  0
   57.7656   31.1661   52.3321 H   0  0  0  0  0  0  0  0  0  0  0  0
   58.3450   32.1360   50.4830 C   0  0  0  0  0  0  0  0  0  0  0  0
   58.0968   33.1435   50.8482 H   0  0  0  0  0  0  0  0  0  0  0  0
   58.8110   30.1650   44.8070 C   0  0  0  0  0  0  0  0  0  0  0  0
   59.8446   30.5413   44.8100 H   0  0  0  0  0  0  0  0  0  0  0  0
   58.5250   28.9120   45.3580 C   0  0  0  0  0  0  0  0  0  0  0  0
   59.3337   28.3081   45.7954 H   0  0  0  0  0  0  0  0  0  0  0  0
  1  2  1  0
  2  3  1  0
  3  4  2  0
  3  5  2  0
  3  6  1  0
  6  7  2  0
  7  8  1  0
  7  9  1  0
  9 10  1  0
  9 11  2  0
 11 12  1  0
 12 13  1  0
 12 14  1  0
 12 15  1  0
 15 16  1  0
 15 17  1  0
 15 18  1  0
 18 19  1  0
 18 20  1  0
 20 21  2  0
 20 22  1  0
 22 23  2  0
 23 24  1  0
 23 25  1  0
 25 26  1  0
 26 27  1  0
 27 28  1  0
 27 29  2  0
 29 30  1  0
 29 31  1  0
 31 32  1  0
 22 33  1  0
 33 34  2  0
 34 35  1  0
 34 36  1  0
 36 37  1  0
 36 38  2  0
 38 39  1  0
 38 40  1  0
 40 41  1  0
 40 42  2  0
 42 43  1  0
 11 44  1  0
 44 45  1  0
 44 46  2  0
 46 47  1  0
 46  6  1  0
 31 25  2  0
 42 33  1  0
M  CHG  1   2  -1
M  END
>  <UniqueID>  (46) 
42

>  <SMILES>  (46) 
[NH-]S(=O)(=O)c1ccc(CCNC(=O)/C(=C/c2ccco2)c2ccccc2)cc1

>  <Energy>  (46) 
81.11253491934143

>  <Genealogy>  (46) 
[NH-]S(=O)(=O)c1ccc(CCNC(=O)C(=Cc2ccco2)c2ccccc2)cc1 (protonated)
[NH-]S(=O)(=O)c1ccc(CCNC(=O)/C(=C/c2ccco2)c2ccccc2)cc1 (cis-trans isomerization)
[NH-]S(=O)(=O)c1ccc(CCNC(=O)/C(=C/c2ccco2)c2ccccc2)cc1 (3D coordinates assigned)
[NH-]S(=O)(=O)c1ccc(CCNC(=O)/C(=C/c2ccco2)c2ccccc2)cc1 (optimized conformer: 81.11253491934143 kcal/mol)

>  <smiles>  (46) 
NS(=O)(=O)c1ccc(CCNC(=O)C(=Cc2ccco2)c2ccccc2)cc1

>  <score_type>  (46) 
oracle

>  <origin>  (46) 
adg

>  <m_score__min__energy>  (46) 
-11.34

>  <m_primary>  (46) 
energy

$$$$
46:0
     RDKit          3D

 31 33  0  0  0  0  0  0  0  0999 V2000
   54.1580   24.2310   46.0060 O   0  0  0  0  0  0  0  0  0  0  0  0
   55.1830   24.8980   45.7000 C   0  0  0  0  0  0  0  0  0  0  0  0
   55.1530   26.3220   45.8720 N   0  0  0  0  0  0  0  0  0  0  0  0
   56.1420   27.1470   45.6830 C   0  0  0  0  0  0  0  0  0  0  0  0
   55.8780   28.4040   45.2400 N   0  0  0  0  0  0  0  0  0  0  0  0
   56.8720   29.3000   45.0060 C   0  0  0  0  0  0  0  0  0  0  0  0
   56.5790   30.4560   44.5990 O   0  0  0  0  0  0  0  0  0  0  0  0
   58.2090   28.9280   45.2180 C   0  0  0  0  0  0  0  0  0  0  0  0
   59.2850   29.8060   44.9960 C   0  0  0  0  0  0  0  0  0  0  0  0
   60.5960   29.3770   45.2240 C   0  0  0  0  0  0  0  0  0  0  0  0
   60.8440   28.0750   45.6700 C   0  0  0  0  0  0  0  0  0  0  0  0
   59.7810   27.1940   45.8930 C   0  0  0  0  0  0  0  0  0  0  0  0
   58.4650   27.6160   45.6700 C   0  0  0  0  0  0  0  0  0  0  0  0
   57.4320   26.7620   45.8860 N   0  0  0  0  0  0  0  0  0  0  0  0
   56.3790   24.2210   45.2810 N   0  0  0  0  0  0  0  0  0  0  0  0
   56.3900   22.9220   44.6630 C   0  0  0  0  0  0  0  0  0  0  0  0
   56.2170   21.7780   45.4590 C   0  0  0  0  0  0  0  0  0  0  0  0
   56.2470   20.5040   44.8830 C   0  0  0  0  0  0  0  0  0  0  0  0
   56.4620   20.3610   43.5100 C   0  0  0  0  0  0  0  0  0  0  0  0
   56.6550   21.4910   42.7120 C   0  0  0  0  0  0  0  0  0  0  0  0
   56.6240   22.7670   43.2830 C   0  0  0  0  0  0  0  0  0  0  0  0
   59.0951   30.8303   44.6429 H   0  0  0  0  0  0  0  0  0  0  0  0
   61.4357   30.0664   45.0519 H   0  0  0  0  0  0  0  0  0  0  0  0
   61.8778   27.7429   45.8459 H   0  0  0  0  0  0  0  0  0  0  0  0
   59.9788   26.1702   46.2434 H   0  0  0  0  0  0  0  0  0  0  0  0
   57.2960   24.6510   45.5380 H   0  0  0  0  0  0  0  0  0  0  0  0
   56.0569   21.8847   46.5421 H   0  0  0  0  0  0  0  0  0  0  0  0
   56.1011   19.6133   45.5118 H   0  0  0  0  0  0  0  0  0  0  0  0
   56.4793   19.3586   43.0574 H   0  0  0  0  0  0  0  0  0  0  0  0
   56.8317   21.3769   41.6323 H   0  0  0  0  0  0  0  0  0  0  0  0
   56.7831   23.6535   42.6516 H   0  0  0  0  0  0  0  0  0  0  0  0
  1  2  2  0
  2  3  1  0
  3  4  2  3
  4  5  1  0
  5  6  1  0
  6  7  2  0
  6  8  1  0
  8  9  2  0
  9 10  1  0
 10 11  2  0
 11 12  1  0
 12 13  2  0
 13 14  1  0
  2 15  1  0
 15 16  1  0
 16 17  2  0
 17 18  1  0
 18 19  2  0
 19 20  1  0
 20 21  2  0
 14  4  1  0
 21 16  1  0
 13  8  1  0
  9 22  1  0
 10 23  1  0
 11 24  1  0
 12 25  1  0
 15 26  1  0
 17 27  1  0
 18 28  1  0
 19 29  1  0
 20 30  1  0
 21 31  1  0
M  CHG  2   5  -1  14  -1
M  END
>  <UniqueID>  (47) 
43

>  <SMILES>  (47) 
O=C(N=c1[n-]c(=O)c2ccccc2[n-]1)Nc1ccccc1

>  <Energy>  (47) 
45.73192137864464

>  <Genealogy>  (47) 
O=C(N=c1[n-]c(=O)c2ccccc2[n-]1)Nc1ccccc1 (protonated)
O=C(N=c1[n-]c(=O)c2ccccc2[n-]1)Nc1ccccc1 (3D coordinates assigned)
O=C(N=c1[n-]c(=O)c2ccccc2[n-]1)Nc1ccccc1 (optimized conformer: 45.73192137864464 kcal/mol)

>  <smiles>  (47) 
O=C(N=c1[nH]c(=O)c2ccccc2[nH]1)Nc1ccccc1

>  <score_type>  (47) 
oracle

>  <origin>  (47) 
adg

>  <m_score__min__energy>  (47) 
-10.48

>  <m_primary>  (47) 
energy

$$$$
47:0
     RDKit          3D

 61 63  0  0  0  0  0  0  0  0999 V2000
   55.5530   29.7450   43.6090 C   0  0  0  0  0  0  0  0  0  0  0  0
   56.8460   30.5090   43.3390 C   0  0  0  0  0  0  0  0  0  0  0  0
   57.6020   30.7460   44.6280 C   0  0  0  0  0  0  0  0  0  0  0  0
   57.4660   31.9930   45.2540 C   0  0  0  0  0  0  0  0  0  0  0  0
   58.1980   32.3040   46.4090 C   0  0  0  0  0  0  0  0  0  0  0  0
   58.0870   33.5400   47.0650 O   0  0  0  0  0  0  0  0  0  0  0  0
   58.9970   34.6330   46.9250 C   0  0  0  0  0  0  0  0  0  0  0  0
   60.3870   34.2260   47.3380 C   0  0  0  0  0  0  0  0  0  0  0  0
   61.3330   33.8650   46.3640 C   0  0  0  0  0  0  0  0  0  0  0  0
   62.6270   33.4930   46.7430 C   0  0  0  0  0  0  0  0  0  0  0  0
   62.9830   33.4730   48.0940 C   0  0  0  0  0  0  0  0  0  0  0  0
   62.0440   33.8200   49.0700 C   0  0  0  0  0  0  0  0  0  0  0  0
   60.7490   34.1920   48.6950 C   0  0  0  0  0  0  0  0  0  0  0  0
   59.0860   31.3640   46.9260 C   0  0  0  0  0  0  0  0  0  0  0  0
   59.2870   30.1240   46.2970 C   0  0  0  0  0  0  0  0  0  0  0  0
   60.3680   29.2030   46.8510 C   0  0  0  0  0  0  0  0  0  0  0  0
   59.8490   28.0980   47.6930 N   0  0  0  0  0  0  0  0  0  0  0  0
   60.0390   28.3290   49.1330 C   0  0  0  0  0  0  0  0  0  0  0  0
   60.3750   26.7850   47.2960 C   0  0  0  0  0  0  0  0  0  0  0  0
   58.4960   29.7860   45.1670 C   0  0  0  0  0  0  0  0  0  0  0  0
   58.6100   28.1380   44.4210 S   0  0  0  0  0  0  0  0  0  0  0  0
   57.4610   27.3350   45.5970 C   0  0  0  0  0  0  0  0  0  0  0  0
   57.0680   25.9640   45.1220 C   0  0  0  0  0  0  0  0  0  0  0  0
   56.0110   25.2800   45.7410 C   0  0  0  0  0  0  0  0  0  0  0  0
   55.6070   24.0270   45.2660 C   0  0  0  0  0  0  0  0  0  0  0  0
   56.2560   23.4440   44.1610 C   0  0  0  0  0  0  0  0  0  0  0  0
   55.8830   22.1950   43.6440 O   0  0  0  0  0  0  0  0  0  0  0  0
   56.7910   21.2550   43.0790 C   0  0  0  0  0  0  0  0  0  0  0  0
   57.3110   24.1300   43.5490 C   0  0  0  0  0  0  0  0  0  0  0  0
   57.7170   25.3790   44.0240 C   0  0  0  0  0  0  0  0  0  0  0  0
   55.4003   29.6548   44.6946 H   0  0  0  0  0  0  0  0  0  0  0  0
   54.7064   30.2880   43.1635 H   0  0  0  0  0  0  0  0  0  0  0  0
   55.6202   28.7415   43.1635 H   0  0  0  0  0  0  0  0  0  0  0  0
   57.4756   29.9235   42.6528 H   0  0  0  0  0  0  0  0  0  0  0  0
   56.5967   31.4815   42.8895 H   0  0  0  0  0  0  0  0  0  0  0  0
   56.7751   32.7383   44.8331 H   0  0  0  0  0  0  0  0  0  0  0  0
   59.0131   34.9568   45.8739 H   0  0  0  0  0  0  0  0  0  0  0  0
   58.6627   35.4562   47.5734 H   0  0  0  0  0  0  0  0  0  0  0  0
   61.0551   33.8749   45.2997 H   0  0  0  0  0  0  0  0  0  0  0  0
   63.3655   33.2158   45.9763 H   0  0  0  0  0  0  0  0  0  0  0  0
   64.0024   33.1842   48.3898 H   0  0  0  0  0  0  0  0  0  0  0  0
   62.3239   33.8004   50.1336 H   0  0  0  0  0  0  0  0  0  0  0  0
   60.0109   34.4590   49.4657 H   0  0  0  0  0  0  0  0  0  0  0  0
   59.6417   31.5973   47.8462 H   0  0  0  0  0  0  0  0  0  0  0  0
   60.9153   28.7640   46.0038 H   0  0  0  0  0  0  0  0  0  0  0  0
   61.0095   29.8199   47.4974 H   0  0  0  0  0  0  0  0  0  0  0  0
   59.4413   27.6024   49.7029 H   0  0  0  0  0  0  0  0  0  0  0  0
   61.1025   28.2082   49.3865 H   0  0  0  0  0  0  0  0  0  0  0  0
   59.7152   29.3492   49.3865 H   0  0  0  0  0  0  0  0  0  0  0  0
   60.6105   26.1971   48.1954 H   0  0  0  0  0  0  0  0  0  0  0  0
   59.6204   26.2534   46.6977 H   0  0  0  0  0  0  0  0  0  0  0  0
   61.2879   26.9214   46.6977 H   0  0  0  0  0  0  0  0  0  0  0  0
   57.9532   27.2479   46.5769 H   0  0  0  0  0  0  0  0  0  0  0  0
   56.5529   27.9512   45.6728 H   0  0  0  0  0  0  0  0  0  0  0  0
   55.4976   25.7304   46.6033 H   0  0  0  0  0  0  0  0  0  0  0  0
   54.7790   23.4956   45.7580 H   0  0  0  0  0  0  0  0  0  0  0  0
   57.3107   20.7169   43.8854 H   0  0  0  0  0  0  0  0  0  0  0  0
   56.2359   20.5369   42.4575 H   0  0  0  0  0  0  0  0  0  0  0  0
   57.5279   21.7849   42.4575 H   0  0  0  0  0  0  0  0  0  0  0  0
   57.8251   23.6815   42.6861 H   0  0  0  0  0  0  0  0  0  0  0  0
   58.5493   25.9066   43.5352 H   0  0  0  0  0  0  0  0  0  0  0  0
  1  2  1  0
  2  3  1  0
  3  4  2  0
  4  5  1  0
  5  6  1  0
  6  7  1  0
  7  8  1  0
  8  9  2  0
  9 10  1  0
 10 11  2  0
 11 12  1  0
 12 13  2  0
  5 14  2  0
 14 15  1  0
 15 16  1  0
 16 17  1  0
 17 18  1  0
 17 19  1  0
 15 20  2  0
 20 21  1  0
 21 22  1  0
 22 23  1  0
 23 24  2  0
 24 25  1  0
 25 26  2  0
 26 27  1  0
 27 28  1  0
 26 29  1  0
 29 30  2  0
 20  3  1  0
 30 23  1  0
 13  8  1  0
  1 31  1  0
  1 32  1  0
  1 33  1  0
  2 34  1  0
  2 35  1  0
  4 36  1  0
  7 37  1  0
  7 38  1  0
  9 39  1  0
 10 40  1  0
 11 41  1  0
 12 42  1  0
 13 43  1  0
 14 44  1  0
 16 45  1  0
 16 46  1  0
 18 47  1  0
 18 48  1  0
 18 49  1  0
 19 50  1  0
 19 51  1  0
 19 52  1  0
 22 53  1  0
 22 54  1  0
 24 55  1  0
 25 56  1  0
 28 57  1  0
 28 58  1  0
 28 59  1  0
 29 60  1  0
 30 61  1  0
M  END
>  <UniqueID>  (48) 
44

>  <SMILES>  (48) 
CCc1cc(OCc2ccccc2)cc(CN(C)C)c1SCc1ccc(OC)cc1

>  <Energy>  (48) 
57.57455311368104

>  <Genealogy>  (48) 
CCc1cc(OCc2ccccc2)cc(CN(C)C)c1SCc1ccc(OC)cc1 (3D coordinates assigned)
CCc1cc(OCc2ccccc2)cc(CN(C)C)c1SCc1ccc(OC)cc1 (optimized conformer: 57.57455311368104 kcal/mol)

>  <smiles>  (48) 
CCc1cc(OCc2ccccc2)cc(CN(C)C)c1SCc1ccc(OC)cc1

>  <score_type>  (48) 
oracle

>  <origin>  (48) 
adg

>  <m_score__min__energy>  (48) 
-8.6099999999999994

>  <m_primary>  (48) 
energy

$$$$
48:0
     RDKit          3D

 52 55  0  0  0  0  0  0  0  0999 V2000
   64.3500   33.2670   47.5850 N   0  0  0  0  0  0  0  0  0  0  0  0
   62.7030   32.7910   47.3520 S   0  0  0  0  0  0  0  0  0  0  0  0
   62.1600   33.5580   46.1780 O   0  0  0  0  0  0  0  0  0  0  0  0
   62.6640   31.3200   47.0480 O   0  0  0  0  0  0  0  0  0  0  0  0
   61.7230   33.1280   48.7950 C   0  0  0  0  0  0  0  0  0  0  0  0
   62.3710   33.4280   50.0060 C   0  0  0  0  0  0  0  0  0  0  0  0
   61.6320   33.7400   51.1500 C   0  0  0  0  0  0  0  0  0  0  0  0
   60.2400   33.7530   51.1030 C   0  0  0  0  0  0  0  0  0  0  0  0
   59.5770   33.4450   49.9150 C   0  0  0  0  0  0  0  0  0  0  0  0
   60.3040   33.1210   48.7560 C   0  0  0  0  0  0  0  0  0  0  0  0
   59.5520   32.7630   47.5370 C   0  0  0  0  0  0  0  0  0  0  0  0
   58.3990   33.4760   47.1810 C   0  0  0  0  0  0  0  0  0  0  0  0
   57.6680   33.1110   46.0480 C   0  0  0  0  0  0  0  0  0  0  0  0
   58.0830   32.0300   45.2550 C   0  0  0  0  0  0  0  0  0  0  0  0
   57.3220   31.5920   44.1230 N   0  0  0  0  0  0  0  0  0  0  0  0
   56.4350   30.1010   44.0680 S   0  0  0  0  0  0  0  0  0  0  0  0
   55.1540   30.2100   44.8460 O   0  0  0  0  0  0  0  0  0  0  0  0
   56.0850   29.8060   42.6370 O   0  0  0  0  0  0  0  0  0  0  0  0
   57.4470   28.7990   44.7010 C   0  0  0  0  0  0  0  0  0  0  0  0
   57.7870   27.7180   43.8740 C   0  0  0  0  0  0  0  0  0  0  0  0
   58.6340   26.7110   44.3420 C   0  0  0  0  0  0  0  0  0  0  0  0
   59.1680   26.7840   45.6300 C   0  0  0  0  0  0  0  0  0  0  0  0
   58.8450   27.8640   46.4620 C   0  0  0  0  0  0  0  0  0  0  0  0
   59.4480   27.9700   47.7640 C   0  0  0  0  0  0  0  0  0  0  0  0
   59.9720   28.0780   48.8440 C   0  0  0  0  0  0  0  0  0  0  0  0
   60.6040   28.1790   50.1340 C   0  0  0  0  0  0  0  0  0  0  0  0
   61.0380   29.4200   50.6140 C   0  0  0  0  0  0  0  0  0  0  0  0
   60.8480   30.5520   49.8860 F   0  0  0  0  0  0  0  0  0  0  0  0
   61.6850   29.4870   51.8520 C   0  0  0  0  0  0  0  0  0  0  0  0
   62.1240   30.6810   52.3260 F   0  0  0  0  0  0  0  0  0  0  0  0
   61.8890   28.3540   52.5770 N   0  0  0  0  0  0  0  0  0  0  0  0
   61.4700   27.1390   52.1360 C   0  0  0  0  0  0  0  0  0  0  0  0
   61.7000   26.0340   52.8880 F   0  0  0  0  0  0  0  0  0  0  0  0
   60.8160   27.0290   50.9060 C   0  0  0  0  0  0  0  0  0  0  0  0
   60.4090   25.8100   50.4630 F   0  0  0  0  0  0  0  0  0  0  0  0
   57.9710   28.8620   46.0050 C   0  0  0  0  0  0  0  0  0  0  0  0
   57.6440   29.8890   46.8290 F   0  0  0  0  0  0  0  0  0  0  0  0
   59.2770   31.3700   45.5660 C   0  0  0  0  0  0  0  0  0  0  0  0
   60.0070   31.7280   46.7040 C   0  0  0  0  0  0  0  0  0  0  0  0
   64.7500   32.6650   48.3380 H   0  0  0  0  0  0  0  0  0  0  0  0
   64.8690   33.0660   46.7030 H   0  0  0  0  0  0  0  0  0  0  0  0
   63.4699   33.4170   50.0533 H   0  0  0  0  0  0  0  0  0  0  0  0
   62.1511   33.9761   52.0906 H   0  0  0  0  0  0  0  0  0  0  0  0
   59.6625   34.0066   52.0042 H   0  0  0  0  0  0  0  0  0  0  0  0
   58.4775   33.4557   49.8847 H   0  0  0  0  0  0  0  0  0  0  0  0
   58.0686   34.3260   47.7960 H   0  0  0  0  0  0  0  0  0  0  0  0
   56.7627   33.6736   45.7760 H   0  0  0  0  0  0  0  0  0  0  0  0
   57.3844   27.6633   42.8518 H   0  0  0  0  0  0  0  0  0  0  0  0
   58.8813   25.8575   43.6937 H   0  0  0  0  0  0  0  0  0  0  0  0
   59.8423   25.9936   45.9915 H   0  0  0  0  0  0  0  0  0  0  0  0
   59.6435   30.5652   44.9119 H   0  0  0  0  0  0  0  0  0  0  0  0
   60.9396   31.1977   46.9471 H   0  0  0  0  0  0  0  0  0  0  0  0
  1  2  1  0
  2  3  2  0
  2  4  2  0
  2  5  1  0
  5  6  2  0
  6  7  1  0
  7  8  2  0
  8  9  1  0
  9 10  2  0
 10 11  1  0
 11 12  2  0
 12 13  1  0
 13 14  2  0
 14 15  1  0
 15 16  1  0
 16 17  2  0
 16 18  2  0
 16 19  1  0
 19 20  2  0
 20 21  1  0
 21 22  2  0
 22 23  1  0
 23 24  1  0
 24 25  3  0
 25 26  1  0
 26 27  2  0
 27 28  1  0
 27 29  1  0
 29 30  1  0
 29 31  2  0
 31 32  1  0
 32 33  1  0
 32 34  2  0
 34 35  1  0
 23 36  2  0
 36 37  1  0
 14 38  1  0
 38 39  2  0
 10  5  1  0
 39 11  1  0
 36 19  1  0
 34 26  1  0
  1 40  1  0
  1 41  1  0
  6 42  1  0
  7 43  1  0
  8 44  1  0
  9 45  1  0
 12 46  1  0
 13 47  1  0
 20 48  1  0
 21 49  1  0
 22 50  1  0
 38 51  1  0
 39 52  1  0
M  CHG  1  15  -1
M  END
>  <UniqueID>  (49) 
45

>  <SMILES>  (49) 
NS(=O)(=O)c1ccccc1-c1ccc([N-]S(=O)(=O)c2cccc(C#Cc3c(F)c(F)nc(F)c3F)c2F)cc1

>  <Energy>  (49) 
66.50654168723241

>  <Genealogy>  (49) 
NS(=O)(=O)c1ccccc1-c1ccc([N-]S(=O)(=O)c2cccc(C#Cc3c(F)c(F)nc(F)c3F)c2F)cc1 (protonated)
NS(=O)(=O)c1ccccc1-c1ccc([N-]S(=O)(=O)c2cccc(C#Cc3c(F)c(F)nc(F)c3F)c2F)cc1 (3D coordinates assigned)
NS(=O)(=O)c1ccccc1-c1ccc([N-]S(=O)(=O)c2cccc(C#Cc3c(F)c(F)nc(F)c3F)c2F)cc1 (optimized conformer: 66.50654168723241 kcal/mol)

>  <smiles>  (49) 
NS(=O)(=O)c1ccccc1-c1ccc(NS(=O)(=O)c2cccc(C#Cc3c(F)c(F)nc(F)c3F)c2F)cc1

>  <score_type>  (49) 
oracle

>  <origin>  (49) 
adg

>  <m_score__min__energy>  (49) 
-11.16

>  <m_primary>  (49) 
energy

$$$$
49:0
     RDKit          3D

 43 43  0  0  0  0  0  0  0  0999 V2000
   63.3500   33.1890   48.2600 C   0  0  0  0  0  0  0  0  0  0  0  0
   62.7830   32.3560   47.1130 C   0  0  0  0  0  0  0  0  0  0  0  0
   61.4720   31.6700   47.5230 C   0  0  0  0  0  0  0  0  0  0  0  0
   60.2440   32.2460   46.7970 C   0  0  0  0  0  0  0  0  0  0  0  0
   59.1200   32.7590   47.7190 C   0  0  0  0  0  0  0  0  0  0  0  0
   58.1730   33.7960   47.0870 C   0  0  0  0  0  0  0  0  0  0  0  0
   58.7150   34.3650   45.7640 C   0  0  0  0  0  0  0  0  0  0  0  0
   58.2800   33.5610   44.5280 C   0  0  0  0  0  0  0  0  0  0  0  0
   57.2410   32.4500   44.7820 C   0  0  0  0  0  0  0  0  0  0  0  0
   57.3060   31.2680   43.7920 C   0  0  0  0  0  0  0  0  0  0  0  0
   57.7310   29.9680   44.4410 C   0  0  0  0  0  0  0  0  0  0  0  0
   59.0910   29.6180   44.4900 C   0  0  0  0  0  0  0  0  0  0  0  0
   59.4970   28.4300   45.1040 C   0  0  0  0  0  0  0  0  0  0  0  0
   58.5490   27.5690   45.6570 C   0  0  0  0  0  0  0  0  0  0  0  0
   57.1910   27.8840   45.5830 C   0  0  0  0  0  0  0  0  0  0  0  0
   56.7730   29.0730   44.9670 C   0  0  0  0  0  0  0  0  0  0  0  0
   55.4120   29.3630   44.8700 O   0  0  0  0  0  0  0  0  0  0  0  0
   63.0478   32.7450   49.2199 H   0  0  0  0  0  0  0  0  0  0  0  0
   64.4478   33.2057   48.1932 H   0  0  0  0  0  0  0  0  0  0  0  0
   62.9629   34.2165   48.1932 H   0  0  0  0  0  0  0  0  0  0  0  0
   62.5904   33.0136   46.2525 H   0  0  0  0  0  0  0  0  0  0  0  0
   63.5161   31.5793   46.8498 H   0  0  0  0  0  0  0  0  0  0  0  0
   61.5481   30.5981   47.2881 H   0  0  0  0  0  0  0  0  0  0  0  0
   61.3308   31.8433   48.6000 H   0  0  0  0  0  0  0  0  0  0  0  0
   60.5809   33.0854   46.1710 H   0  0  0  0  0  0  0  0  0  0  0  0
   59.8116   31.4151   46.2202 H   0  0  0  0  0  0  0  0  0  0  0  0
   58.5166   31.8945   48.0329 H   0  0  0  0  0  0  0  0  0  0  0  0
   59.6209   33.2726   48.5529 H   0  0  0  0  0  0  0  0  0  0  0  0
   57.2033   33.3146   46.8922 H   0  0  0  0  0  0  0  0  0  0  0  0
   58.0764   34.6329   47.7943 H   0  0  0  0  0  0  0  0  0  0  0  0
   58.3513   35.3973   45.6538 H   0  0  0  0  0  0  0  0  0  0  0  0
   59.8126   34.3131   45.8145 H   0  0  0  0  0  0  0  0  0  0  0  0
   57.8498   34.2657   43.8011 H   0  0  0  0  0  0  0  0  0  0  0  0
   59.1853   33.0478   44.1715 H   0  0  0  0  0  0  0  0  0  0  0  0
   57.4013   32.0564   45.7966 H   0  0  0  0  0  0  0  0  0  0  0  0
   56.2521   32.9130   44.6487 H   0  0  0  0  0  0  0  0  0  0  0  0
   56.3089   31.1279   43.3492 H   0  0  0  0  0  0  0  0  0  0  0  0
   58.0636   31.5178   43.0346 H   0  0  0  0  0  0  0  0  0  0  0  0
   59.8423   30.2846   44.0414 H   0  0  0  0  0  0  0  0  0  0  0  0
   60.5656   28.1735   45.1513 H   0  0  0  0  0  0  0  0  0  0  0  0
   58.8717   26.6411   46.1518 H   0  0  0  0  0  0  0  0  0  0  0  0
   56.4455   27.1969   46.0096 H   0  0  0  0  0  0  0  0  0  0  0  0
   54.7350   28.9480   45.4990 H   0  0  0  0  0  0  0  0  0  0  0  0
  1  2  1  0
  2  3  1  0
  3  4  1  0
  4  5  1  0
  5  6  1  0
  6  7  1  0
  7  8  1  0
  8  9  1  0
  9 10  1  0
 10 11  1  0
 11 12  2  0
 12 13  1  0
 13 14  2  0
 14 15  1  0
 15 16  2  0
 16 17  1  0
 16 11  1  0
  1 18  1  0
  1 19  1  0
  1 20  1  0
  2 21  1  0
  2 22  1  0
  3 23  1  0
  3 24  1  0
  4 25  1  0
  4 26  1  0
  5 27  1  0
  5 28  1  0
  6 29  1  0
  6 30  1  0
  7 31  1  0
  7 32  1  0
  8 33  1  0
  8 34  1  0
  9 35  1  0
  9 36  1  0
 10 37  1  0
 10 38  1  0
 12 39  1  0
 13 40  1  0
 14 41  1  0
 15 42  1  0
 17 43  1  0
M  END
>  <UniqueID>  (50) 
46

>  <SMILES>  (50) 
CCCCCCCCCCc1ccccc1O

>  <Energy>  (50) 
27.099084647810226

>  <Genealogy>  (50) 
CCCCCCCCCCc1ccccc1O (3D coordinates assigned)
CCCCCCCCCCc1ccccc1O (optimized conformer: 27.099084647810226 kcal/mol)

>  <smiles>  (50) 
CCCCCCCCCCc1ccccc1O

>  <score_type>  (50) 
oracle

>  <origin>  (50) 
adg

>  <m_score__min__energy>  (50) 
-7.4100000000000001

>  <m_primary>  (50) 
energy

$$$$
50:0
     RDKit          3D

 49 52  0  0  0  0  0  0  0  0999 V2000
   56.9150   33.4590   47.4540 O   0  0  0  0  0  0  0  0  0  0  0  0
   57.8710   33.1970   46.6770 C   0  0  0  0  0  0  0  0  0  0  0  0
   59.0270   34.1570   46.5880 C   0  0  0  0  0  0  0  0  0  0  0  0
   59.9240   34.0140   47.7990 C   0  0  0  0  0  0  0  0  0  0  0  0
   59.3250   34.0110   49.0710 C   0  0  0  0  0  0  0  0  0  0  0  0
   60.0910   33.8470   50.2250 C   0  0  0  0  0  0  0  0  0  0  0  0
   61.4690   33.6710   50.1340 C   0  0  0  0  0  0  0  0  0  0  0  0
   62.0980   33.6550   48.8820 C   0  0  0  0  0  0  0  0  0  0  0  0
   63.4870   33.4630   48.8010 C   0  0  0  0  0  0  0  0  0  0  0  0
   64.1230   33.4370   47.5600 C   0  0  0  0  0  0  0  0  0  0  0  0
   63.3820   33.6060   46.3910 C   0  0  0  0  0  0  0  0  0  0  0  0
   62.0020   33.8030   46.4540 C   0  0  0  0  0  0  0  0  0  0  0  0
   61.3320   33.8280   47.6970 C   0  0  0  0  0  0  0  0  0  0  0  0
   57.8610   31.9530   45.9650 N   0  0  0  0  0  0  0  0  0  0  0  0
   57.7070   31.7980   44.5460 C   0  0  0  0  0  0  0  0  0  0  0  0
   58.2560   32.7570   43.6790 C   0  0  0  0  0  0  0  0  0  0  0  0
   58.0770   32.6520   42.3000 C   0  0  0  0  0  0  0  0  0  0  0  0
   57.3370   31.5970   41.7720 C   0  0  0  0  0  0  0  0  0  0  0  0
   56.7710   30.6450   42.6200 C   0  0  0  0  0  0  0  0  0  0  0  0
   56.9430   30.7270   44.0170 C   0  0  0  0  0  0  0  0  0  0  0  0
   56.3470   29.6720   44.8850 C   0  0  0  0  0  0  0  0  0  0  0  0
   55.1460   29.3190   44.7350 O   0  0  0  0  0  0  0  0  0  0  0  0
   57.1360   29.0600   45.9130 N   0  0  0  0  0  0  0  0  0  0  0  0
   58.0450   27.9440   45.6800 C   0  0  0  0  0  0  0  0  0  0  0  0
   57.2700   26.6750   45.4580 C   0  0  0  0  0  0  0  0  0  0  0  0
   57.6650   25.7500   44.4800 C   0  0  0  0  0  0  0  0  0  0  0  0
   56.9420   24.5680   44.3050 C   0  0  0  0  0  0  0  0  0  0  0  0
   55.8310   24.3190   45.1130 C   0  0  0  0  0  0  0  0  0  0  0  0
   55.4630   25.2220   46.0620 N   0  0  0  0  0  0  0  0  0  0  0  0
   56.1510   26.3800   46.2510 C   0  0  0  0  0  0  0  0  0  0  0  0
   59.6079   33.9421   45.6789 H   0  0  0  0  0  0  0  0  0  0  0  0
   58.6363   35.1847   46.5518 H   0  0  0  0  0  0  0  0  0  0  0  0
   58.2360   34.1399   49.1573 H   0  0  0  0  0  0  0  0  0  0  0  0
   59.6042   33.8568   51.2114 H   0  0  0  0  0  0  0  0  0  0  0  0
   62.0665   33.5440   51.0488 H   0  0  0  0  0  0  0  0  0  0  0  0
   64.0761   33.3325   49.7208 H   0  0  0  0  0  0  0  0  0  0  0  0
   65.2107   33.2830   47.5034 H   0  0  0  0  0  0  0  0  0  0  0  0
   63.8877   33.5839   45.4144 H   0  0  0  0  0  0  0  0  0  0  0  0
   61.4294   33.9404   45.5249 H   0  0  0  0  0  0  0  0  0  0  0  0
   58.8323   33.5983   44.0914 H   0  0  0  0  0  0  0  0  0  0  0  0
   58.5204   33.4026   41.6292 H   0  0  0  0  0  0  0  0  0  0  0  0
   57.1985   31.5142   40.6839 H   0  0  0  0  0  0  0  0  0  0  0  0
   56.1827   29.8194   42.1932 H   0  0  0  0  0  0  0  0  0  0  0  0
   58.6576   28.1549   44.7910 H   0  0  0  0  0  0  0  0  0  0  0  0
   58.6900   27.8187   46.5622 H   0  0  0  0  0  0  0  0  0  0  0  0
   58.5438   25.9556   43.8512 H   0  0  0  0  0  0  0  0  0  0  0  0
   57.2450   23.8402   43.5379 H   0  0  0  0  0  0  0  0  0  0  0  0
   55.2529   23.3923   44.9824 H   0  0  0  0  0  0  0  0  0  0  0  0
   55.8287   27.0880   47.0287 H   0  0  0  0  0  0  0  0  0  0  0  0
  1  2  2  0
  2  3  1  0
  3  4  1  0
  4  5  2  0
  5  6  1  0
  6  7  2  0
  7  8  1  0
  8  9  2  0
  9 10  1  0
 10 11  2  0
 11 12  1  0
 12 13  2  0
  2 14  1  0
 14 15  1  0
 15 16  2  0
 16 17  1  0
 17 18  2  0
 18 19  1  0
 19 20  2  0
 20 21  1  0
 21 22  2  0
 21 23  1  0
 23 24  1  0
 24 25  1  0
 25 26  2  0
 26 27  1  0
 27 28  2  0
 28 29  1  0
 29 30  2  0
 13  4  1  0
 20 15  1  0
 30 25  1  0
 13  8  1  0
  3 31  1  0
  3 32  1  0
  5 33  1  0
  6 34  1  0
  7 35  1  0
  9 36  1  0
 10 37  1  0
 11 38  1  0
 12 39  1  0
 16 40  1  0
 17 41  1  0
 18 42  1  0
 19 43  1  0
 24 44  1  0
 24 45  1  0
 26 46  1  0
 27 47  1  0
 28 48  1  0
 30 49  1  0
M  CHG  2  14  -1  23  -1
M  END
>  <UniqueID>  (51) 
47

>  <SMILES>  (51) 
O=C(Cc1cccc2ccccc12)[N-]c1ccccc1C(=O)[N-]Cc1cccnc1

>  <Energy>  (51) 
63.65928985990238

>  <Genealogy>  (51) 
O=C(Cc1cccc2ccccc12)[N-]c1ccccc1C(=O)[N-]Cc1cccnc1 (protonated)
O=C(Cc1cccc2ccccc12)[N-]c1ccccc1C(=O)[N-]Cc1cccnc1 (3D coordinates assigned)
O=C(Cc1cccc2ccccc12)[N-]c1ccccc1C(=O)[N-]Cc1cccnc1 (optimized conformer: 63.65928985990238 kcal/mol)

>  <smiles>  (51) 
O=C(Cc1cccc2ccccc12)Nc1ccccc1C(=O)NCc1cccnc1

>  <score_type>  (51) 
oracle

>  <origin>  (51) 
adg

>  <m_score__min__energy>  (51) 
-13.69

>  <m_primary>  (51) 
energy

$$$$
51:0
     RDKit          3D

 51 53  0  0  0  0  0  0  0  0999 V2000
   59.0120   32.7590   48.3980 C   0  0  0  0  0  0  0  0  0  0  0  0
   58.1940   32.0600   47.4640 O   0  0  0  0  0  0  0  0  0  0  0  0
   58.1980   32.2890   46.0780 C   0  0  0  0  0  0  0  0  0  0  0  0
   58.6150   33.5190   45.5290 C   0  0  0  0  0  0  0  0  0  0  0  0
   58.6010   33.7180   44.1510 C   0  0  0  0  0  0  0  0  0  0  0  0
   58.1580   32.7010   43.3040 C   0  0  0  0  0  0  0  0  0  0  0  0
   57.7420   31.4790   43.8340 C   0  0  0  0  0  0  0  0  0  0  0  0
   57.7770   31.2540   45.2240 C   0  0  0  0  0  0  0  0  0  0  0  0
   57.3310   30.0170   45.8070 N   0  0  0  0  0  0  0  0  0  0  0  0
   56.4790   29.0250   45.2120 C   0  0  0  0  0  0  0  0  0  0  0  0
   55.3040   29.3090   44.8620 O   0  0  0  0  0  0  0  0  0  0  0  0
   57.0250   27.6420   44.9650 C   0  0  0  0  0  0  0  0  0  0  0  0
   57.2850   26.8600   46.1990 N   0  0  0  0  0  0  0  0  0  0  0  0
   58.7080   26.5260   46.4050 C   0  0  0  0  0  0  0  0  0  0  0  0
   59.5120   27.7640   46.7190 C   0  0  0  0  0  0  0  0  0  0  0  0
   59.6390   28.2100   48.0430 C   0  0  0  0  0  0  0  0  0  0  0  0
   60.3820   29.3570   48.3390 C   0  0  0  0  0  0  0  0  0  0  0  0
   60.9970   30.0790   47.3060 C   0  0  0  0  0  0  0  0  0  0  0  0
   61.7340   31.2290   47.5850 O   0  0  0  0  0  0  0  0  0  0  0  0
   60.8630   29.6480   45.9820 C   0  0  0  0  0  0  0  0  0  0  0  0
   60.1160   28.5000   45.6920 C   0  0  0  0  0  0  0  0  0  0  0  0
   56.2410   25.4570   46.3340 S   0  0  0  0  0  0  0  0  0  0  0  0
   56.2460   24.9150   47.7350 O   0  0  0  0  0  0  0  0  0  0  0  0
   54.8270   25.8160   45.9730 O   0  0  0  0  0  0  0  0  0  0  0  0
   56.8010   24.2310   45.2030 C   0  0  0  0  0  0  0  0  0  0  0  0
   57.9110   23.4410   45.5350 C   0  0  0  0  0  0  0  0  0  0  0  0
   58.3370   22.4290   44.6680 C   0  0  0  0  0  0  0  0  0  0  0  0
   57.6550   22.1990   43.4680 C   0  0  0  0  0  0  0  0  0  0  0  0
   56.5470   22.9850   43.1320 C   0  0  0  0  0  0  0  0  0  0  0  0
   56.1170   23.9960   43.9970 C   0  0  0  0  0  0  0  0  0  0  0  0
   58.7057   32.4972   49.4215 H   0  0  0  0  0  0  0  0  0  0  0  0
   60.0644   32.4769   48.2468 H   0  0  0  0  0  0  0  0  0  0  0  0
   58.8975   33.8425   48.2468 H   0  0  0  0  0  0  0  0  0  0  0  0
   58.9538   34.3270   46.1941 H   0  0  0  0  0  0  0  0  0  0  0  0
   58.9390   34.6764   43.7301 H   0  0  0  0  0  0  0  0  0  0  0  0
   58.1367   32.8631   42.2162 H   0  0  0  0  0  0  0  0  0  0  0  0
   57.3841   30.6856   43.1613 H   0  0  0  0  0  0  0  0  0  0  0  0
   56.2977   27.0885   44.3529 H   0  0  0  0  0  0  0  0  0  0  0  0
   57.9952   27.7708   44.4628 H   0  0  0  0  0  0  0  0  0  0  0  0
   58.7942   25.8185   47.2429 H   0  0  0  0  0  0  0  0  0  0  0  0
   59.1008   26.0769   45.4809 H   0  0  0  0  0  0  0  0  0  0  0  0
   59.1498   27.6526   48.8554 H   0  0  0  0  0  0  0  0  0  0  0  0
   60.4840   29.6928   49.3815 H   0  0  0  0  0  0  0  0  0  0  0  0
   62.3280   31.2930   48.4050 H   0  0  0  0  0  0  0  0  0  0  0  0
   61.3445   30.2110   45.1688 H   0  0  0  0  0  0  0  0  0  0  0  0
   60.0025   28.1731   44.6479 H   0  0  0  0  0  0  0  0  0  0  0  0
   58.4477   23.6173   46.4788 H   0  0  0  0  0  0  0  0  0  0  0  0
   59.2098   21.8129   44.9302 H   0  0  0  0  0  0  0  0  0  0  0  0
   57.9896   21.4008   42.7891 H   0  0  0  0  0  0  0  0  0  0  0  0
   56.0138   22.8073   42.1864 H   0  0  0  0  0  0  0  0  0  0  0  0
   55.2421   24.6086   43.7336 H   0  0  0  0  0  0  0  0  0  0  0  0
  1  2  1  0
  2  3  1  0
  3  4  2  0
  4  5  1  0
  5  6  2  0
  6  7  1  0
  7  8  2  0
  8  9  1  0
  9 10  1  0
 10 11  2  0
 10 12  1  0
 12 13  1  0
 13 14  1  0
 14 15  1  0
 15 16  2  0
 16 17  1  0
 17 18  2  0
 18 19  1  0
 18 20  1  0
 20 21  2  0
 13 22  1  0
 22 23  2  0
 22 24  2  0
 22 25  1  0
 25 26  2  0
 26 27  1  0
 27 28  2  0
 28 29  1  0
 29 30  2  0
  8  3  1  0
 21 15  1  0
 30 25  1  0
  1 31  1  0
  1 32  1  0
  1 33  1  0
  4 34  1  0
  5 35  1  0
  6 36  1  0
  7 37  1  0
 12 38  1  0
 12 39  1  0
 14 40  1  0
 14 41  1  0
 16 42  1  0
 17 43  1  0
 19 44  1  0
 20 45  1  0
 21 46  1  0
 26 47  1  0
 27 48  1  0
 28 49  1  0
 29 50  1  0
 30 51  1  0
M  CHG  1   9  -1
M  END
>  <UniqueID>  (52) 
48

>  <SMILES>  (52) 
COc1ccccc1[N-]C(=O)CN(Cc1ccc(O)cc1)S(=O)(=O)c1ccccc1

>  <Energy>  (52) 
60.062185812566334

>  <Genealogy>  (52) 
COc1ccccc1[N-]C(=O)CN(Cc1ccc(O)cc1)S(=O)(=O)c1ccccc1 (protonated)
COc1ccccc1[N-]C(=O)CN(Cc1ccc(O)cc1)S(=O)(=O)c1ccccc1 (3D coordinates assigned)
COc1ccccc1[N-]C(=O)CN(Cc1ccc(O)cc1)S(=O)(=O)c1ccccc1 (optimized conformer: 60.062185812566334 kcal/mol)

>  <smiles>  (52) 
COc1ccccc1NC(=O)CN(Cc1ccc(O)cc1)S(=O)(=O)c1ccccc1

>  <score_type>  (52) 
oracle

>  <origin>  (52) 
adg

>  <m_score__min__energy>  (52) 
-10.82

>  <m_primary>  (52) 
energy

$$$$
52:0
     RDKit          3D

 36 38  0  0  1  0  0  0  0  0999 V2000
   66.3420   32.4870   50.4750 C   0  0  0  0  0  0  0  0  0  0  0  0
   65.0490   32.9410   50.8330 O   0  0  0  0  0  0  0  0  0  0  0  0
   64.0890   33.1970   49.8850 C   0  0  0  0  0  0  0  0  0  0  0  0
   64.2930   33.0880   48.5220 C   0  0  0  0  0  0  0  0  0  0  0  0
   63.3020   33.3540   47.5930 C   0  0  0  0  0  0  0  0  0  0  0  0
   62.0620   33.7420   48.0580 C   0  0  0  0  0  0  0  0  0  0  0  0
   60.8790   34.0750   47.4310 C   0  0  0  0  0  0  0  0  0  0  0  0
   60.5980   34.1100   45.9720 C   0  0  0  0  0  0  0  0  0  0  0  0
   59.6540   35.1960   45.6240 C   0  0  0  0  0  0  0  0  0  0  0  0
   60.0120   36.3970   45.7860 O   0  0  0  0  0  0  0  0  0  0  0  0
   58.3790   34.8280   45.1190 N   0  0  0  0  0  0  0  0  0  0  0  0
   57.9920   33.6480   45.1530 C   0  0  0  0  0  0  0  0  0  0  0  0
   57.8150   32.7550   46.1750 N   0  0  0  0  0  0  0  0  0  0  0  0
   57.4050   31.6020   45.9410 N   0  0  0  0  0  0  0  0  0  0  0  0
   57.1140   31.1520   44.7170 C   0  0  0  0  0  0  0  0  0  0  0  0
   56.5560   29.6760   44.0380 S   0  0  0  0  0  0  0  0  0  0  0  0
   56.5420   29.6940   42.3160 N   0  0  0  0  0  0  0  0  0  0  0  0
   55.1430   29.3510   44.4960 O   0  0  0  0  0  0  0  0  0  0  0  0
   57.3850   28.4930   44.4670 O   0  0  0  0  0  0  0  0  0  0  0  0
   57.5040   32.6840   43.7020 S   0  0  0  0  0  0  0  0  0  0  0  0
   59.9930   34.3770   48.4610 C   0  0  0  0  0  0  0  0  0  0  0  0
   60.6040   34.2330   49.6170 O   0  0  0  0  0  0  0  0  0  0  0  0
   61.8630   33.8490   49.4170 C   0  0  0  0  0  0  0  0  0  0  0  0
   62.8340   33.5900   50.3560 C   0  0  0  0  0  0  0  0  0  0  0  0
   66.9241   32.2826   51.3857 H   0  0  0  0  0  0  0  0  0  0  0  0
   66.2555   31.5655   49.8806 H   0  0  0  0  0  0  0  0  0  0  0  0
   66.8506   33.2603   49.8806 H   0  0  0  0  0  0  0  0  0  0  0  0
   65.2843   32.7769   48.1607 H   0  0  0  0  0  0  0  0  0  0  0  0
   63.4973   33.2588   46.5147 H   0  0  0  0  0  0  0  0  0  0  0  0
   61.5420   34.2706   45.4306 H   0  0  0  0  0  0  0  0  0  0  0  0
   60.1394   33.1516   45.6872 H   0  0  0  0  0  0  0  0  0  0  0  0
   58.0520   33.1210   47.1650 H   0  0  0  0  0  0  0  0  0  0  0  0
   57.4950   29.5750   41.9070 H   0  0  0  0  0  0  0  0  0  0  0  0
   55.8370   29.0920   41.8790 H   0  0  0  0  0  0  0  0  0  0  0  0
   58.9460   34.6874   48.3291 H   0  0  0  0  0  0  0  0  0  0  0  0
   62.6309   33.6882   51.4326 H   0  0  0  0  0  0  0  0  0  0  0  0
  1  2  1  0
  2  3  1  0
  3  4  2  0
  4  5  1  0
  5  6  2  0
  6  7  1  0
  7  8  1  0
  8  9  1  0
  9 10  2  0
  9 11  1  0
 11 12  2  0
 12 13  1  0
 13 14  1  0
 14 15  2  0
 15 16  1  0
 16 17  1  0
 16 18  2  0
 16 19  2  0
 15 20  1  0
  7 21  2  0
 21 22  1  0
 22 23  1  0
 23 24  2  0
 24  3  1  0
 23  6  1  0
 20 12  1  0
  1 25  1  0
  1 26  1  0
  1 27  1  0
  4 28  1  0
  5 29  1  0
  8 30  1  0
  8 31  1  0
 13 32  1  0
 17 33  1  0
 17 34  1  0
 21 35  1  0
 24 36  1  0
M  END
>  <smiles>  (53) 
COc1ccc2c(CC(=O)N=c3[nH]nc(S(N)(=O)=O)s3)coc2c1

>  <score_type>  (53) 
oracle

>  <origin>  (53) 
adg

>  <m_score__min__energy>  (53) 
-8.0700000000000003

>  <m_primary>  (53) 
energy

$$$$
53:0
     RDKit          3D

 51 53  0  0  0  0  0  0  0  0999 V2000
   59.9420   20.8110   45.1830 H   0  0  0  0  0  0  0  0  0  0  0  0
   59.8140   21.8460   45.2510 N   0  0  0  0  0  0  0  0  0  0  0  0
   58.7050   22.4320   44.9220 C   0  0  0  0  0  0  0  0  0  0  0  0
   57.8380   21.8140   44.0150 C   0  0  0  0  0  0  0  0  0  0  0  0
   58.0924   20.8349   43.5830 H   0  0  0  0  0  0  0  0  0  0  0  0
   56.6470   22.4510   43.6630 C   0  0  0  0  0  0  0  0  0  0  0  0
   55.9598   21.9734   42.9491 H   0  0  0  0  0  0  0  0  0  0  0  0
   56.3340   23.6600   44.2000 N   0  0  0  0  0  0  0  0  0  0  0  0
   57.1570   24.2830   45.0860 C   0  0  0  0  0  0  0  0  0  0  0  0
   56.6950   25.8400   45.7520 S   0  0  0  0  0  0  0  0  0  0  0  0
   57.3200   26.0020   47.1100 O   0  0  0  0  0  0  0  0  0  0  0  0
   55.2010   25.9300   45.8860 O   0  0  0  0  0  0  0  0  0  0  0  0
   57.2580   27.1140   44.7160 N   0  0  0  0  0  0  0  0  0  0  0  0
   57.0890   26.9840   43.6940 H   0  0  0  0  0  0  0  0  0  0  0  0
   57.9510   28.2850   45.1940 C   0  0  0  0  0  0  0  0  0  0  0  0
   59.2320   28.1670   45.7620 C   0  0  0  0  0  0  0  0  0  0  0  0
   59.7154   27.1801   45.8110 H   0  0  0  0  0  0  0  0  0  0  0  0
   59.8960   29.2830   46.2630 C   0  0  0  0  0  0  0  0  0  0  0  0
   60.8995   29.1692   46.6989 H   0  0  0  0  0  0  0  0  0  0  0  0
   59.3030   30.5420   46.2180 C   0  0  0  0  0  0  0  0  0  0  0  0
   60.0120   31.6300   46.7500 O   0  0  0  0  0  0  0  0  0  0  0  0
   59.8470   32.1470   48.0420 C   0  0  0  0  0  0  0  0  0  0  0  0
   59.5000   31.3310   49.1320 C   0  0  0  0  0  0  0  0  0  0  0  0
   59.3502   30.2517   48.9813 H   0  0  0  0  0  0  0  0  0  0  0  0
   59.3440   31.8830   50.4070 C   0  0  0  0  0  0  0  0  0  0  0  0
   59.0826   31.2332   51.2552 H   0  0  0  0  0  0  0  0  0  0  0  0
   59.5190   33.2640   50.6130 C   0  0  0  0  0  0  0  0  0  0  0  0
   59.3570   33.8530   51.9630 C   0  0  0  0  0  0  0  0  0  0  0  0
   60.3130   33.8360   52.7830 O   0  0  0  0  0  0  0  0  0  0  0  0
   58.1180   34.4440   52.3510 N   0  0  0  0  0  0  0  0  0  0  0  0
   57.8270   35.3750   51.9770 H   0  0  0  0  0  0  0  0  0  0  0  0
   59.8460   34.0780   49.5140 C   0  0  0  0  0  0  0  0  0  0  0  0
   59.9802   35.1603   49.6573 H   0  0  0  0  0  0  0  0  0  0  0  0
   60.0020   33.5220   48.2400 C   0  0  0  0  0  0  0  0  0  0  0  0
   60.2485   34.1718   47.3874 H   0  0  0  0  0  0  0  0  0  0  0  0
   58.0020   30.6810   45.6910 C   0  0  0  0  0  0  0  0  0  0  0  0
   57.3470   31.9510   45.7600 N   0  0  0  0  0  0  0  0  0  0  0  0
   57.7440   33.2280   44.6620 S   0  0  0  0  0  0  0  0  0  0  0  0
   57.7700   32.6800   43.2640 O   0  0  0  0  0  0  0  0  0  0  0  0
   56.7080   34.3120   44.7510 O   0  0  0  0  0  0  0  0  0  0  0  0
   59.3480   33.8960   45.0450 C   0  0  0  0  0  0  0  0  0  0  0  0
   59.4725   33.9478   46.1367 H   0  0  0  0  0  0  0  0  0  0  0  0
   60.1269   33.2475   44.6175 H   0  0  0  0  0  0  0  0  0  0  0  0
   59.4363   34.9057   44.6175 H   0  0  0  0  0  0  0  0  0  0  0  0
   57.3350   29.5620   45.1400 C   0  0  0  0  0  0  0  0  0  0  0  0
   55.9670   29.7210   44.5190 C   0  0  0  0  0  0  0  0  0  0  0  0
   55.2115   29.8088   45.3137 H   0  0  0  0  0  0  0  0  0  0  0  0
   55.9504   30.6271   43.8956 H   0  0  0  0  0  0  0  0  0  0  0  0
   55.7430   28.8428   43.8956 H   0  0  0  0  0  0  0  0  0  0  0  0
   58.3630   23.6800   45.4630 C   0  0  0  0  0  0  0  0  0  0  0  0
   59.0352   24.1798   46.1760 H   0  0  0  0  0  0  0  0  0  0  0  0
  1  2  1  0
  2  3  2  0
  3  4  1  0
  4  5  1  0
  4  6  2  0
  6  7  1  0
  6  8  1  0
  8  9  1  0
  9 10  1  0
 10 11  2  0
 10 12  2  0
 10 13  1  0
 13 14  1  0
 13 15  1  0
 15 16  2  0
 16 17  1  0
 16 18  1  0
 18 19  1  0
 18 20  2  0
 20 21  1  0
 21 22  1  0
 22 23  2  0
 23 24  1  0
 23 25  1  0
 25 26  1  0
 25 27  2  0
 27 28  1  0
 28 29  2  0
 28 30  1  0
 30 31  1  0
 27 32  1  0
 32 33  1  0
 32 34  2  0
 34 35  1  0
 20 36  1  0
 36 37  1  0
 37 38  1  0
 38 39  2  0
 38 40  2  0
 38 41  1  0
 41 42  1  0
 41 43  1  0
 41 44  1  0
 36 45  2  0
 45 46  1  0
 46 47  1  0
 46 48  1  0
 46 49  1  0
  9 50  2  0
 50 51  1  0
 50  3  1  0
 45 15  1  0
 34 22  1  0
M  CHG  3   8  -1  30  -1  37  -1
M  END
>  <UniqueID>  (54) 
49

>  <SMILES>  (54) 
[H]/N=c1/cc[n-]c(S(=O)(=O)Nc2ccc(Oc3ccc(C([NH-])=O)cc3)c([N-]S(C)(=O)=O)c2C)c1

>  <Energy>  (54) 
72.35528192638863

>  <Genealogy>  (54) 
Cc1c(NS(=O)(=O)c2cc(=N)cc[n-]2)ccc(Oc2ccc(C([NH-])=O)cc2)c1[N-]S(C)(=O)=O (protonated)
[H]/N=c1/cc[n-]c(S(=O)(=O)Nc2ccc(Oc3ccc(C([NH-])=O)cc3)c([N-]S(C)(=O)=O)c2C)c1 (cis-trans isomerization)
[H]/N=c1/cc[n-]c(S(=O)(=O)Nc2ccc(Oc3ccc(C([NH-])=O)cc3)c([N-]S(C)(=O)=O)c2C)c1 (3D coordinates assigned)
[H]/N=c1/cc[n-]c(S(=O)(=O)Nc2ccc(Oc3ccc(C([NH-])=O)cc3)c([N-]S(C)(=O)=O)c2C)c1 (optimized conformer: 72.35528192638863 kcal/mol)

>  <smiles>  (54) 
Cc1c(NS(=O)(=O)c2cc(=N)cc[nH]2)ccc(Oc2ccc(C(N)=O)cc2)c1NS(C)(=O)=O

>  <score_type>  (54) 
oracle

>  <origin>  (54) 
adg

>  <m_score__min__energy>  (54) 
-13.15

>  <m_primary>  (54) 
energy

$$$$
54:0
     RDKit          3D

 41 42  0  0  0  0  0  0  0  0999 V2000
   58.4810   22.9080   45.5080 C   0  0  0  0  0  0  0  0  0  0  0  0
   58.2620   23.8910   46.5150 O   0  0  0  0  0  0  0  0  0  0  0  0
   58.4480   25.2710   46.3330 C   0  0  0  0  0  0  0  0  0  0  0  0
   59.7090   25.8230   46.0370 C   0  0  0  0  0  0  0  0  0  0  0  0
   59.8530   27.1990   45.8590 C   0  0  0  0  0  0  0  0  0  0  0  0
   58.7440   28.0480   45.9540 C   0  0  0  0  0  0  0  0  0  0  0  0
   58.9270   29.4650   45.7840 N   0  0  0  0  0  0  0  0  0  0  0  0
   57.8540   30.3830   45.5080 C   0  0  0  0  0  0  0  0  0  0  0  0
   56.7390   29.9480   45.1070 O   0  0  0  0  0  0  0  0  0  0  0  0
   58.0620   31.8390   45.6550 C   0  0  0  0  0  0  0  0  0  0  0  0
   57.2840   32.7610   44.9340 C   0  0  0  0  0  0  0  0  0  0  0  0
   57.5060   34.1290   45.1050 C   0  0  0  0  0  0  0  0  0  0  0  0
   58.4930   34.5700   45.9880 C   0  0  0  0  0  0  0  0  0  0  0  0
   59.2460   33.6280   46.6950 C   0  0  0  0  0  0  0  0  0  0  0  0
   60.5200   34.1600   47.8360 S   0  0  0  0  0  0  0  0  0  0  0  0
   61.8770   33.7380   46.7010 C   0  0  0  0  0  0  0  0  0  0  0  0
   59.0160   32.3000   46.5120 N   0  0  0  0  0  0  0  0  0  0  0  0
   57.4880   27.5050   46.2710 C   0  0  0  0  0  0  0  0  0  0  0  0
   57.3330   26.1160   46.4580 C   0  0  0  0  0  0  0  0  0  0  0  0
   56.0930   25.5300   46.7660 O   0  0  0  0  0  0  0  0  0  0  0  0
   55.5670   24.3340   46.1880 C   0  0  0  0  0  0  0  0  0  0  0  0
   54.2440   24.6120   45.4800 C   0  0  0  0  0  0  0  0  0  0  0  0
   53.9240   25.9690   45.6050 O   0  0  0  0  0  0  0  0  0  0  0  0
   58.6968   21.9392   45.9821 H   0  0  0  0  0  0  0  0  0  0  0  0
   57.5810   22.8175   44.8821 H   0  0  0  0  0  0  0  0  0  0  0  0
   59.3343   23.2081   44.8821 H   0  0  0  0  0  0  0  0  0  0  0  0
   60.5859   25.1652   45.9456 H   0  0  0  0  0  0  0  0  0  0  0  0
   60.8458   27.6203   45.6423 H   0  0  0  0  0  0  0  0  0  0  0  0
   59.9050   29.8310   45.7730 H   0  0  0  0  0  0  0  0  0  0  0  0
   56.5065   32.4079   44.2406 H   0  0  0  0  0  0  0  0  0  0  0  0
   56.9034   34.8587   44.5442 H   0  0  0  0  0  0  0  0  0  0  0  0
   58.6761   35.6459   46.1259 H   0  0  0  0  0  0  0  0  0  0  0  0
   62.7686   33.4607   47.2825 H   0  0  0  0  0  0  0  0  0  0  0  0
   61.5749   32.8914   46.0670 H   0  0  0  0  0  0  0  0  0  0  0  0
   62.1083   34.6066   46.0670 H   0  0  0  0  0  0  0  0  0  0  0  0
   56.6174   28.1693   46.3743 H   0  0  0  0  0  0  0  0  0  0  0  0
   56.2896   23.9371   45.4597 H   0  0  0  0  0  0  0  0  0  0  0  0
   55.3912   23.6020   46.9900 H   0  0  0  0  0  0  0  0  0  0  0  0
   54.3369   24.3538   44.4148 H   0  0  0  0  0  0  0  0  0  0  0  0
   53.4490   24.0042   45.9367 H   0  0  0  0  0  0  0  0  0  0  0  0
   54.3790   26.2850   46.4280 H   0  0  0  0  0  0  0  0  0  0  0  0
  1  2  1  0
  2  3  1  0
  3  4  2  0
  4  5  1  0
  5  6  2  0
  6  7  1  0
  7  8  1  0
  8  9  2  0
  8 10  1  0
 10 11  2  0
 11 12  1  0
 12 13  2  0
 13 14  1  0
 14 15  1  0
 15 16  1  0
 14 17  2  0
  6 18  1  0
 18 19  2  0
 19 20  1  0
 20 21  1  0
 21 22  1  0
 22 23  1  0
 19  3  1  0
 17 10  1  0
  1 24  1  0
  1 25  1  0
  1 26  1  0
  4 27  1  0
  5 28  1  0
  7 29  1  0
 11 30  1  0
 12 31  1  0
 13 32  1  0
 16 33  1  0
 16 34  1  0
 16 35  1  0
 18 36  1  0
 21 37  1  0
 21 38  1  0
 22 39  1  0
 22 40  1  0
 23 41  1  0
M  END
>  <UniqueID>  (55) 
50

>  <SMILES>  (55) 
COc1ccc(NC(=O)c2cccc(SC)n2)cc1OCCO

>  <Energy>  (55) 
38.48911642051491

>  <Genealogy>  (55) 
COc1ccc(NC(=O)c2cccc(SC)n2)cc1OCCO (3D coordinates assigned)
COc1ccc(NC(=O)c2cccc(SC)n2)cc1OCCO (optimized conformer: 38.48911642051491 kcal/mol)

>  <smiles>  (55) 
COc1ccc(NC(=O)c2cccc(SC)n2)cc1OCCO

>  <score_type>  (55) 
oracle

>  <origin>  (55) 
adg

>  <m_score__min__energy>  (55) 
-7.4800000000000004

>  <m_primary>  (55) 
energy

$$$$
55:0
     RDKit          3D

 66 69  0  0  0  0  0  0  0  0999 V2000
   60.4251   29.9746   51.1070 H   0  0  0  0  0  0  0  0  0  0  0  0
   60.2350   31.0580   51.1110 C   0  0  0  0  0  0  0  0  0  0  0  0
   61.1710   31.9110   50.6140 N   0  0  0  0  0  0  0  0  0  0  0  0
   60.9870   33.2590   50.6020 C   0  0  0  0  0  0  0  0  0  0  0  0
   62.0270   34.1530   49.9850 C   0  0  0  0  0  0  0  0  0  0  0  0
   63.0161   33.6824   50.0866 H   0  0  0  0  0  0  0  0  0  0  0  0
   62.0157   35.1238   50.5022 H   0  0  0  0  0  0  0  0  0  0  0  0
   61.7450   34.3620   48.6000 O   0  0  0  0  0  0  0  0  0  0  0  0
   60.7150   33.7320   47.8800 C   0  0  0  0  0  0  0  0  0  0  0  0
   59.4610   34.3590   47.8290 C   0  0  0  0  0  0  0  0  0  0  0  0
   59.3212   35.3394   48.3078 H   0  0  0  0  0  0  0  0  0  0  0  0
   58.3870   33.7470   47.1740 C   0  0  0  0  0  0  0  0  0  0  0  0
   57.4057   34.2431   47.1449 H   0  0  0  0  0  0  0  0  0  0  0  0
   58.5610   32.5040   46.5560 C   0  0  0  0  0  0  0  0  0  0  0  0
   57.4510   31.8650   45.9150 N   0  0  0  0  0  0  0  0  0  0  0  0
   57.3100   31.6040   44.6420 C   0  0  0  0  0  0  0  0  0  0  0  0
   57.8340   32.4990   43.7590 N   0  0  0  0  0  0  0  0  0  0  0  0
   57.7290   32.3450   42.4100 C   0  0  0  0  0  0  0  0  0  0  0  0
   58.1687   33.0950   41.7361 H   0  0  0  0  0  0  0  0  0  0  0  0
   57.0650   31.2380   41.8810 C   0  0  0  0  0  0  0  0  0  0  0  0
   56.9810   31.1081   40.7919 H   0  0  0  0  0  0  0  0  0  0  0  0
   56.5090   30.2980   42.7480 C   0  0  0  0  0  0  0  0  0  0  0  0
   55.9882   29.4186   42.3414 H   0  0  0  0  0  0  0  0  0  0  0  0
   56.6110   30.4690   44.1350 C   0  0  0  0  0  0  0  0  0  0  0  0
   56.0390   29.4860   45.0010 N   0  0  0  0  0  0  0  0  0  0  0  0
   56.7750   27.9450   45.2720 S   0  0  0  0  0  0  0  0  0  0  0  0
   55.7120   26.9610   45.6730 O   0  0  0  0  0  0  0  0  0  0  0  0
   57.4050   27.4680   43.9930 O   0  0  0  0  0  0  0  0  0  0  0  0
   57.9740   28.0500   46.5540 C   0  0  0  0  0  0  0  0  0  0  0  0
   58.7410   26.9230   46.8730 C   0  0  0  0  0  0  0  0  0  0  0  0
   58.5749   25.9781   46.3348 H   0  0  0  0  0  0  0  0  0  0  0  0
   59.7170   26.9920   47.8720 C   0  0  0  0  0  0  0  0  0  0  0  0
   60.3296   26.1080   48.1029 H   0  0  0  0  0  0  0  0  0  0  0  0
   59.9170   28.1890   48.5820 C   0  0  0  0  0  0  0  0  0  0  0  0
   60.9770   28.2760   49.6480 C   0  0  0  0  0  0  0  0  0  0  0  0
   60.9397   29.2764   50.1039 H   0  0  0  0  0  0  0  0  0  0  0  0
   61.9509   28.0891   49.1719 H   0  0  0  0  0  0  0  0  0  0  0  0
   60.7800   27.2210   50.7510 C   0  0  0  0  0  0  0  0  0  0  0  0
   60.9014   26.2238   50.3029 H   0  0  0  0  0  0  0  0  0  0  0  0
   59.7734   27.3759   51.1666 H   0  0  0  0  0  0  0  0  0  0  0  0
   61.7730   27.3520   51.9200 C   0  0  0  0  0  0  0  0  0  0  0  0
   62.4762   26.5071   51.8801 H   0  0  0  0  0  0  0  0  0  0  0  0
   61.1888   27.3532   52.8520 H   0  0  0  0  0  0  0  0  0  0  0  0
   62.5720   28.6550   51.8760 C   0  0  0  0  0  0  0  0  0  0  0  0
   62.7792   28.9929   52.9021 H   0  0  0  0  0  0  0  0  0  0  0  0
   63.5215   28.4852   51.3471 H   0  0  0  0  0  0  0  0  0  0  0  0
   61.9901   29.4242   51.3471 H   0  0  0  0  0  0  0  0  0  0  0  0
   59.1330   29.3140   48.2700 C   0  0  0  0  0  0  0  0  0  0  0  0
   59.2809   30.2535   48.8227 H   0  0  0  0  0  0  0  0  0  0  0  0
   58.1660   29.2460   47.2610 C   0  0  0  0  0  0  0  0  0  0  0  0
   57.5566   30.1302   47.0224 H   0  0  0  0  0  0  0  0  0  0  0  0
   59.8270   31.8950   46.5520 C   0  0  0  0  0  0  0  0  0  0  0  0
   59.9755   30.9399   46.0270 H   0  0  0  0  0  0  0  0  0  0  0  0
   60.8990   32.5020   47.2150 C   0  0  0  0  0  0  0  0  0  0  0  0
   61.8873   32.0190   47.2176 H   0  0  0  0  0  0  0  0  0  0  0  0
   59.7960   33.7990   51.1030 C   0  0  0  0  0  0  0  0  0  0  0  0
   59.6324   34.8867   51.0920 H   0  0  0  0  0  0  0  0  0  0  0  0
   58.8190   32.9460   51.6160 C   0  0  0  0  0  0  0  0  0  0  0  0
   57.8819   33.3646   52.0118 H   0  0  0  0  0  0  0  0  0  0  0  0
   59.0230   31.5550   51.6310 C   0  0  0  0  0  0  0  0  0  0  0  0
   57.9800   30.6450   52.1740 C   0  0  0  0  0  0  0  0  0  0  0  0
   57.3810   29.8450   51.4010 O   0  0  0  0  0  0  0  0  0  0  0  0
   57.6310   30.6200   53.6310 C   0  0  0  0  0  0  0  0  0  0  0  0
   58.5514   30.6859   54.2297 H   0  0  0  0  0  0  0  0  0  0  0  0
   56.9785   31.4737   53.8664 H   0  0  0  0  0  0  0  0  0  0  0  0
   57.1068   29.6820   53.8664 H   0  0  0  0  0  0  0  0  0  0  0  0
  1  2  1  0
  2  3  2  0
  3  4  1  0
  4  5  1  0
  5  6  1  0
  5  7  1  0
  5  8  1  0
  8  9  1  0
  9 10  2  0
 10 11  1  0
 10 12  1  0
 12 13  1  0
 12 14  2  0
 14 15  1  0
 15 16  2  0
 16 17  1  0
 17 18  1  0
 18 19  1  0
 18 20  2  0
 20 21  1  0
 20 22  1  0
 22 23  1  0
 22 24  2  0
 24 25  1  0
 25 26  1  0
 26 27  2  0
 26 28  2  0
 26 29  1  0
 29 30  2  0
 30 31  1  0
 30 32  1  0
 32 33  1  0
 32 34  2  0
 34 35  1  0
 35 36  1  0
 35 37  1  0
 35 38  1  0
 38 39  1  0
 38 40  1  0
 38 41  1  0
 41 42  1  0
 41 43  1  0
 41 44  1  0
 44 45  1  0
 44 46  1  0
 44 47  1  0
 34 48  1  0
 48 49  1  0
 48 50  2  0
 50 51  1  0
 14 52  1  0
 52 53  1  0
 52 54  2  0
 54 55  1  0
  4 56  2  0
 56 57  1  0
 56 58  1  0
 58 59  1  0
 58 60  2  0
 60 61  1  0
 61 62  2  0
 61 63  1  0
 63 64  1  0
 63 65  1  0
 63 66  1  0
 60  2  1  0
 54  9  1  0
 24 16  1  0
 50 29  1  0
M  CHG  2  17  -1  25  -1
M  END
>  <UniqueID>  (56) 
51

>  <SMILES>  (56) 
CCCCc1ccc(S(=O)(=O)[N-]c2ccc[n-]/c2=N/c2ccc(OCc3ccc(C(C)=O)cn3)cc2)cc1

>  <Energy>  (56) 
81.84777089336171

>  <Genealogy>  (56) 
CCCCc1ccc(S(=O)(=O)[N-]c2ccc[n-]c2=Nc2ccc(OCc3ccc(C(C)=O)cn3)cc2)cc1 (protonated)
CCCCc1ccc(S(=O)(=O)[N-]c2ccc[n-]/c2=N/c2ccc(OCc3ccc(C(C)=O)cn3)cc2)cc1 (cis-trans isomerization)
CCCCc1ccc(S(=O)(=O)[N-]c2ccc[n-]/c2=N/c2ccc(OCc3ccc(C(C)=O)cn3)cc2)cc1 (3D coordinates assigned)
CCCCc1ccc(S(=O)(=O)[N-]c2ccc[n-]/c2=N/c2ccc(OCc3ccc(C(C)=O)cn3)cc2)cc1 (optimized conformer: 81.84777089336171 kcal/mol)

>  <smiles>  (56) 
CCCCc1ccc(S(=O)(=O)Nc2ccc[nH]c2=Nc2ccc(OCc3ccc(C(C)=O)cn3)cc2)cc1

>  <score_type>  (56) 
oracle

>  <origin>  (56) 
adg

>  <m_score__min__energy>  (56) 
-12.550000000000001

>  <m_primary>  (56) 
energy

$$$$
56:0
     RDKit          3D

 28 29  0  0  0  0  0  0  0  0999 V2000
   57.3030   28.4520   42.9940 N   0  0  0  0  0  0  0  0  0  0  0  0
   56.5450   29.9780   43.2960 S   0  0  0  0  0  0  0  0  0  0  0  0
   56.6610   30.8360   42.0670 O   0  0  0  0  0  0  0  0  0  0  0  0
   55.0940   29.7280   43.6030 O   0  0  0  0  0  0  0  0  0  0  0  0
   57.3150   30.7950   44.6700 C   0  0  0  0  0  0  0  0  0  0  0  0
   57.1650   32.1880   44.7870 C   0  0  0  0  0  0  0  0  0  0  0  0
   57.8140   32.8940   45.8010 C   0  0  0  0  0  0  0  0  0  0  0  0
   58.6270   32.2200   46.7090 C   0  0  0  0  0  0  0  0  0  0  0  0
   58.7810   30.8370   46.6180 C   0  0  0  0  0  0  0  0  0  0  0  0
   58.1190   30.1040   45.6160 C   0  0  0  0  0  0  0  0  0  0  0  0
   58.2910   28.6330   45.6050 C   0  0  0  0  0  0  0  0  0  0  0  0
   59.3440   28.1410   45.1150 O   0  0  0  0  0  0  0  0  0  0  0  0
   57.2970   27.7900   46.2110 N   0  0  0  0  0  0  0  0  0  0  0  0
   56.8060   26.6860   45.7300 C   0  0  0  0  0  0  0  0  0  0  0  0
   57.5270   25.9860   44.8140 N   0  0  0  0  0  0  0  0  0  0  0  0
   57.0580   24.8250   44.2880 C   0  0  0  0  0  0  0  0  0  0  0  0
   55.8170   24.3320   44.6880 C   0  0  0  0  0  0  0  0  0  0  0  0
   55.0870   25.0580   45.6270 C   0  0  0  0  0  0  0  0  0  0  0  0
   55.5920   26.2150   46.1310 N   0  0  0  0  0  0  0  0  0  0  0  0
   58.3290   28.5880   43.1320 H   0  0  0  0  0  0  0  0  0  0  0  0
   56.9880   27.7970   43.7450 H   0  0  0  0  0  0  0  0  0  0  0  0
   56.5284   32.7280   44.0707 H   0  0  0  0  0  0  0  0  0  0  0  0
   57.6834   33.9831   45.8831 H   0  0  0  0  0  0  0  0  0  0  0  0
   59.1486   32.7796   47.4994 H   0  0  0  0  0  0  0  0  0  0  0  0
   59.4273   30.3133   47.3377 H   0  0  0  0  0  0  0  0  0  0  0  0
   57.6566   24.2745   43.5473 H   0  0  0  0  0  0  0  0  0  0  0  0
   55.4235   23.3926   44.2725 H   0  0  0  0  0  0  0  0  0  0  0  0
   54.1033   24.6953   45.9600 H   0  0  0  0  0  0  0  0  0  0  0  0
  1  2  1  0
  2  3  2  0
  2  4  2  0
  2  5  1  0
  5  6  2  0
  6  7  1  0
  7  8  2  0
  8  9  1  0
  9 10  2  0
 10 11  1  0
 11 12  2  0
 11 13  1  0
 13 14  2  3
 14 15  1  0
 15 16  2  0
 16 17  1  0
 17 18  2  0
 18 19  1  0
 10  5  1  0
 19 14  1  0
  1 20  1  0
  1 21  1  0
  6 22  1  0
  7 23  1  0
  8 24  1  0
  9 25  1  0
 16 26  1  0
 17 27  1  0
 18 28  1  0
M  CHG  1  19  -1
M  END
>  <UniqueID>  (57) 
52

>  <SMILES>  (57) 
NS(=O)(=O)c1ccccc1C(=O)N=c1nccc[n-]1

>  <Energy>  (57) 
38.10812498128398

>  <Genealogy>  (57) 
NS(=O)(=O)c1ccccc1C(=O)N=c1nccc[n-]1 (protonated)
NS(=O)(=O)c1ccccc1C(=O)N=c1nccc[n-]1 (3D coordinates assigned)
NS(=O)(=O)c1ccccc1C(=O)N=c1nccc[n-]1 (optimized conformer: 38.10812498128398 kcal/mol)

>  <smiles>  (57) 
NS(=O)(=O)c1ccccc1C(=O)N=c1nccc[nH]1

>  <score_type>  (57) 
oracle

>  <origin>  (57) 
adg

>  <m_score__min__energy>  (57) 
-8.5199999999999996

>  <m_primary>  (57) 
energy

$$$$
57:0
     RDKit          3D

 46 47  0  0  0  0  0  0  0  0999 V2000
   62.4590   34.3300   49.6280 C   0  0  0  0  0  0  0  0  0  0  0  0
   61.1630   33.7960   49.8830 O   0  0  0  0  0  0  0  0  0  0  0  0
   60.7240   32.5390   49.4410 C   0  0  0  0  0  0  0  0  0  0  0  0
   61.6260   31.7280   48.7440 C   0  0  0  0  0  0  0  0  0  0  0  0
   61.2400   30.4670   48.2820 C   0  0  0  0  0  0  0  0  0  0  0  0
   59.9330   29.9950   48.5050 C   0  0  0  0  0  0  0  0  0  0  0  0
   59.5060   28.6580   48.0250 C   0  0  0  0  0  0  0  0  0  0  0  0
   59.9890   27.6270   48.5680 O   0  0  0  0  0  0  0  0  0  0  0  0
   58.5380   28.5190   46.9710 N   0  0  0  0  0  0  0  0  0  0  0  0
   58.1650   27.2180   46.4180 C   0  0  0  0  0  0  0  0  0  0  0  0
   57.1390   27.3770   45.3280 C   0  0  0  0  0  0  0  0  0  0  0  0
   55.9250   27.2070   45.6250 O   0  0  0  0  0  0  0  0  0  0  0  0
   57.5050   27.7410   43.9760 N   0  0  0  0  0  0  0  0  0  0  0  0
   58.1540   26.7730   43.0850 C   0  0  0  0  0  0  0  0  0  0  0  0
   57.1580   29.0710   43.4580 C   0  0  0  0  0  0  0  0  0  0  0  0
   56.4010   29.8430   44.4910 C   0  0  0  0  0  0  0  0  0  0  0  0
   55.1480   29.9410   44.3980 O   0  0  0  0  0  0  0  0  0  0  0  0
   57.0980   30.3730   45.6260 N   0  0  0  0  0  0  0  0  0  0  0  0
   57.7820   31.6320   45.7020 C   0  0  0  0  0  0  0  0  0  0  0  0
   59.1580   31.7220   45.9850 C   0  0  0  0  0  0  0  0  0  0  0  0
   59.7790   32.9730   46.0710 C   0  0  0  0  0  0  0  0  0  0  0  0
   59.0310   34.1410   45.8900 C   0  0  0  0  0  0  0  0  0  0  0  0
   59.8100   35.7090   46.0040 Cl  0  0  0  0  0  0  0  0  0  0  0  0
   57.6600   34.0590   45.6320 C   0  0  0  0  0  0  0  0  0  0  0  0
   57.0370   32.8090   45.5450 C   0  0  0  0  0  0  0  0  0  0  0  0
   59.0320   30.8060   49.2160 C   0  0  0  0  0  0  0  0  0  0  0  0
   59.4200   32.0680   49.6760 C   0  0  0  0  0  0  0  0  0  0  0  0
   62.9642   34.5381   50.5827 H   0  0  0  0  0  0  0  0  0  0  0  0
   63.0489   33.6017   49.0522 H   0  0  0  0  0  0  0  0  0  0  0  0
   62.3646   35.2625   49.0522 H   0  0  0  0  0  0  0  0  0  0  0  0
   62.6491   32.0865   48.5578 H   0  0  0  0  0  0  0  0  0  0  0  0
   61.9626   29.8390   47.7403 H   0  0  0  0  0  0  0  0  0  0  0  0
   58.0680   29.3650   46.5800 H   0  0  0  0  0  0  0  0  0  0  0  0
   59.0603   26.7321   46.0029 H   0  0  0  0  0  0  0  0  0  0  0  0
   57.7344   26.6026   47.2217 H   0  0  0  0  0  0  0  0  0  0  0  0
   58.6670   26.0079   43.6862 H   0  0  0  0  0  0  0  0  0  0  0  0
   57.3948   26.2925   42.4504 H   0  0  0  0  0  0  0  0  0  0  0  0
   58.8868   27.2928   42.4504 H   0  0  0  0  0  0  0  0  0  0  0  0
   58.0799   29.6135   43.2014 H   0  0  0  0  0  0  0  0  0  0  0  0
   56.5299   28.9561   42.5623 H   0  0  0  0  0  0  0  0  0  0  0  0
   59.7470   30.8059   46.1391 H   0  0  0  0  0  0  0  0  0  0  0  0
   60.8568   33.0380   46.2812 H   0  0  0  0  0  0  0  0  0  0  0  0
   57.0702   34.9777   45.4972 H   0  0  0  0  0  0  0  0  0  0  0  0
   55.9557   32.7496   45.3522 H   0  0  0  0  0  0  0  0  0  0  0  0
   58.0119   30.4445   49.4125 H   0  0  0  0  0  0  0  0  0  0  0  0
   58.7019   32.6954   50.2243 H   0  0  0  0  0  0  0  0  0  0  0  0
  1  2  1  0
  2  3  1  0
  3  4  2  0
  4  5  1  0
  5  6  2  0
  6  7  1  0
  7  8  2  0
  7  9  1  0
  9 10  1  0
 10 11  1  0
 11 12  2  0
 11 13  1  0
 13 14  1  0
 13 15  1  0
 15 16  1  0
 16 17  2  0
 16 18  1  0
 18 19  1  0
 19 20  2  0
 20 21  1  0
 21 22  2  0
 22 23  1  0
 22 24  1  0
 24 25  2  0
  6 26  1  0
 26 27  2  0
 27  3  1  0
 25 19  1  0
  1 28  1  0
  1 29  1  0
  1 30  1  0
  4 31  1  0
  5 32  1  0
  9 33  1  0
 10 34  1  0
 10 35  1  0
 14 36  1  0
 14 37  1  0
 14 38  1  0
 15 39  1  0
 15 40  1  0
 20 41  1  0
 21 42  1  0
 24 43  1  0
 25 44  1  0
 26 45  1  0
 27 46  1  0
M  CHG  1  18  -1
M  END
>  <UniqueID>  (58) 
53

>  <SMILES>  (58) 
COc1ccc(C(=O)NCC(=O)N(C)CC(=O)[N-]c2ccc(Cl)cc2)cc1

>  <Energy>  (58) 
45.80779994150457

>  <Genealogy>  (58) 
COc1ccc(C(=O)NCC(=O)N(C)CC(=O)[N-]c2ccc(Cl)cc2)cc1 (protonated)
COc1ccc(C(=O)NCC(=O)N(C)CC(=O)[N-]c2ccc(Cl)cc2)cc1 (3D coordinates assigned)
COc1ccc(C(=O)NCC(=O)N(C)CC(=O)[N-]c2ccc(Cl)cc2)cc1 (optimized conformer: 45.80779994150457 kcal/mol)

>  <smiles>  (58) 
COc1ccc(C(=O)NCC(=O)N(C)CC(=O)Nc2ccc(Cl)cc2)cc1

>  <score_type>  (58) 
oracle

>  <origin>  (58) 
adg

>  <m_score__min__energy>  (58) 
-9.2100000000000009

>  <m_primary>  (58) 
energy

$$$$
58:0
     RDKit          3D

 45 47  0  0  0  0  0  0  0  0999 V2000
   55.5020   27.9240   44.9190 H   0  0  0  0  0  0  0  0  0  0  0  0
   55.6210   28.9450   45.1030 N   0  0  0  0  0  0  0  0  0  0  0  0
   56.8820   29.4730   45.5080 C   0  0  0  0  0  0  0  0  0  0  0  0
   57.1520   30.6770   45.2570 O   0  0  0  0  0  0  0  0  0  0  0  0
   57.8490   28.6320   46.2520 C   0  0  0  0  0  0  0  0  0  0  0  0
   58.8630   29.1240   47.1310 C   0  0  0  0  0  0  0  0  0  0  0  0
   58.9970   30.5340   47.5590 C   0  0  0  0  0  0  0  0  0  0  0  0
   58.7890   30.8970   48.8980 C   0  0  0  0  0  0  0  0  0  0  0  0
   58.4834   30.1356   49.6307 H   0  0  0  0  0  0  0  0  0  0  0  0
   58.9680   32.2190   49.3040 C   0  0  0  0  0  0  0  0  0  0  0  0
   58.7938   32.4985   50.3535 H   0  0  0  0  0  0  0  0  0  0  0  0
   59.3680   33.1900   48.3820 C   0  0  0  0  0  0  0  0  0  0  0  0
   59.5033   34.2313   48.7097 H   0  0  0  0  0  0  0  0  0  0  0  0
   59.5990   32.8450   47.0370 C   0  0  0  0  0  0  0  0  0  0  0  0
   60.0400   33.8620   46.0470 C   0  0  0  0  0  0  0  0  0  0  0  0
   61.2480   34.2260   46.0080 O   0  0  0  0  0  0  0  0  0  0  0  0
   58.8980   34.6070   44.8760 S   0  0  0  0  0  0  0  0  0  0  0  0
   57.4280   33.8810   45.6690 C   0  0  0  0  0  0  0  0  0  0  0  0
   57.5369   33.9348   46.7623 H   0  0  0  0  0  0  0  0  0  0  0  0
   56.5319   34.4401   45.3618 H   0  0  0  0  0  0  0  0  0  0  0  0
   57.3273   32.8296   45.3618 H   0  0  0  0  0  0  0  0  0  0  0  0
   59.4130   31.5070   46.6380 C   0  0  0  0  0  0  0  0  0  0  0  0
   59.5961   31.2216   45.5916 H   0  0  0  0  0  0  0  0  0  0  0  0
   59.7020   28.1760   47.6270 N   0  0  0  0  0  0  0  0  0  0  0  0
   60.4920   28.3300   48.2930 H   0  0  0  0  0  0  0  0  0  0  0  0
   59.2010   26.7130   47.0340 S   0  0  0  0  0  0  0  0  0  0  0  0
   57.9090   27.2400   46.1110 C   0  0  0  0  0  0  0  0  0  0  0  0
   57.1330   26.5250   45.3480 N   0  0  0  0  0  0  0  0  0  0  0  0
   55.9810   25.7620   45.7480 C   0  0  0  0  0  0  0  0  0  0  0  0
   54.8910   26.3390   46.0120 O   0  0  0  0  0  0  0  0  0  0  0  0
   56.0700   24.2840   45.8350 C   0  0  0  0  0  0  0  0  0  0  0  0
   56.2390   23.6560   47.0830 C   0  0  0  0  0  0  0  0  0  0  0  0
   56.2887   24.2640   47.9983 H   0  0  0  0  0  0  0  0  0  0  0  0
   56.3440   22.2660   47.1670 C   0  0  0  0  0  0  0  0  0  0  0  0
   56.4751   21.7841   48.1471 H   0  0  0  0  0  0  0  0  0  0  0  0
   56.2830   21.4860   46.0100 C   0  0  0  0  0  0  0  0  0  0  0  0
   56.3708   20.3920   46.0838 H   0  0  0  0  0  0  0  0  0  0  0  0
   56.1110   22.0860   44.7580 C   0  0  0  0  0  0  0  0  0  0  0  0
   56.0580   21.2590   43.6260 O   0  0  0  0  0  0  0  0  0  0  0  0
   57.1420   21.0520   42.7280 C   0  0  0  0  0  0  0  0  0  0  0  0
   58.0643   20.8759   43.3010 H   0  0  0  0  0  0  0  0  0  0  0  0
   56.9314   20.1778   42.0944 H   0  0  0  0  0  0  0  0  0  0  0  0
   57.2683   21.9422   42.0944 H   0  0  0  0  0  0  0  0  0  0  0  0
   56.0020   23.4890   44.6740 C   0  0  0  0  0  0  0  0  0  0  0  0
   55.8626   23.9672   43.6932 H   0  0  0  0  0  0  0  0  0  0  0  0
  1  2  1  0
  2  3  1  0
  3  4  2  0
  3  5  1  0
  5  6  2  0
  6  7  1  0
  7  8  2  0
  8  9  1  0
  8 10  1  0
 10 11  1  0
 10 12  2  0
 12 13  1  0
 12 14  1  0
 14 15  1  0
 15 16  2  0
 15 17  1  0
 17 18  1  0
 18 19  1  0
 18 20  1  0
 18 21  1  0
 14 22  2  0
 22 23  1  0
  6 24  1  0
 24 25  1  0
 24 26  1  0
 26 27  1  0
 27 28  2  0
 28 29  1  0
 29 30  2  0
 29 31  1  0
 31 32  2  0
 32 33  1  0
 32 34  1  0
 34 35  1  0
 34 36  2  0
 36 37  1  0
 36 38  1  0
 38 39  1  0
 39 40  1  0
 40 41  1  0
 40 42  1  0
 40 43  1  0
 38 44  2  0
 44 45  1  0
 27  5  1  0
 44 31  1  0
 22  7  1  0
M  CHG  1   2  -1
M  END
>  <UniqueID>  (59) 
54

>  <SMILES>  (59) 
COc1cccc(C(=O)/N=c2\s[nH]c(-c3cccc(C(=O)SC)c3)c2C([NH-])=O)c1

>  <Energy>  (59) 
90.4324918661437

>  <Genealogy>  (59) 
COc1cccc(C(=O)N=c2s[nH]c(-c3cccc(C(=O)SC)c3)c2C([NH-])=O)c1 (protonated)
COc1cccc(C(=O)/N=c2\s[nH]c(-c3cccc(C(=O)SC)c3)c2C([NH-])=O)c1 (cis-trans isomerization)
COc1cccc(C(=O)/N=c2\s[nH]c(-c3cccc(C(=O)SC)c3)c2C([NH-])=O)c1 (3D coordinates assigned)
COc1cccc(C(=O)/N=c2\s[nH]c(-c3cccc(C(=O)SC)c3)c2C([NH-])=O)c1 (optimized conformer: 90.4324918661437 kcal/mol)

>  <smiles>  (59) 
COc1cccc(C(=O)N=c2s[nH]c(-c3cccc(C(=O)SC)c3)c2C(N)=O)c1

>  <score_type>  (59) 
oracle

>  <origin>  (59) 
adg

>  <m_score__min__energy>  (59) 
-12.199999999999999

>  <m_primary>  (59) 
energy

$$$$
59:0
     RDKit          3D

 37 38  0  0  0  0  0  0  0  0999 V2000
   54.8540   26.3320   45.9920 N   0  0  0  0  0  0  0  0  0  0  0  0
   56.5330   25.9230   45.9940 S   0  0  0  0  0  0  0  0  0  0  0  0
   56.8420   25.0700   44.7960 O   0  0  0  0  0  0  0  0  0  0  0  0
   56.8590   25.1440   47.2370 O   0  0  0  0  0  0  0  0  0  0  0  0
   57.4970   27.3950   45.9410 C   0  0  0  0  0  0  0  0  0  0  0  0
   58.8620   27.3570   46.2540 C   0  0  0  0  0  0  0  0  0  0  0  0
   59.6190   28.5300   46.2340 C   0  0  0  0  0  0  0  0  0  0  0  0
   59.0210   29.7470   45.8880 C   0  0  0  0  0  0  0  0  0  0  0  0
   57.6600   29.7890   45.5440 C   0  0  0  0  0  0  0  0  0  0  0  0
   57.0120   31.0200   45.1940 N   0  0  0  0  0  0  0  0  0  0  0  0
   57.5780   32.1230   44.4720 C   0  0  0  0  0  0  0  0  0  0  0  0
   58.2230   31.8820   43.4170 O   0  0  0  0  0  0  0  0  0  0  0  0
   57.4670   33.5490   44.9420 C   0  0  0  0  0  0  0  0  0  0  0  0
   58.6480   34.3430   44.5600 N   0  0  0  0  0  0  0  0  0  0  0  0
   59.2920   34.9950   45.7130 C   0  0  0  0  0  0  0  0  0  0  0  0
   59.9280   33.9720   46.6130 C   0  0  0  0  0  0  0  0  0  0  0  0
   59.1760   33.3720   47.6360 C   0  0  0  0  0  0  0  0  0  0  0  0
   59.7560   32.4050   48.4630 C   0  0  0  0  0  0  0  0  0  0  0  0
   61.0870   32.0260   48.2690 C   0  0  0  0  0  0  0  0  0  0  0  0
   61.8410   32.6160   47.2510 C   0  0  0  0  0  0  0  0  0  0  0  0
   61.2660   33.5870   46.4250 C   0  0  0  0  0  0  0  0  0  0  0  0
   56.8970   28.6180   45.6090 C   0  0  0  0  0  0  0  0  0  0  0  0
   54.7260   27.0980   46.6910 H   0  0  0  0  0  0  0  0  0  0  0  0
   59.3385   26.4008   46.5161 H   0  0  0  0  0  0  0  0  0  0  0  0
   60.6881   28.4975   46.4908 H   0  0  0  0  0  0  0  0  0  0  0  0
   59.6173   30.6713   45.8855 H   0  0  0  0  0  0  0  0  0  0  0  0
   56.5716   34.0035   44.4930 H   0  0  0  0  0  0  0  0  0  0  0  0
   57.3984   33.5435   46.0398 H   0  0  0  0  0  0  0  0  0  0  0  0
   59.3460   33.6800   44.1490 H   0  0  0  0  0  0  0  0  0  0  0  0
   60.0654   35.6883   45.3507 H   0  0  0  0  0  0  0  0  0  0  0  0
   58.5271   35.5422   46.2835 H   0  0  0  0  0  0  0  0  0  0  0  0
   58.1263   33.6639   47.7874 H   0  0  0  0  0  0  0  0  0  0  0  0
   59.1643   31.9424   49.2667 H   0  0  0  0  0  0  0  0  0  0  0  0
   61.5414   31.2629   48.9179 H   0  0  0  0  0  0  0  0  0  0  0  0
   62.8884   32.3162   47.0992 H   0  0  0  0  0  0  0  0  0  0  0  0
   61.8630   34.0506   45.6258 H   0  0  0  0  0  0  0  0  0  0  0  0
   55.8181   28.6571   45.3980 H   0  0  0  0  0  0  0  0  0  0  0  0
  1  2  1  0
  2  3  2  0
  2  4  2  0
  2  5  1  0
  5  6  2  0
  6  7  1  0
  7  8  2  0
  8  9  1  0
  9 10  1  0
 10 11  1  0
 11 12  2  0
 11 13  1  0
 13 14  1  0
 14 15  1  0
 15 16  1  0
 16 17  2  0
 17 18  1  0
 18 19  2  0
 19 20  1  0
 20 21  2  0
  9 22  2  0
 22  5  1  0
 21 16  1  0
  1 23  1  0
  6 24  1  0
  7 25  1  0
  8 26  1  0
 13 27  1  0
 13 28  1  0
 14 29  1  0
 15 30  1  0
 15 31  1  0
 17 32  1  0
 18 33  1  0
 19 34  1  0
 20 35  1  0
 21 36  1  0
 22 37  1  0
M  CHG  2   1  -1  10  -1
M  END
>  <UniqueID>  (60) 
55

>  <SMILES>  (60) 
[NH-]S(=O)(=O)c1cccc([N-]C(=O)CNCc2ccccc2)c1

>  <Energy>  (60) 
38.77266548011037

>  <Genealogy>  (60) 
[NH-]S(=O)(=O)c1cccc([N-]C(=O)CNCc2ccccc2)c1 (protonated)
[NH-]S(=O)(=O)c1cccc([N-]C(=O)CNCc2ccccc2)c1 (3D coordinates assigned)
[NH-]S(=O)(=O)c1cccc([N-]C(=O)CNCc2ccccc2)c1 (optimized conformer: 38.77266548011037 kcal/mol)

>  <smiles>  (60) 
NS(=O)(=O)c1cccc(NC(=O)CNCc2ccccc2)c1

>  <score_type>  (60) 
oracle

>  <origin>  (60) 
adg

>  <m_score__min__energy>  (60) 
-12.09

>  <m_primary>  (60) 
energy

$$$$
60:0
     RDKit          3D

 42 44  0  0  0  0  0  0  0  0999 V2000
   57.3890   25.2310   44.6940 C   0  0  0  0  0  0  0  0  0  0  0  0
   56.4330   25.9130   46.0310 S   0  0  0  0  0  0  0  0  0  0  0  0
   57.3060   26.0030   47.2500 O   0  0  0  0  0  0  0  0  0  0  0  0
   55.2600   25.0260   46.3420 O   0  0  0  0  0  0  0  0  0  0  0  0
   55.8810   27.5060   45.6220 N   0  0  0  0  0  0  0  0  0  0  0  0
   56.7170   28.6310   45.3170 C   0  0  0  0  0  0  0  0  0  0  0  0
   56.1960   29.6540   44.5170 C   0  0  0  0  0  0  0  0  0  0  0  0
   56.9770   30.7640   44.1890 C   0  0  0  0  0  0  0  0  0  0  0  0
   58.2870   30.8640   44.6630 C   0  0  0  0  0  0  0  0  0  0  0  0
   58.8240   29.8560   45.4790 C   0  0  0  0  0  0  0  0  0  0  0  0
   60.2150   29.9660   45.9800 C   0  0  0  0  0  0  0  0  0  0  0  0
   61.1360   29.3360   45.3960 O   0  0  0  0  0  0  0  0  0  0  0  0
   60.5420   30.7310   47.1490 N   0  0  0  0  0  0  0  0  0  0  0  0
   61.5200   31.7810   47.2230 C   0  0  0  0  0  0  0  0  0  0  0  0
   62.8360   31.5060   47.6360 C   0  0  0  0  0  0  0  0  0  0  0  0
   63.7690   32.5360   47.7670 C   0  0  0  0  0  0  0  0  0  0  0  0
   63.3950   33.8540   47.5050 C   0  0  0  0  0  0  0  0  0  0  0  0
   62.0890   34.1450   47.1100 C   0  0  0  0  0  0  0  0  0  0  0  0
   61.1400   33.1180   46.9630 C   0  0  0  0  0  0  0  0  0  0  0  0
   59.7680   33.4590   46.5170 C   0  0  0  0  0  0  0  0  0  0  0  0
   58.6540   33.1240   47.3070 C   0  0  0  0  0  0  0  0  0  0  0  0
   57.3620   33.4370   46.8740 C   0  0  0  0  0  0  0  0  0  0  0  0
   57.1690   34.0790   45.6480 C   0  0  0  0  0  0  0  0  0  0  0  0
   58.2700   34.4070   44.8520 C   0  0  0  0  0  0  0  0  0  0  0  0
   59.5640   34.0970   45.2810 C   0  0  0  0  0  0  0  0  0  0  0  0
   58.0380   28.7320   45.7880 C   0  0  0  0  0  0  0  0  0  0  0  0
   58.2203   24.6380   45.1029 H   0  0  0  0  0  0  0  0  0  0  0  0
   56.7472   24.5856   44.0763 H   0  0  0  0  0  0  0  0  0  0  0  0
   57.7904   26.0479   44.0763 H   0  0  0  0  0  0  0  0  0  0  0  0
   55.1637   29.5832   44.1438 H   0  0  0  0  0  0  0  0  0  0  0  0
   56.5598   31.5611   43.5561 H   0  0  0  0  0  0  0  0  0  0  0  0
   58.9008   31.7368   44.3956 H   0  0  0  0  0  0  0  0  0  0  0  0
   63.1326   30.4702   47.8577 H   0  0  0  0  0  0  0  0  0  0  0  0
   64.7995   32.3082   48.0770 H   0  0  0  0  0  0  0  0  0  0  0  0
   64.1307   34.6650   47.6100 H   0  0  0  0  0  0  0  0  0  0  0  0
   61.7991   35.1874   46.9118 H   0  0  0  0  0  0  0  0  0  0  0  0
   58.7998   32.6132   48.2703 H   0  0  0  0  0  0  0  0  0  0  0  0
   56.4955   33.1773   47.4999 H   0  0  0  0  0  0  0  0  0  0  0  0
   56.1518   34.3259   45.3098 H   0  0  0  0  0  0  0  0  0  0  0  0
   58.1181   34.9102   43.8857 H   0  0  0  0  0  0  0  0  0  0  0  0
   60.4266   34.3535   44.6484 H   0  0  0  0  0  0  0  0  0  0  0  0
   58.4603   27.9243   46.4038 H   0  0  0  0  0  0  0  0  0  0  0  0
  1  2  1  0
  2  3  2  0
  2  4  2  0
  2  5  1  0
  5  6  1  0
  6  7  2  0
  7  8  1  0
  8  9  2  0
  9 10  1  0
 10 11  1  0
 11 12  2  0
 11 13  1  0
 13 14  1  0
 14 15  2  0
 15 16  1  0
 16 17  2  0
 17 18  1  0
 18 19  2  0
 19 20  1  0
 20 21  2  0
 21 22  1  0
 22 23  2  0
 23 24  1  0
 24 25  2  0
 10 26  2  0
 26  6  1  0
 19 14  1  0
 25 20  1  0
  1 27  1  0
  1 28  1  0
  1 29  1  0
  7 30  1  0
  8 31  1  0
  9 32  1  0
 15 33  1  0
 16 34  1  0
 17 35  1  0
 18 36  1  0
 21 37  1  0
 22 38  1  0
 23 39  1  0
 24 40  1  0
 25 41  1  0
 26 42  1  0
M  CHG  2   5  -1  13  -1
M  END
>  <UniqueID>  (61) 
56

>  <SMILES>  (61) 
CS(=O)(=O)[N-]c1cccc(C(=O)[N-]c2ccccc2-c2ccccc2)c1

>  <Energy>  (61) 
54.288750633332505

>  <Genealogy>  (61) 
CS(=O)(=O)[N-]c1cccc(C(=O)[N-]c2ccccc2-c2ccccc2)c1 (protonated)
CS(=O)(=O)[N-]c1cccc(C(=O)[N-]c2ccccc2-c2ccccc2)c1 (3D coordinates assigned)
CS(=O)(=O)[N-]c1cccc(C(=O)[N-]c2ccccc2-c2ccccc2)c1 (optimized conformer: 54.288750633332505 kcal/mol)

>  <smiles>  (61) 
CS(=O)(=O)Nc1cccc(C(=O)Nc2ccccc2-c2ccccc2)c1

>  <score_type>  (61) 
oracle

>  <origin>  (61) 
adg

>  <m_score__min__energy>  (61) 
-12.119999999999999

>  <m_primary>  (61) 
energy

$$$$
61:0
     RDKit          3D

 24 25  0  0  0  0  0  0  0  0999 V2000
   55.5310   25.9960   45.9900 O   0  0  0  0  0  0  0  0  0  0  0  0
   56.3850   26.9200   45.9480 C   0  0  0  0  0  0  0  0  0  0  0  0
   57.6040   26.7390   46.5190 N   0  0  0  0  0  0  0  0  0  0  0  0
   58.5420   27.7180   46.4930 C   0  0  0  0  0  0  0  0  0  0  0  0
   58.2580   28.9440   45.8850 C   0  0  0  0  0  0  0  0  0  0  0  0
   59.2800   30.0070   45.8720 C   0  0  0  0  0  0  0  0  0  0  0  0
   59.1840   31.0950   46.5830 N   0  0  0  0  0  0  0  0  0  0  0  0
   58.0960   32.0740   46.5250 C   0  0  0  0  0  0  0  0  0  0  0  0
   58.6060   33.4160   46.0930 C   0  0  0  0  0  0  0  0  0  0  0  0
   59.4350   34.2510   46.8100 C   0  0  0  0  0  0  0  0  0  0  0  0
   59.6500   35.3430   45.9950 C   0  0  0  0  0  0  0  0  0  0  0  0
   58.9990   35.1900   44.8620 O   0  0  0  0  0  0  0  0  0  0  0  0
   58.3620   34.0410   44.8880 C   0  0  0  0  0  0  0  0  0  0  0  0
   57.0040   29.1040   45.2750 C   0  0  0  0  0  0  0  0  0  0  0  0
   56.7210   30.1720   44.6660 O   0  0  0  0  0  0  0  0  0  0  0  0
   56.0910   28.0950   45.3260 N   0  0  0  0  0  0  0  0  0  0  0  0
   59.5274   27.5470   46.9509 H   0  0  0  0  0  0  0  0  0  0  0  0
   60.1650   29.8754   45.2321 H   0  0  0  0  0  0  0  0  0  0  0  0
   57.3384   31.7283   45.8063 H   0  0  0  0  0  0  0  0  0  0  0  0
   57.6572   32.1715   47.5290 H   0  0  0  0  0  0  0  0  0  0  0  0
   59.8397   34.0825   47.8189 H   0  0  0  0  0  0  0  0  0  0  0  0
   60.2728   36.2120   46.2538 H   0  0  0  0  0  0  0  0  0  0  0  0
   57.7343   33.6414   44.0779 H   0  0  0  0  0  0  0  0  0  0  0  0
   55.1550   28.2220   44.8780 H   0  0  0  0  0  0  0  0  0  0  0  0
  1  2  2  0
  2  3  1  0
  3  4  1  0
  4  5  2  0
  5  6  1  0
  6  7  2  3
  7  8  1  0
  8  9  1  0
  9 10  1  0
 10 11  2  0
 11 12  1  0
 12 13  1  0
  5 14  1  0
 14 15  2  0
 14 16  1  0
 16  2  1  0
 13  9  2  0
  4 17  1  0
  6 18  1  0
  8 19  1  0
  8 20  1  0
 10 21  1  0
 11 22  1  0
 13 23  1  0
 16 24  1  0
M  CHG  1   3  -1
M  END
>  <UniqueID>  (62) 
57

>  <SMILES>  (62) 
O=c1[n-]cc(C=NCc2ccoc2)c(=O)[nH]1

>  <Energy>  (62) 
57.54563828199134

>  <Genealogy>  (62) 
O=c1[n-]cc(C=NCc2ccoc2)c(=O)[nH]1 (protonated)
O=c1[n-]cc(C=NCc2ccoc2)c(=O)[nH]1 (3D coordinates assigned)
O=c1[n-]cc(C=NCc2ccoc2)c(=O)[nH]1 (optimized conformer: 57.54563828199134 kcal/mol)

>  <smiles>  (62) 
O=c1[nH]cc(C=NCc2ccoc2)c(=O)[nH]1

>  <score_type>  (62) 
oracle

>  <origin>  (62) 
adg

>  <m_score__min__energy>  (62) 
-7.6600000000000001

>  <m_primary>  (62) 
energy

$$$$
62:0
     RDKit          3D

 39 40  0  0  0  0  0  0  0  0999 V2000
   58.1550   26.8840   43.1160 C   0  0  0  0  0  0  0  0  0  0  0  0
   58.4410   27.8700   44.2100 C   0  0  0  0  0  0  0  0  0  0  0  0
   59.2550   27.5060   45.2910 C   0  0  0  0  0  0  0  0  0  0  0  0
   59.5550   28.4350   46.2980 C   0  0  0  0  0  0  0  0  0  0  0  0
   60.3970   28.0330   47.4720 C   0  0  0  0  0  0  0  0  0  0  0  0
   59.0210   29.7290   46.2260 C   0  0  0  0  0  0  0  0  0  0  0  0
   58.2340   30.1200   45.1280 C   0  0  0  0  0  0  0  0  0  0  0  0
   57.7280   31.5100   45.0470 C   0  0  0  0  0  0  0  0  0  0  0  0
   56.4950   31.7030   44.8640 O   0  0  0  0  0  0  0  0  0  0  0  0
   58.6090   32.6330   45.2240 N   0  0  0  0  0  0  0  0  0  0  0  0
   58.1060   33.9930   45.4140 C   0  0  0  0  0  0  0  0  0  0  0  0
   59.2520   34.9450   45.7550 C   0  0  0  0  0  0  0  0  0  0  0  0
   60.3030   34.2430   46.3590 O   0  0  0  0  0  0  0  0  0  0  0  0
   61.3590   33.5390   46.9610 C   0  0  0  0  0  0  0  0  0  0  0  0
   62.6760   33.7880   46.5540 C   0  0  0  0  0  0  0  0  0  0  0  0
   63.7330   33.0740   47.1230 C   0  0  0  0  0  0  0  0  0  0  0  0
   63.4800   32.1170   48.1090 C   0  0  0  0  0  0  0  0  0  0  0  0
   62.1670   31.8730   48.5270 C   0  0  0  0  0  0  0  0  0  0  0  0
   61.1040   32.5830   47.9540 C   0  0  0  0  0  0  0  0  0  0  0  0
   59.4580   32.2530   48.4720 Cl  0  0  0  0  0  0  0  0  0  0  0  0
   57.9490   29.1810   44.1220 C   0  0  0  0  0  0  0  0  0  0  0  0
   57.8744   25.9167   43.5583 H   0  0  0  0  0  0  0  0  0  0  0  0
   57.3278   27.2564   42.4938 H   0  0  0  0  0  0  0  0  0  0  0  0
   59.0530   26.7560   42.4938 H   0  0  0  0  0  0  0  0  0  0  0  0
   59.6612   26.4854   45.3501 H   0  0  0  0  0  0  0  0  0  0  0  0
   59.8702   28.2845   48.4043 H   0  0  0  0  0  0  0  0  0  0  0  0
   60.5823   26.9493   47.4364 H   0  0  0  0  0  0  0  0  0  0  0  0
   61.3562   28.5703   47.4364 H   0  0  0  0  0  0  0  0  0  0  0  0
   59.2195   30.4458   47.0364 H   0  0  0  0  0  0  0  0  0  0  0  0
   59.6140   32.4650   45.4520 H   0  0  0  0  0  0  0  0  0  0  0  0
   57.6180   34.3311   44.4880 H   0  0  0  0  0  0  0  0  0  0  0  0
   57.3848   33.9927   46.2446 H   0  0  0  0  0  0  0  0  0  0  0  0
   59.6160   35.4202   44.8321 H   0  0  0  0  0  0  0  0  0  0  0  0
   58.8851   35.7113   46.4536 H   0  0  0  0  0  0  0  0  0  0  0  0
   62.8782   34.5476   45.7845 H   0  0  0  0  0  0  0  0  0  0  0  0
   64.7653   33.2653   46.7946 H   0  0  0  0  0  0  0  0  0  0  0  0
   64.3130   31.5553   48.5568 H   0  0  0  0  0  0  0  0  0  0  0  0
   61.9693   31.1226   49.3066 H   0  0  0  0  0  0  0  0  0  0  0  0
   57.3351   29.4763   43.2584 H   0  0  0  0  0  0  0  0  0  0  0  0
  1  2  1  0
  2  3  2  0
  3  4  1  0
  4  5  1  0
  4  6  2  0
  6  7  1  0
  7  8  1  0
  8  9  2  0
  8 10  1  0
 10 11  1  0
 11 12  1  0
 12 13  1  0
 13 14  1  0
 14 15  2  0
 15 16  1  0
 16 17  2  0
 17 18  1  0
 18 19  2  0
 19 20  1  0
  7 21  2  0
 21  2  1  0
 19 14  1  0
  1 22  1  0
  1 23  1  0
  1 24  1  0
  3 25  1  0
  5 26  1  0
  5 27  1  0
  5 28  1  0
  6 29  1  0
 10 30  1  0
 11 31  1  0
 11 32  1  0
 12 33  1  0
 12 34  1  0
 15 35  1  0
 16 36  1  0
 17 37  1  0
 18 38  1  0
 21 39  1  0
M  END
>  <UniqueID>  (63) 
58

>  <SMILES>  (63) 
Cc1cc(C)cc(C(=O)NCCOc2ccccc2Cl)c1

>  <Energy>  (63) 
89.21995813540914

>  <Genealogy>  (63) 
Cc1cc(C)cc(C(=O)NCCOc2ccccc2Cl)c1 (3D coordinates assigned)
Cc1cc(C)cc(C(=O)NCCOc2ccccc2Cl)c1 (optimized conformer: 89.21995813540914 kcal/mol)

>  <smiles>  (63) 
Cc1cc(C)cc(C(=O)NCCOc2ccccc2Cl)c1

>  <score_type>  (63) 
oracle

>  <origin>  (63) 
adg

>  <m_score__min__energy>  (63) 
-6.8300000000000001

>  <m_primary>  (63) 
energy

$$$$
63:0
     RDKit          3D

 58 60  0  0  0  0  0  0  0  0999 V2000
   62.7490   30.8750   50.2130 C   0  0  0  0  0  0  0  0  0  0  0  0
   63.5590   32.0250   49.6150 C   0  0  0  0  0  0  0  0  0  0  0  0
   62.8500   32.6720   48.4870 N   0  0  0  0  0  0  0  0  0  0  0  0
   63.6690   32.7730   47.2490 C   0  0  0  0  0  0  0  0  0  0  0  0
   63.4190   34.0310   46.4050 C   0  0  0  0  0  0  0  0  0  0  0  0
   62.2410   33.9540   48.9140 C   0  0  0  0  0  0  0  0  0  0  0  0
   60.7540   34.0500   48.5350 C   0  0  0  0  0  0  0  0  0  0  0  0
   60.2110   32.7130   48.2040 N   0  0  0  0  0  0  0  0  0  0  0  0
   59.6490   31.8930   49.1660 C   0  0  0  0  0  0  0  0  0  0  0  0
   59.1540   30.6220   48.8140 C   0  0  0  0  0  0  0  0  0  0  0  0
   59.2580   30.2110   47.4750 C   0  0  0  0  0  0  0  0  0  0  0  0
   58.6950   28.5970   46.9150 S   0  0  0  0  0  0  0  0  0  0  0  0
   58.2640   29.1270   45.2170 C   0  0  0  0  0  0  0  0  0  0  0  0
   56.7970   29.4160   45.0560 C   0  0  0  0  0  0  0  0  0  0  0  0
   55.9660   28.4900   45.2500 O   0  0  0  0  0  0  0  0  0  0  0  0
   56.3020   30.7400   44.8090 N   0  0  0  0  0  0  0  0  0  0  0  0
   57.0630   31.9530   44.8290 C   0  0  0  0  0  0  0  0  0  0  0  0
   57.8130   32.3060   43.7000 C   0  0  0  0  0  0  0  0  0  0  0  0
   58.5880   33.4700   43.7030 C   0  0  0  0  0  0  0  0  0  0  0  0
   58.6350   34.2760   44.8440 C   0  0  0  0  0  0  0  0  0  0  0  0
   57.9170   33.9130   45.9860 C   0  0  0  0  0  0  0  0  0  0  0  0
   57.9860   34.6790   47.1030 F   0  0  0  0  0  0  0  0  0  0  0  0
   57.1400   32.7500   45.9840 C   0  0  0  0  0  0  0  0  0  0  0  0
   59.8380   31.0320   46.5730 N   0  0  0  0  0  0  0  0  0  0  0  0
   60.3120   32.2550   46.9110 C   0  0  0  0  0  0  0  0  0  0  0  0
   60.8540   32.9570   46.0130 O   0  0  0  0  0  0  0  0  0  0  0  0
   58.6410   29.7070   49.9060 C   0  0  0  0  0  0  0  0  0  0  0  0
   57.7680   30.4550   50.9310 C   0  0  0  0  0  0  0  0  0  0  0  0
   58.2020   31.9110   51.2050 C   0  0  0  0  0  0  0  0  0  0  0  0
   59.5870   32.2520   50.6420 C   0  0  0  0  0  0  0  0  0  0  0  0
   62.7883   30.9309   51.3109 H   0  0  0  0  0  0  0  0  0  0  0  0
   61.7036   30.9504   49.8792 H   0  0  0  0  0  0  0  0  0  0  0  0
   63.1721   29.9161   49.8792 H   0  0  0  0  0  0  0  0  0  0  0  0
   63.7418   32.7759   50.3978 H   0  0  0  0  0  0  0  0  0  0  0  0
   64.5044   31.6131   49.2321 H   0  0  0  0  0  0  0  0  0  0  0  0
   64.7297   32.7629   47.5401 H   0  0  0  0  0  0  0  0  0  0  0  0
   63.3801   31.9186   46.6193 H   0  0  0  0  0  0  0  0  0  0  0  0
   63.2482   34.8906   47.0698 H   0  0  0  0  0  0  0  0  0  0  0  0
   64.2958   34.2269   45.7703 H   0  0  0  0  0  0  0  0  0  0  0  0
   62.5339   33.8768   45.7703 H   0  0  0  0  0  0  0  0  0  0  0  0
   62.3338   34.0429   50.0065 H   0  0  0  0  0  0  0  0  0  0  0  0
   62.7725   34.7669   48.3975 H   0  0  0  0  0  0  0  0  0  0  0  0
   60.1916   34.4684   49.3827 H   0  0  0  0  0  0  0  0  0  0  0  0
   60.6550   34.7001   47.6532 H   0  0  0  0  0  0  0  0  0  0  0  0
   58.8310   30.0388   44.9780 H   0  0  0  0  0  0  0  0  0  0  0  0
   58.5175   28.3013   44.5359 H   0  0  0  0  0  0  0  0  0  0  0  0
   57.7923   31.6645   42.8067 H   0  0  0  0  0  0  0  0  0  0  0  0
   59.1608   33.7514   42.8071 H   0  0  0  0  0  0  0  0  0  0  0  0
   59.2375   35.1963   44.8427 H   0  0  0  0  0  0  0  0  0  0  0  0
   56.5874   32.4582   46.8893 H   0  0  0  0  0  0  0  0  0  0  0  0
   58.0408   28.9083   49.4457 H   0  0  0  0  0  0  0  0  0  0  0  0
   59.5115   29.2976   50.4395 H   0  0  0  0  0  0  0  0  0  0  0  0
   56.7344   30.4702   50.5549 H   0  0  0  0  0  0  0  0  0  0  0  0
   57.8732   29.9143   51.8831 H   0  0  0  0  0  0  0  0  0  0  0  0
   57.4641   32.5864   50.7474 H   0  0  0  0  0  0  0  0  0  0  0  0
   58.2574   32.0324   52.2969 H   0  0  0  0  0  0  0  0  0  0  0  0
   59.7749   33.3290   50.7635 H   0  0  0  0  0  0  0  0  0  0  0  0
   60.3506   31.6772   51.1866 H   0  0  0  0  0  0  0  0  0  0  0  0
  1  2  1  0
  2  3  1  0
  3  4  1  0
  4  5  1  0
  3  6  1  0
  6  7  1  0
  7  8  1  0
  8  9  1  0
  9 10  2  0
 10 11  1  0
 11 12  1  0
 12 13  1  0
 13 14  1  0
 14 15  2  0
 14 16  1  0
 16 17  1  0
 17 18  2  0
 18 19  1  0
 19 20  2  0
 20 21  1  0
 21 22  1  0
 21 23  2  0
 11 24  2  0
 24 25  1  0
 25 26  2  0
 10 27  1  0
 27 28  1  0
 28 29  1  0
 29 30  1  0
 25  8  1  0
 30  9  1  0
 23 17  1  0
  1 31  1  0
  1 32  1  0
  1 33  1  0
  2 34  1  0
  2 35  1  0
  4 36  1  0
  4 37  1  0
  5 38  1  0
  5 39  1  0
  5 40  1  0
  6 41  1  0
  6 42  1  0
  7 43  1  0
  7 44  1  0
 13 45  1  0
 13 46  1  0
 18 47  1  0
 19 48  1  0
 20 49  1  0
 23 50  1  0
 27 51  1  0
 27 52  1  0
 28 53  1  0
 28 54  1  0
 29 55  1  0
 29 56  1  0
 30 57  1  0
 30 58  1  0
M  CHG  1  16  -1
M  END
>  <UniqueID>  (64) 
59

>  <SMILES>  (64) 
CCN(CC)CCn1c2c(c(SCC(=O)[N-]c3cccc(F)c3)nc1=O)CCCC2

>  <Energy>  (64) 
74.20869883178626

>  <Genealogy>  (64) 
CCN(CC)CCn1c2c(c(SCC(=O)[N-]c3cccc(F)c3)nc1=O)CCCC2 (protonated)
CCN(CC)CCn1c2c(c(SCC(=O)[N-]c3cccc(F)c3)nc1=O)CCCC2 (3D coordinates assigned)
CCN(CC)CCn1c2c(c(SCC(=O)[N-]c3cccc(F)c3)nc1=O)CCCC2 (nonaromatic ring conformer: 74.20869883178626 kcal/mol)

>  <smiles>  (64) 
CCN(CC)CCn1c2c(c(SCC(=O)Nc3cccc(F)c3)nc1=O)CCCC2

>  <score_type>  (64) 
oracle

>  <origin>  (64) 
adg

>  <m_score__min__energy>  (64) 
-10.99

>  <m_primary>  (64) 
energy

$$$$
64:0
     RDKit          3D

 58 61  0  0  0  0  0  0  0  0999 V2000
   55.6760   24.9440   45.8620 C   0  0  0  0  0  0  0  0  0  0  0  0
   55.1980   26.3160   45.9860 N   0  0  0  0  0  0  0  0  0  0  0  0
   56.4940   27.4200   45.6400 S   0  0  0  0  0  0  0  0  0  0  0  0
   57.3450   26.8520   44.5400 O   0  0  0  0  0  0  0  0  0  0  0  0
   57.3460   27.5940   46.8660 O   0  0  0  0  0  0  0  0  0  0  0  0
   55.8590   28.9720   45.1700 N   0  0  0  0  0  0  0  0  0  0  0  0
   56.3610   29.3780   43.8550 C   0  0  0  0  0  0  0  0  0  0  0  0
   57.1450   30.6600   43.9450 C   0  0  0  0  0  0  0  0  0  0  0  0
   57.3040   31.4780   42.8160 C   0  0  0  0  0  0  0  0  0  0  0  0
   58.0070   32.6790   42.9120 C   0  0  0  0  0  0  0  0  0  0  0  0
   58.5490   33.0810   44.1350 C   0  0  0  0  0  0  0  0  0  0  0  0
   58.3870   32.2820   45.2810 C   0  0  0  0  0  0  0  0  0  0  0  0
   58.9420   32.6770   46.5490 N   0  0  0  0  0  0  0  0  0  0  0  0
   59.3720   31.7740   47.4320 N   0  0  0  0  0  0  0  0  0  0  0  0
   59.8520   32.3270   48.5700 C   0  0  0  0  0  0  0  0  0  0  0  0
   60.3180   31.5240   49.7410 C   0  0  0  0  0  0  0  0  0  0  0  0
   59.1450   31.1680   50.6150 C   0  0  0  0  0  0  0  0  0  0  0  0
   59.0180   29.8700   51.1320 C   0  0  0  0  0  0  0  0  0  0  0  0
   57.9070   29.5230   51.9060 C   0  0  0  0  0  0  0  0  0  0  0  0
   56.8980   30.4690   52.1650 C   0  0  0  0  0  0  0  0  0  0  0  0
   55.7510   30.1380   52.9690 N   0  0  0  0  0  0  0  0  0  0  0  0
   54.4110   30.1270   52.4570 C   0  0  0  0  0  0  0  0  0  0  0  0
   53.9620   31.2210   51.6980 C   0  0  0  0  0  0  0  0  0  0  0  0
   52.6700   31.2360   51.1710 C   0  0  0  0  0  0  0  0  0  0  0  0
   51.8140   30.1600   51.3930 C   0  0  0  0  0  0  0  0  0  0  0  0
   52.2430   29.0660   52.1480 C   0  0  0  0  0  0  0  0  0  0  0  0
   53.5420   29.0320   52.6920 C   0  0  0  0  0  0  0  0  0  0  0  0
   53.9680   27.8460   53.4770 C   0  0  0  0  0  0  0  0  0  0  0  0
   53.4220   26.5530   53.2080 N   0  0  0  0  0  0  0  0  0  0  0  0
   54.8170   27.9680   54.4010 O   0  0  0  0  0  0  0  0  0  0  0  0
   57.0310   31.7660   51.6510 C   0  0  0  0  0  0  0  0  0  0  0  0
   58.1390   32.1110   50.8710 C   0  0  0  0  0  0  0  0  0  0  0  0
   59.7190   34.0090   48.5460 S   0  0  0  0  0  0  0  0  0  0  0  0
   59.0510   33.9520   47.0040 C   0  0  0  0  0  0  0  0  0  0  0  0
   58.6560   34.9670   46.3720 O   0  0  0  0  0  0  0  0  0  0  0  0
   57.6980   31.0610   45.1700 C   0  0  0  0  0  0  0  0  0  0  0  0
   55.8252   24.5157   46.8642 H   0  0  0  0  0  0  0  0  0  0  0  0
   54.9335   24.3452   45.3142 H   0  0  0  0  0  0  0  0  0  0  0  0
   56.6298   24.9361   45.3142 H   0  0  0  0  0  0  0  0  0  0  0  0
   57.0131   28.5854   43.4592 H   0  0  0  0  0  0  0  0  0  0  0  0
   55.5012   29.5409   43.1885 H   0  0  0  0  0  0  0  0  0  0  0  0
   56.8727   31.1710   41.8518 H   0  0  0  0  0  0  0  0  0  0  0  0
   58.1350   33.3118   42.0214 H   0  0  0  0  0  0  0  0  0  0  0  0
   59.1055   34.0275   44.2021 H   0  0  0  0  0  0  0  0  0  0  0  0
   60.7997   30.6021   49.3831 H   0  0  0  0  0  0  0  0  0  0  0  0
   61.0384   32.1166   50.3239 H   0  0  0  0  0  0  0  0  0  0  0  0
   59.7972   29.1211   50.9271 H   0  0  0  0  0  0  0  0  0  0  0  0
   57.8210   28.5054   52.3147 H   0  0  0  0  0  0  0  0  0  0  0  0
   55.8800   30.0100   53.9980 H   0  0  0  0  0  0  0  0  0  0  0  0
   54.6345   32.0726   51.5178 H   0  0  0  0  0  0  0  0  0  0  0  0
   52.3274   32.0981   50.5799 H   0  0  0  0  0  0  0  0  0  0  0  0
   50.7975   30.1718   50.9727 H   0  0  0  0  0  0  0  0  0  0  0  0
   51.5591   28.2218   52.3197 H   0  0  0  0  0  0  0  0  0  0  0  0
   53.6820   25.7390   53.8090 H   0  0  0  0  0  0  0  0  0  0  0  0
   52.8040   26.3840   52.3840 H   0  0  0  0  0  0  0  0  0  0  0  0
   56.2574   32.5188   51.8629 H   0  0  0  0  0  0  0  0  0  0  0  0
   58.2220   33.1265   50.4564 H   0  0  0  0  0  0  0  0  0  0  0  0
   57.5917   30.4138   46.0531 H   0  0  0  0  0  0  0  0  0  0  0  0
  1  2  1  0
  2  3  1  0
  3  4  2  0
  3  5  2  0
  3  6  1  0
  6  7  1  0
  7  8  1  0
  8  9  2  0
  9 10  1  0
 10 11  2  0
 11 12  1  0
 12 13  1  0
 13 14  1  0
 14 15  2  0
 15 16  1  0
 16 17  1  0
 17 18  2  0
 18 19  1  0
 19 20  2  0
 20 21  1  0
 21 22  1  0
 22 23  2  0
 23 24  1  0
 24 25  2  0
 25 26  1  0
 26 27  2  0
 27 28  1  0
 28 29  1  0
 28 30  2  0
 20 31  1  0
 31 32  2  0
 15 33  1  0
 33 34  1  0
 34 35  2  0
 12 36  2  0
 36  8  1  0
 34 13  1  0
 32 17  1  0
 27 22  1  0
  1 37  1  0
  1 38  1  0
  1 39  1  0
  7 40  1  0
  7 41  1  0
  9 42  1  0
 10 43  1  0
 11 44  1  0
 16 45  1  0
 16 46  1  0
 18 47  1  0
 19 48  1  0
 21 49  1  0
 23 50  1  0
 24 51  1  0
 25 52  1  0
 26 53  1  0
 29 54  1  0
 29 55  1  0
 31 56  1  0
 32 57  1  0
 36 58  1  0
M  CHG  2   2  -1   6  -1
M  END
>  <UniqueID>  (65) 
60

>  <SMILES>  (65) 
C[N-]S(=O)(=O)[N-]Cc1cccc(-n2nc(Cc3ccc(Nc4ccccc4C(N)=O)cc3)sc2=O)c1

>  <Energy>  (65) 
103.1456804648001

>  <Genealogy>  (65) 
C[N-]S(=O)(=O)[N-]Cc1cccc(-n2nc(Cc3ccc(Nc4ccccc4C(N)=O)cc3)sc2=O)c1 (protonated)
C[N-]S(=O)(=O)[N-]Cc1cccc(-n2nc(Cc3ccc(Nc4ccccc4C(N)=O)cc3)sc2=O)c1 (3D coordinates assigned)
C[N-]S(=O)(=O)[N-]Cc1cccc(-n2nc(Cc3ccc(Nc4ccccc4C(N)=O)cc3)sc2=O)c1 (optimized conformer: 103.1456804648001 kcal/mol)

>  <smiles>  (65) 
CNS(=O)(=O)NCc1cccc(-n2nc(Cc3ccc(Nc4ccccc4C(N)=O)cc3)sc2=O)c1

>  <score_type>  (65) 
oracle

>  <origin>  (65) 
adg

>  <m_score__min__energy>  (65) 
-15.44

>  <m_primary>  (65) 
energy

$$$$
65:0
     RDKit          3D

 43 45  0  0  0  0  0  0  0  0999 V2000
   64.0290   33.5810   49.4200 C   0  0  0  0  0  0  0  0  0  0  0  0
   62.9020   32.6340   48.4240 S   0  0  0  0  0  0  0  0  0  0  0  0
   63.3550   32.6890   46.9920 O   0  0  0  0  0  0  0  0  0  0  0  0
   62.8860   31.2070   48.9030 O   0  0  0  0  0  0  0  0  0  0  0  0
   61.3180   33.3230   48.5670 N   0  0  0  0  0  0  0  0  0  0  0  0
   60.3370   33.3750   47.5200 C   0  0  0  0  0  0  0  0  0  0  0  0
   59.5750   34.5320   47.2780 C   0  0  0  0  0  0  0  0  0  0  0  0
   58.6350   34.5530   46.2440 C   0  0  0  0  0  0  0  0  0  0  0  0
   58.4330   33.4190   45.4580 C   0  0  0  0  0  0  0  0  0  0  0  0
   59.1630   32.2510   45.6990 C   0  0  0  0  0  0  0  0  0  0  0  0
   58.9100   31.0980   44.8820 N   0  0  0  0  0  0  0  0  0  0  0  0
   57.8140   30.3900   44.8640 C   0  0  0  0  0  0  0  0  0  0  0  0
   56.6590   30.8020   44.1690 C   0  0  0  0  0  0  0  0  0  0  0  0
   55.5180   29.9990   44.1970 C   0  0  0  0  0  0  0  0  0  0  0  0
   55.5270   28.8260   44.8810 N   0  0  0  0  0  0  0  0  0  0  0  0
   56.6250   28.3970   45.5590 C   0  0  0  0  0  0  0  0  0  0  0  0
   56.6180   27.1420   46.2520 N   0  0  0  0  0  0  0  0  0  0  0  0
   55.8920   25.9640   45.8730 C   0  0  0  0  0  0  0  0  0  0  0  0
   54.6360   25.9790   45.9680 O   0  0  0  0  0  0  0  0  0  0  0  0
   56.5970   24.7100   45.3920 C   0  0  0  0  0  0  0  0  0  0  0  0
   55.7010   23.6970   44.6720 C   0  0  0  0  0  0  0  0  0  0  0  0
   56.5070   23.8840   43.3950 C   0  0  0  0  0  0  0  0  0  0  0  0
   57.3850   24.9110   44.0950 C   0  0  0  0  0  0  0  0  0  0  0  0
   57.7930   29.1660   45.5450 C   0  0  0  0  0  0  0  0  0  0  0  0
   60.1500   32.2410   46.7130 C   0  0  0  0  0  0  0  0  0  0  0  0
   60.9590   31.1220   46.9270 O   0  0  0  0  0  0  0  0  0  0  0  0
   63.8166   33.4025   50.4844 H   0  0  0  0  0  0  0  0  0  0  0  0
   65.0618   33.2757   49.1960 H   0  0  0  0  0  0  0  0  0  0  0  0
   63.9062   34.6509   49.1960 H   0  0  0  0  0  0  0  0  0  0  0  0
   59.7194   35.4241   47.9051 H   0  0  0  0  0  0  0  0  0  0  0  0
   58.0532   35.4661   46.0497 H   0  0  0  0  0  0  0  0  0  0  0  0
   57.6946   33.4435   44.6431 H   0  0  0  0  0  0  0  0  0  0  0  0
   56.6570   31.7488   43.6091 H   0  0  0  0  0  0  0  0  0  0  0  0
   54.6097   30.3168   43.6640 H   0  0  0  0  0  0  0  0  0  0  0  0
   57.0989   24.4315   46.3304 H   0  0  0  0  0  0  0  0  0  0  0  0
   55.7499   22.6799   45.0881 H   0  0  0  0  0  0  0  0  0  0  0  0
   54.6090   23.8294   44.6635 H   0  0  0  0  0  0  0  0  0  0  0  0
   57.0452   22.9820   43.0682 H   0  0  0  0  0  0  0  0  0  0  0  0
   56.0016   24.1364   42.4511 H   0  0  0  0  0  0  0  0  0  0  0  0
   58.4441   24.6221   44.1647 H   0  0  0  0  0  0  0  0  0  0  0  0
   57.5065   25.9184   43.6703 H   0  0  0  0  0  0  0  0  0  0  0  0
   58.6933   28.8105   46.0676 H   0  0  0  0  0  0  0  0  0  0  0  0
   61.8400   31.1710   47.4210 H   0  0  0  0  0  0  0  0  0  0  0  0
  1  2  1  0
  2  3  2  0
  2  4  2  0
  2  5  1  0
  5  6  1  0
  6  7  2  0
  7  8  1  0
  8  9  2  0
  9 10  1  0
 10 11  1  0
 11 12  2  3
 12 13  1  0
 13 14  2  0
 14 15  1  0
 15 16  1  0
 16 17  1  0
 17 18  1  0
 18 19  2  0
 18 20  1  0
 20 21  1  0
 21 22  1  0
 22 23  1  0
 16 24  2  0
 10 25  2  0
 25 26  1  0
 25  6  1  0
 24 12  1  0
 23 20  1  0
  1 27  1  0
  1 28  1  0
  1 29  1  0
  7 30  1  0
  8 31  1  0
  9 32  1  0
 13 33  1  0
 14 34  1  0
 20 35  1  0
 21 36  1  0
 21 37  1  0
 22 38  1  0
 22 39  1  0
 23 40  1  0
 23 41  1  0
 24 42  1  0
 26 43  1  0
M  CHG  3   5  -1  15  -1  17  -1
M  END
>  <UniqueID>  (66) 
61

>  <SMILES>  (66) 
CS(=O)(=O)[N-]c1cccc(N=c2cc[n-]c([N-]C(=O)C3CCC3)c2)c1O

>  <Energy>  (66) 
117.37395160609721

>  <Genealogy>  (66) 
CS(=O)(=O)[N-]c1cccc(N=c2cc[n-]c([N-]C(=O)C3CCC3)c2)c1O (protonated)
CS(=O)(=O)[N-]c1cccc(N=c2cc[n-]c([N-]C(=O)C3CCC3)c2)c1O (3D coordinates assigned)
CS(=O)(=O)[N-]c1cccc(N=c2cc[n-]c([N-]C(=O)C3CCC3)c2)c1O (nonaromatic ring conformer: 117.37395160609721 kcal/mol)

>  <smiles>  (66) 
CS(=O)(=O)Nc1cccc(N=c2cc[nH]c(NC(=O)C3CCC3)c2)c1O

>  <score_type>  (66) 
oracle

>  <origin>  (66) 
adg

>  <m_score__min__energy>  (66) 
-13.130000000000001

>  <m_primary>  (66) 
energy

$$$$
66:0
     RDKit          3D

 34 36  0  0  0  0  0  0  0  0999 V2000
   58.2062   32.5810   43.1083 H   0  0  0  0  0  0  0  0  0  0  0  0
   58.1910   32.2690   44.1630 C   0  0  0  0  0  0  0  0  0  0  0  0
   58.8190   33.0420   45.0570 C   0  0  0  0  0  0  0  0  0  0  0  0
   58.6630   34.4180   45.1980 O   0  0  0  0  0  0  0  0  0  0  0  0
   59.5190   34.8150   46.2230 C   0  0  0  0  0  0  0  0  0  0  0  0
   59.6540   36.0150   46.5790 O   0  0  0  0  0  0  0  0  0  0  0  0
   60.2590   33.7280   46.7850 N   0  0  0  0  0  0  0  0  0  0  0  0
   61.2280   33.7600   47.8480 C   0  0  0  0  0  0  0  0  0  0  0  0
   62.5810   33.4910   47.5850 C   0  0  0  0  0  0  0  0  0  0  0  0
   62.9016   33.2535   46.5599 H   0  0  0  0  0  0  0  0  0  0  0  0
   63.5230   33.5230   48.6170 C   0  0  0  0  0  0  0  0  0  0  0  0
   64.5820   33.3216   48.3980 H   0  0  0  0  0  0  0  0  0  0  0  0
   63.1240   33.8110   49.9320 C   0  0  0  0  0  0  0  0  0  0  0  0
   64.1410   33.8840   51.0320 C   0  0  0  0  0  0  0  0  0  0  0  0
   63.6310   33.8474   52.0059 H   0  0  0  0  0  0  0  0  0  0  0  0
   64.8332   33.0332   50.9484 H   0  0  0  0  0  0  0  0  0  0  0  0
   64.7046   34.8249   50.9484 H   0  0  0  0  0  0  0  0  0  0  0  0
   61.7760   34.0960   50.1940 C   0  0  0  0  0  0  0  0  0  0  0  0
   61.4578   34.3443   51.2173 H   0  0  0  0  0  0  0  0  0  0  0  0
   60.8350   34.0660   49.1610 C   0  0  0  0  0  0  0  0  0  0  0  0
   59.7788   34.2837   49.3781 H   0  0  0  0  0  0  0  0  0  0  0  0
   59.8080   32.6030   46.0350 C   0  0  0  0  0  0  0  0  0  0  0  0
   60.1790   31.4150   46.2320 O   0  0  0  0  0  0  0  0  0  0  0  0
   57.4770   31.0190   44.5090 C   0  0  0  0  0  0  0  0  0  0  0  0
   56.1240   30.8130   44.1790 C   0  0  0  0  0  0  0  0  0  0  0  0
   55.5695   31.5898   43.6321 H   0  0  0  0  0  0  0  0  0  0  0  0
   55.4820   29.6260   44.5430 C   0  0  0  0  0  0  0  0  0  0  0  0
   54.4280   29.4675   44.2711 H   0  0  0  0  0  0  0  0  0  0  0  0
   56.1740   28.6400   45.2510 C   0  0  0  0  0  0  0  0  0  0  0  0
   55.5240   27.4630   45.6050 O   0  0  0  0  0  0  0  0  0  0  0  0
   57.5140   28.8440   45.6030 C   0  0  0  0  0  0  0  0  0  0  0  0
   58.4790   27.5130   46.5830 Br  0  0  0  0  0  0  0  0  0  0  0  0
   58.1580   30.0330   45.2400 C   0  0  0  0  0  0  0  0  0  0  0  0
   59.2065   30.1959   45.5301 H   0  0  0  0  0  0  0  0  0  0  0  0
  1  2  1  0
  2  3  2  0
  3  4  1  0
  4  5  1  0
  5  6  2  0
  5  7  1  0
  7  8  1  0
  8  9  2  0
  9 10  1  0
  9 11  1  0
 11 12  1  0
 11 13  2  0
 13 14  1  0
 14 15  1  0
 14 16  1  0
 14 17  1  0
 13 18  1  0
 18 19  1  0
 18 20  2  0
 20 21  1  0
  7 22  1  0
 22 23  2  0
  2 24  1  0
 24 25  2  0
 25 26  1  0
 25 27  1  0
 27 28  1  0
 27 29  2  0
 29 30  1  0
 29 31  1  0
 31 32  1  0
 31 33  2  0
 33 34  1  0
 22  3  1  0
 33 24  1  0
 20  8  1  0
M  CHG  1  30  -1
M  END
>  <UniqueID>  (67) 
62

>  <SMILES>  (67) 
Cc1ccc(N2C(=O)O/C(=C\c3ccc([O-])c(Br)c3)C2=O)cc1

>  <Energy>  (67) 
73.80898227926356

>  <Genealogy>  (67) 
Cc1ccc(N2C(=O)OC(=Cc3ccc([O-])c(Br)c3)C2=O)cc1 (protonated)
Cc1ccc(N2C(=O)O/C(=C\c3ccc([O-])c(Br)c3)C2=O)cc1 (cis-trans isomerization)
Cc1ccc(N2C(=O)O/C(=C\c3ccc([O-])c(Br)c3)C2=O)cc1 (3D coordinates assigned)
Cc1ccc(N2C(=O)O/C(=C\c3ccc([O-])c(Br)c3)C2=O)cc1 (nonaromatic ring conformer: 73.80898227926356 kcal/mol)

>  <smiles>  (67) 
Cc1ccc(N2C(=O)OC(=Cc3ccc(O)c(Br)c3)C2=O)cc1

>  <score_type>  (67) 
oracle

>  <origin>  (67) 
adg

>  <m_score__min__energy>  (67) 
-11.25

>  <m_primary>  (67) 
energy

$$$$
68:0
     RDKit          3D

 57 59  0  0  1  0  0  0  0  0999 V2000
   54.7790   22.5980   46.4360 C   0  0  0  0  0  0  0  0  0  0  0  0
   54.4190   23.7700   45.9320 C   0  0  0  0  0  0  0  0  0  0  0  0
   55.4620   24.7530   45.7140 C   0  0  0  0  0  0  0  0  0  0  0  0
   55.2330   25.9570   45.9960 O   0  0  0  0  0  0  0  0  0  0  0  0
   56.7440   24.3670   45.1830 N   0  0  0  0  0  0  0  0  0  0  0  0
   57.6810   25.4360   45.0190 C   0  0  0  0  0  0  0  0  0  0  0  0
   57.7840   26.1140   43.8020 C   0  0  0  0  0  0  0  0  0  0  0  0
   58.7170   27.1480   43.7080 C   0  0  0  0  0  0  0  0  0  0  0  0
   60.8100   32.3340   47.8780 C   0  0  0  0  0  0  0  0  0  0  0  0
   59.5340   32.3430   47.3940 C   0  0  0  0  0  0  0  0  0  0  0  0
   60.1960   27.1160   47.1400 N   0  0  0  0  0  0  0  0  0  0  0  0
   59.9190   28.0650   47.9630 C   0  0  0  0  0  0  0  0  0  0  0  0
   60.1310   27.8980   49.2800 N   0  0  0  0  0  0  0  0  0  0  0  0
   59.8360   28.8970   50.1290 C   0  0  0  0  0  0  0  0  0  0  0  0
   59.3130   30.1090   49.6770 C   0  0  0  0  0  0  0  0  0  0  0  0
   59.1030   30.2610   48.3150 C   0  0  0  0  0  0  0  0  0  0  0  0
   58.6260   31.3740   47.9170 N   0  0  0  0  0  0  0  0  0  0  0  0
   59.4090   26.8150   45.9940 C   0  0  0  0  0  0  0  0  0  0  0  0
   59.5080   27.4790   44.7990 C   0  0  0  0  0  0  0  0  0  0  0  0
   61.7470   33.2460   47.4170 C   0  0  0  0  0  0  0  0  0  0  0  0
   61.3390   34.1500   46.4660 C   0  0  0  0  0  0  0  0  0  0  0  0
   60.0300   34.1500   45.9790 C   0  0  0  0  0  0  0  0  0  0  0  0
   59.0980   33.2550   46.4250 C   0  0  0  0  0  0  0  0  0  0  0  0
   57.4450   33.1670   45.9390 S   0  0  0  0  0  0  0  0  0  0  0  0
   57.1170   34.2010   44.8770 O   0  0  0  0  0  0  0  0  0  0  0  0
   56.5050   33.4880   47.0920 O   0  0  0  0  0  0  0  0  0  0  0  0
   57.0340   31.6330   45.3380 N   0  0  0  0  0  0  0  0  0  0  0  0
   57.7230   31.2140   44.1550 C   0  0  0  0  0  0  0  0  0  0  0  0
   56.9170   30.1380   43.4190 C   0  0  0  0  0  0  0  0  0  0  0  0
   56.4500   29.1330   44.4680 C   0  0  0  0  0  0  0  0  0  0  0  0
   55.1910   29.5270   44.9730 O   0  0  0  0  0  0  0  0  0  0  0  0
   59.4160   29.2300   47.5210 N   0  0  0  0  0  0  0  0  0  0  0  0
   58.4770   25.7770   46.1000 C   0  0  0  0  0  0  0  0  0  0  0  0
   54.0214   21.8216   46.6183 H   0  0  0  0  0  0  0  0  0  0  0  0
   55.8353   22.4019   46.6720 H   0  0  0  0  0  0  0  0  0  0  0  0
   53.3688   23.9884   45.6884 H   0  0  0  0  0  0  0  0  0  0  0  0
   56.9620   23.3760   44.9400 H   0  0  0  0  0  0  0  0  0  0  0  0
   57.1502   25.8418   42.9452 H   0  0  0  0  0  0  0  0  0  0  0  0
   58.8257   27.7031   42.7646 H   0  0  0  0  0  0  0  0  0  0  0  0
   61.0978   31.5960   48.6412 H   0  0  0  0  0  0  0  0  0  0  0  0
   60.5140   27.0090   49.6240 H   0  0  0  0  0  0  0  0  0  0  0  0
   60.0110   28.7559   51.2058 H   0  0  0  0  0  0  0  0  0  0  0  0
   59.0743   30.9201   50.3806 H   0  0  0  0  0  0  0  0  0  0  0  0
   60.2357   28.2982   44.7020 H   0  0  0  0  0  0  0  0  0  0  0  0
   62.7788   33.2459   47.7984 H   0  0  0  0  0  0  0  0  0  0  0  0
   62.0576   34.8883   46.0806 H   0  0  0  0  0  0  0  0  0  0  0  0
   59.7416   34.8891   45.2171 H   0  0  0  0  0  0  0  0  0  0  0  0
   55.9980   31.5120   45.2500 H   0  0  0  0  0  0  0  0  0  0  0  0
   57.8623   32.0799   43.4910 H   0  0  0  0  0  0  0  0  0  0  0  0
   58.6992   30.7951   44.4405 H   0  0  0  0  0  0  0  0  0  0  0  0
   56.0491   30.5925   42.9188 H   0  0  0  0  0  0  0  0  0  0  0  0
   57.5307   29.6457   42.6503 H   0  0  0  0  0  0  0  0  0  0  0  0
   56.3651   28.1371   44.0088 H   0  0  0  0  0  0  0  0  0  0  0  0
   57.1793   29.0976   45.2908 H   0  0  0  0  0  0  0  0  0  0  0  0
   55.1830   30.4630   45.2630 H   0  0  0  0  0  0  0  0  0  0  0  0
   59.2650   29.3270   46.5060 H   0  0  0  0  0  0  0  0  0  0  0  0
   58.3757   25.2282   47.0479 H   0  0  0  0  0  0  0  0  0  0  0  0
  1  2  2  0
  2  3  1  0
  3  4  2  0
  3  5  1  0
  5  6  1  0
  6  7  2  0
  7  8  1  0
  8  9  2  0
  9 10  1  0
 10 11  1  0
 11 12  2  0
 12 13  1  0
 13 14  1  0
 14 15  2  0
 15 16  1  0
 16 17  2  0
 17 18  1  0
 18 19  2  0
 19 20  1  0
 20 21  2  0
 21 22  1  0
 22 23  2  0
 23 24  1  0
 24 25  2  0
 24 26  2  0
 24 27  1  0
 27 28  1  0
 28 29  1  0
 29 30  1  0
 30 31  1  0
 16 32  1  0
 10 33  2  0
 33  6  1  0
 32 12  1  0
 23 18  1  0
  1 34  1  0
  1 35  1  0
  2 36  1  0
  5 37  1  0
  7 38  1  0
  8 39  1  0
  9 40  1  0
 13 41  1  0
 14 42  1  0
 15 43  1  0
 19 44  1  0
 20 45  1  0
 21 46  1  0
 22 47  1  0
 27 48  1  0
 28 49  1  0
 28 50  1  0
 29 51  1  0
 29 52  1  0
 30 53  1  0
 30 54  1  0
 31 55  1  0
 32 56  1  0
 33 57  1  0
M  END
>  <smiles>  (68) 
C=CC(=O)Nc1cccc(N=c2[nH]ccc(=Nc3ccccc3S(=O)(=O)NCCCO)[nH]2)c1

>  <score_type>  (68) 
oracle

>  <origin>  (68) 
adg

>  <m_score__min__energy>  (68) 
-9.0099999999999998

>  <m_primary>  (68) 
energy

$$$$
69:0
     RDKit          3D

 32 33  0  0  0  0  0  0  0  0999 V2000
   59.2740   35.0010   45.3300 C   0  0  0  0  0  0  0  0  0  0  0  0
   58.9820   33.5590   46.3280 S   0  0  0  0  0  0  0  0  0  0  0  0
   57.9930   33.8860   47.4100 O   0  0  0  0  0  0  0  0  0  0  0  0
   60.2700   33.1210   46.9670 O   0  0  0  0  0  0  0  0  0  0  0  0
   58.3480   32.2660   45.3130 C   0  0  0  0  0  0  0  0  0  0  0  0
   57.9120   32.5420   44.0110 C   0  0  0  0  0  0  0  0  0  0  0  0
   57.3830   31.5210   43.2190 C   0  0  0  0  0  0  0  0  0  0  0  0
   57.2870   30.2210   43.7210 C   0  0  0  0  0  0  0  0  0  0  0  0
   57.7260   29.9240   45.0240 C   0  0  0  0  0  0  0  0  0  0  0  0
   57.6080   28.5400   45.5420 C   0  0  0  0  0  0  0  0  0  0  0  0
   57.8700   28.3200   46.7570 O   0  0  0  0  0  0  0  0  0  0  0  0
   57.2100   27.4540   44.6850 N   0  0  0  0  0  0  0  0  0  0  0  0
   57.0190   26.1050   45.1450 C   0  0  0  0  0  0  0  0  0  0  0  0
   58.0200   25.1310   44.9720 C   0  0  0  0  0  0  0  0  0  0  0  0
   57.8300   23.8290   45.4500 C   0  0  0  0  0  0  0  0  0  0  0  0
   59.0840   22.6220   45.2260 Cl  0  0  0  0  0  0  0  0  0  0  0  0
   56.6490   23.4940   46.1170 C   0  0  0  0  0  0  0  0  0  0  0  0
   55.6590   24.4610   46.3130 C   0  0  0  0  0  0  0  0  0  0  0  0
   55.8430   25.7630   45.8360 C   0  0  0  0  0  0  0  0  0  0  0  0
   54.8470   26.7110   46.0420 O   0  0  0  0  0  0  0  0  0  0  0  0
   58.2450   30.9630   45.8210 C   0  0  0  0  0  0  0  0  0  0  0  0
   59.4498   35.8690   45.9824 H   0  0  0  0  0  0  0  0  0  0  0  0
   60.1567   34.8349   44.6950 H   0  0  0  0  0  0  0  0  0  0  0  0
   58.3962   35.1914   44.6950 H   0  0  0  0  0  0  0  0  0  0  0  0
   57.9864   33.5643   43.6119 H   0  0  0  0  0  0  0  0  0  0  0  0
   57.0409   31.7410   42.1969 H   0  0  0  0  0  0  0  0  0  0  0  0
   56.8647   29.4232   43.0924 H   0  0  0  0  0  0  0  0  0  0  0  0
   57.0860   27.6290   43.6640 H   0  0  0  0  0  0  0  0  0  0  0  0
   58.9565   25.3941   44.4585 H   0  0  0  0  0  0  0  0  0  0  0  0
   56.4983   22.4694   46.4878 H   0  0  0  0  0  0  0  0  0  0  0  0
   54.7324   24.1974   46.8440 H   0  0  0  0  0  0  0  0  0  0  0  0
   58.5720   30.7507   46.8496 H   0  0  0  0  0  0  0  0  0  0  0  0
  1  2  1  0
  2  3  2  0
  2  4  2  0
  2  5  1  0
  5  6  2  0
  6  7  1  0
  7  8  2  0
  8  9  1  0
  9 10  1  0
 10 11  2  0
 10 12  1  0
 12 13  1  0
 13 14  2  0
 14 15  1  0
 15 16  1  0
 15 17  2  0
 17 18  1  0
 18 19  2  0
 19 20  1  0
  9 21  2  0
 21  5  1  0
 19 13  1  0
  1 22  1  0
  1 23  1  0
  1 24  1  0
  6 25  1  0
  7 26  1  0
  8 27  1  0
 12 28  1  0
 14 29  1  0
 17 30  1  0
 18 31  1  0
 21 32  1  0
M  CHG  1  20  -1
M  END
>  <UniqueID>  (69) 
63

>  <SMILES>  (69) 
CS(=O)(=O)c1cccc(C(=O)Nc2cc(Cl)ccc2[O-])c1

>  <Energy>  (69) 
37.27065993807535

>  <Genealogy>  (69) 
CS(=O)(=O)c1cccc(C(=O)Nc2cc(Cl)ccc2[O-])c1 (protonated)
CS(=O)(=O)c1cccc(C(=O)Nc2cc(Cl)ccc2[O-])c1 (3D coordinates assigned)
CS(=O)(=O)c1cccc(C(=O)Nc2cc(Cl)ccc2[O-])c1 (optimized conformer: 37.27065993807535 kcal/mol)

>  <smiles>  (69) 
CS(=O)(=O)c1cccc(C(=O)Nc2cc(Cl)ccc2O)c1

>  <score_type>  (69) 
oracle

>  <origin>  (69) 
adg

>  <m_score__min__energy>  (69) 
-11.720000000000001

>  <m_primary>  (69) 
energy

$$$$
70:0
     RDKit          3D

 45 48  0  0  1  0  0  0  0  0999 V2000
   59.7860   29.0480   47.4700 N   0  0  0  0  0  0  0  0  0  0  0  0
   58.8200   28.4110   46.8890 C   0  0  0  0  0  0  0  0  0  0  0  0
   58.6690   27.0900   47.0960 N   0  0  0  0  0  0  0  0  0  0  0  0
   57.6490   26.4690   46.4680 C   0  0  0  0  0  0  0  0  0  0  0  0
   57.4740   24.7380   46.7580 Cl  0  0  0  0  0  0  0  0  0  0  0  0
   56.7850   27.1530   45.6390 C   0  0  0  0  0  0  0  0  0  0  0  0
   56.9650   28.5120   45.4450 C   0  0  0  0  0  0  0  0  0  0  0  0
   56.1370   29.1150   44.6610 N   0  0  0  0  0  0  0  0  0  0  0  0
   56.5730   29.6730   43.4150 C   0  0  0  0  0  0  0  0  0  0  0  0
   57.1020   31.0740   43.6180 C   0  0  0  0  0  0  0  0  0  0  0  0
   56.9070   31.6030   44.9280 N   0  0  0  0  0  0  0  0  0  0  0  0
   57.8060   32.2050   45.6270 C   0  0  0  0  0  0  0  0  0  0  0  0
   58.4270   31.6780   46.6820 N   0  0  0  0  0  0  0  0  0  0  0  0
   59.3660   32.3370   47.3880 C   0  0  0  0  0  0  0  0  0  0  0  0
   59.7260   33.6170   47.0300 C   0  0  0  0  0  0  0  0  0  0  0  0
   60.7290   34.4360   47.7130 C   0  0  0  0  0  0  0  0  0  0  0  0
   62.1010   33.8860   47.6250 C   0  0  0  0  0  0  0  0  0  0  0  0
   62.8260   33.4760   46.5270 C   0  0  0  0  0  0  0  0  0  0  0  0
   64.0450   33.0400   46.9260 N   0  0  0  0  0  0  0  0  0  0  0  0
   64.1360   33.1590   48.2820 C   0  0  0  0  0  0  0  0  0  0  0  0
   64.9670   32.9490   49.3210 N   0  0  0  0  0  0  0  0  0  0  0  0
   64.2940   33.3420   50.4420 C   0  0  0  0  0  0  0  0  0  0  0  0
   63.0350   33.7970   50.0800 C   0  0  0  0  0  0  0  0  0  0  0  0
   62.9350   33.6810   48.7120 C   0  0  0  0  0  0  0  0  0  0  0  0
   59.0670   34.1530   45.9240 C   0  0  0  0  0  0  0  0  0  0  0  0
   58.1340   33.4540   45.2500 N   0  0  0  0  0  0  0  0  0  0  0  0
   57.9800   29.1030   46.0760 N   0  0  0  0  0  0  0  0  0  0  0  0
   59.7790   30.0910   47.4880 H   0  0  0  0  0  0  0  0  0  0  0  0
   59.3370   26.5710   47.7350 H   0  0  0  0  0  0  0  0  0  0  0  0
   55.9613   26.6243   45.1370 H   0  0  0  0  0  0  0  0  0  0  0  0
   57.3706   29.0423   42.9954 H   0  0  0  0  0  0  0  0  0  0  0  0
   55.7176   29.7126   42.7245 H   0  0  0  0  0  0  0  0  0  0  0  0
   58.1821   31.0655   43.4097 H   0  0  0  0  0  0  0  0  0  0  0  0
   56.5332   31.7218   42.9347 H   0  0  0  0  0  0  0  0  0  0  0  0
   59.8456   31.8523   48.2512 H   0  0  0  0  0  0  0  0  0  0  0  0
   60.7263   35.4387   47.2607 H   0  0  0  0  0  0  0  0  0  0  0  0
   60.4572   34.4580   48.7787 H   0  0  0  0  0  0  0  0  0  0  0  0
   62.4696   33.4992   45.4866 H   0  0  0  0  0  0  0  0  0  0  0  0
   64.8230   32.6660   46.3350 H   0  0  0  0  0  0  0  0  0  0  0  0
   65.9490   32.5620   49.3150 H   0  0  0  0  0  0  0  0  0  0  0  0
   64.6876   33.3038   51.4685 H   0  0  0  0  0  0  0  0  0  0  0  0
   62.2598   34.1797   50.7601 H   0  0  0  0  0  0  0  0  0  0  0  0
   59.3156   35.1724   45.5939 H   0  0  0  0  0  0  0  0  0  0  0  0
   57.6710   33.9060   44.4280 H   0  0  0  0  0  0  0  0  0  0  0  0
   58.1250   30.1210   45.9380 H   0  0  0  0  0  0  0  0  0  0  0  0
  1  2  2  3
  2  3  1  0
  3  4  1  0
  4  5  1  0
  4  6  2  0
  6  7  1  0
  7  8  2  0
  8  9  1  0
  9 10  1  0
 10 11  1  0
 11 12  2  3
 12 13  1  0
 13 14  2  0
 14 15  1  0
 15 16  1  0
 16 17  1  0
 17 18  2  0
 18 19  1  0
 19 20  1  0
 20 21  1  0
 21 22  1  0
 22 23  2  0
 23 24  1  0
 15 25  2  0
 25 26  1  0
  7 27  1  0
 27  2  1  0
 26 12  1  0
 24 17  1  0
 24 20  2  0
  1 28  1  0
  3 29  1  0
  6 30  1  0
  9 31  1  0
  9 32  1  0
 10 33  1  0
 10 34  1  0
 14 35  1  0
 16 36  1  0
 16 37  1  0
 18 38  1  0
 19 39  1  0
 21 40  1  0
 22 41  1  0
 23 42  1  0
 25 43  1  0
 26 44  1  0
 27 45  1  0
M  END
>  <smiles>  (70) 
N=c1[nH]c(Cl)cc(=NCCN=c2ncc(Cc3c[nH]c4[nH]ccc34)c[nH]2)[nH]1

>  <score_type>  (70) 
oracle

>  <origin>  (70) 
adg

>  <m_score__min__energy>  (70) 
-9.3000000000000007

>  <m_primary>  (70) 
energy

$$$$
71:0
     RDKit          3D

 40 42  0  0  0  0  0  0  0  0999 V2000
   58.8696   21.0230   43.0155 H   0  0  0  0  0  0  0  0  0  0  0  0
   58.0850   21.4610   43.6500 C   0  0  0  0  0  0  0  0  0  0  0  0
   56.9610   22.0470   43.0660 C   0  0  0  0  0  0  0  0  0  0  0  0
   56.8611   22.0701   41.9708 H   0  0  0  0  0  0  0  0  0  0  0  0
   55.9630   22.6040   43.8680 C   0  0  0  0  0  0  0  0  0  0  0  0
   55.0828   23.0685   43.3996 H   0  0  0  0  0  0  0  0  0  0  0  0
   56.0740   22.5760   45.2720 C   0  0  0  0  0  0  0  0  0  0  0  0
   55.0030   23.1730   46.1120 C   0  0  0  0  0  0  0  0  0  0  0  0
   53.9510   22.5190   46.3390 O   0  0  0  0  0  0  0  0  0  0  0  0
   55.1730   24.4420   46.7630 N   0  0  0  0  0  0  0  0  0  0  0  0
   55.9740   25.4130   46.4140 C   0  0  0  0  0  0  0  0  0  0  0  0
   55.4260   26.5810   45.9980 N   0  0  0  0  0  0  0  0  0  0  0  0
   56.1720   27.6460   45.6120 C   0  0  0  0  0  0  0  0  0  0  0  0
   55.5240   28.8040   45.1990 O   0  0  0  0  0  0  0  0  0  0  0  0
   57.5810   27.5730   45.6280 C   0  0  0  0  0  0  0  0  0  0  0  0
   58.4080   28.7650   45.1770 C   0  0  0  0  0  0  0  0  0  0  0  0
   59.4085   28.4137   44.8845 H   0  0  0  0  0  0  0  0  0  0  0  0
   57.8910   29.2381   44.3292 H   0  0  0  0  0  0  0  0  0  0  0  0
   58.5530   29.7980   46.2750 C   0  0  0  0  0  0  0  0  0  0  0  0
   59.0880   29.4030   47.5160 C   0  0  0  0  0  0  0  0  0  0  0  0
   59.3823   28.3548   47.6729 H   0  0  0  0  0  0  0  0  0  0  0  0
   59.2490   30.3280   48.5500 C   0  0  0  0  0  0  0  0  0  0  0  0
   59.6582   30.0037   49.5182 H   0  0  0  0  0  0  0  0  0  0  0  0
   58.8920   31.6610   48.3570 C   0  0  0  0  0  0  0  0  0  0  0  0
   59.0124   32.3861   49.1754 H   0  0  0  0  0  0  0  0  0  0  0  0
   58.3820   32.0770   47.1270 C   0  0  0  0  0  0  0  0  0  0  0  0
   58.1089   33.1321   46.9780 H   0  0  0  0  0  0  0  0  0  0  0  0
   58.2150   31.1610   46.0800 C   0  0  0  0  0  0  0  0  0  0  0  0
   57.5910   31.7730   44.5520 Cl  0  0  0  0  0  0  0  0  0  0  0  0
   58.1860   26.3600   46.0420 C   0  0  0  0  0  0  0  0  0  0  0  0
   59.6820   26.1860   46.0600 C   0  0  0  0  0  0  0  0  0  0  0  0
   60.0339   26.1451   47.1014 H   0  0  0  0  0  0  0  0  0  0  0  0
   59.9486   25.2508   45.5459 H   0  0  0  0  0  0  0  0  0  0  0  0
   60.1561   27.0351   45.5459 H   0  0  0  0  0  0  0  0  0  0  0  0
   57.3740   25.2800   46.4210 C   0  0  0  0  0  0  0  0  0  0  0  0
   57.8334   24.3276   46.7241 H   0  0  0  0  0  0  0  0  0  0  0  0
   57.2160   21.9840   45.8530 C   0  0  0  0  0  0  0  0  0  0  0  0
   57.3650   21.9210   47.2350 O   0  0  0  0  0  0  0  0  0  0  0  0
   58.2130   21.4310   45.0390 C   0  0  0  0  0  0  0  0  0  0  0  0
   59.1010   20.9709   45.4971 H   0  0  0  0  0  0  0  0  0  0  0  0
  1  2  1  0
  2  3  2  0
  3  4  1  0
  3  5  1  0
  5  6  1  0
  5  7  2  0
  7  8  1  0
  8  9  2  0
  8 10  1  0
 10 11  2  0
 11 12  1  0
 12 13  1  0
 13 14  1  0
 13 15  2  0
 15 16  1  0
 16 17  1  0
 16 18  1  0
 16 19  1  0
 19 20  2  0
 20 21  1  0
 20 22  1  0
 22 23  1  0
 22 24  2  0
 24 25  1  0
 24 26  1  0
 26 27  1  0
 26 28  2  0
 28 29  1  0
 15 30  1  0
 30 31  1  0
 31 32  1  0
 31 33  1  0
 31 34  1  0
 30 35  2  0
 35 36  1  0
  7 37  1  0
 37 38  1  0
 37 39  2  0
 39 40  1  0
 39  2  1  0
 35 11  1  0
 28 19  1  0
M  CHG  3  12  -1  14  -1  38  -1
M  END
>  <UniqueID>  (71) 
64

>  <SMILES>  (71) 
Cc1c/c(=N\C(=O)c2ccccc2[O-])[n-]c([O-])c1Cc1ccccc1Cl

>  <Energy>  (71) 
58.76199357891844

>  <Genealogy>  (71) 
Cc1cc(=NC(=O)c2ccccc2[O-])[n-]c([O-])c1Cc1ccccc1Cl (protonated)
Cc1c/c(=N\C(=O)c2ccccc2[O-])[n-]c([O-])c1Cc1ccccc1Cl (cis-trans isomerization)
Cc1c/c(=N\C(=O)c2ccccc2[O-])[n-]c([O-])c1Cc1ccccc1Cl (3D coordinates assigned)
Cc1c/c(=N\C(=O)c2ccccc2[O-])[n-]c([O-])c1Cc1ccccc1Cl (optimized conformer: 58.76199357891844 kcal/mol)

>  <smiles>  (71) 
Cc1cc(=NC(=O)c2ccccc2O)[nH]c(O)c1Cc1ccccc1Cl

>  <score_type>  (71) 
oracle

>  <origin>  (71) 
adg

>  <m_score__min__energy>  (71) 
-16.23

>  <m_primary>  (71) 
energy

$$$$
72:0
     RDKit          3D

 36 39  0  0  0  0  0  0  0  0999 V2000
   54.2570   25.9880   45.3290 H   0  0  0  0  0  0  0  0  0  0  0  0
   55.0830   25.8310   45.9480 N   0  0  0  0  0  0  0  0  0  0  0  0
   56.0320   26.7050   46.0320 C   0  0  0  0  0  0  0  0  0  0  0  0
   55.9290   27.9470   45.5210 N   0  0  0  0  0  0  0  0  0  0  0  0
   57.0540   28.6850   45.7370 C   0  0  0  0  0  0  0  0  0  0  0  0
   58.0670   27.9920   46.4240 C   0  0  0  0  0  0  0  0  0  0  0  0
   57.5100   26.4400   46.7780 S   0  0  0  0  0  0  0  0  0  0  0  0
   59.4310   28.4720   46.8090 C   0  0  0  0  0  0  0  0  0  0  0  0
   59.3659   28.9922   47.7760 H   0  0  0  0  0  0  0  0  0  0  0  0
   60.0958   27.5981   46.8751 H   0  0  0  0  0  0  0  0  0  0  0  0
   60.0070   29.4300   45.7700 C   0  0  0  0  0  0  0  0  0  0  0  0
   61.1020   29.4596   45.8700 H   0  0  0  0  0  0  0  0  0  0  0  0
   59.7324   29.0783   44.7646 H   0  0  0  0  0  0  0  0  0  0  0  0
   59.4510   30.8120   45.9770 C   0  0  0  0  0  0  0  0  0  0  0  0
   60.3100   31.8310   46.4280 C   0  0  0  0  0  0  0  0  0  0  0  0
   61.3644   31.5969   46.6366 H   0  0  0  0  0  0  0  0  0  0  0  0
   59.8460   33.1340   46.6150 C   0  0  0  0  0  0  0  0  0  0  0  0
   60.7410   34.1090   47.0780 O   0  0  0  0  0  0  0  0  0  0  0  0
   61.8420   33.8710   47.9150 C   0  0  0  0  0  0  0  0  0  0  0  0
   61.8130   34.1730   49.2900 C   0  0  0  0  0  0  0  0  0  0  0  0
   60.9027   34.5966   49.7393 H   0  0  0  0  0  0  0  0  0  0  0  0
   62.9380   33.9360   50.0860 C   0  0  0  0  0  0  0  0  0  0  0  0
   62.9082   34.1660   51.1613 H   0  0  0  0  0  0  0  0  0  0  0  0
   64.1010   33.4070   49.5170 C   0  0  0  0  0  0  0  0  0  0  0  0
   64.9832   33.2147   50.1453 H   0  0  0  0  0  0  0  0  0  0  0  0
   64.1410   33.1230   48.1490 C   0  0  0  0  0  0  0  0  0  0  0  0
   65.0577   32.7130   47.7001 H   0  0  0  0  0  0  0  0  0  0  0  0
   63.0180   33.3590   47.3500 C   0  0  0  0  0  0  0  0  0  0  0  0
   63.0578   33.1417   46.2724 H   0  0  0  0  0  0  0  0  0  0  0  0
   58.4930   33.4200   46.3810 C   0  0  0  0  0  0  0  0  0  0  0  0
   58.1120   34.4388   46.5452 H   0  0  0  0  0  0  0  0  0  0  0  0
   57.6290   32.4180   45.9410 C   0  0  0  0  0  0  0  0  0  0  0  0
   56.5736   32.6596   45.7465 H   0  0  0  0  0  0  0  0  0  0  0  0
   58.0870   31.1020   45.7420 C   0  0  0  0  0  0  0  0  0  0  0  0
   57.1110   30.0890   45.2610 C   0  0  0  0  0  0  0  0  0  0  0  0
   56.2220   30.4630   44.4480 O   0  0  0  0  0  0  0  0  0  0  0  0
  1  2  1  0
  2  3  2  0
  3  4  1  0
  4  5  1  0
  5  6  2  0
  6  7  1  0
  6  8  1  0
  8  9  1  0
  8 10  1  0
  8 11  1  0
 11 12  1  0
 11 13  1  0
 11 14  1  0
 14 15  2  0
 15 16  1  0
 15 17  1  0
 17 18  1  0
 18 19  1  0
 19 20  2  0
 20 21  1  0
 20 22  1  0
 22 23  1  0
 22 24  2  0
 24 25  1  0
 24 26  1  0
 26 27  1  0
 26 28  2  0
 28 29  1  0
 17 30  2  0
 30 31  1  0
 30 32  1  0
 32 33  1  0
 32 34  2  0
 34 35  1  0
 35 36  2  0
  7  3  1  0
 34 14  1  0
 35  5  1  0
 28 19  1  0
M  CHG  1   4  -1
M  END
>  <UniqueID>  (72) 
65

>  <SMILES>  (72) 
[H]/N=c1/[n-]c2c(s1)CCc1cc(Oc3ccccc3)ccc1C2=O

>  <Energy>  (72) 
86.07888469426668

>  <Genealogy>  (72) 
N=c1[n-]c2c(s1)CCc1cc(Oc3ccccc3)ccc1C2=O (protonated)
[H]/N=c1/[n-]c2c(s1)CCc1cc(Oc3ccccc3)ccc1C2=O (cis-trans isomerization)
[H]/N=c1/[n-]c2c(s1)CCc1cc(Oc3ccccc3)ccc1C2=O (3D coordinates assigned)
[H]/N=c1/[n-]c2c(s1)CCc1cc(Oc3ccccc3)ccc1C2=O (nonaromatic ring conformer: 86.07888469426668 kcal/mol)

>  <smiles>  (72) 
N=c1[nH]c2c(s1)CCc1cc(Oc3ccccc3)ccc1C2=O

>  <score_type>  (72) 
oracle

>  <origin>  (72) 
adg

>  <m_score__min__energy>  (72) 
-9.3399999999999999

>  <m_primary>  (72) 
energy

$$$$
73:0
     RDKit          3D

 47 49  0  0  0  0  0  0  0  0999 V2000
   64.0580   31.2250   47.0680 H   0  0  0  0  0  0  0  0  0  0  0  0
   63.0650   31.0610   47.1820 O   0  0  0  0  0  0  0  0  0  0  0  0
   62.2880   31.8360   48.0440 C   0  0  0  0  0  0  0  0  0  0  0  0
   62.8980   32.8460   48.7980 C   0  0  0  0  0  0  0  0  0  0  0  0
   63.9862   32.9938   48.7347 H   0  0  0  0  0  0  0  0  0  0  0  0
   62.1350   33.6650   49.6280 C   0  0  0  0  0  0  0  0  0  0  0  0
   62.7520   34.6590   50.3770 O   0  0  0  0  0  0  0  0  0  0  0  0
   60.7540   33.4880   49.7080 C   0  0  0  0  0  0  0  0  0  0  0  0
   60.1587   34.1403   50.3638 H   0  0  0  0  0  0  0  0  0  0  0  0
   60.1140   32.4830   48.9580 C   0  0  0  0  0  0  0  0  0  0  0  0
   58.6460   32.2810   49.0860 C   0  0  0  0  0  0  0  0  0  0  0  0
   58.2623   31.7609   49.9761 H   0  0  0  0  0  0  0  0  0  0  0  0
   57.7700   32.7050   48.1640 C   0  0  0  0  0  0  0  0  0  0  0  0
   56.6982   32.6703   48.4091 H   0  0  0  0  0  0  0  0  0  0  0  0
   58.1690   33.2180   46.8320 C   0  0  0  0  0  0  0  0  0  0  0  0
   58.9260   34.3980   46.6750 C   0  0  0  0  0  0  0  0  0  0  0  0
   59.2451   34.9656   47.5616 H   0  0  0  0  0  0  0  0  0  0  0  0
   59.2730   34.8500   45.3970 C   0  0  0  0  0  0  0  0  0  0  0  0
   59.8714   35.7659   45.2828 H   0  0  0  0  0  0  0  0  0  0  0  0
   58.8620   34.1420   44.2670 C   0  0  0  0  0  0  0  0  0  0  0  0
   59.1418   34.4963   43.2639 H   0  0  0  0  0  0  0  0  0  0  0  0
   58.0950   32.9830   44.4100 C   0  0  0  0  0  0  0  0  0  0  0  0
   57.7659   32.4284   43.5189 H   0  0  0  0  0  0  0  0  0  0  0  0
   57.7450   32.5270   45.6860 C   0  0  0  0  0  0  0  0  0  0  0  0
   57.1325   31.6195   45.7918 H   0  0  0  0  0  0  0  0  0  0  0  0
   60.8930   31.6260   48.1380 C   0  0  0  0  0  0  0  0  0  0  0  0
   60.2350   30.5720   47.3250 C   0  0  0  0  0  0  0  0  0  0  0  0
   59.5664   29.8569   47.8266 H   0  0  0  0  0  0  0  0  0  0  0  0
   60.4250   30.4590   46.0030 C   0  0  0  0  0  0  0  0  0  0  0  0
   60.8748   31.3041   45.4613 H   0  0  0  0  0  0  0  0  0  0  0  0
   60.0560   29.2480   45.2430 C   0  0  0  0  0  0  0  0  0  0  0  0
   60.8660   28.8230   44.3740 O   0  0  0  0  0  0  0  0  0  0  0  0
   58.7920   28.5090   45.4660 C   0  0  0  0  0  0  0  0  0  0  0  0
   58.8000   27.2120   46.0070 C   0  0  0  0  0  0  0  0  0  0  0  0
   59.7550   26.7423   46.2852 H   0  0  0  0  0  0  0  0  0  0  0  0
   57.6040   26.5150   46.1940 C   0  0  0  0  0  0  0  0  0  0  0  0
   57.6228   25.5015   46.6212 H   0  0  0  0  0  0  0  0  0  0  0  0
   56.3750   27.1020   45.8390 C   0  0  0  0  0  0  0  0  0  0  0  0
   55.1500   26.4430   46.0200 O   0  0  0  0  0  0  0  0  0  0  0  0
   54.9000   25.0930   45.6440 C   0  0  0  0  0  0  0  0  0  0  0  0
   54.7857   24.4759   46.5474 H   0  0  0  0  0  0  0  0  0  0  0  0
   53.9774   25.0435   45.0470 H   0  0  0  0  0  0  0  0  0  0  0  0
   55.7437   24.7164   45.0470 H   0  0  0  0  0  0  0  0  0  0  0  0
   56.3690   28.3880   45.2800 C   0  0  0  0  0  0  0  0  0  0  0  0
   55.1670   28.9800   44.9120 O   0  0  0  0  0  0  0  0  0  0  0  0
   57.5680   29.0820   45.0870 C   0  0  0  0  0  0  0  0  0  0  0  0
   57.5516   30.0846   44.6347 H   0  0  0  0  0  0  0  0  0  0  0  0
  1  2  1  0
  2  3  1  0
  3  4  2  0
  4  5  1  0
  4  6  1  0
  6  7  1  0
  6  8  2  0
  8  9  1  0
  8 10  1  0
 10 11  1  0
 11 12  1  0
 11 13  2  0
 13 14  1  0
 13 15  1  0
 15 16  2  0
 16 17  1  0
 16 18  1  0
 18 19  1  0
 18 20  2  0
 20 21  1  0
 20 22  1  0
 22 23  1  0
 22 24  2  0
 24 25  1  0
 10 26  2  0
 26 27  1  0
 27 28  1  0
 27 29  2  3
 29 30  1  0
 29 31  1  0
 31 32  2  0
 31 33  1  0
 33 34  2  0
 34 35  1  0
 34 36  1  0
 36 37  1  0
 36 38  2  0
 38 39  1  0
 39 40  1  0
 40 41  1  0
 40 42  1  0
 40 43  1  0
 38 44  1  0
 44 45  1  0
 44 46  2  0
 46 47  1  0
 26  3  1  0
 46 33  1  0
 24 15  1  0
M  CHG  2   7  -1  45  -1
M  END
>  <UniqueID>  (73) 
66

>  <SMILES>  (73) 
COc1ccc(C(=O)C=Cc2c(O)cc([O-])cc2/C=C/c2ccccc2)cc1[O-]

>  <Energy>  (73) 
63.980826035606356

>  <Genealogy>  (73) 
COc1ccc(C(=O)C=Cc2c(O)cc([O-])cc2C=Cc2ccccc2)cc1[O-] (protonated)
COc1ccc(C(=O)C=Cc2c(O)cc([O-])cc2/C=C/c2ccccc2)cc1[O-] (cis-trans isomerization)
COc1ccc(C(=O)C=Cc2c(O)cc([O-])cc2/C=C/c2ccccc2)cc1[O-] (3D coordinates assigned)
COc1ccc(C(=O)C=Cc2c(O)cc([O-])cc2/C=C/c2ccccc2)cc1[O-] (optimized conformer: 63.980826035606356 kcal/mol)

>  <smiles>  (73) 
COc1ccc(C(=O)C=Cc2c(O)cc(O)cc2C=Cc2ccccc2)cc1O

>  <score_type>  (73) 
oracle

>  <origin>  (73) 
adg

>  <m_score__min__energy>  (73) 
-13.75

>  <m_primary>  (73) 
energy

$$$$
74:0
     RDKit          3D

 46 49  0  0  0  0  0  0  0  0999 V2000
   56.7210   31.6240   52.0170 C   0  0  0  0  0  0  0  0  0  0  0  0
   57.9970   32.1560   51.5250 N   0  0  0  0  0  0  0  0  0  0  0  0
   58.4700   33.3820   51.9410 C   0  0  0  0  0  0  0  0  0  0  0  0
   57.7990   34.0910   52.7380 O   0  0  0  0  0  0  0  0  0  0  0  0
   59.6780   33.8470   51.4940 N   0  0  0  0  0  0  0  0  0  0  0  0
   60.4570   33.1220   50.6440 C   0  0  0  0  0  0  0  0  0  0  0  0
   61.5570   33.5840   50.2460 O   0  0  0  0  0  0  0  0  0  0  0  0
   59.9900   31.8730   50.2420 C   0  0  0  0  0  0  0  0  0  0  0  0
   58.7890   31.4230   50.6910 C   0  0  0  0  0  0  0  0  0  0  0  0
   58.5190   30.2030   50.1940 N   0  0  0  0  0  0  0  0  0  0  0  0
   59.6040   29.9470   49.4150 C   0  0  0  0  0  0  0  0  0  0  0  0
   59.7330   28.7270   48.6680 N   0  0  0  0  0  0  0  0  0  0  0  0
   60.7110   27.7000   48.9900 C   0  0  0  0  0  0  0  0  0  0  0  0
   60.6790   26.7200   47.8260 C   0  0  0  0  0  0  0  0  0  0  0  0
   59.9980   27.4570   46.6770 C   0  0  0  0  0  0  0  0  0  0  0  0
   59.2190   28.5990   47.3150 C   0  0  0  0  0  0  0  0  0  0  0  0
   60.5310   30.9460   49.4240 N   0  0  0  0  0  0  0  0  0  0  0  0
   61.8370   30.9760   48.7580 C   0  0  0  0  0  0  0  0  0  0  0  0
   61.8700   31.9430   47.6000 C   0  0  0  0  0  0  0  0  0  0  0  0
   62.9860   32.3630   47.1940 O   0  0  0  0  0  0  0  0  0  0  0  0
   60.6430   32.5270   47.0290 C   0  0  0  0  0  0  0  0  0  0  0  0
   60.4950   33.9200   46.9840 C   0  0  0  0  0  0  0  0  0  0  0  0
   59.3300   34.4860   46.4650 C   0  0  0  0  0  0  0  0  0  0  0  0
   58.3070   33.6680   45.9790 C   0  0  0  0  0  0  0  0  0  0  0  0
   58.4450   32.2690   45.9960 C   0  0  0  0  0  0  0  0  0  0  0  0
   57.3910   31.4270   45.4960 N   0  0  0  0  0  0  0  0  0  0  0  0
   57.4390   30.1880   45.6450 O   0  0  0  0  0  0  0  0  0  0  0  0
   56.3020   31.9750   44.8570 O   0  0  0  0  0  0  0  0  0  0  0  0
   59.6280   31.7080   46.5100 C   0  0  0  0  0  0  0  0  0  0  0  0
   56.7231   31.6249   53.1170 H   0  0  0  0  0  0  0  0  0  0  0  0
   55.8961   32.2531   51.6514 H   0  0  0  0  0  0  0  0  0  0  0  0
   56.5873   30.5952   51.6514 H   0  0  0  0  0  0  0  0  0  0  0  0
   61.7129   28.1428   49.0909 H   0  0  0  0  0  0  0  0  0  0  0  0
   60.4793   27.2041   49.9442 H   0  0  0  0  0  0  0  0  0  0  0  0
   61.7013   26.4299   47.5419 H   0  0  0  0  0  0  0  0  0  0  0  0
   60.1406   25.7977   48.0895 H   0  0  0  0  0  0  0  0  0  0  0  0
   60.7493   27.8510   45.9768 H   0  0  0  0  0  0  0  0  0  0  0  0
   59.3378   26.7889   46.1045 H   0  0  0  0  0  0  0  0  0  0  0  0
   59.3805   29.5318   46.7548 H   0  0  0  0  0  0  0  0  0  0  0  0
   58.1371   28.4002   47.3119 H   0  0  0  0  0  0  0  0  0  0  0  0
   62.6005   31.2762   49.4908 H   0  0  0  0  0  0  0  0  0  0  0  0
   62.0339   29.9695   48.3602 H   0  0  0  0  0  0  0  0  0  0  0  0
   61.2999   34.5692   47.3591 H   0  0  0  0  0  0  0  0  0  0  0  0
   59.2167   35.5798   46.4384 H   0  0  0  0  0  0  0  0  0  0  0  0
   57.3875   34.1215   45.5804 H   0  0  0  0  0  0  0  0  0  0  0  0
   59.7592   30.6159   46.5052 H   0  0  0  0  0  0  0  0  0  0  0  0
  1  2  1  0
  2  3  1  0
  3  4  2  0
  3  5  1  0
  5  6  1  0
  6  7  2  0
  6  8  1  0
  8  9  2  0
  9 10  1  0
 10 11  2  0
 11 12  1  0
 12 13  1  0
 13 14  1  0
 14 15  1  0
 15 16  1  0
 11 17  1  0
 17 18  1  0
 18 19  1  0
 19 20  2  0
 19 21  1  0
 21 22  2  0
 22 23  1  0
 23 24  2  0
 24 25  1  0
 25 26  1  0
 26 27  2  0
 26 28  1  0
 25 29  2  0
  9  2  1  0
 16 12  1  0
 29 21  1  0
 17  8  1  0
  1 30  1  0
  1 31  1  0
  1 32  1  0
 13 33  1  0
 13 34  1  0
 14 35  1  0
 14 36  1  0
 15 37  1  0
 15 38  1  0
 16 39  1  0
 16 40  1  0
 18 41  1  0
 18 42  1  0
 22 43  1  0
 23 44  1  0
 24 45  1  0
 29 46  1  0
M  CHG  3   5  -1  26   1  28  -1
M  END
>  <UniqueID>  (74) 
67

>  <SMILES>  (74) 
Cn1c(=O)[n-]c(=O)c2c1nc(N1CCCC1)n2CC(=O)c1cccc([N+](=O)[O-])c1

>  <Energy>  (74) 
101.2805255366931

>  <Genealogy>  (74) 
Cn1c(=O)[n-]c(=O)c2c1nc(N1CCCC1)n2CC(=O)c1cccc([N+](=O)[O-])c1 (protonated)
Cn1c(=O)[n-]c(=O)c2c1nc(N1CCCC1)n2CC(=O)c1cccc([N+](=O)[O-])c1 (3D coordinates assigned)
Cn1c(=O)[n-]c(=O)c2c1nc(N1CCCC1)n2CC(=O)c1cccc([N+](=O)[O-])c1 (nonaromatic ring conformer: 101.2805255366931 kcal/mol)

>  <smiles>  (74) 
Cn1c(=O)[nH]c(=O)c2c1nc(N1CCCC1)n2CC(=O)c1cccc([N+](=O)[O-])c1

>  <score_type>  (74) 
oracle

>  <origin>  (74) 
adg

>  <m_score__min__energy>  (74) 
-9.6099999999999994

>  <m_primary>  (74) 
energy

$$$$
75:0
     RDKit          3D

 42 44  0  0  0  0  0  0  0  0999 V2000
   54.8280   26.3360   45.9960 N   0  0  0  0  0  0  0  0  0  0  0  0
   55.6380   25.2070   46.3170 C   0  0  0  0  0  0  0  0  0  0  0  0
   55.9360   24.9980   47.5240 O   0  0  0  0  0  0  0  0  0  0  0  0
   56.1510   24.2960   45.2570 C   0  0  0  0  0  0  0  0  0  0  0  0
   55.2830   23.9100   44.2170 C   0  0  0  0  0  0  0  0  0  0  0  0
   55.7140   23.0510   43.2060 C   0  0  0  0  0  0  0  0  0  0  0  0
   57.0210   22.5720   43.2060 C   0  0  0  0  0  0  0  0  0  0  0  0
   57.9020   22.9460   44.2220 C   0  0  0  0  0  0  0  0  0  0  0  0
   57.4800   23.7930   45.2650 C   0  0  0  0  0  0  0  0  0  0  0  0
   58.4090   24.2210   46.2730 N   0  0  0  0  0  0  0  0  0  0  0  0
   58.7900   25.5710   46.5620 C   0  0  0  0  0  0  0  0  0  0  0  0
   58.7840   25.9990   47.7480 O   0  0  0  0  0  0  0  0  0  0  0  0
   59.1790   26.4250   45.4810 N   0  0  0  0  0  0  0  0  0  0  0  0
   58.6880   27.7490   45.2160 C   0  0  0  0  0  0  0  0  0  0  0  0
   57.3330   27.9110   44.9070 C   0  0  0  0  0  0  0  0  0  0  0  0
   56.8090   29.1840   44.6590 C   0  0  0  0  0  0  0  0  0  0  0  0
   57.6330   30.3160   44.7430 C   0  0  0  0  0  0  0  0  0  0  0  0
   57.0790   31.6820   44.4400 C   0  0  0  0  0  0  0  0  0  0  0  0
   57.8360   32.7310   45.2070 C   0  0  0  0  0  0  0  0  0  0  0  0
   58.5650   33.7210   44.5270 C   0  0  0  0  0  0  0  0  0  0  0  0
   59.2390   34.7160   45.2420 C   0  0  0  0  0  0  0  0  0  0  0  0
   59.1810   34.7370   46.6380 C   0  0  0  0  0  0  0  0  0  0  0  0
   58.4470   33.7640   47.3210 C   0  0  0  0  0  0  0  0  0  0  0  0
   57.7710   32.7670   46.6110 C   0  0  0  0  0  0  0  0  0  0  0  0
   58.9890   30.1570   45.0660 C   0  0  0  0  0  0  0  0  0  0  0  0
   59.5120   28.8850   45.3140 C   0  0  0  0  0  0  0  0  0  0  0  0
   55.1460   27.0470   45.3010 H   0  0  0  0  0  0  0  0  0  0  0  0
   54.2512   24.2911   44.2019 H   0  0  0  0  0  0  0  0  0  0  0  0
   55.0197   22.7515   42.4071 H   0  0  0  0  0  0  0  0  0  0  0  0
   57.3597   21.8985   42.4050 H   0  0  0  0  0  0  0  0  0  0  0  0
   58.9375   22.5750   44.2079 H   0  0  0  0  0  0  0  0  0  0  0  0
   56.6750   27.0308   44.8588 H   0  0  0  0  0  0  0  0  0  0  0  0
   55.7467   29.2978   44.3971 H   0  0  0  0  0  0  0  0  0  0  0  0
   57.1728   31.8813   43.3623 H   0  0  0  0  0  0  0  0  0  0  0  0
   56.0203   31.7141   44.7370 H   0  0  0  0  0  0  0  0  0  0  0  0
   58.6057   33.7134   43.4278 H   0  0  0  0  0  0  0  0  0  0  0  0
   59.8157   35.4833   44.7047 H   0  0  0  0  0  0  0  0  0  0  0  0
   59.7131   35.5194   47.1990 H   0  0  0  0  0  0  0  0  0  0  0  0
   58.4008   33.7823   48.4199 H   0  0  0  0  0  0  0  0  0  0  0  0
   57.1866   32.0086   47.1525 H   0  0  0  0  0  0  0  0  0  0  0  0
   59.6443   31.0386   45.1244 H   0  0  0  0  0  0  0  0  0  0  0  0
   60.5716   28.7717   45.5868 H   0  0  0  0  0  0  0  0  0  0  0  0
  1  2  1  0
  2  3  2  0
  2  4  1  0
  4  5  2  0
  5  6  1  0
  6  7  2  0
  7  8  1  0
  8  9  2  0
  9 10  1  0
 10 11  1  0
 11 12  2  0
 11 13  1  0
 13 14  1  0
 14 15  2  0
 15 16  1  0
 16 17  2  0
 17 18  1  0
 18 19  1  0
 19 20  2  0
 20 21  1  0
 21 22  2  0
 22 23  1  0
 23 24  2  0
 17 25  1  0
 25 26  2  0
  9  4  1  0
 26 14  1  0
 24 19  1  0
  1 27  1  0
  5 28  1  0
  6 29  1  0
  7 30  1  0
  8 31  1  0
 15 32  1  0
 16 33  1  0
 18 34  1  0
 18 35  1  0
 20 36  1  0
 21 37  1  0
 22 38  1  0
 23 39  1  0
 24 40  1  0
 25 41  1  0
 26 42  1  0
M  CHG  3   1  -1  10  -1  13  -1
M  END
>  <UniqueID>  (75) 
68

>  <SMILES>  (75) 
[NH-]C(=O)c1ccccc1[N-]C(=O)[N-]c1ccc(Cc2ccccc2)cc1

>  <Energy>  (75) 
53.58174212593606

>  <Genealogy>  (75) 
[NH-]C(=O)c1ccccc1[N-]C(=O)[N-]c1ccc(Cc2ccccc2)cc1 (protonated)
[NH-]C(=O)c1ccccc1[N-]C(=O)[N-]c1ccc(Cc2ccccc2)cc1 (3D coordinates assigned)
[NH-]C(=O)c1ccccc1[N-]C(=O)[N-]c1ccc(Cc2ccccc2)cc1 (optimized conformer: 53.58174212593606 kcal/mol)

>  <smiles>  (75) 
NC(=O)c1ccccc1NC(=O)Nc1ccc(Cc2ccccc2)cc1

>  <score_type>  (75) 
oracle

>  <origin>  (75) 
adg

>  <m_score__min__energy>  (75) 
-15.74

>  <m_primary>  (75) 
energy

$$$$
76:0
     RDKit          3D

 43 45  0  0  0  0  0  0  0  0999 V2000
   57.0410   31.1550   42.7930 C   0  0  0  0  0  0  0  0  0  0  0  0
   56.9010   29.8000   43.3990 C   0  0  0  0  0  0  0  0  0  0  0  0
   56.9670   28.7810   42.6590 O   0  0  0  0  0  0  0  0  0  0  0  0
   56.5970   29.6860   44.7620 O   0  0  0  0  0  0  0  0  0  0  0  0
   57.5010   29.3090   45.7680 C   0  0  0  0  0  0  0  0  0  0  0  0
   58.1250   30.2660   46.5910 C   0  0  0  0  0  0  0  0  0  0  0  0
   59.0110   29.8700   47.6070 C   0  0  0  0  0  0  0  0  0  0  0  0
   59.6600   30.8170   48.4660 N   0  0  0  0  0  0  0  0  0  0  0  0
   59.0910   32.4210   48.7990 S   0  0  0  0  0  0  0  0  0  0  0  0
   57.8070   32.3410   49.5740 O   0  0  0  0  0  0  0  0  0  0  0  0
   60.1140   33.1470   49.6300 O   0  0  0  0  0  0  0  0  0  0  0  0
   58.7880   33.2720   47.2870 C   0  0  0  0  0  0  0  0  0  0  0  0
   59.8300   33.9190   46.6050 C   0  0  0  0  0  0  0  0  0  0  0  0
   59.5770   34.5760   45.3960 C   0  0  0  0  0  0  0  0  0  0  0  0
   58.2850   34.5890   44.8650 C   0  0  0  0  0  0  0  0  0  0  0  0
   57.2440   33.9470   45.5410 C   0  0  0  0  0  0  0  0  0  0  0  0
   57.4940   33.2890   46.7490 C   0  0  0  0  0  0  0  0  0  0  0  0
   59.2690   28.5110   47.7950 C   0  0  0  0  0  0  0  0  0  0  0  0
   58.6460   27.5520   46.9940 C   0  0  0  0  0  0  0  0  0  0  0  0
   57.7410   27.9400   45.9890 C   0  0  0  0  0  0  0  0  0  0  0  0
   57.1130   26.9580   45.1440 N   0  0  0  0  0  0  0  0  0  0  0  0
   56.5420   25.7320   45.6300 C   0  0  0  0  0  0  0  0  0  0  0  0
   56.2810   25.5970   46.8570 O   0  0  0  0  0  0  0  0  0  0  0  0
   56.2140   24.6340   44.7020 C   0  0  0  0  0  0  0  0  0  0  0  0
   56.9670   24.2260   43.6200 C   0  0  0  0  0  0  0  0  0  0  0  0
   56.2650   23.1850   43.0490 C   0  0  0  0  0  0  0  0  0  0  0  0
   55.1580   22.9720   43.7250 O   0  0  0  0  0  0  0  0  0  0  0  0
   55.0950   23.8230   44.7220 C   0  0  0  0  0  0  0  0  0  0  0  0
   57.1188   31.9075   43.5915 H   0  0  0  0  0  0  0  0  0  0  0  0
   57.9472   31.1863   42.1702 H   0  0  0  0  0  0  0  0  0  0  0  0
   56.1604   31.3709   42.1702 H   0  0  0  0  0  0  0  0  0  0  0  0
   57.9166   31.3350   46.4369 H   0  0  0  0  0  0  0  0  0  0  0  0
   60.8479   33.9095   47.0219 H   0  0  0  0  0  0  0  0  0  0  0  0
   60.3955   35.0824   44.8635 H   0  0  0  0  0  0  0  0  0  0  0  0
   58.0869   35.1050   43.9140 H   0  0  0  0  0  0  0  0  0  0  0  0
   56.2269   33.9593   45.1223 H   0  0  0  0  0  0  0  0  0  0  0  0
   56.6730   32.7834   47.2785 H   0  0  0  0  0  0  0  0  0  0  0  0
   59.9694   28.1928   48.5813 H   0  0  0  0  0  0  0  0  0  0  0  0
   58.8643   26.4852   47.1498 H   0  0  0  0  0  0  0  0  0  0  0  0
   56.9900   27.1890   44.1330 H   0  0  0  0  0  0  0  0  0  0  0  0
   57.9271   24.6439   43.2830 H   0  0  0  0  0  0  0  0  0  0  0  0
   56.5836   22.6184   42.1616 H   0  0  0  0  0  0  0  0  0  0  0  0
   54.2796   23.8817   45.4580 H   0  0  0  0  0  0  0  0  0  0  0  0
  1  2  1  0
  2  3  2  0
  2  4  1  0
  4  5  1  0
  5  6  2  0
  6  7  1  0
  7  8  1  0
  8  9  1  0
  9 10  2  0
  9 11  2  0
  9 12  1  0
 12 13  2  0
 13 14  1  0
 14 15  2  0
 15 16  1  0
 16 17  2  0
  7 18  2  0
 18 19  1  0
 19 20  2  0
 20 21  1  0
 21 22  1  0
 22 23  2  0
 22 24  1  0
 24 25  1  0
 25 26  2  0
 26 27  1  0
 27 28  1  0
 20  5  1  0
 28 24  2  0
 17 12  1  0
  1 29  1  0
  1 30  1  0
  1 31  1  0
  6 32  1  0
 13 33  1  0
 14 34  1  0
 15 35  1  0
 16 36  1  0
 17 37  1  0
 18 38  1  0
 19 39  1  0
 21 40  1  0
 25 41  1  0
 26 42  1  0
 28 43  1  0
M  CHG  1   8  -1
M  END
>  <UniqueID>  (76) 
69

>  <SMILES>  (76) 
CC(=O)Oc1cc([N-]S(=O)(=O)c2ccccc2)ccc1NC(=O)c1ccoc1

>  <Energy>  (76) 
80.81253296404688

>  <Genealogy>  (76) 
CC(=O)Oc1cc([N-]S(=O)(=O)c2ccccc2)ccc1NC(=O)c1ccoc1 (protonated)
CC(=O)Oc1cc([N-]S(=O)(=O)c2ccccc2)ccc1NC(=O)c1ccoc1 (3D coordinates assigned)
CC(=O)Oc1cc([N-]S(=O)(=O)c2ccccc2)ccc1NC(=O)c1ccoc1 (optimized conformer: 80.81253296404688 kcal/mol)

>  <smiles>  (76) 
CC(=O)Oc1cc(NS(=O)(=O)c2ccccc2)ccc1NC(=O)c1ccoc1

>  <score_type>  (76) 
oracle

>  <origin>  (76) 
adg

>  <m_score__min__energy>  (76) 
-10.08

>  <m_primary>  (76) 
energy

$$$$
77:0
     RDKit          3D

 51 55  0  0  0  0  0  0  0  0999 V2000
   59.0930   31.2600   45.7550 O   0  0  0  0  0  0  0  0  0  0  0  0
   58.9430   30.4710   46.7290 C   0  0  0  0  0  0  0  0  0  0  0  0
   58.7710   30.9960   48.0490 N   0  0  0  0  0  0  0  0  0  0  0  0
   59.8810   31.3040   48.9410 C   0  0  0  0  0  0  0  0  0  0  0  0
   60.9760   31.9690   48.1480 C   0  0  0  0  0  0  0  0  0  0  0  0
   62.2590   31.3900   48.1160 C   0  0  0  0  0  0  0  0  0  0  0  0
   63.3070   32.0300   47.4430 C   0  0  0  0  0  0  0  0  0  0  0  0
   63.0870   33.2530   46.8000 C   0  0  0  0  0  0  0  0  0  0  0  0
   61.8200   33.8420   46.8330 C   0  0  0  0  0  0  0  0  0  0  0  0
   60.7630   33.2110   47.5070 C   0  0  0  0  0  0  0  0  0  0  0  0
   59.1980   34.0250   47.5520 Cl  0  0  0  0  0  0  0  0  0  0  0  0
   58.9140   29.0080   46.5020 C   0  0  0  0  0  0  0  0  0  0  0  0
   60.1110   28.2720   46.4530 C   0  0  0  0  0  0  0  0  0  0  0  0
   60.0900   26.8920   46.2310 C   0  0  0  0  0  0  0  0  0  0  0  0
   58.8760   26.2200   46.0470 C   0  0  0  0  0  0  0  0  0  0  0  0
   57.6670   26.9510   46.1230 C   0  0  0  0  0  0  0  0  0  0  0  0
   57.6870   28.3370   46.3310 C   0  0  0  0  0  0  0  0  0  0  0  0
   56.4130   26.2170   45.9360 C   0  0  0  0  0  0  0  0  0  0  0  0
   55.1610   26.7070   45.9960 N   0  0  0  0  0  0  0  0  0  0  0  0
   54.3330   25.7400   45.6220 N   0  0  0  0  0  0  0  0  0  0  0  0
   55.0600   24.6390   45.3260 C   0  0  0  0  0  0  0  0  0  0  0  0
   54.5030   23.4040   44.7500 C   0  0  0  0  0  0  0  0  0  0  0  0
   55.1000   22.8470   43.7940 O   0  0  0  0  0  0  0  0  0  0  0  0
   53.2670   22.8440   45.2140 N   0  0  0  0  0  0  0  0  0  0  0  0
   53.0670   22.1880   46.5050 C   0  0  0  0  0  0  0  0  0  0  0  0
   54.3680   22.0720   47.2430 C   0  0  0  0  0  0  0  0  0  0  0  0
   54.8210   22.9240   48.2440 C   0  0  0  0  0  0  0  0  0  0  0  0
   56.0550   22.5400   48.7770 C   0  0  0  0  0  0  0  0  0  0  0  0
   56.5820   21.3920   48.1960 C   0  0  0  0  0  0  0  0  0  0  0  0
   55.5060   20.8490   47.0200 S   0  0  0  0  0  0  0  0  0  0  0  0
   56.3930   24.9100   45.5430 C   0  0  0  0  0  0  0  0  0  0  0  0
   57.6250   24.1690   45.1260 C   0  0  0  0  0  0  0  0  0  0  0  0
   58.8600   24.7020   45.8940 C   0  0  0  0  0  0  0  0  0  0  0  0
   59.5379   31.9817   49.7367 H   0  0  0  0  0  0  0  0  0  0  0  0
   60.2611   30.3774   49.3958 H   0  0  0  0  0  0  0  0  0  0  0  0
   62.4390   30.4301   48.6222 H   0  0  0  0  0  0  0  0  0  0  0  0
   64.3059   31.5700   47.4198 H   0  0  0  0  0  0  0  0  0  0  0  0
   63.9113   33.7510   46.2685 H   0  0  0  0  0  0  0  0  0  0  0  0
   61.6505   34.8046   46.3284 H   0  0  0  0  0  0  0  0  0  0  0  0
   61.0732   28.7870   46.5907 H   0  0  0  0  0  0  0  0  0  0  0  0
   61.0350   26.3298   46.2007 H   0  0  0  0  0  0  0  0  0  0  0  0
   56.7434   28.9016   46.3608 H   0  0  0  0  0  0  0  0  0  0  0  0
   52.3613   22.7800   47.1063 H   0  0  0  0  0  0  0  0  0  0  0  0
   52.6648   21.1788   46.3325 H   0  0  0  0  0  0  0  0  0  0  0  0
   54.2647   23.8106   48.5823 H   0  0  0  0  0  0  0  0  0  0  0  0
   56.5616   23.0942   49.5808 H   0  0  0  0  0  0  0  0  0  0  0  0
   57.5393   20.9188   48.4598 H   0  0  0  0  0  0  0  0  0  0  0  0
   57.4960   23.0987   45.3448 H   0  0  0  0  0  0  0  0  0  0  0  0
   57.7834   24.3173   44.0476 H   0  0  0  0  0  0  0  0  0  0  0  0
   58.8666   24.2513   46.8974 H   0  0  0  0  0  0  0  0  0  0  0  0
   59.7484   24.4277   45.3062 H   0  0  0  0  0  0  0  0  0  0  0  0
  1  2  2  0
  2  3  1  0
  3  4  1  0
  4  5  1  0
  5  6  2  0
  6  7  1  0
  7  8  2  0
  8  9  1  0
  9 10  2  0
 10 11  1  0
  2 12  1  0
 12 13  2  0
 13 14  1  0
 14 15  2  0
 15 16  1  0
 16 17  2  0
 16 18  1  0
 18 19  1  0
 19 20  1  0
 20 21  2  0
 21 22  1  0
 22 23  2  0
 22 24  1  0
 24 25  1  0
 25 26  1  0
 26 27  2  0
 27 28  1  0
 28 29  2  0
 29 30  1  0
 21 31  1  0
 31 32  1  0
 32 33  1  0
 10  5  1  0
 17 12  1  0
 31 18  2  0
 33 15  1  0
 30 26  1  0
  4 34  1  0
  4 35  1  0
  6 36  1  0
  7 37  1  0
  8 38  1  0
  9 39  1  0
 13 40  1  0
 14 41  1  0
 17 42  1  0
 25 43  1  0
 25 44  1  0
 27 45  1  0
 28 46  1  0
 29 47  1  0
 32 48  1  0
 32 49  1  0
 33 50  1  0
 33 51  1  0
M  CHG  3   3  -1  19  -1  24  -1
M  END
>  <UniqueID>  (77) 
70

>  <SMILES>  (77) 
O=C([N-]Cc1ccccc1Cl)c1ccc2c(c1)-c1[n-]nc(C(=O)[N-]Cc3cccs3)c1CC2

>  <Energy>  (77) 
118.43484506133053

>  <Genealogy>  (77) 
O=C([N-]Cc1ccccc1Cl)c1ccc2c(c1)-c1[n-]nc(C(=O)[N-]Cc3cccs3)c1CC2 (protonated)
O=C([N-]Cc1ccccc1Cl)c1ccc2c(c1)-c1[n-]nc(C(=O)[N-]Cc3cccs3)c1CC2 (3D coordinates assigned)
O=C([N-]Cc1ccccc1Cl)c1ccc2c(c1)-c1[n-]nc(C(=O)[N-]Cc3cccs3)c1CC2 (nonaromatic ring conformer: 118.43484506133053 kcal/mol)

>  <smiles>  (77) 
O=C(NCc1ccccc1Cl)c1ccc2c(c1)-c1[nH]nc(C(=O)NCc3cccs3)c1CC2

>  <score_type>  (77) 
oracle

>  <origin>  (77) 
adg

>  <m_score__min__energy>  (77) 
-15.029999999999999

>  <m_primary>  (77) 
energy

$$$$
78:0
     RDKit          3D

 69 74  0  0  0  0  0  0  0  0999 V2000
   60.4360   34.9500   47.1180 O   0  0  0  0  0  0  0  0  0  0  0  0
   59.6390   34.0920   47.5840 C   0  0  0  0  0  0  0  0  0  0  0  0
   59.5230   33.9750   49.0070 N   0  0  0  0  0  0  0  0  0  0  0  0
   59.4020   32.7380   49.7180 C   0  0  0  0  0  0  0  0  0  0  0  0
   58.1440   32.1640   49.9280 C   0  0  0  0  0  0  0  0  0  0  0  0
   58.0340   30.9440   50.5900 C   0  0  0  0  0  0  0  0  0  0  0  0
   59.1760   30.2790   51.0330 C   0  0  0  0  0  0  0  0  0  0  0  0
   60.4590   30.8250   50.8220 C   0  0  0  0  0  0  0  0  0  0  0  0
   61.6660   30.0540   51.2310 C   0  0  0  0  0  0  0  0  0  0  0  0
   61.6430   28.7840   51.7160 N   0  0  0  0  0  0  0  0  0  0  0  0
   62.9390   28.4980   51.9090 C   0  0  0  0  0  0  0  0  0  0  0  0
   63.5080   27.3180   52.3800 C   0  0  0  0  0  0  0  0  0  0  0  0
   64.9140   27.2660   52.4720 C   0  0  0  0  0  0  0  0  0  0  0  0
   65.6990   28.3840   52.1010 C   0  0  0  0  0  0  0  0  0  0  0  0
   65.0840   29.5610   51.6390 C   0  0  0  0  0  0  0  0  0  0  0  0
   63.6950   29.5700   51.5510 C   0  0  0  0  0  0  0  0  0  0  0  0
   62.9030   30.5230   51.1340 O   0  0  0  0  0  0  0  0  0  0  0  0
   60.5650   32.0800   50.1650 C   0  0  0  0  0  0  0  0  0  0  0  0
   61.8450   32.6620   49.8720 N   0  0  0  0  0  0  0  0  0  0  0  0
   62.5640   33.4040   50.9070 C   0  0  0  0  0  0  0  0  0  0  0  0
   63.7030   34.1940   50.2620 C   0  0  0  0  0  0  0  0  0  0  0  0
   64.6080   33.3560   49.5570 O   0  0  0  0  0  0  0  0  0  0  0  0
   63.9840   32.4050   48.6930 C   0  0  0  0  0  0  0  0  0  0  0  0
   62.4510   32.5040   48.5510 C   0  0  0  0  0  0  0  0  0  0  0  0
   58.9780   33.1250   46.6640 C   0  0  0  0  0  0  0  0  0  0  0  0
   57.7660   33.4230   46.0110 C   0  0  0  0  0  0  0  0  0  0  0  0
   57.1100   32.4540   45.2510 C   0  0  0  0  0  0  0  0  0  0  0  0
   57.6290   31.1590   45.1520 C   0  0  0  0  0  0  0  0  0  0  0  0
   56.7240   29.9090   44.2940 S   0  0  0  0  0  0  0  0  0  0  0  0
   55.2540   30.1520   44.5030 O   0  0  0  0  0  0  0  0  0  0  0  0
   57.0030   30.0210   42.8180 O   0  0  0  0  0  0  0  0  0  0  0  0
   57.1160   28.2920   44.8470 N   0  0  0  0  0  0  0  0  0  0  0  0
   58.0140   27.5590   43.9300 C   0  0  0  0  0  0  0  0  0  0  0  0
   59.5050   27.9010   44.1190 C   0  0  0  0  0  0  0  0  0  0  0  0
   59.8920   28.2230   45.5700 C   0  0  0  0  0  0  0  0  0  0  0  0
   58.8760   27.6570   46.5600 C   0  0  0  0  0  0  0  0  0  0  0  0
   57.4750   28.2300   46.2860 C   0  0  0  0  0  0  0  0  0  0  0  0
   58.8640   30.8700   45.7430 C   0  0  0  0  0  0  0  0  0  0  0  0
   59.5340   31.8430   46.4910 C   0  0  0  0  0  0  0  0  0  0  0  0
   57.2397   32.6774   49.5694 H   0  0  0  0  0  0  0  0  0  0  0  0
   57.0414   30.5031   50.7641 H   0  0  0  0  0  0  0  0  0  0  0  0
   59.0752   29.3155   51.5541 H   0  0  0  0  0  0  0  0  0  0  0  0
   60.8260   28.1630   51.9070 H   0  0  0  0  0  0  0  0  0  0  0  0
   62.8846   26.4591   52.6693 H   0  0  0  0  0  0  0  0  0  0  0  0
   65.4042   26.3504   52.8345 H   0  0  0  0  0  0  0  0  0  0  0  0
   66.7953   28.3317   52.1745 H   0  0  0  0  0  0  0  0  0  0  0  0
   65.6789   30.4424   51.3574 H   0  0  0  0  0  0  0  0  0  0  0  0
   61.8735   34.0978   51.4088 H   0  0  0  0  0  0  0  0  0  0  0  0
   62.9751   32.7011   51.6465 H   0  0  0  0  0  0  0  0  0  0  0  0
   63.2741   34.9227   49.5584 H   0  0  0  0  0  0  0  0  0  0  0  0
   64.2634   34.6940   51.0657 H   0  0  0  0  0  0  0  0  0  0  0  0
   64.4208   32.5273   47.6909 H   0  0  0  0  0  0  0  0  0  0  0  0
   64.1701   31.4251   49.1569 H   0  0  0  0  0  0  0  0  0  0  0  0
   62.1967   33.3723   47.9254 H   0  0  0  0  0  0  0  0  0  0  0  0
   62.0678   31.5863   48.0808 H   0  0  0  0  0  0  0  0  0  0  0  0
   57.3323   34.4299   46.1011 H   0  0  0  0  0  0  0  0  0  0  0  0
   56.1780   32.7104   44.7260 H   0  0  0  0  0  0  0  0  0  0  0  0
   57.8805   26.4807   44.1013 H   0  0  0  0  0  0  0  0  0  0  0  0
   57.7426   27.8578   42.9068 H   0  0  0  0  0  0  0  0  0  0  0  0
   60.1026   27.0403   43.7843 H   0  0  0  0  0  0  0  0  0  0  0  0
   59.7013   28.8078   43.5281 H   0  0  0  0  0  0  0  0  0  0  0  0
   60.8790   27.7860   45.7819 H   0  0  0  0  0  0  0  0  0  0  0  0
   59.9143   29.3166   45.6863 H   0  0  0  0  0  0  0  0  0  0  0  0
   58.8447   26.5621   46.4594 H   0  0  0  0  0  0  0  0  0  0  0  0
   59.1803   27.9372   47.5792 H   0  0  0  0  0  0  0  0  0  0  0  0
   56.7364   27.5967   46.7993 H   0  0  0  0  0  0  0  0  0  0  0  0
   57.4779   29.2656   46.6569 H   0  0  0  0  0  0  0  0  0  0  0  0
   59.3101   29.8722   45.6185 H   0  0  0  0  0  0  0  0  0  0  0  0
   60.5053   31.6045   46.9489 H   0  0  0  0  0  0  0  0  0  0  0  0
  1  2  2  0
  2  3  1  0
  3  4  1  0
  4  5  2  0
  5  6  1  0
  6  7  2  0
  7  8  1  0
  8  9  1  0
  9 10  2  0
 10 11  1  0
 11 12  2  0
 12 13  1  0
 13 14  2  0
 14 15  1  0
 15 16  2  0
 16 17  1  0
  8 18  2  0
 18 19  1  0
 19 20  1  0
 20 21  1  0
 21 22  1  0
 22 23  1  0
 23 24  1  0
  2 25  1  0
 25 26  2  0
 26 27  1  0
 27 28  2  0
 28 29  1  0
 29 30  2  0
 29 31  2  0
 29 32  1  0
 32 33  1  0
 33 34  1  0
 34 35  1  0
 35 36  1  0
 36 37  1  0
 28 38  1  0
 38 39  2  0
 18  4  1  0
 24 19  1  0
 39 25  1  0
 17  9  1  0
 37 32  1  0
 16 11  1  0
  5 40  1  0
  6 41  1  0
  7 42  1  0
 10 43  1  0
 12 44  1  0
 13 45  1  0
 14 46  1  0
 15 47  1  0
 20 48  1  0
 20 49  1  0
 21 50  1  0
 21 51  1  0
 23 52  1  0
 23 53  1  0
 24 54  1  0
 24 55  1  0
 26 56  1  0
 27 57  1  0
 33 58  1  0
 33 59  1  0
 34 60  1  0
 34 61  1  0
 35 62  1  0
 35 63  1  0
 36 64  1  0
 36 65  1  0
 37 66  1  0
 37 67  1  0
 38 68  1  0
 39 69  1  0
M  CHG  2   3  -1  10   1
M  END
>  <UniqueID>  (78) 
71

>  <SMILES>  (78) 
O=C([N-]c1cccc(-c2[nH+]c3ccccc3o2)c1N1CCOCC1)c1ccc(S(=O)(=O)N2CCCCC2)cc1

>  <Energy>  (78) 
149.41599637716527

>  <Genealogy>  (78) 
O=C([N-]c1cccc(-c2[nH+]c3ccccc3o2)c1N1CCOCC1)c1ccc(S(=O)(=O)N2CCCCC2)cc1 (protonated)
O=C([N-]c1cccc(-c2[nH+]c3ccccc3o2)c1N1CCOCC1)c1ccc(S(=O)(=O)N2CCCCC2)cc1 (3D coordinates assigned)
O=C([N-]c1cccc(-c2[nH+]c3ccccc3o2)c1N1CCOCC1)c1ccc(S(=O)(=O)N2CCCCC2)cc1 (nonaromatic ring conformer: 149.41599637716527 kcal/mol)

>  <smiles>  (78) 
O=C(Nc1cccc(-c2nc3ccccc3o2)c1N1CCOCC1)c1ccc(S(=O)(=O)N2CCCCC2)cc1

>  <score_type>  (78) 
oracle

>  <origin>  (78) 
adg

>  <m_score__min__energy>  (78) 
-10.51

>  <m_primary>  (78) 
energy

$$$$
79:0
     RDKit          3D

 44 46  0  0  0  0  0  0  0  0999 V2000
   57.9770   27.0090   42.7300 C   0  0  0  0  0  0  0  0  0  0  0  0
   58.2510   27.8920   43.9040 C   0  0  0  0  0  0  0  0  0  0  0  0
   59.2620   27.4530   45.1940 S   0  0  0  0  0  0  0  0  0  0  0  0
   59.0400   28.8880   46.0280 C   0  0  0  0  0  0  0  0  0  0  0  0
   59.5800   29.2160   47.2250 N   0  0  0  0  0  0  0  0  0  0  0  0
   59.2840   30.4300   47.7720 C   0  0  0  0  0  0  0  0  0  0  0  0
   59.8380   30.7950   49.1120 C   0  0  0  0  0  0  0  0  0  0  0  0
   58.6040   30.4490   50.4180 S   0  0  0  0  0  0  0  0  0  0  0  0
   57.8670   32.1210   50.4700 C   0  0  0  0  0  0  0  0  0  0  0  0
   58.5310   32.9340   51.5330 C   0  0  0  0  0  0  0  0  0  0  0  0
   58.0810   32.9110   52.7100 O   0  0  0  0  0  0  0  0  0  0  0  0
   59.6840   33.7200   51.2030 N   0  0  0  0  0  0  0  0  0  0  0  0
   60.3430   33.7570   49.9310 C   0  0  0  0  0  0  0  0  0  0  0  0
   61.6870   33.3620   49.8570 C   0  0  0  0  0  0  0  0  0  0  0  0
   62.3650   33.3840   48.6360 C   0  0  0  0  0  0  0  0  0  0  0  0
   61.6980   33.7810   47.4730 C   0  0  0  0  0  0  0  0  0  0  0  0
   60.3430   34.1390   47.5250 C   0  0  0  0  0  0  0  0  0  0  0  0
   59.4880   34.6070   46.0560 S   0  0  0  0  0  0  0  0  0  0  0  0
   57.8140   34.2010   46.1990 N   0  0  0  0  0  0  0  0  0  0  0  0
   59.6220   36.0890   45.8340 O   0  0  0  0  0  0  0  0  0  0  0  0
   60.0810   33.8880   44.8790 O   0  0  0  0  0  0  0  0  0  0  0  0
   59.6670   34.1280   48.7530 C   0  0  0  0  0  0  0  0  0  0  0  0
   58.4460   31.2920   47.1180 N   0  0  0  0  0  0  0  0  0  0  0  0
   57.8900   30.9760   45.9140 C   0  0  0  0  0  0  0  0  0  0  0  0
   57.1230   31.7960   45.3480 O   0  0  0  0  0  0  0  0  0  0  0  0
   58.1870   29.7320   45.3390 C   0  0  0  0  0  0  0  0  0  0  0  0
   57.7270   29.1790   44.1240 C   0  0  0  0  0  0  0  0  0  0  0  0
   56.7840   29.8770   43.1840 C   0  0  0  0  0  0  0  0  0  0  0  0
   57.6683   26.0142   43.0836 H   0  0  0  0  0  0  0  0  0  0  0  0
   57.1727   27.4476   42.1211 H   0  0  0  0  0  0  0  0  0  0  0  0
   58.8883   26.9152   42.1211 H   0  0  0  0  0  0  0  0  0  0  0  0
   60.7459   30.2042   49.3036 H   0  0  0  0  0  0  0  0  0  0  0  0
   60.0808   31.8678   49.1212 H   0  0  0  0  0  0  0  0  0  0  0  0
   58.0054   32.6115   49.4952 H   0  0  0  0  0  0  0  0  0  0  0  0
   56.7933   32.0378   50.6940 H   0  0  0  0  0  0  0  0  0  0  0  0
   62.2105   33.0327   50.7667 H   0  0  0  0  0  0  0  0  0  0  0  0
   63.4237   33.0890   48.5894 H   0  0  0  0  0  0  0  0  0  0  0  0
   62.2374   33.8126   46.5149 H   0  0  0  0  0  0  0  0  0  0  0  0
   57.4800   33.9490   45.2410 H   0  0  0  0  0  0  0  0  0  0  0  0
   57.7570   33.3350   46.7780 H   0  0  0  0  0  0  0  0  0  0  0  0
   58.6047   34.4102   48.7964 H   0  0  0  0  0  0  0  0  0  0  0  0
   56.0328   30.4330   43.7641 H   0  0  0  0  0  0  0  0  0  0  0  0
   57.3490   30.5762   42.5501 H   0  0  0  0  0  0  0  0  0  0  0  0
   56.2803   29.1324   42.5501 H   0  0  0  0  0  0  0  0  0  0  0  0
  1  2  1  0
  2  3  1  0
  3  4  1  0
  4  5  1  0
  5  6  1  0
  6  7  1  0
  7  8  1  0
  8  9  1  0
  9 10  1  0
 10 11  2  0
 10 12  1  0
 12 13  1  0
 13 14  2  0
 14 15  1  0
 15 16  2  0
 16 17  1  0
 17 18  1  0
 18 19  1  0
 18 20  2  0
 18 21  2  0
 17 22  2  0
  6 23  2  0
 23 24  1  0
 24 25  2  0
 24 26  1  0
 26 27  1  0
 27 28  1  0
 27  2  2  0
 26  4  2  0
 22 13  1  0
  1 29  1  0
  1 30  1  0
  1 31  1  0
  7 32  1  0
  7 33  1  0
  9 34  1  0
  9 35  1  0
 14 36  1  0
 15 37  1  0
 16 38  1  0
 19 39  1  0
 19 40  1  0
 22 41  1  0
 28 42  1  0
 28 43  1  0
 28 44  1  0
M  CHG  2   5  -1  12  -1
M  END
>  <UniqueID>  (79) 
72

>  <SMILES>  (79) 
Cc1sc2[n-]c(CSCC(=O)[N-]c3cccc(S(N)(=O)=O)c3)nc(=O)c2c1C

>  <Energy>  (79) 
76.7743505409237

>  <Genealogy>  (79) 
Cc1sc2[n-]c(CSCC(=O)[N-]c3cccc(S(N)(=O)=O)c3)nc(=O)c2c1C (protonated)
Cc1sc2[n-]c(CSCC(=O)[N-]c3cccc(S(N)(=O)=O)c3)nc(=O)c2c1C (3D coordinates assigned)
Cc1sc2[n-]c(CSCC(=O)[N-]c3cccc(S(N)(=O)=O)c3)nc(=O)c2c1C (optimized conformer: 76.7743505409237 kcal/mol)

>  <smiles>  (79) 
Cc1sc2[nH]c(CSCC(=O)Nc3cccc(S(N)(=O)=O)c3)nc(=O)c2c1C

>  <score_type>  (79) 
oracle

>  <origin>  (79) 
adg

>  <m_score__min__energy>  (79) 
-11.18

>  <m_primary>  (79) 
energy

$$$$
80:0
     RDKit          3D

 51 54  0  0  0  0  0  0  0  0999 V2000
   64.3660   32.4060   51.1810 C   0  0  0  0  0  0  0  0  0  0  0  0
   64.6270   32.9640   49.8160 C   0  0  0  0  0  0  0  0  0  0  0  0
   65.8180   33.0790   49.4120 O   0  0  0  0  0  0  0  0  0  0  0  0
   63.5060   33.3860   48.9500 C   0  0  0  0  0  0  0  0  0  0  0  0
   63.6260   33.3680   47.5490 C   0  0  0  0  0  0  0  0  0  0  0  0
   62.5530   33.7840   46.7600 C   0  0  0  0  0  0  0  0  0  0  0  0
   61.3560   34.2070   47.3620 C   0  0  0  0  0  0  0  0  0  0  0  0
   60.2120   34.6640   46.5420 C   0  0  0  0  0  0  0  0  0  0  0  0
   60.0140   35.9020   46.3900 O   0  0  0  0  0  0  0  0  0  0  0  0
   59.3210   33.7260   45.9110 N   0  0  0  0  0  0  0  0  0  0  0  0
   58.9730   33.9560   44.4900 C   0  0  0  0  0  0  0  0  0  0  0  0
   57.7160   33.1780   44.0740 C   0  0  0  0  0  0  0  0  0  0  0  0
   57.8350   31.8010   44.5320 N   0  0  0  0  0  0  0  0  0  0  0  0
   57.3630   30.6820   43.9760 C   0  0  0  0  0  0  0  0  0  0  0  0
   57.7100   29.6420   44.8170 C   0  0  0  0  0  0  0  0  0  0  0  0
   57.4290   28.2180   44.5810 C   0  0  0  0  0  0  0  0  0  0  0  0
   57.7720   27.6940   43.4860 O   0  0  0  0  0  0  0  0  0  0  0  0
   56.7490   27.4330   45.5800 N   0  0  0  0  0  0  0  0  0  0  0  0
   56.8100   25.9950   45.6380 C   0  0  0  0  0  0  0  0  0  0  0  0
   58.0450   25.3240   45.7300 C   0  0  0  0  0  0  0  0  0  0  0  0
   58.0860   23.9280   45.8250 C   0  0  0  0  0  0  0  0  0  0  0  0
   56.9010   23.1910   45.8360 C   0  0  0  0  0  0  0  0  0  0  0  0
   56.9450   21.8390   45.9360 F   0  0  0  0  0  0  0  0  0  0  0  0
   55.6690   23.8480   45.7630 C   0  0  0  0  0  0  0  0  0  0  0  0
   55.6200   25.2450   45.6700 C   0  0  0  0  0  0  0  0  0  0  0  0
   54.4120   25.8660   45.6190 F   0  0  0  0  0  0  0  0  0  0  0  0
   58.3780   30.1130   45.8940 N   0  0  0  0  0  0  0  0  0  0  0  0
   58.4290   31.4390   45.6740 C   0  0  0  0  0  0  0  0  0  0  0  0
   59.0530   32.4430   46.6030 C   0  0  2  0  0  0  0  0  0  0  0  0
   58.1220   32.6830   47.7950 C   0  0  0  0  0  0  0  0  0  0  0  0
   61.2790   34.2140   48.7650 C   0  0  0  0  0  0  0  0  0  0  0  0
   62.3380   33.8060   49.5120 N   0  0  0  0  0  0  0  0  0  0  0  0
   64.7026   33.1256   51.9418 H   0  0  0  0  0  0  0  0  0  0  0  0
   63.2883   32.2218   51.3019 H   0  0  0  0  0  0  0  0  0  0  0  0
   64.9154   31.4607   51.3019 H   0  0  0  0  0  0  0  0  0  0  0  0
   64.5601   33.0280   47.0780 H   0  0  0  0  0  0  0  0  0  0  0  0
   62.6445   33.7808   45.6638 H   0  0  0  0  0  0  0  0  0  0  0  0
   58.7927   35.0304   44.3376 H   0  0  0  0  0  0  0  0  0  0  0  0
   59.8120   33.6027   43.8725 H   0  0  0  0  0  0  0  0  0  0  0  0
   56.8283   33.6420   44.5286 H   0  0  0  0  0  0  0  0  0  0  0  0
   57.6138   33.1969   42.9789 H   0  0  0  0  0  0  0  0  0  0  0  0
   56.8056   30.6035   43.0309 H   0  0  0  0  0  0  0  0  0  0  0  0
   56.1480   27.9330   46.2730 H   0  0  0  0  0  0  0  0  0  0  0  0
   58.9822   25.9000   45.7272 H   0  0  0  0  0  0  0  0  0  0  0  0
   59.0545   23.4107   45.8911 H   0  0  0  0  0  0  0  0  0  0  0  0
   54.7355   23.2663   45.7786 H   0  0  0  0  0  0  0  0  0  0  0  0
   60.0142   32.0383   46.9527 H   0  0  0  0  0  0  0  0  0  0  0  0
   58.6808   32.5390   48.7315 H   0  0  0  0  0  0  0  0  0  0  0  0
   57.7324   33.7109   47.7549 H   0  0  0  0  0  0  0  0  0  0  0  0
   57.2841   31.9715   47.7549 H   0  0  0  0  0  0  0  0  0  0  0  0
   60.3569   34.5514   49.2609 H   0  0  0  0  0  0  0  0  0  0  0  0
  1  2  1  0
  2  3  2  0
  2  4  1  0
  4  5  2  0
  5  6  1  0
  6  7  2  0
  7  8  1  0
  8  9  2  0
  8 10  1  0
 10 11  1  0
 11 12  1  0
 12 13  1  0
 13 14  1  0
 14 15  2  0
 15 16  1  0
 16 17  2  0
 16 18  1  0
 18 19  1  0
 19 20  2  0
 20 21  1  0
 21 22  2  0
 22 23  1  0
 22 24  1  0
 24 25  2  0
 25 26  1  0
 15 27  1  0
 27 28  2  0
 28 29  1  0
 29 30  1  0
  7 31  1  0
 31 32  2  0
 32  4  1  0
 29 10  1  0
 28 13  1  0
 25 19  1  0
  1 33  1  0
  1 34  1  0
  1 35  1  0
  5 36  1  0
  6 37  1  0
 11 38  1  0
 11 39  1  0
 12 40  1  0
 12 41  1  0
 14 42  1  0
 18 43  1  0
 20 44  1  0
 21 45  1  0
 24 46  1  0
 29 47  1  1
 30 48  1  0
 30 49  1  0
 30 50  1  0
 31 51  1  0
M  END
>  <UniqueID>  (80) 
73

>  <SMILES>  (80) 
CC(=O)c1ccc(C(=O)N2CCn3cc(C(=O)Nc4ccc(F)cc4F)nc3[C@@H]2C)cn1

>  <Energy>  (80) 
92.21117081266945

>  <Genealogy>  (80) 
CC(=O)c1ccc(C(=O)N2CCn3cc(C(=O)Nc4ccc(F)cc4F)nc3[C@@H]2C)cn1 (chirality)
CC(=O)c1ccc(C(=O)N2CCn3cc(C(=O)Nc4ccc(F)cc4F)nc3[C@@H]2C)cn1 (3D coordinates assigned)
CC(=O)c1ccc(C(=O)N2CCn3cc(C(=O)Nc4ccc(F)cc4F)nc3[C@@H]2C)cn1 (nonaromatic ring conformer: 92.21117081266945 kcal/mol)

>  <smiles>  (80) 
CC(=O)c1ccc(C(=O)N2CCn3cc(C(=O)Nc4ccc(F)cc4F)nc3C2C)cn1

>  <score_type>  (80) 
oracle

>  <origin>  (80) 
adg

>  <m_score__min__energy>  (80) 
-8.3200000000000003

>  <m_primary>  (80) 
energy

$$$$
81:0
     RDKit          3D

 38 41  0  0  0  0  0  0  0  0999 V2000
   61.6369   30.8539   47.1098 H   0  0  0  0  0  0  0  0  0  0  0  0
   61.0870   29.9230   46.9070 C   0  0  0  0  0  0  0  0  0  0  0  0
   60.4290   29.2590   47.9470 C   0  0  0  0  0  0  0  0  0  0  0  0
   60.4574   29.6711   48.9665 H   0  0  0  0  0  0  0  0  0  0  0  0
   59.7350   28.0720   47.6930 C   0  0  0  0  0  0  0  0  0  0  0  0
   59.2125   27.5556   48.5117 H   0  0  0  0  0  0  0  0  0  0  0  0
   59.7040   27.5390   46.3970 C   0  0  0  0  0  0  0  0  0  0  0  0
   58.9860   26.3240   46.1330 N   0  0  0  0  0  0  0  0  0  0  0  0
   59.5370   25.0970   45.9740 C   0  0  0  0  0  0  0  0  0  0  0  0
   60.7760   24.8670   46.0020 O   0  0  0  0  0  0  0  0  0  0  0  0
   58.5530   24.1340   45.7960 C   0  0  0  0  0  0  0  0  0  0  0  0
   58.6700   23.0509   45.6438 H   0  0  0  0  0  0  0  0  0  0  0  0
   57.3900   24.8770   45.8580 C   0  0  0  0  0  0  0  0  0  0  0  0
   56.1200   24.4310   45.7360 N   0  0  0  0  0  0  0  0  0  0  0  0
   55.1090   25.3410   45.8080 C   0  0  0  0  0  0  0  0  0  0  0  0
   53.9140   24.9590   45.7090 O   0  0  0  0  0  0  0  0  0  0  0  0
   55.3850   26.6680   45.9830 N   0  0  0  0  0  0  0  0  0  0  0  0
   56.6720   27.1060   46.0900 C   0  0  0  0  0  0  0  0  0  0  0  0
   56.9460   28.3700   46.2420 N   0  0  0  0  0  0  0  0  0  0  0  0
   57.0750   29.3680   45.2170 C   0  0  0  0  0  0  0  0  0  0  0  0
   56.6540   29.1430   43.8940 C   0  0  0  0  0  0  0  0  0  0  0  0
   56.1872   28.1847   43.6224 H   0  0  0  0  0  0  0  0  0  0  0  0
   56.8270   30.1330   42.9240 C   0  0  0  0  0  0  0  0  0  0  0  0
   56.4768   29.9598   41.8957 H   0  0  0  0  0  0  0  0  0  0  0  0
   57.4430   31.3420   43.2550 C   0  0  0  0  0  0  0  0  0  0  0  0
   57.5583   32.1260   42.4920 H   0  0  0  0  0  0  0  0  0  0  0  0
   57.9150   31.5590   44.5580 C   0  0  0  0  0  0  0  0  0  0  0  0
   58.5590   32.8640   44.9220 C   0  0  0  0  0  0  0  0  0  0  0  0
   58.6050   32.9573   46.0171 H   0  0  0  0  0  0  0  0  0  0  0  0
   59.5775   32.8984   44.5079 H   0  0  0  0  0  0  0  0  0  0  0  0
   57.9667   33.6933   44.5079 H   0  0  0  0  0  0  0  0  0  0  0  0
   57.7220   30.5700   45.5340 C   0  0  0  0  0  0  0  0  0  0  0  0
   58.0824   30.7398   46.5593 H   0  0  0  0  0  0  0  0  0  0  0  0
   57.6670   26.1750   46.0540 N   0  0  0  0  0  0  0  0  0  0  0  0
   60.3500   28.2190   45.3520 C   0  0  0  0  0  0  0  0  0  0  0  0
   60.3084   27.8186   44.3283 H   0  0  0  0  0  0  0  0  0  0  0  0
   61.0460   29.4040   45.6100 C   0  0  0  0  0  0  0  0  0  0  0  0
   61.5615   29.9280   44.7917 H   0  0  0  0  0  0  0  0  0  0  0  0
  1  2  1  0
  2  3  2  0
  3  4  1  0
  3  5  1  0
  5  6  1  0
  5  7  2  0
  7  8  1  0
  8  9  1  0
  9 10  2  0
  9 11  1  0
 11 12  1  0
 11 13  2  0
 13 14  1  0
 14 15  1  0
 15 16  2  0
 15 17  1  0
 17 18  1  0
 18 19  2  0
 19 20  1  0
 20 21  2  0
 21 22  1  0
 21 23  1  0
 23 24  1  0
 23 25  2  0
 25 26  1  0
 25 27  1  0
 27 28  1  0
 28 29  1  0
 28 30  1  0
 28 31  1  0
 27 32  2  0
 32 33  1  0
 18 34  1  0
  7 35  1  0
 35 36  1  0
 35 37  2  0
 37 38  1  0
 37  2  1  0
 34  8  1  0
 34 13  1  0
 32 20  1  0
M  CHG  2  14  -1  17  -1
M  END
>  <UniqueID>  (81) 
74

>  <SMILES>  (81) 
Cc1cccc(/N=c2\[n-]c(=O)[n-]c3cc(=O)n(-c4ccccc4)n23)c1

>  <Energy>  (81) 
97.4090341873218

>  <Genealogy>  (81) 
Cc1cccc(N=c2[n-]c(=O)[n-]c3cc(=O)n(-c4ccccc4)n23)c1 (protonated)
Cc1cccc(/N=c2\[n-]c(=O)[n-]c3cc(=O)n(-c4ccccc4)n23)c1 (cis-trans isomerization)
Cc1cccc(/N=c2\[n-]c(=O)[n-]c3cc(=O)n(-c4ccccc4)n23)c1 (3D coordinates assigned)
Cc1cccc(/N=c2\[n-]c(=O)[n-]c3cc(=O)n(-c4ccccc4)n23)c1 (optimized conformer: 97.4090341873218 kcal/mol)

>  <smiles>  (81) 
Cc1cccc(N=c2[nH]c(=O)[nH]c3cc(=O)n(-c4ccccc4)n23)c1

>  <score_type>  (81) 
oracle

>  <origin>  (81) 
adg

>  <m_score__min__energy>  (81) 
-10.380000000000001

>  <m_primary>  (81) 
energy

$$$$
82:0
     RDKit          3D

 37 39  0  0  0  0  0  0  0  0999 V2000
   57.4140   31.9080   41.2640 O   0  0  0  0  0  0  0  0  0  0  0  0
   57.3920   31.7100   42.5030 C   0  0  0  0  0  0  0  0  0  0  0  0
   57.9460   32.5790   43.3910 N   0  0  0  0  0  0  0  0  0  0  0  0
   57.9190   32.3610   44.7150 C   0  0  0  0  0  0  0  0  0  0  0  0
   58.5000   33.2680   45.6730 C   0  0  0  0  0  0  0  0  0  0  0  0
   59.0800   34.4670   45.3220 C   0  0  0  0  0  0  0  0  0  0  0  0
   59.6360   35.3340   46.2550 C   0  0  0  0  0  0  0  0  0  0  0  0
   59.6150   34.9890   47.5920 C   0  0  0  0  0  0  0  0  0  0  0  0
   59.0410   33.7910   47.9770 C   0  0  0  0  0  0  0  0  0  0  0  0
   58.4940   32.9520   47.0190 C   0  0  0  0  0  0  0  0  0  0  0  0
   57.3130   31.2350   45.1320 N   0  0  0  0  0  0  0  0  0  0  0  0
   56.7550   30.3500   44.3240 N   0  0  0  0  0  0  0  0  0  0  0  0
   56.1110   29.1510   44.7740 C   0  0  0  0  0  0  0  0  0  0  0  0
   57.0870   28.0910   45.2280 C   0  0  0  0  0  0  0  0  0  0  0  0
   58.3430   28.6560   45.7640 C   0  0  0  0  0  0  0  0  0  0  0  0
   58.5180   29.0850   47.0500 C   0  0  0  0  0  0  0  0  0  0  0  0
   59.7090   29.6130   47.5300 C   0  0  0  0  0  0  0  0  0  0  0  0
   60.7850   29.7110   46.6530 C   0  0  0  0  0  0  0  0  0  0  0  0
   60.6240   29.2820   45.3530 C   0  0  0  0  0  0  0  0  0  0  0  0
   59.4340   28.7620   44.8980 C   0  0  0  0  0  0  0  0  0  0  0  0
   56.7810   30.5690   42.9820 C   0  0  0  0  0  0  0  0  0  0  0  0
   56.2670   29.7560   42.2020 O   0  0  0  0  0  0  0  0  0  0  0  0
   58.3900   33.4150   42.9880 H   0  0  0  0  0  0  0  0  0  0  0  0
   59.1041   34.7500   44.2593 H   0  0  0  0  0  0  0  0  0  0  0  0
   60.0875   36.2838   45.9323 H   0  0  0  0  0  0  0  0  0  0  0  0
   60.0514   35.6618   48.3449 H   0  0  0  0  0  0  0  0  0  0  0  0
   59.0187   33.5053   49.0390 H   0  0  0  0  0  0  0  0  0  0  0  0
   58.0399   32.0030   47.3403 H   0  0  0  0  0  0  0  0  0  0  0  0
   55.4504   29.4031   45.6166 H   0  0  0  0  0  0  0  0  0  0  0  0
   55.5508   28.7389   43.9218 H   0  0  0  0  0  0  0  0  0  0  0  0
   56.6096   27.4884   46.0147 H   0  0  0  0  0  0  0  0  0  0  0  0
   57.3475   27.4842   44.3482 H   0  0  0  0  0  0  0  0  0  0  0  0
   57.6676   29.0076   47.7434 H   0  0  0  0  0  0  0  0  0  0  0  0
   59.7996   29.9448   48.5749 H   0  0  0  0  0  0  0  0  0  0  0  0
   61.7470   30.1235   46.9912 H   0  0  0  0  0  0  0  0  0  0  0  0
   61.4731   29.3577   44.6578 H   0  0  0  0  0  0  0  0  0  0  0  0
   59.3419   28.4301   43.8533 H   0  0  0  0  0  0  0  0  0  0  0  0
  1  2  2  0
  2  3  1  0
  3  4  1  0
  4  5  1  0
  5  6  2  0
  6  7  1  0
  7  8  2  0
  8  9  1  0
  9 10  2  0
  4 11  2  0
 11 12  1  0
 12 13  1  0
 13 14  1  0
 14 15  1  0
 15 16  2  0
 16 17  1  0
 17 18  2  0
 18 19  1  0
 19 20  2  0
 12 21  1  0
 21 22  2  0
 21  2  1  0
 10  5  1  0
 20 15  1  0
  3 23  1  0
  6 24  1  0
  7 25  1  0
  8 26  1  0
  9 27  1  0
 10 28  1  0
 13 29  1  0
 13 30  1  0
 14 31  1  0
 14 32  1  0
 16 33  1  0
 17 34  1  0
 18 35  1  0
 19 36  1  0
 20 37  1  0
M  END
>  <smiles>  (82) 
O=c1[nH]c(-c2ccccc2)nn(CCc2ccccc2)c1=O

>  <score_type>  (82) 
oracle

>  <origin>  (82) 
adg

>  <m_score__min__energy>  (82) 
-7.54

>  <m_primary>  (82) 
energy

$$$$
83:0
     RDKit          3D

 47 49  0  0  1  0  0  0  0  0999 V2000
   58.7150   26.5110   46.8280 N   0  0  0  0  0  0  0  0  0  0  0  0
   58.5140   27.5590   46.4120 C   0  0  0  0  0  0  0  0  0  0  0  0
   58.2700   28.8860   45.9030 C   0  0  0  0  0  0  0  0  0  0  0  0
   57.0470   29.1720   45.3350 C   0  0  0  0  0  0  0  0  0  0  0  0
   56.0160   28.2010   45.2430 N   0  0  0  0  0  0  0  0  0  0  0  0
   56.8580   30.4180   44.8700 N   0  0  0  0  0  0  0  0  0  0  0  0
   57.7440   31.4070   44.9070 C   0  0  0  0  0  0  0  0  0  0  0  0
   57.5360   33.0580   44.3040 S   0  0  0  0  0  0  0  0  0  0  0  0
   57.7730   34.2240   45.6560 C   0  0  0  0  0  0  0  0  0  0  0  0
   59.2160   34.3880   45.9260 C   0  0  0  0  0  0  0  0  0  0  0  0
   59.7470   34.6390   47.1030 C   0  0  0  0  0  0  0  0  0  0  0  0
   61.0900   34.2230   47.5010 C   0  0  0  0  0  0  0  0  0  0  0  0
   61.5320   34.2210   48.8010 C   0  0  0  0  0  0  0  0  0  0  0  0
   62.8230   33.8150   49.0490 C   0  0  0  0  0  0  0  0  0  0  0  0
   63.6990   33.4070   48.0680 C   0  0  0  0  0  0  0  0  0  0  0  0
   63.2580   33.4040   46.7510 C   0  0  0  0  0  0  0  0  0  0  0  0
   61.9670   33.8140   46.5240 C   0  0  0  0  0  0  0  0  0  0  0  0
   58.9530   31.1080   45.4740 N   0  0  0  0  0  0  0  0  0  0  0  0
   59.2290   29.8880   45.9640 C   0  0  0  0  0  0  0  0  0  0  0  0
   60.3950   29.6330   46.4960 N   0  0  0  0  0  0  0  0  0  0  0  0
   60.9150   30.6160   47.4350 C   0  0  0  0  0  0  0  0  0  0  0  0
   59.9550   30.6560   48.5790 C   0  0  0  0  0  0  0  0  0  0  0  0
   59.4150   31.8590   49.0070 C   0  0  0  0  0  0  0  0  0  0  0  0
   58.5290   31.9590   50.0530 C   0  0  0  0  0  0  0  0  0  0  0  0
   58.1600   30.7860   50.7110 C   0  0  0  0  0  0  0  0  0  0  0  0
   58.6800   29.5710   50.3080 C   0  0  0  0  0  0  0  0  0  0  0  0
   59.5700   29.5260   49.2470 C   0  0  0  0  0  0  0  0  0  0  0  0
   60.0680   28.2720   48.8790 O   0  0  0  0  0  0  0  0  0  0  0  0
   56.1560   27.4410   44.5100 H   0  0  0  0  0  0  0  0  0  0  0  0
   55.1590   28.1940   45.8370 H   0  0  0  0  0  0  0  0  0  0  0  0
   57.3400   35.1967   45.3798 H   0  0  0  0  0  0  0  0  0  0  0  0
   57.2751   33.8405   46.5588 H   0  0  0  0  0  0  0  0  0  0  0  0
   59.9032   34.2923   45.0724 H   0  0  0  0  0  0  0  0  0  0  0  0
   59.1423   35.1969   47.8332 H   0  0  0  0  0  0  0  0  0  0  0  0
   60.8715   34.5357   49.6224 H   0  0  0  0  0  0  0  0  0  0  0  0
   63.1757   33.8164   50.0909 H   0  0  0  0  0  0  0  0  0  0  0  0
   64.7220   33.0915   48.3210 H   0  0  0  0  0  0  0  0  0  0  0  0
   63.9136   33.0873   45.9264 H   0  0  0  0  0  0  0  0  0  0  0  0
   61.6082   33.8153   45.4842 H   0  0  0  0  0  0  0  0  0  0  0  0
   59.6900   31.8540   45.5310 H   0  0  0  0  0  0  0  0  0  0  0  0
   61.9131   30.3156   47.7864 H   0  0  0  0  0  0  0  0  0  0  0  0
   61.0142   31.6046   46.9630 H   0  0  0  0  0  0  0  0  0  0  0  0
   59.7105   32.7799   48.4830 H   0  0  0  0  0  0  0  0  0  0  0  0
   58.1236   32.9339   50.3616 H   0  0  0  0  0  0  0  0  0  0  0  0
   57.4533   30.8282   51.5529 H   0  0  0  0  0  0  0  0  0  0  0  0
   58.3893   28.6453   50.8262 H   0  0  0  0  0  0  0  0  0  0  0  0
   60.0300   27.9790   47.9030 H   0  0  0  0  0  0  0  0  0  0  0  0
  1  2  3  0
  2  3  1  0
  3  4  2  0
  4  5  1  0
  4  6  1  0
  6  7  2  0
  7  8  1  0
  8  9  1  0
  9 10  1  0
 10 11  2  0
 11 12  1  0
 12 13  2  0
 13 14  1  0
 14 15  2  0
 15 16  1  0
 16 17  2  0
  7 18  1  0
 18 19  1  0
 19 20  2  0
 20 21  1  0
 21 22  1  0
 22 23  2  0
 23 24  1  0
 24 25  2  0
 25 26  1  0
 26 27  2  0
 27 28  1  0
 19  3  1  0
 27 22  1  0
 17 12  1  0
  5 29  1  0
  5 30  1  0
  9 31  1  0
  9 32  1  0
 10 33  1  0
 11 34  1  0
 13 35  1  0
 14 36  1  0
 15 37  1  0
 16 38  1  0
 17 39  1  0
 18 40  1  0
 21 41  1  0
 21 42  1  0
 23 43  1  0
 24 44  1  0
 25 45  1  0
 26 46  1  0
 28 47  1  0
M  END
>  <smiles>  (83) 
N#Cc1c(N)nc(SCC=Cc2ccccc2)[nH]c1=NCc1ccccc1O

>  <score_type>  (83) 
oracle

>  <origin>  (83) 
adg

>  <m_score__min__energy>  (83) 
-9.1400000000000006

>  <m_primary>  (83) 
energy

$$$$
84:0
     RDKit          3D

 37 39  0  0  1  0  0  0  0  0999 V2000
   64.8290   32.7900   50.0280 C   0  0  0  0  0  0  0  0  0  0  0  0
   64.6410   32.7520   48.6230 O   0  0  0  0  0  0  0  0  0  0  0  0
   63.3710   32.7410   48.0640 C   0  0  0  0  0  0  0  0  0  0  0  0
   62.9020   33.8180   47.3490 C   0  0  0  0  0  0  0  0  0  0  0  0
   61.6350   33.8250   46.7830 C   0  0  0  0  0  0  0  0  0  0  0  0
   60.7690   32.7370   46.9120 C   0  0  0  0  0  0  0  0  0  0  0  0
   59.4750   32.8380   46.2900 C   0  0  0  0  0  0  0  0  0  0  0  0
   58.6380   33.9210   46.3310 C   0  0  0  0  0  0  0  0  0  0  0  0
   57.3940   33.9470   45.7030 C   0  0  0  0  0  0  0  0  0  0  0  0
   57.0040   32.8540   45.0260 N   0  0  0  0  0  0  0  0  0  0  0  0
   57.8340   31.8040   44.9960 C   0  0  0  0  0  0  0  0  0  0  0  0
   57.4250   30.7600   44.3300 N   0  0  0  0  0  0  0  0  0  0  0  0
   57.5520   29.4600   44.9020 C   0  0  0  0  0  0  0  0  0  0  0  0
   58.7760   28.9170   45.2410 C   0  0  0  0  0  0  0  0  0  0  0  0
   58.8360   27.6450   45.7950 C   0  0  0  0  0  0  0  0  0  0  0  0
   57.6900   26.9090   46.0140 C   0  0  0  0  0  0  0  0  0  0  0  0
   56.4490   27.4400   45.6780 C   0  0  0  0  0  0  0  0  0  0  0  0
   55.2750   26.7050   45.8930 O   0  0  0  0  0  0  0  0  0  0  0  0
   56.4050   28.7160   45.1230 C   0  0  0  0  0  0  0  0  0  0  0  0
   59.0320   31.7640   45.5930 N   0  0  0  0  0  0  0  0  0  0  0  0
   61.2480   31.6720   47.6260 C   0  0  0  0  0  0  0  0  0  0  0  0
   60.5090   30.5780   47.8150 F   0  0  0  0  0  0  0  0  0  0  0  0
   62.5270   31.6620   48.1990 C   0  0  0  0  0  0  0  0  0  0  0  0
   63.8704   32.5962   50.5316 H   0  0  0  0  0  0  0  0  0  0  0  0
   65.5592   32.0213   50.3212 H   0  0  0  0  0  0  0  0  0  0  0  0
   65.2033   33.7820   50.3212 H   0  0  0  0  0  0  0  0  0  0  0  0
   63.5492   34.6984   47.2222 H   0  0  0  0  0  0  0  0  0  0  0  0
   61.3046   34.7095   46.2187 H   0  0  0  0  0  0  0  0  0  0  0  0
   58.9630   34.8133   46.8862 H   0  0  0  0  0  0  0  0  0  0  0  0
   56.7500   34.8369   45.7600 H   0  0  0  0  0  0  0  0  0  0  0  0
   56.0600   32.8440   44.5360 H   0  0  0  0  0  0  0  0  0  0  0  0
   59.6998   29.4900   45.0728 H   0  0  0  0  0  0  0  0  0  0  0  0
   59.8132   27.2174   46.0636 H   0  0  0  0  0  0  0  0  0  0  0  0
   57.7575   25.9031   46.4540 H   0  0  0  0  0  0  0  0  0  0  0  0
   55.1280   26.3330   46.8410 H   0  0  0  0  0  0  0  0  0  0  0  0
   55.4297   29.1463   44.8518 H   0  0  0  0  0  0  0  0  0  0  0  0
   62.8610   30.7796   48.7645 H   0  0  0  0  0  0  0  0  0  0  0  0
  1  2  1  0
  2  3  1  0
  3  4  2  0
  4  5  1  0
  5  6  2  0
  6  7  1  0
  7  8  1  0
  8  9  2  0
  9 10  1  0
 10 11  1  0
 11 12  2  0
 12 13  1  0
 13 14  2  0
 14 15  1  0
 15 16  2  0
 16 17  1  0
 17 18  1  0
 17 19  2  0
 11 20  1  0
  6 21  1  0
 21 22  1  0
 21 23  2  0
 23  3  1  0
 20  7  2  0
 19 13  1  0
  1 24  1  0
  1 25  1  0
  1 26  1  0
  4 27  1  0
  5 28  1  0
  8 29  1  0
  9 30  1  0
 10 31  1  0
 14 32  1  0
 15 33  1  0
 16 34  1  0
 18 35  1  0
 19 36  1  0
 23 37  1  0
M  END
>  <smiles>  (84) 
COc1ccc(-c2cc[nH]c(=Nc3cccc(O)c3)n2)c(F)c1

>  <score_type>  (84) 
oracle

>  <origin>  (84) 
adg

>  <m_score__min__energy>  (84) 
-7.8300000000000001

>  <m_primary>  (84) 
energy

$$$$
85:0
     RDKit          3D

 42 44  0  0  0  0  0  0  0  0999 V2000
   59.7460   21.5600   45.0820 H   0  0  0  0  0  0  0  0  0  0  0  0
   59.8560   22.5920   45.2090 N   0  0  0  0  0  0  0  0  0  0  0  0
   58.9360   23.3070   45.7750 C   0  0  0  0  0  0  0  0  0  0  0  0
   59.2250   24.5720   46.1810 N   0  0  0  0  0  0  0  0  0  0  0  0
   58.3080   25.3750   46.7800 C   0  0  0  0  0  0  0  0  0  0  0  0
   58.6910   26.7380   47.2080 C   0  0  0  0  0  0  0  0  0  0  0  0
   59.6690   26.8780   48.2100 C   0  0  0  0  0  0  0  0  0  0  0  0
   60.1053   25.9811   48.6740 H   0  0  0  0  0  0  0  0  0  0  0  0
   60.0910   28.1430   48.6210 C   0  0  0  0  0  0  0  0  0  0  0  0
   60.8559   28.2387   49.4057 H   0  0  0  0  0  0  0  0  0  0  0  0
   59.5450   29.2850   48.0390 C   0  0  0  0  0  0  0  0  0  0  0  0
   59.8854   30.2809   48.3588 H   0  0  0  0  0  0  0  0  0  0  0  0
   58.5670   29.1670   47.0510 C   0  0  0  0  0  0  0  0  0  0  0  0
   58.1404   30.0734   46.5966 H   0  0  0  0  0  0  0  0  0  0  0  0
   58.1210   27.9020   46.6300 C   0  0  0  0  0  0  0  0  0  0  0  0
   56.8250   27.8200   45.4250 S   0  0  0  0  0  0  0  0  0  0  0  0
   57.3830   27.3950   44.0950 O   0  0  0  0  0  0  0  0  0  0  0  0
   55.7910   26.8200   45.8620 O   0  0  0  0  0  0  0  0  0  0  0  0
   56.0940   29.3760   45.2350 N   0  0  0  0  0  0  0  0  0  0  0  0
   55.1200   29.3030   45.6060 H   0  0  0  0  0  0  0  0  0  0  0  0
   57.0140   24.8920   47.0070 C   0  0  0  0  0  0  0  0  0  0  0  0
   56.2692   25.5292   47.5063 H   0  0  0  0  0  0  0  0  0  0  0  0
   56.6660   23.5950   46.5980 C   0  0  0  0  0  0  0  0  0  0  0  0
   55.2800   23.1200   46.8340 C   0  0  0  0  0  0  0  0  0  0  0  0
   54.8980   22.6400   48.0960 C   0  0  0  0  0  0  0  0  0  0  0  0
   55.6261   22.6261   48.9204 H   0  0  0  0  0  0  0  0  0  0  0  0
   53.5970   22.1800   48.3090 C   0  0  0  0  0  0  0  0  0  0  0  0
   53.3028   21.8104   49.3024 H   0  0  0  0  0  0  0  0  0  0  0  0
   52.6650   22.1870   47.2640 C   0  0  0  0  0  0  0  0  0  0  0  0
   51.3660   21.7280   47.4780 O   0  0  0  0  0  0  0  0  0  0  0  0
   50.6800   21.7080   46.7320 H   0  0  0  0  0  0  0  0  0  0  0  0
   53.0340   22.6540   45.9940 C   0  0  0  0  0  0  0  0  0  0  0  0
   52.0730   22.6410   44.9710 O   0  0  0  0  0  0  0  0  0  0  0  0
   51.3690   23.7900   44.5120 C   0  0  0  0  0  0  0  0  0  0  0  0
   51.0130   24.3711   45.3755 H   0  0  0  0  0  0  0  0  0  0  0  0
   52.0408   24.4126   43.9029 H   0  0  0  0  0  0  0  0  0  0  0  0
   50.5092   23.4742   43.9029 H   0  0  0  0  0  0  0  0  0  0  0  0
   54.3480   23.1180   45.7850 C   0  0  0  0  0  0  0  0  0  0  0  0
   54.6458   23.4819   44.7906 H   0  0  0  0  0  0  0  0  0  0  0  0
   57.6430   22.7840   45.9760 C   0  0  0  0  0  0  0  0  0  0  0  0
   57.3460   21.4190   45.5950 C   0  0  0  0  0  0  0  0  0  0  0  0
   57.1090   20.3290   45.2900 N   0  0  0  0  0  0  0  0  0  0  0  0
  1  2  1  0
  2  3  2  0
  3  4  1  0
  4  5  1  0
  5  6  1  0
  6  7  2  0
  7  8  1  0
  7  9  1  0
  9 10  1  0
  9 11  2  0
 11 12  1  0
 11 13  1  0
 13 14  1  0
 13 15  2  0
 15 16  1  0
 16 17  2  0
 16 18  2  0
 16 19  1  0
 19 20  1  0
  5 21  2  0
 21 22  1  0
 21 23  1  0
 23 24  1  0
 24 25  2  0
 25 26  1  0
 25 27  1  0
 27 28  1  0
 27 29  2  0
 29 30  1  0
 30 31  1  0
 29 32  1  0
 32 33  1  0
 33 34  1  0
 34 35  1  0
 34 36  1  0
 34 37  1  0
 32 38  2  0
 38 39  1  0
 23 40  2  0
 40 41  1  0
 41 42  3  0
 40  3  1  0
 15  6  1  0
 38 24  1  0
M  CHG  2   4  -1  19  -1
M  END
>  <UniqueID>  (85) 
75

>  <SMILES>  (85) 
[H]/N=c1\[n-]c(-c2ccccc2S([NH-])(=O)=O)cc(-c2ccc(O)c(OC)c2)c1C#N

>  <Energy>  (85) 
59.49485453742087

>  <Genealogy>  (85) 
COc1cc(-c2cc(-c3ccccc3S([NH-])(=O)=O)[n-]c(=N)c2C#N)ccc1O (protonated)
[H]/N=c1\[n-]c(-c2ccccc2S([NH-])(=O)=O)cc(-c2ccc(O)c(OC)c2)c1C#N (cis-trans isomerization)
[H]/N=c1\[n-]c(-c2ccccc2S([NH-])(=O)=O)cc(-c2ccc(O)c(OC)c2)c1C#N (3D coordinates assigned)
[H]/N=c1\[n-]c(-c2ccccc2S([NH-])(=O)=O)cc(-c2ccc(O)c(OC)c2)c1C#N (optimized conformer: 59.49485453742087 kcal/mol)

>  <smiles>  (85) 
COc1cc(-c2cc(-c3ccccc3S(N)(=O)=O)[nH]c(=N)c2C#N)ccc1O

>  <score_type>  (85) 
oracle

>  <origin>  (85) 
adg

>  <m_score__min__energy>  (85) 
-11.140000000000001

>  <m_primary>  (85) 
energy

$$$$
86:0
     RDKit          3D

 50 53  0  0  0  0  0  0  0  0999 V2000
   58.5145   33.5066   42.4369 H   0  0  0  0  0  0  0  0  0  0  0  0
   57.9780   32.6670   42.9030 C   0  0  0  0  0  0  0  0  0  0  0  0
   57.4670   31.6370   42.1090 C   0  0  0  0  0  0  0  0  0  0  0  0
   57.5935   31.6704   41.0168 H   0  0  0  0  0  0  0  0  0  0  0  0
   56.7950   30.5640   42.7020 C   0  0  0  0  0  0  0  0  0  0  0  0
   56.3775   29.7639   42.0731 H   0  0  0  0  0  0  0  0  0  0  0  0
   56.6510   30.5040   44.0990 C   0  0  0  0  0  0  0  0  0  0  0  0
   55.9500   29.4230   44.7340 N   0  0  0  0  0  0  0  0  0  0  0  0
   56.4890   28.4890   45.4630 C   0  0  0  0  0  0  0  0  0  0  0  0
   55.8200   27.3240   45.6460 N   0  0  0  0  0  0  0  0  0  0  0  0
   56.3340   26.3500   46.4450 C   0  0  0  0  0  0  0  0  0  0  0  0
   55.7000   25.2300   46.6270 N   0  0  0  0  0  0  0  0  0  0  0  0
   56.3350   23.9170   46.7220 C   0  0  0  0  0  0  0  0  0  0  0  0
   57.3373   24.0312   47.1606 H   0  0  0  0  0  0  0  0  0  0  0  0
   55.7133   23.2679   47.3562 H   0  0  0  0  0  0  0  0  0  0  0  0
   56.4600   23.2880   45.3600 C   0  0  0  0  0  0  0  0  0  0  0  0
   57.4190   22.2870   45.1330 C   0  0  0  0  0  0  0  0  0  0  0  0
   58.0913   21.9775   45.9468 H   0  0  0  0  0  0  0  0  0  0  0  0
   57.5220   21.6830   43.8770 C   0  0  0  0  0  0  0  0  0  0  0  0
   58.2754   20.9003   43.7048 H   0  0  0  0  0  0  0  0  0  0  0  0
   56.6700   22.0710   42.8390 C   0  0  0  0  0  0  0  0  0  0  0  0
   56.7533   21.5947   41.8510 H   0  0  0  0  0  0  0  0  0  0  0  0
   55.7120   23.0650   43.0580 C   0  0  0  0  0  0  0  0  0  0  0  0
   55.0411   23.3703   42.2415 H   0  0  0  0  0  0  0  0  0  0  0  0
   55.6050   23.6720   44.3130 C   0  0  0  0  0  0  0  0  0  0  0  0
   54.8488   24.4529   44.4814 H   0  0  0  0  0  0  0  0  0  0  0  0
   57.5210   26.5540   47.0700 N   0  0  0  0  0  0  0  0  0  0  0  0
   58.2010   27.7140   46.8940 C   0  0  0  0  0  0  0  0  0  0  0  0
   59.3140   27.9020   47.5410 N   0  0  0  0  0  0  0  0  0  0  0  0
   59.6320   29.0500   48.3440 C   0  0  0  0  0  0  0  0  0  0  0  0
   60.7770   29.8240   48.0910 C   0  0  0  0  0  0  0  0  0  0  0  0
   61.4468   29.5563   47.2605 H   0  0  0  0  0  0  0  0  0  0  0  0
   61.0680   30.9320   48.8900 C   0  0  0  0  0  0  0  0  0  0  0  0
   61.9547   31.5467   48.6755 H   0  0  0  0  0  0  0  0  0  0  0  0
   60.2340   31.2600   49.9610 C   0  0  0  0  0  0  0  0  0  0  0  0
   60.4569   32.1419   50.5796 H   0  0  0  0  0  0  0  0  0  0  0  0
   59.1140   30.4690   50.2500 C   0  0  0  0  0  0  0  0  0  0  0  0
   58.0640   30.8850   51.6010 S   0  0  0  0  0  0  0  0  0  0  0  0
   57.0820   29.7740   51.8460 O   0  0  0  0  0  0  0  0  0  0  0  0
   58.8890   31.0800   52.8420 O   0  0  0  0  0  0  0  0  0  0  0  0
   57.2130   32.3450   51.2380 N   0  0  0  0  0  0  0  0  0  0  0  0
   56.2770   32.2750   51.6970 H   0  0  0  0  0  0  0  0  0  0  0  0
   57.0430   32.3500   50.2070 H   0  0  0  0  0  0  0  0  0  0  0  0
   58.8200   29.3620   49.4420 C   0  0  0  0  0  0  0  0  0  0  0  0
   57.9463   28.7344   49.6715 H   0  0  0  0  0  0  0  0  0  0  0  0
   57.6790   28.6820   46.0940 N   0  0  0  0  0  0  0  0  0  0  0  0
   57.1370   31.5560   44.8870 C   0  0  0  0  0  0  0  0  0  0  0  0
   56.9913   31.5373   45.9772 H   0  0  0  0  0  0  0  0  0  0  0  0
   57.8070   32.6300   44.2910 C   0  0  0  0  0  0  0  0  0  0  0  0
   58.1999   33.4465   44.9147 H   0  0  0  0  0  0  0  0  0  0  0  0
  1  2  1  0
  2  3  2  0
  3  4  1  0
  3  5  1  0
  5  6  1  0
  5  7  2  0
  7  8  1  0
  8  9  2  3
  9 10  1  0
 10 11  1  0
 11 12  2  3
 12 13  1  0
 13 14  1  0
 13 15  1  0
 13 16  1  0
 16 17  2  0
 17 18  1  0
 17 19  1  0
 19 20  1  0
 19 21  2  0
 21 22  1  0
 21 23  1  0
 23 24  1  0
 23 25  2  0
 25 26  1  0
 11 27  1  0
 27 28  1  0
 28 29  2  0
 29 30  1  0
 30 31  2  0
 31 32  1  0
 31 33  1  0
 33 34  1  0
 33 35  2  0
 35 36  1  0
 35 37  1  0
 37 38  1  0
 38 39  2  0
 38 40  2  0
 38 41  1  0
 41 42  1  0
 41 43  1  0
 37 44  2  0
 44 45  1  0
 28 46  1  0
  7 47  1  0
 47 48  1  0
 47 49  2  0
 49 50  1  0
 49  2  1  0
 46  9  1  0
 25 16  1  0
 44 30  1  0
M  CHG  3  10  -1  27  -1  46  -1
M  END
>  <UniqueID>  (86) 
76

>  <SMILES>  (86) 
NS(=O)(=O)c1cccc(/N=c2/[n-]c(=NCc3ccccc3)[n-]c(=Nc3ccccc3)[n-]2)c1

>  <Energy>  (86) 
64.64021683507713

>  <Genealogy>  (86) 
NS(=O)(=O)c1cccc(N=c2[n-]c(=NCc3ccccc3)[n-]c(=Nc3ccccc3)[n-]2)c1 (protonated)
NS(=O)(=O)c1cccc(/N=c2/[n-]c(=NCc3ccccc3)[n-]c(=Nc3ccccc3)[n-]2)c1 (cis-trans isomerization)
NS(=O)(=O)c1cccc(/N=c2/[n-]c(=NCc3ccccc3)[n-]c(=Nc3ccccc3)[n-]2)c1 (3D coordinates assigned)
NS(=O)(=O)c1cccc(/N=c2/[n-]c(=NCc3ccccc3)[n-]c(=Nc3ccccc3)[n-]2)c1 (optimized conformer: 64.64021683507713 kcal/mol)

>  <smiles>  (86) 
NS(=O)(=O)c1cccc(N=c2[nH]c(=NCc3ccccc3)[nH]c(=Nc3ccccc3)[nH]2)c1

>  <score_type>  (86) 
oracle

>  <origin>  (86) 
adg

>  <m_score__min__energy>  (86) 
-14.73

>  <m_primary>  (86) 
energy

$$$$
87:0
     RDKit          3D

 67 70  0  0  0  0  0  0  0  0999 V2000
   58.8860   30.1450   50.5490 C   0  0  0  0  0  0  0  0  0  0  0  0
   59.1410   30.9050   49.3160 N   0  0  0  0  0  0  0  0  0  0  0  0
   59.0760   32.3650   49.5180 C   0  0  0  0  0  0  0  0  0  0  0  0
   59.0110   33.0770   48.1890 C   0  0  0  0  0  0  0  0  0  0  0  0
   59.6190   34.3320   48.0360 C   0  0  0  0  0  0  0  0  0  0  0  0
   59.5930   34.9840   46.8020 C   0  0  0  0  0  0  0  0  0  0  0  0
   58.9620   34.3890   45.7020 C   0  0  0  0  0  0  0  0  0  0  0  0
   58.9410   35.0590   44.5220 F   0  0  0  0  0  0  0  0  0  0  0  0
   58.3300   33.1320   45.8370 C   0  0  0  0  0  0  0  0  0  0  0  0
   57.6120   32.5130   44.7000 C   0  0  0  0  0  0  0  0  0  0  0  0
   57.5910   33.0880   43.5800 O   0  0  0  0  0  0  0  0  0  0  0  0
   56.9750   31.2370   44.8690 N   0  0  0  0  0  0  0  0  0  0  0  0
   57.6090   29.9540   44.9840 C   0  0  0  0  0  0  0  0  0  0  0  0
   58.8930   29.7960   44.4470 C   0  0  0  0  0  0  0  0  0  0  0  0
   59.5730   28.5850   44.5790 C   0  0  0  0  0  0  0  0  0  0  0  0
   58.9790   27.5180   45.2520 C   0  0  0  0  0  0  0  0  0  0  0  0
   57.6980   27.6560   45.8060 C   0  0  0  0  0  0  0  0  0  0  0  0
   57.0360   26.4910   46.4950 C   0  0  0  0  0  0  0  0  0  0  0  0
   55.6560   26.3510   46.0370 N   0  0  0  0  0  0  0  0  0  0  0  0
   55.0950   25.1030   45.6170 C   0  0  0  0  0  0  0  0  0  0  0  0
   53.8420   24.9910   45.5100 O   0  0  0  0  0  0  0  0  0  0  0  0
   55.9350   24.0170   45.3480 O   0  0  0  0  0  0  0  0  0  0  0  0
   56.5180   23.7860   44.0680 C   0  0  0  0  0  0  0  0  0  0  0  0
   57.0240   22.3730   43.9380 C   0  0  0  0  0  0  0  0  0  0  0  0
   56.0510   22.0410   42.9780 O   0  0  0  0  0  0  0  0  0  0  0  0
   55.5130   23.3410   43.0360 C   0  0  0  0  0  0  0  0  0  0  0  0
   57.0190   28.8780   45.6750 C   0  0  0  0  0  0  0  0  0  0  0  0
   58.3580   32.4880   47.0910 C   0  0  0  0  0  0  0  0  0  0  0  0
   60.6280   30.3830   48.5390 S   0  0  0  0  0  0  0  0  0  0  0  0
   61.1440   29.2640   49.3960 O   0  0  0  0  0  0  0  0  0  0  0  0
   60.3380   29.8290   47.1720 O   0  0  0  0  0  0  0  0  0  0  0  0
   61.8660   31.6670   48.3690 C   0  0  0  0  0  0  0  0  0  0  0  0
   62.0540   32.2290   47.0930 C   0  0  0  0  0  0  0  0  0  0  0  0
   62.9540   33.2730   46.8880 C   0  0  0  0  0  0  0  0  0  0  0  0
   63.7060   33.7620   47.9480 C   0  0  0  0  0  0  0  0  0  0  0  0
   63.5920   33.1790   49.2100 C   0  0  0  0  0  0  0  0  0  0  0  0
   62.7060   32.1080   49.4370 C   0  0  0  0  0  0  0  0  0  0  0  0
   62.7450   31.3280   51.0340 S   0  0  0  0  0  0  0  0  0  0  0  0
   63.8650   32.1370   52.1600 C   0  0  0  0  0  0  0  0  0  0  0  0
   61.3710   31.3520   51.6430 O   0  0  0  0  0  0  0  0  0  0  0  0
   63.2210   29.9070   50.8950 O   0  0  0  0  0  0  0  0  0  0  0  0
   59.0990   30.7798   51.4217 H   0  0  0  0  0  0  0  0  0  0  0  0
   57.8326   29.8291   50.5738 H   0  0  0  0  0  0  0  0  0  0  0  0
   59.5356   29.2577   50.5738 H   0  0  0  0  0  0  0  0  0  0  0  0
   58.1786   32.6102   50.1049 H   0  0  0  0  0  0  0  0  0  0  0  0
   59.9791   32.6918   50.0544 H   0  0  0  0  0  0  0  0  0  0  0  0
   60.1193   34.8052   48.8938 H   0  0  0  0  0  0  0  0  0  0  0  0
   60.0700   35.9692   46.6929 H   0  0  0  0  0  0  0  0  0  0  0  0
   59.3692   30.6339   43.9167 H   0  0  0  0  0  0  0  0  0  0  0  0
   60.5800   28.4717   44.1512 H   0  0  0  0  0  0  0  0  0  0  0  0
   59.5175   26.5637   45.3488 H   0  0  0  0  0  0  0  0  0  0  0  0
   57.5906   25.5695   46.2641 H   0  0  0  0  0  0  0  0  0  0  0  0
   57.0373   26.6685   47.5806 H   0  0  0  0  0  0  0  0  0  0  0  0
   57.1402   24.6868   43.9610 H   0  0  0  0  0  0  0  0  0  0  0  0
   58.0542   22.3097   43.5577 H   0  0  0  0  0  0  0  0  0  0  0  0
   57.1115   21.7538   44.8430 H   0  0  0  0  0  0  0  0  0  0  0  0
   55.5881   23.8896   42.0855 H   0  0  0  0  0  0  0  0  0  0  0  0
   54.4408   23.4652   43.2479 H   0  0  0  0  0  0  0  0  0  0  0  0
   56.0181   28.9959   46.1157 H   0  0  0  0  0  0  0  0  0  0  0  0
   57.8632   31.5131   47.2122 H   0  0  0  0  0  0  0  0  0  0  0  0
   61.4796   31.8368   46.2408 H   0  0  0  0  0  0  0  0  0  0  0  0
   63.0689   33.7103   45.8852 H   0  0  0  0  0  0  0  0  0  0  0  0
   64.3911   34.6085   47.7926 H   0  0  0  0  0  0  0  0  0  0  0  0
   64.2034   33.5615   50.0406 H   0  0  0  0  0  0  0  0  0  0  0  0
   63.5643   31.9198   53.1956 H   0  0  0  0  0  0  0  0  0  0  0  0
   64.8869   31.7672   51.9897 H   0  0  0  0  0  0  0  0  0  0  0  0
   63.8351   33.2233   51.9897 H   0  0  0  0  0  0  0  0  0  0  0  0
  1  2  1  0
  2  3  1  0
  3  4  1  0
  4  5  2  0
  5  6  1  0
  6  7  2  0
  7  8  1  0
  7  9  1  0
  9 10  1  0
 10 11  2  0
 10 12  1  0
 12 13  1  0
 13 14  2  0
 14 15  1  0
 15 16  2  0
 16 17  1  0
 17 18  1  0
 18 19  1  0
 19 20  1  0
 20 21  2  0
 20 22  1  0
 22 23  1  0
 23 24  1  0
 24 25  1  0
 25 26  1  0
 17 27  2  0
  9 28  2  0
  2 29  1  0
 29 30  2  0
 29 31  2  0
 29 32  1  0
 32 33  2  0
 33 34  1  0
 34 35  2  0
 35 36  1  0
 36 37  2  0
 37 38  1  0
 38 39  1  0
 38 40  2  0
 38 41  2  0
 28  4  1  0
 37 32  1  0
 27 13  1  0
 26 23  1  0
  1 42  1  0
  1 43  1  0
  1 44  1  0
  3 45  1  0
  3 46  1  0
  5 47  1  0
  6 48  1  0
 14 49  1  0
 15 50  1  0
 16 51  1  0
 18 52  1  0
 18 53  1  0
 23 54  1  0
 24 55  1  0
 24 56  1  0
 26 57  1  0
 26 58  1  0
 27 59  1  0
 28 60  1  0
 33 61  1  0
 34 62  1  0
 35 63  1  0
 36 64  1  0
 39 65  1  0
 39 66  1  0
 39 67  1  0
M  CHG  2  12  -1  19  -1
M  END
>  <UniqueID>  (87) 
77

>  <SMILES>  (87) 
CN(Cc1ccc(F)c(C(=O)[N-]c2cccc(C[N-]C(=O)OC3COC3)c2)c1)S(=O)(=O)c1ccccc1S(C)(=O)=O

>  <Energy>  (87) 
142.55133084091108

>  <Genealogy>  (87) 
CN(Cc1ccc(F)c(C(=O)[N-]c2cccc(C[N-]C(=O)OC3COC3)c2)c1)S(=O)(=O)c1ccccc1S(C)(=O)=O (protonated)
CN(Cc1ccc(F)c(C(=O)[N-]c2cccc(C[N-]C(=O)OC3COC3)c2)c1)S(=O)(=O)c1ccccc1S(C)(=O)=O (3D coordinates assigned)
CN(Cc1ccc(F)c(C(=O)[N-]c2cccc(C[N-]C(=O)OC3COC3)c2)c1)S(=O)(=O)c1ccccc1S(C)(=O)=O (nonaromatic ring conformer: 142.55133084091108 kcal/mol)

>  <smiles>  (87) 
CN(Cc1ccc(F)c(C(=O)Nc2cccc(CNC(=O)OC3COC3)c2)c1)S(=O)(=O)c1ccccc1S(C)(=O)=O

>  <score_type>  (87) 
oracle

>  <origin>  (87) 
adg

>  <m_score__min__energy>  (87) 
-13.710000000000001

>  <m_primary>  (87) 
energy

$$$$
88:0
     RDKit          3D

 43 44  0  0  0  0  0  0  0  0999 V2000
   59.9700   22.5520   45.1090 C   0  0  0  0  0  0  0  0  0  0  0  0
   58.5030   22.3000   44.7320 C   0  0  0  0  0  0  0  0  0  0  0  0
   57.8430   21.3310   45.7220 C   0  0  0  0  0  0  0  0  0  0  0  0
   57.7050   23.6140   44.5390 C   0  0  0  0  0  0  0  0  0  0  0  0
   56.4750   23.5150   43.6080 C   0  0  1  0  0  0  0  0  0  0  0  0
   56.2910   22.0940   43.1520 C   0  0  0  0  0  0  0  0  0  0  0  0
   55.7660   21.8550   42.0760 O   0  0  0  0  0  0  0  0  0  0  0  0
   55.2750   23.9450   44.3260 N   0  0  0  0  0  0  0  0  0  0  0  0
   54.6870   23.2870   45.4560 C   0  0  0  0  0  0  0  0  0  0  0  0
   53.9400   22.2940   45.2550 O   0  0  0  0  0  0  0  0  0  0  0  0
   54.9480   23.7260   46.8710 C   0  0  0  0  0  0  0  0  0  0  0  0
   56.0300   24.7110   46.9270 N   0  0  0  0  0  0  0  0  0  0  0  0
   57.2900   24.5070   47.3610 C   0  0  0  0  0  0  0  0  0  0  0  0
   57.7530   23.3000   47.8700 O   0  0  0  0  0  0  0  0  0  0  0  0
   58.0540   25.6490   47.2270 C   0  0  0  0  0  0  0  0  0  0  0  0
   57.2170   26.6070   46.6720 C   0  0  0  0  0  0  0  0  0  0  0  0
   57.5830   28.0050   46.3470 C   0  0  0  0  0  0  0  0  0  0  0  0
   58.5000   28.7030   47.1550 C   0  0  0  0  0  0  0  0  0  0  0  0
   58.8440   30.0260   46.8570 C   0  0  0  0  0  0  0  0  0  0  0  0
   58.2720   30.6680   45.7560 C   0  0  0  0  0  0  0  0  0  0  0  0
   58.6140   31.9820   45.4620 O   0  0  0  0  0  0  0  0  0  0  0  0
   57.3520   29.9880   44.9530 C   0  0  0  0  0  0  0  0  0  0  0  0
   57.0060   28.6650   45.2460 C   0  0  0  0  0  0  0  0  0  0  0  0
   55.9910   25.9840   46.4860 C   0  0  0  0  0  0  0  0  0  0  0  0
   54.8700   26.5630   45.9000 O   0  0  0  0  0  0  0  0  0  0  0  0
   60.0694   22.5691   46.2044 H   0  0  0  0  0  0  0  0  0  0  0  0
   60.5978   21.7486   44.6964 H   0  0  0  0  0  0  0  0  0  0  0  0
   60.2937   23.5189   44.6964 H   0  0  0  0  0  0  0  0  0  0  0  0
   58.4898   21.8105   43.7470 H   0  0  0  0  0  0  0  0  0  0  0  0
   58.0620   21.6525   46.7509 H   0  0  0  0  0  0  0  0  0  0  0  0
   56.7546   21.3286   45.5624 H   0  0  0  0  0  0  0  0  0  0  0  0
   58.2393   20.3174   45.5624 H   0  0  0  0  0  0  0  0  0  0  0  0
   57.3558   23.9467   45.5276 H   0  0  0  0  0  0  0  0  0  0  0  0
   58.3960   24.3183   44.0526 H   0  0  0  0  0  0  0  0  0  0  0  0
   56.6374   24.1640   42.7348 H   0  0  0  0  0  0  0  0  0  0  0  0
   56.6311   21.2658   43.7910 H   0  0  0  0  0  0  0  0  0  0  0  0
   54.0320   24.1750   47.2825 H   0  0  0  0  0  0  0  0  0  0  0  0
   55.2461   22.8462   47.4601 H   0  0  0  0  0  0  0  0  0  0  0  0
   59.1112   25.7742   47.5038 H   0  0  0  0  0  0  0  0  0  0  0  0
   58.9493   28.2049   48.0268 H   0  0  0  0  0  0  0  0  0  0  0  0
   59.5661   30.5616   47.4908 H   0  0  0  0  0  0  0  0  0  0  0  0
   56.8989   30.4948   44.0882 H   0  0  0  0  0  0  0  0  0  0  0  0
   56.2784   28.1370   44.6120 H   0  0  0  0  0  0  0  0  0  0  0  0
  1  2  1  0
  2  3  1  0
  2  4  1  0
  4  5  1  0
  5  6  1  0
  6  7  2  0
  5  8  1  0
  8  9  1  0
  9 10  2  0
  9 11  1  0
 11 12  1  0
 12 13  1  0
 13 14  1  0
 13 15  2  0
 15 16  1  0
 16 17  1  0
 17 18  2  0
 18 19  1  0
 19 20  2  0
 20 21  1  0
 20 22  1  0
 22 23  2  0
 16 24  2  0
 24 25  1  0
 24 12  1  0
 23 17  1  0
  1 26  1  0
  1 27  1  0
  1 28  1  0
  2 29  1  0
  3 30  1  0
  3 31  1  0
  3 32  1  0
  4 33  1  0
  4 34  1  0
  5 35  1  6
  6 36  1  0
 11 37  1  0
 11 38  1  0
 15 39  1  0
 18 40  1  0
 19 41  1  0
 22 42  1  0
 23 43  1  0
M  CHG  4   8  -1  14  -1  21  -1  25  -1
M  END
>  <UniqueID>  (88) 
78

>  <SMILES>  (88) 
CC(C)C[C@@H](C=O)[N-]C(=O)Cn1c([O-])cc(-c2ccc([O-])cc2)c1[O-]

>  <Energy>  (88) 
66.36983709011723

>  <Genealogy>  (88) 
CC(C)CC(C=O)[N-]C(=O)Cn1c([O-])cc(-c2ccc([O-])cc2)c1[O-] (protonated)
CC(C)C[C@@H](C=O)[N-]C(=O)Cn1c([O-])cc(-c2ccc([O-])cc2)c1[O-] (chirality)
CC(C)C[C@@H](C=O)[N-]C(=O)Cn1c([O-])cc(-c2ccc([O-])cc2)c1[O-] (3D coordinates assigned)
CC(C)C[C@@H](C=O)[N-]C(=O)Cn1c([O-])cc(-c2ccc([O-])cc2)c1[O-] (optimized conformer: 66.36983709011723 kcal/mol)

>  <smiles>  (88) 
CC(C)CC(C=O)NC(=O)Cn1c(O)cc(-c2ccc(O)cc2)c1O

>  <score_type>  (88) 
oracle

>  <origin>  (88) 
adg

>  <m_score__min__energy>  (88) 
-14.48

>  <m_primary>  (88) 
energy

$$$$
89:0
     RDKit          3D

 77 81  0  0  0  0  0  0  0  0999 V2000
   61.5820   28.7080   51.6490 C   0  0  0  0  0  0  0  0  0  0  0  0
   61.3100   30.1760   51.7510 C   0  0  0  0  0  0  0  0  0  0  0  0
   62.0590   30.9630   52.5710 N   0  0  0  0  0  0  0  0  0  0  0  0
   61.7150   32.2670   52.4980 C   0  0  0  0  0  0  0  0  0  0  0  0
   60.4620   32.4970   51.4070 S   0  0  0  0  0  0  0  0  0  0  0  0
   60.3290   30.8640   51.0220 C   0  0  0  0  0  0  0  0  0  0  0  0
   59.3580   30.3280   50.0500 C   0  0  0  0  0  0  0  0  0  0  0  0
   58.2140   29.9930   50.4640 O   0  0  0  0  0  0  0  0  0  0  0  0
   59.7120   30.1520   48.6700 N   0  0  0  0  0  0  0  0  0  0  0  0
   58.7920   29.7390   47.6460 C   0  0  0  0  0  0  0  0  0  0  0  0
   58.4670   28.3860   47.4520 C   0  0  0  0  0  0  0  0  0  0  0  0
   57.5850   28.0140   46.4350 C   0  0  0  0  0  0  0  0  0  0  0  0
   57.0410   28.9820   45.5850 C   0  0  0  0  0  0  0  0  0  0  0  0
   56.1620   28.5960   44.5800 O   0  0  0  0  0  0  0  0  0  0  0  0
   57.3900   30.3330   45.7350 C   0  0  0  0  0  0  0  0  0  0  0  0
   56.8230   31.3020   44.8400 N   0  0  0  0  0  0  0  0  0  0  0  0
   57.4110   32.5460   44.4440 C   0  0  0  0  0  0  0  0  0  0  0  0
   57.9080   32.6830   43.2920 O   0  0  0  0  0  0  0  0  0  0  0  0
   57.3740   33.7030   45.4050 C   0  0  0  0  0  0  0  0  0  0  0  0
   58.6220   33.7850   46.2470 C   0  0  0  0  0  0  0  0  0  0  0  0
   59.8840   33.7220   45.6360 C   0  0  0  0  0  0  0  0  0  0  0  0
   61.0430   33.6940   46.4150 C   0  0  0  0  0  0  0  0  0  0  0  0
   60.9560   33.7260   47.8140 C   0  0  0  0  0  0  0  0  0  0  0  0
   62.1320   33.6560   48.6300 N   0  0  0  0  0  0  0  0  0  0  0  0
   62.8450   32.4550   48.9500 C   0  0  0  0  0  0  0  0  0  0  0  0
   62.6020   31.4120   48.2840 O   0  0  0  0  0  0  0  0  0  0  0  0
   63.9590   32.4400   49.9760 C   0  0  2  0  0  0  0  0  0  0  0  0
   65.2420   33.0800   49.4040 C   0  0  0  0  0  0  0  0  0  0  0  0
   66.5270   32.6480   50.1440 C   0  0  0  0  0  0  0  0  0  0  0  0
   66.2550   32.1250   51.5580 C   0  0  0  0  0  0  0  0  0  0  0  0
   65.2730   31.0290   51.5240 N   0  0  0  0  0  0  0  0  0  0  0  0
   65.3190   29.9620   52.4910 C   0  0  0  0  0  0  0  0  0  0  0  0
   64.3990   29.0980   52.5030 O   0  0  0  0  0  0  0  0  0  0  0  0
   66.4680   29.8310   53.4600 C   0  0  0  0  0  0  0  0  0  0  0  0
   66.9310   28.3760   53.6020 C   0  0  0  0  0  0  0  0  0  0  0  0
   67.2380   27.7800   52.2540 C   0  0  0  0  0  0  0  0  0  0  0  0
   68.2350   28.3450   51.4410 C   0  0  0  0  0  0  0  0  0  0  0  0
   68.5050   27.8040   50.1800 C   0  0  0  0  0  0  0  0  0  0  0  0
   67.7760   26.7050   49.7200 C   0  0  0  0  0  0  0  0  0  0  0  0
   66.7720   26.1480   50.5160 C   0  0  0  0  0  0  0  0  0  0  0  0
   66.4990   26.6850   51.7780 C   0  0  0  0  0  0  0  0  0  0  0  0
   64.2260   31.0160   50.4910 C   0  0  0  0  0  0  0  0  0  0  0  0
   59.7030   33.8450   48.4230 C   0  0  0  0  0  0  0  0  0  0  0  0
   58.5400   33.8570   47.6460 C   0  0  0  0  0  0  0  0  0  0  0  0
   58.2560   30.7050   46.7820 C   0  0  0  0  0  0  0  0  0  0  0  0
   61.6615   28.2788   52.6587 H   0  0  0  0  0  0  0  0  0  0  0  0
   60.7591   28.2194   51.1067 H   0  0  0  0  0  0  0  0  0  0  0  0
   62.5253   28.5467   51.1067 H   0  0  0  0  0  0  0  0  0  0  0  0
   62.1929   33.0710   53.0769 H   0  0  0  0  0  0  0  0  0  0  0  0
   60.6780   30.4000   48.3640 H   0  0  0  0  0  0  0  0  0  0  0  0
   58.9086   27.6172   48.1032 H   0  0  0  0  0  0  0  0  0  0  0  0
   57.3172   26.9554   46.3021 H   0  0  0  0  0  0  0  0  0  0  0  0
   57.2716   34.6363   44.8318 H   0  0  0  0  0  0  0  0  0  0  0  0
   56.5198   33.5525   46.0816 H   0  0  0  0  0  0  0  0  0  0  0  0
   59.9606   33.6946   44.5390 H   0  0  0  0  0  0  0  0  0  0  0  0
   62.0285   33.6466   45.9287 H   0  0  0  0  0  0  0  0  0  0  0  0
   63.6344   33.0447   50.8356 H   0  0  0  0  0  0  0  0  0  0  0  0
   65.3345   32.7902   48.3469 H   0  0  0  0  0  0  0  0  0  0  0  0
   65.1455   34.1684   49.5305 H   0  0  0  0  0  0  0  0  0  0  0  0
   67.0152   31.8515   49.5633 H   0  0  0  0  0  0  0  0  0  0  0  0
   67.1673   33.5374   50.2391 H   0  0  0  0  0  0  0  0  0  0  0  0
   67.1948   31.7552   51.9939 H   0  0  0  0  0  0  0  0  0  0  0  0
   65.8501   32.9457   52.1683 H   0  0  0  0  0  0  0  0  0  0  0  0
   67.3102   30.4388   53.0977 H   0  0  0  0  0  0  0  0  0  0  0  0
   66.1248   30.1781   54.4458 H   0  0  0  0  0  0  0  0  0  0  0  0
   67.8369   28.3448   54.2252 H   0  0  0  0  0  0  0  0  0  0  0  0
   66.1245   27.7929   54.0705 H   0  0  0  0  0  0  0  0  0  0  0  0
   68.8050   29.2156   51.7975 H   0  0  0  0  0  0  0  0  0  0  0  0
   69.2920   28.2443   49.5500 H   0  0  0  0  0  0  0  0  0  0  0  0
   67.9926   26.2775   48.7299 H   0  0  0  0  0  0  0  0  0  0  0  0
   66.1955   25.2859   50.1495 H   0  0  0  0  0  0  0  0  0  0  0  0
   65.7032   26.2485   52.3995 H   0  0  0  0  0  0  0  0  0  0  0  0
   64.5527   30.3833   49.6526 H   0  0  0  0  0  0  0  0  0  0  0  0
   63.2993   30.6168   50.9291 H   0  0  0  0  0  0  0  0  0  0  0  0
   59.6316   33.9295   49.5174 H   0  0  0  0  0  0  0  0  0  0  0  0
   57.5564   33.9232   48.1340 H   0  0  0  0  0  0  0  0  0  0  0  0
   58.5146   31.7648   46.9234 H   0  0  0  0  0  0  0  0  0  0  0  0
  1  2  1  0
  2  3  1  0
  3  4  2  0
  4  5  1  0
  5  6  1  0
  6  7  1  0
  7  8  2  0
  7  9  1  0
  9 10  1  0
 10 11  2  0
 11 12  1  0
 12 13  2  0
 13 14  1  0
 13 15  1  0
 15 16  1  0
 16 17  1  0
 17 18  2  0
 17 19  1  0
 19 20  1  0
 20 21  2  0
 21 22  1  0
 22 23  2  0
 23 24  1  0
 24 25  1  0
 25 26  2  0
 25 27  1  0
 27 28  1  0
 28 29  1  0
 29 30  1  0
 30 31  1  0
 31 32  1  0
 32 33  2  0
 32 34  1  0
 34 35  1  0
 35 36  1  0
 36 37  2  0
 37 38  1  0
 38 39  2  0
 39 40  1  0
 40 41  2  0
 31 42  1  0
 23 43  1  0
 43 44  2  0
 15 45  2  0
  6  2  2  0
 45 10  1  0
 44 20  1  0
 42 27  1  0
 41 36  1  0
  1 46  1  0
  1 47  1  0
  1 48  1  0
  4 49  1  0
  9 50  1  0
 11 51  1  0
 12 52  1  0
 19 53  1  0
 19 54  1  0
 21 55  1  0
 22 56  1  0
 27 57  1  1
 28 58  1  0
 28 59  1  0
 29 60  1  0
 29 61  1  0
 30 62  1  0
 30 63  1  0
 34 64  1  0
 34 65  1  0
 35 66  1  0
 35 67  1  0
 37 68  1  0
 38 69  1  0
 39 70  1  0
 40 71  1  0
 41 72  1  0
 42 73  1  0
 42 74  1  0
 43 75  1  0
 44 76  1  0
 45 77  1  0
M  CHG  3  14  -1  16  -1  24  -1
M  END
>  <UniqueID>  (89) 
79

>  <SMILES>  (89) 
Cc1ncsc1C(=O)Nc1ccc([O-])c([N-]C(=O)Cc2ccc([N-]C(=O)[C@@H]3CCCN(C(=O)CCc4ccccc4)C3)cc2)c1

>  <Energy>  (89) 
126.98997213295273

>  <Genealogy>  (89) 
Cc1ncsc1C(=O)Nc1ccc([O-])c([N-]C(=O)Cc2ccc([N-]C(=O)C3CCCN(C(=O)CCc4ccccc4)C3)cc2)c1 (protonated)
Cc1ncsc1C(=O)Nc1ccc([O-])c([N-]C(=O)Cc2ccc([N-]C(=O)[C@@H]3CCCN(C(=O)CCc4ccccc4)C3)cc2)c1 (chirality)
Cc1ncsc1C(=O)Nc1ccc([O-])c([N-]C(=O)Cc2ccc([N-]C(=O)[C@@H]3CCCN(C(=O)CCc4ccccc4)C3)cc2)c1 (3D coordinates assigned)
Cc1ncsc1C(=O)Nc1ccc([O-])c([N-]C(=O)Cc2ccc([N-]C(=O)[C@@H]3CCCN(C(=O)CCc4ccccc4)C3)cc2)c1 (nonaromatic ring conformer: 126.98997213295273 kcal/mol)

>  <smiles>  (89) 
Cc1ncsc1C(=O)Nc1ccc(O)c(NC(=O)Cc2ccc(NC(=O)C3CCCN(C(=O)CCc4ccccc4)C3)cc2)c1

>  <score_type>  (89) 
oracle

>  <origin>  (89) 
adg

>  <m_score__min__energy>  (89) 
-15.710000000000001

>  <m_primary>  (89) 
energy

$$$$
90:0
     RDKit          3D

 39 41  0  0  0  0  0  0  0  0999 V2000
   55.1130   26.2190   45.9710 N   0  0  0  0  0  0  0  0  0  0  0  0
   56.8350   26.3350   45.8770 S   0  0  0  0  0  0  0  0  0  0  0  0
   57.3390   25.4480   44.7730 O   0  0  0  0  0  0  0  0  0  0  0  0
   57.4380   25.8770   47.1760 O   0  0  0  0  0  0  0  0  0  0  0  0
   57.2960   28.0040   45.5630 C   0  0  0  0  0  0  0  0  0  0  0  0
   56.4610   28.8350   44.8050 C   0  0  0  0  0  0  0  0  0  0  0  0
   56.8300   30.1570   44.5440 C   0  0  0  0  0  0  0  0  0  0  0  0
   58.0400   30.6660   45.0440 C   0  0  0  0  0  0  0  0  0  0  0  0
   58.4540   32.0800   44.7360 C   0  0  0  0  0  0  0  0  0  0  0  0
   57.5170   33.0760   45.4140 C   0  0  0  0  0  0  0  0  0  0  0  0
   57.8780   34.4320   45.0240 N   0  0  0  0  0  0  0  0  0  0  0  0
   59.0880   35.0670   45.4490 C   0  0  0  0  0  0  0  0  0  0  0  0
   59.5010   36.0940   44.8430 O   0  0  0  0  0  0  0  0  0  0  0  0
   59.8520   34.5240   46.5950 C   0  0  0  0  0  0  0  0  0  0  0  0
   59.3100   34.5550   47.8970 C   0  0  0  0  0  0  0  0  0  0  0  0
   60.0280   34.0410   48.9810 C   0  0  0  0  0  0  0  0  0  0  0  0
   61.2950   33.4900   48.7810 C   0  0  0  0  0  0  0  0  0  0  0  0
   62.0050   32.9830   49.8240 N   0  0  0  0  0  0  0  0  0  0  0  0
   63.2390   32.4420   49.6370 C   0  0  0  0  0  0  0  0  0  0  0  0
   63.7890   32.4050   48.3530 C   0  0  0  0  0  0  0  0  0  0  0  0
   63.0840   32.9110   47.3060 N   0  0  0  0  0  0  0  0  0  0  0  0
   61.8500   33.4530   47.4860 C   0  0  0  0  0  0  0  0  0  0  0  0
   61.1320   33.9650   46.4010 C   0  0  0  0  0  0  0  0  0  0  0  0
   58.8860   29.8260   45.7850 C   0  0  0  0  0  0  0  0  0  0  0  0
   58.5140   28.5040   46.0460 C   0  0  0  0  0  0  0  0  0  0  0  0
   54.7710   27.1020   46.4140 H   0  0  0  0  0  0  0  0  0  0  0  0
   55.5101   28.4447   44.4133 H   0  0  0  0  0  0  0  0  0  0  0  0
   56.1704   30.8018   43.9446 H   0  0  0  0  0  0  0  0  0  0  0  0
   59.4792   32.2435   45.0996 H   0  0  0  0  0  0  0  0  0  0  0  0
   58.4062   32.2336   43.6478 H   0  0  0  0  0  0  0  0  0  0  0  0
   56.4808   32.8707   45.1071 H   0  0  0  0  0  0  0  0  0  0  0  0
   57.6054   32.9748   46.5058 H   0  0  0  0  0  0  0  0  0  0  0  0
   58.3122   34.9880   48.0611 H   0  0  0  0  0  0  0  0  0  0  0  0
   59.5945   34.0708   49.9915 H   0  0  0  0  0  0  0  0  0  0  0  0
   63.8005   32.0361   50.4914 H   0  0  0  0  0  0  0  0  0  0  0  0
   64.7859   31.9694   48.1902 H   0  0  0  0  0  0  0  0  0  0  0  0
   61.5676   33.9316   45.3915 H   0  0  0  0  0  0  0  0  0  0  0  0
   59.8456   30.2096   46.1618 H   0  0  0  0  0  0  0  0  0  0  0  0
   59.1793   27.8533   46.6326 H   0  0  0  0  0  0  0  0  0  0  0  0
  1  2  1  0
  2  3  2  0
  2  4  2  0
  2  5  1  0
  5  6  2  0
  6  7  1  0
  7  8  2  0
  8  9  1  0
  9 10  1  0
 10 11  1  0
 11 12  1  0
 12 13  2  0
 12 14  1  0
 14 15  2  0
 15 16  1  0
 16 17  2  0
 17 18  1  0
 18 19  2  0
 19 20  1  0
 20 21  2  0
 21 22  1  0
 22 23  2  0
  8 24  1  0
 24 25  2  0
 25  5  1  0
 23 14  1  0
 22 17  1  0
  1 26  1  0
  6 27  1  0
  7 28  1  0
  9 29  1  0
  9 30  1  0
 10 31  1  0
 10 32  1  0
 15 33  1  0
 16 34  1  0
 19 35  1  0
 20 36  1  0
 23 37  1  0
 24 38  1  0
 25 39  1  0
M  CHG  2   1  -1  11  -1
M  END
>  <UniqueID>  (90) 
80

>  <SMILES>  (90) 
[NH-]S(=O)(=O)c1ccc(CC[N-]C(=O)c2ccc3nccnc3c2)cc1

>  <Energy>  (90) 
41.141960477864856

>  <Genealogy>  (90) 
[NH-]S(=O)(=O)c1ccc(CC[N-]C(=O)c2ccc3nccnc3c2)cc1 (protonated)
[NH-]S(=O)(=O)c1ccc(CC[N-]C(=O)c2ccc3nccnc3c2)cc1 (3D coordinates assigned)
[NH-]S(=O)(=O)c1ccc(CC[N-]C(=O)c2ccc3nccnc3c2)cc1 (optimized conformer: 41.141960477864856 kcal/mol)

>  <smiles>  (90) 
NS(=O)(=O)c1ccc(CCNC(=O)c2ccc3nccnc3c2)cc1

>  <score_type>  (90) 
oracle

>  <origin>  (90) 
adg

>  <m_score__min__energy>  (90) 
-12.16

>  <m_primary>  (90) 
energy

$$$$
91:0
     RDKit          3D

 61 64  0  0  0  0  0  0  0  0999 V2000
   63.3530   33.5540   46.3780 C   0  0  0  0  0  0  0  0  0  0  0  0
   62.6540   33.7680   47.6930 C   0  0  0  0  0  0  0  0  0  0  0  0
   63.4060   34.1420   48.8220 C   0  0  0  0  0  0  0  0  0  0  0  0
   62.7800   34.3470   50.0540 C   0  0  0  0  0  0  0  0  0  0  0  0
   61.4030   34.1690   50.1760 C   0  0  0  0  0  0  0  0  0  0  0  0
   60.6440   33.7870   49.0670 C   0  0  0  0  0  0  0  0  0  0  0  0
   61.2550   33.5900   47.8150 C   0  0  0  0  0  0  0  0  0  0  0  0
   60.4710   33.1590   46.6870 N   0  0  0  0  0  0  0  0  0  0  0  0
   59.3050   33.8530   46.2240 C   0  0  0  0  0  0  0  0  0  0  0  0
   59.0370   35.0060   46.6610 O   0  0  0  0  0  0  0  0  0  0  0  0
   58.5180   33.2690   45.2230 O   0  0  0  0  0  0  0  0  0  0  0  0
   58.2070   31.9040   45.1370 C   0  0  0  0  0  0  0  0  0  0  0  0
   57.4510   31.4560   44.0490 C   0  0  0  0  0  0  0  0  0  0  0  0
   57.1080   30.1060   43.9320 C   0  0  0  0  0  0  0  0  0  0  0  0
   57.5250   29.1780   44.8990 C   0  0  0  0  0  0  0  0  0  0  0  0
   58.3140   29.6200   45.9680 C   0  0  0  0  0  0  0  0  0  0  0  0
   58.6600   30.9710   46.0870 C   0  0  0  0  0  0  0  0  0  0  0  0
   58.8850   28.4620   47.1360 S   0  0  0  0  0  0  0  0  0  0  0  0
   60.3670   28.2640   46.9850 O   0  0  0  0  0  0  0  0  0  0  0  0
   58.5570   28.9330   48.5240 O   0  0  0  0  0  0  0  0  0  0  0  0
   58.0630   26.9800   46.8240 N   0  0  0  0  0  0  0  0  0  0  0  0
   57.3250   26.7760   45.7750 C   0  0  0  0  0  0  0  0  0  0  0  0
   56.6650   25.4600   45.6230 C   0  0  0  0  0  0  0  0  0  0  0  0
   57.2580   24.2160   45.4230 C   0  0  0  0  0  0  0  0  0  0  0  0
   58.7180   23.9300   45.2850 C   0  0  0  0  0  0  0  0  0  0  0  0
   56.3140   23.2510   45.3970 N   0  0  0  0  0  0  0  0  0  0  0  0
   55.1380   23.8320   45.5810 N   0  0  0  0  0  0  0  0  0  0  0  0
   53.8680   23.1090   45.6070 C   0  0  0  0  0  0  0  0  0  0  0  0
   53.7140   22.2580   46.8820 C   0  0  0  0  0  0  0  0  0  0  0  0
   54.4050   22.8000   48.1610 C   0  0  0  0  0  0  0  0  0  0  0  0
   53.5850   22.5660   49.4370 C   0  0  0  0  0  0  0  0  0  0  0  0
   55.8420   22.2870   48.3290 C   0  0  0  0  0  0  0  0  0  0  0  0
   55.3190   25.1600   45.7130 C   0  0  0  0  0  0  0  0  0  0  0  0
   54.3870   25.9820   45.9320 O   0  0  0  0  0  0  0  0  0  0  0  0
   57.1430   27.7950   44.7670 N   0  0  0  0  0  0  0  0  0  0  0  0
   64.3901   33.2365   46.5614 H   0  0  0  0  0  0  0  0  0  0  0  0
   62.8271   32.7757   45.8056 H   0  0  0  0  0  0  0  0  0  0  0  0
   63.3529   34.4933   45.8056 H   0  0  0  0  0  0  0  0  0  0  0  0
   64.4945   34.2739   48.7339 H   0  0  0  0  0  0  0  0  0  0  0  0
   63.3745   34.6492   50.9288 H   0  0  0  0  0  0  0  0  0  0  0  0
   60.9128   34.3296   51.1475 H   0  0  0  0  0  0  0  0  0  0  0  0
   59.5592   33.6390   49.1736 H   0  0  0  0  0  0  0  0  0  0  0  0
   60.7770   32.3180   46.1490 H   0  0  0  0  0  0  0  0  0  0  0  0
   57.1240   32.1711   43.2798 H   0  0  0  0  0  0  0  0  0  0  0  0
   56.5065   29.7682   43.0752 H   0  0  0  0  0  0  0  0  0  0  0  0
   59.2882   31.3041   46.9262 H   0  0  0  0  0  0  0  0  0  0  0  0
   59.1703   23.8414   46.2838 H   0  0  0  0  0  0  0  0  0  0  0  0
   58.8566   22.9876   44.7348 H   0  0  0  0  0  0  0  0  0  0  0  0
   59.2019   24.7504   44.7348 H   0  0  0  0  0  0  0  0  0  0  0  0
   53.0442   23.8367   45.5641 H   0  0  0  0  0  0  0  0  0  0  0  0
   53.8455   22.4308   44.7412 H   0  0  0  0  0  0  0  0  0  0  0  0
   52.6388   22.1668   47.0956 H   0  0  0  0  0  0  0  0  0  0  0  0
   54.2168   21.3052   46.6598 H   0  0  0  0  0  0  0  0  0  0  0  0
   54.4617   23.8880   48.0094 H   0  0  0  0  0  0  0  0  0  0  0  0
   54.2183   22.7467   50.3181 H   0  0  0  0  0  0  0  0  0  0  0  0
   52.7280   23.2555   49.4537 H   0  0  0  0  0  0  0  0  0  0  0  0
   53.2210   21.5281   49.4537 H   0  0  0  0  0  0  0  0  0  0  0  0
   56.0783   22.2026   49.4000 H   0  0  0  0  0  0  0  0  0  0  0  0
   55.9367   21.2995   47.8537 H   0  0  0  0  0  0  0  0  0  0  0  0
   56.5407   22.9912   47.8537 H   0  0  0  0  0  0  0  0  0  0  0  0
   56.6830   27.5140   43.8730 H   0  0  0  0  0  0  0  0  0  0  0  0
  1  2  1  0
  2  3  2  0
  3  4  1  0
  4  5  2  0
  5  6  1  0
  6  7  2  0
  7  8  1  0
  8  9  1  0
  9 10  2  0
  9 11  1  0
 11 12  1  0
 12 13  2  0
 13 14  1  0
 14 15  2  0
 15 16  1  0
 16 17  2  0
 16 18  1  0
 18 19  2  0
 18 20  2  0
 18 21  1  0
 21 22  2  0
 22 23  1  0
 23 24  2  0
 24 25  1  0
 24 26  1  0
 26 27  1  0
 27 28  1  0
 28 29  1  0
 29 30  1  0
 30 31  1  0
 30 32  1  0
 27 33  1  0
 33 34  2  0
 22 35  1  0
  7  2  1  0
 17 12  1  0
 33 23  1  0
 35 15  1  0
  1 36  1  0
  1 37  1  0
  1 38  1  0
  3 39  1  0
  4 40  1  0
  5 41  1  0
  6 42  1  0
  8 43  1  0
 13 44  1  0
 14 45  1  0
 17 46  1  0
 25 47  1  0
 25 48  1  0
 25 49  1  0
 28 50  1  0
 28 51  1  0
 29 52  1  0
 29 53  1  0
 30 54  1  0
 31 55  1  0
 31 56  1  0
 31 57  1  0
 32 58  1  0
 32 59  1  0
 32 60  1  0
 35 61  1  0
M  CHG  1  26  -1
M  END
>  <UniqueID>  (91) 
81

>  <SMILES>  (91) 
Cc1ccccc1NC(=O)Oc1ccc2c(c1)S(=O)(=O)N=C(c1c(C)[n-]n(CCC(C)C)c1=O)N2

>  <Energy>  (91) 
106.55416253114362

>  <Genealogy>  (91) 
Cc1ccccc1NC(=O)Oc1ccc2c(c1)S(=O)(=O)N=C(c1c(C)[n-]n(CCC(C)C)c1=O)N2 (protonated)
Cc1ccccc1NC(=O)Oc1ccc2c(c1)S(=O)(=O)N=C(c1c(C)[n-]n(CCC(C)C)c1=O)N2 (3D coordinates assigned)
Cc1ccccc1NC(=O)Oc1ccc2c(c1)S(=O)(=O)N=C(c1c(C)[n-]n(CCC(C)C)c1=O)N2 (nonaromatic ring conformer: 106.55416253114362 kcal/mol)

>  <smiles>  (91) 
Cc1ccccc1NC(=O)Oc1ccc2c(c1)S(=O)(=O)N=C(c1c(C)[nH]n(CCC(C)C)c1=O)N2

>  <score_type>  (91) 
oracle

>  <origin>  (91) 
adg

>  <m_score__min__energy>  (91) 
-10.94

>  <m_primary>  (91) 
energy

$$$$
92:0
     RDKit          3D

 43 46  0  0  0  0  0  0  0  0999 V2000
   57.1790   24.5180   48.4560 O   0  0  0  0  0  0  0  0  0  0  0  0
   57.5520   24.4980   47.2520 C   0  0  0  0  0  0  0  0  0  0  0  0
   57.7720   23.2270   46.6250 N   0  0  0  0  0  0  0  0  0  0  0  0
   57.3670   22.8600   45.2980 C   0  0  0  0  0  0  0  0  0  0  0  0
   57.9600   21.7800   44.6170 C   0  0  0  0  0  0  0  0  0  0  0  0
   57.5540   21.4600   43.3180 C   0  0  0  0  0  0  0  0  0  0  0  0
   56.5680   22.2230   42.6850 C   0  0  0  0  0  0  0  0  0  0  0  0
   55.9920   23.3090   43.3480 C   0  0  0  0  0  0  0  0  0  0  0  0
   56.3950   23.6310   44.6480 C   0  0  0  0  0  0  0  0  0  0  0  0
   57.8010   25.7770   46.5460 C   0  0  0  0  0  0  0  0  0  0  0  0
   59.1060   26.1630   46.1940 C   0  0  0  0  0  0  0  0  0  0  0  0
   59.3310   27.3800   45.5480 C   0  0  0  0  0  0  0  0  0  0  0  0
   58.2590   28.2220   45.2430 C   0  0  0  0  0  0  0  0  0  0  0  0
   56.9520   27.8470   45.5700 C   0  0  0  0  0  0  0  0  0  0  0  0
   55.8710   28.7350   45.2490 N   0  0  0  0  0  0  0  0  0  0  0  0
   55.8800   29.7180   44.2050 C   0  0  0  0  0  0  0  0  0  0  0  0
   55.0760   29.5870   43.2450 O   0  0  0  0  0  0  0  0  0  0  0  0
   56.7600   30.9050   44.2690 C   0  0  0  0  0  0  0  0  0  0  0  0
   57.3160   31.4560   43.1040 C   0  0  0  0  0  0  0  0  0  0  0  0
   58.1520   32.5700   43.1960 C   0  0  0  0  0  0  0  0  0  0  0  0
   58.4250   33.1360   44.4470 C   0  0  0  0  0  0  0  0  0  0  0  0
   59.2650   34.2510   44.5780 C   0  0  0  0  0  0  0  0  0  0  0  0
   59.5160   34.7930   45.8430 C   0  0  0  0  0  0  0  0  0  0  0  0
   58.9260   34.2280   46.9800 C   0  0  0  0  0  0  0  0  0  0  0  0
   58.0850   33.1170   46.8570 C   0  0  0  0  0  0  0  0  0  0  0  0
   57.8360   32.5650   45.5960 C   0  0  0  0  0  0  0  0  0  0  0  0
   57.0290   31.4780   45.4750 N   0  0  0  0  0  0  0  0  0  0  0  0
   56.7300   26.6350   46.2490 C   0  0  0  0  0  0  0  0  0  0  0  0
   58.7449   21.1863   45.1083 H   0  0  0  0  0  0  0  0  0  0  0  0
   58.0105   20.6075   42.7937 H   0  0  0  0  0  0  0  0  0  0  0  0
   56.2459   21.9679   41.6646 H   0  0  0  0  0  0  0  0  0  0  0  0
   55.2203   23.9119   42.8470 H   0  0  0  0  0  0  0  0  0  0  0  0
   55.9465   24.4937   45.1623 H   0  0  0  0  0  0  0  0  0  0  0  0
   59.9541   25.5029   46.4287 H   0  0  0  0  0  0  0  0  0  0  0  0
   60.3554   27.6767   45.2784 H   0  0  0  0  0  0  0  0  0  0  0  0
   58.4437   29.1844   44.7433 H   0  0  0  0  0  0  0  0  0  0  0  0
   57.0939   31.0118   42.1225 H   0  0  0  0  0  0  0  0  0  0  0  0
   58.5956   33.0025   42.2870 H   0  0  0  0  0  0  0  0  0  0  0  0
   59.7267   34.6996   43.6860 H   0  0  0  0  0  0  0  0  0  0  0  0
   60.1785   35.6652   45.9446 H   0  0  0  0  0  0  0  0  0  0  0  0
   59.1243   34.6588   47.9725 H   0  0  0  0  0  0  0  0  0  0  0  0
   57.6196   32.6775   47.7516 H   0  0  0  0  0  0  0  0  0  0  0  0
   55.7090   26.3573   46.5497 H   0  0  0  0  0  0  0  0  0  0  0  0
  1  2  2  0
  2  3  1  0
  3  4  1  0
  4  5  2  0
  5  6  1  0
  6  7  2  0
  7  8  1  0
  8  9  2  0
  2 10  1  0
 10 11  2  0
 11 12  1  0
 12 13  2  0
 13 14  1  0
 14 15  1  0
 15 16  1  0
 16 17  2  0
 16 18  1  0
 18 19  2  0
 19 20  1  0
 20 21  2  0
 21 22  1  0
 22 23  2  0
 23 24  1  0
 24 25  2  0
 25 26  1  0
 26 27  2  0
 14 28  2  0
  9  4  1  0
 28 10  1  0
 27 18  1  0
 26 21  1  0
  5 29  1  0
  6 30  1  0
  7 31  1  0
  8 32  1  0
  9 33  1  0
 11 34  1  0
 12 35  1  0
 13 36  1  0
 19 37  1  0
 20 38  1  0
 22 39  1  0
 23 40  1  0
 24 41  1  0
 25 42  1  0
 28 43  1  0
M  CHG  2   3  -1  15  -1
M  END
>  <UniqueID>  (92) 
82

>  <SMILES>  (92) 
O=C([N-]c1ccccc1)c1cccc([N-]C(=O)c2ccc3ccccc3n2)c1

>  <Energy>  (92) 
61.064791571730375

>  <Genealogy>  (92) 
O=C([N-]c1ccccc1)c1cccc([N-]C(=O)c2ccc3ccccc3n2)c1 (protonated)
O=C([N-]c1ccccc1)c1cccc([N-]C(=O)c2ccc3ccccc3n2)c1 (3D coordinates assigned)
O=C([N-]c1ccccc1)c1cccc([N-]C(=O)c2ccc3ccccc3n2)c1 (optimized conformer: 61.064791571730375 kcal/mol)

>  <smiles>  (92) 
O=C(Nc1ccccc1)c1cccc(NC(=O)c2ccc3ccccc3n2)c1

>  <score_type>  (92) 
oracle

>  <origin>  (92) 
adg

>  <m_score__min__energy>  (92) 
-13.289999999999999

>  <m_primary>  (92) 
energy

$$$$
