0:0
     RDKit          3D

 48 51  0  0  0  0  0  0  0  0999 V2000
   61.6980   32.7990   49.7300 C   0  0  0  0  0  0  0  0  0  0  0  0
   61.0720   31.8370   48.7710 C   0  0  0  0  0  0  0  0  0  0  0  0
   59.8000   31.3840   48.8860 N   0  0  0  0  0  0  0  0  0  0  0  0
   59.6030   30.5690   47.8340 C   0  0  0  0  0  0  0  0  0  0  0  0
   58.4300   29.8930   47.5040 C   0  0  0  0  0  0  0  0  0  0  0  0
   58.4190   29.1050   46.3290 C   0  0  0  0  0  0  0  0  0  0  0  0
   57.1940   28.3750   45.9320 C   0  0  0  0  0  0  0  0  0  0  0  0
   57.0800   27.1450   46.1910 O   0  0  0  0  0  0  0  0  0  0  0  0
   56.1300   29.0640   45.2630 N   0  0  0  0  0  0  0  0  0  0  0  0
   56.1290   29.3600   43.8360 C   0  0  0  0  0  0  0  0  0  0  0  0
   56.8530   30.6530   43.5760 C   0  0  0  0  0  0  0  0  0  0  0  0
   57.0000   31.1200   42.2620 C   0  0  0  0  0  0  0  0  0  0  0  0
   57.6570   32.3260   42.0150 C   0  0  0  0  0  0  0  0  0  0  0  0
   58.1640   33.0810   43.0740 C   0  0  0  0  0  0  0  0  0  0  0  0
   58.0170   32.6400   44.4030 C   0  0  0  0  0  0  0  0  0  0  0  0
   58.5430   33.4180   45.5010 N   0  0  0  0  0  0  0  0  0  0  0  0
   59.7270   34.2680   45.4270 C   0  0  0  0  0  0  0  0  0  0  0  0
   59.8560   34.8160   46.8050 C   0  0  0  0  0  0  0  0  0  0  0  0
   58.8850   34.3650   47.5880 C   0  0  0  0  0  0  0  0  0  0  0  0
   57.9760   33.4520   46.8460 C   0  0  0  0  0  0  0  0  0  0  0  0
   57.3500   31.4210   44.6420 C   0  0  0  0  0  0  0  0  0  0  0  0
   59.5920   29.0260   45.5300 C   0  0  0  0  0  0  0  0  0  0  0  0
   60.7570   29.7250   45.8900 C   0  0  0  0  0  0  0  0  0  0  0  0
   60.7270   30.4900   47.0550 C   0  0  0  0  0  0  0  0  0  0  0  0
   61.6900   31.2840   47.6500 C   0  0  0  0  0  0  0  0  0  0  0  0
   63.0610   31.5850   47.1270 C   0  0  0  0  0  0  0  0  0  0  0  0
   61.4888   32.4775   50.7609 H   0  0  0  0  0  0  0  0  0  0  0  0
   62.7856   32.8237   49.5672 H   0  0  0  0  0  0  0  0  0  0  0  0
   61.2800   33.8034   49.5672 H   0  0  0  0  0  0  0  0  0  0  0  0
   59.1030   31.6390   49.6230 H   0  0  0  0  0  0  0  0  0  0  0  0
   57.5361   29.9700   48.1404 H   0  0  0  0  0  0  0  0  0  0  0  0
   56.6331   28.5456   43.2951 H   0  0  0  0  0  0  0  0  0  0  0  0
   55.0896   29.4530   43.4882 H   0  0  0  0  0  0  0  0  0  0  0  0
   56.5961   30.5338   41.4234 H   0  0  0  0  0  0  0  0  0  0  0  0
   57.7759   32.6832   40.9814 H   0  0  0  0  0  0  0  0  0  0  0  0
   58.6829   34.0288   42.8684 H   0  0  0  0  0  0  0  0  0  0  0  0
   60.6156   33.6797   45.1542 H   0  0  0  0  0  0  0  0  0  0  0  0
   59.6398   35.0541   44.6625 H   0  0  0  0  0  0  0  0  0  0  0  0
   60.6507   35.5034   47.1306 H   0  0  0  0  0  0  0  0  0  0  0  0
   58.7675   34.6318   48.6487 H   0  0  0  0  0  0  0  0  0  0  0  0
   57.9743   32.4485   47.2966 H   0  0  0  0  0  0  0  0  0  0  0  0
   56.9290   33.7891   46.8591 H   0  0  0  0  0  0  0  0  0  0  0  0
   57.2173   31.0673   45.6751 H   0  0  0  0  0  0  0  0  0  0  0  0
   59.5879   28.4101   44.6186 H   0  0  0  0  0  0  0  0  0  0  0  0
   61.6648   29.6701   45.2713 H   0  0  0  0  0  0  0  0  0  0  0  0
   63.7503   31.7363   47.9708 H   0  0  0  0  0  0  0  0  0  0  0  0
   63.4124   30.7426   46.5131 H   0  0  0  0  0  0  0  0  0  0  0  0
   63.0272   32.4971   46.5131 H   0  0  0  0  0  0  0  0  0  0  0  0
  1  2  1  0
  2  3  1  0
  3  4  1  0
  4  5  2  0
  5  6  1  0
  6  7  1  0
  7  8  2  0
  7  9  1  0
  9 10  1  0
 10 11  1  0
 11 12  2  0
 12 13  1  0
 13 14  2  0
 14 15  1  0
 15 16  1  0
 16 17  1  0
 17 18  1  0
 18 19  2  0
 19 20  1  0
 15 21  2  0
  6 22  2  0
 22 23  1  0
 23 24  2  0
 24 25  1  0
 25 26  1  0
 25  2  2  0
 24  4  1  0
 21 11  1  0
 20 16  1  0
  1 27  1  0
  1 28  1  0
  1 29  1  0
  3 30  1  0
  5 31  1  0
 10 32  1  0
 10 33  1  0
 12 34  1  0
 13 35  1  0
 14 36  1  0
 17 37  1  0
 17 38  1  0
 18 39  1  0
 19 40  1  0
 20 41  1  0
 20 42  1  0
 21 43  1  0
 22 44  1  0
 23 45  1  0
 26 46  1  0
 26 47  1  0
 26 48  1  0
M  CHG  1   9  -1
M  END
>  <UniqueID>  (1) 
1

>  <SMILES>  (1) 
Cc1[nH]c2cc(C(=O)[N-]Cc3cccc(N4CC=CC4)c3)ccc2c1C

>  <Energy>  (1) 
87.98434992759735

>  <Genealogy>  (1) 
Cc1[nH]c2cc(C(=O)[N-]Cc3cccc(N4CC=CC4)c3)ccc2c1C (protonated)
Cc1[nH]c2cc(C(=O)[N-]Cc3cccc(N4CC=CC4)c3)ccc2c1C (3D coordinates assigned)
Cc1[nH]c2cc(C(=O)[N-]Cc3cccc(N4CC=CC4)c3)ccc2c1C (nonaromatic ring conformer: 87.98434992759735 kcal/mol)

>  <smiles>  (1) 
Cc1[nH]c2cc(C(=O)NCc3cccc(N4CC=CC4)c3)ccc2c1C

>  <score_type>  (1) 
oracle

>  <origin>  (1) 
adg

>  <m_score__min__energy>  (1) 
-10.119999999999999

>  <m_primary>  (1) 
energy

$$$$
1:0
     RDKit          3D

 44 46  0  0  0  0  0  0  0  0999 V2000
   58.8263   32.2428   50.5724 H   0  0  0  0  0  0  0  0  0  0  0  0
   58.5590   31.2070   50.3160 C   0  0  0  0  0  0  0  0  0  0  0  0
   57.4230   30.6000   51.0370 C   0  0  0  0  0  0  0  0  0  0  0  0
   57.5510   29.4340   51.4960 O   0  0  0  0  0  0  0  0  0  0  0  0
   56.2250   31.3530   51.2850 N   0  0  0  0  0  0  0  0  0  0  0  0
   55.1260   30.9000   51.8110 C   0  0  0  0  0  0  0  0  0  0  0  0
   53.9240   31.0810   51.2250 N   0  0  0  0  0  0  0  0  0  0  0  0
   52.9280   30.4670   51.9210 C   0  0  0  0  0  0  0  0  0  0  0  0
   51.4970   30.5590   51.4930 C   0  0  0  0  0  0  0  0  0  0  0  0
   51.3310   29.8945   50.6322 H   0  0  0  0  0  0  0  0  0  0  0  0
   50.8502   30.2555   52.3294 H   0  0  0  0  0  0  0  0  0  0  0  0
   51.1680   31.9640   51.1040 C   0  0  0  0  0  0  0  0  0  0  0  0
   51.0090   32.8460   51.9880 O   0  0  0  0  0  0  0  0  0  0  0  0
   50.9900   32.2910   49.7660 O   0  0  0  0  0  0  0  0  0  0  0  0
   53.3340   29.7940   53.0720 C   0  0  0  0  0  0  0  0  0  0  0  0
   52.6795   29.2468   53.7664 H   0  0  0  0  0  0  0  0  0  0  0  0
   55.0010   29.9660   53.2120 S   0  0  0  0  0  0  0  0  0  0  0  0
   59.2920   30.5950   49.3720 C   0  0  0  0  0  0  0  0  0  0  0  0
   60.3510   30.4015   49.5981 H   0  0  0  0  0  0  0  0  0  0  0  0
   58.7860   30.1610   48.0520 C   0  0  0  0  0  0  0  0  0  0  0  0
   58.4930   31.1370   47.0900 C   0  0  0  0  0  0  0  0  0  0  0  0
   58.6547   32.2000   47.3220 H   0  0  0  0  0  0  0  0  0  0  0  0
   57.9970   30.7670   45.8390 C   0  0  0  0  0  0  0  0  0  0  0  0
   57.7645   31.5398   45.0915 H   0  0  0  0  0  0  0  0  0  0  0  0
   57.7950   29.4220   45.5330 C   0  0  0  0  0  0  0  0  0  0  0  0
   57.3872   29.1402   44.5510 H   0  0  0  0  0  0  0  0  0  0  0  0
   58.1090   28.4240   46.4710 C   0  0  0  0  0  0  0  0  0  0  0  0
   57.8700   26.9990   46.1380 C   0  0  0  0  0  0  0  0  0  0  0  0
   58.9170   26.0680   46.2380 C   0  0  0  0  0  0  0  0  0  0  0  0
   59.9171   26.4029   46.5504 H   0  0  0  0  0  0  0  0  0  0  0  0
   58.6980   24.7210   45.9440 C   0  0  0  0  0  0  0  0  0  0  0  0
   59.5270   24.0028   46.0278 H   0  0  0  0  0  0  0  0  0  0  0  0
   57.4340   24.2770   45.5440 C   0  0  0  0  0  0  0  0  0  0  0  0
   57.2640   22.9120   45.2650 O   0  0  0  0  0  0  0  0  0  0  0  0
   57.3120   22.3460   43.9590 C   0  0  0  0  0  0  0  0  0  0  0  0
   57.4047   21.2527   44.0364 H   0  0  0  0  0  0  0  0  0  0  0  0
   56.3892   22.5982   43.4159 H   0  0  0  0  0  0  0  0  0  0  0  0
   58.1791   22.7500   43.4159 H   0  0  0  0  0  0  0  0  0  0  0  0
   56.3820   25.2050   45.4350 C   0  0  0  0  0  0  0  0  0  0  0  0
   55.3847   24.8663   45.1176 H   0  0  0  0  0  0  0  0  0  0  0  0
   56.5970   26.5560   45.7280 C   0  0  0  0  0  0  0  0  0  0  0  0
   55.5370   27.4480   45.6200 O   0  0  0  0  0  0  0  0  0  0  0  0
   58.6340   28.7970   47.7250 C   0  0  0  0  0  0  0  0  0  0  0  0
   58.9920   27.8170   48.6480 O   0  0  0  0  0  0  0  0  0  0  0  0
  1  2  1  0
  2  3  1  0
  3  4  2  0
  3  5  1  0
  5  6  2  0
  6  7  1  0
  7  8  1  0
  8  9  1  0
  9 10  1  0
  9 11  1  0
  9 12  1  0
 12 13  2  0
 12 14  1  0
  8 15  2  0
 15 16  1  0
 15 17  1  0
  2 18  2  3
 18 19  1  0
 18 20  1  0
 20 21  2  0
 21 22  1  0
 21 23  1  0
 23 24  1  0
 23 25  2  0
 25 26  1  0
 25 27  1  0
 27 28  1  0
 28 29  2  0
 29 30  1  0
 29 31  1  0
 31 32  1  0
 31 33  2  0
 33 34  1  0
 34 35  1  0
 35 36  1  0
 35 37  1  0
 35 38  1  0
 33 39  1  0
 39 40  1  0
 39 41  2  0
 41 42  1  0
 27 43  2  0
 43 44  1  0
 17  6  1  0
 43 20  1  0
 41 28  1  0
M  CHG  4   7  -1  14  -1  42  -1  44  -1
M  END
>  <UniqueID>  (2) 
2

>  <SMILES>  (2) 
COc1ccc(-c2cccc(C=CC(=O)/N=c3/[n-]c(CC(=O)[O-])cs3)c2[O-])c([O-])c1

>  <Energy>  (2) 
90.67854401126493

>  <Genealogy>  (2) 
COc1ccc(-c2cccc(C=CC(=O)N=c3[n-]c(CC(=O)[O-])cs3)c2[O-])c([O-])c1 (protonated)
COc1ccc(-c2cccc(C=CC(=O)/N=c3/[n-]c(CC(=O)[O-])cs3)c2[O-])c([O-])c1 (cis-trans isomerization)
COc1ccc(-c2cccc(C=CC(=O)/N=c3/[n-]c(CC(=O)[O-])cs3)c2[O-])c([O-])c1 (3D coordinates assigned)
COc1ccc(-c2cccc(C=CC(=O)/N=c3/[n-]c(CC(=O)[O-])cs3)c2[O-])c([O-])c1 (optimized conformer: 90.67854401126493 kcal/mol)

>  <smiles>  (2) 
COc1ccc(-c2cccc(C=CC(=O)N=c3[nH]c(CC(=O)O)cs3)c2O)c(O)c1

>  <score_type>  (2) 
oracle

>  <origin>  (2) 
adg

>  <m_score__min__energy>  (2) 
-16.859999999999999

>  <m_primary>  (2) 
energy

$$$$
2:0
     RDKit          3D

 46 49  0  0  0  0  0  0  0  0999 V2000
   54.9110   25.7960   45.6500 O   0  0  0  0  0  0  0  0  0  0  0  0
   56.1230   25.6010   45.9370 C   0  0  0  0  0  0  0  0  0  0  0  0
   56.7610   26.5220   46.8360 N   0  0  0  0  0  0  0  0  0  0  0  0
   57.8040   27.4580   46.5230 C   0  0  0  0  0  0  0  0  0  0  0  0
   58.1690   27.6390   45.1800 C   0  0  0  0  0  0  0  0  0  0  0  0
   59.1670   28.5500   44.8400 C   0  0  0  0  0  0  0  0  0  0  0  0
   59.8280   29.2750   45.8390 C   0  0  0  0  0  0  0  0  0  0  0  0
   59.5160   29.0720   47.1950 C   0  0  0  0  0  0  0  0  0  0  0  0
   60.3000   29.8040   48.2610 C   0  0  0  0  0  0  0  0  0  0  0  0
   60.9530   31.0560   47.7280 C   0  0  0  0  0  0  0  0  0  0  0  0
   62.3090   31.0670   47.6500 N   0  0  0  0  0  0  0  0  0  0  0  0
   62.9840   32.1190   47.1940 N   0  0  0  0  0  0  0  0  0  0  0  0
   62.3550   33.2420   46.7760 C   0  0  0  0  0  0  0  0  0  0  0  0
   63.0430   34.2180   46.3800 O   0  0  0  0  0  0  0  0  0  0  0  0
   60.9510   33.3050   46.7970 C   0  0  0  0  0  0  0  0  0  0  0  0
   60.2300   32.1880   47.2750 C   0  0  0  0  0  0  0  0  0  0  0  0
   58.7200   32.2610   47.3090 C   0  0  0  0  0  0  0  0  0  0  0  0
   58.2110   33.0120   46.0810 C   0  0  0  0  0  0  0  0  0  0  0  0
   58.7290   34.4570   46.0730 C   0  0  0  0  0  0  0  0  0  0  0  0
   60.2450   34.5920   46.3920 C   0  0  0  0  0  0  0  0  0  0  0  0
   58.5110   28.1430   47.5330 C   0  0  0  0  0  0  0  0  0  0  0  0
   56.8260   24.4330   45.3530 C   0  0  0  0  0  0  0  0  0  0  0  0
   58.1280   24.0860   45.7570 C   0  0  0  0  0  0  0  0  0  0  0  0
   58.7660   22.9850   45.1680 C   0  0  0  0  0  0  0  0  0  0  0  0
   60.0630   22.6340   45.5310 O   0  0  0  0  0  0  0  0  0  0  0  0
   58.1160   22.2500   44.2270 N   0  0  0  0  0  0  0  0  0  0  0  0
   56.8470   22.5450   43.8370 C   0  0  0  0  0  0  0  0  0  0  0  0
   56.2780   21.8350   42.9650 O   0  0  0  0  0  0  0  0  0  0  0  0
   56.1750   23.6330   44.4010 C   0  0  0  0  0  0  0  0  0  0  0  0
   57.6651   27.0593   44.3925 H   0  0  0  0  0  0  0  0  0  0  0  0
   59.4363   28.7000   43.7841 H   0  0  0  0  0  0  0  0  0  0  0  0
   60.5979   30.0097   45.5607 H   0  0  0  0  0  0  0  0  0  0  0  0
   59.6161   30.0807   49.0769 H   0  0  0  0  0  0  0  0  0  0  0  0
   61.0955   29.1327   48.6167 H   0  0  0  0  0  0  0  0  0  0  0  0
   58.3051   31.2423   47.3120 H   0  0  0  0  0  0  0  0  0  0  0  0
   58.4024   32.7932   48.2178 H   0  0  0  0  0  0  0  0  0  0  0  0
   58.5608   32.4984   45.1734 H   0  0  0  0  0  0  0  0  0  0  0  0
   57.1116   33.0315   46.1099 H   0  0  0  0  0  0  0  0  0  0  0  0
   58.5470   34.8833   45.0754 H   0  0  0  0  0  0  0  0  0  0  0  0
   58.1895   34.9908   46.8692 H   0  0  0  0  0  0  0  0  0  0  0  0
   60.7457   34.9843   45.4946 H   0  0  0  0  0  0  0  0  0  0  0  0
   60.3098   35.2576   47.2654 H   0  0  0  0  0  0  0  0  0  0  0  0
   58.2769   27.9513   48.5906 H   0  0  0  0  0  0  0  0  0  0  0  0
   58.6426   24.6750   46.5305 H   0  0  0  0  0  0  0  0  0  0  0  0
   60.7580   22.3960   44.8370 H   0  0  0  0  0  0  0  0  0  0  0  0
   55.1417   23.8611   44.1005 H   0  0  0  0  0  0  0  0  0  0  0  0
  1  2  2  0
  2  3  1  0
  3  4  1  0
  4  5  2  0
  5  6  1  0
  6  7  2  0
  7  8  1  0
  8  9  1  0
  9 10  1  0
 10 11  2  0
 11 12  1  0
 12 13  1  0
 13 14  2  0
 13 15  1  0
 15 16  2  0
 16 17  1  0
 17 18  1  0
 18 19  1  0
 19 20  1  0
  8 21  2  0
  2 22  1  0
 22 23  1  0
 23 24  2  0
 24 25  1  0
 24 26  1  0
 26 27  1  0
 27 28  2  0
 27 29  1  0
 21  4  1  0
 29 22  2  0
 16 10  1  0
 20 15  1  0
  5 30  1  0
  6 31  1  0
  7 32  1  0
  9 33  1  0
  9 34  1  0
 17 35  1  0
 17 36  1  0
 18 37  1  0
 18 38  1  0
 19 39  1  0
 19 40  1  0
 20 41  1  0
 20 42  1  0
 21 43  1  0
 23 44  1  0
 25 45  1  0
 29 46  1  0
M  CHG  3   3  -1  12  -1  26  -1
M  END
>  <UniqueID>  (3) 
3

>  <SMILES>  (3) 
O=C([N-]c1cccc(Cc2n[n-]c(=O)c3c2CCCC3)c1)c1cc(O)[n-]c(=O)c1

>  <Energy>  (3) 
60.38428414440157

>  <Genealogy>  (3) 
O=C([N-]c1cccc(Cc2n[n-]c(=O)c3c2CCCC3)c1)c1cc(O)[n-]c(=O)c1 (protonated)
O=C([N-]c1cccc(Cc2n[n-]c(=O)c3c2CCCC3)c1)c1cc(O)[n-]c(=O)c1 (3D coordinates assigned)
O=C([N-]c1cccc(Cc2n[n-]c(=O)c3c2CCCC3)c1)c1cc(O)[n-]c(=O)c1 (nonaromatic ring conformer: 60.38428414440157 kcal/mol)

>  <smiles>  (3) 
O=C(Nc1cccc(Cc2n[nH]c(=O)c3c2CCCC3)c1)c1cc(O)[nH]c(=O)c1

>  <score_type>  (3) 
oracle

>  <origin>  (3) 
adg

>  <m_score__min__energy>  (3) 
-14.52

>  <m_primary>  (3) 
energy

$$$$
3:0
     RDKit          3D

 21 22  0  0  0  0  0  0  0  0999 V2000
   58.8895   34.2153   48.2900 H   0  0  0  0  0  0  0  0  0  0  0  0
   58.7140   34.0620   47.2150 C   0  0  0  0  0  0  0  0  0  0  0  0
   57.8130   33.1320   46.7990 N   0  0  0  0  0  0  0  0  0  0  0  0
   57.5700   32.9020   45.4770 C   0  0  0  0  0  0  0  0  0  0  0  0
   56.6920   32.0200   45.0970 N   0  0  0  0  0  0  0  0  0  0  0  0
   56.9660   30.8460   44.3180 C   0  0  0  0  0  0  0  0  0  0  0  0
   57.3490   30.9850   43.1270 O   0  0  0  0  0  0  0  0  0  0  0  0
   56.8770   29.4880   44.8870 C   0  0  0  0  0  0  0  0  0  0  0  0
   55.7040   28.8820   45.1610 N   0  0  0  0  0  0  0  0  0  0  0  0
   56.0430   27.6620   45.6180 C   0  0  0  0  0  0  0  0  0  0  0  0
   55.1120   26.7120   46.0180 O   0  0  0  0  0  0  0  0  0  0  0  0
   57.4070   27.4730   45.6300 C   0  0  0  0  0  0  0  0  0  0  0  0
   57.9515   26.5736   45.9536 H   0  0  0  0  0  0  0  0  0  0  0  0
   57.9460   28.6460   45.1520 C   0  0  0  0  0  0  0  0  0  0  0  0
   59.0132   28.8707   45.0087 H   0  0  0  0  0  0  0  0  0  0  0  0
   58.2490   33.6560   44.5110 C   0  0  0  0  0  0  0  0  0  0  0  0
   58.0521   33.4932   43.4411 H   0  0  0  0  0  0  0  0  0  0  0  0
   59.1780   34.6160   44.9180 C   0  0  0  0  0  0  0  0  0  0  0  0
   59.7215   35.2091   44.1678 H   0  0  0  0  0  0  0  0  0  0  0  0
   59.4160   34.8220   46.2780 C   0  0  0  0  0  0  0  0  0  0  0  0
   60.1480   35.5742   46.6073 H   0  0  0  0  0  0  0  0  0  0  0  0
  1  2  1  0
  2  3  1  0
  3  4  1  0
  4  5  2  0
  5  6  1  0
  6  7  2  0
  6  8  1  0
  8  9  1  0
  9 10  1  0
 10 11  1  0
 10 12  2  0
 12 13  1  0
 12 14  1  0
 14 15  1  0
  4 16  1  0
 16 17  1  0
 16 18  2  0
 18 19  1  0
 18 20  1  0
 20 21  1  0
 20  2  2  0
 14  8  2  0
M  CHG  3   3  -1   9  -1  11  -1
M  END
>  <UniqueID>  (4) 
4

>  <SMILES>  (4) 
O=C(/N=c1/cccc[n-]1)c1ccc([O-])[n-]1

>  <Energy>  (4) 
53.828250227814564

>  <Genealogy>  (4) 
O=C(N=c1cccc[n-]1)c1ccc([O-])[n-]1 (protonated)
O=C(/N=c1/cccc[n-]1)c1ccc([O-])[n-]1 (cis-trans isomerization)
O=C(/N=c1/cccc[n-]1)c1ccc([O-])[n-]1 (3D coordinates assigned)
O=C(/N=c1/cccc[n-]1)c1ccc([O-])[n-]1 (optimized conformer: 53.828250227814564 kcal/mol)

>  <smiles>  (4) 
O=C(N=c1cccc[nH]1)c1ccc(O)[nH]1

>  <score_type>  (4) 
oracle

>  <origin>  (4) 
adg

>  <m_score__min__energy>  (4) 
-13.34

>  <m_primary>  (4) 
energy

$$$$
4:0
     RDKit          3D

 45 47  0  0  0  0  0  0  0  0999 V2000
   56.9570   20.3450   43.6790 N   0  0  0  0  0  0  0  0  0  0  0  0
   56.6970   21.7390   43.4910 C   0  0  0  0  0  0  0  0  0  0  0  0
   55.9310   22.0950   42.5560 O   0  0  0  0  0  0  0  0  0  0  0  0
   57.2960   22.7660   44.3800 C   0  0  0  0  0  0  0  0  0  0  0  0
   58.6510   22.6670   44.7500 C   0  0  0  0  0  0  0  0  0  0  0  0
   59.2330   23.6210   45.5870 C   0  0  0  0  0  0  0  0  0  0  0  0
   58.4700   24.6830   46.0760 C   0  0  0  0  0  0  0  0  0  0  0  0
   59.0300   25.6100   46.8930 N   0  0  0  0  0  0  0  0  0  0  0  0
   58.2910   26.6410   47.3780 C   0  0  0  0  0  0  0  0  0  0  0  0
   58.8960   27.5820   48.2160 O   0  0  0  0  0  0  0  0  0  0  0  0
   58.8310   28.9870   47.9780 C   0  0  0  0  0  0  0  0  0  0  0  0
   58.8640   29.2720   46.4710 C   0  0  0  0  0  0  0  0  0  0  0  0
   57.4750   29.2390   45.7860 C   0  0  0  0  0  0  0  0  0  0  0  0
   57.0860   30.4700   45.0620 N   0  0  0  0  0  0  0  0  0  0  0  0
   56.0660   30.3190   43.9990 C   0  0  0  0  0  0  0  0  0  0  0  0
   56.6730   30.4660   42.5970 C   0  0  0  0  0  0  0  0  0  0  0  0
   57.4070   31.8090   42.4180 C   0  0  0  0  0  0  0  0  0  0  0  0
   57.8070   32.4660   43.7500 C   0  0  0  0  0  0  0  0  0  0  0  0
   58.1940   31.4140   44.7950 C   0  0  0  0  0  0  0  0  0  0  0  0
   57.0050   26.7500   47.0520 O   0  0  0  0  0  0  0  0  0  0  0  0
   56.3950   25.8770   46.2600 C   0  0  0  0  0  0  0  0  0  0  0  0
   55.1740   26.0390   45.9930 O   0  0  0  0  0  0  0  0  0  0  0  0
   57.1110   24.7920   45.7300 C   0  0  0  0  0  0  0  0  0  0  0  0
   56.5270   23.8310   44.8850 C   0  0  0  0  0  0  0  0  0  0  0  0
   57.4480   19.9870   44.5270 H   0  0  0  0  0  0  0  0  0  0  0  0
   56.5710   19.6490   43.0030 H   0  0  0  0  0  0  0  0  0  0  0  0
   59.2575   21.8291   44.3756 H   0  0  0  0  0  0  0  0  0  0  0  0
   60.2947   23.5357   45.8617 H   0  0  0  0  0  0  0  0  0  0  0  0
   57.8973   29.3845   48.4024 H   0  0  0  0  0  0  0  0  0  0  0  0
   59.6964   29.4717   48.4536 H   0  0  0  0  0  0  0  0  0  0  0  0
   59.2998   30.2704   46.3186 H   0  0  0  0  0  0  0  0  0  0  0  0
   59.4612   28.4705   46.0116 H   0  0  0  0  0  0  0  0  0  0  0  0
   57.4736   28.4083   45.0649 H   0  0  0  0  0  0  0  0  0  0  0  0
   56.7428   29.1258   46.5991 H   0  0  0  0  0  0  0  0  0  0  0  0
   55.6076   29.3228   44.0852 H   0  0  0  0  0  0  0  0  0  0  0  0
   55.3168   31.1136   44.1307 H   0  0  0  0  0  0  0  0  0  0  0  0
   57.3885   29.6467   42.4331 H   0  0  0  0  0  0  0  0  0  0  0  0
   55.8503   30.4311   41.8676 H   0  0  0  0  0  0  0  0  0  0  0  0
   58.3185   31.6328   41.8280 H   0  0  0  0  0  0  0  0  0  0  0  0
   56.7120   32.4952   41.9120 H   0  0  0  0  0  0  0  0  0  0  0  0
   58.6650   33.1324   43.5775 H   0  0  0  0  0  0  0  0  0  0  0  0
   56.9446   33.0329   44.1306 H   0  0  0  0  0  0  0  0  0  0  0  0
   59.0623   30.8484   44.4260 H   0  0  0  0  0  0  0  0  0  0  0  0
   58.4316   31.9361   45.7336 H   0  0  0  0  0  0  0  0  0  0  0  0
   55.4632   23.9124   44.6174 H   0  0  0  0  0  0  0  0  0  0  0  0
  1  2  1  0
  2  3  2  0
  2  4  1  0
  4  5  2  0
  5  6  1  0
  6  7  2  0
  7  8  1  0
  8  9  2  0
  9 10  1  0
 10 11  1  0
 11 12  1  0
 12 13  1  0
 13 14  1  0
 14 15  1  0
 15 16  1  0
 16 17  1  0
 17 18  1  0
 18 19  1  0
  9 20  1  0
 20 21  1  0
 21 22  2  0
 21 23  1  0
 23 24  2  0
 24  4  1  0
 23  7  1  0
 19 14  1  0
  1 25  1  0
  1 26  1  0
  5 27  1  0
  6 28  1  0
 11 29  1  0
 11 30  1  0
 12 31  1  0
 12 32  1  0
 13 33  1  0
 13 34  1  0
 15 35  1  0
 15 36  1  0
 16 37  1  0
 16 38  1  0
 17 39  1  0
 17 40  1  0
 18 41  1  0
 18 42  1  0
 19 43  1  0
 19 44  1  0
 24 45  1  0
M  END
>  <UniqueID>  (5) 
5

>  <SMILES>  (5) 
NC(=O)c1ccc2nc(OCCCN3CCCCC3)oc(=O)c2c1

>  <Energy>  (5) 
60.72951910476649

>  <Genealogy>  (5) 
NC(=O)c1ccc2nc(OCCCN3CCCCC3)oc(=O)c2c1 (3D coordinates assigned)
NC(=O)c1ccc2nc(OCCCN3CCCCC3)oc(=O)c2c1 (nonaromatic ring conformer: 60.72951910476649 kcal/mol)

>  <smiles>  (5) 
NC(=O)c1ccc2nc(OCCCN3CCCCC3)oc(=O)c2c1

>  <score_type>  (5) 
oracle

>  <origin>  (5) 
adg

>  <m_score__min__energy>  (5) 
-8.7100000000000009

>  <m_primary>  (5) 
energy

$$$$
5:0
     RDKit          3D

 52 54  0  0  0  0  0  0  0  0999 V2000
   64.5840   34.0020   51.4310 C   0  0  0  0  0  0  0  0  0  0  0  0
   64.5000   33.1690   50.2250 N   0  0  0  0  0  0  0  0  0  0  0  0
   65.3330   31.9680   50.1020 C   0  0  0  0  0  0  0  0  0  0  0  0
   63.5760   33.5400   49.1780 C   0  0  0  0  0  0  0  0  0  0  0  0
   62.8620   34.5730   49.3180 O   0  0  0  0  0  0  0  0  0  0  0  0
   63.4160   32.6850   47.9420 C   0  0  0  0  0  0  0  0  0  0  0  0
   61.9990   32.6510   47.4500 C   0  0  0  0  0  0  0  0  0  0  0  0
   61.2410   33.7450   47.0980 C   0  0  0  0  0  0  0  0  0  0  0  0
   60.0600   33.2950   46.6410 N   0  0  0  0  0  0  0  0  0  0  0  0
   58.9830   34.1230   46.0740 C   0  0  0  0  0  0  0  0  0  0  0  0
   57.5980   33.7540   46.6710 C   0  0  0  0  0  0  0  0  0  0  0  0
   56.6410   33.0910   45.6650 C   0  0  0  0  0  0  0  0  0  0  0  0
   57.3600   32.1870   44.7530 N   0  0  0  0  0  0  0  0  0  0  0  0
   56.7700   30.9200   44.3910 C   0  0  0  0  0  0  0  0  0  0  0  0
   55.5320   30.7370   44.5600 O   0  0  0  0  0  0  0  0  0  0  0  0
   57.5970   29.8300   43.7530 C   0  0  0  0  0  0  0  0  0  0  0  0
   58.4040   29.0680   44.7730 C   0  0  0  0  0  0  0  0  0  0  0  0
   57.7870   28.5360   45.9170 C   0  0  0  0  0  0  0  0  0  0  0  0
   58.5470   27.8560   46.8750 C   0  0  0  0  0  0  0  0  0  0  0  0
   59.9260   27.7100   46.7010 C   0  0  0  0  0  0  0  0  0  0  0  0
   60.6610   27.0510   47.6300 F   0  0  0  0  0  0  0  0  0  0  0  0
   60.5500   28.2500   45.5720 C   0  0  0  0  0  0  0  0  0  0  0  0
   59.7930   28.9300   44.6120 C   0  0  0  0  0  0  0  0  0  0  0  0
   58.5540   32.6720   44.0380 C   0  0  0  0  0  0  0  0  0  0  0  0
   58.9990   34.0510   44.5370 C   0  0  0  0  0  0  0  0  0  0  0  0
   60.1400   31.9470   46.7010 C   0  0  0  0  0  0  0  0  0  0  0  0
   61.3200   31.5160   47.1920 N   0  0  0  0  0  0  0  0  0  0  0  0
   64.5195   33.3624   52.3236 H   0  0  0  0  0  0  0  0  0  0  0  0
   65.5413   34.5437   51.4365 H   0  0  0  0  0  0  0  0  0  0  0  0
   63.7541   34.7240   51.4365 H   0  0  0  0  0  0  0  0  0  0  0  0
   65.5908   31.5963   51.1047 H   0  0  0  0  0  0  0  0  0  0  0  0
   64.7784   31.1916   49.5545 H   0  0  0  0  0  0  0  0  0  0  0  0
   66.2545   32.2154   49.5545 H   0  0  0  0  0  0  0  0  0  0  0  0
   64.0568   33.0916   47.1457 H   0  0  0  0  0  0  0  0  0  0  0  0
   63.7044   31.6567   48.2056 H   0  0  0  0  0  0  0  0  0  0  0  0
   61.5471   34.7986   47.1767 H   0  0  0  0  0  0  0  0  0  0  0  0
   59.1684   35.1696   46.3572 H   0  0  0  0  0  0  0  0  0  0  0  0
   57.7562   33.0584   47.5084 H   0  0  0  0  0  0  0  0  0  0  0  0
   57.1258   34.6959   46.9871 H   0  0  0  0  0  0  0  0  0  0  0  0
   55.8848   32.5142   46.2176 H   0  0  0  0  0  0  0  0  0  0  0  0
   56.1679   33.8824   45.0651 H   0  0  0  0  0  0  0  0  0  0  0  0
   56.9245   29.1296   43.2360 H   0  0  0  0  0  0  0  0  0  0  0  0
   58.2967   30.3013   43.0471 H   0  0  0  0  0  0  0  0  0  0  0  0
   56.7028   28.6543   46.0603 H   0  0  0  0  0  0  0  0  0  0  0  0
   58.0584   27.4357   47.7664 H   0  0  0  0  0  0  0  0  0  0  0  0
   61.6363   28.1400   45.4388 H   0  0  0  0  0  0  0  0  0  0  0  0
   60.2872   29.3584   43.7275 H   0  0  0  0  0  0  0  0  0  0  0  0
   59.3753   31.9564   44.1913 H   0  0  0  0  0  0  0  0  0  0  0  0
   58.2994   32.7615   42.9716 H   0  0  0  0  0  0  0  0  0  0  0  0
   60.0205   34.2485   44.1799 H   0  0  0  0  0  0  0  0  0  0  0  0
   58.2975   34.8035   44.1475 H   0  0  0  0  0  0  0  0  0  0  0  0
   59.3299   31.2739   46.3836 H   0  0  0  0  0  0  0  0  0  0  0  0
  1  2  1  0
  2  3  1  0
  2  4  1  0
  4  5  2  0
  4  6  1  0
  6  7  1  0
  7  8  2  0
  8  9  1  0
  9 10  1  0
 10 11  1  0
 11 12  1  0
 12 13  1  0
 13 14  1  0
 14 15  2  0
 14 16  1  0
 16 17  1  0
 17 18  2  0
 18 19  1  0
 19 20  2  0
 20 21  1  0
 20 22  1  0
 22 23  2  0
 13 24  1  0
 24 25  1  0
  9 26  1  0
 26 27  2  0
 27  7  1  0
 25 10  1  0
 23 17  1  0
  1 28  1  0
  1 29  1  0
  1 30  1  0
  3 31  1  0
  3 32  1  0
  3 33  1  0
  6 34  1  0
  6 35  1  0
  8 36  1  0
 10 37  1  0
 11 38  1  0
 11 39  1  0
 12 40  1  0
 12 41  1  0
 16 42  1  0
 16 43  1  0
 18 44  1  0
 19 45  1  0
 22 46  1  0
 23 47  1  0
 24 48  1  0
 24 49  1  0
 25 50  1  0
 25 51  1  0
 26 52  1  0
M  END
>  <UniqueID>  (6) 
6

>  <SMILES>  (6) 
CN(C)C(=O)Cc1cn(C2CCN(C(=O)Cc3ccc(F)cc3)CC2)cn1

>  <Energy>  (6) 
82.08141497414216

>  <Genealogy>  (6) 
CN(C)C(=O)Cc1cn(C2CCN(C(=O)Cc3ccc(F)cc3)CC2)cn1 (3D coordinates assigned)
CN(C)C(=O)Cc1cn(C2CCN(C(=O)Cc3ccc(F)cc3)CC2)cn1 (nonaromatic ring conformer: 82.08141497414216 kcal/mol)

>  <smiles>  (6) 
CN(C)C(=O)Cc1cn(C2CCN(C(=O)Cc3ccc(F)cc3)CC2)cn1

>  <score_type>  (6) 
oracle

>  <origin>  (6) 
adg

>  <m_score__min__energy>  (6) 
-7.9699999999999998

>  <m_primary>  (6) 
energy

$$$$
6:0
     RDKit          3D

 40 42  0  0  0  0  0  0  0  0999 V2000
   54.6860   29.2930   45.9590 H   0  0  0  0  0  0  0  0  0  0  0  0
   55.1610   29.4170   45.0370 N   0  0  0  0  0  0  0  0  0  0  0  0
   56.4420   28.8440   44.7870 C   0  0  0  0  0  0  0  0  0  0  0  0
   57.1090   29.2570   43.7990 O   0  0  0  0  0  0  0  0  0  0  0  0
   56.9940   27.7750   45.6640 C   0  0  0  0  0  0  0  0  0  0  0  0
   58.3730   27.7680   45.9580 C   0  0  0  0  0  0  0  0  0  0  0  0
   59.0219   28.5435   45.5250 H   0  0  0  0  0  0  0  0  0  0  0  0
   58.9330   26.7870   46.7950 C   0  0  0  0  0  0  0  0  0  0  0  0
   60.3850   26.7830   47.0940 C   0  0  0  0  0  0  0  0  0  0  0  0
   61.1480   26.0420   46.4190 O   0  0  0  0  0  0  0  0  0  0  0  0
   60.9660   27.6380   48.0910 N   0  0  0  0  0  0  0  0  0  0  0  0
   60.4200   28.7110   48.5800 C   0  0  0  0  0  0  0  0  0  0  0  0
   60.0250   28.8450   49.8660 N   0  0  0  0  0  0  0  0  0  0  0  0
   59.5090   30.0800   50.1030 C   0  0  0  0  0  0  0  0  0  0  0  0
   59.1149   30.3791   51.0855 H   0  0  0  0  0  0  0  0  0  0  0  0
   59.5180   30.9370   49.0060 C   0  0  0  0  0  0  0  0  0  0  0  0
   58.9500   32.3250   48.9780 C   0  0  0  0  0  0  0  0  0  0  0  0
   57.9173   32.2973   49.3560 H   0  0  0  0  0  0  0  0  0  0  0  0
   59.5784   32.9701   49.6096 H   0  0  0  0  0  0  0  0  0  0  0  0
   58.9460   32.8900   47.5720 C   0  0  0  0  0  0  0  0  0  0  0  0
   57.7730   32.7430   46.8090 C   0  0  0  0  0  0  0  0  0  0  0  0
   56.8981   32.2434   47.2505 H   0  0  0  0  0  0  0  0  0  0  0  0
   57.7040   33.2210   45.5030 C   0  0  0  0  0  0  0  0  0  0  0  0
   56.7788   33.0982   44.9208 H   0  0  0  0  0  0  0  0  0  0  0  0
   58.8050   33.8540   44.9340 C   0  0  0  0  0  0  0  0  0  0  0  0
   58.7471   34.2340   43.9033 H   0  0  0  0  0  0  0  0  0  0  0  0
   59.9820   34.0080   45.6670 C   0  0  0  0  0  0  0  0  0  0  0  0
   60.8437   34.5161   45.2094 H   0  0  0  0  0  0  0  0  0  0  0  0
   60.0820   33.5210   46.9870 C   0  0  0  0  0  0  0  0  0  0  0  0
   61.3740   33.7260   47.7590 C   0  0  0  0  0  0  0  0  0  0  0  0
   62.3870   34.2070   46.9460 F   0  0  0  0  0  0  0  0  0  0  0  0
   61.8040   32.5290   48.2990 F   0  0  0  0  0  0  0  0  0  0  0  0
   61.1660   34.6410   48.7750 F   0  0  0  0  0  0  0  0  0  0  0  0
   60.1650   30.1100   47.6870 S   0  0  0  0  0  0  0  0  0  0  0  0
   58.1070   25.7800   47.3140 C   0  0  0  0  0  0  0  0  0  0  0  0
   58.5382   24.9919   47.9488 H   0  0  0  0  0  0  0  0  0  0  0  0
   56.7420   25.7720   47.0300 C   0  0  0  0  0  0  0  0  0  0  0  0
   56.1022   24.9815   47.4493 H   0  0  0  0  0  0  0  0  0  0  0  0
   56.1800   26.7600   46.2170 C   0  0  0  0  0  0  0  0  0  0  0  0
   54.8110   26.7140   45.9700 O   0  0  0  0  0  0  0  0  0  0  0  0
  1  2  1  0
  2  3  1  0
  3  4  2  0
  3  5  1  0
  5  6  2  0
  6  7  1  0
  6  8  1  0
  8  9  1  0
  9 10  2  0
  9 11  1  0
 11 12  2  0
 12 13  1  0
 13 14  1  0
 14 15  1  0
 14 16  2  0
 16 17  1  0
 17 18  1  0
 17 19  1  0
 17 20  1  0
 20 21  2  0
 21 22  1  0
 21 23  1  0
 23 24  1  0
 23 25  2  0
 25 26  1  0
 25 27  1  0
 27 28  1  0
 27 29  2  0
 29 30  1  0
 30 31  1  0
 30 32  1  0
 30 33  1  0
 16 34  1  0
  8 35  2  0
 35 36  1  0
 35 37  1  0
 37 38  1  0
 37 39  2  0
 39 40  1  0
 39  5  1  0
 34 12  1  0
 29 20  1  0
M  CHG  3   2  -1  13  -1  40  -1
M  END
>  <UniqueID>  (7) 
7

>  <SMILES>  (7) 
[NH-]C(=O)c1cc(C(=O)/N=c2\[n-]cc(Cc3ccccc3C(F)(F)F)s2)ccc1[O-]

>  <Energy>  (7) 
85.14262123243472

>  <Genealogy>  (7) 
[NH-]C(=O)c1cc(C(=O)N=c2[n-]cc(Cc3ccccc3C(F)(F)F)s2)ccc1[O-] (protonated)
[NH-]C(=O)c1cc(C(=O)/N=c2\[n-]cc(Cc3ccccc3C(F)(F)F)s2)ccc1[O-] (cis-trans isomerization)
[NH-]C(=O)c1cc(C(=O)/N=c2\[n-]cc(Cc3ccccc3C(F)(F)F)s2)ccc1[O-] (3D coordinates assigned)
[NH-]C(=O)c1cc(C(=O)/N=c2\[n-]cc(Cc3ccccc3C(F)(F)F)s2)ccc1[O-] (optimized conformer: 85.14262123243472 kcal/mol)

>  <smiles>  (7) 
NC(=O)c1cc(C(=O)N=c2[nH]cc(Cc3ccccc3C(F)(F)F)s2)ccc1O

>  <score_type>  (7) 
oracle

>  <origin>  (7) 
adg

>  <m_score__min__energy>  (7) 
-16.289999999999999

>  <m_primary>  (7) 
energy

$$$$
7:0
     RDKit          3D

 46 48  0  0  0  0  0  0  0  0999 V2000
   54.6630   25.3520   45.9250 O   0  0  0  0  0  0  0  0  0  0  0  0
   55.7920   25.8780   45.7410 C   0  0  0  0  0  0  0  0  0  0  0  0
   55.8750   27.3060   45.6240 N   0  0  0  0  0  0  0  0  0  0  0  0
   57.1020   28.1020   45.6210 C   0  0  0  0  0  0  0  0  0  0  0  0
   57.6370   28.2700   44.2010 C   0  0  0  0  0  0  0  0  0  0  0  0
   57.3200   29.6090   43.7130 N   0  0  0  0  0  0  0  0  0  0  0  0
   57.0950   30.7400   44.5640 C   0  0  0  0  0  0  0  0  0  0  0  0
   55.9220   31.1800   44.6900 O   0  0  0  0  0  0  0  0  0  0  0  0
   58.1930   31.3800   45.3150 C   0  0  0  0  0  0  0  0  0  0  0  0
   58.2840   32.7780   45.3900 C   0  0  0  0  0  0  0  0  0  0  0  0
   59.3340   33.3820   46.0870 C   0  0  0  0  0  0  0  0  0  0  0  0
   60.3190   32.5990   46.7130 C   0  0  0  0  0  0  0  0  0  0  0  0
   61.3860   33.2170   47.4620 N   0  0  0  0  0  0  0  0  0  0  0  0
   62.7920   33.1550   47.0950 C   0  0  0  0  0  0  0  0  0  0  0  0
   63.5730   33.7090   48.3010 C   0  0  0  0  0  0  0  0  0  0  0  0
   62.5500   34.3670   49.2380 C   0  0  0  0  0  0  0  0  0  0  0  0
   61.2530   33.9560   48.6650 C   0  0  0  0  0  0  0  0  0  0  0  0
   60.1430   34.2890   49.1580 O   0  0  0  0  0  0  0  0  0  0  0  0
   60.2300   31.1990   46.6270 C   0  0  0  0  0  0  0  0  0  0  0  0
   59.1840   30.5950   45.9220 C   0  0  0  0  0  0  0  0  0  0  0  0
   56.9760   25.0040   45.6230 C   0  0  0  0  0  0  0  0  0  0  0  0
   58.2210   25.4060   46.1290 C   0  0  0  0  0  0  0  0  0  0  0  0
   59.3350   24.5690   46.0090 C   0  0  0  0  0  0  0  0  0  0  0  0
   59.2120   23.3180   45.3940 C   0  0  0  0  0  0  0  0  0  0  0  0
   60.3310   22.4970   45.2740 O   0  0  0  0  0  0  0  0  0  0  0  0
   57.9660   22.9040   44.9060 C   0  0  0  0  0  0  0  0  0  0  0  0
   56.8520   23.7390   45.0260 C   0  0  0  0  0  0  0  0  0  0  0  0
   56.8891   29.0941   46.0457 H   0  0  0  0  0  0  0  0  0  0  0  0
   57.8608   27.5817   46.2239 H   0  0  0  0  0  0  0  0  0  0  0  0
   58.7280   28.1295   44.2019 H   0  0  0  0  0  0  0  0  0  0  0  0
   57.1698   27.5218   43.5439 H   0  0  0  0  0  0  0  0  0  0  0  0
   57.5243   33.4025   44.8972 H   0  0  0  0  0  0  0  0  0  0  0  0
   59.3899   34.4790   46.1461 H   0  0  0  0  0  0  0  0  0  0  0  0
   63.0884   32.1151   46.8933 H   0  0  0  0  0  0  0  0  0  0  0  0
   62.9953   33.7359   46.1833 H   0  0  0  0  0  0  0  0  0  0  0  0
   64.0912   32.8910   48.8229 H   0  0  0  0  0  0  0  0  0  0  0  0
   64.3307   34.4370   47.9757 H   0  0  0  0  0  0  0  0  0  0  0  0
   62.6619   33.9953   50.2672 H   0  0  0  0  0  0  0  0  0  0  0  0
   62.6656   35.4589   49.3036 H   0  0  0  0  0  0  0  0  0  0  0  0
   60.9895   30.5731   47.1183 H   0  0  0  0  0  0  0  0  0  0  0  0
   59.1384   29.4988   45.8432 H   0  0  0  0  0  0  0  0  0  0  0  0
   58.3216   26.3840   46.6224 H   0  0  0  0  0  0  0  0  0  0  0  0
   60.3105   24.8949   46.3991 H   0  0  0  0  0  0  0  0  0  0  0  0
   61.0470   22.6770   44.5800 H   0  0  0  0  0  0  0  0  0  0  0  0
   57.8642   21.9190   44.4270 H   0  0  0  0  0  0  0  0  0  0  0  0
   55.8736   23.4039   44.6512 H   0  0  0  0  0  0  0  0  0  0  0  0
  1  2  2  0
  2  3  1  0
  3  4  1  0
  4  5  1  0
  5  6  1  0
  6  7  1  0
  7  8  2  0
  7  9  1  0
  9 10  2  0
 10 11  1  0
 11 12  2  0
 12 13  1  0
 13 14  1  0
 14 15  1  0
 15 16  1  0
 16 17  1  0
 17 18  2  0
 12 19  1  0
 19 20  2  0
  2 21  1  0
 21 22  2  0
 22 23  1  0
 23 24  2  0
 24 25  1  0
 24 26  1  0
 26 27  2  0
 20  9  1  0
 27 21  1  0
 17 13  1  0
  4 28  1  0
  4 29  1  0
  5 30  1  0
  5 31  1  0
 10 32  1  0
 11 33  1  0
 14 34  1  0
 14 35  1  0
 15 36  1  0
 15 37  1  0
 16 38  1  0
 16 39  1  0
 19 40  1  0
 20 41  1  0
 22 42  1  0
 23 43  1  0
 25 44  1  0
 26 45  1  0
 27 46  1  0
M  CHG  2   3  -1   6  -1
M  END
>  <UniqueID>  (8) 
8

>  <SMILES>  (8) 
O=C([N-]CC[N-]C(=O)c1ccc(N2CCCC2=O)cc1)c1ccc(O)cc1

>  <Energy>  (8) 
61.27263392233603

>  <Genealogy>  (8) 
O=C([N-]CC[N-]C(=O)c1ccc(N2CCCC2=O)cc1)c1ccc(O)cc1 (protonated)
O=C([N-]CC[N-]C(=O)c1ccc(N2CCCC2=O)cc1)c1ccc(O)cc1 (3D coordinates assigned)
O=C([N-]CC[N-]C(=O)c1ccc(N2CCCC2=O)cc1)c1ccc(O)cc1 (nonaromatic ring conformer: 61.27263392233603 kcal/mol)

>  <smiles>  (8) 
O=C(NCCNC(=O)c1ccc(N2CCCC2=O)cc1)c1ccc(O)cc1

>  <score_type>  (8) 
oracle

>  <origin>  (8) 
adg

>  <m_score__min__energy>  (8) 
-12.050000000000001

>  <m_primary>  (8) 
energy

$$$$
8:0
     RDKit          3D

 34 36  0  0  0  0  0  0  0  0999 V2000
   61.0143   30.2785   48.7500 H   0  0  0  0  0  0  0  0  0  0  0  0
   60.4390   30.5480   47.8520 C   0  0  0  0  0  0  0  0  0  0  0  0
   60.0940   31.8810   47.6190 C   0  0  0  0  0  0  0  0  0  0  0  0
   60.4041   32.6612   48.3297 H   0  0  0  0  0  0  0  0  0  0  0  0
   59.3540   32.2250   46.4820 C   0  0  0  0  0  0  0  0  0  0  0  0
   58.8630   34.0450   46.1760 Br  0  0  0  0  0  0  0  0  0  0  0  0
   58.9690   31.2330   45.5730 C   0  0  0  0  0  0  0  0  0  0  0  0
   58.3706   31.5021   44.6901 H   0  0  0  0  0  0  0  0  0  0  0  0
   59.3420   29.8990   45.7820 C   0  0  0  0  0  0  0  0  0  0  0  0
   58.8850   28.8930   44.8670 N   0  0  0  0  0  0  0  0  0  0  0  0
   58.0870   27.8900   45.1240 C   0  0  0  0  0  0  0  0  0  0  0  0
   56.7190   28.1430   45.3560 C   0  0  0  0  0  0  0  0  0  0  0  0
   56.2730   29.3700   45.3240 N   0  0  0  0  0  0  0  0  0  0  0  0
   56.2530   30.3030   44.2280 C   0  0  0  0  0  0  0  0  0  0  0  0
   56.2340   31.5340   44.4910 O   0  0  0  0  0  0  0  0  0  0  0  0
   56.2530   29.8820   42.7870 C   0  0  0  0  0  0  0  0  0  0  0  0
   57.2901   29.7792   42.4350 H   0  0  0  0  0  0  0  0  0  0  0  0
   55.7345   28.9171   42.6869 H   0  0  0  0  0  0  0  0  0  0  0  0
   55.7345   30.6413   42.1832 H   0  0  0  0  0  0  0  0  0  0  0  0
   55.8900   27.0990   45.6210 N   0  0  0  0  0  0  0  0  0  0  0  0
   56.3370   25.8200   45.6580 C   0  0  0  0  0  0  0  0  0  0  0  0
   55.4560   24.7680   45.9330 C   0  0  0  0  0  0  0  0  0  0  0  0
   54.3941   24.9764   46.1301 H   0  0  0  0  0  0  0  0  0  0  0  0
   55.9270   23.4520   45.9570 C   0  0  0  0  0  0  0  0  0  0  0  0
   55.2353   22.6254   46.1767 H   0  0  0  0  0  0  0  0  0  0  0  0
   57.2770   23.1840   45.7020 C   0  0  0  0  0  0  0  0  0  0  0  0
   57.8610   21.5290   45.7310 Cl  0  0  0  0  0  0  0  0  0  0  0  0
   58.1610   24.2330   45.4250 C   0  0  0  0  0  0  0  0  0  0  0  0
   59.2211   24.0196   45.2236 H   0  0  0  0  0  0  0  0  0  0  0  0
   57.6960   25.5570   45.4040 C   0  0  0  0  0  0  0  0  0  0  0  0
   58.5380   26.5950   45.1350 N   0  0  0  0  0  0  0  0  0  0  0  0
   59.5310   26.3750   44.9010 H   0  0  0  0  0  0  0  0  0  0  0  0
   60.0540   29.5550   46.9450 C   0  0  0  0  0  0  0  0  0  0  0  0
   60.3086   28.5031   47.1418 H   0  0  0  0  0  0  0  0  0  0  0  0
  1  2  1  0
  2  3  2  0
  3  4  1  0
  3  5  1  0
  5  6  1  0
  5  7  2  0
  7  8  1  0
  7  9  1  0
  9 10  1  0
 10 11  2  0
 11 12  1  0
 12 13  2  0
 13 14  1  0
 14 15  2  0
 14 16  1  0
 16 17  1  0
 16 18  1  0
 16 19  1  0
 12 20  1  0
 20 21  1  0
 21 22  2  0
 22 23  1  0
 22 24  1  0
 24 25  1  0
 24 26  2  0
 26 27  1  0
 26 28  1  0
 28 29  1  0
 28 30  2  0
 30 31  1  0
 31 32  1  0
  9 33  2  0
 33 34  1  0
 33  2  1  0
 31 11  1  0
 30 21  1  0
M  CHG  1  20  -1
M  END
>  <UniqueID>  (9) 
9

>  <SMILES>  (9) 
CC(=O)/N=c1\[n-]c2ccc(Cl)cc2[nH]\c1=N/c1cccc(Br)c1

>  <Energy>  (9) 
52.858492730206784

>  <Genealogy>  (9) 
CC(=O)N=c1[n-]c2ccc(Cl)cc2[nH]c1=Nc1cccc(Br)c1 (protonated)
CC(=O)/N=c1\[n-]c2ccc(Cl)cc2[nH]\c1=N/c1cccc(Br)c1 (cis-trans isomerization)
CC(=O)/N=c1\[n-]c2ccc(Cl)cc2[nH]\c1=N/c1cccc(Br)c1 (3D coordinates assigned)
CC(=O)/N=c1\[n-]c2ccc(Cl)cc2[nH]\c1=N/c1cccc(Br)c1 (optimized conformer: 52.858492730206784 kcal/mol)

>  <smiles>  (9) 
CC(=O)N=c1[nH]c2ccc(Cl)cc2[nH]c1=Nc1cccc(Br)c1

>  <score_type>  (9) 
oracle

>  <origin>  (9) 
adg

>  <m_score__min__energy>  (9) 
-9.8100000000000005

>  <m_primary>  (9) 
energy

$$$$
9:0
     RDKit          3D

 36 37  0  0  0  0  0  0  0  0999 V2000
   57.3681   30.8261   46.7433 H   0  0  0  0  0  0  0  0  0  0  0  0
   58.3210   31.3060   47.0110 C   0  0  0  0  0  0  0  0  0  0  0  0
   59.1320   30.6610   47.8610 C   0  0  0  0  0  0  0  0  0  0  0  0
   58.9691   30.8083   48.9388 H   0  0  0  0  0  0  0  0  0  0  0  0
   60.4440   29.5910   47.3640 S   0  0  0  0  0  0  0  0  0  0  0  0
   61.6760   30.4230   47.1450 O   0  0  0  0  0  0  0  0  0  0  0  0
   60.7330   28.5890   48.4450 O   0  0  0  0  0  0  0  0  0  0  0  0
   60.0340   28.7770   45.8250 C   0  0  0  0  0  0  0  0  0  0  0  0
   60.0643   29.5125   45.0077 H   0  0  0  0  0  0  0  0  0  0  0  0
   60.7644   27.9751   45.6422 H   0  0  0  0  0  0  0  0  0  0  0  0
   58.6600   28.1740   45.8960 C   0  0  0  0  0  0  0  0  0  0  0  0
   58.4760   26.8950   46.4480 C   0  0  0  0  0  0  0  0  0  0  0  0
   59.3369   26.3454   46.8564 H   0  0  0  0  0  0  0  0  0  0  0  0
   57.2040   26.3190   46.4800 C   0  0  0  0  0  0  0  0  0  0  0  0
   57.0649   25.3206   46.9202 H   0  0  0  0  0  0  0  0  0  0  0  0
   56.1070   27.0080   45.9540 C   0  0  0  0  0  0  0  0  0  0  0  0
   54.8440   26.4280   45.9900 O   0  0  0  0  0  0  0  0  0  0  0  0
   56.2840   28.2780   45.3920 C   0  0  0  0  0  0  0  0  0  0  0  0
   55.1980   28.9650   44.8630 O   0  0  0  0  0  0  0  0  0  0  0  0
   57.5570   28.8580   45.3580 C   0  0  0  0  0  0  0  0  0  0  0  0
   57.6945   29.8526   44.9087 H   0  0  0  0  0  0  0  0  0  0  0  0
   58.6260   32.6190   46.4120 C   0  0  0  0  0  0  0  0  0  0  0  0
   59.5640   33.4670   47.0200 C   0  0  0  0  0  0  0  0  0  0  0  0
   60.0577   33.1571   47.9529 H   0  0  0  0  0  0  0  0  0  0  0  0
   59.8740   34.7010   46.4480 C   0  0  0  0  0  0  0  0  0  0  0  0
   60.5973   35.3685   46.9392 H   0  0  0  0  0  0  0  0  0  0  0  0
   59.2670   35.0890   45.2530 C   0  0  0  0  0  0  0  0  0  0  0  0
   59.5081   36.0651   44.8068 H   0  0  0  0  0  0  0  0  0  0  0  0
   58.3540   34.2410   44.6220 C   0  0  0  0  0  0  0  0  0  0  0  0
   57.8852   34.5487   43.6757 H   0  0  0  0  0  0  0  0  0  0  0  0
   58.0300   32.9920   45.1920 C   0  0  0  0  0  0  0  0  0  0  0  0
   57.1180   32.1130   44.5860 O   0  0  0  0  0  0  0  0  0  0  0  0
   57.3670   31.3980   43.3800 C   0  0  0  0  0  0  0  0  0  0  0  0
   57.7200   30.3844   43.6209 H   0  0  0  0  0  0  0  0  0  0  0  0
   56.4385   31.3332   42.7937 H   0  0  0  0  0  0  0  0  0  0  0  0
   58.1349   31.9240   42.7937 H   0  0  0  0  0  0  0  0  0  0  0  0
  1  2  1  0
  2  3  2  0
  3  4  1  0
  3  5  1  0
  5  6  2  0
  5  7  2  0
  5  8  1  0
  8  9  1  0
  8 10  1  0
  8 11  1  0
 11 12  2  0
 12 13  1  0
 12 14  1  0
 14 15  1  0
 14 16  2  0
 16 17  1  0
 16 18  1  0
 18 19  1  0
 18 20  2  0
 20 21  1  0
  2 22  1  0
 22 23  2  0
 23 24  1  0
 23 25  1  0
 25 26  1  0
 25 27  2  0
 27 28  1  0
 27 29  1  0
 29 30  1  0
 29 31  2  0
 31 32  1  0
 32 33  1  0
 33 34  1  0
 33 35  1  0
 33 36  1  0
 20 11  1  0
 31 22  1  0
M  CHG  2  17  -1  19  -1
M  END
>  <UniqueID>  (10) 
10

>  <SMILES>  (10) 
COc1ccccc1/C=C\S(=O)(=O)Cc1ccc([O-])c([O-])c1

>  <Energy>  (10) 
39.335238805355175

>  <Genealogy>  (10) 
COc1ccccc1C=CS(=O)(=O)Cc1ccc([O-])c([O-])c1 (protonated)
COc1ccccc1/C=C\S(=O)(=O)Cc1ccc([O-])c([O-])c1 (cis-trans isomerization)
COc1ccccc1/C=C\S(=O)(=O)Cc1ccc([O-])c([O-])c1 (3D coordinates assigned)
COc1ccccc1/C=C\S(=O)(=O)Cc1ccc([O-])c([O-])c1 (optimized conformer: 39.335238805355175 kcal/mol)

>  <smiles>  (10) 
COc1ccccc1C=CS(=O)(=O)Cc1ccc(O)c(O)c1

>  <score_type>  (10) 
oracle

>  <origin>  (10) 
adg

>  <m_score__min__energy>  (10) 
-15.24

>  <m_primary>  (10) 
energy

$$$$
10:0
     RDKit          3D

 47 49  0  0  0  0  0  0  0  0999 V2000
   57.1650   30.1240   44.0430 C   0  0  0  0  0  0  0  0  0  0  0  0
   56.9170   30.9130   45.2010 O   0  0  0  0  0  0  0  0  0  0  0  0
   57.5280   32.1500   45.4690 C   0  0  0  0  0  0  0  0  0  0  0  0
   57.0640   33.3480   44.8870 C   0  0  0  0  0  0  0  0  0  0  0  0
   57.7030   34.5600   45.1600 C   0  0  0  0  0  0  0  0  0  0  0  0
   58.8090   34.5940   46.0090 C   0  0  0  0  0  0  0  0  0  0  0  0
   59.2790   33.4160   46.5930 C   0  0  0  0  0  0  0  0  0  0  0  0
   58.6370   32.1910   46.3410 C   0  0  0  0  0  0  0  0  0  0  0  0
   59.1850   30.9270   46.9580 C   0  0  0  0  0  0  0  0  0  0  0  0
   60.2880   30.3300   46.0780 C   0  0  0  0  0  0  0  0  0  0  0  0
   60.7460   29.0400   46.6410 N   0  0  0  0  0  0  0  0  0  0  0  0
   60.8080   27.9500   45.6420 C   0  0  0  0  0  0  0  0  0  0  0  0
   59.4210   27.4120   45.2460 C   0  0  0  0  0  0  0  0  0  0  0  0
   58.5930   27.1620   46.4330 N   0  0  0  0  0  0  0  0  0  0  0  0
   57.6010   26.1130   46.4390 C   0  0  0  0  0  0  0  0  0  0  0  0
   57.1920   25.6530   47.5410 O   0  0  0  0  0  0  0  0  0  0  0  0
   57.0860   25.5100   45.1570 C   0  0  0  0  0  0  0  0  0  0  0  0
   55.9120   24.6100   45.4090 C   0  0  0  0  0  0  0  0  0  0  0  0
   55.9220   22.9340   45.2370 S   0  0  0  0  0  0  0  0  0  0  0  0
   54.2880   22.8050   45.6060 C   0  0  0  0  0  0  0  0  0  0  0  0
   53.6550   21.7190   45.6500 O   0  0  0  0  0  0  0  0  0  0  0  0
   53.7130   24.0020   45.8490 N   0  0  0  0  0  0  0  0  0  0  0  0
   54.6180   25.0080   45.7320 C   0  0  0  0  0  0  0  0  0  0  0  0
   54.2580   26.3380   45.9200 O   0  0  0  0  0  0  0  0  0  0  0  0
   58.5590   28.1900   47.4780 C   0  0  0  0  0  0  0  0  0  0  0  0
   59.9830   28.6260   47.8340 C   0  0  0  0  0  0  0  0  0  0  0  0
   57.4820   29.1156   44.3474 H   0  0  0  0  0  0  0  0  0  0  0  0
   56.2456   30.0539   43.4432 H   0  0  0  0  0  0  0  0  0  0  0  0
   57.9592   30.5926   43.4432 H   0  0  0  0  0  0  0  0  0  0  0  0
   56.1939   33.3279   44.2142 H   0  0  0  0  0  0  0  0  0  0  0  0
   57.3328   35.4901   44.7041 H   0  0  0  0  0  0  0  0  0  0  0  0
   59.3115   35.5498   46.2187 H   0  0  0  0  0  0  0  0  0  0  0  0
   60.1573   33.4467   47.2545 H   0  0  0  0  0  0  0  0  0  0  0  0
   59.6003   31.1597   47.9497 H   0  0  0  0  0  0  0  0  0  0  0  0
   58.3692   30.1947   47.0486 H   0  0  0  0  0  0  0  0  0  0  0  0
   59.8950   30.1653   45.0639 H   0  0  0  0  0  0  0  0  0  0  0  0
   61.1370   31.0285   46.0417 H   0  0  0  0  0  0  0  0  0  0  0  0
   61.3062   28.3315   44.7385 H   0  0  0  0  0  0  0  0  0  0  0  0
   61.3634   27.1180   46.0994 H   0  0  0  0  0  0  0  0  0  0  0  0
   58.9178   28.1518   44.6061 H   0  0  0  0  0  0  0  0  0  0  0  0
   59.5550   26.4626   44.7069 H   0  0  0  0  0  0  0  0  0  0  0  0
   56.7775   26.3195   44.4792 H   0  0  0  0  0  0  0  0  0  0  0  0
   57.8917   24.9109   44.7077 H   0  0  0  0  0  0  0  0  0  0  0  0
   57.9924   29.0599   47.1143 H   0  0  0  0  0  0  0  0  0  0  0  0
   58.0746   27.7760   48.3746 H   0  0  0  0  0  0  0  0  0  0  0  0
   59.9311   29.4726   48.5344 H   0  0  0  0  0  0  0  0  0  0  0  0
   60.4992   27.7671   48.2877 H   0  0  0  0  0  0  0  0  0  0  0  0
  1  2  1  0
  2  3  1  0
  3  4  2  0
  4  5  1  0
  5  6  2  0
  6  7  1  0
  7  8  2  0
  8  9  1  0
  9 10  1  0
 10 11  1  0
 11 12  1  0
 12 13  1  0
 13 14  1  0
 14 15  1  0
 15 16  2  0
 15 17  1  0
 17 18  1  0
 18 19  1  0
 19 20  1  0
 20 21  2  0
 20 22  1  0
 22 23  1  0
 23 24  1  0
 14 25  1  0
 25 26  1  0
  8  3  1  0
 26 11  1  0
 23 18  2  0
  1 27  1  0
  1 28  1  0
  1 29  1  0
  4 30  1  0
  5 31  1  0
  6 32  1  0
  7 33  1  0
  9 34  1  0
  9 35  1  0
 10 36  1  0
 10 37  1  0
 12 38  1  0
 12 39  1  0
 13 40  1  0
 13 41  1  0
 17 42  1  0
 17 43  1  0
 25 44  1  0
 25 45  1  0
 26 46  1  0
 26 47  1  0
M  CHG  2  22  -1  24  -1
M  END
>  <UniqueID>  (11) 
11

>  <SMILES>  (11) 
COc1ccccc1CCN1CCN(C(=O)Cc2sc(=O)[n-]c2[O-])CC1

>  <Energy>  (11) 
81.36144392948317

>  <Genealogy>  (11) 
COc1ccccc1CCN1CCN(C(=O)Cc2sc(=O)[n-]c2[O-])CC1 (protonated)
COc1ccccc1CCN1CCN(C(=O)Cc2sc(=O)[n-]c2[O-])CC1 (3D coordinates assigned)
COc1ccccc1CCN1CCN(C(=O)Cc2sc(=O)[n-]c2[O-])CC1 (nonaromatic ring conformer: 81.36144392948317 kcal/mol)

>  <smiles>  (11) 
COc1ccccc1CCN1CCN(C(=O)Cc2sc(=O)[nH]c2O)CC1

>  <score_type>  (11) 
oracle

>  <origin>  (11) 
adg

>  <m_score__min__energy>  (11) 
-14.039999999999999

>  <m_primary>  (11) 
energy

$$$$
11:0
     RDKit          3D

 64 69  0  0  1  0  0  0  0  0999 V2000
   59.4270   23.1730   44.8950 O   0  0  0  0  0  0  0  0  0  0  0  0
   58.2860   22.7330   45.1190 C   0  0  0  0  0  0  0  0  0  0  0  0
   57.9460   21.3630   45.5190 C   0  0  0  0  0  0  0  0  0  0  0  0
   56.4970   21.0290   45.5190 C   0  0  0  0  0  0  0  0  0  0  0  0
   55.6410   21.8260   46.2780 N   0  0  0  0  0  0  0  0  0  0  0  0
   56.0420   22.3270   47.5310 C   0  0  0  0  0  0  0  0  0  0  0  0
   55.5570   23.7410   47.7990 C   0  0  0  0  0  0  0  0  0  0  0  0
   55.0620   24.3830   46.6860 O   0  0  0  0  0  0  0  0  0  0  0  0
   54.0810   23.6940   45.9960 C   0  0  0  0  0  0  0  0  0  0  0  0
   54.3960   22.2330   45.7790 C   0  0  0  0  0  0  0  0  0  0  0  0
   57.2010   23.6600   44.9690 N   0  0  0  0  0  0  0  0  0  0  0  0
   57.3920   24.9980   44.5920 C   0  0  0  0  0  0  0  0  0  0  0  0
   57.7350   25.3020   43.2850 C   0  0  0  0  0  0  0  0  0  0  0  0
   57.9230   26.6280   42.9040 C   0  0  0  0  0  0  0  0  0  0  0  0
   57.7720   27.6630   43.8180 C   0  0  0  0  0  0  0  0  0  0  0  0
   57.8850   29.0100   43.7350 N   0  0  0  0  0  0  0  0  0  0  0  0
   57.6260   29.5650   44.9410 C   0  0  0  0  0  0  0  0  0  0  0  0
   57.6570   31.0070   45.2160 C   0  0  0  0  0  0  0  0  0  0  0  0
   57.0540   32.0070   44.5480 N   0  0  0  0  0  0  0  0  0  0  0  0
   57.3350   33.1770   45.1280 N   0  0  0  0  0  0  0  0  0  0  0  0
   58.1400   32.9760   46.2060 C   0  0  0  0  0  0  0  0  0  0  0  0
   58.7180   33.8200   47.1420 C   0  0  0  0  0  0  0  0  0  0  0  0
   59.5030   33.2820   48.1370 C   0  0  0  0  0  0  0  0  0  0  0  0
   60.1490   34.0890   49.1690 C   0  0  0  0  0  0  0  0  0  0  0  0
   59.6010   34.2130   50.2950 O   0  0  0  0  0  0  0  0  0  0  0  0
   61.3860   34.7590   48.9760 N   0  0  0  0  0  0  0  0  0  0  0  0
   62.5000   34.2330   49.3530 C   0  0  0  0  0  0  0  0  0  0  0  0
   63.2990   33.6600   48.3950 C   0  0  0  0  0  0  0  0  0  0  0  0
   64.5240   33.0640   48.6850 C   0  0  0  0  0  0  0  0  0  0  0  0
   64.9010   33.0760   50.0110 C   0  0  0  0  0  0  0  0  0  0  0  0
   66.5600   32.2760   50.4800 Br  0  0  0  0  0  0  0  0  0  0  0  0
   64.1020   33.6480   50.9700 C   0  0  0  0  0  0  0  0  0  0  0  0
   62.9150   34.2170   50.6320 N   0  0  0  0  0  0  0  0  0  0  0  0
   59.7110   31.9000   48.2000 C   0  0  0  0  0  0  0  0  0  0  0  0
   59.1110   31.0850   47.2350 C   0  0  0  0  0  0  0  0  0  0  0  0
   58.3330   31.6130   46.2490 C   0  0  0  0  0  0  0  0  0  0  0  0
   57.3540   28.5460   45.7600 N   0  0  0  0  0  0  0  0  0  0  0  0
   57.4270   27.3630   45.1320 C   0  0  0  0  0  0  0  0  0  0  0  0
   57.2460   26.0510   45.4890 C   0  0  0  0  0  0  0  0  0  0  0  0
   58.4510   20.6740   44.8260 H   0  0  0  0  0  0  0  0  0  0  0  0
   58.2744   21.2671   46.5644 H   0  0  0  0  0  0  0  0  0  0  0  0
   56.1502   21.0776   44.4762 H   0  0  0  0  0  0  0  0  0  0  0  0
   56.4436   20.0386   45.9946 H   0  0  0  0  0  0  0  0  0  0  0  0
   55.6419   21.6668   48.3146 H   0  0  0  0  0  0  0  0  0  0  0  0
   57.1416   22.3554   47.5323 H   0  0  0  0  0  0  0  0  0  0  0  0
   54.7598   23.6958   48.5556 H   0  0  0  0  0  0  0  0  0  0  0  0
   56.4298   24.3183   48.1379 H   0  0  0  0  0  0  0  0  0  0  0  0
   53.1425   23.7650   46.5654 H   0  0  0  0  0  0  0  0  0  0  0  0
   54.0073   24.1557   45.0003 H   0  0  0  0  0  0  0  0  0  0  0  0
   53.6158   21.6362   46.2741 H   0  0  0  0  0  0  0  0  0  0  0  0
   54.4300   22.0789   44.6904 H   0  0  0  0  0  0  0  0  0  0  0  0
   56.2170   23.3430   45.1430 H   0  0  0  0  0  0  0  0  0  0  0  0
   57.8590   24.4954   42.5475 H   0  0  0  0  0  0  0  0  0  0  0  0
   58.1952   26.8594   41.8636 H   0  0  0  0  0  0  0  0  0  0  0  0
   58.1360   29.5390   42.8640 H   0  0  0  0  0  0  0  0  0  0  0  0
   56.4630   31.8220   43.7010 H   0  0  0  0  0  0  0  0  0  0  0  0
   58.5514   34.9061   47.0903 H   0  0  0  0  0  0  0  0  0  0  0  0
   62.9559   33.6721   47.3499 H   0  0  0  0  0  0  0  0  0  0  0  0
   65.1523   32.6114   47.9037 H   0  0  0  0  0  0  0  0  0  0  0  0
   64.4256   33.6457   52.0213 H   0  0  0  0  0  0  0  0  0  0  0  0
   62.3030   34.6550   51.3630 H   0  0  0  0  0  0  0  0  0  0  0  0
   60.3347   31.4627   48.9936 H   0  0  0  0  0  0  0  0  0  0  0  0
   59.2701   29.9972   47.2727 H   0  0  0  0  0  0  0  0  0  0  0  0
   56.9736   25.8217   46.5298 H   0  0  0  0  0  0  0  0  0  0  0  0
  1  2  2  0
  2  3  1  0
  3  4  1  0
  4  5  1  0
  5  6  1  0
  6  7  1  0
  7  8  1  0
  8  9  1  0
  9 10  1  0
  2 11  1  0
 11 12  1  0
 12 13  2  0
 13 14  1  0
 14 15  2  0
 15 16  1  0
 16 17  1  0
 17 18  1  0
 18 19  1  0
 19 20  1  0
 20 21  2  0
 21 22  1  0
 22 23  2  0
 23 24  1  0
 24 25  2  0
 24 26  1  0
 26 27  2  0
 27 28  1  0
 28 29  2  0
 29 30  1  0
 30 31  1  0
 30 32  2  0
 32 33  1  0
 23 34  1  0
 34 35  2  0
 35 36  1  0
 17 37  2  0
 37 38  1  0
 38 39  2  0
 10  5  1  0
 39 12  1  0
 38 15  1  0
 36 18  2  0
 36 21  1  0
 33 27  1  0
  3 40  1  0
  3 41  1  0
  4 42  1  0
  4 43  1  0
  6 44  1  0
  6 45  1  0
  7 46  1  0
  7 47  1  0
  9 48  1  0
  9 49  1  0
 10 50  1  0
 10 51  1  0
 11 52  1  0
 13 53  1  0
 14 54  1  0
 16 55  1  0
 19 56  1  0
 22 57  1  0
 28 58  1  0
 29 59  1  0
 32 60  1  0
 33 61  1  0
 34 62  1  0
 35 63  1  0
 39 64  1  0
M  END
>  <smiles>  (12) 
O=C(CCN1CCOCC1)Nc1ccc2[nH]c(-c3[nH]nc4cc(C(=O)N=c5ccc(Br)c[nH]5)ccc34)nc2c1

>  <score_type>  (12) 
oracle

>  <origin>  (12) 
adg

>  <m_score__min__energy>  (12) 
-10.199999999999999

>  <m_primary>  (12) 
energy

$$$$
12:0
     RDKit          3D

 60 63  0  0  0  0  0  0  0  0999 V2000
   60.3810   28.2900   47.9530 C   0  0  0  0  0  0  0  0  0  0  0  0
   59.6480   29.4160   48.5270 N   0  0  0  0  0  0  0  0  0  0  0  0
   59.6570   29.6810   49.8250 N   0  0  0  0  0  0  0  0  0  0  0  0
   59.0770   30.8850   49.9980 C   0  0  0  0  0  0  0  0  0  0  0  0
   59.0100   31.5950   51.3160 C   0  0  0  0  0  0  0  0  0  0  0  0
   60.3040   32.3620   51.6010 C   0  0  0  0  0  0  0  0  0  0  0  0
   61.4230   31.7920   50.8480 N   0  0  0  0  0  0  0  0  0  0  0  0
   62.6660   32.4980   50.6600 C   0  0  0  0  0  0  0  0  0  0  0  0
   62.7380   33.7200   50.9610 O   0  0  0  0  0  0  0  0  0  0  0  0
   63.9160   31.8380   50.1240 C   0  0  0  0  0  0  0  0  0  0  0  0
   65.2240   32.1350   50.8410 C   0  0  0  0  0  0  0  0  0  0  0  0
   64.9450   32.7510   49.4750 C   0  0  0  0  0  0  0  0  0  0  0  0
   58.7300   31.4250   48.7730 C   0  0  0  0  0  0  0  0  0  0  0  0
   59.1020   30.4590   47.8630 C   0  0  0  0  0  0  0  0  0  0  0  0
   58.9980   30.5940   46.4000 C   0  0  0  0  0  0  0  0  0  0  0  0
   59.9970   30.3040   45.6870 O   0  0  0  0  0  0  0  0  0  0  0  0
   57.8000   31.1040   45.7840 N   0  0  0  0  0  0  0  0  0  0  0  0
   57.0080   30.2240   44.9080 C   0  0  0  0  0  0  0  0  0  0  0  0
   57.4210   30.3570   43.4290 C   0  0  0  0  0  0  0  0  0  0  0  0
   57.2340   31.6740   42.9470 O   0  0  0  0  0  0  0  0  0  0  0  0
   58.1590   32.5730   43.5320 C   0  0  0  0  0  0  0  0  0  0  0  0
   57.5690   33.3890   44.7120 C   0  0  2  0  0  0  0  0  0  0  0  0
   58.4310   34.6480   44.9630 C   0  0  0  0  0  0  0  0  0  0  0  0
   59.3450   34.4830   46.1530 C   0  0  0  0  0  0  0  0  0  0  0  0
   58.8770   34.7700   47.4470 C   0  0  0  0  0  0  0  0  0  0  0  0
   59.7120   34.5850   48.5550 C   0  0  0  0  0  0  0  0  0  0  0  0
   61.0130   34.1030   48.3810 C   0  0  0  0  0  0  0  0  0  0  0  0
   61.4850   33.8090   47.0980 C   0  0  0  0  0  0  0  0  0  0  0  0
   63.1110   33.1900   46.8820 Cl  0  0  0  0  0  0  0  0  0  0  0  0
   60.6550   34.0000   45.9860 C   0  0  0  0  0  0  0  0  0  0  0  0
   57.4490   32.5240   45.9930 C   0  0  0  0  0  0  0  0  0  0  0  0
   60.7872   27.6660   48.7627 H   0  0  0  0  0  0  0  0  0  0  0  0
   59.7011   27.6882   47.3321 H   0  0  0  0  0  0  0  0  0  0  0  0
   61.2065   28.6681   47.3321 H   0  0  0  0  0  0  0  0  0  0  0  0
   58.1694   32.3043   51.2986 H   0  0  0  0  0  0  0  0  0  0  0  0
   58.8696   30.8446   52.1079 H   0  0  0  0  0  0  0  0  0  0  0  0
   60.1714   33.4141   51.3087 H   0  0  0  0  0  0  0  0  0  0  0  0
   60.5281   32.2883   52.6754 H   0  0  0  0  0  0  0  0  0  0  0  0
   61.3340   30.7920   50.5680 H   0  0  0  0  0  0  0  0  0  0  0  0
   63.3874   30.9203   49.8266 H   0  0  0  0  0  0  0  0  0  0  0  0
   65.2270   32.7687   51.7401 H   0  0  0  0  0  0  0  0  0  0  0  0
   66.0329   31.5246   51.2689 H   0  0  0  0  0  0  0  0  0  0  0  0
   64.7465   33.8294   49.3879 H   0  0  0  0  0  0  0  0  0  0  0  0
   65.4690   32.7696   48.5080 H   0  0  0  0  0  0  0  0  0  0  0  0
   58.2643   32.4009   48.5713 H   0  0  0  0  0  0  0  0  0  0  0  0
   57.1555   29.1812   45.2254 H   0  0  0  0  0  0  0  0  0  0  0  0
   55.9523   30.5208   44.9936 H   0  0  0  0  0  0  0  0  0  0  0  0
   58.4834   30.0895   43.3307 H   0  0  0  0  0  0  0  0  0  0  0  0
   56.7866   29.6826   42.8352 H   0  0  0  0  0  0  0  0  0  0  0  0
   59.0182   31.9953   43.9036 H   0  0  0  0  0  0  0  0  0  0  0  0
   58.4460   33.2939   42.7523 H   0  0  0  0  0  0  0  0  0  0  0  0
   56.5514   33.7081   44.4425 H   0  0  0  0  0  0  0  0  0  0  0  0
   59.0431   34.8425   44.0700 H   0  0  0  0  0  0  0  0  0  0  0  0
   57.7515   35.4874   45.1719 H   0  0  0  0  0  0  0  0  0  0  0  0
   57.8513   35.1411   47.5893 H   0  0  0  0  0  0  0  0  0  0  0  0
   59.3440   34.8193   49.5648 H   0  0  0  0  0  0  0  0  0  0  0  0
   61.6656   33.9550   49.2540 H   0  0  0  0  0  0  0  0  0  0  0  0
   61.0297   33.7711   44.9774 H   0  0  0  0  0  0  0  0  0  0  0  0
   58.1221   32.9396   46.7573 H   0  0  0  0  0  0  0  0  0  0  0  0
   56.3941   32.5528   46.3035 H   0  0  0  0  0  0  0  0  0  0  0  0
  1  2  1  0
  2  3  1  0
  3  4  2  0
  4  5  1  0
  5  6  1  0
  6  7  1  0
  7  8  1  0
  8  9  2  0
  8 10  1  0
 10 11  1  0
 11 12  1  0
  4 13  1  0
 13 14  2  0
 14 15  1  0
 15 16  2  0
 15 17  1  0
 17 18  1  0
 18 19  1  0
 19 20  1  0
 20 21  1  0
 21 22  1  0
 22 23  1  0
 23 24  1  0
 24 25  2  0
 25 26  1  0
 26 27  2  0
 27 28  1  0
 28 29  1  0
 28 30  2  0
 22 31  1  0
 14  2  1  0
 31 17  1  0
 12 10  1  0
 30 24  1  0
  1 32  1  0
  1 33  1  0
  1 34  1  0
  5 35  1  0
  5 36  1  0
  6 37  1  0
  6 38  1  0
  7 39  1  0
 10 40  1  0
 11 41  1  0
 11 42  1  0
 12 43  1  0
 12 44  1  0
 13 45  1  0
 18 46  1  0
 18 47  1  0
 19 48  1  0
 19 49  1  0
 21 50  1  0
 21 51  1  0
 22 52  1  6
 23 53  1  0
 23 54  1  0
 25 55  1  0
 26 56  1  0
 27 57  1  0
 30 58  1  0
 31 59  1  0
 31 60  1  0
M  END
>  <UniqueID>  (13) 
12

>  <SMILES>  (13) 
Cn1nc(CCNC(=O)C2CC2)cc1C(=O)N1CCOC[C@H](Cc2cccc(Cl)c2)C1

>  <Energy>  (13) 
364.3632582593174

>  <Genealogy>  (13) 
Cn1nc(CCNC(=O)C2CC2)cc1C(=O)N1CCOC[C@H](Cc2cccc(Cl)c2)C1 (chirality)
Cn1nc(CCNC(=O)C2CC2)cc1C(=O)N1CCOC[C@H](Cc2cccc(Cl)c2)C1 (3D coordinates assigned)
Cn1nc(CCNC(=O)C2CC2)cc1C(=O)N1CCOC[C@H](Cc2cccc(Cl)c2)C1 (nonaromatic ring conformer: 364.3632582593174 kcal/mol)

>  <smiles>  (13) 
Cn1nc(CCNC(=O)C2CC2)cc1C(=O)N1CCOCC(Cc2cccc(Cl)c2)C1

>  <score_type>  (13) 
oracle

>  <origin>  (13) 
adg

>  <m_score__min__energy>  (13) 
-6.7999999999999998

>  <m_primary>  (13) 
energy

$$$$
13:0
     RDKit          3D

 57 61  0  0  0  0  0  0  0  0999 V2000
   59.4200   28.1930   45.7040 O   0  0  0  0  0  0  0  0  0  0  0  0
   58.6080   27.9620   44.7670 C   0  0  0  0  0  0  0  0  0  0  0  0
   58.1740   29.0400   43.9200 N   0  0  0  0  0  0  0  0  0  0  0  0
   58.2060   30.4240   44.3040 C   0  0  0  0  0  0  0  0  0  0  0  0
   58.0840   31.4160   43.3190 C   0  0  0  0  0  0  0  0  0  0  0  0
   58.0810   32.7690   43.6710 C   0  0  0  0  0  0  0  0  0  0  0  0
   58.1830   33.1550   45.0120 C   0  0  0  0  0  0  0  0  0  0  0  0
   58.1630   34.5280   45.3100 O   0  0  0  0  0  0  0  0  0  0  0  0
   59.3130   35.3310   45.5810 C   0  0  0  0  0  0  0  0  0  0  0  0
   60.1780   34.6920   46.6280 C   0  0  0  0  0  0  0  0  0  0  0  0
   59.7270   34.5850   47.9600 C   0  0  0  0  0  0  0  0  0  0  0  0
   60.5610   33.9810   48.9090 C   0  0  0  0  0  0  0  0  0  0  0  0
   60.1810   33.8650   50.1050 O   0  0  0  0  0  0  0  0  0  0  0  0
   61.7830   33.5230   48.5160 N   0  0  0  0  0  0  0  0  0  0  0  0
   62.7170   32.9150   49.2980 C   0  0  0  0  0  0  0  0  0  0  0  0
   63.8800   32.5530   48.6190 C   0  0  0  0  0  0  0  0  0  0  0  0
   63.7240   33.0090   46.9950 S   0  0  0  0  0  0  0  0  0  0  0  0
   62.1910   33.6430   47.2340 C   0  0  0  0  0  0  0  0  0  0  0  0
   61.4100   34.2200   46.2880 N   0  0  0  0  0  0  0  0  0  0  0  0
   58.2950   32.1640   46.0050 C   0  0  0  0  0  0  0  0  0  0  0  0
   58.2970   30.8110   45.6530 C   0  0  0  0  0  0  0  0  0  0  0  0
   58.1480   26.5740   44.5240 C   0  0  0  0  0  0  0  0  0  0  0  0
   58.0960   25.6370   45.5720 C   0  0  0  0  0  0  0  0  0  0  0  0
   57.6700   24.3270   45.3310 C   0  0  0  0  0  0  0  0  0  0  0  0
   57.2980   23.9320   44.0410 C   0  0  0  0  0  0  0  0  0  0  0  0
   56.7440   22.2860   43.7480 S   0  0  0  0  0  0  0  0  0  0  0  0
   57.9200   21.3510   43.8090 O   0  0  0  0  0  0  0  0  0  0  0  0
   56.1310   22.1940   42.3770 O   0  0  0  0  0  0  0  0  0  0  0  0
   55.5820   21.8400   44.9720 N   0  0  0  0  0  0  0  0  0  0  0  0
   56.2450   21.4710   46.2210 C   0  0  0  0  0  0  0  0  0  0  0  0
   55.2430   21.7340   47.3260 C   0  0  0  0  0  0  0  0  0  0  0  0
   54.3560   22.8440   46.7880 C   0  0  0  0  0  0  0  0  0  0  0  0
   54.6980   22.9620   45.3050 C   0  0  0  0  0  0  0  0  0  0  0  0
   57.3490   24.8580   42.9920 C   0  0  0  0  0  0  0  0  0  0  0  0
   57.7750   26.1680   43.2300 C   0  0  0  0  0  0  0  0  0  0  0  0
   57.9050   28.8130   42.9350 H   0  0  0  0  0  0  0  0  0  0  0  0
   57.9900   31.1268   42.2619 H   0  0  0  0  0  0  0  0  0  0  0  0
   57.9978   33.5364   42.8873 H   0  0  0  0  0  0  0  0  0  0  0  0
   59.8957   35.4494   44.6556 H   0  0  0  0  0  0  0  0  0  0  0  0
   58.9779   36.3108   45.9521 H   0  0  0  0  0  0  0  0  0  0  0  0
   58.7375   34.9693   48.2484 H   0  0  0  0  0  0  0  0  0  0  0  0
   62.5674   32.7259   50.3712 H   0  0  0  0  0  0  0  0  0  0  0  0
   64.7536   32.0542   49.0640 H   0  0  0  0  0  0  0  0  0  0  0  0
   58.3813   32.4551   47.0623 H   0  0  0  0  0  0  0  0  0  0  0  0
   58.3703   30.0432   46.4373 H   0  0  0  0  0  0  0  0  0  0  0  0
   58.3925   25.9368   46.5880 H   0  0  0  0  0  0  0  0  0  0  0  0
   57.6271   23.6040   46.1589 H   0  0  0  0  0  0  0  0  0  0  0  0
   56.5239   20.4071   46.2046 H   0  0  0  0  0  0  0  0  0  0  0  0
   57.1679   22.0505   46.3709 H   0  0  0  0  0  0  0  0  0  0  0  0
   54.6504   20.8311   47.5350 H   0  0  0  0  0  0  0  0  0  0  0  0
   55.7308   22.0132   48.2716 H   0  0  0  0  0  0  0  0  0  0  0  0
   53.2950   22.5843   46.9177 H   0  0  0  0  0  0  0  0  0  0  0  0
   54.5230   23.7920   47.3204 H   0  0  0  0  0  0  0  0  0  0  0  0
   53.7799   22.9101   44.7014 H   0  0  0  0  0  0  0  0  0  0  0  0
   55.1905   23.9226   45.0936 H   0  0  0  0  0  0  0  0  0  0  0  0
   57.0529   24.5537   41.9773 H   0  0  0  0  0  0  0  0  0  0  0  0
   57.8189   26.8870   42.3987 H   0  0  0  0  0  0  0  0  0  0  0  0
  1  2  2  0
  2  3  1  0
  3  4  1  0
  4  5  2  0
  5  6  1  0
  6  7  2  0
  7  8  1  0
  8  9  1  0
  9 10  1  0
 10 11  2  0
 11 12  1  0
 12 13  2  0
 12 14  1  0
 14 15  1  0
 15 16  2  0
 16 17  1  0
 17 18  1  0
 18 19  2  0
  7 20  1  0
 20 21  2  0
  2 22  1  0
 22 23  2  0
 23 24  1  0
 24 25  2  0
 25 26  1  0
 26 27  2  0
 26 28  2  0
 26 29  1  0
 29 30  1  0
 30 31  1  0
 31 32  1  0
 32 33  1  0
 25 34  1  0
 34 35  2  0
 21  4  1  0
 35 22  1  0
 19 10  1  0
 33 29  1  0
 18 14  1  0
  3 36  1  0
  5 37  1  0
  6 38  1  0
  9 39  1  0
  9 40  1  0
 11 41  1  0
 15 42  1  0
 16 43  1  0
 20 44  1  0
 21 45  1  0
 23 46  1  0
 24 47  1  0
 30 48  1  0
 30 49  1  0
 31 50  1  0
 31 51  1  0
 32 52  1  0
 32 53  1  0
 33 54  1  0
 33 55  1  0
 34 56  1  0
 35 57  1  0
M  END
>  <UniqueID>  (14) 
13

>  <SMILES>  (14) 
O=C(Nc1ccc(OCc2cc(=O)n3ccsc3n2)cc1)c1ccc(S(=O)(=O)N2CCCC2)cc1

>  <Energy>  (14) 
102.9720936098919

>  <Genealogy>  (14) 
O=C(Nc1ccc(OCc2cc(=O)n3ccsc3n2)cc1)c1ccc(S(=O)(=O)N2CCCC2)cc1 (3D coordinates assigned)
O=C(Nc1ccc(OCc2cc(=O)n3ccsc3n2)cc1)c1ccc(S(=O)(=O)N2CCCC2)cc1 (nonaromatic ring conformer: 102.9720936098919 kcal/mol)

>  <smiles>  (14) 
O=C(Nc1ccc(OCc2cc(=O)n3ccsc3n2)cc1)c1ccc(S(=O)(=O)N2CCCC2)cc1

>  <score_type>  (14) 
oracle

>  <origin>  (14) 
adg

>  <m_score__min__energy>  (14) 
-9.5399999999999991

>  <m_primary>  (14) 
energy

$$$$
14:0
     RDKit          3D

 65 68  0  0  0  0  0  0  0  0999 V2000
   57.6110   29.3760   52.7440 C   0  0  0  0  0  0  0  0  0  0  0  0
   57.6920   29.3540   51.3240 O   0  0  0  0  0  0  0  0  0  0  0  0
   58.8340   29.7080   50.5880 C   0  0  0  0  0  0  0  0  0  0  0  0
   59.8880   28.7900   50.5160 C   0  0  0  0  0  0  0  0  0  0  0  0
   61.0500   29.1000   49.8080 C   0  0  0  0  0  0  0  0  0  0  0  0
   61.1750   30.3360   49.1710 C   0  0  0  0  0  0  0  0  0  0  0  0
   60.1250   31.2710   49.2210 C   0  0  0  0  0  0  0  0  0  0  0  0
   60.2640   32.5610   48.5930 N   0  0  0  0  0  0  0  0  0  0  0  0
   61.2960   32.7630   47.5600 C   0  0  0  0  0  0  0  0  0  0  0  0
   60.9840   33.9800   46.6750 C   0  0  0  0  0  0  0  0  0  0  0  0
   59.5400   34.0600   46.4270 N   0  0  0  0  0  0  0  0  0  0  0  0
   59.0560   34.2510   45.0940 C   0  0  0  0  0  0  0  0  0  0  0  0
   59.2880   35.3350   44.4960 O   0  0  0  0  0  0  0  0  0  0  0  0
   58.3390   33.1420   44.3840 C   0  0  0  0  0  0  0  0  0  0  0  0
   57.2640   32.5170   45.2720 C   0  0  0  0  0  0  0  0  0  0  0  0
   56.6250   31.4020   44.5810 N   0  0  0  0  0  0  0  0  0  0  0  0
   56.7280   30.0290   44.9800 C   0  0  0  0  0  0  0  0  0  0  0  0
   55.6940   29.3120   45.0480 O   0  0  0  0  0  0  0  0  0  0  0  0
   58.0540   29.4670   45.3310 C   0  0  0  0  0  0  0  0  0  0  0  0
   59.1270   30.3510   45.5380 C   0  0  0  0  0  0  0  0  0  0  0  0
   60.3720   29.8740   45.9490 C   0  0  0  0  0  0  0  0  0  0  0  0
   60.5670   28.5110   46.1570 C   0  0  0  0  0  0  0  0  0  0  0  0
   59.5240   27.6020   45.9350 C   0  0  0  0  0  0  0  0  0  0  0  0
   59.7630   26.1320   46.1520 C   0  0  0  0  0  0  0  0  0  0  0  0
   58.2620   28.0730   45.5050 C   0  0  0  0  0  0  0  0  0  0  0  0
   57.2160   27.1280   45.2190 N   0  0  0  0  0  0  0  0  0  0  0  0
   56.7240   26.2130   46.2100 C   0  0  0  0  0  0  0  0  0  0  0  0
   57.2630   26.1590   47.3490 O   0  0  0  0  0  0  0  0  0  0  0  0
   55.5770   25.3420   45.9100 C   0  0  0  0  0  0  0  0  0  0  0  0
   55.5980   23.9620   45.8580 C   0  0  0  0  0  0  0  0  0  0  0  0
   54.3070   23.5820   45.5560 C   0  0  0  0  0  0  0  0  0  0  0  0
   53.5810   24.7510   45.4420 C   0  0  0  0  0  0  0  0  0  0  0  0
   54.3650   25.7820   45.6580 O   0  0  0  0  0  0  0  0  0  0  0  0
   58.5860   33.9960   47.5420 C   0  0  0  0  0  0  0  0  0  0  0  0
   59.2980   33.6380   48.8500 C   0  0  0  0  0  0  0  0  0  0  0  0
   58.9570   30.9500   49.9340 C   0  0  0  0  0  0  0  0  0  0  0  0
   58.5892   29.1103   53.1712 H   0  0  0  0  0  0  0  0  0  0  0  0
   57.3260   30.3841   53.0794 H   0  0  0  0  0  0  0  0  0  0  0  0
   56.8552   28.6506   53.0794 H   0  0  0  0  0  0  0  0  0  0  0  0
   59.7998   27.8169   51.0212 H   0  0  0  0  0  0  0  0  0  0  0  0
   61.8696   28.3685   49.7517 H   0  0  0  0  0  0  0  0  0  0  0  0
   62.0994   30.5801   48.6271 H   0  0  0  0  0  0  0  0  0  0  0  0
   62.2672   32.9198   48.0522 H   0  0  0  0  0  0  0  0  0  0  0  0
   61.3187   31.8696   46.9187 H   0  0  0  0  0  0  0  0  0  0  0  0
   61.3180   34.8962   47.1839 H   0  0  0  0  0  0  0  0  0  0  0  0
   61.5110   33.8745   45.7152 H   0  0  0  0  0  0  0  0  0  0  0  0
   57.8646   33.5450   43.4771 H   0  0  0  0  0  0  0  0  0  0  0  0
   59.0723   32.3635   44.1269 H   0  0  0  0  0  0  0  0  0  0  0  0
   57.7270   32.1517   46.2005 H   0  0  0  0  0  0  0  0  0  0  0  0
   56.5043   33.2776   45.5051 H   0  0  0  0  0  0  0  0  0  0  0  0
   58.9837   31.4293   45.3744 H   0  0  0  0  0  0  0  0  0  0  0  0
   61.2026   30.5772   46.1093 H   0  0  0  0  0  0  0  0  0  0  0  0
   61.5468   28.1453   46.4980 H   0  0  0  0  0  0  0  0  0  0  0  0
   59.7972   25.9215   47.2311 H   0  0  0  0  0  0  0  0  0  0  0  0
   58.9467   25.5559   45.6917 H   0  0  0  0  0  0  0  0  0  0  0  0
   60.7197   25.8442   45.6917 H   0  0  0  0  0  0  0  0  0  0  0  0
   56.6790   27.2410   44.3330 H   0  0  0  0  0  0  0  0  0  0  0  0
   56.4636   23.3035   46.0230 H   0  0  0  0  0  0  0  0  0  0  0  0
   53.9317   22.5555   45.4312 H   0  0  0  0  0  0  0  0  0  0  0  0
   52.5082   24.8097   45.2060 H   0  0  0  0  0  0  0  0  0  0  0  0
   58.0969   34.9749   47.6543 H   0  0  0  0  0  0  0  0  0  0  0  0
   57.8406   33.2173   47.3228 H   0  0  0  0  0  0  0  0  0  0  0  0
   59.8264   34.5224   49.2356 H   0  0  0  0  0  0  0  0  0  0  0  0
   58.5599   33.3038   49.5940 H   0  0  0  0  0  0  0  0  0  0  0  0
   58.1312   31.6751   49.9819 H   0  0  0  0  0  0  0  0  0  0  0  0
  1  2  1  0
  2  3  1  0
  3  4  2  0
  4  5  1  0
  5  6  2  0
  6  7  1  0
  7  8  1  0
  8  9  1  0
  9 10  1  0
 10 11  1  0
 11 12  1  0
 12 13  2  0
 12 14  1  0
 14 15  1  0
 15 16  1  0
 16 17  1  0
 17 18  2  0
 17 19  1  0
 19 20  2  0
 20 21  1  0
 21 22  2  0
 22 23  1  0
 23 24  1  0
 23 25  2  0
 25 26  1  0
 26 27  1  0
 27 28  2  0
 27 29  1  0
 29 30  2  0
 30 31  1  0
 31 32  2  0
 32 33  1  0
 11 34  1  0
 34 35  1  0
  7 36  2  0
 36  3  1  0
 35  8  1  0
 25 19  1  0
 33 29  1  0
  1 37  1  0
  1 38  1  0
  1 39  1  0
  4 40  1  0
  5 41  1  0
  6 42  1  0
  9 43  1  0
  9 44  1  0
 10 45  1  0
 10 46  1  0
 14 47  1  0
 14 48  1  0
 15 49  1  0
 15 50  1  0
 20 51  1  0
 21 52  1  0
 22 53  1  0
 24 54  1  0
 24 55  1  0
 24 56  1  0
 26 57  1  0
 30 58  1  0
 31 59  1  0
 32 60  1  0
 34 61  1  0
 34 62  1  0
 35 63  1  0
 35 64  1  0
 36 65  1  0
M  CHG  1  16  -1
M  END
>  <UniqueID>  (15) 
14

>  <SMILES>  (15) 
COc1cccc(N2CCN(C(=O)CC[N-]C(=O)c3cccc(C)c3NC(=O)c3ccco3)CC2)c1

>  <Energy>  (15) 
108.37145024120466

>  <Genealogy>  (15) 
COc1cccc(N2CCN(C(=O)CC[N-]C(=O)c3cccc(C)c3NC(=O)c3ccco3)CC2)c1 (protonated)
COc1cccc(N2CCN(C(=O)CC[N-]C(=O)c3cccc(C)c3NC(=O)c3ccco3)CC2)c1 (3D coordinates assigned)
COc1cccc(N2CCN(C(=O)CC[N-]C(=O)c3cccc(C)c3NC(=O)c3ccco3)CC2)c1 (nonaromatic ring conformer: 108.37145024120466 kcal/mol)

>  <smiles>  (15) 
COc1cccc(N2CCN(C(=O)CCNC(=O)c3cccc(C)c3NC(=O)c3ccco3)CC2)c1

>  <score_type>  (15) 
oracle

>  <origin>  (15) 
adg

>  <m_score__min__energy>  (15) 
-11.640000000000001

>  <m_primary>  (15) 
energy

$$$$
15:0
     RDKit          3D

 55 59  0  0  0  0  0  0  0  0999 V2000
   60.7050   33.5160   45.6230 H   0  0  0  0  0  0  0  0  0  0  0  0
   61.4610   33.9210   46.1650 O   0  0  0  0  0  0  0  0  0  0  0  0
   62.0360   33.2390   47.2350 C   0  0  0  0  0  0  0  0  0  0  0  0
   63.0350   33.8420   48.0110 C   0  0  0  0  0  0  0  0  0  0  0  0
   63.3713   34.8626   47.7762 H   0  0  0  0  0  0  0  0  0  0  0  0
   63.6050   33.1490   49.0830 C   0  0  0  0  0  0  0  0  0  0  0  0
   64.3938   33.6241   49.6848 H   0  0  0  0  0  0  0  0  0  0  0  0
   63.1750   31.8490   49.3950 C   0  0  0  0  0  0  0  0  0  0  0  0
   63.8140   31.0870   50.5230 C   0  0  0  0  0  0  0  0  0  0  0  0
   64.6859   31.6464   50.8929 H   0  0  0  0  0  0  0  0  0  0  0  0
   64.1327   30.0996   50.1576 H   0  0  0  0  0  0  0  0  0  0  0  0
   62.8330   30.9060   51.6360 C   0  0  0  0  0  0  0  0  0  0  0  0
   63.2010   30.8050   52.9310 N   0  0  0  0  0  0  0  0  0  0  0  0
   62.0290   30.7130   53.5780 C   0  0  0  0  0  0  0  0  0  0  0  0
   61.9330   30.5510   54.9540 O   0  0  0  0  0  0  0  0  0  0  0  0
   60.9820   30.7740   52.6780 C   0  0  0  0  0  0  0  0  0  0  0  0
   59.5280   30.7030   52.9370 C   0  0  0  0  0  0  0  0  0  0  0  0
   58.9700   29.4820   53.1670 N   0  0  0  0  0  0  0  0  0  0  0  0
   57.6410   29.3140   53.4080 C   0  0  0  0  0  0  0  0  0  0  0  0
   57.1140   27.9340   53.6570 C   0  0  0  0  0  0  0  0  0  0  0  0
   57.0465   27.7573   54.7406 H   0  0  0  0  0  0  0  0  0  0  0  0
   56.1152   27.8361   53.2066 H   0  0  0  0  0  0  0  0  0  0  0  0
   57.7933   27.1953   53.2066 H   0  0  0  0  0  0  0  0  0  0  0  0
   56.7890   30.4340   53.4030 C   0  0  0  0  0  0  0  0  0  0  0  0
   55.3770   30.2960   53.6360 N   0  0  0  0  0  0  0  0  0  0  0  0
   54.8100   29.9010   54.7950 C   0  0  0  0  0  0  0  0  0  0  0  0
   55.5680   29.5270   56.0310 C   0  0  0  0  0  0  0  0  0  0  0  0
   54.9859   29.8142   56.9191 H   0  0  0  0  0  0  0  0  0  0  0  0
   55.7401   28.4406   56.0410 H   0  0  0  0  0  0  0  0  0  0  0  0
   56.5349   30.0515   56.0410 H   0  0  0  0  0  0  0  0  0  0  0  0
   53.4340   29.9350   54.6910 C   0  0  0  0  0  0  0  0  0  0  0  0
   52.7102   29.6929   55.4831 H   0  0  0  0  0  0  0  0  0  0  0  0
   53.1400   30.3330   53.3960 C   0  0  0  0  0  0  0  0  0  0  0  0
   51.8800   30.4080   52.9250 C   0  0  0  0  0  0  0  0  0  0  0  0
   51.0673   30.1500   53.6199 H   0  0  0  0  0  0  0  0  0  0  0  0
   51.4980   30.8050   51.5620 C   0  0  0  0  0  0  0  0  0  0  0  0
   51.7380   30.0530   50.4730 N   0  0  0  0  0  0  0  0  0  0  0  0
   51.3460   30.8460   49.4520 C   0  0  0  0  0  0  0  0  0  0  0  0
   51.4020   30.4800   48.2500 O   0  0  0  0  0  0  0  0  0  0  0  0
   50.9000   32.0670   49.8210 N   0  0  0  0  0  0  0  0  0  0  0  0
   51.0170   32.0300   51.1580 C   0  0  0  0  0  0  0  0  0  0  0  0
   50.7180   33.1040   51.9880 O   0  0  0  0  0  0  0  0  0  0  0  0
   54.3720   30.5980   52.7770 C   0  0  0  0  0  0  0  0  0  0  0  0
   54.5760   31.1950   51.5920 C   0  0  0  0  0  0  0  0  0  0  0  0
   55.6005   31.3426   51.2196 H   0  0  0  0  0  0  0  0  0  0  0  0
   53.7187   31.5366   50.9934 H   0  0  0  0  0  0  0  0  0  0  0  0
   57.3360   31.6990   53.1670 C   0  0  0  0  0  0  0  0  0  0  0  0
   56.6854   32.5860   53.1690 H   0  0  0  0  0  0  0  0  0  0  0  0
   58.7030   31.8410   52.9290 C   0  0  0  0  0  0  0  0  0  0  0  0
   59.1320   32.8355   52.7366 H   0  0  0  0  0  0  0  0  0  0  0  0
   61.4960   30.8960   51.4410 N   0  0  0  0  0  0  0  0  0  0  0  0
   62.1830   31.2440   48.6050 C   0  0  0  0  0  0  0  0  0  0  0  0
   61.8523   30.2193   48.8300 H   0  0  0  0  0  0  0  0  0  0  0  0
   61.6150   31.9400   47.5340 C   0  0  0  0  0  0  0  0  0  0  0  0
   60.8335   31.4635   46.9240 H   0  0  0  0  0  0  0  0  0  0  0  0
  1  2  1  0
  2  3  1  0
  3  4  2  0
  4  5  1  0
  4  6  1  0
  6  7  1  0
  6  8  2  0
  8  9  1  0
  9 10  1  0
  9 11  1  0
  9 12  1  0
 12 13  2  0
 13 14  1  0
 14 15  1  0
 14 16  2  0
 16 17  1  0
 17 18  2  0
 18 19  1  0
 19 20  1  0
 20 21  1  0
 20 22  1  0
 20 23  1  0
 19 24  2  0
 24 25  1  0
 25 26  1  0
 26 27  1  0
 27 28  1  0
 27 29  1  0
 27 30  1  0
 26 31  2  0
 31 32  1  0
 31 33  1  0
 33 34  2  0
 34 35  1  0
 34 36  1  0
 36 37  1  0
 37 38  1  0
 38 39  2  0
 38 40  1  0
 40 41  1  0
 41 42  1  0
 33 43  1  0
 43 44  2  0
 44 45  1  0
 44 46  1  0
 24 47  1  0
 47 48  1  0
 47 49  2  0
 49 50  1  0
 16 51  1  0
  8 52  1  0
 52 53  1  0
 52 54  2  0
 54 55  1  0
 54  3  1  0
 51 12  1  0
 49 17  1  0
 43 25  1  0
 41 36  2  0
M  CHG  5  15  -1  37  -1  40  -1  42  -1  51  -1
M  END
>  <UniqueID>  (16) 
15

>  <SMILES>  (16) 
C=c1/c(=C\c2[n-]c(=O)[n-]c2[O-])cc(C)n1-c1ccc(-c2[n-]c(Cc3ccc(O)cc3)nc2[O-])nc1C

>  <Energy>  (16) 
165.22820561196033

>  <Genealogy>  (16) 
C=c1c(=Cc2[n-]c(=O)[n-]c2[O-])cc(C)n1-c1ccc(-c2[n-]c(Cc3ccc(O)cc3)nc2[O-])nc1C (protonated)
C=c1/c(=C\c2[n-]c(=O)[n-]c2[O-])cc(C)n1-c1ccc(-c2[n-]c(Cc3ccc(O)cc3)nc2[O-])nc1C (cis-trans isomerization)
C=c1/c(=C\c2[n-]c(=O)[n-]c2[O-])cc(C)n1-c1ccc(-c2[n-]c(Cc3ccc(O)cc3)nc2[O-])nc1C (3D coordinates assigned)
C=c1/c(=C\c2[n-]c(=O)[n-]c2[O-])cc(C)n1-c1ccc(-c2[n-]c(Cc3ccc(O)cc3)nc2[O-])nc1C (optimized conformer: 165.22820561196033 kcal/mol)

>  <smiles>  (16) 
C=c1c(=Cc2[nH]c(=O)[nH]c2O)cc(C)n1-c1ccc(-c2[nH]c(Cc3ccc(O)cc3)nc2O)nc1C

>  <score_type>  (16) 
oracle

>  <origin>  (16) 
adg

>  <m_score__min__energy>  (16) 
-17.07

>  <m_primary>  (16) 
energy

$$$$
16:0
     RDKit          3D

 47 49  0  0  0  0  0  0  0  0999 V2000
   61.1070   33.2740   51.2950 C   0  0  0  0  0  0  0  0  0  0  0  0
   61.2500   33.6510   49.8540 C   0  0  0  0  0  0  0  0  0  0  0  0
   60.2070   34.2940   49.1810 C   0  0  0  0  0  0  0  0  0  0  0  0
   60.3690   34.5910   47.8220 C   0  0  0  0  0  0  0  0  0  0  0  0
   59.2730   35.2620   47.0540 C   0  0  0  0  0  0  0  0  0  0  0  0
   59.1170   34.6170   45.7930 O   0  0  0  0  0  0  0  0  0  0  0  0
   58.7770   33.2670   45.6290 C   0  0  0  0  0  0  0  0  0  0  0  0
   59.5390   32.3040   46.2990 C   0  0  0  0  0  0  0  0  0  0  0  0
   59.2410   30.9430   46.1690 C   0  0  0  0  0  0  0  0  0  0  0  0
   58.1740   30.5210   45.3540 C   0  0  0  0  0  0  0  0  0  0  0  0
   57.8440   29.0820   45.2090 C   0  0  0  0  0  0  0  0  0  0  0  0
   57.4120   28.4500   46.2120 O   0  0  0  0  0  0  0  0  0  0  0  0
   57.9770   28.4160   43.9390 N   0  0  0  0  0  0  0  0  0  0  0  0
   57.9600   26.9880   43.7700 C   0  0  0  0  0  0  0  0  0  0  0  0
   58.1320   26.3810   42.2490 S   0  0  0  0  0  0  0  0  0  0  0  0
   57.6480   26.1330   44.8880 N   0  0  0  0  0  0  0  0  0  0  0  0
   56.7630   25.1770   44.9560 C   0  0  0  0  0  0  0  0  0  0  0  0
   57.0470   23.9200   44.5100 N   0  0  0  0  0  0  0  0  0  0  0  0
   56.1550   22.8990   44.5990 C   0  0  0  0  0  0  0  0  0  0  0  0
   54.8990   23.1190   45.1670 C   0  0  0  0  0  0  0  0  0  0  0  0
   54.5770   24.3920   45.6380 C   0  0  0  0  0  0  0  0  0  0  0  0
   55.5060   25.4320   45.5400 C   0  0  0  0  0  0  0  0  0  0  0  0
   55.1600   26.6950   46.0230 O   0  0  0  0  0  0  0  0  0  0  0  0
   57.4020   31.4910   44.6900 C   0  0  0  0  0  0  0  0  0  0  0  0
   57.7010   32.8510   44.8220 C   0  0  0  0  0  0  0  0  0  0  0  0
   61.5190   34.2360   47.1890 N   0  0  0  0  0  0  0  0  0  0  0  0
   62.5260   33.6130   47.8590 C   0  0  0  0  0  0  0  0  0  0  0  0
   63.7610   33.1980   47.1290 C   0  0  0  0  0  0  0  0  0  0  0  0
   62.3790   33.3130   49.1780 N   0  0  0  0  0  0  0  0  0  0  0  0
   61.4262   34.1154   51.9276 H   0  0  0  0  0  0  0  0  0  0  0  0
   60.0551   33.0332   51.5084 H   0  0  0  0  0  0  0  0  0  0  0  0
   61.7346   32.3962   51.5084 H   0  0  0  0  0  0  0  0  0  0  0  0
   59.2789   34.5610   49.7076 H   0  0  0  0  0  0  0  0  0  0  0  0
   58.3325   35.1935   47.6204 H   0  0  0  0  0  0  0  0  0  0  0  0
   59.5283   36.3204   46.8969 H   0  0  0  0  0  0  0  0  0  0  0  0
   60.3801   32.6195   46.9338 H   0  0  0  0  0  0  0  0  0  0  0  0
   59.8449   30.1978   46.7075 H   0  0  0  0  0  0  0  0  0  0  0  0
   58.1120   28.9990   43.0840 H   0  0  0  0  0  0  0  0  0  0  0  0
   56.4223   21.9001   44.2239 H   0  0  0  0  0  0  0  0  0  0  0  0
   54.1712   22.2976   45.2424 H   0  0  0  0  0  0  0  0  0  0  0  0
   53.5903   24.5778   46.0873 H   0  0  0  0  0  0  0  0  0  0  0  0
   55.8420   27.3320   46.4150 H   0  0  0  0  0  0  0  0  0  0  0  0
   56.5556   31.1774   44.0613 H   0  0  0  0  0  0  0  0  0  0  0  0
   57.0925   33.5991   44.2927 H   0  0  0  0  0  0  0  0  0  0  0  0
   64.5447   32.9346   47.8545 H   0  0  0  0  0  0  0  0  0  0  0  0
   63.5379   32.3255   46.4974 H   0  0  0  0  0  0  0  0  0  0  0  0
   64.1100   34.0282   46.4974 H   0  0  0  0  0  0  0  0  0  0  0  0
  1  2  1  0
  2  3  2  0
  3  4  1  0
  4  5  1  0
  5  6  1  0
  6  7  1  0
  7  8  2  0
  8  9  1  0
  9 10  2  0
 10 11  1  0
 11 12  2  0
 11 13  1  0
 13 14  1  0
 14 15  2  0
 14 16  1  0
 16 17  2  3
 17 18  1  0
 18 19  1  0
 19 20  2  0
 20 21  1  0
 21 22  2  0
 22 23  1  0
 10 24  1  0
 24 25  2  0
  4 26  2  0
 26 27  1  0
 27 28  1  0
 27 29  2  0
 29  2  1  0
 25  7  1  0
 22 17  1  0
  1 30  1  0
  1 31  1  0
  1 32  1  0
  3 33  1  0
  5 34  1  0
  5 35  1  0
  8 36  1  0
  9 37  1  0
 13 38  1  0
 19 39  1  0
 20 40  1  0
 21 41  1  0
 23 42  1  0
 24 43  1  0
 25 44  1  0
 28 45  1  0
 28 46  1  0
 28 47  1  0
M  CHG  1  18  -1
M  END
>  <UniqueID>  (17) 
16

>  <SMILES>  (17) 
Cc1cc(COc2ccc(C(=O)NC(=S)N=c3[n-]cccc3O)cc2)nc(C)n1

>  <Energy>  (17) 
56.290781763958414

>  <Genealogy>  (17) 
Cc1cc(COc2ccc(C(=O)NC(=S)N=c3[n-]cccc3O)cc2)nc(C)n1 (protonated)
Cc1cc(COc2ccc(C(=O)NC(=S)N=c3[n-]cccc3O)cc2)nc(C)n1 (3D coordinates assigned)
Cc1cc(COc2ccc(C(=O)NC(=S)N=c3[n-]cccc3O)cc2)nc(C)n1 (optimized conformer: 56.290781763958414 kcal/mol)

>  <smiles>  (17) 
Cc1cc(COc2ccc(C(=O)NC(=S)N=c3[nH]cccc3O)cc2)nc(C)n1

>  <score_type>  (17) 
oracle

>  <origin>  (17) 
adg

>  <m_score__min__energy>  (17) 
-10.630000000000001

>  <m_primary>  (17) 
energy

$$$$
17:0
     RDKit          3D

 38 40  0  0  0  0  0  0  0  0999 V2000
   55.1620   26.4420   46.0400 N   0  0  0  0  0  0  0  0  0  0  0  0
   56.8830   26.4990   45.9050 S   0  0  0  0  0  0  0  0  0  0  0  0
   57.5060   25.9890   47.1760 O   0  0  0  0  0  0  0  0  0  0  0  0
   57.3250   25.6200   44.7680 O   0  0  0  0  0  0  0  0  0  0  0  0
   57.3970   28.1570   45.6130 C   0  0  0  0  0  0  0  0  0  0  0  0
   58.5910   28.6320   46.1700 C   0  0  0  0  0  0  0  0  0  0  0  0
   58.9950   29.9520   45.9480 C   0  0  0  0  0  0  0  0  0  0  0  0
   58.2000   30.8190   45.1870 C   0  0  0  0  0  0  0  0  0  0  0  0
   58.6600   32.1610   44.9720 N   0  0  0  0  0  0  0  0  0  0  0  0
   57.9540   33.3670   45.2900 C   0  0  0  0  0  0  0  0  0  0  0  0
   56.6950   33.4100   45.2470 O   0  0  0  0  0  0  0  0  0  0  0  0
   58.7180   34.5650   45.7570 C   0  0  0  0  0  0  0  0  0  0  0  0
   60.3350   34.0720   46.4480 S   0  0  0  0  0  0  0  0  0  0  0  0
   59.6780   33.6040   48.0470 C   0  0  0  0  0  0  0  0  0  0  0  0
   60.0960   34.1410   49.2130 N   0  0  0  0  0  0  0  0  0  0  0  0
   59.4700   33.6360   50.2750 N   0  0  0  0  0  0  0  0  0  0  0  0
   58.5510   32.7000   49.9460 C   0  0  0  0  0  0  0  0  0  0  0  0
   57.8330   32.0460   50.8080 N   0  0  0  0  0  0  0  0  0  0  0  0
   57.8800   30.6270   51.0200 C   0  0  0  0  0  0  0  0  0  0  0  0
   56.9550   30.0810   51.6770 O   0  0  0  0  0  0  0  0  0  0  0  0
   59.0080   29.8020   50.5480 C   0  0  0  0  0  0  0  0  0  0  0  0
   59.1770   29.2790   49.2700 C   0  0  0  0  0  0  0  0  0  0  0  0
   60.3800   28.5780   49.1130 C   0  0  0  0  0  0  0  0  0  0  0  0
   61.1670   28.5560   50.2570 C   0  0  0  0  0  0  0  0  0  0  0  0
   60.3660   29.4130   51.4620 S   0  0  0  0  0  0  0  0  0  0  0  0
   58.4870   32.4350   48.2870 S   0  0  0  0  0  0  0  0  0  0  0  0
   57.0080   30.3360   44.6150 C   0  0  0  0  0  0  0  0  0  0  0  0
   56.6070   29.0150   44.8360 C   0  0  0  0  0  0  0  0  0  0  0  0
   54.7750   26.6950   45.1040 H   0  0  0  0  0  0  0  0  0  0  0  0
   59.2130   27.9643   46.7842 H   0  0  0  0  0  0  0  0  0  0  0  0
   59.9432   30.3121   46.3736 H   0  0  0  0  0  0  0  0  0  0  0  0
   58.8807   35.2433   44.9065 H   0  0  0  0  0  0  0  0  0  0  0  0
   58.1372   35.0699   46.5429 H   0  0  0  0  0  0  0  0  0  0  0  0
   58.4397   29.4034   48.4632 H   0  0  0  0  0  0  0  0  0  0  0  0
   60.6736   28.0906   48.1716 H   0  0  0  0  0  0  0  0  0  0  0  0
   62.1453   28.0632   50.3576 H   0  0  0  0  0  0  0  0  0  0  0  0
   56.3902   30.9998   43.9923 H   0  0  0  0  0  0  0  0  0  0  0  0
   55.6672   28.6475   44.3981 H   0  0  0  0  0  0  0  0  0  0  0  0
  1  2  1  0
  2  3  2  0
  2  4  2  0
  2  5  1  0
  5  6  2  0
  6  7  1  0
  7  8  2  0
  8  9  1  0
  9 10  1  0
 10 11  2  0
 10 12  1  0
 12 13  1  0
 13 14  1  0
 14 15  2  0
 15 16  1  0
 16 17  1  0
 17 18  2  3
 18 19  1  0
 19 20  2  0
 19 21  1  0
 21 22  2  0
 22 23  1  0
 23 24  2  0
 24 25  1  0
 17 26  1  0
  8 27  1  0
 27 28  2  0
 28  5  1  0
 26 14  1  0
 25 21  1  0
  1 29  1  0
  6 30  1  0
  7 31  1  0
 12 32  1  0
 12 33  1  0
 22 34  1  0
 23 35  1  0
 24 36  1  0
 27 37  1  0
 28 38  1  0
M  CHG  3   1  -1   9  -1  16  -1
M  END
>  <UniqueID>  (18) 
17

>  <SMILES>  (18) 
[NH-]S(=O)(=O)c1ccc([N-]C(=O)CSc2n[n-]c(=NC(=O)c3cccs3)s2)cc1

>  <Energy>  (18) 
104.94370080773895

>  <Genealogy>  (18) 
[NH-]S(=O)(=O)c1ccc([N-]C(=O)CSc2n[n-]c(=NC(=O)c3cccs3)s2)cc1 (protonated)
[NH-]S(=O)(=O)c1ccc([N-]C(=O)CSc2n[n-]c(=NC(=O)c3cccs3)s2)cc1 (3D coordinates assigned)
[NH-]S(=O)(=O)c1ccc([N-]C(=O)CSc2n[n-]c(=NC(=O)c3cccs3)s2)cc1 (optimized conformer: 104.94370080773895 kcal/mol)

>  <smiles>  (18) 
NS(=O)(=O)c1ccc(NC(=O)CSc2n[nH]c(=NC(=O)c3cccs3)s2)cc1

>  <score_type>  (18) 
oracle

>  <origin>  (18) 
adg

>  <m_score__min__energy>  (18) 
-12.76

>  <m_primary>  (18) 
energy

$$$$
18:0
     RDKit          3D

 61 65  0  0  0  0  0  0  0  0999 V2000
   57.3490   32.9640   46.3110 O   0  0  0  0  0  0  0  0  0  0  0  0
   58.0120   32.1350   45.6370 C   0  0  0  0  0  0  0  0  0  0  0  0
   59.3970   31.9410   45.9710 N   0  0  0  0  0  0  0  0  0  0  0  0
   59.9910   31.7240   47.2930 C   0  0  1  0  0  0  0  0  0  0  0  0
   60.0160   30.2140   47.6140 C   0  0  0  0  0  0  0  0  0  0  0  0
   58.6210   29.5580   47.5730 C   0  0  0  0  0  0  0  0  0  0  0  0
   58.4980   28.3620   46.7160 N   0  0  0  0  0  0  0  0  0  0  0  0
   59.3490   27.2120   47.0060 C   0  0  2  0  0  0  0  0  0  0  0  0
   60.5750   27.3360   46.0860 C   0  0  0  0  0  0  0  0  0  0  0  0
   60.1020   28.2190   44.9360 C   0  0  0  0  0  0  0  0  0  0  0  0
   58.6390   28.5420   45.2740 C   0  0  1  0  0  0  0  0  0  0  0  0
   57.6910   27.4980   44.6430 C   0  0  0  0  0  0  0  0  0  0  0  0
   58.0150   26.0460   45.1320 C   0  0  2  0  0  0  0  0  0  0  0  0
   56.8440   25.1100   44.8940 C   0  0  0  0  0  0  0  0  0  0  0  0
   55.6800   25.1850   45.6840 C   0  0  0  0  0  0  0  0  0  0  0  0
   54.6100   24.3180   45.4530 C   0  0  0  0  0  0  0  0  0  0  0  0
   54.6830   23.3730   44.4270 C   0  0  0  0  0  0  0  0  0  0  0  0
   55.8340   23.2830   43.6340 C   0  0  0  0  0  0  0  0  0  0  0  0
   55.9150   22.3550   42.6010 O   0  0  0  0  0  0  0  0  0  0  0  0
   56.9110   24.1400   43.8750 C   0  0  0  0  0  0  0  0  0  0  0  0
   58.5070   25.9740   46.6170 C   0  0  0  0  0  0  0  0  0  0  0  0
   61.3710   32.3490   47.4160 C   0  0  0  0  0  0  0  0  0  0  0  0
   61.7450   33.4700   46.6490 C   0  0  0  0  0  0  0  0  0  0  0  0
   63.0250   34.0180   46.7720 C   0  0  0  0  0  0  0  0  0  0  0  0
   63.9410   33.4590   47.6640 C   0  0  0  0  0  0  0  0  0  0  0  0
   63.5820   32.3490   48.4350 C   0  0  0  0  0  0  0  0  0  0  0  0
   62.3070   31.7900   48.3070 C   0  0  0  0  0  0  0  0  0  0  0  0
   57.3070   31.3690   44.5920 C   0  0  0  0  0  0  0  0  0  0  0  0
   57.5710   31.3480   43.2330 C   0  0  0  0  0  0  0  0  0  0  0  0
   56.6430   30.4870   42.6860 C   0  0  0  0  0  0  0  0  0  0  0  0
   55.8600   30.0500   43.7330 C   0  0  0  0  0  0  0  0  0  0  0  0
   56.2760   30.5950   44.8520 O   0  0  0  0  0  0  0  0  0  0  0  0
   59.3610   32.2325   48.0377 H   0  0  0  0  0  0  0  0  0  0  0  0
   60.6599   29.7112   46.8774 H   0  0  0  0  0  0  0  0  0  0  0  0
   60.3967   30.1056   48.6403 H   0  0  0  0  0  0  0  0  0  0  0  0
   58.3550   29.2662   48.5997 H   0  0  0  0  0  0  0  0  0  0  0  0
   57.9499   30.3106   47.1335 H   0  0  0  0  0  0  0  0  0  0  0  0
   59.6787   27.1439   48.0532 H   0  0  0  0  0  0  0  0  0  0  0  0
   61.4144   27.8073   46.6182 H   0  0  0  0  0  0  0  0  0  0  0  0
   60.9386   26.3573   45.7396 H   0  0  0  0  0  0  0  0  0  0  0  0
   60.7008   29.1402   44.8817 H   0  0  0  0  0  0  0  0  0  0  0  0
   60.2056   27.7239   43.9592 H   0  0  0  0  0  0  0  0  0  0  0  0
   58.3963   29.5528   44.9143 H   0  0  0  0  0  0  0  0  0  0  0  0
   56.6554   27.7441   44.9204 H   0  0  0  0  0  0  0  0  0  0  0  0
   57.8267   27.5290   43.5518 H   0  0  0  0  0  0  0  0  0  0  0  0
   58.8639   25.7079   44.5196 H   0  0  0  0  0  0  0  0  0  0  0  0
   55.6135   25.9320   46.4887 H   0  0  0  0  0  0  0  0  0  0  0  0
   53.7083   24.3793   46.0800 H   0  0  0  0  0  0  0  0  0  0  0  0
   53.8346   22.6979   44.2414 H   0  0  0  0  0  0  0  0  0  0  0  0
   56.3190   22.5950   41.7030 H   0  0  0  0  0  0  0  0  0  0  0  0
   57.8208   24.0562   43.2624 H   0  0  0  0  0  0  0  0  0  0  0  0
   57.6308   25.9173   47.2796 H   0  0  0  0  0  0  0  0  0  0  0  0
   59.1425   25.0824   46.7229 H   0  0  0  0  0  0  0  0  0  0  0  0
   61.0246   33.9172   45.9483 H   0  0  0  0  0  0  0  0  0  0  0  0
   63.3103   34.8902   46.1654 H   0  0  0  0  0  0  0  0  0  0  0  0
   64.9474   33.8923   47.7608 H   0  0  0  0  0  0  0  0  0  0  0  0
   64.3036   31.9152   49.1430 H   0  0  0  0  0  0  0  0  0  0  0  0
   62.0336   30.9086   48.9057 H   0  0  0  0  0  0  0  0  0  0  0  0
   58.3575   31.9028   42.7004 H   0  0  0  0  0  0  0  0  0  0  0  0
   56.5469   30.2055   41.6270 H   0  0  0  0  0  0  0  0  0  0  0  0
   55.0153   29.3510   43.6441 H   0  0  0  0  0  0  0  0  0  0  0  0
  1  2  2  0
  2  3  1  0
  3  4  1  0
  4  5  1  0
  5  6  1  0
  6  7  1  0
  7  8  1  0
  8  9  1  0
  9 10  1  0
 10 11  1  0
 11 12  1  0
 12 13  1  0
 13 14  1  0
 14 15  2  0
 15 16  1  0
 16 17  2  0
 17 18  1  0
 18 19  1  0
 18 20  2  0
 13 21  1  0
  4 22  1  0
 22 23  2  0
 23 24  1  0
 24 25  2  0
 25 26  1  0
 26 27  2  0
  2 28  1  0
 28 29  2  0
 29 30  1  0
 30 31  2  0
 31 32  1  0
 11  7  1  0
 20 14  1  0
 27 22  1  0
 32 28  1  0
 21  8  1  0
  4 33  1  1
  5 34  1  0
  5 35  1  0
  6 36  1  0
  6 37  1  0
  8 38  1  1
  9 39  1  0
  9 40  1  0
 10 41  1  0
 10 42  1  0
 11 43  1  1
 12 44  1  0
 12 45  1  0
 13 46  1  6
 15 47  1  0
 16 48  1  0
 17 49  1  0
 19 50  1  0
 20 51  1  0
 21 52  1  0
 21 53  1  0
 23 54  1  0
 24 55  1  0
 25 56  1  0
 26 57  1  0
 27 58  1  0
 29 59  1  0
 30 60  1  0
 31 61  1  0
M  CHG  1   3  -1
M  END
>  <UniqueID>  (19) 
18

>  <SMILES>  (19) 
O=C([N-][C@@H](CCN1C2CC[C@@H]1CC(c1cccc(O)c1)C2)c1ccccc1)c1ccco1

>  <Energy>  (19) 
110.6517430230116

>  <Genealogy>  (19) 
O=C([N-]C(CCN1C2CCC1CC(c1cccc(O)c1)C2)c1ccccc1)c1ccco1 (protonated)
O=C([N-][C@@H](CCN1C2CC[C@@H]1CC(c1cccc(O)c1)C2)c1ccccc1)c1ccco1 (chirality)
O=C([N-][C@@H](CCN1C2CC[C@@H]1CC(c1cccc(O)c1)C2)c1ccccc1)c1ccco1 (3D coordinates assigned)
O=C([N-][C@@H](CCN1C2CC[C@@H]1CC(c1cccc(O)c1)C2)c1ccccc1)c1ccco1 (nonaromatic ring conformer: 110.6517430230116 kcal/mol)

>  <smiles>  (19) 
O=C(NC(CCN1C2CCC1CC(c1cccc(O)c1)C2)c1ccccc1)c1ccco1

>  <score_type>  (19) 
oracle

>  <origin>  (19) 
adg

>  <m_score__min__energy>  (19) 
-11.91

>  <m_primary>  (19) 
energy

$$$$
19:0
     RDKit          3D

 39 41  0  0  0  0  0  0  0  0999 V2000
   59.2940   30.8620   49.1730 C   0  0  0  0  0  0  0  0  0  0  0  0
   58.2060   31.9770   50.1190 S   0  0  0  0  0  0  0  0  0  0  0  0
   59.2860   33.4460   49.9980 C   0  0  0  0  0  0  0  0  0  0  0  0
   59.7730   33.6370   48.5880 C   0  0  0  0  0  0  0  0  0  0  0  0
   61.1470   33.7350   48.3260 C   0  0  0  0  0  0  0  0  0  0  0  0
   61.5850   33.8910   47.0090 C   0  0  0  0  0  0  0  0  0  0  0  0
   60.6840   33.9470   45.9930 N   0  0  0  0  0  0  0  0  0  0  0  0
   59.3420   33.8630   46.2140 C   0  0  0  0  0  0  0  0  0  0  0  0
   58.4940   33.9040   45.2270 N   0  0  0  0  0  0  0  0  0  0  0  0
   58.2940   32.8770   44.2420 C   0  0  0  0  0  0  0  0  0  0  0  0
   58.5080   33.1560   43.0320 O   0  0  0  0  0  0  0  0  0  0  0  0
   57.9090   31.4930   44.6100 C   0  0  0  0  0  0  0  0  0  0  0  0
   58.8530   30.6290   45.1860 C   0  0  0  0  0  0  0  0  0  0  0  0
   58.4960   29.3260   45.5440 C   0  0  0  0  0  0  0  0  0  0  0  0
   57.1820   28.8650   45.3510 C   0  0  0  0  0  0  0  0  0  0  0  0
   56.8240   27.4720   45.7300 C   0  0  0  0  0  0  0  0  0  0  0  0
   57.7930   26.5490   46.1560 C   0  0  0  0  0  0  0  0  0  0  0  0
   57.3860   25.2560   46.4920 C   0  0  0  0  0  0  0  0  0  0  0  0
   58.2300   24.4060   46.8770 O   0  0  0  0  0  0  0  0  0  0  0  0
   56.0760   24.9120   46.3990 N   0  0  0  0  0  0  0  0  0  0  0  0
   55.1490   25.8090   45.9770 C   0  0  0  0  0  0  0  0  0  0  0  0
   53.9400   25.4710   45.8940 O   0  0  0  0  0  0  0  0  0  0  0  0
   55.5250   27.0720   45.6470 N   0  0  0  0  0  0  0  0  0  0  0  0
   56.2350   29.7350   44.7790 C   0  0  0  0  0  0  0  0  0  0  0  0
   56.5940   31.0380   44.4210 C   0  0  0  0  0  0  0  0  0  0  0  0
   58.8660   33.6970   47.5200 C   0  0  0  0  0  0  0  0  0  0  0  0
   59.8888   30.2524   49.8691 H   0  0  0  0  0  0  0  0  0  0  0  0
   58.6821   30.2031   48.5395 H   0  0  0  0  0  0  0  0  0  0  0  0
   59.9677   31.4576   48.5395 H   0  0  0  0  0  0  0  0  0  0  0  0
   58.7193   34.3366   50.3074 H   0  0  0  0  0  0  0  0  0  0  0  0
   60.1563   33.2984   50.6543 H   0  0  0  0  0  0  0  0  0  0  0  0
   61.8736   33.6894   49.1506 H   0  0  0  0  0  0  0  0  0  0  0  0
   62.6609   33.9687   46.7937 H   0  0  0  0  0  0  0  0  0  0  0  0
   59.8814   30.9798   45.3570 H   0  0  0  0  0  0  0  0  0  0  0  0
   59.2502   28.6549   45.9808 H   0  0  0  0  0  0  0  0  0  0  0  0
   58.8520   26.8389   46.2237 H   0  0  0  0  0  0  0  0  0  0  0  0
   55.2048   29.3873   44.6124 H   0  0  0  0  0  0  0  0  0  0  0  0
   55.8404   31.7121   43.9878 H   0  0  0  0  0  0  0  0  0  0  0  0
   57.7853   33.6140   47.7077 H   0  0  0  0  0  0  0  0  0  0  0  0
  1  2  1  0
  2  3  1  0
  3  4  1  0
  4  5  1  0
  5  6  2  0
  6  7  1  0
  7  8  1  0
  8  9  2  3
  9 10  1  0
 10 11  2  0
 10 12  1  0
 12 13  2  0
 13 14  1  0
 14 15  2  0
 15 16  1  0
 16 17  2  0
 17 18  1  0
 18 19  2  0
 18 20  1  0
 20 21  1  0
 21 22  2  0
 21 23  1  0
 15 24  1  0
 24 25  2  0
  8 26  1  0
 26  4  2  0
 25 12  1  0
 23 16  1  0
  1 27  1  0
  1 28  1  0
  1 29  1  0
  3 30  1  0
  3 31  1  0
  5 32  1  0
  6 33  1  0
 13 34  1  0
 14 35  1  0
 17 36  1  0
 24 37  1  0
 25 38  1  0
 26 39  1  0
M  CHG  3   7  -1  20  -1  23  -1
M  END
>  <UniqueID>  (20) 
19

>  <SMILES>  (20) 
CSCc1cc[n-]c(=NC(=O)c2ccc(-c3cc(=O)[n-]c(=O)[n-]3)cc2)c1

>  <Energy>  (20) 
51.542953106016874

>  <Genealogy>  (20) 
CSCc1cc[n-]c(=NC(=O)c2ccc(-c3cc(=O)[n-]c(=O)[n-]3)cc2)c1 (protonated)
CSCc1cc[n-]c(=NC(=O)c2ccc(-c3cc(=O)[n-]c(=O)[n-]3)cc2)c1 (3D coordinates assigned)
CSCc1cc[n-]c(=NC(=O)c2ccc(-c3cc(=O)[n-]c(=O)[n-]3)cc2)c1 (optimized conformer: 51.542953106016874 kcal/mol)

>  <smiles>  (20) 
CSCc1cc[nH]c(=NC(=O)c2ccc(-c3cc(=O)[nH]c(=O)[nH]3)cc2)c1

>  <score_type>  (20) 
oracle

>  <origin>  (20) 
adg

>  <m_score__min__energy>  (20) 
-13.44

>  <m_primary>  (20) 
energy

$$$$
20:0
     RDKit          3D

 45 47  0  0  0  0  0  0  0  0999 V2000
   57.8440   33.0770   43.8920 C   0  0  0  0  0  0  0  0  0  0  0  0
   57.8280   31.7270   44.5230 C   0  0  0  0  0  0  0  0  0  0  0  0
   57.1310   30.6220   44.0510 C   0  0  0  0  0  0  0  0  0  0  0  0
   57.2570   29.4990   44.8780 C   0  0  0  0  0  0  0  0  0  0  0  0
   58.0370   29.7330   46.0050 C   0  0  0  0  0  0  0  0  0  0  0  0
   58.3900   28.7260   47.0530 C   0  0  0  0  0  0  0  0  0  0  0  0
   58.8450   29.4090   48.2620 N   0  0  0  0  0  0  0  0  0  0  0  0
   60.0820   29.0920   48.9140 C   0  0  0  0  0  0  0  0  0  0  0  0
   60.7370   28.0710   48.5720 O   0  0  0  0  0  0  0  0  0  0  0  0
   60.6230   30.0030   49.9810 C   0  0  0  0  0  0  0  0  0  0  0  0
   60.1950   31.4780   49.8130 C   0  0  2  0  0  0  0  0  0  0  0  0
   60.9340   32.3660   50.7310 N   0  0  0  0  0  0  0  0  0  0  0  0
   61.6450   33.4880   50.0690 C   0  0  0  0  0  0  0  0  0  0  0  0
   61.1030   33.8540   48.6950 C   0  0  0  0  0  0  0  0  0  0  0  0
   59.9070   34.5900   48.6000 C   0  0  0  0  0  0  0  0  0  0  0  0
   59.3670   34.9220   47.3550 C   0  0  0  0  0  0  0  0  0  0  0  0
   60.0260   34.5470   46.1860 C   0  0  0  0  0  0  0  0  0  0  0  0
   61.2340   33.8550   46.2590 C   0  0  0  0  0  0  0  0  0  0  0  0
   61.7870   33.5140   47.5000 C   0  0  0  0  0  0  0  0  0  0  0  0
   63.3510   32.6990   47.5000 Cl  0  0  0  0  0  0  0  0  0  0  0  0
   60.0480   32.7910   51.8440 C   0  0  0  0  0  0  0  0  0  0  0  0
   58.6600   32.9280   51.4020 N   0  0  0  0  0  0  0  0  0  0  0  0
   58.4900   31.7570   50.1630 S   0  0  0  0  0  0  0  0  0  0  0  0
   57.7740   30.5390   50.6740 O   0  0  0  0  0  0  0  0  0  0  0  0
   57.7700   32.3410   48.9810 O   0  0  0  0  0  0  0  0  0  0  0  0
   58.5700   31.3280   45.9790 S   0  0  0  0  0  0  0  0  0  0  0  0
   57.8531   33.8482   44.6763 H   0  0  0  0  0  0  0  0  0  0  0  0
   58.7434   33.1790   43.2670 H   0  0  0  0  0  0  0  0  0  0  0  0
   56.9473   33.2003   43.2670 H   0  0  0  0  0  0  0  0  0  0  0  0
   56.5407   30.6285   43.1228 H   0  0  0  0  0  0  0  0  0  0  0  0
   56.7863   28.5294   44.6582 H   0  0  0  0  0  0  0  0  0  0  0  0
   57.5040   28.1180   47.2885 H   0  0  0  0  0  0  0  0  0  0  0  0
   59.1951   28.0775   46.6772 H   0  0  0  0  0  0  0  0  0  0  0  0
   58.3090   30.2490   48.5780 H   0  0  0  0  0  0  0  0  0  0  0  0
   60.2637   29.6461   50.9575 H   0  0  0  0  0  0  0  0  0  0  0  0
   61.7198   29.9753   49.9020 H   0  0  0  0  0  0  0  0  0  0  0  0
   60.4102   31.6991   48.7571 H   0  0  0  0  0  0  0  0  0  0  0  0
   61.5673   34.3739   50.7164 H   0  0  0  0  0  0  0  0  0  0  0  0
   62.6828   33.1559   49.9182 H   0  0  0  0  0  0  0  0  0  0  0  0
   59.3908   34.9079   49.5179 H   0  0  0  0  0  0  0  0  0  0  0  0
   58.4207   35.4799   47.2976 H   0  0  0  0  0  0  0  0  0  0  0  0
   59.5933   34.7969   45.2060 H   0  0  0  0  0  0  0  0  0  0  0  0
   61.7578   33.5741   45.3334 H   0  0  0  0  0  0  0  0  0  0  0  0
   60.0953   32.0392   52.6456 H   0  0  0  0  0  0  0  0  0  0  0  0
   60.3935   33.7709   52.2053 H   0  0  0  0  0  0  0  0  0  0  0  0
  1  2  1  0
  2  3  2  0
  3  4  1  0
  4  5  2  0
  5  6  1  0
  6  7  1  0
  7  8  1  0
  8  9  2  0
  8 10  1  0
 10 11  1  0
 11 12  1  0
 12 13  1  0
 13 14  1  0
 14 15  2  0
 15 16  1  0
 16 17  2  0
 17 18  1  0
 18 19  2  0
 19 20  1  0
 12 21  1  0
 21 22  1  0
 22 23  1  0
 23 24  2  0
 23 25  2  0
  5 26  1  0
 26  2  1  0
 23 11  1  0
 19 14  1  0
  1 27  1  0
  1 28  1  0
  1 29  1  0
  3 30  1  0
  4 31  1  0
  6 32  1  0
  6 33  1  0
  7 34  1  0
 10 35  1  0
 10 36  1  0
 11 37  1  6
 13 38  1  0
 13 39  1  0
 15 40  1  0
 16 41  1  0
 17 42  1  0
 18 43  1  0
 21 44  1  0
 21 45  1  0
M  CHG  1  22  -1
M  END
>  <UniqueID>  (21) 
20

>  <SMILES>  (21) 
Cc1ccc(CNC(=O)C[C@@H]2N(Cc3ccccc3Cl)C[N-]S2(=O)=O)s1

>  <Energy>  (21) 
73.62339040659192

>  <Genealogy>  (21) 
Cc1ccc(CNC(=O)CC2N(Cc3ccccc3Cl)C[N-]S2(=O)=O)s1 (protonated)
Cc1ccc(CNC(=O)C[C@@H]2N(Cc3ccccc3Cl)C[N-]S2(=O)=O)s1 (chirality)
Cc1ccc(CNC(=O)C[C@@H]2N(Cc3ccccc3Cl)C[N-]S2(=O)=O)s1 (3D coordinates assigned)
Cc1ccc(CNC(=O)C[C@@H]2N(Cc3ccccc3Cl)C[N-]S2(=O)=O)s1 (nonaromatic ring conformer: 73.62339040659192 kcal/mol)

>  <smiles>  (21) 
Cc1ccc(CNC(=O)CC2N(Cc3ccccc3Cl)CNS2(=O)=O)s1

>  <score_type>  (21) 
oracle

>  <origin>  (21) 
adg

>  <m_score__min__energy>  (21) 
-10.16

>  <m_primary>  (21) 
energy

$$$$
21:0
     RDKit          3D

 46 48  0  0  0  0  0  0  0  0999 V2000
   61.2380   33.0880   49.6130 C   0  0  0  0  0  0  0  0  0  0  0  0
   61.9460   32.1380   48.7300 N   0  0  0  0  0  0  0  0  0  0  0  0
   63.3700   32.0770   49.0990 C   0  0  0  0  0  0  0  0  0  0  0  0
   64.1360   33.0600   48.2100 C   0  0  0  0  0  0  0  0  0  0  0  0
   63.1650   33.4780   47.1180 C   0  0  0  0  0  0  0  0  0  0  0  0
   61.9650   32.5490   47.3120 C   0  0  2  0  0  0  0  0  0  0  0  0
   60.6270   33.0510   46.7690 C   0  0  0  0  0  0  0  0  0  0  0  0
   60.3610   34.4310   46.7930 C   0  0  0  0  0  0  0  0  0  0  0  0
   59.1580   34.9360   46.2970 C   0  0  0  0  0  0  0  0  0  0  0  0
   58.2060   34.0750   45.7470 C   0  0  0  0  0  0  0  0  0  0  0  0
   57.0090   34.6000   45.2700 O   0  0  0  0  0  0  0  0  0  0  0  0
   58.4620   32.6940   45.6780 C   0  0  0  0  0  0  0  0  0  0  0  0
   57.4410   31.7480   45.0970 C   0  0  0  0  0  0  0  0  0  0  0  0
   57.5590   31.7020   43.5970 C   0  0  0  0  0  0  0  0  0  0  0  0
   58.3250   32.5190   43.0210 O   0  0  0  0  0  0  0  0  0  0  0  0
   56.8180   30.7750   42.7900 N   0  0  0  0  0  0  0  0  0  0  0  0
   56.8910   29.3180   42.8610 C   0  0  0  0  0  0  0  0  0  0  0  0
   57.6220   28.8730   44.1070 C   0  0  0  0  0  0  0  0  0  0  0  0
   59.0240   28.9620   44.1560 C   0  0  0  0  0  0  0  0  0  0  0  0
   59.7190   28.5700   45.3040 C   0  0  0  0  0  0  0  0  0  0  0  0
   59.0200   28.0980   46.4170 C   0  0  0  0  0  0  0  0  0  0  0  0
   57.6260   28.0240   46.3880 C   0  0  0  0  0  0  0  0  0  0  0  0
   56.9220   28.4150   45.2430 C   0  0  0  0  0  0  0  0  0  0  0  0
   55.5330   28.3450   45.2480 O   0  0  0  0  0  0  0  0  0  0  0  0
   59.6690   32.1900   46.1940 C   0  0  0  0  0  0  0  0  0  0  0  0
   61.4326   32.8268   50.6637 H   0  0  0  0  0  0  0  0  0  0  0  0
   61.5973   34.1089   49.4163 H   0  0  0  0  0  0  0  0  0  0  0  0
   60.1570   33.0355   49.4163 H   0  0  0  0  0  0  0  0  0  0  0  0
   63.4933   32.3565   50.1557 H   0  0  0  0  0  0  0  0  0  0  0  0
   63.7560   31.0566   48.9583 H   0  0  0  0  0  0  0  0  0  0  0  0
   64.4548   33.9358   48.7943 H   0  0  0  0  0  0  0  0  0  0  0  0
   65.0434   32.6017   47.7897 H   0  0  0  0  0  0  0  0  0  0  0  0
   62.8684   34.5301   47.2406 H   0  0  0  0  0  0  0  0  0  0  0  0
   63.6017   33.3999   46.1114 H   0  0  0  0  0  0  0  0  0  0  0  0
   62.1042   31.6668   46.6699 H   0  0  0  0  0  0  0  0  0  0  0  0
   61.1101   35.1215   47.2078 H   0  0  0  0  0  0  0  0  0  0  0  0
   58.9589   36.0170   46.3395 H   0  0  0  0  0  0  0  0  0  0  0  0
   57.6082   30.7400   45.5044 H   0  0  0  0  0  0  0  0  0  0  0  0
   56.4346   32.1026   45.3642 H   0  0  0  0  0  0  0  0  0  0  0  0
   55.8708   28.9069   42.8762 H   0  0  0  0  0  0  0  0  0  0  0  0
   57.4409   28.9511   41.9818 H   0  0  0  0  0  0  0  0  0  0  0  0
   59.5780   29.3426   43.2853 H   0  0  0  0  0  0  0  0  0  0  0  0
   60.8169   28.6334   45.3306 H   0  0  0  0  0  0  0  0  0  0  0  0
   59.5682   27.7842   47.3175 H   0  0  0  0  0  0  0  0  0  0  0  0
   57.0786   27.6569   47.2687 H   0  0  0  0  0  0  0  0  0  0  0  0
   59.8689   31.1093   46.1486 H   0  0  0  0  0  0  0  0  0  0  0  0
  1  2  1  0
  2  3  1  0
  3  4  1  0
  4  5  1  0
  5  6  1  0
  6  7  1  0
  7  8  2  0
  8  9  1  0
  9 10  2  0
 10 11  1  0
 10 12  1  0
 12 13  1  0
 13 14  1  0
 14 15  2  0
 14 16  1  0
 16 17  1  0
 17 18  1  0
 18 19  2  0
 19 20  1  0
 20 21  2  0
 21 22  1  0
 22 23  2  0
 23 24  1  0
 12 25  2  0
  6  2  1  0
 25  7  1  0
 23 18  1  0
  1 26  1  0
  1 27  1  0
  1 28  1  0
  3 29  1  0
  3 30  1  0
  4 31  1  0
  4 32  1  0
  5 33  1  0
  5 34  1  0
  6 35  1  6
  8 36  1  0
  9 37  1  0
 13 38  1  0
 13 39  1  0
 17 40  1  0
 17 41  1  0
 19 42  1  0
 20 43  1  0
 21 44  1  0
 22 45  1  0
 25 46  1  0
M  CHG  3  11  -1  16  -1  24  -1
M  END
>  <UniqueID>  (22) 
21

>  <SMILES>  (22) 
CN1CCC[C@@H]1c1ccc([O-])c(CC(=O)[N-]Cc2ccccc2[O-])c1

>  <Energy>  (22) 
56.540069433721385

>  <Genealogy>  (22) 
CN1CCCC1c1ccc([O-])c(CC(=O)[N-]Cc2ccccc2[O-])c1 (protonated)
CN1CCC[C@@H]1c1ccc([O-])c(CC(=O)[N-]Cc2ccccc2[O-])c1 (chirality)
CN1CCC[C@@H]1c1ccc([O-])c(CC(=O)[N-]Cc2ccccc2[O-])c1 (3D coordinates assigned)
CN1CCC[C@@H]1c1ccc([O-])c(CC(=O)[N-]Cc2ccccc2[O-])c1 (nonaromatic ring conformer: 56.540069433721385 kcal/mol)

>  <smiles>  (22) 
CN1CCCC1c1ccc(O)c(CC(=O)NCc2ccccc2O)c1

>  <score_type>  (22) 
oracle

>  <origin>  (22) 
adg

>  <m_score__min__energy>  (22) 
-14.42

>  <m_primary>  (22) 
energy

$$$$
22:0
     RDKit          3D

 53 56  0  0  0  0  0  0  0  0999 V2000
   55.8520   24.7480   47.1410 O   0  0  0  0  0  0  0  0  0  0  0  0
   55.7550   25.3060   46.0150 C   0  0  0  0  0  0  0  0  0  0  0  0
   55.7640   24.4710   44.7580 C   0  0  0  0  0  0  0  0  0  0  0  0
   56.9460   23.5480   44.7040 C   0  0  0  0  0  0  0  0  0  0  0  0
   58.4190   23.8110   45.4800 S   0  0  0  0  0  0  0  0  0  0  0  0
   59.0350   22.3260   44.9860 C   0  0  0  0  0  0  0  0  0  0  0  0
   60.1880   21.9100   45.2640 O   0  0  0  0  0  0  0  0  0  0  0  0
   58.1520   21.6140   44.2520 N   0  0  0  0  0  0  0  0  0  0  0  0
   56.9840   22.2920   44.1030 C   0  0  0  0  0  0  0  0  0  0  0  0
   55.9130   21.7590   43.3980 O   0  0  0  0  0  0  0  0  0  0  0  0
   55.4880   26.7130   45.9730 N   0  0  0  0  0  0  0  0  0  0  0  0
   56.4450   27.7280   45.6520 C   0  0  0  0  0  0  0  0  0  0  0  0
   57.7830   27.5440   46.0200 C   0  0  0  0  0  0  0  0  0  0  0  0
   58.7580   28.5000   45.6850 C   0  0  0  0  0  0  0  0  0  0  0  0
   60.1770   28.3010   46.0650 C   0  0  0  0  0  0  0  0  0  0  0  0
   60.9810   27.8210   45.2250 O   0  0  0  0  0  0  0  0  0  0  0  0
   60.6780   28.6760   47.3560 N   0  0  0  0  0  0  0  0  0  0  0  0
   60.9020   30.0170   47.8180 C   0  0  0  0  0  0  0  0  0  0  0  0
   61.8020   30.8320   47.1230 C   0  0  0  0  0  0  0  0  0  0  0  0
   62.0460   32.1400   47.5510 C   0  0  0  0  0  0  0  0  0  0  0  0
   61.3930   32.6400   48.6820 C   0  0  0  0  0  0  0  0  0  0  0  0
   60.5000   31.8300   49.3940 C   0  0  0  0  0  0  0  0  0  0  0  0
   59.6840   32.4550   50.8260 S   0  0  0  0  0  0  0  0  0  0  0  0
   59.2580   33.8770   50.5790 O   0  0  0  0  0  0  0  0  0  0  0  0
   60.6460   32.4400   51.9810 O   0  0  0  0  0  0  0  0  0  0  0  0
   58.2990   31.4650   51.2060 N   0  0  0  0  0  0  0  0  0  0  0  0
   58.7290   30.2870   51.9780 C   0  0  0  0  0  0  0  0  0  0  0  0
   57.5080   29.4550   52.4220 C   0  0  0  0  0  0  0  0  0  0  0  0
   56.2920   30.0280   51.9820 O   0  0  0  0  0  0  0  0  0  0  0  0
   56.1780   31.3430   52.4920 C   0  0  0  0  0  0  0  0  0  0  0  0
   57.3140   32.2480   51.9720 C   0  0  0  0  0  0  0  0  0  0  0  0
   60.2720   30.5140   48.9740 C   0  0  0  0  0  0  0  0  0  0  0  0
   58.3680   29.6540   44.9850 C   0  0  0  0  0  0  0  0  0  0  0  0
   57.0380   29.8310   44.5950 C   0  0  0  0  0  0  0  0  0  0  0  0
   56.0780   28.8650   44.9080 C   0  0  0  0  0  0  0  0  0  0  0  0
   54.7710   29.0290   44.4640 O   0  0  0  0  0  0  0  0  0  0  0  0
   54.8429   23.8706   44.7240 H   0  0  0  0  0  0  0  0  0  0  0  0
   55.8265   25.1534   43.8975 H   0  0  0  0  0  0  0  0  0  0  0  0
   58.0748   26.6416   46.5773 H   0  0  0  0  0  0  0  0  0  0  0  0
   62.3204   30.4413   46.2349 H   0  0  0  0  0  0  0  0  0  0  0  0
   62.7522   32.7766   46.9978 H   0  0  0  0  0  0  0  0  0  0  0  0
   61.5813   33.6720   49.0130 H   0  0  0  0  0  0  0  0  0  0  0  0
   59.3834   29.6631   51.3515 H   0  0  0  0  0  0  0  0  0  0  0  0
   59.2712   30.6272   52.8726 H   0  0  0  0  0  0  0  0  0  0  0  0
   57.5962   28.4420   52.0025 H   0  0  0  0  0  0  0  0  0  0  0  0
   57.4946   29.4287   53.5216 H   0  0  0  0  0  0  0  0  0  0  0  0
   55.2118   31.7658   52.1793 H   0  0  0  0  0  0  0  0  0  0  0  0
   56.2466   31.2964   53.5889 H   0  0  0  0  0  0  0  0  0  0  0  0
   56.8865   33.0250   51.3212 H   0  0  0  0  0  0  0  0  0  0  0  0
   57.8216   32.7061   52.8337 H   0  0  0  0  0  0  0  0  0  0  0  0
   59.5967   29.8650   49.5508 H   0  0  0  0  0  0  0  0  0  0  0  0
   59.1152   30.4239   44.7422 H   0  0  0  0  0  0  0  0  0  0  0  0
   56.7455   30.7342   44.0395 H   0  0  0  0  0  0  0  0  0  0  0  0
  1  2  2  0
  2  3  1  0
  3  4  1  0
  4  5  1  0
  5  6  1  0
  6  7  2  0
  6  8  1  0
  8  9  1  0
  9 10  1  0
  2 11  1  0
 11 12  1  0
 12 13  2  0
 13 14  1  0
 14 15  1  0
 15 16  2  0
 15 17  1  0
 17 18  1  0
 18 19  2  0
 19 20  1  0
 20 21  2  0
 21 22  1  0
 22 23  1  0
 23 24  2  0
 23 25  2  0
 23 26  1  0
 26 27  1  0
 27 28  1  0
 28 29  1  0
 29 30  1  0
 30 31  1  0
 22 32  2  0
 14 33  2  0
 33 34  1  0
 34 35  2  0
 35 36  1  0
  9  4  2  0
 35 12  1  0
 32 18  1  0
 31 26  1  0
  3 37  1  0
  3 38  1  0
 13 39  1  0
 19 40  1  0
 20 41  1  0
 21 42  1  0
 27 43  1  0
 27 44  1  0
 28 45  1  0
 28 46  1  0
 30 47  1  0
 30 48  1  0
 31 49  1  0
 31 50  1  0
 32 51  1  0
 33 52  1  0
 34 53  1  0
M  CHG  5   8  -1  10  -1  11  -1  17  -1  36  -1
M  END
>  <UniqueID>  (23) 
22

>  <SMILES>  (23) 
O=C(Cc1sc(=O)[n-]c1[O-])[N-]c1cc(C(=O)[N-]c2cccc(S(=O)(=O)N3CCOCC3)c2)ccc1[O-]

>  <Energy>  (23) 
107.29347348113572

>  <Genealogy>  (23) 
O=C(Cc1sc(=O)[n-]c1[O-])[N-]c1cc(C(=O)[N-]c2cccc(S(=O)(=O)N3CCOCC3)c2)ccc1[O-] (protonated)
O=C(Cc1sc(=O)[n-]c1[O-])[N-]c1cc(C(=O)[N-]c2cccc(S(=O)(=O)N3CCOCC3)c2)ccc1[O-] (3D coordinates assigned)
O=C(Cc1sc(=O)[n-]c1[O-])[N-]c1cc(C(=O)[N-]c2cccc(S(=O)(=O)N3CCOCC3)c2)ccc1[O-] (nonaromatic ring conformer: 107.29347348113572 kcal/mol)

>  <smiles>  (23) 
O=C(Cc1sc(=O)[nH]c1O)Nc1cc(C(=O)Nc2cccc(S(=O)(=O)N3CCOCC3)c2)ccc1O

>  <score_type>  (23) 
oracle

>  <origin>  (23) 
adg

>  <m_score__min__energy>  (23) 
-20.18

>  <m_primary>  (23) 
energy

$$$$
23:0
     RDKit          3D

 50 53  0  0  0  0  0  0  0  0999 V2000
   59.2267   29.2586   47.2627 H   0  0  0  0  0  0  0  0  0  0  0  0
   58.9060   28.4520   46.5870 C   0  0  0  0  0  0  0  0  0  0  0  0
   59.1098   27.4028   46.8472 H   0  0  0  0  0  0  0  0  0  0  0  0
   58.2660   28.7480   45.4450 C   0  0  0  0  0  0  0  0  0  0  0  0
   57.7880   27.8520   44.4710 C   0  0  0  0  0  0  0  0  0  0  0  0
   57.7420   26.5040   44.4490 C   0  0  0  0  0  0  0  0  0  0  0  0
   58.0487   26.0060   43.5174 H   0  0  0  0  0  0  0  0  0  0  0  0
   57.3160   25.6400   45.5660 C   0  0  0  0  0  0  0  0  0  0  0  0
   56.0320   25.7520   46.1230 C   0  0  0  0  0  0  0  0  0  0  0  0
   55.1390   26.7140   45.6630 O   0  0  0  0  0  0  0  0  0  0  0  0
   55.6520   24.9140   47.1220 N   0  0  0  0  0  0  0  0  0  0  0  0
   56.4880   23.9500   47.5830 C   0  0  0  0  0  0  0  0  0  0  0  0
   56.1150   23.1860   48.5120 O   0  0  0  0  0  0  0  0  0  0  0  0
   57.7240   23.8040   47.0410 N   0  0  0  0  0  0  0  0  0  0  0  0
   58.1520   24.6180   46.0420 C   0  0  0  0  0  0  0  0  0  0  0  0
   59.3020   24.4500   45.5550 O   0  0  0  0  0  0  0  0  0  0  0  0
   57.3020   28.6290   43.4340 C   0  0  0  0  0  0  0  0  0  0  0  0
   56.8721   28.2649   42.4892 H   0  0  0  0  0  0  0  0  0  0  0  0
   57.4590   29.9460   43.8100 C   0  0  0  0  0  0  0  0  0  0  0  0
   57.0410   31.1260   42.9850 C   0  0  0  0  0  0  0  0  0  0  0  0
   56.7482   31.9525   43.6492 H   0  0  0  0  0  0  0  0  0  0  0  0
   57.8806   31.4455   42.3503 H   0  0  0  0  0  0  0  0  0  0  0  0
   56.1875   30.8457   42.3503 H   0  0  0  0  0  0  0  0  0  0  0  0
   58.0320   30.0210   45.0310 N   0  0  0  0  0  0  0  0  0  0  0  0
   58.3810   31.2390   45.7120 C   0  0  0  0  0  0  0  0  0  0  0  0
   57.4200   32.2410   45.8970 C   0  0  0  0  0  0  0  0  0  0  0  0
   56.3930   32.0902   45.5329 H   0  0  0  0  0  0  0  0  0  0  0  0
   57.7620   33.4300   46.5420 C   0  0  0  0  0  0  0  0  0  0  0  0
   57.0033   34.2132   46.6864 H   0  0  0  0  0  0  0  0  0  0  0  0
   59.0650   33.6290   47.0050 C   0  0  0  0  0  0  0  0  0  0  0  0
   59.3264   34.5679   47.5150 H   0  0  0  0  0  0  0  0  0  0  0  0
   60.0450   32.6360   46.8230 C   0  0  0  0  0  0  0  0  0  0  0  0
   61.3890   32.8330   47.3080 N   0  0  0  0  0  0  0  0  0  0  0  0
   61.8190   32.1390   48.5300 C   0  0  0  0  0  0  0  0  0  0  0  0
   61.1031   32.3538   49.3370 H   0  0  0  0  0  0  0  0  0  0  0  0
   61.8555   31.0587   48.3262 H   0  0  0  0  0  0  0  0  0  0  0  0
   63.2130   32.6030   48.9600 C   0  0  0  0  0  0  0  0  0  0  0  0
   63.1495   33.6259   49.3595 H   0  0  0  0  0  0  0  0  0  0  0  0
   63.5971   31.9235   49.7351 H   0  0  0  0  0  0  0  0  0  0  0  0
   64.1240   32.5860   47.8090 N   0  0  0  0  0  0  0  0  0  0  0  0
   64.1770   31.6090   47.4340 H   0  0  0  0  0  0  0  0  0  0  0  0
   65.0820   32.8470   48.1390 H   0  0  0  0  0  0  0  0  0  0  0  0
   63.7170   33.5080   46.7250 C   0  0  0  0  0  0  0  0  0  0  0  0
   64.3189   34.4249   46.8089 H   0  0  0  0  0  0  0  0  0  0  0  0
   63.8818   32.9724   45.7785 H   0  0  0  0  0  0  0  0  0  0  0  0
   62.2260   33.9050   46.7530 C   0  0  0  0  0  0  0  0  0  0  0  0
   62.1086   34.8061   47.3728 H   0  0  0  0  0  0  0  0  0  0  0  0
   61.9016   34.0930   45.7189 H   0  0  0  0  0  0  0  0  0  0  0  0
   59.6910   31.4420   46.1700 C   0  0  0  0  0  0  0  0  0  0  0  0
   60.4489   30.6596   46.0169 H   0  0  0  0  0  0  0  0  0  0  0  0
  1  2  1  0
  2  3  1  0
  2  4  2  0
  4  5  1  0
  5  6  2  0
  6  7  1  0
  6  8  1  0
  8  9  2  0
  9 10  1  0
  9 11  1  0
 11 12  1  0
 12 13  2  0
 12 14  1  0
 14 15  1  0
 15 16  2  0
  5 17  1  0
 17 18  1  0
 17 19  2  0
 19 20  1  0
 20 21  1  0
 20 22  1  0
 20 23  1  0
 19 24  1  0
 24 25  1  0
 25 26  2  0
 26 27  1  0
 26 28  1  0
 28 29  1  0
 28 30  2  0
 30 31  1  0
 30 32  1  0
 32 33  1  0
 33 34  1  0
 34 35  1  0
 34 36  1  0
 34 37  1  0
 37 38  1  0
 37 39  1  0
 37 40  1  0
 40 41  1  0
 40 42  1  0
 40 43  1  0
 43 44  1  0
 43 45  1  0
 43 46  1  0
 46 47  1  0
 46 48  1  0
 32 49  2  0
 49 50  1  0
 24  4  1  0
 49 25  1  0
 15  8  1  0
 46 33  1  0
M  CHG  4  10  -1  11  -1  14  -1  40   1
M  END
>  <UniqueID>  (24) 
23

>  <SMILES>  (24) 
C=c1/c(=C\c2c([O-])[n-]c(=O)[n-]c2=O)cc(C)n1-c1cccc(N2CC[NH2+]CC2)c1

>  <Energy>  (24) 
110.33549257862819

>  <Genealogy>  (24) 
C=c1c(=Cc2c([O-])[n-]c(=O)[n-]c2=O)cc(C)n1-c1cccc(N2CC[NH2+]CC2)c1 (protonated)
C=c1/c(=C\c2c([O-])[n-]c(=O)[n-]c2=O)cc(C)n1-c1cccc(N2CC[NH2+]CC2)c1 (cis-trans isomerization)
C=c1/c(=C\c2c([O-])[n-]c(=O)[n-]c2=O)cc(C)n1-c1cccc(N2CC[NH2+]CC2)c1 (3D coordinates assigned)
C=c1/c(=C\c2c([O-])[n-]c(=O)[n-]c2=O)cc(C)n1-c1cccc(N2CC[NH2+]CC2)c1 (nonaromatic ring conformer: 110.33549257862819 kcal/mol)

>  <smiles>  (24) 
C=c1c(=Cc2c(O)[nH]c(=O)[nH]c2=O)cc(C)n1-c1cccc(N2CCNCC2)c1

>  <score_type>  (24) 
oracle

>  <origin>  (24) 
adg

>  <m_score__min__energy>  (24) 
-15.56

>  <m_primary>  (24) 
energy

$$$$
24:0
     RDKit          3D

 50 52  0  0  0  0  0  0  0  0999 V2000
   52.3010   23.8540   44.8720 C   0  0  0  0  0  0  0  0  0  0  0  0
   53.6420   23.4770   45.4930 C   0  0  0  0  0  0  0  0  0  0  0  0
   54.5330   24.6740   45.5840 C   0  0  0  0  0  0  0  0  0  0  0  0
   55.9070   24.6700   45.4850 C   0  0  0  0  0  0  0  0  0  0  0  0
   56.2640   25.9770   45.7530 C   0  0  0  0  0  0  0  0  0  0  0  0
   57.6450   26.5110   45.8310 C   0  0  0  0  0  0  0  0  0  0  0  0
   58.7010   25.6720   46.2240 C   0  0  0  0  0  0  0  0  0  0  0  0
   59.9990   26.1720   46.3400 C   0  0  0  0  0  0  0  0  0  0  0  0
   60.2580   27.5190   46.0880 C   0  0  0  0  0  0  0  0  0  0  0  0
   59.2210   28.3790   45.6990 C   0  0  0  0  0  0  0  0  0  0  0  0
   59.4950   29.8660   45.5780 C   0  0  0  0  0  0  0  0  0  0  0  0
   58.2520   30.6560   45.4700 N   0  0  0  0  0  0  0  0  0  0  0  0
   58.4510   32.0420   45.8350 C   0  0  0  0  0  0  0  0  0  0  0  0
   58.0640   33.0680   44.9550 C   0  0  0  0  0  0  0  0  0  0  0  0
   58.3600   34.3990   45.2480 C   0  0  0  0  0  0  0  0  0  0  0  0
   59.0660   34.7220   46.4090 C   0  0  0  0  0  0  0  0  0  0  0  0
   59.4760   33.7100   47.2920 C   0  0  0  0  0  0  0  0  0  0  0  0
   60.2730   34.0410   48.4940 C   0  0  0  0  0  0  0  0  0  0  0  0
   59.7050   34.6130   49.4650 O   0  0  0  0  0  0  0  0  0  0  0  0
   61.6770   33.7250   48.5810 N   0  0  0  0  0  0  0  0  0  0  0  0
   62.5580   34.5890   49.3650 C   0  0  0  0  0  0  0  0  0  0  0  0
   62.2400   32.5420   47.9210 C   0  0  0  0  0  0  0  0  0  0  0  0
   59.1350   32.3760   47.0180 C   0  0  0  0  0  0  0  0  0  0  0  0
   57.9130   27.8690   45.5560 C   0  0  0  0  0  0  0  0  0  0  0  0
   56.8790   28.7190   45.1730 O   0  0  0  0  0  0  0  0  0  0  0  0
   55.1550   26.7030   46.0000 N   0  0  0  0  0  0  0  0  0  0  0  0
   54.1000   25.9090   45.9020 N   0  0  0  0  0  0  0  0  0  0  0  0
   51.5721   24.0589   45.6699 H   0  0  0  0  0  0  0  0  0  0  0  0
   52.4249   24.7521   44.2491 H   0  0  0  0  0  0  0  0  0  0  0  0
   51.9388   23.0229   44.2491 H   0  0  0  0  0  0  0  0  0  0  0  0
   53.4728   23.0743   46.5026 H   0  0  0  0  0  0  0  0  0  0  0  0
   54.1271   22.7204   44.8588 H   0  0  0  0  0  0  0  0  0  0  0  0
   56.5668   23.8225   45.2476 H   0  0  0  0  0  0  0  0  0  0  0  0
   58.5033   24.6121   46.4421 H   0  0  0  0  0  0  0  0  0  0  0  0
   60.8207   25.5011   46.6312 H   0  0  0  0  0  0  0  0  0  0  0  0
   61.2810   27.9088   46.1949 H   0  0  0  0  0  0  0  0  0  0  0  0
   60.0491   30.1976   46.4685 H   0  0  0  0  0  0  0  0  0  0  0  0
   60.0785   30.0279   44.6597 H   0  0  0  0  0  0  0  0  0  0  0  0
   57.5320   30.2400   46.1070 H   0  0  0  0  0  0  0  0  0  0  0  0
   57.8810   30.5830   44.4940 H   0  0  0  0  0  0  0  0  0  0  0  0
   57.5242   32.8193   44.0294 H   0  0  0  0  0  0  0  0  0  0  0  0
   58.0366   35.1965   44.5629 H   0  0  0  0  0  0  0  0  0  0  0  0
   59.3017   35.7729   46.6325 H   0  0  0  0  0  0  0  0  0  0  0  0
   62.3819   34.4163   50.4370 H   0  0  0  0  0  0  0  0  0  0  0  0
   63.6064   34.3592   49.1240 H   0  0  0  0  0  0  0  0  0  0  0  0
   62.3486   35.6416   49.1240 H   0  0  0  0  0  0  0  0  0  0  0  0
   62.5812   31.8250   48.6822 H   0  0  0  0  0  0  0  0  0  0  0  0
   61.4695   32.0710   47.2929 H   0  0  0  0  0  0  0  0  0  0  0  0
   63.0915   32.8429   47.2929 H   0  0  0  0  0  0  0  0  0  0  0  0
   59.4048   31.5857   47.7340 H   0  0  0  0  0  0  0  0  0  0  0  0
  1  2  1  0
  2  3  1  0
  3  4  1  0
  4  5  2  0
  5  6  1  0
  6  7  2  0
  7  8  1  0
  8  9  2  0
  9 10  1  0
 10 11  1  0
 11 12  1  0
 12 13  1  0
 13 14  2  0
 14 15  1  0
 15 16  2  0
 16 17  1  0
 17 18  1  0
 18 19  2  0
 18 20  1  0
 20 21  1  0
 20 22  1  0
 17 23  2  0
 10 24  2  0
 24 25  1  0
  5 26  1  0
 26 27  1  0
 27  3  2  0
 24  6  1  0
 23 13  1  0
  1 28  1  0
  1 29  1  0
  1 30  1  0
  2 31  1  0
  2 32  1  0
  4 33  1  0
  7 34  1  0
  8 35  1  0
  9 36  1  0
 11 37  1  0
 11 38  1  0
 12 39  1  0
 12 40  1  0
 14 41  1  0
 15 42  1  0
 16 43  1  0
 21 44  1  0
 21 45  1  0
 21 46  1  0
 22 47  1  0
 22 48  1  0
 22 49  1  0
 23 50  1  0
M  CHG  3  12   1  25  -1  26  -1
M  END
>  <UniqueID>  (25) 
24

>  <SMILES>  (25) 
CCc1cc(-c2cccc(C[NH2+]c3cccc(C(=O)N(C)C)c3)c2[O-])[n-]n1

>  <Energy>  (25) 
83.0087781082283

>  <Genealogy>  (25) 
CCc1cc(-c2cccc(C[NH2+]c3cccc(C(=O)N(C)C)c3)c2[O-])[n-]n1 (protonated)
CCc1cc(-c2cccc(C[NH2+]c3cccc(C(=O)N(C)C)c3)c2[O-])[n-]n1 (3D coordinates assigned)
CCc1cc(-c2cccc(C[NH2+]c3cccc(C(=O)N(C)C)c3)c2[O-])[n-]n1 (optimized conformer: 83.0087781082283 kcal/mol)

>  <smiles>  (25) 
CCc1cc(-c2cccc(CNc3cccc(C(=O)N(C)C)c3)c2O)[nH]n1

>  <score_type>  (25) 
oracle

>  <origin>  (25) 
adg

>  <m_score__min__energy>  (25) 
-13.43

>  <m_primary>  (25) 
energy

$$$$
25:0
     RDKit          3D

 50 53  0  0  0  0  0  0  0  0999 V2000
   60.7680   29.6330   45.9350 C   0  0  0  0  0  0  0  0  0  0  0  0
   59.7490   30.5090   45.9330 C   0  0  0  0  0  0  0  0  0  0  0  0
   58.5110   30.3790   45.2800 C   0  0  0  0  0  0  0  0  0  0  0  0
   57.9640   29.3530   44.5980 C   0  0  0  0  0  0  0  0  0  0  0  0
   57.4020   28.1260   45.1920 C   0  0  0  0  0  0  0  0  0  0  0  0
   56.0150   27.9790   45.3300 C   0  0  0  0  0  0  0  0  0  0  0  0
   55.1490   28.9660   44.8720 O   0  0  0  0  0  0  0  0  0  0  0  0
   55.5070   26.8610   45.9090 N   0  0  0  0  0  0  0  0  0  0  0  0
   56.3220   25.8790   46.3740 C   0  0  0  0  0  0  0  0  0  0  0  0
   55.8280   24.8500   46.9030 O   0  0  0  0  0  0  0  0  0  0  0  0
   57.6690   26.0090   46.2730 N   0  0  0  0  0  0  0  0  0  0  0  0
   58.2270   27.1090   45.7020 C   0  0  0  0  0  0  0  0  0  0  0  0
   59.4810   27.2050   45.6420 O   0  0  0  0  0  0  0  0  0  0  0  0
   57.8660   31.5970   45.4320 C   0  0  0  0  0  0  0  0  0  0  0  0
   58.6940   32.4030   46.1820 C   0  0  0  0  0  0  0  0  0  0  0  0
   58.4140   33.8440   46.4830 C   0  0  0  0  0  0  0  0  0  0  0  0
   59.8320   31.7440   46.4980 N   0  0  0  0  0  0  0  0  0  0  0  0
   60.9690   32.3090   47.1790 C   0  0  0  0  0  0  0  0  0  0  0  0
   61.7270   33.3010   46.5400 C   0  0  0  0  0  0  0  0  0  0  0  0
   62.8820   33.8070   47.1400 C   0  0  0  0  0  0  0  0  0  0  0  0
   63.2970   33.3200   48.3800 C   0  0  0  0  0  0  0  0  0  0  0  0
   62.5500   32.3340   49.0310 C   0  0  0  0  0  0  0  0  0  0  0  0
   61.3740   31.8320   48.4490 C   0  0  0  0  0  0  0  0  0  0  0  0
   60.5860   30.8200   49.1830 C   0  0  0  0  0  0  0  0  0  0  0  0
   60.9460   29.6120   49.1370 O   0  0  0  0  0  0  0  0  0  0  0  0
   59.4350   31.1950   49.9610 N   0  0  0  0  0  0  0  0  0  0  0  0
   59.0610   32.6090   50.0640 C   0  0  0  0  0  0  0  0  0  0  0  0
   58.5210   32.9060   51.4620 C   0  0  0  0  0  0  0  0  0  0  0  0
   57.5090   31.9320   51.8580 N   0  0  0  0  0  0  0  0  0  0  0  0
   57.5590   30.5730   51.4100 C   0  0  0  0  0  0  0  0  0  0  0  0
   56.8380   29.7040   51.9700 O   0  0  0  0  0  0  0  0  0  0  0  0
   58.4030   30.1860   50.2320 C   0  0  0  0  0  0  0  0  0  0  0  0
   61.6885   29.8613   46.4923 H   0  0  0  0  0  0  0  0  0  0  0  0
   60.6816   28.6876   45.3794 H   0  0  0  0  0  0  0  0  0  0  0  0
   57.9343   29.4386   43.5017 H   0  0  0  0  0  0  0  0  0  0  0  0
   56.8790   31.8685   45.0295 H   0  0  0  0  0  0  0  0  0  0  0  0
   58.3852   33.9921   47.5726 H   0  0  0  0  0  0  0  0  0  0  0  0
   59.2073   34.4702   46.0487 H   0  0  0  0  0  0  0  0  0  0  0  0
   57.4440   34.1275   46.0487 H   0  0  0  0  0  0  0  0  0  0  0  0
   61.4093   33.6834   45.5587 H   0  0  0  0  0  0  0  0  0  0  0  0
   63.4654   34.5906   46.6344 H   0  0  0  0  0  0  0  0  0  0  0  0
   64.2130   33.7124   48.8458 H   0  0  0  0  0  0  0  0  0  0  0  0
   62.8851   31.9487   50.0053 H   0  0  0  0  0  0  0  0  0  0  0  0
   59.9458   33.2346   49.8747 H   0  0  0  0  0  0  0  0  0  0  0  0
   58.2811   32.8313   49.3208 H   0  0  0  0  0  0  0  0  0  0  0  0
   59.3521   32.8718   52.1818 H   0  0  0  0  0  0  0  0  0  0  0  0
   58.0569   33.9032   51.4501 H   0  0  0  0  0  0  0  0  0  0  0  0
   56.8680   32.1770   52.6460 H   0  0  0  0  0  0  0  0  0  0  0  0
   58.8902   29.2223   50.4414 H   0  0  0  0  0  0  0  0  0  0  0  0
   57.7521   30.1090   49.3486 H   0  0  0  0  0  0  0  0  0  0  0  0
  1  2  2  0
  2  3  1  0
  3  4  2  3
  4  5  1  0
  5  6  2  0
  6  7  1  0
  6  8  1  0
  8  9  1  0
  9 10  2  0
  9 11  1  0
 11 12  1  0
 12 13  2  0
  3 14  1  0
 14 15  2  0
 15 16  1  0
 15 17  1  0
 17 18  1  0
 18 19  2  0
 19 20  1  0
 20 21  2  0
 21 22  1  0
 22 23  2  0
 23 24  1  0
 24 25  2  0
 24 26  1  0
 26 27  1  0
 27 28  1  0
 28 29  1  0
 29 30  1  0
 30 31  2  0
 30 32  1  0
 17  2  1  0
 23 18  1  0
 32 26  1  0
 12  5  1  0
  1 33  1  0
  1 34  1  0
  4 35  1  0
 14 36  1  0
 16 37  1  0
 16 38  1  0
 16 39  1  0
 19 40  1  0
 20 41  1  0
 21 42  1  0
 22 43  1  0
 27 44  1  0
 27 45  1  0
 28 46  1  0
 28 47  1  0
 29 48  1  0
 32 49  1  0
 32 50  1  0
M  CHG  3   7  -1   8  -1  11  -1
M  END
>  <UniqueID>  (26) 
25

>  <SMILES>  (26) 
C=c1c(=Cc2c([O-])[n-]c(=O)[n-]c2=O)cc(C)n1-c1ccccc1C(=O)N1CCNC(=O)C1

>  <Energy>  (26) 
104.00813682667508

>  <Genealogy>  (26) 
C=c1c(=Cc2c([O-])[n-]c(=O)[n-]c2=O)cc(C)n1-c1ccccc1C(=O)N1CCNC(=O)C1 (protonated)
C=c1c(=Cc2c([O-])[n-]c(=O)[n-]c2=O)cc(C)n1-c1ccccc1C(=O)N1CCNC(=O)C1 (3D coordinates assigned)
C=c1c(=Cc2c([O-])[n-]c(=O)[n-]c2=O)cc(C)n1-c1ccccc1C(=O)N1CCNC(=O)C1 (nonaromatic ring conformer: 104.00813682667508 kcal/mol)

>  <smiles>  (26) 
C=c1c(=Cc2c(O)[nH]c(=O)[nH]c2=O)cc(C)n1-c1ccccc1C(=O)N1CCNC(=O)C1

>  <score_type>  (26) 
oracle

>  <origin>  (26) 
adg

>  <m_score__min__energy>  (26) 
-16.629999999999999

>  <m_primary>  (26) 
energy

$$$$
26:0
     RDKit          3D

 47 49  0  0  0  0  0  0  0  0999 V2000
   55.9820   30.5850   45.2500 H   0  0  0  0  0  0  0  0  0  0  0  0
   56.3020   31.3930   44.7290 O   0  0  0  0  0  0  0  0  0  0  0  0
   57.2300   32.2840   45.2650 C   0  0  0  0  0  0  0  0  0  0  0  0
   57.6660   33.3930   44.5260 C   0  0  0  0  0  0  0  0  0  0  0  0
   57.2749   33.5655   43.5125 H   0  0  0  0  0  0  0  0  0  0  0  0
   58.5970   34.2800   45.0750 C   0  0  0  0  0  0  0  0  0  0  0  0
   58.9329   35.1508   44.4930 H   0  0  0  0  0  0  0  0  0  0  0  0
   59.1050   34.0640   46.3660 C   0  0  0  0  0  0  0  0  0  0  0  0
   60.0860   35.0370   46.9660 C   0  0  0  0  0  0  0  0  0  0  0  0
   59.5834   36.0042   47.1141 H   0  0  0  0  0  0  0  0  0  0  0  0
   60.9364   35.1361   46.2754 H   0  0  0  0  0  0  0  0  0  0  0  0
   60.6220   34.5430   48.3170 C   0  0  0  0  0  0  0  0  0  0  0  0
   59.9378   33.7783   48.7133 H   0  0  0  0  0  0  0  0  0  0  0  0
   60.6860   35.4063   48.9956 H   0  0  0  0  0  0  0  0  0  0  0  0
   61.9590   33.9630   48.1920 N   0  0  0  0  0  0  0  0  0  0  0  0
   62.2660   32.6230   47.7810 C   0  0  0  0  0  0  0  0  0  0  0  0
   63.4190   32.3760   47.3410 O   0  0  0  0  0  0  0  0  0  0  0  0
   61.2900   31.5240   47.8830 C   0  0  0  0  0  0  0  0  0  0  0  0
   60.6600   31.2330   49.1020 C   0  0  0  0  0  0  0  0  0  0  0  0
   60.8859   31.8289   49.9986 H   0  0  0  0  0  0  0  0  0  0  0  0
   59.7420   30.1790   49.1690 C   0  0  0  0  0  0  0  0  0  0  0  0
   59.0520   29.8550   50.4550 C   0  0  0  0  0  0  0  0  0  0  0  0
   59.6903   30.1547   51.2992 H   0  0  0  0  0  0  0  0  0  0  0  0
   58.0972   30.3989   50.5060 H   0  0  0  0  0  0  0  0  0  0  0  0
   58.8607   28.7730   50.5060 H   0  0  0  0  0  0  0  0  0  0  0  0
   59.4530   29.4640   48.0500 N   0  0  0  0  0  0  0  0  0  0  0  0
   60.0420   29.7250   46.8480 C   0  0  0  0  0  0  0  0  0  0  0  0
   59.7440   29.0290   45.7880 N   0  0  0  0  0  0  0  0  0  0  0  0
   58.4230   28.7550   45.2950 C   0  0  0  0  0  0  0  0  0  0  0  0
   57.9230   29.5400   44.4460 O   0  0  0  0  0  0  0  0  0  0  0  0
   57.6660   27.5430   45.6970 C   0  0  0  0  0  0  0  0  0  0  0  0
   58.3560   26.3920   46.1150 C   0  0  0  0  0  0  0  0  0  0  0  0
   59.4556   26.3955   46.1457 H   0  0  0  0  0  0  0  0  0  0  0  0
   57.6550   25.2430   46.4920 C   0  0  0  0  0  0  0  0  0  0  0  0
   58.2033   24.3496   46.8253 H   0  0  0  0  0  0  0  0  0  0  0  0
   56.2600   25.2280   46.4460 C   0  0  0  0  0  0  0  0  0  0  0  0
   55.7105   24.3231   46.7447 H   0  0  0  0  0  0  0  0  0  0  0  0
   55.5600   26.3610   46.0210 C   0  0  0  0  0  0  0  0  0  0  0  0
   54.1710   26.3350   45.9760 O   0  0  0  0  0  0  0  0  0  0  0  0
   56.2560   27.5180   45.6450 C   0  0  0  0  0  0  0  0  0  0  0  0
   55.5420   28.6400   45.2360 O   0  0  0  0  0  0  0  0  0  0  0  0
   60.9580   30.7760   46.7450 C   0  0  0  0  0  0  0  0  0  0  0  0
   61.4167   31.0152   45.7742 H   0  0  0  0  0  0  0  0  0  0  0  0
   58.6600   32.9550   47.1040 C   0  0  0  0  0  0  0  0  0  0  0  0
   59.0461   32.7824   48.1195 H   0  0  0  0  0  0  0  0  0  0  0  0
   57.7290   32.0700   46.5540 C   0  0  0  0  0  0  0  0  0  0  0  0
   57.3873   31.2019   47.1368 H   0  0  0  0  0  0  0  0  0  0  0  0
  1  2  1  0
  2  3  1  0
  3  4  2  0
  4  5  1  0
  4  6  1  0
  6  7  1  0
  6  8  2  0
  8  9  1  0
  9 10  1  0
  9 11  1  0
  9 12  1  0
 12 13  1  0
 12 14  1  0
 12 15  1  0
 15 16  1  0
 16 17  2  0
 16 18  1  0
 18 19  1  0
 19 20  1  0
 19 21  2  0
 21 22  1  0
 22 23  1  0
 22 24  1  0
 22 25  1  0
 21 26  1  0
 26 27  1  0
 27 28  2  0
 28 29  1  0
 29 30  2  0
 29 31  1  0
 31 32  2  0
 32 33  1  0
 32 34  1  0
 34 35  1  0
 34 36  2  0
 36 37  1  0
 36 38  1  0
 38 39  1  0
 38 40  2  0
 40 41  1  0
 27 42  1  0
 42 43  1  0
  8 44  1  0
 44 45  1  0
 44 46  2  0
 46 47  1  0
 46  3  1  0
 42 18  2  0
 40 31  1  0
M  CHG  4  15  -1  26  -1  39  -1  41  -1
M  END
>  <UniqueID>  (27) 
26

>  <SMILES>  (27) 
Cc1cc(C(=O)[N-]CCc2ccc(O)cc2)c/c(=N/C(=O)c2cccc([O-])c2[O-])[n-]1

>  <Energy>  (27) 
58.180167419548965

>  <Genealogy>  (27) 
Cc1cc(C(=O)[N-]CCc2ccc(O)cc2)cc(=NC(=O)c2cccc([O-])c2[O-])[n-]1 (protonated)
Cc1cc(C(=O)[N-]CCc2ccc(O)cc2)c/c(=N/C(=O)c2cccc([O-])c2[O-])[n-]1 (cis-trans isomerization)
Cc1cc(C(=O)[N-]CCc2ccc(O)cc2)c/c(=N/C(=O)c2cccc([O-])c2[O-])[n-]1 (3D coordinates assigned)
Cc1cc(C(=O)[N-]CCc2ccc(O)cc2)c/c(=N/C(=O)c2cccc([O-])c2[O-])[n-]1 (optimized conformer: 58.180167419548965 kcal/mol)

>  <smiles>  (27) 
Cc1cc(C(=O)NCCc2ccc(O)cc2)cc(=NC(=O)c2cccc(O)c2O)[nH]1

>  <score_type>  (27) 
oracle

>  <origin>  (27) 
adg

>  <m_score__min__energy>  (27) 
-17.140000000000001

>  <m_primary>  (27) 
energy

$$$$
27:0
     RDKit          3D

 49 52  0  0  0  0  0  0  0  0999 V2000
   57.8871   33.3909   47.9489 H   0  0  0  0  0  0  0  0  0  0  0  0
   57.8320   33.1640   46.8740 C   0  0  0  0  0  0  0  0  0  0  0  0
   57.7670   31.8920   46.4020 N   0  0  0  0  0  0  0  0  0  0  0  0
   57.6950   31.8580   45.0540 C   0  0  0  0  0  0  0  0  0  0  0  0
   57.6650   30.7370   44.3960 N   0  0  0  0  0  0  0  0  0  0  0  0
   56.8060   29.6060   44.6190 C   0  0  0  0  0  0  0  0  0  0  0  0
   55.5900   29.8150   44.8670 O   0  0  0  0  0  0  0  0  0  0  0  0
   57.3070   28.1910   44.5430 C   0  0  0  0  0  0  0  0  0  0  0  0
   56.7702   27.6608   43.7426 H   0  0  0  0  0  0  0  0  0  0  0  0
   57.1298   27.7014   45.5120 H   0  0  0  0  0  0  0  0  0  0  0  0
   59.1030   28.1560   44.1870 S   0  0  0  0  0  0  0  0  0  0  0  0
   59.6020   28.6640   45.8360 C   0  0  0  0  0  0  0  0  0  0  0  0
   59.9450   27.8050   46.8350 N   0  0  0  0  0  0  0  0  0  0  0  0
   59.9190   26.3410   46.7900 C   0  0  0  0  0  0  0  0  0  0  0  0
   60.4307   25.9408   47.6777 H   0  0  0  0  0  0  0  0  0  0  0  0
   60.4298   26.0003   45.8773 H   0  0  0  0  0  0  0  0  0  0  0  0
   58.4970   25.8480   46.7710 C   0  0  0  0  0  0  0  0  0  0  0  0
   57.6080   26.5170   47.3570 O   0  0  0  0  0  0  0  0  0  0  0  0
   58.1490   24.5800   46.2030 N   0  0  0  0  0  0  0  0  0  0  0  0
   56.8200   24.1730   45.8620 C   0  0  0  0  0  0  0  0  0  0  0  0
   55.8950   23.8280   46.8570 C   0  0  0  0  0  0  0  0  0  0  0  0
   56.1883   23.8690   47.9164 H   0  0  0  0  0  0  0  0  0  0  0  0
   54.6010   23.4320   46.5070 C   0  0  0  0  0  0  0  0  0  0  0  0
   53.8789   23.1694   47.2941 H   0  0  0  0  0  0  0  0  0  0  0  0
   54.2170   23.3670   45.1620 C   0  0  0  0  0  0  0  0  0  0  0  0
   52.9030   22.9790   44.8640 O   0  0  0  0  0  0  0  0  0  0  0  0
   51.8310   23.8900   44.6260 C   0  0  0  0  0  0  0  0  0  0  0  0
   51.4237   24.2361   45.5874 H   0  0  0  0  0  0  0  0  0  0  0  0
   52.2030   24.7525   44.0536 H   0  0  0  0  0  0  0  0  0  0  0  0
   51.0398   23.3837   44.0536 H   0  0  0  0  0  0  0  0  0  0  0  0
   55.1590   23.6860   44.1630 C   0  0  0  0  0  0  0  0  0  0  0  0
   54.8724   23.6318   43.1024 H   0  0  0  0  0  0  0  0  0  0  0  0
   56.4560   24.0710   44.5150 C   0  0  0  0  0  0  0  0  0  0  0  0
   57.1932   24.2946   43.7298 H   0  0  0  0  0  0  0  0  0  0  0  0
   60.2620   28.6130   47.8690 C   0  0  0  0  0  0  0  0  0  0  0  0
   60.7030   28.2840   49.1530 C   0  0  0  0  0  0  0  0  0  0  0  0
   60.8486   27.2354   49.4518 H   0  0  0  0  0  0  0  0  0  0  0  0
   60.9550   29.3370   50.0520 C   0  0  0  0  0  0  0  0  0  0  0  0
   61.2928   29.1131   51.0746 H   0  0  0  0  0  0  0  0  0  0  0  0
   60.7770   30.6800   49.6500 C   0  0  0  0  0  0  0  0  0  0  0  0
   60.9737   31.4947   50.3625 H   0  0  0  0  0  0  0  0  0  0  0  0
   60.3500   30.9810   48.3450 C   0  0  0  0  0  0  0  0  0  0  0  0
   60.2165   32.0220   48.0157 H   0  0  0  0  0  0  0  0  0  0  0  0
   60.1020   29.9160   47.4840 C   0  0  0  0  0  0  0  0  0  0  0  0
   59.6920   29.9630   46.2060 N   0  0  0  0  0  0  0  0  0  0  0  0
   59.4910   30.8080   45.6270 H   0  0  0  0  0  0  0  0  0  0  0  0
   57.7350   33.4140   44.3980 S   0  0  0  0  0  0  0  0  0  0  0  0
   57.8240   34.1590   45.9030 C   0  0  0  0  0  0  0  0  0  0  0  0
   57.8681   35.2426   46.0868 H   0  0  0  0  0  0  0  0  0  0  0  0
  1  2  1  0
  2  3  1  0
  3  4  1  0
  4  5  2  0
  5  6  1  0
  6  7  2  0
  6  8  1  0
  8  9  1  0
  8 10  1  0
  8 11  1  0
 11 12  1  0
 12 13  1  0
 13 14  1  0
 14 15  1  0
 14 16  1  0
 14 17  1  0
 17 18  2  0
 17 19  1  0
 19 20  1  0
 20 21  2  0
 21 22  1  0
 21 23  1  0
 23 24  1  0
 23 25  2  0
 25 26  1  0
 26 27  1  0
 27 28  1  0
 27 29  1  0
 27 30  1  0
 25 31  1  0
 31 32  1  0
 31 33  2  0
 33 34  1  0
 13 35  1  0
 35 36  2  0
 36 37  1  0
 36 38  1  0
 38 39  1  0
 38 40  2  0
 40 41  1  0
 40 42  1  0
 42 43  1  0
 42 44  2  0
 44 45  1  0
 45 46  1  0
  4 47  1  0
 47 48  1  0
 48 49  1  0
 48  2  2  0
 45 12  2  0
 33 20  1  0
 44 35  1  0
M  CHG  3   3  -1  19  -1  45   1
M  END
>  <UniqueID>  (28) 
27

>  <SMILES>  (28) 
COc1ccc([N-]C(=O)Cn2c(SCC(=O)/N=c3/[n-]ccs3)[nH+]c3ccccc32)cc1

>  <Energy>  (28) 
127.66290139075568

>  <Genealogy>  (28) 
COc1ccc([N-]C(=O)Cn2c(SCC(=O)N=c3[n-]ccs3)[nH+]c3ccccc32)cc1 (protonated)
COc1ccc([N-]C(=O)Cn2c(SCC(=O)/N=c3/[n-]ccs3)[nH+]c3ccccc32)cc1 (cis-trans isomerization)
COc1ccc([N-]C(=O)Cn2c(SCC(=O)/N=c3/[n-]ccs3)[nH+]c3ccccc32)cc1 (3D coordinates assigned)
COc1ccc([N-]C(=O)Cn2c(SCC(=O)/N=c3/[n-]ccs3)[nH+]c3ccccc32)cc1 (optimized conformer: 127.66290139075568 kcal/mol)

>  <smiles>  (28) 
COc1ccc(NC(=O)Cn2c(SCC(=O)N=c3[nH]ccs3)nc3ccccc32)cc1

>  <score_type>  (28) 
oracle

>  <origin>  (28) 
adg

>  <m_score__min__energy>  (28) 
-9.0099999999999998

>  <m_primary>  (28) 
energy

$$$$
28:0
     RDKit          3D

 45 48  0  0  1  0  0  0  0  0999 V2000
   56.3020   27.3400   45.6220 C   0  0  0  0  0  0  0  0  0  0  0  0
   57.6160   27.1350   45.6630 C   0  0  0  0  0  0  0  0  0  0  0  0
   59.5650   34.5010   46.5180 C   0  0  0  0  0  0  0  0  0  0  0  0
   57.7720   24.7350   46.0460 C   0  0  0  0  0  0  0  0  0  0  0  0
   57.7690   23.5870   45.1480 C   0  0  0  0  0  0  0  0  0  0  0  0
   56.7170   23.2300   44.3640 N   0  0  0  0  0  0  0  0  0  0  0  0
   56.9830   22.1200   43.6750 C   0  0  0  0  0  0  0  0  0  0  0  0
   56.3090   21.4610   42.8530 O   0  0  0  0  0  0  0  0  0  0  0  0
   58.2630   21.7590   44.0520 N   0  0  0  0  0  0  0  0  0  0  0  0
   58.7170   22.6510   44.9320 C   0  0  0  0  0  0  0  0  0  0  0  0
   59.9800   22.5760   45.5030 O   0  0  0  0  0  0  0  0  0  0  0  0
   59.6270   26.1200   45.5990 C   0  0  0  0  0  0  0  0  0  0  0  0
   59.7760   27.4940   45.4600 C   0  0  0  0  0  0  0  0  0  0  0  0
   61.1240   28.1170   45.3060 C   0  0  0  0  0  0  0  0  0  0  0  0
   58.5650   28.0740   45.5040 N   0  0  0  0  0  0  0  0  0  0  0  0
   58.4120   29.4900   45.4380 C   0  0  0  0  0  0  0  0  0  0  0  0
   58.5720   30.2550   46.5700 C   0  0  0  0  0  0  0  0  0  0  0  0
   58.3770   31.6450   46.4840 C   0  0  0  0  0  0  0  0  0  0  0  0
   58.0310   32.2540   45.2980 C   0  0  0  0  0  0  0  0  0  0  0  0
   57.8060   33.7000   45.2130 C   0  0  0  0  0  0  0  0  0  0  0  0
   56.6160   34.0150   44.8660 O   0  0  0  0  0  0  0  0  0  0  0  0
   58.8210   34.6420   45.4930 N   0  0  0  0  0  0  0  0  0  0  0  0
   58.2430   25.9220   45.7320 C   0  0  0  0  0  0  0  0  0  0  0  0
   59.5500   34.9260   47.7530 N   0  0  0  0  0  0  0  0  0  0  0  0
   60.5210   34.5700   48.5190 N   0  0  0  0  0  0  0  0  0  0  0  0
   61.4640   33.8940   48.2800 C   0  0  0  0  0  0  0  0  0  0  0  0
   61.1230   33.4940   46.4380 S   0  0  0  0  0  0  0  0  0  0  0  0
   57.8710   31.4850   44.1670 C   0  0  0  0  0  0  0  0  0  0  0  0
   58.0590   30.1200   44.2400 C   0  0  0  0  0  0  0  0  0  0  0  0
   55.9067   28.3650   45.5670 H   0  0  0  0  0  0  0  0  0  0  0  0
   55.6109   26.4844   45.6431 H   0  0  0  0  0  0  0  0  0  0  0  0
   57.3523   24.5995   47.0537 H   0  0  0  0  0  0  0  0  0  0  0  0
   55.8180   23.7500   44.2990 H   0  0  0  0  0  0  0  0  0  0  0  0
   58.7260   20.9120   43.6580 H   0  0  0  0  0  0  0  0  0  0  0  0
   60.7830   22.2240   44.9920 H   0  0  0  0  0  0  0  0  0  0  0  0
   60.4182   25.3558   45.6038 H   0  0  0  0  0  0  0  0  0  0  0  0
   61.5522   28.3149   46.2997 H   0  0  0  0  0  0  0  0  0  0  0  0
   61.7833   27.4323   44.7524 H   0  0  0  0  0  0  0  0  0  0  0  0
   61.0297   29.0629   44.7524 H   0  0  0  0  0  0  0  0  0  0  0  0
   58.8479   29.7872   47.5266 H   0  0  0  0  0  0  0  0  0  0  0  0
   58.5039   32.2612   47.3863 H   0  0  0  0  0  0  0  0  0  0  0  0
   58.7500   35.5500   48.1210 H   0  0  0  0  0  0  0  0  0  0  0  0
   62.2963   33.5848   48.9293 H   0  0  0  0  0  0  0  0  0  0  0  0
   57.5952   31.9557   43.2118 H   0  0  0  0  0  0  0  0  0  0  0  0
   57.9279   29.5117   43.3329 H   0  0  0  0  0  0  0  0  0  0  0  0
  1  2  2  0
  2  3  1  0
  3  4  2  0
  4  5  1  0
  5  6  1  0
  6  7  1  0
  7  8  2  0
  7  9  1  0
  9 10  1  0
 10 11  1  0
  3 12  1  0
 12 13  2  0
 13 14  1  0
 13 15  1  0
 15 16  1  0
 16 17  2  0
 17 18  1  0
 18 19  2  0
 19 20  1  0
 20 21  2  0
 20 22  1  0
 22 23  2  0
 23 24  1  0
 24 25  1  0
 25 26  2  0
 26 27  1  0
 19 28  1  0
 28 29  2  0
 15  2  1  0
 29 16  1  0
 10  5  2  0
 27 23  1  0
  1 30  1  0
  1 31  1  0
  4 32  1  0
  6 33  1  0
  9 34  1  0
 11 35  1  0
 12 36  1  0
 14 37  1  0
 14 38  1  0
 14 39  1  0
 17 40  1  0
 18 41  1  0
 24 42  1  0
 26 43  1  0
 28 44  1  0
 29 45  1  0
M  END
>  <smiles>  (29) 
C=c1c(=Cc2[nH]c(=O)[nH]c2O)cc(C)n1-c1ccc(C(=O)N=c2[nH]ncs2)cc1

>  <score_type>  (29) 
oracle

>  <origin>  (29) 
adg

>  <m_score__min__energy>  (29) 
-9.5099999999999998

>  <m_primary>  (29) 
energy

$$$$
29:0
     RDKit          3D

 50 53  0  0  0  0  0  0  0  0999 V2000
   57.8570   23.2120   44.7460 C   0  0  0  0  0  0  0  0  0  0  0  0
   57.7500   23.9060   46.0700 C   0  0  0  0  0  0  0  0  0  0  0  0
   57.0660   25.2220   45.9730 C   0  0  0  0  0  0  0  0  0  0  0  0
   57.5450   26.4320   45.5170 C   0  0  0  0  0  0  0  0  0  0  0  0
   56.5220   27.3580   45.6280 C   0  0  0  0  0  0  0  0  0  0  0  0
   56.5640   28.7910   45.2610 C   0  0  0  0  0  0  0  0  0  0  0  0
   55.4970   29.3100   44.8700 O   0  0  0  0  0  0  0  0  0  0  0  0
   57.7730   29.5250   45.3560 N   0  0  0  0  0  0  0  0  0  0  0  0
   57.9490   30.8760   45.0440 C   0  0  0  0  0  0  0  0  0  0  0  0
   57.7250   31.2540   43.7120 C   0  0  0  0  0  0  0  0  0  0  0  0
   57.8660   32.5380   43.2930 C   0  0  0  0  0  0  0  0  0  0  0  0
   58.2410   33.5200   44.1830 C   0  0  0  0  0  0  0  0  0  0  0  0
   58.4730   33.2100   45.4970 C   0  0  0  0  0  0  0  0  0  0  0  0
   58.8870   34.1960   46.5290 C   0  0  0  0  0  0  0  0  0  0  0  0
   60.2580   34.0140   47.0110 C   0  0  0  0  0  0  0  0  0  0  0  0
   61.2310   33.8570   46.0800 N   0  0  0  0  0  0  0  0  0  0  0  0
   62.4870   33.7150   46.4340 N   0  0  0  0  0  0  0  0  0  0  0  0
   62.9320   33.7090   47.6980 C   0  0  0  0  0  0  0  0  0  0  0  0
   64.1430   33.5730   48.0160 O   0  0  0  0  0  0  0  0  0  0  0  0
   61.9960   33.8640   48.6950 C   0  0  0  0  0  0  0  0  0  0  0  0
   60.6560   34.0150   48.3200 C   0  0  0  0  0  0  0  0  0  0  0  0
   59.6810   34.1550   49.4050 C   0  0  0  0  0  0  0  0  0  0  0  0
   59.9630   33.3040   50.6180 C   0  0  0  0  0  0  0  0  0  0  0  0
   61.3920   33.0190   50.8920 C   0  0  0  0  0  0  0  0  0  0  0  0
   62.3580   33.8800   50.1430 C   0  0  0  0  0  0  0  0  0  0  0  0
   58.3170   31.8760   45.8900 C   0  0  0  0  0  0  0  0  0  0  0  0
   55.5020   26.7050   46.1270 O   0  0  0  0  0  0  0  0  0  0  0  0
   55.7820   25.4600   46.3410 N   0  0  0  0  0  0  0  0  0  0  0  0
   58.0228   22.1367   44.9080 H   0  0  0  0  0  0  0  0  0  0  0  0
   56.9257   23.3581   44.1791 H   0  0  0  0  0  0  0  0  0  0  0  0
   58.7010   23.6318   44.1791 H   0  0  0  0  0  0  0  0  0  0  0  0
   57.1820   23.2639   46.7592 H   0  0  0  0  0  0  0  0  0  0  0  0
   58.7720   24.0882   46.4337 H   0  0  0  0  0  0  0  0  0  0  0  0
   58.5577   26.6264   45.1340 H   0  0  0  0  0  0  0  0  0  0  0  0
   58.6050   28.9540   45.7040 H   0  0  0  0  0  0  0  0  0  0  0  0
   57.4256   30.4860   42.9836 H   0  0  0  0  0  0  0  0  0  0  0  0
   57.6802   32.7946   42.2396 H   0  0  0  0  0  0  0  0  0  0  0  0
   58.3547   34.5580   43.8371 H   0  0  0  0  0  0  0  0  0  0  0  0
   58.8031   35.2043   46.0974 H   0  0  0  0  0  0  0  0  0  0  0  0
   58.2235   34.0489   47.3939 H   0  0  0  0  0  0  0  0  0  0  0  0
   63.2110   33.5960   45.6790 H   0  0  0  0  0  0  0  0  0  0  0  0
   59.6684   35.2086   49.7208 H   0  0  0  0  0  0  0  0  0  0  0  0
   58.7162   33.8129   49.0024 H   0  0  0  0  0  0  0  0  0  0  0  0
   59.5482   33.8209   51.4959 H   0  0  0  0  0  0  0  0  0  0  0  0
   59.4996   32.3281   50.4108 H   0  0  0  0  0  0  0  0  0  0  0  0
   61.5692   33.1621   51.9682 H   0  0  0  0  0  0  0  0  0  0  0  0
   61.5719   31.9872   50.5559 H   0  0  0  0  0  0  0  0  0  0  0  0
   62.3078   34.9103   50.5250 H   0  0  0  0  0  0  0  0  0  0  0  0
   63.3805   33.4969   50.2763 H   0  0  0  0  0  0  0  0  0  0  0  0
   58.5026   31.6212   46.9438 H   0  0  0  0  0  0  0  0  0  0  0  0
  1  2  1  0
  2  3  1  0
  3  4  1  0
  4  5  2  0
  5  6  1  0
  6  7  2  0
  6  8  1  0
  8  9  1  0
  9 10  2  0
 10 11  1  0
 11 12  2  0
 12 13  1  0
 13 14  1  0
 14 15  1  0
 15 16  2  0
 16 17  1  0
 17 18  1  0
 18 19  2  0
 18 20  1  0
 20 21  2  0
 21 22  1  0
 22 23  1  0
 23 24  1  0
 24 25  1  0
 13 26  2  0
  5 27  1  0
 27 28  1  0
 28  3  2  0
 26  9  1  0
 21 15  1  0
 25 20  1  0
  1 29  1  0
  1 30  1  0
  1 31  1  0
  2 32  1  0
  2 33  1  0
  4 34  1  0
  8 35  1  0
 10 36  1  0
 11 37  1  0
 12 38  1  0
 14 39  1  0
 14 40  1  0
 17 41  1  0
 22 42  1  0
 22 43  1  0
 23 44  1  0
 23 45  1  0
 24 46  1  0
 24 47  1  0
 25 48  1  0
 25 49  1  0
 26 50  1  0
M  END
>  <smiles>  (30) 
CCc1cc(C(=O)Nc2cccc(Cc3n[nH]c(=O)c4c3CCCC4)c2)on1

>  <score_type>  (30) 
oracle

>  <origin>  (30) 
adg

>  <m_score__min__energy>  (30) 
-10.33

>  <m_primary>  (30) 
energy

$$$$
30:0
     RDKit          3D

 48 50  0  0  1  0  0  0  0  0999 V2000
   59.6360   33.4960   50.6890 C   0  0  0  0  0  0  0  0  0  0  0  0
   60.6560   33.5310   49.5810 C   0  0  0  0  0  0  0  0  0  0  0  0
   61.9610   33.3120   49.8330 N   0  0  0  0  0  0  0  0  0  0  0  0
   62.8720   33.3470   48.8240 C   0  0  0  0  0  0  0  0  0  0  0  0
   64.3180   33.1110   49.0600 C   0  0  0  0  0  0  0  0  0  0  0  0
   62.4350   33.6110   47.5410 C   0  0  0  0  0  0  0  0  0  0  0  0
   63.3690   33.6660   46.3830 C   0  0  0  0  0  0  0  0  0  0  0  0
   61.0830   33.8300   47.3290 C   0  0  0  0  0  0  0  0  0  0  0  0
   60.6920   34.0750   46.1250 N   0  0  0  0  0  0  0  0  0  0  0  0
   59.0260   34.1370   45.7020 S   0  0  0  0  0  0  0  0  0  0  0  0
   58.7520   35.0470   44.5440 O   0  0  0  0  0  0  0  0  0  0  0  0
   58.2750   34.6780   46.8870 O   0  0  0  0  0  0  0  0  0  0  0  0
   58.4470   32.5150   45.4050 C   0  0  0  0  0  0  0  0  0  0  0  0
   59.0630   31.4600   46.0260 C   0  0  0  0  0  0  0  0  0  0  0  0
   58.6490   30.1660   45.8280 C   0  0  0  0  0  0  0  0  0  0  0  0
   57.5750   29.8410   44.9840 C   0  0  0  0  0  0  0  0  0  0  0  0
   57.2180   28.4860   44.8390 N   0  0  0  0  0  0  0  0  0  0  0  0
   57.3750   27.4490   45.7700 C   0  0  0  0  0  0  0  0  0  0  0  0
   57.9020   27.7480   46.8850 O   0  0  0  0  0  0  0  0  0  0  0  0
   57.0010   26.0590   45.5980 C   0  0  0  0  0  0  0  0  0  0  0  0
   58.0040   25.1250   45.2920 C   0  0  0  0  0  0  0  0  0  0  0  0
   57.7380   23.7880   45.1130 C   0  0  0  0  0  0  0  0  0  0  0  0
   56.4540   23.3010   45.2300 C   0  0  0  0  0  0  0  0  0  0  0  0
   55.4670   24.1950   45.5280 C   0  0  0  0  0  0  0  0  0  0  0  0
   55.7350   25.5470   45.7090 C   0  0  0  0  0  0  0  0  0  0  0  0
   54.6950   26.3280   45.9960 F   0  0  0  0  0  0  0  0  0  0  0  0
   56.9700   30.9080   44.3720 C   0  0  0  0  0  0  0  0  0  0  0  0
   57.3890   32.2300   44.5700 C   0  0  0  0  0  0  0  0  0  0  0  0
   60.1890   33.7910   48.3510 N   0  0  0  0  0  0  0  0  0  0  0  0
   60.1501   33.5136   51.6613 H   0  0  0  0  0  0  0  0  0  0  0  0
   58.9758   34.3720   50.6074 H   0  0  0  0  0  0  0  0  0  0  0  0
   59.0374   32.5768   50.6074 H   0  0  0  0  0  0  0  0  0  0  0  0
   64.5125   33.0793   50.1422 H   0  0  0  0  0  0  0  0  0  0  0  0
   64.6120   32.1530   48.6064 H   0  0  0  0  0  0  0  0  0  0  0  0
   64.9013   33.9258   48.6064 H   0  0  0  0  0  0  0  0  0  0  0  0
   64.4043   33.7270   46.7496 H   0  0  0  0  0  0  0  0  0  0  0  0
   63.2492   32.7592   45.7719 H   0  0  0  0  0  0  0  0  0  0  0  0
   63.1436   34.5524   45.7719 H   0  0  0  0  0  0  0  0  0  0  0  0
   59.9103   31.6548   46.6999 H   0  0  0  0  0  0  0  0  0  0  0  0
   59.1778   29.3546   46.3494 H   0  0  0  0  0  0  0  0  0  0  0  0
   56.7810   28.2270   43.9180 H   0  0  0  0  0  0  0  0  0  0  0  0
   59.0416   25.4763   45.1917 H   0  0  0  0  0  0  0  0  0  0  0  0
   58.5606   23.0981   44.8733 H   0  0  0  0  0  0  0  0  0  0  0  0
   56.2333   22.2327   45.0886 H   0  0  0  0  0  0  0  0  0  0  0  0
   54.4319   23.8363   45.6276 H   0  0  0  0  0  0  0  0  0  0  0  0
   56.1213   30.7185   43.6983 H   0  0  0  0  0  0  0  0  0  0  0  0
   56.8677   33.0492   44.0532 H   0  0  0  0  0  0  0  0  0  0  0  0
   59.1830   33.9610   48.1480 H   0  0  0  0  0  0  0  0  0  0  0  0
  1  2  1  0
  2  3  2  0
  3  4  1  0
  4  5  1  0
  4  6  2  0
  6  7  1  0
  6  8  1  0
  8  9  2  0
  9 10  1  0
 10 11  2  0
 10 12  2  0
 10 13  1  0
 13 14  2  0
 14 15  1  0
 15 16  2  0
 16 17  1  0
 17 18  1  0
 18 19  2  0
 18 20  1  0
 20 21  2  0
 21 22  1  0
 22 23  2  0
 23 24  1  0
 24 25  2  0
 25 26  1  0
 16 27  1  0
 27 28  2  0
  8 29  1  0
 29  2  1  0
 28 13  1  0
 25 20  1  0
  1 30  1  0
  1 31  1  0
  1 32  1  0
  5 33  1  0
  5 34  1  0
  5 35  1  0
  7 36  1  0
  7 37  1  0
  7 38  1  0
 14 39  1  0
 15 40  1  0
 17 41  1  0
 21 42  1  0
 22 43  1  0
 23 44  1  0
 24 45  1  0
 27 46  1  0
 28 47  1  0
 29 48  1  0
M  END
>  <smiles>  (31) 
Cc1nc(C)c(C)c(=NS(=O)(=O)c2ccc(NC(=O)c3ccccc3F)cc2)[nH]1

>  <score_type>  (31) 
oracle

>  <origin>  (31) 
adg

>  <m_score__min__energy>  (31) 
-9.2200000000000006

>  <m_primary>  (31) 
energy

$$$$
31:0
     RDKit          3D

 47 49  0  0  0  0  0  0  0  0999 V2000
   55.1360   29.3280   44.8240 O   0  0  0  0  0  0  0  0  0  0  0  0
   56.2070   29.8140   44.3710 C   0  0  0  0  0  0  0  0  0  0  0  0
   57.0270   28.9970   43.4030 C   0  0  0  0  0  0  0  0  0  0  0  0
   57.8630   27.9150   44.0960 C   0  0  0  0  0  0  0  0  0  0  0  0
   57.0510   27.2810   45.6100 S   0  0  0  0  0  0  0  0  0  0  0  0
   58.2140   28.0170   46.7540 C   0  0  0  0  0  0  0  0  0  0  0  0
   58.0890   29.3210   47.1000 N   0  0  0  0  0  0  0  0  0  0  0  0
   58.9510   29.9070   47.9690 C   0  0  0  0  0  0  0  0  0  0  0  0
   58.7990   31.1230   48.2620 O   0  0  0  0  0  0  0  0  0  0  0  0
   59.9990   29.1570   48.5310 C   0  0  0  0  0  0  0  0  0  0  0  0
   60.9960   29.7950   49.4720 C   0  0  0  0  0  0  0  0  0  0  0  0
   61.5020   31.0930   48.9050 C   0  0  0  0  0  0  0  0  0  0  0  0
   62.0820   31.1340   47.6250 C   0  0  0  0  0  0  0  0  0  0  0  0
   62.5760   32.3370   47.1150 C   0  0  0  0  0  0  0  0  0  0  0  0
   62.5000   33.5070   47.8770 C   0  0  0  0  0  0  0  0  0  0  0  0
   61.9310   33.4740   49.1520 C   0  0  0  0  0  0  0  0  0  0  0  0
   61.4340   32.2730   49.6670 C   0  0  0  0  0  0  0  0  0  0  0  0
   60.1110   27.8060   48.1520 C   0  0  0  0  0  0  0  0  0  0  0  0
   61.1320   27.0110   48.6610 O   0  0  0  0  0  0  0  0  0  0  0  0
   59.2150   27.2690   47.2840 N   0  0  0  0  0  0  0  0  0  0  0  0
   56.6430   31.0880   44.8710 N   0  0  0  0  0  0  0  0  0  0  0  0
   57.4030   32.0960   44.1390 C   0  0  0  0  0  0  0  0  0  0  0  0
   58.0550   33.0600   45.0940 C   0  0  0  0  0  0  0  0  0  0  0  0
   58.9560   34.0200   44.6090 C   0  0  0  0  0  0  0  0  0  0  0  0
   59.5780   34.9140   45.4880 C   0  0  0  0  0  0  0  0  0  0  0  0
   59.2930   34.8610   46.8580 C   0  0  0  0  0  0  0  0  0  0  0  0
   58.3850   33.9160   47.3470 C   0  0  0  0  0  0  0  0  0  0  0  0
   57.7640   33.0200   46.4700 C   0  0  0  0  0  0  0  0  0  0  0  0
   56.3460   28.5109   42.6889 H   0  0  0  0  0  0  0  0  0  0  0  0
   57.7250   29.6827   42.9004 H   0  0  0  0  0  0  0  0  0  0  0  0
   58.0113   27.0791   43.3965 H   0  0  0  0  0  0  0  0  0  0  0  0
   58.8229   28.3649   44.3896 H   0  0  0  0  0  0  0  0  0  0  0  0
   60.5083   29.9883   50.4388 H   0  0  0  0  0  0  0  0  0  0  0  0
   61.8465   29.1104   49.6056 H   0  0  0  0  0  0  0  0  0  0  0  0
   62.1470   30.2156   47.0230 H   0  0  0  0  0  0  0  0  0  0  0  0
   63.0259   32.3640   46.1116 H   0  0  0  0  0  0  0  0  0  0  0  0
   62.8883   34.4532   47.4723 H   0  0  0  0  0  0  0  0  0  0  0  0
   61.8738   34.3943   49.7519 H   0  0  0  0  0  0  0  0  0  0  0  0
   60.9880   32.2510   50.6723 H   0  0  0  0  0  0  0  0  0  0  0  0
   61.2760   26.9250   49.6600 H   0  0  0  0  0  0  0  0  0  0  0  0
   58.1798   31.5991   43.5393 H   0  0  0  0  0  0  0  0  0  0  0  0
   56.7171   32.6529   43.4838 H   0  0  0  0  0  0  0  0  0  0  0  0
   59.1747   34.0702   43.5321 H   0  0  0  0  0  0  0  0  0  0  0  0
   60.2906   35.6582   45.1028 H   0  0  0  0  0  0  0  0  0  0  0  0
   59.7830   35.5623   47.5494 H   0  0  0  0  0  0  0  0  0  0  0  0
   58.1588   33.8772   48.4228 H   0  0  0  0  0  0  0  0  0  0  0  0
   57.0461   32.2821   46.8574 H   0  0  0  0  0  0  0  0  0  0  0  0
  1  2  2  0
  2  3  1  0
  3  4  1  0
  4  5  1  0
  5  6  1  0
  6  7  2  0
  7  8  1  0
  8  9  2  0
  8 10  1  0
 10 11  1  0
 11 12  1  0
 12 13  2  0
 13 14  1  0
 14 15  2  0
 15 16  1  0
 16 17  2  0
 10 18  2  0
 18 19  1  0
 18 20  1  0
  2 21  1  0
 21 22  1  0
 22 23  1  0
 23 24  2  0
 24 25  1  0
 25 26  2  0
 26 27  1  0
 27 28  2  0
 20  6  1  0
 28 23  1  0
 17 12  1  0
  3 29  1  0
  3 30  1  0
  4 31  1  0
  4 32  1  0
 11 33  1  0
 11 34  1  0
 13 35  1  0
 14 36  1  0
 15 37  1  0
 16 38  1  0
 17 39  1  0
 19 40  1  0
 22 41  1  0
 22 42  1  0
 24 43  1  0
 25 44  1  0
 26 45  1  0
 27 46  1  0
 28 47  1  0
M  CHG  2  20  -1  21  -1
M  END
>  <UniqueID>  (32) 
28

>  <SMILES>  (32) 
O=C(CCSc1nc(=O)c(Cc2ccccc2)c(O)[n-]1)[N-]Cc1ccccc1

>  <Energy>  (32) 
41.12366268520842

>  <Genealogy>  (32) 
O=C(CCSc1nc(=O)c(Cc2ccccc2)c(O)[n-]1)[N-]Cc1ccccc1 (protonated)
O=C(CCSc1nc(=O)c(Cc2ccccc2)c(O)[n-]1)[N-]Cc1ccccc1 (3D coordinates assigned)
O=C(CCSc1nc(=O)c(Cc2ccccc2)c(O)[n-]1)[N-]Cc1ccccc1 (optimized conformer: 41.12366268520842 kcal/mol)

>  <smiles>  (32) 
O=C(CCSc1nc(=O)c(Cc2ccccc2)c(O)[nH]1)NCc1ccccc1

>  <score_type>  (32) 
oracle

>  <origin>  (32) 
adg

>  <m_score__min__energy>  (32) 
-11.6

>  <m_primary>  (32) 
energy

$$$$
32:0
     RDKit          3D

 44 47  0  0  0  0  0  0  0  0999 V2000
   58.3810   28.3580   44.0810 O   0  0  0  0  0  0  0  0  0  0  0  0
   58.4580   28.6840   45.2970 C   0  0  0  0  0  0  0  0  0  0  0  0
   58.5560   27.5900   46.3250 C   0  0  0  0  0  0  0  0  0  0  0  0
   57.3280   26.7310   46.3090 C   0  0  0  0  0  0  0  0  0  0  0  0
   57.2610   25.4940   46.8370 N   0  0  0  0  0  0  0  0  0  0  0  0
   55.9750   25.1370   46.6310 C   0  0  0  0  0  0  0  0  0  0  0  0
   55.5170   24.0210   46.9870 O   0  0  0  0  0  0  0  0  0  0  0  0
   55.2170   26.0720   46.0180 N   0  0  0  0  0  0  0  0  0  0  0  0
   56.0880   27.0770   45.8270 C   0  0  0  0  0  0  0  0  0  0  0  0
   55.7570   28.2880   45.2270 O   0  0  0  0  0  0  0  0  0  0  0  0
   58.4180   30.0790   45.6660 N   0  0  0  0  0  0  0  0  0  0  0  0
   57.5040   31.0600   45.1690 C   0  0  0  0  0  0  0  0  0  0  0  0
   56.5560   30.7730   44.3920 O   0  0  0  0  0  0  0  0  0  0  0  0
   57.7240   32.7310   45.7840 S   0  0  0  0  0  0  0  0  0  0  0  0
   59.1100   32.1290   46.7540 C   0  0  0  0  0  0  0  0  0  0  0  0
   59.8180   32.9640   47.5300 C   0  0  0  0  0  0  0  0  0  0  0  0
   61.2900   33.0620   47.5410 C   0  0  0  0  0  0  0  0  0  0  0  0
   61.9770   33.7420   46.5220 C   0  0  0  0  0  0  0  0  0  0  0  0
   63.3690   33.8570   46.5690 C   0  0  0  0  0  0  0  0  0  0  0  0
   64.0810   33.3220   47.6450 C   0  0  0  0  0  0  0  0  0  0  0  0
   63.4060   32.6870   48.6950 C   0  0  0  0  0  0  0  0  0  0  0  0
   64.1560   32.1620   49.7570 O   0  0  0  0  0  0  0  0  0  0  0  0
   65.2020   32.8230   50.4190 C   0  0  0  0  0  0  0  0  0  0  0  0
   64.9650   33.8820   51.3160 C   0  0  0  0  0  0  0  0  0  0  0  0
   66.0370   34.5260   51.9430 C   0  0  0  0  0  0  0  0  0  0  0  0
   67.3480   34.1290   51.6710 C   0  0  0  0  0  0  0  0  0  0  0  0
   67.5900   33.0920   50.7650 C   0  0  0  0  0  0  0  0  0  0  0  0
   66.5210   32.4460   50.1370 C   0  0  0  0  0  0  0  0  0  0  0  0
   62.0060   32.5530   48.6340 C   0  0  0  0  0  0  0  0  0  0  0  0
   59.3030   30.6810   46.6040 C   0  0  0  0  0  0  0  0  0  0  0  0
   60.1360   30.0090   47.2700 O   0  0  0  0  0  0  0  0  0  0  0  0
   59.4349   26.9663   46.1048 H   0  0  0  0  0  0  0  0  0  0  0  0
   58.6511   28.0495   47.3199 H   0  0  0  0  0  0  0  0  0  0  0  0
   56.2400   28.6010   44.3950 H   0  0  0  0  0  0  0  0  0  0  0  0
   59.2590   33.6249   48.2087 H   0  0  0  0  0  0  0  0  0  0  0  0
   61.4179   34.1852   45.6847 H   0  0  0  0  0  0  0  0  0  0  0  0
   63.9051   34.3699   45.7569 H   0  0  0  0  0  0  0  0  0  0  0  0
   65.1780   33.3999   47.6678 H   0  0  0  0  0  0  0  0  0  0  0  0
   63.9340   34.2039   51.5244 H   0  0  0  0  0  0  0  0  0  0  0  0
   65.8471   35.3461   52.6511 H   0  0  0  0  0  0  0  0  0  0  0  0
   68.1898   34.6319   52.1693 H   0  0  0  0  0  0  0  0  0  0  0  0
   68.6230   32.7840   50.5460 H   0  0  0  0  0  0  0  0  0  0  0  0
   66.7169   31.6373   49.4176 H   0  0  0  0  0  0  0  0  0  0  0  0
   61.4699   32.0454   49.4495 H   0  0  0  0  0  0  0  0  0  0  0  0
  1  2  2  0
  2  3  1  0
  3  4  1  0
  4  5  1  0
  5  6  1  0
  6  7  2  0
  6  8  1  0
  8  9  1  0
  9 10  1  0
  2 11  1  0
 11 12  1  0
 12 13  2  0
 12 14  1  0
 14 15  1  0
 15 16  2  3
 16 17  1  0
 17 18  2  0
 18 19  1  0
 19 20  2  0
 20 21  1  0
 21 22  1  0
 22 23  1  0
 23 24  2  0
 24 25  1  0
 25 26  2  0
 26 27  1  0
 27 28  2  0
 21 29  2  0
 15 30  1  0
 30 31  2  0
  9  4  2  0
 30 11  1  0
 29 17  1  0
 28 23  1  0
  3 32  1  0
  3 33  1  0
 10 34  1  0
 16 35  1  0
 18 36  1  0
 19 37  1  0
 20 38  1  0
 24 39  1  0
 25 40  1  0
 26 41  1  0
 27 42  1  0
 28 43  1  0
 29 44  1  0
M  CHG  2   5  -1   8  -1
M  END
>  <UniqueID>  (33) 
29

>  <SMILES>  (33) 
O=C(Cc1[n-]c(=O)[n-]c1O)N1C(=O)SC(=Cc2cccc(Oc3ccccc3)c2)C1=O

>  <Energy>  (33) 
112.16784971642977

>  <Genealogy>  (33) 
O=C(Cc1[n-]c(=O)[n-]c1O)N1C(=O)SC(=Cc2cccc(Oc3ccccc3)c2)C1=O (protonated)
O=C(Cc1[n-]c(=O)[n-]c1O)N1C(=O)SC(=Cc2cccc(Oc3ccccc3)c2)C1=O (3D coordinates assigned)
O=C(Cc1[n-]c(=O)[n-]c1O)N1C(=O)SC(=Cc2cccc(Oc3ccccc3)c2)C1=O (nonaromatic ring conformer: 112.16784971642977 kcal/mol)

>  <smiles>  (33) 
O=C(Cc1[nH]c(=O)[nH]c1O)N1C(=O)SC(=Cc2cccc(Oc3ccccc3)c2)C1=O

>  <score_type>  (33) 
oracle

>  <origin>  (33) 
adg

>  <m_score__min__energy>  (33) 
-13.949999999999999

>  <m_primary>  (33) 
energy

$$$$
33:0
     RDKit          3D

 36 37  0  0  0  0  0  0  0  0999 V2000
   60.5340   34.2820   48.5840 C   0  0  0  0  0  0  0  0  0  0  0  0
   59.8420   34.5930   47.3780 O   0  0  0  0  0  0  0  0  0  0  0  0
   59.0520   33.6810   46.6620 C   0  0  0  0  0  0  0  0  0  0  0  0
   57.9860   34.1800   45.9070 C   0  0  0  0  0  0  0  0  0  0  0  0
   57.1630   33.3170   45.1810 C   0  0  0  0  0  0  0  0  0  0  0  0
   57.3940   31.9290   45.1980 C   0  0  0  0  0  0  0  0  0  0  0  0
   56.5720   31.0330   44.4940 O   0  0  0  0  0  0  0  0  0  0  0  0
   56.6950   30.7450   43.1050 C   0  0  0  0  0  0  0  0  0  0  0  0
   58.4730   31.4180   45.9490 C   0  0  0  0  0  0  0  0  0  0  0  0
   58.7080   29.9310   46.0240 C   0  0  0  0  0  0  0  0  0  0  0  0
   58.8970   29.4050   44.7130 O   0  0  0  0  0  0  0  0  0  0  0  0
   58.5320   28.1030   44.3570 C   0  0  0  0  0  0  0  0  0  0  0  0
   58.1390   27.8410   43.1880 O   0  0  0  0  0  0  0  0  0  0  0  0
   58.6650   27.0060   45.3620 C   0  0  0  0  0  0  0  0  0  0  0  0
   57.3100   26.4710   45.7140 C   0  0  0  0  0  0  0  0  0  0  0  0
   57.0830   25.2220   46.1550 N   0  0  0  0  0  0  0  0  0  0  0  0
   55.7420   25.1890   46.3170 C   0  0  0  0  0  0  0  0  0  0  0  0
   55.1340   24.1650   46.7250 O   0  0  0  0  0  0  0  0  0  0  0  0
   55.1040   26.3360   46.0040 N   0  0  0  0  0  0  0  0  0  0  0  0
   56.1100   27.1380   45.6240 C   0  0  0  0  0  0  0  0  0  0  0  0
   55.9410   28.4490   45.1880 O   0  0  0  0  0  0  0  0  0  0  0  0
   59.2920   32.2960   46.6790 C   0  0  0  0  0  0  0  0  0  0  0  0
   59.9114   34.5618   49.4466 H   0  0  0  0  0  0  0  0  0  0  0  0
   60.7443   33.2028   48.6182 H   0  0  0  0  0  0  0  0  0  0  0  0
   61.4806   34.8413   48.6182 H   0  0  0  0  0  0  0  0  0  0  0  0
   57.7940   35.2629   45.8849 H   0  0  0  0  0  0  0  0  0  0  0  0
   56.3284   33.7248   44.5918 H   0  0  0  0  0  0  0  0  0  0  0  0
   57.1240   29.7404   42.9754 H   0  0  0  0  0  0  0  0  0  0  0  0
   55.7020   30.7833   42.6333 H   0  0  0  0  0  0  0  0  0  0  0  0
   57.3540   31.4888   42.6333 H   0  0  0  0  0  0  0  0  0  0  0  0
   59.6048   29.7332   46.6296 H   0  0  0  0  0  0  0  0  0  0  0  0
   57.8344   29.4483   46.4864 H   0  0  0  0  0  0  0  0  0  0  0  0
   59.2785   26.1965   44.9396 H   0  0  0  0  0  0  0  0  0  0  0  0
   59.1455   27.4015   46.2690 H   0  0  0  0  0  0  0  0  0  0  0  0
   56.6220   28.8800   44.5740 H   0  0  0  0  0  0  0  0  0  0  0  0
   60.1292   31.8956   47.2696 H   0  0  0  0  0  0  0  0  0  0  0  0
  1  2  1  0
  2  3  1  0
  3  4  2  0
  4  5  1  0
  5  6  2  0
  6  7  1  0
  7  8  1  0
  6  9  1  0
  9 10  1  0
 10 11  1  0
 11 12  1  0
 12 13  2  0
 12 14  1  0
 14 15  1  0
 15 16  1  0
 16 17  1  0
 17 18  2  0
 17 19  1  0
 19 20  1  0
 20 21  1  0
  9 22  2  0
 22  3  1  0
 20 15  2  0
  1 23  1  0
  1 24  1  0
  1 25  1  0
  4 26  1  0
  5 27  1  0
  8 28  1  0
  8 29  1  0
  8 30  1  0
 10 31  1  0
 10 32  1  0
 14 33  1  0
 14 34  1  0
 21 35  1  0
 22 36  1  0
M  CHG  2  16  -1  19  -1
M  END
>  <UniqueID>  (34) 
30

>  <SMILES>  (34) 
COc1ccc(OC)c(COC(=O)Cc2[n-]c(=O)[n-]c2O)c1

>  <Energy>  (34) 
57.35942011501791

>  <Genealogy>  (34) 
COc1ccc(OC)c(COC(=O)Cc2[n-]c(=O)[n-]c2O)c1 (protonated)
COc1ccc(OC)c(COC(=O)Cc2[n-]c(=O)[n-]c2O)c1 (3D coordinates assigned)
COc1ccc(OC)c(COC(=O)Cc2[n-]c(=O)[n-]c2O)c1 (optimized conformer: 57.35942011501791 kcal/mol)

>  <smiles>  (34) 
COc1ccc(OC)c(COC(=O)Cc2[nH]c(=O)[nH]c2O)c1

>  <score_type>  (34) 
oracle

>  <origin>  (34) 
adg

>  <m_score__min__energy>  (34) 
-11.07

>  <m_primary>  (34) 
energy

$$$$
34:0
     RDKit          3D

 49 52  0  0  0  0  0  0  0  0999 V2000
   57.7340   30.4590   50.6190 O   0  0  0  0  0  0  0  0  0  0  0  0
   58.2230   31.3620   51.3480 C   0  0  0  0  0  0  0  0  0  0  0  0
   57.4720   31.8620   52.4550 N   0  0  0  0  0  0  0  0  0  0  0  0
   58.0770   32.7310   53.4580 C   0  0  0  0  0  0  0  0  0  0  0  0
   59.2140   33.5480   52.8440 C   0  0  0  0  0  0  0  0  0  0  0  0
   60.1560   32.6480   52.1670 N   0  0  0  0  0  0  0  0  0  0  0  0
   59.5540   31.9800   50.9960 C   0  0  2  0  0  0  0  0  0  0  0  0
   59.4270   32.9370   49.8310 C   0  0  0  0  0  0  0  0  0  0  0  0
   60.1720   33.9530   49.7570 O   0  0  0  0  0  0  0  0  0  0  0  0
   58.4770   32.6650   48.7910 N   0  0  0  0  0  0  0  0  0  0  0  0
   58.6120   33.1170   47.4320 C   0  0  0  0  0  0  0  0  0  0  0  0
   59.1050   34.4060   47.1840 C   0  0  0  0  0  0  0  0  0  0  0  0
   59.1950   34.8900   45.8770 C   0  0  0  0  0  0  0  0  0  0  0  0
   58.7730   34.1000   44.8050 C   0  0  0  0  0  0  0  0  0  0  0  0
   58.2540   32.8160   45.0330 C   0  0  0  0  0  0  0  0  0  0  0  0
   57.7600   31.9850   43.8750 C   0  0  0  0  0  0  0  0  0  0  0  0
   57.3070   30.6250   44.3460 C   0  0  0  0  0  0  0  0  0  0  0  0
   55.9690   30.4090   44.4590 N   0  0  0  0  0  0  0  0  0  0  0  0
   55.4690   29.2520   44.8940 N   0  0  0  0  0  0  0  0  0  0  0  0
   56.2720   28.2220   45.2540 C   0  0  0  0  0  0  0  0  0  0  0  0
   55.7560   27.1430   45.6480 O   0  0  0  0  0  0  0  0  0  0  0  0
   57.6640   28.3750   45.1840 C   0  0  0  0  0  0  0  0  0  0  0  0
   58.1970   29.5910   44.7220 C   0  0  0  0  0  0  0  0  0  0  0  0
   59.7010   29.6810   44.6030 C   0  0  0  0  0  0  0  0  0  0  0  0
   60.3750   29.1300   45.8690 C   0  0  0  0  0  0  0  0  0  0  0  0
   59.8120   27.7660   46.3420 C   0  0  0  0  0  0  0  0  0  0  0  0
   58.6140   27.2510   45.5250 C   0  0  0  0  0  0  0  0  0  0  0  0
   58.1830   32.3270   46.3490 C   0  0  0  0  0  0  0  0  0  0  0  0
   57.3117   33.4155   53.8527 H   0  0  0  0  0  0  0  0  0  0  0  0
   58.4840   32.1086   54.2686 H   0  0  0  0  0  0  0  0  0  0  0  0
   58.8007   34.2610   52.1154 H   0  0  0  0  0  0  0  0  0  0  0  0
   59.7400   34.0975   53.6386 H   0  0  0  0  0  0  0  0  0  0  0  0
   60.9900   33.2060   51.8630 H   0  0  0  0  0  0  0  0  0  0  0  0
   60.2265   31.1662   50.6871 H   0  0  0  0  0  0  0  0  0  0  0  0
   57.6570   32.0610   49.0280 H   0  0  0  0  0  0  0  0  0  0  0  0
   59.4230   35.0403   48.0245 H   0  0  0  0  0  0  0  0  0  0  0  0
   59.5993   35.8960   45.6912 H   0  0  0  0  0  0  0  0  0  0  0  0
   58.8478   34.4859   43.7776 H   0  0  0  0  0  0  0  0  0  0  0  0
   56.9147   32.5007   43.3958 H   0  0  0  0  0  0  0  0  0  0  0  0
   58.5843   31.8534   43.1586 H   0  0  0  0  0  0  0  0  0  0  0  0
   60.0310   29.0946   43.7328 H   0  0  0  0  0  0  0  0  0  0  0  0
   59.9855   30.7363   44.4792 H   0  0  0  0  0  0  0  0  0  0  0  0
   61.4488   29.0082   45.6637 H   0  0  0  0  0  0  0  0  0  0  0  0
   60.1761   29.8522   46.6746 H   0  0  0  0  0  0  0  0  0  0  0  0
   60.6182   27.0205   46.2765 H   0  0  0  0  0  0  0  0  0  0  0  0
   59.4478   27.9175   47.3688 H   0  0  0  0  0  0  0  0  0  0  0  0
   58.9831   26.7975   44.5932 H   0  0  0  0  0  0  0  0  0  0  0  0
   58.0730   26.5078   46.1292 H   0  0  0  0  0  0  0  0  0  0  0  0
   57.7883   31.3171   46.5342 H   0  0  0  0  0  0  0  0  0  0  0  0
  1  2  2  0
  2  3  1  0
  3  4  1  0
  4  5  1  0
  5  6  1  0
  6  7  1  0
  7  8  1  0
  8  9  2  0
  8 10  1  0
 10 11  1  0
 11 12  2  0
 12 13  1  0
 13 14  2  0
 14 15  1  0
 15 16  1  0
 16 17  1  0
 17 18  2  0
 18 19  1  0
 19 20  1  0
 20 21  2  0
 20 22  1  0
 22 23  2  0
 23 24  1  0
 24 25  1  0
 25 26  1  0
 26 27  1  0
 15 28  2  0
  7  2  1  0
 28 11  1  0
 23 17  1  0
 27 22  1  0
  4 29  1  0
  4 30  1  0
  5 31  1  0
  5 32  1  0
  6 33  1  0
  7 34  1  6
 10 35  1  0
 12 36  1  0
 13 37  1  0
 14 38  1  0
 16 39  1  0
 16 40  1  0
 24 41  1  0
 24 42  1  0
 25 43  1  0
 25 44  1  0
 26 45  1  0
 26 46  1  0
 27 47  1  0
 27 48  1  0
 28 49  1  0
M  CHG  2   3  -1  19  -1
M  END
>  <UniqueID>  (35) 
31

>  <SMILES>  (35) 
O=C1[N-]CCN[C@@H]1C(=O)Nc1cccc(Cc2n[n-]c(=O)c3c2CCCC3)c1

>  <Energy>  (35) 
63.54294199062913

>  <Genealogy>  (35) 
O=C1[N-]CCNC1C(=O)Nc1cccc(Cc2n[n-]c(=O)c3c2CCCC3)c1 (protonated)
O=C1[N-]CCN[C@@H]1C(=O)Nc1cccc(Cc2n[n-]c(=O)c3c2CCCC3)c1 (chirality)
O=C1[N-]CCN[C@@H]1C(=O)Nc1cccc(Cc2n[n-]c(=O)c3c2CCCC3)c1 (3D coordinates assigned)
O=C1[N-]CCN[C@@H]1C(=O)Nc1cccc(Cc2n[n-]c(=O)c3c2CCCC3)c1 (nonaromatic ring conformer: 63.54294199062913 kcal/mol)

>  <smiles>  (35) 
O=C1NCCNC1C(=O)Nc1cccc(Cc2n[nH]c(=O)c3c2CCCC3)c1

>  <score_type>  (35) 
oracle

>  <origin>  (35) 
adg

>  <m_score__min__energy>  (35) 
-12.640000000000001

>  <m_primary>  (35) 
energy

$$$$
35:0
     RDKit          3D

 22 23  0  0  0  0  0  0  0  0999 V2000
   53.3290   27.7500   53.2190 C   0  0  0  0  0  0  0  0  0  0  0  0
   54.1190   28.8190   53.0120 C   0  0  0  0  0  0  0  0  0  0  0  0
   55.4950   28.6650   53.2810 C   0  0  0  0  0  0  0  0  0  0  0  0
   56.4170   29.6230   52.8640 C   0  0  0  0  0  0  0  0  0  0  0  0
   55.9900   30.7440   52.1600 C   0  0  0  0  0  0  0  0  0  0  0  0
   57.1630   31.9210   51.5950 Cl  0  0  0  0  0  0  0  0  0  0  0  0
   54.6290   30.9480   51.9300 C   0  0  0  0  0  0  0  0  0  0  0  0
   53.6600   30.0420   52.4160 C   0  0  0  0  0  0  0  0  0  0  0  0
   52.3600   30.4170   52.2940 C   0  0  0  0  0  0  0  0  0  0  0  0
   51.6790   30.8230   51.0510 C   0  0  0  0  0  0  0  0  0  0  0  0
   51.6510   30.0650   49.9410 N   0  0  0  0  0  0  0  0  0  0  0  0
   51.0300   30.8550   49.0380 C   0  0  0  0  0  0  0  0  0  0  0  0
   50.7990   30.4830   47.8580 O   0  0  0  0  0  0  0  0  0  0  0  0
   50.6860   32.0780   49.4950 N   0  0  0  0  0  0  0  0  0  0  0  0
   51.1150   32.0490   50.7660 C   0  0  0  0  0  0  0  0  0  0  0  0
   51.0230   33.1280   51.6360 O   0  0  0  0  0  0  0  0  0  0  0  0
   52.2486   27.8186   53.0241 H   0  0  0  0  0  0  0  0  0  0  0  0
   53.7635   26.8073   53.5831 H   0  0  0  0  0  0  0  0  0  0  0  0
   55.8450   27.7767   53.8273 H   0  0  0  0  0  0  0  0  0  0  0  0
   57.4851   29.4924   53.0921 H   0  0  0  0  0  0  0  0  0  0  0  0
   54.3044   31.8308   51.3596 H   0  0  0  0  0  0  0  0  0  0  0  0
   51.7559   30.4178   53.2133 H   0  0  0  0  0  0  0  0  0  0  0  0
  1  2  2  0
  2  3  1  0
  3  4  2  0
  4  5  1  0
  5  6  1  0
  5  7  2  0
  7  8  1  0
  8  9  2  3
  9 10  1  0
 10 11  1  0
 11 12  1  0
 12 13  2  0
 12 14  1  0
 14 15  1  0
 15 16  1  0
  8  2  1  0
 15 10  2  0
  1 17  1  0
  1 18  1  0
  3 19  1  0
  4 20  1  0
  7 21  1  0
  9 22  1  0
M  CHG  3  11  -1  14  -1  16  -1
M  END
>  <UniqueID>  (36) 
32

>  <SMILES>  (36) 
C=c1ccc(Cl)cc1=Cc1[n-]c(=O)[n-]c1[O-]

>  <Energy>  (36) 
73.2728992060824

>  <Genealogy>  (36) 
C=c1ccc(Cl)cc1=Cc1[n-]c(=O)[n-]c1[O-] (protonated)
C=c1ccc(Cl)cc1=Cc1[n-]c(=O)[n-]c1[O-] (3D coordinates assigned)
C=c1ccc(Cl)cc1=Cc1[n-]c(=O)[n-]c1[O-] (optimized conformer: 73.2728992060824 kcal/mol)

>  <smiles>  (36) 
C=c1ccc(Cl)cc1=Cc1[nH]c(=O)[nH]c1O

>  <score_type>  (36) 
oracle

>  <origin>  (36) 
adg

>  <m_score__min__energy>  (36) 
-15.4

>  <m_primary>  (36) 
energy

$$$$
36:0
     RDKit          3D

 52 55  0  0  0  0  0  0  0  0999 V2000
   58.6930   30.6370   47.9760 H   0  0  0  0  0  0  0  0  0  0  0  0
   58.9790   30.2310   48.8950 N   0  0  0  0  0  0  0  0  0  0  0  0
   60.3370   29.8840   49.1580 C   0  0  0  0  0  0  0  0  0  0  0  0
   60.5930   28.7670   49.6790 O   0  0  0  0  0  0  0  0  0  0  0  0
   61.4410   30.7990   48.7850 C   0  0  0  0  0  0  0  0  0  0  0  0
   62.5710   30.8770   49.6210 C   0  0  0  0  0  0  0  0  0  0  0  0
   62.6073   30.2786   50.5433 H   0  0  0  0  0  0  0  0  0  0  0  0
   63.6460   31.7050   49.2930 C   0  0  0  0  0  0  0  0  0  0  0  0
   64.5224   31.7559   49.9558 H   0  0  0  0  0  0  0  0  0  0  0  0
   63.6100   32.4670   48.1270 C   0  0  0  0  0  0  0  0  0  0  0  0
   64.4648   33.1071   47.8631 H   0  0  0  0  0  0  0  0  0  0  0  0
   62.4930   32.4200   47.2940 C   0  0  0  0  0  0  0  0  0  0  0  0
   62.4684   33.0316   46.3800 H   0  0  0  0  0  0  0  0  0  0  0  0
   61.3940   31.5950   47.6130 C   0  0  0  0  0  0  0  0  0  0  0  0
   60.2180   31.6020   46.7910 N   0  0  0  0  0  0  0  0  0  0  0  0
   59.8660   30.5880   46.1090 N   0  0  0  0  0  0  0  0  0  0  0  0
   58.5060   30.3240   45.7510 C   0  0  0  0  0  0  0  0  0  0  0  0
   57.6610   31.2520   45.1800 C   0  0  0  0  0  0  0  0  0  0  0  0
   58.0730   32.9250   44.8350 S   0  0  0  0  0  0  0  0  0  0  0  0
   59.5640   33.0460   44.6880 O   0  0  0  0  0  0  0  0  0  0  0  0
   57.4130   33.3230   43.5450 O   0  0  0  0  0  0  0  0  0  0  0  0
   57.5110   33.9540   46.1360 N   0  0  0  0  0  0  0  0  0  0  0  0
   57.2520   33.1640   47.3450 C   0  0  0  0  0  0  0  0  0  0  0  0
   56.3987   33.5904   47.8928 H   0  0  0  0  0  0  0  0  0  0  0  0
   57.0129   32.1246   47.0759 H   0  0  0  0  0  0  0  0  0  0  0  0
   58.4990   33.2080   48.2180 C   0  0  0  0  0  0  0  0  0  0  0  0
   58.2290   33.4271   49.2616 H   0  0  0  0  0  0  0  0  0  0  0  0
   59.0292   32.2442   48.2171 H   0  0  0  0  0  0  0  0  0  0  0  0
   59.3590   34.3200   47.6500 C   0  0  0  0  0  0  0  0  0  0  0  0
   59.5634   35.0793   48.4192 H   0  0  0  0  0  0  0  0  0  0  0  0
   60.3335   33.9462   47.3027 H   0  0  0  0  0  0  0  0  0  0  0  0
   58.5460   34.9200   46.5130 C   0  0  0  0  0  0  0  0  0  0  0  0
   58.0775   35.8585   46.8442 H   0  0  0  0  0  0  0  0  0  0  0  0
   59.1960   35.1381   45.6528 H   0  0  0  0  0  0  0  0  0  0  0  0
   56.4710   30.7030   44.8710 N   0  0  0  0  0  0  0  0  0  0  0  0
   56.5660   29.4170   45.2630 C   0  0  0  0  0  0  0  0  0  0  0  0
   55.5360   28.5030   45.0830 O   0  0  0  0  0  0  0  0  0  0  0  0
   57.7970   29.1330   45.8400 C   0  0  0  0  0  0  0  0  0  0  0  0
   58.2850   27.7950   46.3430 C   0  0  0  0  0  0  0  0  0  0  0  0
   59.3717   27.7328   46.1843 H   0  0  0  0  0  0  0  0  0  0  0  0
   58.0291   27.7241   47.4105 H   0  0  0  0  0  0  0  0  0  0  0  0
   57.6260   26.6410   45.6350 C   0  0  0  0  0  0  0  0  0  0  0  0
   58.0010   26.2950   44.3260 C   0  0  0  0  0  0  0  0  0  0  0  0
   58.7894   26.8657   43.8134 H   0  0  0  0  0  0  0  0  0  0  0  0
   57.3770   25.2290   43.6720 C   0  0  0  0  0  0  0  0  0  0  0  0
   57.6723   24.9651   42.6458 H   0  0  0  0  0  0  0  0  0  0  0  0
   56.3780   24.4980   44.3210 C   0  0  0  0  0  0  0  0  0  0  0  0
   55.8898   23.6574   43.8062 H   0  0  0  0  0  0  0  0  0  0  0  0
   55.9990   24.8340   45.6230 C   0  0  0  0  0  0  0  0  0  0  0  0
   55.2131   24.2571   46.1325 H   0  0  0  0  0  0  0  0  0  0  0  0
   56.6170   25.9020   46.2790 C   0  0  0  0  0  0  0  0  0  0  0  0
   56.3133   26.1658   47.3028 H   0  0  0  0  0  0  0  0  0  0  0  0
  1  2  1  0
  2  3  1  0
  3  4  2  0
  3  5  1  0
  5  6  2  0
  6  7  1  0
  6  8  1  0
  8  9  1  0
  8 10  2  0
 10 11  1  0
 10 12  1  0
 12 13  1  0
 12 14  2  0
 14 15  1  0
 15 16  2  0
 16 17  1  0
 17 18  2  0
 18 19  1  0
 19 20  2  0
 19 21  2  0
 19 22  1  0
 22 23  1  0
 23 24  1  0
 23 25  1  0
 23 26  1  0
 26 27  1  0
 26 28  1  0
 26 29  1  0
 29 30  1  0
 29 31  1  0
 29 32  1  0
 32 33  1  0
 32 34  1  0
 18 35  1  0
 35 36  1  0
 36 37  1  0
 36 38  2  0
 38 39  1  0
 39 40  1  0
 39 41  1  0
 39 42  1  0
 42 43  2  0
 43 44  1  0
 43 45  1  0
 45 46  1  0
 45 47  2  0
 47 48  1  0
 47 49  1  0
 49 50  1  0
 49 51  2  0
 51 52  1  0
 14  5  1  0
 38 17  1  0
 51 42  1  0
 32 22  1  0
M  CHG  3   2  -1  35  -1  37  -1
M  END
>  <UniqueID>  (37) 
33

>  <SMILES>  (37) 
[NH-]C(=O)c1ccccc1/N=N/c1c(S(=O)(=O)N2CCCC2)[n-]c([O-])c1Cc1ccccc1

>  <Energy>  (37) 
86.64025643427995

>  <Genealogy>  (37) 
[NH-]C(=O)c1ccccc1N=Nc1c(S(=O)(=O)N2CCCC2)[n-]c([O-])c1Cc1ccccc1 (protonated)
[NH-]C(=O)c1ccccc1/N=N/c1c(S(=O)(=O)N2CCCC2)[n-]c([O-])c1Cc1ccccc1 (cis-trans isomerization)
[NH-]C(=O)c1ccccc1/N=N/c1c(S(=O)(=O)N2CCCC2)[n-]c([O-])c1Cc1ccccc1 (3D coordinates assigned)
[NH-]C(=O)c1ccccc1/N=N/c1c(S(=O)(=O)N2CCCC2)[n-]c([O-])c1Cc1ccccc1 (nonaromatic ring conformer: 86.64025643427995 kcal/mol)

>  <smiles>  (37) 
NC(=O)c1ccccc1N=Nc1c(S(=O)(=O)N2CCCC2)[nH]c(O)c1Cc1ccccc1

>  <score_type>  (37) 
oracle

>  <origin>  (37) 
adg

>  <m_score__min__energy>  (37) 
-15.220000000000001

>  <m_primary>  (37) 
energy

$$$$
37:0
     RDKit          3D

 45 47  0  0  0  0  0  0  0  0999 V2000
   56.6310   30.8860   54.2760 N   0  0  0  0  0  0  0  0  0  0  0  0
   56.3770   30.7370   52.5730 S   0  0  0  0  0  0  0  0  0  0  0  0
   56.5170   29.2970   52.1710 O   0  0  0  0  0  0  0  0  0  0  0  0
   54.9900   31.2160   52.2460 O   0  0  0  0  0  0  0  0  0  0  0  0
   57.5590   31.7070   51.7020 C   0  0  0  0  0  0  0  0  0  0  0  0
   58.0680   31.2590   50.4770 C   0  0  0  0  0  0  0  0  0  0  0  0
   58.9840   32.0410   49.7690 C   0  0  0  0  0  0  0  0  0  0  0  0
   59.3980   33.2830   50.2780 C   0  0  0  0  0  0  0  0  0  0  0  0
   60.3120   34.1720   49.4790 C   0  0  0  0  0  0  0  0  0  0  0  0
   59.5620   34.9270   48.4710 N   0  0  0  0  0  0  0  0  0  0  0  0
   60.0900   34.5410   46.8560 S   0  0  0  0  0  0  0  0  0  0  0  0
   61.5160   34.0670   46.8830 O   0  0  0  0  0  0  0  0  0  0  0  0
   60.0110   35.7780   46.0080 O   0  0  0  0  0  0  0  0  0  0  0  0
   59.0460   33.3080   46.1480 C   0  0  0  0  0  0  0  0  0  0  0  0
   59.5240   32.0010   45.9910 C   0  0  0  0  0  0  0  0  0  0  0  0
   58.7140   31.0170   45.4170 C   0  0  0  0  0  0  0  0  0  0  0  0
   57.4080   31.3240   44.9940 C   0  0  0  0  0  0  0  0  0  0  0  0
   56.5350   30.2740   44.4170 C   0  0  0  0  0  0  0  0  0  0  0  0
   56.2690   30.2920   43.1850 O   0  0  0  0  0  0  0  0  0  0  0  0
   56.1200   29.1650   45.2310 N   0  0  0  0  0  0  0  0  0  0  0  0
   56.7680   28.0970   45.6110 C   0  0  0  0  0  0  0  0  0  0  0  0
   58.1230   28.1910   45.7070 N   0  0  0  0  0  0  0  0  0  0  0  0
   58.9090   27.1490   46.0830 C   0  0  0  0  0  0  0  0  0  0  0  0
   58.3340   25.9200   46.3960 C   0  0  0  0  0  0  0  0  0  0  0  0
   56.9480   25.7850   46.3370 C   0  0  0  0  0  0  0  0  0  0  0  0
   56.1480   26.8690   45.9640 C   0  0  0  0  0  0  0  0  0  0  0  0
   54.7700   26.7080   46.0060 O   0  0  0  0  0  0  0  0  0  0  0  0
   56.9380   32.6420   45.1470 C   0  0  0  0  0  0  0  0  0  0  0  0
   57.7490   33.6220   45.7260 C   0  0  0  0  0  0  0  0  0  0  0  0
   58.9110   33.7130   51.5230 C   0  0  0  0  0  0  0  0  0  0  0  0
   57.9970   32.9290   52.2300 C   0  0  0  0  0  0  0  0  0  0  0  0
   57.5790   30.4950   54.4780 H   0  0  0  0  0  0  0  0  0  0  0  0
   57.7458   30.2888   50.0710 H   0  0  0  0  0  0  0  0  0  0  0  0
   59.3828   31.6825   48.8086 H   0  0  0  0  0  0  0  0  0  0  0  0
   60.8118   34.8778   50.1588 H   0  0  0  0  0  0  0  0  0  0  0  0
   61.0526   33.5416   48.9651 H   0  0  0  0  0  0  0  0  0  0  0  0
   60.5422   31.7475   46.3211 H   0  0  0  0  0  0  0  0  0  0  0  0
   59.1009   29.9945   45.2951 H   0  0  0  0  0  0  0  0  0  0  0  0
   60.0001   27.2760   46.1403 H   0  0  0  0  0  0  0  0  0  0  0  0
   58.9652   25.0671   46.6860 H   0  0  0  0  0  0  0  0  0  0  0  0
   56.4812   24.8204   46.5853 H   0  0  0  0  0  0  0  0  0  0  0  0
   55.9245   32.9027   44.8082 H   0  0  0  0  0  0  0  0  0  0  0  0
   57.3659   34.6456   45.8507 H   0  0  0  0  0  0  0  0  0  0  0  0
   59.2509   34.6712   51.9429 H   0  0  0  0  0  0  0  0  0  0  0  0
   57.6195   33.2718   53.2047 H   0  0  0  0  0  0  0  0  0  0  0  0
  1  2  1  0
  2  3  2  0
  2  4  2  0
  2  5  1  0
  5  6  2  0
  6  7  1  0
  7  8  2  0
  8  9  1  0
  9 10  1  0
 10 11  1  0
 11 12  2  0
 11 13  2  0
 11 14  1  0
 14 15  2  0
 15 16  1  0
 16 17  2  0
 17 18  1  0
 18 19  2  0
 18 20  1  0
 20 21  2  3
 21 22  1  0
 22 23  1  0
 23 24  2  0
 24 25  1  0
 25 26  2  0
 26 27  1  0
 17 28  1  0
 28 29  2  0
  8 30  1  0
 30 31  2  0
 31  5  1  0
 29 14  1  0
 26 21  1  0
  1 32  1  0
  6 33  1  0
  7 34  1  0
  9 35  1  0
  9 36  1  0
 15 37  1  0
 16 38  1  0
 23 39  1  0
 24 40  1  0
 25 41  1  0
 28 42  1  0
 29 43  1  0
 30 44  1  0
 31 45  1  0
M  CHG  4   1  -1  10  -1  22  -1  27  -1
M  END
>  <UniqueID>  (38) 
34

>  <SMILES>  (38) 
[NH-]S(=O)(=O)c1ccc(C[N-]S(=O)(=O)c2ccc(C(=O)N=c3[n-]cccc3[O-])cc2)cc1

>  <Energy>  (38) 
54.256942581157844

>  <Genealogy>  (38) 
[NH-]S(=O)(=O)c1ccc(C[N-]S(=O)(=O)c2ccc(C(=O)N=c3[n-]cccc3[O-])cc2)cc1 (protonated)
[NH-]S(=O)(=O)c1ccc(C[N-]S(=O)(=O)c2ccc(C(=O)N=c3[n-]cccc3[O-])cc2)cc1 (3D coordinates assigned)
[NH-]S(=O)(=O)c1ccc(C[N-]S(=O)(=O)c2ccc(C(=O)N=c3[n-]cccc3[O-])cc2)cc1 (optimized conformer: 54.256942581157844 kcal/mol)

>  <smiles>  (38) 
NS(=O)(=O)c1ccc(CNS(=O)(=O)c2ccc(C(=O)N=c3[nH]cccc3O)cc2)cc1

>  <score_type>  (38) 
oracle

>  <origin>  (38) 
adg

>  <m_score__min__energy>  (38) 
-17.32

>  <m_primary>  (38) 
energy

$$$$
38:0
     RDKit          3D

 47 49  0  0  0  0  0  0  0  0999 V2000
   61.7620   29.6550   50.8610 H   0  0  0  0  0  0  0  0  0  0  0  0
   61.2270   28.8140   50.6820 O   0  0  0  0  0  0  0  0  0  0  0  0
   60.7310   28.5210   49.4110 C   0  0  0  0  0  0  0  0  0  0  0  0
   60.5140   27.1900   49.0300 C   0  0  0  0  0  0  0  0  0  0  0  0
   60.6885   26.3780   49.7512 H   0  0  0  0  0  0  0  0  0  0  0  0
   60.0770   26.8910   47.7380 C   0  0  0  0  0  0  0  0  0  0  0  0
   59.9480   25.8427   47.4306 H   0  0  0  0  0  0  0  0  0  0  0  0
   59.8030   27.9230   46.8340 C   0  0  0  0  0  0  0  0  0  0  0  0
   59.3870   27.5270   45.1350 S   0  0  0  0  0  0  0  0  0  0  0  0
   57.8200   26.8010   45.6160 C   0  0  0  0  0  0  0  0  0  0  0  0
   57.5310   25.1600   45.8390 S   0  0  0  0  0  0  0  0  0  0  0  0
   55.8710   25.3970   46.0560 C   0  0  0  0  0  0  0  0  0  0  0  0
   54.9780   24.4800   46.2890 N   0  0  0  0  0  0  0  0  0  0  0  0
   54.6990   23.2900   45.5320 C   0  0  0  0  0  0  0  0  0  0  0  0
   53.4990   23.0160   45.2690 O   0  0  0  0  0  0  0  0  0  0  0  0
   55.7780   22.4170   44.9540 C   0  0  0  0  0  0  0  0  0  0  0  0
   56.6583   22.4483   45.6129 H   0  0  0  0  0  0  0  0  0  0  0  0
   55.3941   21.3892   44.8748 H   0  0  0  0  0  0  0  0  0  0  0  0
   56.2460   22.9780   43.3270 Cl  0  0  0  0  0  0  0  0  0  0  0  0
   55.5390   26.7040   45.9830 N   0  0  0  0  0  0  0  0  0  0  0  0
   56.6190   27.4880   45.7280 C   0  0  0  0  0  0  0  0  0  0  0  0
   56.5474   28.5802   45.6190 H   0  0  0  0  0  0  0  0  0  0  0  0
   59.9560   29.2550   47.2300 C   0  0  0  0  0  0  0  0  0  0  0  0
   59.6711   30.0670   46.5449 H   0  0  0  0  0  0  0  0  0  0  0  0
   60.4720   29.5590   48.4990 C   0  0  0  0  0  0  0  0  0  0  0  0
   60.8550   30.9440   48.8260 C   0  0  0  0  0  0  0  0  0  0  0  0
   61.9440   31.1420   49.4290 O   0  0  0  0  0  0  0  0  0  0  0  0
   60.0400   32.0620   48.4020 N   0  0  0  0  0  0  0  0  0  0  0  0
   58.6500   31.8460   47.9640 C   0  0  0  0  0  0  0  0  0  0  0  0
   58.0641   31.4735   48.8172 H   0  0  0  0  0  0  0  0  0  0  0  0
   58.6664   31.1181   47.1394 H   0  0  0  0  0  0  0  0  0  0  0  0
   57.9980   33.1310   47.4420 C   0  0  0  0  0  0  0  0  0  0  0  0
   57.7360   33.7769   48.2930 H   0  0  0  0  0  0  0  0  0  0  0  0
   57.0920   32.8690   46.8759 H   0  0  0  0  0  0  0  0  0  0  0  0
   58.9270   33.8490   46.5550 N   0  0  0  0  0  0  0  0  0  0  0  0
   58.4810   34.4650   45.3260 C   0  0  0  0  0  0  0  0  0  0  0  0
   59.3290   34.9450   44.5240 O   0  0  0  0  0  0  0  0  0  0  0  0
   57.0290   34.5440   44.9570 C   0  0  0  0  0  0  0  0  0  0  0  0
   56.4194   34.5772   45.8720 H   0  0  0  0  0  0  0  0  0  0  0  0
   56.8503   35.4532   44.3642 H   0  0  0  0  0  0  0  0  0  0  0  0
   56.7527   33.6596   44.3642 H   0  0  0  0  0  0  0  0  0  0  0  0
   60.3290   34.0300   46.9660 C   0  0  0  0  0  0  0  0  0  0  0  0
   60.5518   35.1065   47.0055 H   0  0  0  0  0  0  0  0  0  0  0  0
   60.9683   33.5193   46.2308 H   0  0  0  0  0  0  0  0  0  0  0  0
   60.6050   33.4160   48.3430 C   0  0  0  0  0  0  0  0  0  0  0  0
   60.1417   34.0400   49.1214 H   0  0  0  0  0  0  0  0  0  0  0  0
   61.6913   33.3656   48.5089 H   0  0  0  0  0  0  0  0  0  0  0  0
  1  2  1  0
  2  3  1  0
  3  4  2  0
  4  5  1  0
  4  6  1  0
  6  7  1  0
  6  8  2  0
  8  9  1  0
  9 10  1  0
 10 11  1  0
 11 12  1  0
 12 13  2  0
 13 14  1  0
 14 15  2  0
 14 16  1  0
 16 17  1  0
 16 18  1  0
 16 19  1  0
 12 20  1  0
 20 21  1  0
 21 22  1  0
  8 23  1  0
 23 24  1  0
 23 25  2  0
 25 26  1  0
 26 27  2  0
 26 28  1  0
 28 29  1  0
 29 30  1  0
 29 31  1  0
 29 32  1  0
 32 33  1  0
 32 34  1  0
 32 35  1  0
 35 36  1  0
 36 37  2  0
 36 38  1  0
 38 39  1  0
 38 40  1  0
 38 41  1  0
 35 42  1  0
 42 43  1  0
 42 44  1  0
 42 45  1  0
 45 46  1  0
 45 47  1  0
 25  3  1  0
 45 28  1  0
 21 10  2  0
M  CHG  1  20  -1
M  END
>  <UniqueID>  (39) 
35

>  <SMILES>  (39) 
CC(=O)N1CCN(C(=O)c2cc(Sc3c[n-]/c(=N/C(=O)CCl)s3)ccc2O)CC1

>  <Energy>  (39) 
85.2017309270493

>  <Genealogy>  (39) 
CC(=O)N1CCN(C(=O)c2cc(Sc3c[n-]c(=NC(=O)CCl)s3)ccc2O)CC1 (protonated)
CC(=O)N1CCN(C(=O)c2cc(Sc3c[n-]/c(=N/C(=O)CCl)s3)ccc2O)CC1 (cis-trans isomerization)
CC(=O)N1CCN(C(=O)c2cc(Sc3c[n-]/c(=N/C(=O)CCl)s3)ccc2O)CC1 (3D coordinates assigned)
CC(=O)N1CCN(C(=O)c2cc(Sc3c[n-]/c(=N/C(=O)CCl)s3)ccc2O)CC1 (nonaromatic ring conformer: 85.2017309270493 kcal/mol)

>  <smiles>  (39) 
CC(=O)N1CCN(C(=O)c2cc(Sc3c[nH]c(=NC(=O)CCl)s3)ccc2O)CC1

>  <score_type>  (39) 
oracle

>  <origin>  (39) 
adg

>  <m_score__min__energy>  (39) 
-9.8599999999999994

>  <m_primary>  (39) 
energy

$$$$
39:0
     RDKit          3D

 61 63  0  0  0  0  0  0  0  0999 V2000
   56.5360   22.7130   42.9910 C   0  0  0  0  0  0  0  0  0  0  0  0
   56.6540   24.1930   43.3540 C   0  0  0  0  0  0  0  0  0  0  0  0
   56.6770   24.4820   44.8750 C   0  0  0  0  0  0  0  0  0  0  0  0
   56.9040   25.8930   45.2870 N   0  0  2  0  0  0  0  0  0  0  0  0
   57.9990   26.5530   44.5350 C   0  0  0  0  0  0  0  0  0  0  0  0
   57.8280   28.0590   44.5030 C   0  0  0  0  0  0  0  0  0  0  0  0
   58.9010   28.8790   44.1180 C   0  0  0  0  0  0  0  0  0  0  0  0
   58.7640   30.2700   44.1120 C   0  0  0  0  0  0  0  0  0  0  0  0
   57.5630   30.8680   44.5280 C   0  0  0  0  0  0  0  0  0  0  0  0
   57.3810   32.3360   44.5060 C   0  0  0  0  0  0  0  0  0  0  0  0
   58.3270   33.2300   44.1800 C   0  0  0  0  0  0  0  0  0  0  0  0
   58.8960   34.2360   45.1100 C   0  0  0  0  0  0  0  0  0  0  0  0
   59.2290   35.3700   44.6670 O   0  0  0  0  0  0  0  0  0  0  0  0
   59.0890   33.9410   46.5090 N   0  0  0  0  0  0  0  0  0  0  0  0
   60.2850   34.4360   47.1530 C   0  0  0  0  0  0  0  0  0  0  0  0
   60.5190   34.2160   48.4500 C   0  0  0  0  0  0  0  0  0  0  0  0
   59.5890   33.4020   49.2380 C   0  0  0  0  0  0  0  0  0  0  0  0
   59.7190   33.3280   50.4900 O   0  0  0  0  0  0  0  0  0  0  0  0
   58.5130   32.6220   48.5430 C   0  0  0  0  0  0  0  0  0  0  0  0
   57.9900   33.3920   47.3230 C   0  0  0  0  0  0  0  0  0  0  0  0
   56.4800   30.0510   44.8810 C   0  0  0  0  0  0  0  0  0  0  0  0
   56.6090   28.6560   44.8780 C   0  0  0  0  0  0  0  0  0  0  0  0
   55.5200   27.8720   45.2500 O   0  0  0  0  0  0  0  0  0  0  0  0
   57.0390   26.0310   46.7190 C   0  0  0  0  0  0  0  0  0  0  0  0
   56.4370   25.2410   47.5010 O   0  0  0  0  0  0  0  0  0  0  0  0
   57.7990   27.0870   47.2360 O   0  0  0  0  0  0  0  0  0  0  0  0
   59.0860   26.9090   47.8260 C   0  0  0  0  0  0  0  0  0  0  0  0
   59.7830   28.2350   47.9740 C   0  0  0  0  0  0  0  0  0  0  0  0
   59.9600   28.7940   49.2490 C   0  0  0  0  0  0  0  0  0  0  0  0
   60.6240   30.0160   49.3960 C   0  0  0  0  0  0  0  0  0  0  0  0
   61.1190   30.6840   48.2740 C   0  0  0  0  0  0  0  0  0  0  0  0
   60.9520   30.1310   47.0010 C   0  0  0  0  0  0  0  0  0  0  0  0
   60.2870   28.9100   46.8490 C   0  0  0  0  0  0  0  0  0  0  0  0
   56.4881   22.1124   43.9113 H   0  0  0  0  0  0  0  0  0  0  0  0
   55.6222   22.5521   42.4002 H   0  0  0  0  0  0  0  0  0  0  0  0
   57.4128   22.4093   42.4002 H   0  0  0  0  0  0  0  0  0  0  0  0
   57.5859   24.5806   42.9167 H   0  0  0  0  0  0  0  0  0  0  0  0
   55.7543   24.6851   42.9560 H   0  0  0  0  0  0  0  0  0  0  0  0
   55.7075   24.1667   45.2882 H   0  0  0  0  0  0  0  0  0  0  0  0
   57.5452   23.9269   45.2600 H   0  0  0  0  0  0  0  0  0  0  0  0
   56.0240   26.3980   45.0260 H   0  0  0  0  0  0  0  0  0  0  0  0
   58.9580   26.3132   45.0175 H   0  0  0  0  0  0  0  0  0  0  0  0
   57.9757   26.1829   43.4994 H   0  0  0  0  0  0  0  0  0  0  0  0
   59.8564   28.4233   43.8189 H   0  0  0  0  0  0  0  0  0  0  0  0
   59.6019   30.9003   43.7794 H   0  0  0  0  0  0  0  0  0  0  0  0
   56.3895   32.7264   44.7791 H   0  0  0  0  0  0  0  0  0  0  0  0
   58.7083   33.2159   43.1483 H   0  0  0  0  0  0  0  0  0  0  0  0
   61.0178   35.0058   46.5628 H   0  0  0  0  0  0  0  0  0  0  0  0
   61.4115   34.6467   48.9274 H   0  0  0  0  0  0  0  0  0  0  0  0
   58.9228   31.6562   48.2125 H   0  0  0  0  0  0  0  0  0  0  0  0
   57.6812   32.4623   49.2448 H   0  0  0  0  0  0  0  0  0  0  0  0
   57.3927   32.7095   46.7006 H   0  0  0  0  0  0  0  0  0  0  0  0
   57.3804   34.2328   47.6854 H   0  0  0  0  0  0  0  0  0  0  0  0
   55.5205   30.5092   45.1628 H   0  0  0  0  0  0  0  0  0  0  0  0
   58.9694   26.4480   48.8179 H   0  0  0  0  0  0  0  0  0  0  0  0
   59.6899   26.2589   47.1759 H   0  0  0  0  0  0  0  0  0  0  0  0
   59.5751   28.2692   50.1358 H   0  0  0  0  0  0  0  0  0  0  0  0
   60.7566   30.4518   50.3973 H   0  0  0  0  0  0  0  0  0  0  0  0
   61.6404   31.6454   48.3919 H   0  0  0  0  0  0  0  0  0  0  0  0
   61.3440   30.6567   46.1179 H   0  0  0  0  0  0  0  0  0  0  0  0
   60.1581   28.4768   45.8461 H   0  0  0  0  0  0  0  0  0  0  0  0
  1  2  1  0
  2  3  1  0
  3  4  1  0
  4  5  1  0
  5  6  1  0
  6  7  2  0
  7  8  1  0
  8  9  2  0
  9 10  1  0
 10 11  2  3
 11 12  1  0
 12 13  2  0
 12 14  1  0
 14 15  1  0
 15 16  2  0
 16 17  1  0
 17 18  2  0
 17 19  1  0
 19 20  1  0
  9 21  1  0
 21 22  2  0
 22 23  1  0
  4 24  1  0
 24 25  2  0
 24 26  1  0
 26 27  1  0
 27 28  1  0
 28 29  2  0
 29 30  1  0
 30 31  2  0
 31 32  1  0
 32 33  2  0
 22  6  1  0
 33 28  1  0
 20 14  1  0
  1 34  1  0
  1 35  1  0
  1 36  1  0
  2 37  1  0
  2 38  1  0
  3 39  1  0
  3 40  1  0
  4 41  1  6
  5 42  1  0
  5 43  1  0
  7 44  1  0
  8 45  1  0
 10 46  1  0
 11 47  1  0
 15 48  1  0
 16 49  1  0
 19 50  1  0
 19 51  1  0
 20 52  1  0
 20 53  1  0
 21 54  1  0
 27 55  1  0
 27 56  1  0
 29 57  1  0
 30 58  1  0
 31 59  1  0
 32 60  1  0
 33 61  1  0
M  CHG  2   4   1  23  -1
M  END
>  <UniqueID>  (40) 
36

>  <SMILES>  (40) 
CCC[N@H+](Cc1ccc(C=CC(=O)N2C=CC(=O)CC2)cc1[O-])C(=O)OCc1ccccc1

>  <Energy>  (40) 
75.5895396032349

>  <Genealogy>  (40) 
CCC[NH+](Cc1ccc(C=CC(=O)N2C=CC(=O)CC2)cc1[O-])C(=O)OCc1ccccc1 (protonated)
CCC[N@H+](Cc1ccc(C=CC(=O)N2C=CC(=O)CC2)cc1[O-])C(=O)OCc1ccccc1 (chirality)
CCC[N@H+](Cc1ccc(C=CC(=O)N2C=CC(=O)CC2)cc1[O-])C(=O)OCc1ccccc1 (3D coordinates assigned)
CCC[N@H+](Cc1ccc(C=CC(=O)N2C=CC(=O)CC2)cc1[O-])C(=O)OCc1ccccc1 (nonaromatic ring conformer: 75.5895396032349 kcal/mol)

>  <smiles>  (40) 
CCCN(Cc1ccc(C=CC(=O)N2C=CC(=O)CC2)cc1O)C(=O)OCc1ccccc1

>  <score_type>  (40) 
oracle

>  <origin>  (40) 
adg

>  <m_score__min__energy>  (40) 
-11.449999999999999

>  <m_primary>  (40) 
energy

$$$$
40:0
     RDKit          3D

 65 68  0  0  0  0  0  0  0  0999 V2000
   54.6800   24.0590   45.1710 C   0  0  0  0  0  0  0  0  0  0  0  0
   55.2600   25.1810   45.9840 C   0  0  0  0  0  0  0  0  0  0  0  0
   54.7720   26.3370   45.8880 O   0  0  0  0  0  0  0  0  0  0  0  0
   56.3300   24.9520   46.9070 N   0  0  0  0  0  0  0  0  0  0  0  0
   57.7220   24.7960   46.5040 C   0  0  0  0  0  0  0  0  0  0  0  0
   57.8600   24.9180   44.9860 C   0  0  0  0  0  0  0  0  0  0  0  0
   57.8940   26.3500   44.5370 C   0  0  0  0  0  0  0  0  0  0  0  0
   58.4020   26.6390   43.4250 O   0  0  0  0  0  0  0  0  0  0  0  0
   57.3160   27.3810   45.3540 N   0  0  0  0  0  0  0  0  0  0  0  0
   57.2410   28.7390   44.9090 C   0  0  0  0  0  0  0  0  0  0  0  0
   55.9880   29.3110   44.6420 C   0  0  0  0  0  0  0  0  0  0  0  0
   55.8980   30.6020   44.1110 C   0  0  0  0  0  0  0  0  0  0  0  0
   57.0640   31.3240   43.8300 C   0  0  0  0  0  0  0  0  0  0  0  0
   58.3150   30.7740   44.1250 C   0  0  0  0  0  0  0  0  0  0  0  0
   58.4110   29.4960   44.6860 C   0  0  0  0  0  0  0  0  0  0  0  0
   60.0250   28.9000   45.2220 S   0  0  0  0  0  0  0  0  0  0  0  0
   59.7550   29.4960   46.8930 C   0  0  0  0  0  0  0  0  0  0  0  0
   59.5920   28.5900   47.9470 C   0  0  0  0  0  0  0  0  0  0  0  0
   59.2500   29.0560   49.2240 C   0  0  0  0  0  0  0  0  0  0  0  0
   59.0400   30.4240   49.4390 C   0  0  0  0  0  0  0  0  0  0  0  0
   59.1990   31.3360   48.3830 C   0  0  0  0  0  0  0  0  0  0  0  0
   58.8420   32.7190   48.5230 N   0  0  0  0  0  0  0  0  0  0  0  0
   59.7220   33.8070   48.2250 C   0  0  0  0  0  0  0  0  0  0  0  0
   59.2590   34.9800   48.2100 O   0  0  0  0  0  0  0  0  0  0  0  0
   61.1680   33.5760   47.9870 C   0  0  0  0  0  0  0  0  0  0  0  0
   61.7420   33.9930   46.7750 C   0  0  0  0  0  0  0  0  0  0  0  0
   63.0900   33.7720   46.5250 C   0  0  0  0  0  0  0  0  0  0  0  0
   63.8680   33.1110   47.4730 C   0  0  0  0  0  0  0  0  0  0  0  0
   63.3220   32.6870   48.6520 N   0  0  0  0  0  0  0  0  0  0  0  0
   64.1670   31.9120   49.5800 C   0  0  0  0  0  0  0  0  0  0  0  0
   65.0840   32.8340   50.3420 C   0  0  0  0  0  0  0  0  0  0  0  0
   64.5480   33.8160   51.1990 C   0  0  0  0  0  0  0  0  0  0  0  0
   65.3960   34.7000   51.8740 C   0  0  0  0  0  0  0  0  0  0  0  0
   66.7800   34.6280   51.6810 C   0  0  0  0  0  0  0  0  0  0  0  0
   67.6020   35.4840   52.3350 F   0  0  0  0  0  0  0  0  0  0  0  0
   67.3150   33.6720   50.8070 C   0  0  0  0  0  0  0  0  0  0  0  0
   66.4730   32.7820   50.1400 C   0  0  0  0  0  0  0  0  0  0  0  0
   61.9970   32.9210   48.9320 C   0  0  0  0  0  0  0  0  0  0  0  0
   61.5170   32.5370   50.0310 O   0  0  0  0  0  0  0  0  0  0  0  0
   59.6020   30.8670   47.1250 C   0  0  0  0  0  0  0  0  0  0  0  0
   54.2807   23.2865   45.8446 H   0  0  0  0  0  0  0  0  0  0  0  0
   53.8695   24.4469   44.5365 H   0  0  0  0  0  0  0  0  0  0  0  0
   55.4651   23.6220   44.5365 H   0  0  0  0  0  0  0  0  0  0  0  0
   58.3276   25.5776   46.9860 H   0  0  0  0  0  0  0  0  0  0  0  0
   58.0709   23.7995   46.8128 H   0  0  0  0  0  0  0  0  0  0  0  0
   58.7928   24.4258   44.6736 H   0  0  0  0  0  0  0  0  0  0  0  0
   56.9833   24.4387   44.5258 H   0  0  0  0  0  0  0  0  0  0  0  0
   56.7710   27.0980   46.1960 H   0  0  0  0  0  0  0  0  0  0  0  0
   55.0709   28.7408   44.8515 H   0  0  0  0  0  0  0  0  0  0  0  0
   54.9124   31.0493   43.9145 H   0  0  0  0  0  0  0  0  0  0  0  0
   56.9959   32.3241   43.3771 H   0  0  0  0  0  0  0  0  0  0  0  0
   59.2288   31.3492   43.9149 H   0  0  0  0  0  0  0  0  0  0  0  0
   59.7322   27.5129   47.7735 H   0  0  0  0  0  0  0  0  0  0  0  0
   59.1464   28.3465   50.0582 H   0  0  0  0  0  0  0  0  0  0  0  0
   58.7500   30.7847   50.4369 H   0  0  0  0  0  0  0  0  0  0  0  0
   61.1208   34.4971   46.0200 H   0  0  0  0  0  0  0  0  0  0  0  0
   63.5413   34.1172   45.5831 H   0  0  0  0  0  0  0  0  0  0  0  0
   64.9336   32.9283   47.2703 H   0  0  0  0  0  0  0  0  0  0  0  0
   63.5248   31.3701   50.2898 H   0  0  0  0  0  0  0  0  0  0  0  0
   64.7737   31.1989   49.0027 H   0  0  0  0  0  0  0  0  0  0  0  0
   63.4591   33.8875   51.3375 H   0  0  0  0  0  0  0  0  0  0  0  0
   64.9747   35.4523   52.5570 H   0  0  0  0  0  0  0  0  0  0  0  0
   68.4021   33.6233   50.6465 H   0  0  0  0  0  0  0  0  0  0  0  0
   66.8988   32.0361   49.4527 H   0  0  0  0  0  0  0  0  0  0  0  0
   59.7996   31.5829   46.3136 H   0  0  0  0  0  0  0  0  0  0  0  0
  1  2  1  0
  2  3  2  0
  2  4  1  0
  4  5  1  0
  5  6  1  0
  6  7  1  0
  7  8  2  0
  7  9  1  0
  9 10  1  0
 10 11  2  0
 11 12  1  0
 12 13  2  0
 13 14  1  0
 14 15  2  0
 15 16  1  0
 16 17  1  0
 17 18  2  0
 18 19  1  0
 19 20  2  0
 20 21  1  0
 21 22  1  0
 22 23  1  0
 23 24  2  0
 23 25  1  0
 25 26  2  0
 26 27  1  0
 27 28  2  0
 28 29  1  0
 29 30  1  0
 30 31  1  0
 31 32  2  0
 32 33  1  0
 33 34  2  0
 34 35  1  0
 34 36  1  0
 36 37  2  0
 29 38  1  0
 38 39  2  0
 21 40  2  0
 15 10  1  0
 40 17  1  0
 38 25  1  0
 37 31  1  0
  1 41  1  0
  1 42  1  0
  1 43  1  0
  5 44  1  0
  5 45  1  0
  6 46  1  0
  6 47  1  0
  9 48  1  0
 11 49  1  0
 12 50  1  0
 13 51  1  0
 14 52  1  0
 18 53  1  0
 19 54  1  0
 20 55  1  0
 26 56  1  0
 27 57  1  0
 28 58  1  0
 30 59  1  0
 30 60  1  0
 32 61  1  0
 33 62  1  0
 36 63  1  0
 37 64  1  0
 40 65  1  0
M  CHG  2   4  -1  22  -1
M  END
>  <UniqueID>  (41) 
37

>  <SMILES>  (41) 
CC(=O)[N-]CCC(=O)Nc1ccccc1Sc1cccc([N-]C(=O)c2cccn(Cc3ccc(F)cc3)c2=O)c1

>  <Energy>  (41) 
76.34373150535596

>  <Genealogy>  (41) 
CC(=O)[N-]CCC(=O)Nc1ccccc1Sc1cccc([N-]C(=O)c2cccn(Cc3ccc(F)cc3)c2=O)c1 (protonated)
CC(=O)[N-]CCC(=O)Nc1ccccc1Sc1cccc([N-]C(=O)c2cccn(Cc3ccc(F)cc3)c2=O)c1 (3D coordinates assigned)
CC(=O)[N-]CCC(=O)Nc1ccccc1Sc1cccc([N-]C(=O)c2cccn(Cc3ccc(F)cc3)c2=O)c1 (optimized conformer: 76.34373150535596 kcal/mol)

>  <smiles>  (41) 
CC(=O)NCCC(=O)Nc1ccccc1Sc1cccc(NC(=O)c2cccn(Cc3ccc(F)cc3)c2=O)c1

>  <score_type>  (41) 
oracle

>  <origin>  (41) 
adg

>  <m_score__min__energy>  (41) 
-12.630000000000001

>  <m_primary>  (41) 
energy

$$$$
41:0
     RDKit          3D

 40 42  0  0  0  0  0  0  0  0999 V2000
   59.3370   29.1840   51.9270 N   0  0  0  0  0  0  0  0  0  0  0  0
   58.6130   29.7300   50.8260 C   0  0  0  0  0  0  0  0  0  0  0  0
   57.4780   30.2330   51.0250 O   0  0  0  0  0  0  0  0  0  0  0  0
   59.1690   29.6430   49.4590 C   0  0  0  0  0  0  0  0  0  0  0  0
   58.8340   30.6480   48.5310 C   0  0  0  0  0  0  0  0  0  0  0  0
   59.3810   30.6470   47.2400 C   0  0  0  0  0  0  0  0  0  0  0  0
   59.0330   31.6990   46.2650 C   0  0  0  0  0  0  0  0  0  0  0  0
   59.4580   32.9650   46.5250 N   0  0  0  0  0  0  0  0  0  0  0  0
   59.2400   33.9800   45.6560 C   0  0  0  0  0  0  0  0  0  0  0  0
   59.6440   35.1390   45.9290 O   0  0  0  0  0  0  0  0  0  0  0  0
   58.5980   33.7450   44.4850 N   0  0  0  0  0  0  0  0  0  0  0  0
   58.1580   32.5020   44.1590 C   0  0  0  0  0  0  0  0  0  0  0  0
   57.5820   32.3290   43.0500 O   0  0  0  0  0  0  0  0  0  0  0  0
   58.3560   31.4240   45.0490 C   0  0  0  0  0  0  0  0  0  0  0  0
   57.8990   30.0240   44.6790 C   0  0  0  0  0  0  0  0  0  0  0  0
   56.4200   29.8790   44.8640 C   0  0  0  0  0  0  0  0  0  0  0  0
   55.6790   30.8960   44.8120 O   0  0  0  0  0  0  0  0  0  0  0  0
   55.8680   28.5820   45.1250 N   0  0  0  0  0  0  0  0  0  0  0  0
   56.5600   27.4510   45.6730 C   0  0  0  0  0  0  0  0  0  0  0  0
   57.9530   27.4540   45.8660 C   0  0  0  0  0  0  0  0  0  0  0  0
   58.5860   26.3680   46.4800 C   0  0  0  0  0  0  0  0  0  0  0  0
   57.8360   25.2750   46.9140 C   0  0  0  0  0  0  0  0  0  0  0  0
   56.4500   25.2670   46.7370 C   0  0  0  0  0  0  0  0  0  0  0  0
   55.8110   26.3540   46.1260 C   0  0  0  0  0  0  0  0  0  0  0  0
   54.4280   26.3410   45.9710 O   0  0  0  0  0  0  0  0  0  0  0  0
   60.3070   29.6590   46.8840 C   0  0  0  0  0  0  0  0  0  0  0  0
   60.6320   28.6430   47.7840 C   0  0  0  0  0  0  0  0  0  0  0  0
   60.0550   28.6080   49.0580 C   0  0  0  0  0  0  0  0  0  0  0  0
   60.3600   27.5210   49.8770 O   0  0  0  0  0  0  0  0  0  0  0  0
   60.1280   28.5160   51.7740 H   0  0  0  0  0  0  0  0  0  0  0  0
   58.1338   31.4445   48.8230 H   0  0  0  0  0  0  0  0  0  0  0  0
   58.1512   29.8292   43.6262 H   0  0  0  0  0  0  0  0  0  0  0  0
   58.4080   29.3029   45.3355 H   0  0  0  0  0  0  0  0  0  0  0  0
   58.5489   28.3161   45.5319 H   0  0  0  0  0  0  0  0  0  0  0  0
   59.6769   26.3761   46.6207 H   0  0  0  0  0  0  0  0  0  0  0  0
   58.3349   24.4207   47.3949 H   0  0  0  0  0  0  0  0  0  0  0  0
   55.8587   24.4046   47.0784 H   0  0  0  0  0  0  0  0  0  0  0  0
   60.7801   29.6836   45.8913 H   0  0  0  0  0  0  0  0  0  0  0  0
   61.3486   27.8624   47.4888 H   0  0  0  0  0  0  0  0  0  0  0  0
   60.2180   27.5140   50.8740 H   0  0  0  0  0  0  0  0  0  0  0  0
  1  2  1  0
  2  3  2  0
  2  4  1  0
  4  5  2  0
  5  6  1  0
  6  7  1  0
  7  8  1  0
  8  9  1  0
  9 10  2  0
  9 11  1  0
 11 12  1  0
 12 13  2  0
 12 14  1  0
 14 15  1  0
 15 16  1  0
 16 17  2  0
 16 18  1  0
 18 19  1  0
 19 20  2  0
 20 21  1  0
 21 22  2  0
 22 23  1  0
 23 24  2  0
 24 25  1  0
  6 26  2  0
 26 27  1  0
 27 28  2  0
 28 29  1  0
 28  4  1  0
 14  7  2  0
 24 19  1  0
  1 30  1  0
  5 31  1  0
 15 32  1  0
 15 33  1  0
 20 34  1  0
 21 35  1  0
 22 36  1  0
 23 37  1  0
 26 38  1  0
 27 39  1  0
 29 40  1  0
M  CHG  5   1  -1   8  -1  11  -1  18  -1  25  -1
M  END
>  <UniqueID>  (42) 
38

>  <SMILES>  (42) 
[NH-]C(=O)c1cc(-c2[n-]c(=O)[n-]c(=O)c2CC(=O)[N-]c2ccccc2[O-])ccc1O

>  <Energy>  (42) 
57.236409479874304

>  <Genealogy>  (42) 
[NH-]C(=O)c1cc(-c2[n-]c(=O)[n-]c(=O)c2CC(=O)[N-]c2ccccc2[O-])ccc1O (protonated)
[NH-]C(=O)c1cc(-c2[n-]c(=O)[n-]c(=O)c2CC(=O)[N-]c2ccccc2[O-])ccc1O (3D coordinates assigned)
[NH-]C(=O)c1cc(-c2[n-]c(=O)[n-]c(=O)c2CC(=O)[N-]c2ccccc2[O-])ccc1O (optimized conformer: 57.236409479874304 kcal/mol)

>  <smiles>  (42) 
NC(=O)c1cc(-c2[nH]c(=O)[nH]c(=O)c2CC(=O)Nc2ccccc2O)ccc1O

>  <score_type>  (42) 
oracle

>  <origin>  (42) 
adg

>  <m_score__min__energy>  (42) 
-16.41

>  <m_primary>  (42) 
energy

$$$$
42:0
     RDKit          3D

 53 55  0  0  0  0  0  0  0  0999 V2000
   57.1820   24.9930   44.5400 C   0  0  0  0  0  0  0  0  0  0  0  0
   56.2430   25.3710   46.0050 S   0  0  0  0  0  0  0  0  0  0  0  0
   57.0660   25.0040   47.2080 O   0  0  0  0  0  0  0  0  0  0  0  0
   54.9690   24.5760   46.0320 O   0  0  0  0  0  0  0  0  0  0  0  0
   55.8890   27.0660   46.0730 N   0  0  0  0  0  0  0  0  0  0  0  0
   56.7180   28.1250   45.5690 C   0  0  0  0  0  0  0  0  0  0  0  0
   58.0950   28.1950   45.8500 C   0  0  0  0  0  0  0  0  0  0  0  0
   58.8760   29.2470   45.3400 C   0  0  0  0  0  0  0  0  0  0  0  0
   60.3510   29.3300   45.6610 C   0  0  0  0  0  0  0  0  0  0  0  0
   60.6420   30.0510   46.9940 C   0  0  2  0  0  0  0  0  0  0  0  0
   59.3750   30.6630   47.6420 C   0  0  0  0  0  0  0  0  0  0  0  0
   59.3100   32.1690   47.5340 C   0  0  0  0  0  0  0  0  0  0  0  0
   58.8860   32.7780   46.3410 C   0  0  0  0  0  0  0  0  0  0  0  0
   58.8400   34.1720   46.2360 C   0  0  0  0  0  0  0  0  0  0  0  0
   59.2040   34.9690   47.3230 C   0  0  0  0  0  0  0  0  0  0  0  0
   59.6050   34.3740   48.5220 C   0  0  0  0  0  0  0  0  0  0  0  0
   59.6530   32.9800   48.6310 C   0  0  0  0  0  0  0  0  0  0  0  0
   61.6280   31.0590   46.7510 O   0  0  0  0  0  0  0  0  0  0  0  0
   62.4600   31.6500   47.7170 C   0  0  0  0  0  0  0  0  0  0  0  0
   63.3400   32.7110   47.4280 C   0  0  0  0  0  0  0  0  0  0  0  0
   64.1470   33.2520   48.4330 C   0  0  0  0  0  0  0  0  0  0  0  0
   64.0840   32.7480   49.7380 C   0  0  0  0  0  0  0  0  0  0  0  0
   65.1160   33.4360   50.9870 S   0  0  0  0  0  0  0  0  0  0  0  0
   64.3680   34.8510   51.6360 N   0  0  0  0  0  0  0  0  0  0  0  0
   65.3170   32.4250   52.0800 O   0  0  0  0  0  0  0  0  0  0  0  0
   66.4560   33.8070   50.4150 O   0  0  0  0  0  0  0  0  0  0  0  0
   63.2080   31.6950   50.0300 C   0  0  0  0  0  0  0  0  0  0  0  0
   62.4010   31.1540   49.0250 C   0  0  0  0  0  0  0  0  0  0  0  0
   58.2610   30.2470   44.5710 C   0  0  0  0  0  0  0  0  0  0  0  0
   56.8970   30.1770   44.2830 C   0  0  0  0  0  0  0  0  0  0  0  0
   56.1280   29.1190   44.7760 C   0  0  0  0  0  0  0  0  0  0  0  0
   54.7700   29.0660   44.4800 O   0  0  0  0  0  0  0  0  0  0  0  0
   58.1669   24.5965   44.8279 H   0  0  0  0  0  0  0  0  0  0  0  0
   56.6442   24.2413   43.9436 H   0  0  0  0  0  0  0  0  0  0  0  0
   57.3150   25.9076   43.9436 H   0  0  0  0  0  0  0  0  0  0  0  0
   58.5644   27.4201   46.4739 H   0  0  0  0  0  0  0  0  0  0  0  0
   60.7541   28.3083   45.7206 H   0  0  0  0  0  0  0  0  0  0  0  0
   60.8278   29.9155   44.8611 H   0  0  0  0  0  0  0  0  0  0  0  0
   61.0143   29.3092   47.7159 H   0  0  0  0  0  0  0  0  0  0  0  0
   58.4902   30.2397   47.1440 H   0  0  0  0  0  0  0  0  0  0  0  0
   59.4085   30.4167   48.7135 H   0  0  0  0  0  0  0  0  0  0  0  0
   58.5885   32.1550   45.4847 H   0  0  0  0  0  0  0  0  0  0  0  0
   58.5164   34.6413   45.2952 H   0  0  0  0  0  0  0  0  0  0  0  0
   59.1751   36.0651   47.2355 H   0  0  0  0  0  0  0  0  0  0  0  0
   59.8832   35.0022   49.3810 H   0  0  0  0  0  0  0  0  0  0  0  0
   59.9606   32.5157   49.5796 H   0  0  0  0  0  0  0  0  0  0  0  0
   63.3925   33.1159   46.4066 H   0  0  0  0  0  0  0  0  0  0  0  0
   64.8348   34.0775   48.1976 H   0  0  0  0  0  0  0  0  0  0  0  0
   63.6130   35.1310   50.9710 H   0  0  0  0  0  0  0  0  0  0  0  0
   63.1549   31.2928   51.0525 H   0  0  0  0  0  0  0  0  0  0  0  0
   61.7125   30.3301   49.2642 H   0  0  0  0  0  0  0  0  0  0  0  0
   58.8572   31.0907   44.1931 H   0  0  0  0  0  0  0  0  0  0  0  0
   56.4259   30.9566   43.6663 H   0  0  0  0  0  0  0  0  0  0  0  0
  1  2  1  0
  2  3  2  0
  2  4  2  0
  2  5  1  0
  5  6  1  0
  6  7  2  0
  7  8  1  0
  8  9  1  0
  9 10  1  0
 10 11  1  0
 11 12  1  0
 12 13  2  0
 13 14  1  0
 14 15  2  0
 15 16  1  0
 16 17  2  0
 10 18  1  0
 18 19  1  0
 19 20  2  0
 20 21  1  0
 21 22  2  0
 22 23  1  0
 23 24  1  0
 23 25  2  0
 23 26  2  0
 22 27  1  0
 27 28  2  0
  8 29  2  0
 29 30  1  0
 30 31  2  0
 31 32  1  0
 31  6  1  0
 17 12  1  0
 28 19  1  0
  1 33  1  0
  1 34  1  0
  1 35  1  0
  7 36  1  0
  9 37  1  0
  9 38  1  0
 10 39  1  1
 11 40  1  0
 11 41  1  0
 13 42  1  0
 14 43  1  0
 15 44  1  0
 16 45  1  0
 17 46  1  0
 20 47  1  0
 21 48  1  0
 24 49  1  0
 27 50  1  0
 28 51  1  0
 29 52  1  0
 30 53  1  0
M  CHG  3   5  -1  24  -1  32  -1
M  END
>  <UniqueID>  (43) 
39

>  <SMILES>  (43) 
CS(=O)(=O)[N-]c1cc(C[C@H](Cc2ccccc2)Oc2ccc(S([NH-])(=O)=O)cc2)ccc1[O-]

>  <Energy>  (43) 
51.06684926768298

>  <Genealogy>  (43) 
CS(=O)(=O)[N-]c1cc(CC(Cc2ccccc2)Oc2ccc(S([NH-])(=O)=O)cc2)ccc1[O-] (protonated)
CS(=O)(=O)[N-]c1cc(C[C@H](Cc2ccccc2)Oc2ccc(S([NH-])(=O)=O)cc2)ccc1[O-] (chirality)
CS(=O)(=O)[N-]c1cc(C[C@H](Cc2ccccc2)Oc2ccc(S([NH-])(=O)=O)cc2)ccc1[O-] (3D coordinates assigned)
CS(=O)(=O)[N-]c1cc(C[C@H](Cc2ccccc2)Oc2ccc(S([NH-])(=O)=O)cc2)ccc1[O-] (optimized conformer: 51.06684926768298 kcal/mol)

>  <smiles>  (43) 
CS(=O)(=O)Nc1cc(CC(Cc2ccccc2)Oc2ccc(S(N)(=O)=O)cc2)ccc1O

>  <score_type>  (43) 
oracle

>  <origin>  (43) 
adg

>  <m_score__min__energy>  (43) 
-15.16

>  <m_primary>  (43) 
energy

$$$$
43:0
     RDKit          3D

 40 42  0  0  0  0  0  0  0  0999 V2000
   56.2670   31.6070   44.4660 O   0  0  0  0  0  0  0  0  0  0  0  0
   57.4460   31.2510   44.7370 C   0  0  0  0  0  0  0  0  0  0  0  0
   57.8860   29.8550   44.4150 C   0  0  0  0  0  0  0  0  0  0  0  0
   58.2430   29.1220   45.6840 C   0  0  0  0  0  0  0  0  0  0  0  0
   59.4720   29.3900   46.3120 C   0  0  0  0  0  0  0  0  0  0  0  0
   59.8500   28.6830   47.4570 C   0  0  0  0  0  0  0  0  0  0  0  0
   59.0100   27.7010   47.9830 C   0  0  0  0  0  0  0  0  0  0  0  0
   57.7880   27.4230   47.3670 C   0  0  0  0  0  0  0  0  0  0  0  0
   57.4020   28.1240   46.2190 C   0  0  0  0  0  0  0  0  0  0  0  0
   56.1840   27.8210   45.6200 O   0  0  0  0  0  0  0  0  0  0  0  0
   58.3430   32.1410   45.4170 N   0  0  0  0  0  0  0  0  0  0  0  0
   57.9500   33.4110   45.9600 C   0  0  0  0  0  0  0  0  0  0  0  0
   57.0710   34.4620   45.0600 S   0  0  0  0  0  0  0  0  0  0  0  0
   58.4930   33.8500   47.2120 N   0  0  0  0  0  0  0  0  0  0  0  0
   59.1290   32.9440   48.1230 C   0  0  0  0  0  0  0  0  0  0  0  0
   58.3520   32.2890   49.0880 C   0  0  0  0  0  0  0  0  0  0  0  0
   58.9460   31.4270   50.0280 C   0  0  0  0  0  0  0  0  0  0  0  0
   58.1240   30.7550   51.0650 C   0  0  0  0  0  0  0  0  0  0  0  0
   58.5820   29.6800   51.8340 C   0  0  0  0  0  0  0  0  0  0  0  0
   57.3470   29.2070   52.8800 S   0  0  0  0  0  0  0  0  0  0  0  0
   56.2910   30.3810   52.3160 C   0  0  0  0  0  0  0  0  0  0  0  0
   55.1210   30.5510   52.7450 O   0  0  0  0  0  0  0  0  0  0  0  0
   56.8440   31.1340   51.3450 N   0  0  0  0  0  0  0  0  0  0  0  0
   60.3340   31.2160   49.9740 C   0  0  0  0  0  0  0  0  0  0  0  0
   61.1090   31.8440   48.9970 C   0  0  0  0  0  0  0  0  0  0  0  0
   60.5170   32.7040   48.0680 C   0  0  0  0  0  0  0  0  0  0  0  0
   61.6230   33.4680   46.7020 Br  0  0  0  0  0  0  0  0  0  0  0  0
   57.0689   29.3239   43.9049 H   0  0  0  0  0  0  0  0  0  0  0  0
   58.7693   29.8962   43.7607 H   0  0  0  0  0  0  0  0  0  0  0  0
   60.1400   30.1606   45.8998 H   0  0  0  0  0  0  0  0  0  0  0  0
   60.8117   28.9013   47.9444 H   0  0  0  0  0  0  0  0  0  0  0  0
   59.3105   27.1454   48.8835 H   0  0  0  0  0  0  0  0  0  0  0  0
   57.1265   26.6503   47.7856 H   0  0  0  0  0  0  0  0  0  0  0  0
   59.2870   31.7780   45.6750 H   0  0  0  0  0  0  0  0  0  0  0  0
   58.5500   34.8750   47.4100 H   0  0  0  0  0  0  0  0  0  0  0  0
   57.2642   32.4508   49.1108 H   0  0  0  0  0  0  0  0  0  0  0  0
   59.5794   29.2208   51.7676 H   0  0  0  0  0  0  0  0  0  0  0  0
   56.3440   31.9300   50.8880 H   0  0  0  0  0  0  0  0  0  0  0  0
   60.8138   30.5509   50.7071 H   0  0  0  0  0  0  0  0  0  0  0  0
   62.1929   31.6606   48.9583 H   0  0  0  0  0  0  0  0  0  0  0  0
  1  2  2  0
  2  3  1  0
  3  4  1  0
  4  5  2  0
  5  6  1  0
  6  7  2  0
  7  8  1  0
  8  9  2  0
  9 10  1  0
  2 11  1  0
 11 12  1  0
 12 13  2  0
 12 14  1  0
 14 15  1  0
 15 16  2  0
 16 17  1  0
 17 18  1  0
 18 19  2  0
 19 20  1  0
 20 21  1  0
 21 22  2  0
 21 23  1  0
 17 24  2  0
 24 25  1  0
 25 26  2  0
 26 27  1  0
  9  4  1  0
 26 15  1  0
 23 18  1  0
  3 28  1  0
  3 29  1  0
  5 30  1  0
  6 31  1  0
  7 32  1  0
  8 33  1  0
 11 34  1  0
 14 35  1  0
 16 36  1  0
 19 37  1  0
 23 38  1  0
 24 39  1  0
 25 40  1  0
M  CHG  1  10  -1
M  END
>  <UniqueID>  (44) 
40

>  <SMILES>  (44) 
O=C(Cc1ccccc1[O-])NC(=S)Nc1cc(-c2csc(=O)[nH]2)ccc1Br

>  <Energy>  (44) 
80.14977865281787

>  <Genealogy>  (44) 
O=C(Cc1ccccc1[O-])NC(=S)Nc1cc(-c2csc(=O)[nH]2)ccc1Br (protonated)
O=C(Cc1ccccc1[O-])NC(=S)Nc1cc(-c2csc(=O)[nH]2)ccc1Br (3D coordinates assigned)
O=C(Cc1ccccc1[O-])NC(=S)Nc1cc(-c2csc(=O)[nH]2)ccc1Br (optimized conformer: 80.14977865281787 kcal/mol)

>  <smiles>  (44) 
O=C(Cc1ccccc1O)NC(=S)Nc1cc(-c2csc(=O)[nH]2)ccc1Br

>  <score_type>  (44) 
oracle

>  <origin>  (44) 
adg

>  <m_score__min__energy>  (44) 
-12.69

>  <m_primary>  (44) 
energy

$$$$
44:0
     RDKit          3D

 54 57  0  0  0  0  0  0  0  0999 V2000
   59.5998   28.4831   48.6995 H   0  0  0  0  0  0  0  0  0  0  0  0
   59.0860   28.0130   47.8480 C   0  0  0  0  0  0  0  0  0  0  0  0
   58.9831   26.9187   47.8037 H   0  0  0  0  0  0  0  0  0  0  0  0
   58.5850   28.7740   46.8640 C   0  0  0  0  0  0  0  0  0  0  0  0
   57.9060   28.3420   45.7150 C   0  0  0  0  0  0  0  0  0  0  0  0
   57.7610   27.1110   45.1820 C   0  0  0  0  0  0  0  0  0  0  0  0
   58.1232   26.9605   44.1543 H   0  0  0  0  0  0  0  0  0  0  0  0
   57.1590   25.9540   45.8610 C   0  0  0  0  0  0  0  0  0  0  0  0
   57.8740   24.9310   46.3600 N   0  0  0  0  0  0  0  0  0  0  0  0
   56.9480   24.1830   46.9980 C   0  0  0  0  0  0  0  0  0  0  0  0
   57.2340   23.1090   47.5880 O   0  0  0  0  0  0  0  0  0  0  0  0
   55.6930   24.6810   46.9620 N   0  0  0  0  0  0  0  0  0  0  0  0
   55.8460   25.8110   46.2530 C   0  0  0  0  0  0  0  0  0  0  0  0
   54.8140   26.7060   45.9960 O   0  0  0  0  0  0  0  0  0  0  0  0
   57.3780   29.5090   45.1780 C   0  0  0  0  0  0  0  0  0  0  0  0
   56.5550   29.6360   43.9340 C   0  0  0  0  0  0  0  0  0  0  0  0
   55.5017   29.7985   44.2062 H   0  0  0  0  0  0  0  0  0  0  0  0
   56.9163   30.4890   43.3408 H   0  0  0  0  0  0  0  0  0  0  0  0
   56.6423   28.7138   43.3408 H   0  0  0  0  0  0  0  0  0  0  0  0
   57.7700   30.5700   45.9070 N   0  0  0  0  0  0  0  0  0  0  0  0
   58.5190   30.1300   46.9080 N   0  0  0  0  0  0  0  0  0  0  0  0
   59.0710   31.0190   47.9360 C   0  0  0  0  0  0  0  0  0  0  0  0
   58.3243   31.1538   48.7324 H   0  0  0  0  0  0  0  0  0  0  0  0
   59.9873   30.5612   48.3369 H   0  0  0  0  0  0  0  0  0  0  0  0
   59.4250   32.3720   47.3570 C   0  0  0  0  0  0  0  0  0  0  0  0
   58.4010   33.3200   47.1830 C   0  0  0  0  0  0  0  0  0  0  0  0
   57.3700   33.0665   47.4708 H   0  0  0  0  0  0  0  0  0  0  0  0
   58.6790   34.5790   46.6490 C   0  0  0  0  0  0  0  0  0  0  0  0
   57.8690   35.3124   46.5225 H   0  0  0  0  0  0  0  0  0  0  0  0
   59.9790   34.9090   46.2760 C   0  0  0  0  0  0  0  0  0  0  0  0
   60.1953   35.9041   45.8601 H   0  0  0  0  0  0  0  0  0  0  0  0
   61.0080   33.9790   46.4290 C   0  0  0  0  0  0  0  0  0  0  0  0
   62.0317   34.2469   46.1284 H   0  0  0  0  0  0  0  0  0  0  0  0
   60.7520   32.7030   46.9630 C   0  0  0  0  0  0  0  0  0  0  0  0
   61.9050   31.7320   47.1070 C   0  0  0  0  0  0  0  0  0  0  0  0
   61.5546   30.8324   47.6342 H   0  0  0  0  0  0  0  0  0  0  0  0
   62.2719   31.4707   46.1035 H   0  0  0  0  0  0  0  0  0  0  0  0
   63.0010   32.3330   47.8630 N   0  0  0  0  0  0  0  0  0  0  0  0
   63.9560   32.3080   47.4410 H   0  0  0  0  0  0  0  0  0  0  0  0
   62.7990   32.9920   49.1220 C   0  0  0  0  0  0  0  0  0  0  0  0
   61.6270   33.2300   49.5260 O   0  0  0  0  0  0  0  0  0  0  0  0
   63.9200   33.3830   49.9320 N   0  0  0  0  0  0  0  0  0  0  0  0
   63.7770   34.1050   51.1840 C   0  0  0  0  0  0  0  0  0  0  0  0
   63.2201   35.0404   51.0264 H   0  0  0  0  0  0  0  0  0  0  0  0
   63.2186   33.5201   51.9297 H   0  0  0  0  0  0  0  0  0  0  0  0
   65.1960   34.4030   51.6490 C   0  0  0  0  0  0  0  0  0  0  0  0
   65.4560   35.4507   51.4377 H   0  0  0  0  0  0  0  0  0  0  0  0
   65.3059   34.2536   52.7332 H   0  0  0  0  0  0  0  0  0  0  0  0
   66.1010   33.4610   50.8580 C   0  0  0  0  0  0  0  0  0  0  0  0
   67.0231   33.9795   50.5566 H   0  0  0  0  0  0  0  0  0  0  0  0
   66.4001   32.5891   51.4583 H   0  0  0  0  0  0  0  0  0  0  0  0
   65.3000   33.0470   49.6300 C   0  0  0  0  0  0  0  0  0  0  0  0
   65.6443   33.5991   48.7430 H   0  0  0  0  0  0  0  0  0  0  0  0
   65.4189   31.9761   49.4087 H   0  0  0  0  0  0  0  0  0  0  0  0
  1  2  1  0
  2  3  1  0
  2  4  2  0
  4  5  1  0
  5  6  2  0
  6  7  1  0
  6  8  1  0
  8  9  1  0
  9 10  1  0
 10 11  2  0
 10 12  1  0
 12 13  1  0
 13 14  1  0
  5 15  1  0
 15 16  1  0
 16 17  1  0
 16 18  1  0
 16 19  1  0
 15 20  2  0
 20 21  1  0
 21 22  1  0
 22 23  1  0
 22 24  1  0
 22 25  1  0
 25 26  2  0
 26 27  1  0
 26 28  1  0
 28 29  1  0
 28 30  2  0
 30 31  1  0
 30 32  1  0
 32 33  1  0
 32 34  2  0
 34 35  1  0
 35 36  1  0
 35 37  1  0
 35 38  1  0
 38 39  1  0
 38 40  1  0
 40 41  2  0
 40 42  1  0
 42 43  1  0
 43 44  1  0
 43 45  1  0
 43 46  1  0
 46 47  1  0
 46 48  1  0
 46 49  1  0
 49 50  1  0
 49 51  1  0
 49 52  1  0
 52 53  1  0
 52 54  1  0
 21  4  1  0
 34 25  1  0
 52 42  1  0
 13  8  2  0
M  CHG  3   9  -1  12  -1  14  -1
M  END
>  <UniqueID>  (45) 
41

>  <SMILES>  (45) 
C=c1/c(=C\c2[n-]c(=O)[n-]c2[O-])c(C)nn1Cc1ccccc1CNC(=O)N1CCCC1

>  <Energy>  (45) 
127.11172882931166

>  <Genealogy>  (45) 
C=c1c(=Cc2[n-]c(=O)[n-]c2[O-])c(C)nn1Cc1ccccc1CNC(=O)N1CCCC1 (protonated)
C=c1/c(=C\c2[n-]c(=O)[n-]c2[O-])c(C)nn1Cc1ccccc1CNC(=O)N1CCCC1 (cis-trans isomerization)
C=c1/c(=C\c2[n-]c(=O)[n-]c2[O-])c(C)nn1Cc1ccccc1CNC(=O)N1CCCC1 (3D coordinates assigned)
C=c1/c(=C\c2[n-]c(=O)[n-]c2[O-])c(C)nn1Cc1ccccc1CNC(=O)N1CCCC1 (nonaromatic ring conformer: 127.11172882931166 kcal/mol)

>  <smiles>  (45) 
C=c1c(=Cc2[nH]c(=O)[nH]c2O)c(C)nn1Cc1ccccc1CNC(=O)N1CCCC1

>  <score_type>  (45) 
oracle

>  <origin>  (45) 
adg

>  <m_score__min__energy>  (45) 
-16.829999999999998

>  <m_primary>  (45) 
energy

$$$$
45:0
     RDKit          3D

 46 48  0  0  0  0  0  0  0  0999 V2000
   59.9770   29.3440   49.0690 C   0  0  0  0  0  0  0  0  0  0  0  0
   60.6240   30.6780   48.8530 C   0  0  0  0  0  0  0  0  0  0  0  0
   61.8120   30.8770   48.1730 C   0  0  0  0  0  0  0  0  0  0  0  0
   62.0500   32.2360   48.1880 C   0  0  0  0  0  0  0  0  0  0  0  0
   61.0070   32.8130   48.8950 C   0  0  0  0  0  0  0  0  0  0  0  0
   60.8290   34.2920   49.1290 C   0  0  0  0  0  0  0  0  0  0  0  0
   59.7410   34.8470   48.3220 N   0  0  0  0  0  0  0  0  0  0  0  0
   60.0500   34.7330   46.6080 S   0  0  0  0  0  0  0  0  0  0  0  0
   59.6470   36.0290   45.9610 O   0  0  0  0  0  0  0  0  0  0  0  0
   61.5260   34.5470   46.3960 O   0  0  0  0  0  0  0  0  0  0  0  0
   59.2020   33.3990   45.8190 C   0  0  0  0  0  0  0  0  0  0  0  0
   58.7090   33.5570   44.5170 C   0  0  0  0  0  0  0  0  0  0  0  0
   58.0010   32.5220   43.9000 C   0  0  0  0  0  0  0  0  0  0  0  0
   57.7790   31.3100   44.5800 C   0  0  0  0  0  0  0  0  0  0  0  0
   57.0010   30.2550   43.9970 N   0  0  0  0  0  0  0  0  0  0  0  0
   56.3780   29.1880   44.7240 C   0  0  0  0  0  0  0  0  0  0  0  0
   55.1330   29.2210   44.9110 O   0  0  0  0  0  0  0  0  0  0  0  0
   57.1690   28.0720   45.2850 C   0  0  0  0  0  0  0  0  0  0  0  0
   58.5690   28.0820   45.1650 C   0  0  0  0  0  0  0  0  0  0  0  0
   59.3310   27.0520   45.7230 C   0  0  0  0  0  0  0  0  0  0  0  0
   58.7040   26.0010   46.3950 C   0  0  0  0  0  0  0  0  0  0  0  0
   57.3110   25.9690   46.4970 C   0  0  0  0  0  0  0  0  0  0  0  0
   56.5410   26.9910   45.9330 C   0  0  0  0  0  0  0  0  0  0  0  0
   55.1540   26.9110   45.9970 O   0  0  0  0  0  0  0  0  0  0  0  0
   58.2670   31.1580   45.8830 C   0  0  0  0  0  0  0  0  0  0  0  0
   58.9830   32.1910   46.4970 C   0  0  0  0  0  0  0  0  0  0  0  0
   60.1260   31.8620   49.2780 N   0  0  0  0  0  0  0  0  0  0  0  0
   58.8660   32.0900   49.9890 C   0  0  0  0  0  0  0  0  0  0  0  0
   59.8839   29.1521   50.1481 H   0  0  0  0  0  0  0  0  0  0  0  0
   58.9779   29.3422   48.6087 H   0  0  0  0  0  0  0  0  0  0  0  0
   60.5942   28.5583   48.6087 H   0  0  0  0  0  0  0  0  0  0  0  0
   62.4431   30.1036   47.7110 H   0  0  0  0  0  0  0  0  0  0  0  0
   62.9014   32.7593   47.7285 H   0  0  0  0  0  0  0  0  0  0  0  0
   60.6032   34.4588   50.1926 H   0  0  0  0  0  0  0  0  0  0  0  0
   61.7613   34.7973   48.8366 H   0  0  0  0  0  0  0  0  0  0  0  0
   58.8801   34.5004   43.9778 H   0  0  0  0  0  0  0  0  0  0  0  0
   57.6156   32.6553   42.8784 H   0  0  0  0  0  0  0  0  0  0  0  0
   59.0671   28.9038   44.6297 H   0  0  0  0  0  0  0  0  0  0  0  0
   60.4271   27.0693   45.6326 H   0  0  0  0  0  0  0  0  0  0  0  0
   59.3069   25.1980   46.8442 H   0  0  0  0  0  0  0  0  0  0  0  0
   56.8185   25.1375   47.0225 H   0  0  0  0  0  0  0  0  0  0  0  0
   58.0862   30.2197   46.4280 H   0  0  0  0  0  0  0  0  0  0  0  0
   59.3758   32.0553   47.5155 H   0  0  0  0  0  0  0  0  0  0  0  0
   59.0460   32.0574   51.0737 H   0  0  0  0  0  0  0  0  0  0  0  0
   58.4628   33.0757   49.7137 H   0  0  0  0  0  0  0  0  0  0  0  0
   58.1429   31.3081   49.7137 H   0  0  0  0  0  0  0  0  0  0  0  0
  1  2  1  0
  2  3  2  0
  3  4  1  0
  4  5  2  0
  5  6  1  0
  6  7  1  0
  7  8  1  0
  8  9  2  0
  8 10  2  0
  8 11  1  0
 11 12  2  0
 12 13  1  0
 13 14  2  0
 14 15  1  0
 15 16  1  0
 16 17  2  0
 16 18  1  0
 18 19  2  0
 19 20  1  0
 20 21  2  0
 21 22  1  0
 22 23  2  0
 23 24  1  0
 14 25  1  0
 25 26  2  0
  5 27  1  0
 27 28  1  0
 27  2  1  0
 26 11  1  0
 23 18  1  0
  1 29  1  0
  1 30  1  0
  1 31  1  0
  3 32  1  0
  4 33  1  0
  6 34  1  0
  6 35  1  0
 12 36  1  0
 13 37  1  0
 19 38  1  0
 20 39  1  0
 21 40  1  0
 22 41  1  0
 25 42  1  0
 26 43  1  0
 28 44  1  0
 28 45  1  0
 28 46  1  0
M  CHG  3   7  -1  15  -1  24  -1
M  END
>  <UniqueID>  (46) 
42

>  <SMILES>  (46) 
Cc1ccc(C[N-]S(=O)(=O)c2ccc([N-]C(=O)c3ccccc3[O-])cc2)n1C

>  <Energy>  (46) 
78.87886517279567

>  <Genealogy>  (46) 
Cc1ccc(C[N-]S(=O)(=O)c2ccc([N-]C(=O)c3ccccc3[O-])cc2)n1C (protonated)
Cc1ccc(C[N-]S(=O)(=O)c2ccc([N-]C(=O)c3ccccc3[O-])cc2)n1C (3D coordinates assigned)
Cc1ccc(C[N-]S(=O)(=O)c2ccc([N-]C(=O)c3ccccc3[O-])cc2)n1C (optimized conformer: 78.87886517279567 kcal/mol)

>  <smiles>  (46) 
Cc1ccc(CNS(=O)(=O)c2ccc(NC(=O)c3ccccc3O)cc2)n1C

>  <score_type>  (46) 
oracle

>  <origin>  (46) 
adg

>  <m_score__min__energy>  (46) 
-14.65

>  <m_primary>  (46) 
energy

$$$$
46:0
     RDKit          3D

 44 46  0  0  0  0  0  0  0  0999 V2000
   58.4910   27.1710   43.4490 C   0  0  0  0  0  0  0  0  0  0  0  0
   58.8880   28.1400   44.5300 C   0  0  0  0  0  0  0  0  0  0  0  0
   60.2200   28.5820   44.6150 C   0  0  0  0  0  0  0  0  0  0  0  0
   60.6050   29.4890   45.6050 C   0  0  0  0  0  0  0  0  0  0  0  0
   59.6640   29.9740   46.5220 C   0  0  0  0  0  0  0  0  0  0  0  0
   60.1430   31.1030   47.7850 S   0  0  0  0  0  0  0  0  0  0  0  0
   61.0100   30.3750   48.7760 O   0  0  0  0  0  0  0  0  0  0  0  0
   58.9200   31.6070   48.5030 O   0  0  0  0  0  0  0  0  0  0  0  0
   61.0260   32.4260   47.0510 N   0  0  0  0  0  0  0  0  0  0  0  0
   60.1280   33.3530   46.3250 C   0  0  0  0  0  0  0  0  0  0  0  0
   59.7520   34.5910   47.1630 C   0  0  0  0  0  0  0  0  0  0  0  0
   59.7200   34.2650   48.5360 O   0  0  0  0  0  0  0  0  0  0  0  0
   61.0310   33.9910   49.0060 C   0  0  0  0  0  0  0  0  0  0  0  0
   61.8700   33.1320   48.0300 C   0  0  0  0  0  0  0  0  0  0  0  0
   58.3380   29.5350   46.4490 C   0  0  0  0  0  0  0  0  0  0  0  0
   57.9430   28.6160   45.4670 C   0  0  0  0  0  0  0  0  0  0  0  0
   56.5390   28.1710   45.4390 C   0  0  0  0  0  0  0  0  0  0  0  0
   56.2440   27.0400   45.9050 O   0  0  0  0  0  0  0  0  0  0  0  0
   55.5030   28.9930   44.8890 N   0  0  0  0  0  0  0  0  0  0  0  0
   55.6100   29.7330   43.6340 C   0  0  0  0  0  0  0  0  0  0  0  0
   56.5550   30.8860   43.7790 C   0  0  0  0  0  0  0  0  0  0  0  0
   57.4070   31.3570   42.8010 C   0  0  0  0  0  0  0  0  0  0  0  0
   58.0920   32.4010   43.3810 C   0  0  0  0  0  0  0  0  0  0  0  0
   57.6170   32.5030   44.6730 C   0  0  0  0  0  0  0  0  0  0  0  0
   56.7040   31.5830   44.8830 O   0  0  0  0  0  0  0  0  0  0  0  0
   58.1119   26.2456   43.9072 H   0  0  0  0  0  0  0  0  0  0  0  0
   57.7044   27.6201   42.8248 H   0  0  0  0  0  0  0  0  0  0  0  0
   59.3666   26.9391   42.8248 H   0  0  0  0  0  0  0  0  0  0  0  0
   60.9650   28.2105   43.8960 H   0  0  0  0  0  0  0  0  0  0  0  0
   61.6512   29.8236   45.6647 H   0  0  0  0  0  0  0  0  0  0  0  0
   60.6346   33.6887   45.4081 H   0  0  0  0  0  0  0  0  0  0  0  0
   59.1992   32.8088   46.0989 H   0  0  0  0  0  0  0  0  0  0  0  0
   60.4978   35.3820   46.9956 H   0  0  0  0  0  0  0  0  0  0  0  0
   58.7551   34.9401   46.8560 H   0  0  0  0  0  0  0  0  0  0  0  0
   61.5513   34.9473   49.1635 H   0  0  0  0  0  0  0  0  0  0  0  0
   60.9269   33.4142   49.9369 H   0  0  0  0  0  0  0  0  0  0  0  0
   62.5679   33.7882   47.4894 H   0  0  0  0  0  0  0  0  0  0  0  0
   62.4100   32.3769   48.6201 H   0  0  0  0  0  0  0  0  0  0  0  0
   57.5981   29.9145   47.1691 H   0  0  0  0  0  0  0  0  0  0  0  0
   55.9806   29.0589   42.8477 H   0  0  0  0  0  0  0  0  0  0  0  0
   54.6163   30.1213   43.3662 H   0  0  0  0  0  0  0  0  0  0  0  0
   57.5160   30.9781   41.7741 H   0  0  0  0  0  0  0  0  0  0  0  0
   58.8631   33.0280   42.9094 H   0  0  0  0  0  0  0  0  0  0  0  0
   57.9526   33.2430   45.4145 H   0  0  0  0  0  0  0  0  0  0  0  0
  1  2  1  0
  2  3  2  0
  3  4  1  0
  4  5  2  0
  5  6  1  0
  6  7  2  0
  6  8  2  0
  6  9  1  0
  9 10  1  0
 10 11  1  0
 11 12  1  0
 12 13  1  0
 13 14  1  0
  5 15  1  0
 15 16  2  0
 16 17  1  0
 17 18  2  0
 17 19  1  0
 19 20  1  0
 20 21  1  0
 21 22  2  0
 22 23  1  0
 23 24  2  0
 24 25  1  0
 16  2  1  0
 25 21  1  0
 14  9  1  0
  1 26  1  0
  1 27  1  0
  1 28  1  0
  3 29  1  0
  4 30  1  0
 10 31  1  0
 10 32  1  0
 11 33  1  0
 11 34  1  0
 13 35  1  0
 13 36  1  0
 14 37  1  0
 14 38  1  0
 15 39  1  0
 20 40  1  0
 20 41  1  0
 22 42  1  0
 23 43  1  0
 24 44  1  0
M  CHG  1  19  -1
M  END
>  <UniqueID>  (47) 
43

>  <SMILES>  (47) 
Cc1ccc(S(=O)(=O)N2CCOCC2)cc1C(=O)[N-]Cc1ccco1

>  <Energy>  (47) 
82.9130032574392

>  <Genealogy>  (47) 
Cc1ccc(S(=O)(=O)N2CCOCC2)cc1C(=O)[N-]Cc1ccco1 (protonated)
Cc1ccc(S(=O)(=O)N2CCOCC2)cc1C(=O)[N-]Cc1ccco1 (3D coordinates assigned)
Cc1ccc(S(=O)(=O)N2CCOCC2)cc1C(=O)[N-]Cc1ccco1 (nonaromatic ring conformer: 82.9130032574392 kcal/mol)

>  <smiles>  (47) 
Cc1ccc(S(=O)(=O)N2CCOCC2)cc1C(=O)NCc1ccco1

>  <score_type>  (47) 
oracle

>  <origin>  (47) 
adg

>  <m_score__min__energy>  (47) 
-10.460000000000001

>  <m_primary>  (47) 
energy

$$$$
47:0
     RDKit          3D

 27 29  0  0  0  0  0  0  0  0999 V2000
   62.1870   32.3630   52.6740 N   0  0  0  0  0  0  0  0  0  0  0  0
   61.0460   32.7260   51.8990 C   0  0  0  0  0  0  0  0  0  0  0  0
   61.0860   33.7720   51.1970 O   0  0  0  0  0  0  0  0  0  0  0  0
   59.8250   31.8860   51.9180 C   0  0  0  0  0  0  0  0  0  0  0  0
   59.9250   30.4680   51.8990 C   0  0  0  0  0  0  0  0  0  0  0  0
   58.7700   29.6640   51.9170 C   0  0  0  0  0  0  0  0  0  0  0  0
   57.5360   30.3050   51.9530 C   0  0  0  0  0  0  0  0  0  0  0  0
   56.3190   29.7420   51.9760 N   0  0  0  0  0  0  0  0  0  0  0  0
   55.4910   30.8210   52.0100 C   0  0  0  0  0  0  0  0  0  0  0  0
   54.0170   30.7030   52.0430 C   0  0  0  0  0  0  0  0  0  0  0  0
   53.2060   31.7720   51.6180 C   0  0  0  0  0  0  0  0  0  0  0  0
   51.8110   31.6580   51.6510 C   0  0  0  0  0  0  0  0  0  0  0  0
   51.0180   32.7180   51.2300 O   0  0  0  0  0  0  0  0  0  0  0  0
   51.2150   30.4780   52.1080 C   0  0  0  0  0  0  0  0  0  0  0  0
   52.0110   29.4110   52.5320 C   0  0  0  0  0  0  0  0  0  0  0  0
   51.1940   27.8010   53.1550 Br  0  0  0  0  0  0  0  0  0  0  0  0
   53.4060   29.5220   52.5000 C   0  0  0  0  0  0  0  0  0  0  0  0
   56.1380   32.0190   52.0090 N   0  0  0  0  0  0  0  0  0  0  0  0
   57.4280   31.6590   51.9730 C   0  0  0  0  0  0  0  0  0  0  0  0
   58.5450   32.4900   51.9560 C   0  0  0  0  0  0  0  0  0  0  0  0
   62.3820   32.8250   53.5910 H   0  0  0  0  0  0  0  0  0  0  0  0
   60.9170   29.9935   51.8699 H   0  0  0  0  0  0  0  0  0  0  0  0
   58.8407   28.5664   51.9031 H   0  0  0  0  0  0  0  0  0  0  0  0
   53.6706   32.7018   51.2581 H   0  0  0  0  0  0  0  0  0  0  0  0
   50.1188   30.3901   52.1336 H   0  0  0  0  0  0  0  0  0  0  0  0
   54.0287   28.6793   52.8348 H   0  0  0  0  0  0  0  0  0  0  0  0
   58.4361   33.5845   51.9716 H   0  0  0  0  0  0  0  0  0  0  0  0
  1  2  1  0
  2  3  2  0
  2  4  1  0
  4  5  2  0
  5  6  1  0
  6  7  2  0
  7  8  1  0
  8  9  1  0
  9 10  1  0
 10 11  2  0
 11 12  1  0
 12 13  1  0
 12 14  2  0
 14 15  1  0
 15 16  1  0
 15 17  2  0
  9 18  2  0
 18 19  1  0
 19 20  2  0
 20  4  1  0
 19  7  1  0
 17 10  1  0
  1 21  1  0
  5 22  1  0
  6 23  1  0
 11 24  1  0
 14 25  1  0
 17 26  1  0
 20 27  1  0
M  CHG  3   1  -1   8  -1  13  -1
M  END
>  <UniqueID>  (48) 
44

>  <SMILES>  (48) 
[NH-]C(=O)c1ccc2[n-]c(-c3cc([O-])cc(Br)c3)nc2c1

>  <Energy>  (48) 
65.38234782846557

>  <Genealogy>  (48) 
[NH-]C(=O)c1ccc2[n-]c(-c3cc([O-])cc(Br)c3)nc2c1 (protonated)
[NH-]C(=O)c1ccc2[n-]c(-c3cc([O-])cc(Br)c3)nc2c1 (3D coordinates assigned)
[NH-]C(=O)c1ccc2[n-]c(-c3cc([O-])cc(Br)c3)nc2c1 (optimized conformer: 65.38234782846557 kcal/mol)

>  <smiles>  (48) 
NC(=O)c1ccc2[nH]c(-c3cc(O)cc(Br)c3)nc2c1

>  <score_type>  (48) 
oracle

>  <origin>  (48) 
adg

>  <m_score__min__energy>  (48) 
-11.67

>  <m_primary>  (48) 
energy

$$$$
48:0
     RDKit          3D

 36 37  0  0  0  0  0  0  0  0999 V2000
   58.4510   32.1920   50.0870 C   0  0  0  0  0  0  0  0  0  0  0  0
   59.7930   31.4850   50.2350 C   0  0  0  0  0  0  0  0  0  0  0  0
   60.6150   31.7060   49.0460 N   0  0  0  0  0  0  0  0  0  0  0  0
   61.6100   32.5800   49.0120 N   0  0  0  0  0  0  0  0  0  0  0  0
   62.2490   32.4200   47.8370 C   0  0  0  0  0  0  0  0  0  0  0  0
   63.7640   33.4420   47.2990 Br  0  0  0  0  0  0  0  0  0  0  0  0
   61.6630   31.4050   47.1090 C   0  0  0  0  0  0  0  0  0  0  0  0
   60.6220   30.9800   47.9050 C   0  0  0  0  0  0  0  0  0  0  0  0
   59.6930   29.8890   47.5720 C   0  0  0  0  0  0  0  0  0  0  0  0
   59.5950   28.9160   48.3670 O   0  0  0  0  0  0  0  0  0  0  0  0
   58.9330   29.8960   46.3450 N   0  0  0  0  0  0  0  0  0  0  0  0
   57.9130   30.9320   46.1550 C   0  0  0  0  0  0  0  0  0  0  0  0
   59.1270   28.8480   45.3280 C   0  0  0  0  0  0  0  0  0  0  0  0
   58.3980   27.5850   45.7150 C   0  0  0  0  0  0  0  0  0  0  0  0
   59.1200   26.4450   46.1080 C   0  0  0  0  0  0  0  0  0  0  0  0
   58.4470   25.2800   46.4840 C   0  0  0  0  0  0  0  0  0  0  0  0
   57.0500   25.2380   46.4660 C   0  0  0  0  0  0  0  0  0  0  0  0
   56.3180   26.3610   46.0660 C   0  0  0  0  0  0  0  0  0  0  0  0
   54.9240   26.2930   46.0480 O   0  0  0  0  0  0  0  0  0  0  0  0
   56.9890   27.5360   45.6910 C   0  0  0  0  0  0  0  0  0  0  0  0
   56.2740   28.6250   45.3010 F   0  0  0  0  0  0  0  0  0  0  0  0
   58.0390   32.4090   51.0836 H   0  0  0  0  0  0  0  0  0  0  0  0
   58.5913   33.1332   49.5353 H   0  0  0  0  0  0  0  0  0  0  0  0
   57.7541   31.5440   49.5353 H   0  0  0  0  0  0  0  0  0  0  0  0
   60.3168   31.8811   51.1174 H   0  0  0  0  0  0  0  0  0  0  0  0
   59.6183   30.4056   50.3546 H   0  0  0  0  0  0  0  0  0  0  0  0
   61.9588   31.0231   46.1207 H   0  0  0  0  0  0  0  0  0  0  0  0
   57.5636   31.2868   47.1358 H   0  0  0  0  0  0  0  0  0  0  0  0
   58.3451   31.7733   45.5933 H   0  0  0  0  0  0  0  0  0  0  0  0
   57.0651   30.5131   45.5933 H   0  0  0  0  0  0  0  0  0  0  0  0
   58.7403   29.2063   44.3625 H   0  0  0  0  0  0  0  0  0  0  0  0
   60.2015   28.6256   45.2511 H   0  0  0  0  0  0  0  0  0  0  0  0
   60.2196   26.4702   46.1196 H   0  0  0  0  0  0  0  0  0  0  0  0
   59.0182   24.3930   46.7952 H   0  0  0  0  0  0  0  0  0  0  0  0
   56.5248   24.3196   46.7671 H   0  0  0  0  0  0  0  0  0  0  0  0
   54.3570   26.7150   46.7730 H   0  0  0  0  0  0  0  0  0  0  0  0
  1  2  1  0
  2  3  1  0
  3  4  1  0
  4  5  2  0
  5  6  1  0
  5  7  1  0
  7  8  2  0
  8  9  1  0
  9 10  2  0
  9 11  1  0
 11 12  1  0
 11 13  1  0
 13 14  1  0
 14 15  2  0
 15 16  1  0
 16 17  2  0
 17 18  1  0
 18 19  1  0
 18 20  2  0
 20 21  1  0
  8  3  1  0
 20 14  1  0
  1 22  1  0
  1 23  1  0
  1 24  1  0
  2 25  1  0
  2 26  1  0
  7 27  1  0
 12 28  1  0
 12 29  1  0
 12 30  1  0
 13 31  1  0
 13 32  1  0
 15 33  1  0
 16 34  1  0
 17 35  1  0
 19 36  1  0
M  END
>  <UniqueID>  (49) 
45

>  <SMILES>  (49) 
CCn1nc(Br)cc1C(=O)N(C)Cc1cccc(O)c1F

>  <Energy>  (49) 
65.04842737719626

>  <Genealogy>  (49) 
CCn1nc(Br)cc1C(=O)N(C)Cc1cccc(O)c1F (3D coordinates assigned)
CCn1nc(Br)cc1C(=O)N(C)Cc1cccc(O)c1F (optimized conformer: 65.04842737719626 kcal/mol)

>  <smiles>  (49) 
CCn1nc(Br)cc1C(=O)N(C)Cc1cccc(O)c1F

>  <score_type>  (49) 
oracle

>  <origin>  (49) 
adg

>  <m_score__min__energy>  (49) 
-7.9699999999999998

>  <m_primary>  (49) 
energy

$$$$
49:0
     RDKit          3D

 37 39  0  0  0  0  0  0  0  0999 V2000
   56.4510   33.5220   44.9220 H   0  0  0  0  0  0  0  0  0  0  0  0
   57.3710   33.0570   44.7540 N   0  0  0  0  0  0  0  0  0  0  0  0
   58.3830   33.1230   45.5650 C   0  0  0  0  0  0  0  0  0  0  0  0
   58.9110   34.3410   45.8450 N   0  0  0  0  0  0  0  0  0  0  0  0
   59.9980   34.4850   46.6430 C   0  0  0  0  0  0  0  0  0  0  0  0
   60.3951   35.4876   46.8599 H   0  0  0  0  0  0  0  0  0  0  0  0
   60.6130   33.3510   47.1900 C   0  0  0  0  0  0  0  0  0  0  0  0
   61.8180   33.4810   48.0490 C   0  0  0  0  0  0  0  0  0  0  0  0
   61.7370   34.1410   49.2890 C   0  0  0  0  0  0  0  0  0  0  0  0
   60.7771   34.5617   49.6230 H   0  0  0  0  0  0  0  0  0  0  0  0
   62.8700   34.2650   50.0990 C   0  0  0  0  0  0  0  0  0  0  0  0
   62.7978   34.7806   51.0680 H   0  0  0  0  0  0  0  0  0  0  0  0
   64.0930   33.7360   49.6810 C   0  0  0  0  0  0  0  0  0  0  0  0
   64.9831   33.8358   50.3196 H   0  0  0  0  0  0  0  0  0  0  0  0
   64.1850   33.0800   48.4510 C   0  0  0  0  0  0  0  0  0  0  0  0
   65.1484   32.6632   48.1220 H   0  0  0  0  0  0  0  0  0  0  0  0
   63.0550   32.9520   47.6370 C   0  0  0  0  0  0  0  0  0  0  0  0
   63.1337   32.4349   46.6693 H   0  0  0  0  0  0  0  0  0  0  0  0
   60.0850   32.1220   46.9170 N   0  0  0  0  0  0  0  0  0  0  0  0
   60.5130   31.2720   47.3510 H   0  0  0  0  0  0  0  0  0  0  0  0
   58.9770   31.9710   46.1340 C   0  0  0  0  0  0  0  0  0  0  0  0
   58.4360   30.6090   45.9220 C   0  0  0  0  0  0  0  0  0  0  0  0
   58.3080   29.7330   47.0030 C   0  0  0  0  0  0  0  0  0  0  0  0
   58.6382   30.0481   48.0038 H   0  0  0  0  0  0  0  0  0  0  0  0
   57.7640   28.4610   46.8210 C   0  0  0  0  0  0  0  0  0  0  0  0
   57.6790   27.7785   47.6794 H   0  0  0  0  0  0  0  0  0  0  0  0
   57.3230   28.0410   45.5530 C   0  0  0  0  0  0  0  0  0  0  0  0
   56.6820   26.7110   45.4350 C   0  0  0  0  0  0  0  0  0  0  0  0
   57.1110   25.8640   44.6070 O   0  0  0  0  0  0  0  0  0  0  0  0
   55.5360   26.3970   46.2240 N   0  0  0  0  0  0  0  0  0  0  0  0
   54.7810   27.1010   46.3790 H   0  0  0  0  0  0  0  0  0  0  0  0
   57.4660   28.9210   44.4490 C   0  0  0  0  0  0  0  0  0  0  0  0
   57.1290   28.5230   43.1130 N   0  0  0  0  0  0  0  0  0  0  0  0
   56.7380   27.5800   42.8980 H   0  0  0  0  0  0  0  0  0  0  0  0
   57.3950   29.1220   42.3010 H   0  0  0  0  0  0  0  0  0  0  0  0
   58.0000   30.2030   44.6520 C   0  0  0  0  0  0  0  0  0  0  0  0
   58.0777   30.8989   43.8036 H   0  0  0  0  0  0  0  0  0  0  0  0
  1  2  1  0
  2  3  2  0
  3  4  1  0
  4  5  1  0
  5  6  1  0
  5  7  2  0
  7  8  1  0
  8  9  2  0
  9 10  1  0
  9 11  1  0
 11 12  1  0
 11 13  2  0
 13 14  1  0
 13 15  1  0
 15 16  1  0
 15 17  2  0
 17 18  1  0
  7 19  1  0
 19 20  1  0
 19 21  2  0
 21 22  1  0
 22 23  2  0
 23 24  1  0
 23 25  1  0
 25 26  1  0
 25 27  2  0
 27 28  1  0
 28 29  2  0
 28 30  1  0
 30 31  1  0
 27 32  1  0
 32 33  1  0
 33 34  1  0
 33 35  1  0
 32 36  2  0
 36 37  1  0
 21  3  1  0
 36 22  1  0
 17  8  1  0
M  CHG  3   4  -1  19   1  30  -1
M  END
>  <UniqueID>  (50) 
46

>  <SMILES>  (50) 
[H]/N=c1/[n-]cc(-c2ccccc2)[nH+]c1-c1ccc(C([NH-])=O)c(N)c1

>  <Energy>  (50) 
59.63180078722334

>  <Genealogy>  (50) 
N=c1[n-]cc(-c2ccccc2)[nH+]c1-c1ccc(C([NH-])=O)c(N)c1 (protonated)
[H]/N=c1/[n-]cc(-c2ccccc2)[nH+]c1-c1ccc(C([NH-])=O)c(N)c1 (cis-trans isomerization)
[H]/N=c1/[n-]cc(-c2ccccc2)[nH+]c1-c1ccc(C([NH-])=O)c(N)c1 (3D coordinates assigned)
[H]/N=c1/[n-]cc(-c2ccccc2)[nH+]c1-c1ccc(C([NH-])=O)c(N)c1 (optimized conformer: 59.63180078722334 kcal/mol)

>  <smiles>  (50) 
N=c1[nH]cc(-c2ccccc2)nc1-c1ccc(C(N)=O)c(N)c1

>  <score_type>  (50) 
oracle

>  <origin>  (50) 
adg

>  <m_score__min__energy>  (50) 
-10.720000000000001

>  <m_primary>  (50) 
energy

$$$$
50:0
     RDKit          3D

 37 39  0  0  0  0  0  0  0  0999 V2000
   57.5099   31.7372   43.0235 H   0  0  0  0  0  0  0  0  0  0  0  0
   57.3770   31.4650   44.0810 C   0  0  0  0  0  0  0  0  0  0  0  0
   56.7160   32.2590   44.8660 N   0  0  0  0  0  0  0  0  0  0  0  0
   57.2280   33.5390   45.2560 C   0  0  0  0  0  0  0  0  0  0  0  0
   56.6210   34.5900   44.8960 O   0  0  0  0  0  0  0  0  0  0  0  0
   58.4380   33.6420   46.0840 C   0  0  0  0  0  0  0  0  0  0  0  0
   59.6180   34.1930   45.5500 C   0  0  0  0  0  0  0  0  0  0  0  0
   59.6107   34.6374   44.5438 H   0  0  0  0  0  0  0  0  0  0  0  0
   60.7970   34.1760   46.2960 C   0  0  0  0  0  0  0  0  0  0  0  0
   61.7152   34.6185   45.8823 H   0  0  0  0  0  0  0  0  0  0  0  0
   60.8130   33.5940   47.5760 C   0  0  0  0  0  0  0  0  0  0  0  0
   62.0300   33.5260   48.3190 N   0  0  0  0  0  0  0  0  0  0  0  0
   62.1060   34.0870   49.6660 C   0  0  0  0  0  0  0  0  0  0  0  0
   62.5882   35.0749   49.6270 H   0  0  0  0  0  0  0  0  0  0  0  0
   61.0928   34.1949   50.0804 H   0  0  0  0  0  0  0  0  0  0  0  0
   62.9320   33.1460   50.5560 C   0  0  0  0  0  0  0  0  0  0  0  0
   63.2255   33.7069   51.4556 H   0  0  0  0  0  0  0  0  0  0  0  0
   62.2813   32.2813   50.7532 H   0  0  0  0  0  0  0  0  0  0  0  0
   64.1290   32.6010   49.9680 O   0  0  0  0  0  0  0  0  0  0  0  0
   64.4140   33.1020   48.6710 C   0  0  0  0  0  0  0  0  0  0  0  0
   64.6532   34.1730   48.7463 H   0  0  0  0  0  0  0  0  0  0  0  0
   65.2656   32.5379   48.2630 H   0  0  0  0  0  0  0  0  0  0  0  0
   63.2250   32.9240   47.7270 C   0  0  0  0  0  0  0  0  0  0  0  0
   63.4439   33.4143   46.7669 H   0  0  0  0  0  0  0  0  0  0  0  0
   63.0485   31.8508   47.5623 H   0  0  0  0  0  0  0  0  0  0  0  0
   59.6260   33.0810   48.1220 C   0  0  0  0  0  0  0  0  0  0  0  0
   59.6279   32.6550   49.1362 H   0  0  0  0  0  0  0  0  0  0  0  0
   58.4440   33.1100   47.3820 C   0  0  0  0  0  0  0  0  0  0  0  0
   57.5143   32.7148   47.8173 H   0  0  0  0  0  0  0  0  0  0  0  0
   57.9520   30.2060   44.5820 C   0  0  0  0  0  0  0  0  0  0  0  0
   59.2600   30.1010   45.6270 S   0  0  0  0  0  0  0  0  0  0  0  0
   59.3080   28.4230   45.7080 C   0  0  0  0  0  0  0  0  0  0  0  0
   60.0227   27.8260   46.2935 H   0  0  0  0  0  0  0  0  0  0  0  0
   58.2920   27.9210   44.9100 C   0  0  0  0  0  0  0  0  0  0  0  0
   58.1048   26.8448   44.7810 H   0  0  0  0  0  0  0  0  0  0  0  0
   57.5220   28.9170   44.2800 C   0  0  0  0  0  0  0  0  0  0  0  0
   56.6703   28.6995   43.6187 H   0  0  0  0  0  0  0  0  0  0  0  0
  1  2  1  0
  2  3  2  0
  3  4  1  0
  4  5  2  0
  4  6  1  0
  6  7  2  0
  7  8  1  0
  7  9  1  0
  9 10  1  0
  9 11  2  0
 11 12  1  0
 12 13  1  0
 13 14  1  0
 13 15  1  0
 13 16  1  0
 16 17  1  0
 16 18  1  0
 16 19  1  0
 19 20  1  0
 20 21  1  0
 20 22  1  0
 20 23  1  0
 23 24  1  0
 23 25  1  0
 11 26  1  0
 26 27  1  0
 26 28  2  0
 28 29  1  0
  2 30  1  0
 30 31  1  0
 31 32  1  0
 32 33  1  0
 32 34  2  0
 34 35  1  0
 34 36  1  0
 36 37  1  0
 28  6  1  0
 36 30  2  0
 23 12  1  0
M  END
>  <UniqueID>  (51) 
47

>  <SMILES>  (51) 
O=C(/N=C/c1cccs1)c1ccc(N2CCOCC2)cc1

>  <Energy>  (51) 
84.9334965111935

>  <Genealogy>  (51) 
O=C(/N=C/c1cccs1)c1ccc(N2CCOCC2)cc1 (cis-trans isomerization)
O=C(/N=C/c1cccs1)c1ccc(N2CCOCC2)cc1 (3D coordinates assigned)
O=C(/N=C/c1cccs1)c1ccc(N2CCOCC2)cc1 (nonaromatic ring conformer: 84.9334965111935 kcal/mol)

>  <smiles>  (51) 
O=C(N=Cc1cccs1)c1ccc(N2CCOCC2)cc1

>  <score_type>  (51) 
oracle

>  <origin>  (51) 
adg

>  <m_score__min__energy>  (51) 
-7.0099999999999998

>  <m_primary>  (51) 
energy

$$$$
51:0
     RDKit          3D

 21 22  0  0  0  0  0  0  0  0999 V2000
   54.7840   26.3390   46.0060 N   0  0  0  0  0  0  0  0  0  0  0  0
   56.4770   26.0080   46.0980 S   0  0  0  0  0  0  0  0  0  0  0  0
   56.7690   25.2240   47.3460 O   0  0  0  0  0  0  0  0  0  0  0  0
   56.8910   25.1880   44.9070 O   0  0  0  0  0  0  0  0  0  0  0  0
   57.3740   27.5230   46.1210 C   0  0  0  0  0  0  0  0  0  0  0  0
   58.6390   27.5820   46.7220 C   0  0  0  0  0  0  0  0  0  0  0  0
   59.3520   28.7840   46.7550 C   0  0  0  0  0  0  0  0  0  0  0  0
   58.8010   29.9430   46.1900 C   0  0  0  0  0  0  0  0  0  0  0  0
   59.4760   31.1270   46.2110 N   0  0  0  0  0  0  0  0  0  0  0  0
   58.9360   32.2510   45.6630 C   0  0  0  0  0  0  0  0  0  0  0  0
   59.5760   33.3370   45.6920 O   0  0  0  0  0  0  0  0  0  0  0  0
   57.6660   32.1910   45.0700 C   0  0  0  0  0  0  0  0  0  0  0  0
   57.1460   33.2180   44.5580 O   0  0  0  0  0  0  0  0  0  0  0  0
   56.9910   31.0130   45.0490 N   0  0  0  0  0  0  0  0  0  0  0  0
   57.5240   29.8870   45.5920 C   0  0  0  0  0  0  0  0  0  0  0  0
   56.8150   28.6810   45.5610 C   0  0  0  0  0  0  0  0  0  0  0  0
   54.5820   27.0880   46.7050 H   0  0  0  0  0  0  0  0  0  0  0  0
   59.0735   26.6765   47.1706 H   0  0  0  0  0  0  0  0  0  0  0  0
   60.3461   28.8206   47.2246 H   0  0  0  0  0  0  0  0  0  0  0  0
   60.4240   31.1810   46.6520 H   0  0  0  0  0  0  0  0  0  0  0  0
   55.8184   28.6412   45.0971 H   0  0  0  0  0  0  0  0  0  0  0  0
  1  2  1  0
  2  3  2  0
  2  4  2  0
  2  5  1  0
  5  6  2  0
  6  7  1  0
  7  8  2  0
  8  9  1  0
  9 10  1  0
 10 11  2  0
 10 12  1  0
 12 13  2  0
 12 14  1  0
 14 15  1  0
 15 16  2  0
 16  5  1  0
 15  8  1  0
  1 17  1  0
  6 18  1  0
  7 19  1  0
  9 20  1  0
 16 21  1  0
M  CHG  2   1  -1  14  -1
M  END
>  <UniqueID>  (52) 
48

>  <SMILES>  (52) 
[NH-]S(=O)(=O)c1ccc2[nH]c(=O)c(=O)[n-]c2c1

>  <Energy>  (52) 
26.20343811768641

>  <Genealogy>  (52) 
[NH-]S(=O)(=O)c1ccc2[nH]c(=O)c(=O)[n-]c2c1 (protonated)
[NH-]S(=O)(=O)c1ccc2[nH]c(=O)c(=O)[n-]c2c1 (3D coordinates assigned)
[NH-]S(=O)(=O)c1ccc2[nH]c(=O)c(=O)[n-]c2c1 (optimized conformer: 26.20343811768641 kcal/mol)

>  <smiles>  (52) 
NS(=O)(=O)c1ccc2[nH]c(=O)c(=O)[nH]c2c1

>  <score_type>  (52) 
oracle

>  <origin>  (52) 
adg

>  <m_score__min__energy>  (52) 
-9.9800000000000004

>  <m_primary>  (52) 
energy

$$$$
52:0
     RDKit          3D

 35 36  0  0  0  0  0  0  0  0999 V2000
   59.3667   26.4186   44.9100 H   0  0  0  0  0  0  0  0  0  0  0  0
   58.8840   26.7450   45.8430 C   0  0  0  0  0  0  0  0  0  0  0  0
   59.6260   27.3400   46.7810 C   0  0  0  0  0  0  0  0  0  0  0  0
   60.5026   26.8126   47.1853 H   0  0  0  0  0  0  0  0  0  0  0  0
   59.2940   28.7110   47.2980 C   0  0  0  0  0  0  0  0  0  0  0  0
   58.2018   28.8418   47.2914 H   0  0  0  0  0  0  0  0  0  0  0  0
   59.6905   28.8024   48.3200 H   0  0  0  0  0  0  0  0  0  0  0  0
   59.9340   29.8040   46.4300 C   0  0  0  0  0  0  0  0  0  0  0  0
   60.7116   30.3157   47.0161 H   0  0  0  0  0  0  0  0  0  0  0  0
   60.3652   29.3265   45.5378 H   0  0  0  0  0  0  0  0  0  0  0  0
   58.9400   30.7950   45.9870 N   0  0  0  0  0  0  0  0  0  0  0  0
   58.7870   30.7010   44.9560 H   0  0  0  0  0  0  0  0  0  0  0  0
   58.0200   30.6140   46.4440 H   0  0  0  0  0  0  0  0  0  0  0  0
   59.4050   32.1320   46.2830 C   0  0  0  0  0  0  0  0  0  0  0  0
   60.6750   32.3020   46.8680 C   0  0  0  0  0  0  0  0  0  0  0  0
   61.3221   31.4263   47.0239 H   0  0  0  0  0  0  0  0  0  0  0  0
   61.1240   33.5680   47.2530 C   0  0  0  0  0  0  0  0  0  0  0  0
   62.7110   33.7540   47.9750 Cl  0  0  0  0  0  0  0  0  0  0  0  0
   60.3020   34.6800   47.0760 C   0  0  0  0  0  0  0  0  0  0  0  0
   60.6535   35.6762   47.3827 H   0  0  0  0  0  0  0  0  0  0  0  0
   59.0350   34.5330   46.5110 C   0  0  0  0  0  0  0  0  0  0  0  0
   58.3901   35.4151   46.3845 H   0  0  0  0  0  0  0  0  0  0  0  0
   58.5740   33.2710   46.1020 C   0  0  0  0  0  0  0  0  0  0  0  0
   57.2630   33.1630   45.5300 N   0  0  0  0  0  0  0  0  0  0  0  0
   56.6620   34.1920   45.1570 O   0  0  0  0  0  0  0  0  0  0  0  0
   56.7820   31.9360   45.1360 O   0  0  0  0  0  0  0  0  0  0  0  0
   57.4400   26.5120   46.0180 C   0  0  0  0  0  0  0  0  0  0  0  0
   56.8700   25.3980   46.5910 C   0  0  0  0  0  0  0  0  0  0  0  0
   57.5580   24.3120   47.1160 O   0  0  0  0  0  0  0  0  0  0  0  0
   55.5290   25.4890   46.5630 N   0  0  0  0  0  0  0  0  0  0  0  0
   55.2120   26.6460   45.9990 N   0  0  0  0  0  0  0  0  0  0  0  0
   56.3470   27.2940   45.6620 C   0  0  0  0  0  0  0  0  0  0  0  0
   56.3410   28.6620   45.1180 C   0  0  0  0  0  0  0  0  0  0  0  0
   57.4180   29.2690   44.8760 O   0  0  0  0  0  0  0  0  0  0  0  0
   55.1330   29.3160   44.9160 O   0  0  0  0  0  0  0  0  0  0  0  0
  1  2  1  0
  2  3  2  0
  3  4  1  0
  3  5  1  0
  5  6  1  0
  5  7  1  0
  5  8  1  0
  8  9  1  0
  8 10  1  0
  8 11  1  0
 11 12  1  0
 11 13  1  0
 11 14  1  0
 14 15  2  0
 15 16  1  0
 15 17  1  0
 17 18  1  0
 17 19  2  0
 19 20  1  0
 19 21  1  0
 21 22  1  0
 21 23  2  0
 23 24  1  0
 24 25  2  0
 24 26  1  0
  2 27  1  0
 27 28  1  0
 28 29  1  0
 28 30  2  0
 30 31  1  0
 31 32  1  0
 32 33  1  0
 33 34  2  0
 33 35  1  0
 23 14  1  0
 32 27  2  0
M  CHG  6  11   1  24   1  26  -1  29  -1  31  -1  35  -1
M  END
>  <UniqueID>  (53) 
49

>  <SMILES>  (53) 
O=C([O-])c1[n-]nc([O-])c1/C=C/CC[NH2+]c1cc(Cl)ccc1[N+](=O)[O-]

>  <Energy>  (53) 
74.77063583305211

>  <Genealogy>  (53) 
O=C([O-])c1[n-]nc([O-])c1C=CCC[NH2+]c1cc(Cl)ccc1[N+](=O)[O-] (protonated)
O=C([O-])c1[n-]nc([O-])c1/C=C/CC[NH2+]c1cc(Cl)ccc1[N+](=O)[O-] (cis-trans isomerization)
O=C([O-])c1[n-]nc([O-])c1/C=C/CC[NH2+]c1cc(Cl)ccc1[N+](=O)[O-] (3D coordinates assigned)
O=C([O-])c1[n-]nc([O-])c1/C=C/CC[NH2+]c1cc(Cl)ccc1[N+](=O)[O-] (optimized conformer: 74.77063583305211 kcal/mol)

>  <smiles>  (53) 
O=C(O)c1[nH]nc(O)c1C=CCCNc1cc(Cl)ccc1[N+](=O)[O-]

>  <score_type>  (53) 
oracle

>  <origin>  (53) 
adg

>  <m_score__min__energy>  (53) 
-12.85

>  <m_primary>  (53) 
energy

$$$$
53:0
     RDKit          3D

 42 44  0  0  0  0  0  0  0  0999 V2000
   55.1470   26.7310   46.0080 O   0  0  0  0  0  0  0  0  0  0  0  0
   55.5380   25.5480   45.8230 C   0  0  0  0  0  0  0  0  0  0  0  0
   54.6990   24.4870   46.1410 O   0  0  0  0  0  0  0  0  0  0  0  0
   56.8740   25.2860   45.2090 C   0  0  0  0  0  0  0  0  0  0  0  0
   57.8620   26.3050   45.6790 C   0  0  0  0  0  0  0  0  0  0  0  0
   58.9130   26.8220   44.9340 C   0  0  0  0  0  0  0  0  0  0  0  0
   59.6180   27.8320   45.5960 C   0  0  0  0  0  0  0  0  0  0  0  0
   59.1140   28.1210   46.8640 C   0  0  0  0  0  0  0  0  0  0  0  0
   59.5690   29.1820   47.7820 C   0  0  0  0  0  0  0  0  0  0  0  0
   59.2010   29.1490   48.9870 O   0  0  0  0  0  0  0  0  0  0  0  0
   60.3820   30.2690   47.3150 N   0  0  0  0  0  0  0  0  0  0  0  0
   60.5070   31.5250   48.0550 C   0  0  0  0  0  0  0  0  0  0  0  0
   59.9600   32.6880   47.2580 C   0  0  0  0  0  0  0  0  0  0  0  0
   60.1290   33.9990   47.7380 C   0  0  0  0  0  0  0  0  0  0  0  0
   59.6240   35.0880   47.0220 C   0  0  0  0  0  0  0  0  0  0  0  0
   58.9560   34.8820   45.8140 C   0  0  0  0  0  0  0  0  0  0  0  0
   58.7910   33.5880   45.3180 C   0  0  0  0  0  0  0  0  0  0  0  0
   59.2860   32.4850   46.0340 C   0  0  0  0  0  0  0  0  0  0  0  0
   59.1290   31.1870   45.5270 O   0  0  0  0  0  0  0  0  0  0  0  0
   58.0840   30.7810   44.6840 C   0  0  0  0  0  0  0  0  0  0  0  0
   57.1120   29.9100   45.1940 C   0  0  0  0  0  0  0  0  0  0  0  0
   56.0300   29.5140   44.4030 C   0  0  0  0  0  0  0  0  0  0  0  0
   55.9070   29.9910   43.0940 C   0  0  0  0  0  0  0  0  0  0  0  0
   56.8660   30.8650   42.5780 C   0  0  0  0  0  0  0  0  0  0  0  0
   57.9510   31.2620   43.3660 C   0  0  0  0  0  0  0  0  0  0  0  0
   57.7890   27.1200   47.1480 S   0  0  0  0  0  0  0  0  0  0  0  0
   57.2186   24.2830   45.5009 H   0  0  0  0  0  0  0  0  0  0  0  0
   56.7862   25.3466   44.1142 H   0  0  0  0  0  0  0  0  0  0  0  0
   59.1663   26.4717   43.9225 H   0  0  0  0  0  0  0  0  0  0  0  0
   60.4856   28.3483   45.1593 H   0  0  0  0  0  0  0  0  0  0  0  0
   60.8540   30.2070   46.3860 H   0  0  0  0  0  0  0  0  0  0  0  0
   59.9476   31.4424   48.9986 H   0  0  0  0  0  0  0  0  0  0  0  0
   61.5738   31.7087   48.2504 H   0  0  0  0  0  0  0  0  0  0  0  0
   60.6630   34.1688   48.6846 H   0  0  0  0  0  0  0  0  0  0  0  0
   59.7532   36.1087   47.4111 H   0  0  0  0  0  0  0  0  0  0  0  0
   58.5592   35.7405   45.2523 H   0  0  0  0  0  0  0  0  0  0  0  0
   58.2708   33.4308   44.3616 H   0  0  0  0  0  0  0  0  0  0  0  0
   57.2012   29.5352   46.2243 H   0  0  0  0  0  0  0  0  0  0  0  0
   55.2742   28.8264   44.8104 H   0  0  0  0  0  0  0  0  0  0  0  0
   55.0557   29.6780   42.4716 H   0  0  0  0  0  0  0  0  0  0  0  0
   56.7678   31.2421   41.5493 H   0  0  0  0  0  0  0  0  0  0  0  0
   58.7031   31.9520   42.9557 H   0  0  0  0  0  0  0  0  0  0  0  0
  1  2  2  0
  2  3  1  0
  2  4  1  0
  4  5  1  0
  5  6  2  0
  6  7  1  0
  7  8  2  0
  8  9  1  0
  9 10  2  0
  9 11  1  0
 11 12  1  0
 12 13  1  0
 13 14  2  0
 14 15  1  0
 15 16  2  0
 16 17  1  0
 17 18  2  0
 18 19  1  0
 19 20  1  0
 20 21  2  0
 21 22  1  0
 22 23  2  0
 23 24  1  0
 24 25  2  0
  8 26  1  0
 26  5  1  0
 18 13  1  0
 25 20  1  0
  4 27  1  0
  4 28  1  0
  6 29  1  0
  7 30  1  0
 11 31  1  0
 12 32  1  0
 12 33  1  0
 14 34  1  0
 15 35  1  0
 16 36  1  0
 17 37  1  0
 21 38  1  0
 22 39  1  0
 23 40  1  0
 24 41  1  0
 25 42  1  0
M  CHG  1   3  -1
M  END
>  <UniqueID>  (54) 
50

>  <SMILES>  (54) 
O=C([O-])Cc1ccc(C(=O)NCc2ccccc2Oc2ccccc2)s1

>  <Energy>  (54) 
68.78605618191443

>  <Genealogy>  (54) 
O=C([O-])Cc1ccc(C(=O)NCc2ccccc2Oc2ccccc2)s1 (protonated)
O=C([O-])Cc1ccc(C(=O)NCc2ccccc2Oc2ccccc2)s1 (3D coordinates assigned)
O=C([O-])Cc1ccc(C(=O)NCc2ccccc2Oc2ccccc2)s1 (optimized conformer: 68.78605618191443 kcal/mol)

>  <smiles>  (54) 
O=C(O)Cc1ccc(C(=O)NCc2ccccc2Oc2ccccc2)s1

>  <score_type>  (54) 
oracle

>  <origin>  (54) 
adg

>  <m_score__min__energy>  (54) 
-12.42

>  <m_primary>  (54) 
energy

$$$$
54:0
     RDKit          3D

 47 48  0  0  0  0  0  0  0  0999 V2000
   56.6246   21.9739   41.9391 H   0  0  0  0  0  0  0  0  0  0  0  0
   56.5860   22.4500   42.9300 C   0  0  0  0  0  0  0  0  0  0  0  0
   57.7300   22.5000   43.7240 C   0  0  0  0  0  0  0  0  0  0  0  0
   58.6732   22.0694   43.3566 H   0  0  0  0  0  0  0  0  0  0  0  0
   57.6800   23.0960   44.9850 C   0  0  0  0  0  0  0  0  0  0  0  0
   58.5852   23.1208   45.6095 H   0  0  0  0  0  0  0  0  0  0  0  0
   56.4890   23.6650   45.4680 C   0  0  0  0  0  0  0  0  0  0  0  0
   56.5030   24.2730   47.1360 S   0  0  0  0  0  0  0  0  0  0  0  0
   55.3110   23.7090   47.8600 O   0  0  0  0  0  0  0  0  0  0  0  0
   57.7380   23.8640   47.8910 O   0  0  0  0  0  0  0  0  0  0  0  0
   56.3780   26.0070   47.1140 N   0  0  0  0  0  0  0  0  0  0  0  0
   57.0120   26.3600   47.8680 H   0  0  0  0  0  0  0  0  0  0  0  0
   56.8630   26.5240   45.8300 C   0  0  0  0  0  0  0  0  0  0  0  0
   56.0807   27.1456   45.3700 H   0  0  0  0  0  0  0  0  0  0  0  0
   57.1062   25.6771   45.1715 H   0  0  0  0  0  0  0  0  0  0  0  0
   58.0940   27.3510   46.0360 C   0  0  0  0  0  0  0  0  0  0  0  0
   58.9440   27.0100   46.9020 O   0  0  0  0  0  0  0  0  0  0  0  0
   58.3830   28.4180   45.1280 N   0  0  0  0  0  0  0  0  0  0  0  0
   57.9370   29.6430   45.1550 C   0  0  0  0  0  0  0  0  0  0  0  0
   58.6450   30.6880   45.7070 C   0  0  0  0  0  0  0  0  0  0  0  0
   59.6264   30.6515   46.2024 H   0  0  0  0  0  0  0  0  0  0  0  0
   57.8390   31.7960   45.4960 C   0  0  0  0  0  0  0  0  0  0  0  0
   58.1230   33.2110   45.9720 C   0  0  0  0  0  0  0  0  0  0  0  0
   57.9740   33.2670   47.5030 C   0  0  0  0  0  0  0  0  0  0  0  0
   58.9041   32.9174   47.9749 H   0  0  0  0  0  0  0  0  0  0  0  0
   57.7717   34.3025   47.8141 H   0  0  0  0  0  0  0  0  0  0  0  0
   57.1397   32.6211   47.8141 H   0  0  0  0  0  0  0  0  0  0  0  0
   59.5550   33.6200   45.5750 C   0  0  0  0  0  0  0  0  0  0  0  0
   60.1525   33.7907   46.4827 H   0  0  0  0  0  0  0  0  0  0  0  0
   60.0139   32.8170   44.9795 H   0  0  0  0  0  0  0  0  0  0  0  0
   59.5206   34.5442   44.9795 H   0  0  0  0  0  0  0  0  0  0  0  0
   57.1310   34.2050   45.3320 C   0  0  0  0  0  0  0  0  0  0  0  0
   56.5915   34.7456   46.1237 H   0  0  0  0  0  0  0  0  0  0  0  0
   57.6829   34.9234   44.7081 H   0  0  0  0  0  0  0  0  0  0  0  0
   56.4115   33.6545   44.7081 H   0  0  0  0  0  0  0  0  0  0  0  0
   56.7150   31.4190   44.8470 N   0  0  0  0  0  0  0  0  0  0  0  0
   56.7790   30.1140   44.6270 N   0  0  0  0  0  0  0  0  0  0  0  0
   55.7510   29.4120   43.8620 C   0  0  0  0  0  0  0  0  0  0  0  0
   55.0446   28.9296   44.5536 H   0  0  0  0  0  0  0  0  0  0  0  0
   55.2107   30.1306   43.2282 H   0  0  0  0  0  0  0  0  0  0  0  0
   56.2237   28.6472   43.2282 H   0  0  0  0  0  0  0  0  0  0  0  0
   55.3280   23.6270   44.6510 C   0  0  0  0  0  0  0  0  0  0  0  0
   54.0430   24.2180   45.0550 C   0  0  0  0  0  0  0  0  0  0  0  0
   52.9650   23.6160   44.8020 O   0  0  0  0  0  0  0  0  0  0  0  0
   54.0030   25.4870   45.6210 O   0  0  0  0  0  0  0  0  0  0  0  0
   55.3910   23.0040   43.3920 C   0  0  0  0  0  0  0  0  0  0  0  0
   54.4890   22.9527   42.7645 H   0  0  0  0  0  0  0  0  0  0  0  0
  1  2  1  0
  2  3  2  0
  3  4  1  0
  3  5  1  0
  5  6  1  0
  5  7  2  0
  7  8  1  0
  8  9  2  0
  8 10  2  0
  8 11  1  0
 11 12  1  0
 11 13  1  0
 13 14  1  0
 13 15  1  0
 13 16  1  0
 16 17  2  0
 16 18  1  0
 18 19  2  0
 19 20  1  0
 20 21  1  0
 20 22  2  0
 22 23  1  0
 23 24  1  0
 24 25  1  0
 24 26  1  0
 24 27  1  0
 23 28  1  0
 28 29  1  0
 28 30  1  0
 28 31  1  0
 23 32  1  0
 32 33  1  0
 32 34  1  0
 32 35  1  0
 22 36  1  0
 36 37  1  0
 37 38  1  0
 38 39  1  0
 38 40  1  0
 38 41  1  0
  7 42  1  0
 42 43  1  0
 43 44  2  0
 43 45  1  0
 42 46  2  0
 46 47  1  0
 46  2  1  0
 37 19  1  0
M  CHG  2  36  -1  45  -1
M  END
>  <UniqueID>  (55) 
51

>  <SMILES>  (55) 
Cn1[n-]c(C(C)(C)C)c/c1=N/C(=O)CNS(=O)(=O)c1ccccc1C(=O)[O-]

>  <Energy>  (55) 
91.5027375897457

>  <Genealogy>  (55) 
Cn1[n-]c(C(C)(C)C)cc1=NC(=O)CNS(=O)(=O)c1ccccc1C(=O)[O-] (protonated)
Cn1[n-]c(C(C)(C)C)c/c1=N/C(=O)CNS(=O)(=O)c1ccccc1C(=O)[O-] (cis-trans isomerization)
Cn1[n-]c(C(C)(C)C)c/c1=N/C(=O)CNS(=O)(=O)c1ccccc1C(=O)[O-] (3D coordinates assigned)
Cn1[n-]c(C(C)(C)C)c/c1=N/C(=O)CNS(=O)(=O)c1ccccc1C(=O)[O-] (optimized conformer: 91.5027375897457 kcal/mol)

>  <smiles>  (55) 
Cn1[nH]c(C(C)(C)C)cc1=NC(=O)CNS(=O)(=O)c1ccccc1C(=O)O

>  <score_type>  (55) 
oracle

>  <origin>  (55) 
adg

>  <m_score__min__energy>  (55) 
-12.279999999999999

>  <m_primary>  (55) 
energy

$$$$
55:0
     RDKit          3D

 61 64  0  0  0  0  0  0  0  0999 V2000
   56.5970   23.3410   46.2190 C   0  0  0  0  0  0  0  0  0  0  0  0
   56.3680   24.8120   46.0580 C   0  0  0  0  0  0  0  0  0  0  0  0
   57.3230   25.7670   45.7810 C   0  0  0  0  0  0  0  0  0  0  0  0
   56.5870   26.9410   45.7590 C   0  0  0  0  0  0  0  0  0  0  0  0
   57.0330   28.1500   45.5950 N   0  0  0  0  0  0  0  0  0  0  0  0
   56.3970   29.2310   44.8940 C   0  0  0  0  0  0  0  0  0  0  0  0
   55.1350   29.3410   44.8520 O   0  0  0  0  0  0  0  0  0  0  0  0
   57.2520   30.2720   44.2560 C   0  0  0  0  0  0  0  0  0  0  0  0
   56.9310   31.5840   44.8150 N   0  0  0  0  0  0  0  0  0  0  0  0
   57.7140   32.2600   45.8140 C   0  0  0  0  0  0  0  0  0  0  0  0
   57.4270   33.4490   46.1170 O   0  0  0  0  0  0  0  0  0  0  0  0
   58.8460   31.6030   46.4960 C   0  0  0  0  0  0  0  0  0  0  0  0
   58.6640   30.3750   47.1520 C   0  0  0  0  0  0  0  0  0  0  0  0
   59.7280   29.7810   47.8400 C   0  0  0  0  0  0  0  0  0  0  0  0
   60.9740   30.4120   47.8880 C   0  0  0  0  0  0  0  0  0  0  0  0
   61.1710   31.6240   47.2090 C   0  0  0  0  0  0  0  0  0  0  0  0
   62.6970   32.4940   47.3280 S   0  0  0  0  0  0  0  0  0  0  0  0
   63.8200   31.6670   46.7580 O   0  0  0  0  0  0  0  0  0  0  0  0
   62.5880   33.7770   46.5500 O   0  0  0  0  0  0  0  0  0  0  0  0
   63.0020   32.8320   49.0160 N   0  0  0  0  0  0  0  0  0  0  0  0
   62.8850   34.2720   49.2900 C   0  0  0  0  0  0  0  0  0  0  0  0
   62.9940   34.5460   50.8100 C   0  0  0  0  0  0  0  0  0  0  0  0
   63.8740   33.5850   51.5230 N   0  0  0  0  0  0  0  0  0  0  0  0
   63.1310   32.5410   52.2630 C   0  0  0  0  0  0  0  0  0  0  0  0
   61.6560   32.8240   52.1910 C   0  0  0  0  0  0  0  0  0  0  0  0
   60.8730   32.2100   51.2020 C   0  0  0  0  0  0  0  0  0  0  0  0
   59.4990   32.4640   51.1410 C   0  0  0  0  0  0  0  0  0  0  0  0
   58.8970   33.3150   52.0720 C   0  0  0  0  0  0  0  0  0  0  0  0
   59.6680   33.9170   53.0660 C   0  0  0  0  0  0  0  0  0  0  0  0
   61.0440   33.6750   53.1300 C   0  0  0  0  0  0  0  0  0  0  0  0
   64.9200   33.0270   50.6440 C   0  0  0  0  0  0  0  0  0  0  0  0
   64.3280   32.3010   49.4160 C   0  0  0  0  0  0  0  0  0  0  0  0
   60.1150   32.1950   46.4890 C   0  0  0  0  0  0  0  0  0  0  0  0
   55.2920   26.6790   46.0120 N   0  0  0  0  0  0  0  0  0  0  0  0
   55.1960   25.3910   46.1750 O   0  0  0  0  0  0  0  0  0  0  0  0
   56.6359   23.0910   47.2895 H   0  0  0  0  0  0  0  0  0  0  0  0
   55.7742   22.7875   45.7429 H   0  0  0  0  0  0  0  0  0  0  0  0
   57.5491   23.0639   45.7429 H   0  0  0  0  0  0  0  0  0  0  0  0
   58.4023   25.6308   45.6178 H   0  0  0  0  0  0  0  0  0  0  0  0
   58.3108   30.0426   44.4464 H   0  0  0  0  0  0  0  0  0  0  0  0
   57.0653   30.2824   43.1720 H   0  0  0  0  0  0  0  0  0  0  0  0
   57.6827   29.8787   47.1251 H   0  0  0  0  0  0  0  0  0  0  0  0
   59.5832   28.8144   48.3446 H   0  0  0  0  0  0  0  0  0  0  0  0
   61.7991   29.9592   48.4573 H   0  0  0  0  0  0  0  0  0  0  0  0
   62.2530   32.3350   49.5480 H   0  0  0  0  0  0  0  0  0  0  0  0
   63.6917   34.8066   48.7672 H   0  0  0  0  0  0  0  0  0  0  0  0
   61.9048   34.6230   48.9349 H   0  0  0  0  0  0  0  0  0  0  0  0
   63.3969   35.5595   50.9532 H   0  0  0  0  0  0  0  0  0  0  0  0
   61.9843   34.4353   51.2323 H   0  0  0  0  0  0  0  0  0  0  0  0
   63.3373   31.5578   51.8149 H   0  0  0  0  0  0  0  0  0  0  0  0
   63.4518   32.5411   53.3152 H   0  0  0  0  0  0  0  0  0  0  0  0
   61.3395   31.5291   50.4748 H   0  0  0  0  0  0  0  0  0  0  0  0
   58.8893   31.9918   50.3566 H   0  0  0  0  0  0  0  0  0  0  0  0
   57.8156   33.5098   52.0207 H   0  0  0  0  0  0  0  0  0  0  0  0
   59.1930   34.5834   53.8011 H   0  0  0  0  0  0  0  0  0  0  0  0
   61.6491   34.1508   53.9158 H   0  0  0  0  0  0  0  0  0  0  0  0
   65.5627   33.8481   50.2936 H   0  0  0  0  0  0  0  0  0  0  0  0
   65.4917   32.2901   51.2272 H   0  0  0  0  0  0  0  0  0  0  0  0
   65.0223   32.4175   48.5708 H   0  0  0  0  0  0  0  0  0  0  0  0
   64.1916   31.2446   49.6908 H   0  0  0  0  0  0  0  0  0  0  0  0
   60.2835   33.1167   45.9127 H   0  0  0  0  0  0  0  0  0  0  0  0
  1  2  1  0
  2  3  2  0
  3  4  1  0
  4  5  2  3
  5  6  1  0
  6  7  2  0
  6  8  1  0
  8  9  1  0
  9 10  1  0
 10 11  2  0
 10 12  1  0
 12 13  2  0
 13 14  1  0
 14 15  2  0
 15 16  1  0
 16 17  1  0
 17 18  2  0
 17 19  2  0
 17 20  1  0
 20 21  1  0
 21 22  1  0
 22 23  1  0
 23 24  1  0
 24 25  1  0
 25 26  2  0
 26 27  1  0
 27 28  2  0
 28 29  1  0
 29 30  2  0
 23 31  1  0
 31 32  1  0
 16 33  2  0
  4 34  1  0
 34 35  1  0
 35  2  1  0
 33 12  1  0
 32 20  1  0
 30 25  1  0
  1 36  1  0
  1 37  1  0
  1 38  1  0
  3 39  1  0
  8 40  1  0
  8 41  1  0
 13 42  1  0
 14 43  1  0
 15 44  1  0
 20 45  1  0
 21 46  1  0
 21 47  1  0
 22 48  1  0
 22 49  1  0
 24 50  1  0
 24 51  1  0
 26 52  1  0
 27 53  1  0
 28 54  1  0
 29 55  1  0
 30 56  1  0
 31 57  1  0
 31 58  1  0
 32 59  1  0
 32 60  1  0
 33 61  1  0
M  CHG  3   9  -1  20   1  34  -1
M  END
>  <UniqueID>  (56) 
52

>  <SMILES>  (56) 
Cc1cc(=NC(=O)C[N-]C(=O)c2cccc(S(=O)(=O)[NH+]3CCN(Cc4ccccc4)CC3)c2)[n-]o1

>  <Energy>  (56) 
104.9223962433075

>  <Genealogy>  (56) 
Cc1cc(=NC(=O)C[N-]C(=O)c2cccc(S(=O)(=O)[NH+]3CCN(Cc4ccccc4)CC3)c2)[n-]o1 (protonated)
Cc1cc(=NC(=O)C[N-]C(=O)c2cccc(S(=O)(=O)[NH+]3CCN(Cc4ccccc4)CC3)c2)[n-]o1 (3D coordinates assigned)
Cc1cc(=NC(=O)C[N-]C(=O)c2cccc(S(=O)(=O)[NH+]3CCN(Cc4ccccc4)CC3)c2)[n-]o1 (nonaromatic ring conformer: 104.9223962433075 kcal/mol)

>  <smiles>  (56) 
Cc1cc(=NC(=O)CNC(=O)c2cccc(S(=O)(=O)N3CCN(Cc4ccccc4)CC3)c2)[nH]o1

>  <score_type>  (56) 
oracle

>  <origin>  (56) 
adg

>  <m_score__min__energy>  (56) 
-13.550000000000001

>  <m_primary>  (56) 
energy

$$$$
56:0
     RDKit          3D

 57 60  0  0  0  0  0  0  0  0999 V2000
   57.0040   23.4500   47.8630 C   0  0  0  0  0  0  0  0  0  0  0  0
   56.9480   24.0030   46.6480 C   0  0  0  0  0  0  0  0  0  0  0  0
   56.7840   23.3000   45.4690 C   0  0  0  0  0  0  0  0  0  0  0  0
   56.7760   24.2440   44.4610 C   0  0  0  0  0  0  0  0  0  0  0  0
   56.6850   23.9460   43.0000 C   0  0  0  0  0  0  0  0  0  0  0  0
   56.9440   25.4820   44.9630 N   0  0  0  0  0  0  0  0  0  0  0  0
   57.0490   25.3520   46.3060 C   0  0  0  0  0  0  0  0  0  0  0  0
   57.2100   26.3860   47.1540 C   0  0  0  0  0  0  0  0  0  0  0  0
   57.9560   27.6130   46.7930 C   0  0  0  0  0  0  0  0  0  0  0  0
   57.5570   28.4040   45.7050 C   0  0  0  0  0  0  0  0  0  0  0  0
   56.4400   28.0480   44.9380 O   0  0  0  0  0  0  0  0  0  0  0  0
   58.2670   29.5300   45.3810 N   0  0  0  0  0  0  0  0  0  0  0  0
   57.8410   30.3600   44.2340 C   0  0  0  0  0  0  0  0  0  0  0  0
   56.5290   31.0490   44.5200 C   0  0  0  0  0  0  0  0  0  0  0  0
   55.4490   30.4530   44.2670 O   0  0  0  0  0  0  0  0  0  0  0  0
   56.4770   32.4270   44.9100 N   0  0  0  0  0  0  0  0  0  0  0  0
   57.5860   33.2230   45.3460 C   0  0  0  0  0  0  0  0  0  0  0  0
   58.4610   33.8210   44.4220 C   0  0  0  0  0  0  0  0  0  0  0  0
   59.5580   34.5620   44.8690 C   0  0  0  0  0  0  0  0  0  0  0  0
   59.8020   34.6940   46.2380 C   0  0  0  0  0  0  0  0  0  0  0  0
   58.9560   34.0740   47.1620 C   0  0  0  0  0  0  0  0  0  0  0  0
   57.8560   33.3300   46.7170 C   0  0  0  0  0  0  0  0  0  0  0  0
   57.0460   32.7280   47.6230 F   0  0  0  0  0  0  0  0  0  0  0  0
   59.3510   29.9060   46.1340 C   0  0  0  0  0  0  0  0  0  0  0  0
   59.9890   30.9530   45.8300 O   0  0  0  0  0  0  0  0  0  0  0  0
   59.7480   29.1590   47.2150 N   0  0  0  0  0  0  0  0  0  0  0  0
   60.9610   29.5420   47.9700 C   0  0  0  0  0  0  0  0  0  0  0  0
   60.6720   30.7330   48.8480 C   0  0  0  0  0  0  0  0  0  0  0  0
   61.7250   31.5160   49.3490 C   0  0  0  0  0  0  0  0  0  0  0  0
   61.4560   32.6470   50.1280 C   0  0  0  0  0  0  0  0  0  0  0  0
   60.1340   33.0050   50.4090 C   0  0  0  0  0  0  0  0  0  0  0  0
   59.8750   34.1010   51.1640 F   0  0  0  0  0  0  0  0  0  0  0  0
   59.0800   32.2330   49.9120 C   0  0  0  0  0  0  0  0  0  0  0  0
   59.3460   31.1040   49.1320 C   0  0  0  0  0  0  0  0  0  0  0  0
   59.0540   28.0300   47.5580 C   0  0  0  0  0  0  0  0  0  0  0  0
   59.3890   27.3600   48.5750 O   0  0  0  0  0  0  0  0  0  0  0  0
   57.1369   24.0855   48.7509 H   0  0  0  0  0  0  0  0  0  0  0  0
   56.9172   22.3592   47.9753 H   0  0  0  0  0  0  0  0  0  0  0  0
   56.6809   22.2106   45.3566 H   0  0  0  0  0  0  0  0  0  0  0  0
   56.3664   22.9028   42.8577 H   0  0  0  0  0  0  0  0  0  0  0  0
   55.9518   24.6202   42.5332 H   0  0  0  0  0  0  0  0  0  0  0  0
   57.6698   24.0956   42.5332 H   0  0  0  0  0  0  0  0  0  0  0  0
   56.9700   26.3630   44.4040 H   0  0  0  0  0  0  0  0  0  0  0  0
   56.7679   26.3158   48.1588 H   0  0  0  0  0  0  0  0  0  0  0  0
   56.2230   28.4640   44.0420 H   0  0  0  0  0  0  0  0  0  0  0  0
   58.6105   31.1206   44.0354 H   0  0  0  0  0  0  0  0  0  0  0  0
   57.7091   29.7062   43.3593 H   0  0  0  0  0  0  0  0  0  0  0  0
   58.2812   33.7050   43.3430 H   0  0  0  0  0  0  0  0  0  0  0  0
   60.2300   35.0418   44.1422 H   0  0  0  0  0  0  0  0  0  0  0  0
   60.6601   35.2860   46.5890 H   0  0  0  0  0  0  0  0  0  0  0  0
   59.1544   34.1705   48.2396 H   0  0  0  0  0  0  0  0  0  0  0  0
   61.2807   28.6969   48.5974 H   0  0  0  0  0  0  0  0  0  0  0  0
   61.7587   29.8044   47.2595 H   0  0  0  0  0  0  0  0  0  0  0  0
   62.7663   31.2388   49.1279 H   0  0  0  0  0  0  0  0  0  0  0  0
   62.2851   33.2547   50.5195 H   0  0  0  0  0  0  0  0  0  0  0  0
   58.0402   32.5142   50.1349 H   0  0  0  0  0  0  0  0  0  0  0  0
   58.5134   30.5026   48.7383 H   0  0  0  0  0  0  0  0  0  0  0  0
  1  2  2  0
  2  3  1  0
  3  4  2  0
  4  5  1  0
  4  6  1  0
  6  7  1  0
  7  8  2  3
  8  9  1  0
  9 10  2  0
 10 11  1  0
 10 12  1  0
 12 13  1  0
 13 14  1  0
 14 15  2  0
 14 16  1  0
 16 17  1  0
 17 18  2  0
 18 19  1  0
 19 20  2  0
 20 21  1  0
 21 22  2  0
 22 23  1  0
 12 24  1  0
 24 25  2  0
 24 26  1  0
 26 27  1  0
 27 28  1  0
 28 29  2  0
 29 30  1  0
 30 31  2  0
 31 32  1  0
 31 33  1  0
 33 34  2  0
 26 35  1  0
 35 36  2  0
  7  2  1  0
 35  9  1  0
 22 17  1  0
 34 28  1  0
  1 37  1  0
  1 38  1  0
  3 39  1  0
  5 40  1  0
  5 41  1  0
  5 42  1  0
  6 43  1  0
  8 44  1  0
 11 45  1  0
 13 46  1  0
 13 47  1  0
 18 48  1  0
 19 49  1  0
 20 50  1  0
 21 51  1  0
 27 52  1  0
 27 53  1  0
 29 54  1  0
 30 55  1  0
 33 56  1  0
 34 57  1  0
M  CHG  1  16  -1
M  END
>  <UniqueID>  (57) 
53

>  <SMILES>  (57) 
C=c1cc(C)[nH]c1=Cc1c(O)n(CC(=O)[N-]c2ccccc2F)c(=O)n(Cc2ccc(F)cc2)c1=O

>  <Energy>  (57) 
108.7832003454793

>  <Genealogy>  (57) 
C=c1cc(C)[nH]c1=Cc1c(O)n(CC(=O)[N-]c2ccccc2F)c(=O)n(Cc2ccc(F)cc2)c1=O (protonated)
C=c1cc(C)[nH]c1=Cc1c(O)n(CC(=O)[N-]c2ccccc2F)c(=O)n(Cc2ccc(F)cc2)c1=O (3D coordinates assigned)
C=c1cc(C)[nH]c1=Cc1c(O)n(CC(=O)[N-]c2ccccc2F)c(=O)n(Cc2ccc(F)cc2)c1=O (optimized conformer: 108.7832003454793 kcal/mol)

>  <smiles>  (57) 
C=c1cc(C)[nH]c1=Cc1c(O)n(CC(=O)Nc2ccccc2F)c(=O)n(Cc2ccc(F)cc2)c1=O

>  <score_type>  (57) 
oracle

>  <origin>  (57) 
adg

>  <m_score__min__energy>  (57) 
-10.539999999999999

>  <m_primary>  (57) 
energy

$$$$
57:0
     RDKit          3D

 62 65  0  0  0  0  0  0  0  0999 V2000
   56.3330   30.3850   42.1960 N   0  0  0  0  0  0  0  0  0  0  0  0
   57.0200   30.9590   43.6740 S   0  0  0  0  0  0  0  0  0  0  0  0
   55.9570   31.6400   44.4920 O   0  0  0  0  0  0  0  0  0  0  0  0
   58.1070   31.9520   43.3670 O   0  0  0  0  0  0  0  0  0  0  0  0
   57.6680   29.5880   44.5730 C   0  0  0  0  0  0  0  0  0  0  0  0
   57.4050   28.2750   44.1770 C   0  0  0  0  0  0  0  0  0  0  0  0
   57.8800   27.2350   44.9100 N   0  0  0  0  0  0  0  0  0  0  0  0
   58.6060   27.4190   46.0470 C   0  0  0  0  0  0  0  0  0  0  0  0
   59.1100   26.3150   46.7460 O   0  0  0  0  0  0  0  0  0  0  0  0
   58.2940   25.2860   47.2930 C   0  0  0  0  0  0  0  0  0  0  0  0
   57.5690   24.5690   46.1810 C   0  0  0  0  0  0  0  0  0  0  0  0
   58.2400   23.5520   45.4740 C   0  0  0  0  0  0  0  0  0  0  0  0
   57.5980   22.8670   44.4390 C   0  0  0  0  0  0  0  0  0  0  0  0
   56.2790   23.1890   44.0980 C   0  0  0  0  0  0  0  0  0  0  0  0
   55.5970   24.1910   44.8020 C   0  0  0  0  0  0  0  0  0  0  0  0
   56.2320   24.8790   45.8440 C   0  0  0  0  0  0  0  0  0  0  0  0
   55.5330   25.8680   46.5320 O   0  0  0  0  0  0  0  0  0  0  0  0
   58.8800   28.7260   46.4970 C   0  0  0  0  0  0  0  0  0  0  0  0
   59.6250   28.9750   47.7490 C   0  0  0  0  0  0  0  0  0  0  0  0
   59.1770   28.5490   48.8490 O   0  0  0  0  0  0  0  0  0  0  0  0
   60.8650   29.6880   47.7110 N   0  0  0  0  0  0  0  0  0  0  0  0
   61.0800   30.9020   46.9340 C   0  0  0  0  0  0  0  0  0  0  0  0
   61.8620   31.9340   47.7170 C   0  0  0  0  0  0  0  0  0  0  0  0
   63.1070   31.5670   48.2690 C   0  0  0  0  0  0  0  0  0  0  0  0
   63.8540   32.4790   49.0170 C   0  0  0  0  0  0  0  0  0  0  0  0
   63.3810   33.7780   49.2000 C   0  0  0  0  0  0  0  0  0  0  0  0
   62.1520   34.1630   48.6590 C   0  0  0  0  0  0  0  0  0  0  0  0
   61.3760   33.2470   47.9320 C   0  0  0  0  0  0  0  0  0  0  0  0
   60.0940   33.6630   47.4380 N   0  0  0  0  0  0  0  0  0  0  0  0
   60.0020   34.8160   46.5340 C   0  0  0  0  0  0  0  0  0  0  0  0
   59.1470   34.4790   45.2970 C   0  0  0  0  0  0  0  0  0  0  0  0
   57.9370   33.5530   45.6040 C   0  0  0  0  0  0  0  0  0  0  0  0
   56.7480   34.0300   44.8940 N   0  0  0  0  0  0  0  0  0  0  0  0
   57.6510   33.4530   47.1140 C   0  0  0  0  0  0  0  0  0  0  0  0
   58.8910   32.9310   47.8420 C   0  0  0  0  0  0  0  0  0  0  0  0
   58.4120   29.8100   45.7370 C   0  0  0  0  0  0  0  0  0  0  0  0
   55.4040   29.9710   42.4460 H   0  0  0  0  0  0  0  0  0  0  0  0
   56.8125   28.0828   43.2704 H   0  0  0  0  0  0  0  0  0  0  0  0
   58.9253   24.5700   47.8396 H   0  0  0  0  0  0  0  0  0  0  0  0
   57.5594   25.7297   47.9810 H   0  0  0  0  0  0  0  0  0  0  0  0
   59.2764   23.2953   45.7385 H   0  0  0  0  0  0  0  0  0  0  0  0
   58.1293   22.0743   43.8919 H   0  0  0  0  0  0  0  0  0  0  0  0
   55.7775   22.6554   43.2772 H   0  0  0  0  0  0  0  0  0  0  0  0
   54.5589   24.4381   44.5351 H   0  0  0  0  0  0  0  0  0  0  0  0
   61.6391   30.6474   46.0216 H   0  0  0  0  0  0  0  0  0  0  0  0
   60.0975   31.3302   46.6864 H   0  0  0  0  0  0  0  0  0  0  0  0
   63.4941   30.5500   48.1082 H   0  0  0  0  0  0  0  0  0  0  0  0
   64.8131   32.1737   49.4608 H   0  0  0  0  0  0  0  0  0  0  0  0
   63.9783   34.5026   49.7729 H   0  0  0  0  0  0  0  0  0  0  0  0
   61.7898   35.1915   48.8038 H   0  0  0  0  0  0  0  0  0  0  0  0
   59.5419   35.6586   47.0709 H   0  0  0  0  0  0  0  0  0  0  0  0
   61.0156   35.0810   46.1987 H   0  0  0  0  0  0  0  0  0  0  0  0
   58.7652   35.4193   44.8727 H   0  0  0  0  0  0  0  0  0  0  0  0
   59.7975   33.9345   44.5967 H   0  0  0  0  0  0  0  0  0  0  0  0
   58.1952   32.5432   45.2524 H   0  0  0  0  0  0  0  0  0  0  0  0
   55.9010   33.6590   45.3690 H   0  0  0  0  0  0  0  0  0  0  0  0
   56.7470   33.5980   43.9430 H   0  0  0  0  0  0  0  0  0  0  0  0
   57.3908   34.4484   47.5032 H   0  0  0  0  0  0  0  0  0  0  0  0
   56.8132   32.7598   47.2802 H   0  0  0  0  0  0  0  0  0  0  0  0
   58.7465   33.0499   48.9260 H   0  0  0  0  0  0  0  0  0  0  0  0
   59.0259   31.8710   47.5809 H   0  0  0  0  0  0  0  0  0  0  0  0
   58.6314   30.8389   46.0583 H   0  0  0  0  0  0  0  0  0  0  0  0
  1  2  1  0
  2  3  2  0
  2  4  2  0
  2  5  1  0
  5  6  2  0
  6  7  1  0
  7  8  2  0
  8  9  1  0
  9 10  1  0
 10 11  1  0
 11 12  2  0
 12 13  1  0
 13 14  2  0
 14 15  1  0
 15 16  2  0
 16 17  1  0
  8 18  1  0
 18 19  1  0
 19 20  2  0
 19 21  1  0
 21 22  1  0
 22 23  1  0
 23 24  2  0
 24 25  1  0
 25 26  2  0
 26 27  1  0
 27 28  2  0
 28 29  1  0
 29 30  1  0
 30 31  1  0
 31 32  1  0
 32 33  1  0
 32 34  1  0
 34 35  1  0
 18 36  2  0
 36  5  1  0
 16 11  1  0
 28 23  1  0
 35 29  1  0
  1 37  1  0
  6 38  1  0
 10 39  1  0
 10 40  1  0
 12 41  1  0
 13 42  1  0
 14 43  1  0
 15 44  1  0
 22 45  1  0
 22 46  1  0
 24 47  1  0
 25 48  1  0
 26 49  1  0
 27 50  1  0
 30 51  1  0
 30 52  1  0
 31 53  1  0
 31 54  1  0
 32 55  1  0
 33 56  1  0
 33 57  1  0
 34 58  1  0
 34 59  1  0
 35 60  1  0
 35 61  1  0
 36 62  1  0
M  CHG  3   1  -1  17  -1  21  -1
M  END
>  <UniqueID>  (58) 
54

>  <SMILES>  (58) 
[NH-]S(=O)(=O)c1cnc(OCc2ccccc2[O-])c(C(=O)[N-]Cc2ccccc2N2CCC(N)CC2)c1

>  <Energy>  (58) 
71.51051841938278

>  <Genealogy>  (58) 
[NH-]S(=O)(=O)c1cnc(OCc2ccccc2[O-])c(C(=O)[N-]Cc2ccccc2N2CCC(N)CC2)c1 (protonated)
[NH-]S(=O)(=O)c1cnc(OCc2ccccc2[O-])c(C(=O)[N-]Cc2ccccc2N2CCC(N)CC2)c1 (3D coordinates assigned)
[NH-]S(=O)(=O)c1cnc(OCc2ccccc2[O-])c(C(=O)[N-]Cc2ccccc2N2CCC(N)CC2)c1 (nonaromatic ring conformer: 71.51051841938278 kcal/mol)

>  <smiles>  (58) 
NC1CCN(c2ccccc2CNC(=O)c2cc(S(N)(=O)=O)cnc2OCc2ccccc2O)CC1

>  <score_type>  (58) 
oracle

>  <origin>  (58) 
adg

>  <m_score__min__energy>  (58) 
-15.01

>  <m_primary>  (58) 
energy

$$$$
58:0
     RDKit          3D

 55 58  0  0  0  0  0  0  0  0999 V2000
   55.6080   28.7620   44.8610 O   0  0  0  0  0  0  0  0  0  0  0  0
   56.4210   29.5920   44.3740 C   0  0  0  0  0  0  0  0  0  0  0  0
   56.2170   30.9880   44.6200 N   0  0  0  0  0  0  0  0  0  0  0  0
   57.2110   31.9140   45.0780 C   0  0  0  0  0  0  0  0  0  0  0  0
   58.4650   31.4790   45.5430 C   0  0  0  0  0  0  0  0  0  0  0  0
   59.3990   32.4050   46.0180 C   0  0  0  0  0  0  0  0  0  0  0  0
   59.0830   33.7680   46.0470 C   0  0  0  0  0  0  0  0  0  0  0  0
   60.2550   34.9280   46.6450 Cl  0  0  0  0  0  0  0  0  0  0  0  0
   57.8290   34.2020   45.6090 C   0  0  0  0  0  0  0  0  0  0  0  0
   56.8930   33.2770   45.1350 C   0  0  0  0  0  0  0  0  0  0  0  0
   57.4960   29.1400   43.5360 N   0  0  0  0  0  0  0  0  0  0  0  0
   57.8010   27.7240   43.3480 C   0  0  0  0  0  0  0  0  0  0  0  0
   58.0160   27.0530   44.6770 C   0  0  0  0  0  0  0  0  0  0  0  0
   57.6860   25.7000   44.8400 C   0  0  0  0  0  0  0  0  0  0  0  0
   57.8700   25.0750   46.0740 C   0  0  0  0  0  0  0  0  0  0  0  0
   58.3820   25.7930   47.1570 C   0  0  0  0  0  0  0  0  0  0  0  0
   58.7170   27.1520   47.0170 C   0  0  0  0  0  0  0  0  0  0  0  0
   59.2630   27.9160   48.1640 C   0  0  0  0  0  0  0  0  0  0  0  0
   60.3970   27.6230   48.6330 O   0  0  0  0  0  0  0  0  0  0  0  0
   58.5240   29.0190   48.7080 N   0  0  0  0  0  0  0  0  0  0  0  0
   59.0710   30.2390   49.2290 C   0  0  0  0  0  0  0  0  0  0  0  0
   58.4870   30.9100   50.3160 C   0  0  0  0  0  0  0  0  0  0  0  0
   59.0320   32.1110   50.7730 C   0  0  0  0  0  0  0  0  0  0  0  0
   60.1540   32.6590   50.1480 C   0  0  0  0  0  0  0  0  0  0  0  0
   60.7430   32.0160   49.0410 C   0  0  0  0  0  0  0  0  0  0  0  0
   61.9010   32.5850   48.3860 N   0  0  0  0  0  0  0  0  0  0  0  0
   62.5820   33.7890   48.8400 C   0  0  0  0  0  0  0  0  0  0  0  0
   63.6200   34.1080   47.7740 C   0  0  0  0  0  0  0  0  0  0  0  0
   63.7950   32.8260   46.9690 C   0  0  0  0  0  0  0  0  0  0  0  0
   62.5250   32.0180   47.1990 C   0  0  0  0  0  0  0  0  0  0  0  0
   60.1800   30.8060   48.5880 C   0  0  0  0  0  0  0  0  0  0  0  0
   58.5290   27.7750   45.7680 C   0  0  0  0  0  0  0  0  0  0  0  0
   58.7118   30.4071   45.5330 H   0  0  0  0  0  0  0  0  0  0  0  0
   60.3832   32.0617   46.3693 H   0  0  0  0  0  0  0  0  0  0  0  0
   57.5776   35.2725   45.6370 H   0  0  0  0  0  0  0  0  0  0  0  0
   55.9018   33.6217   44.8052 H   0  0  0  0  0  0  0  0  0  0  0  0
   58.0650   29.8400   43.0080 H   0  0  0  0  0  0  0  0  0  0  0  0
   56.9619   27.2384   42.8283 H   0  0  0  0  0  0  0  0  0  0  0  0
   58.7196   27.6332   42.7497 H   0  0  0  0  0  0  0  0  0  0  0  0
   57.2805   25.1290   43.9918 H   0  0  0  0  0  0  0  0  0  0  0  0
   57.6108   24.0128   46.1942 H   0  0  0  0  0  0  0  0  0  0  0  0
   58.5243   25.2924   48.1261 H   0  0  0  0  0  0  0  0  0  0  0  0
   57.5983   30.4881   50.8082 H   0  0  0  0  0  0  0  0  0  0  0  0
   58.5754   32.6283   51.6297 H   0  0  0  0  0  0  0  0  0  0  0  0
   60.5817   33.6005   50.5229 H   0  0  0  0  0  0  0  0  0  0  0  0
   61.8669   34.6191   48.9383 H   0  0  0  0  0  0  0  0  0  0  0  0
   63.0474   33.6424   49.8259 H   0  0  0  0  0  0  0  0  0  0  0  0
   63.2652   34.9224   47.1252 H   0  0  0  0  0  0  0  0  0  0  0  0
   64.5696   34.4394   48.2195 H   0  0  0  0  0  0  0  0  0  0  0  0
   63.9139   33.0575   45.9002 H   0  0  0  0  0  0  0  0  0  0  0  0
   64.6916   32.2702   47.2807 H   0  0  0  0  0  0  0  0  0  0  0  0
   61.8524   32.1076   46.3332 H   0  0  0  0  0  0  0  0  0  0  0  0
   62.7450   30.9483   47.3302 H   0  0  0  0  0  0  0  0  0  0  0  0
   60.6188   30.2983   47.7164 H   0  0  0  0  0  0  0  0  0  0  0  0
   58.7863   28.8374   45.6452 H   0  0  0  0  0  0  0  0  0  0  0  0
  1  2  2  0
  2  3  1  0
  3  4  1  0
  4  5  2  0
  5  6  1  0
  6  7  2  0
  7  8  1  0
  7  9  1  0
  9 10  2  0
  2 11  1  0
 11 12  1  0
 12 13  1  0
 13 14  2  0
 14 15  1  0
 15 16  2  0
 16 17  1  0
 17 18  1  0
 18 19  2  0
 18 20  1  0
 20 21  1  0
 21 22  2  0
 22 23  1  0
 23 24  2  0
 24 25  1  0
 25 26  1  0
 26 27  1  0
 27 28  1  0
 28 29  1  0
 29 30  1  0
 25 31  2  0
 17 32  2  0
 10  4  1  0
 32 13  1  0
 31 21  1  0
 30 26  1  0
  5 33  1  0
  6 34  1  0
  9 35  1  0
 10 36  1  0
 11 37  1  0
 12 38  1  0
 12 39  1  0
 14 40  1  0
 15 41  1  0
 16 42  1  0
 22 43  1  0
 23 44  1  0
 24 45  1  0
 27 46  1  0
 27 47  1  0
 28 48  1  0
 28 49  1  0
 29 50  1  0
 29 51  1  0
 30 52  1  0
 30 53  1  0
 31 54  1  0
 32 55  1  0
M  CHG  2   3  -1  20  -1
M  END
>  <UniqueID>  (59) 
55

>  <SMILES>  (59) 
O=C([N-]c1ccc(Cl)cc1)NCc1cccc(C(=O)[N-]c2cccc(N3CCCC3)c2)c1

>  <Energy>  (59) 
65.59628150275734

>  <Genealogy>  (59) 
O=C([N-]c1ccc(Cl)cc1)NCc1cccc(C(=O)[N-]c2cccc(N3CCCC3)c2)c1 (protonated)
O=C([N-]c1ccc(Cl)cc1)NCc1cccc(C(=O)[N-]c2cccc(N3CCCC3)c2)c1 (3D coordinates assigned)
O=C([N-]c1ccc(Cl)cc1)NCc1cccc(C(=O)[N-]c2cccc(N3CCCC3)c2)c1 (nonaromatic ring conformer: 65.59628150275734 kcal/mol)

>  <smiles>  (59) 
O=C(NCc1cccc(C(=O)Nc2cccc(N3CCCC3)c2)c1)Nc1ccc(Cl)cc1

>  <score_type>  (59) 
oracle

>  <origin>  (59) 
adg

>  <m_score__min__energy>  (59) 
-12.68

>  <m_primary>  (59) 
energy

$$$$
59:0
     RDKit          3D

 45 47  0  0  0  0  0  0  0  0999 V2000
   60.6510   30.3580   46.0470 C   0  0  0  0  0  0  0  0  0  0  0  0
   59.4830   29.9240   45.5170 C   0  0  0  0  0  0  0  0  0  0  0  0
   59.3710   28.5530   45.1710 C   0  0  0  0  0  0  0  0  0  0  0  0
   60.3290   27.7640   45.4050 O   0  0  0  0  0  0  0  0  0  0  0  0
   58.1660   28.0740   44.6090 C   0  0  0  0  0  0  0  0  0  0  0  0
   57.9780   26.7900   44.2120 C   0  0  0  0  0  0  0  0  0  0  0  0
   57.3440   25.7130   45.0010 C   0  0  0  0  0  0  0  0  0  0  0  0
   57.9040   24.4250   45.0180 C   0  0  0  0  0  0  0  0  0  0  0  0
   57.2850   23.3830   45.7190 C   0  0  0  0  0  0  0  0  0  0  0  0
   57.9020   22.1210   45.7140 O   0  0  0  0  0  0  0  0  0  0  0  0
   57.7130   21.1140   44.7210 C   0  0  0  0  0  0  0  0  0  0  0  0
   56.3200   21.1610   44.1770 C   0  0  0  0  0  0  0  0  0  0  0  0
   55.3450   20.8330   44.9030 O   0  0  0  0  0  0  0  0  0  0  0  0
   56.0940   21.5920   42.8750 O   0  0  0  0  0  0  0  0  0  0  0  0
   56.0780   23.6360   46.3980 C   0  0  0  0  0  0  0  0  0  0  0  0
   55.5020   24.9100   46.3590 C   0  0  0  0  0  0  0  0  0  0  0  0
   56.1250   25.9450   45.6570 C   0  0  0  0  0  0  0  0  0  0  0  0
   55.5310   27.2020   45.6220 O   0  0  0  0  0  0  0  0  0  0  0  0
   57.1250   28.9400   44.4870 N   0  0  0  0  0  0  0  0  0  0  0  0
   57.2260   30.2510   44.8220 C   0  0  0  0  0  0  0  0  0  0  0  0
   56.2140   30.9920   44.6640 O   0  0  0  0  0  0  0  0  0  0  0  0
   58.4010   30.7690   45.3140 N   0  0  0  0  0  0  0  0  0  0  0  0
   58.4280   32.2220   45.6230 C   0  0  0  0  0  0  0  0  0  0  0  0
   58.7610   32.4610   47.0770 C   0  0  0  0  0  0  0  0  0  0  0  0
   58.5120   31.4610   48.0350 C   0  0  0  0  0  0  0  0  0  0  0  0
   58.8330   31.6740   49.3790 C   0  0  0  0  0  0  0  0  0  0  0  0
   59.4050   32.8830   49.7810 C   0  0  0  0  0  0  0  0  0  0  0  0
   59.6570   33.8810   48.8380 C   0  0  0  0  0  0  0  0  0  0  0  0
   59.3390   33.6740   47.4920 C   0  0  0  0  0  0  0  0  0  0  0  0
   60.7692   31.4155   46.3257 H   0  0  0  0  0  0  0  0  0  0  0  0
   61.4816   29.6530   46.1989 H   0  0  0  0  0  0  0  0  0  0  0  0
   58.3320   26.5250   43.2048 H   0  0  0  0  0  0  0  0  0  0  0  0
   58.8404   24.2326   44.4739 H   0  0  0  0  0  0  0  0  0  0  0  0
   58.4267   21.2781   43.9002 H   0  0  0  0  0  0  0  0  0  0  0  0
   57.8795   20.1288   45.1810 H   0  0  0  0  0  0  0  0  0  0  0  0
   55.5863   22.8291   46.9611 H   0  0  0  0  0  0  0  0  0  0  0  0
   54.5537   25.0980   46.8837 H   0  0  0  0  0  0  0  0  0  0  0  0
   56.2090   28.6070   44.1030 H   0  0  0  0  0  0  0  0  0  0  0  0
   59.1886   32.7091   44.9952 H   0  0  0  0  0  0  0  0  0  0  0  0
   57.4322   32.6420   45.4183 H   0  0  0  0  0  0  0  0  0  0  0  0
   58.0623   30.5063   47.7248 H   0  0  0  0  0  0  0  0  0  0  0  0
   58.6345   30.8873   50.1217 H   0  0  0  0  0  0  0  0  0  0  0  0
   59.6565   33.0486   50.8390 H   0  0  0  0  0  0  0  0  0  0  0  0
   60.1072   34.8334   49.1547 H   0  0  0  0  0  0  0  0  0  0  0  0
   59.5420   34.4641   46.7541 H   0  0  0  0  0  0  0  0  0  0  0  0
  1  2  2  0
  2  3  1  0
  3  4  2  0
  3  5  1  0
  5  6  2  3
  6  7  1  0
  7  8  2  0
  8  9  1  0
  9 10  1  0
 10 11  1  0
 11 12  1  0
 12 13  2  0
 12 14  1  0
  9 15  2  0
 15 16  1  0
 16 17  2  0
 17 18  1  0
  5 19  1  0
 19 20  1  0
 20 21  2  0
 20 22  1  0
 22 23  1  0
 23 24  1  0
 24 25  2  0
 25 26  1  0
 26 27  2  0
 27 28  1  0
 28 29  2  0
 22  2  1  0
 29 24  1  0
 17  7  1  0
  1 30  1  0
  1 31  1  0
  6 32  1  0
  8 33  1  0
 11 34  1  0
 11 35  1  0
 15 36  1  0
 16 37  1  0
 19 38  1  0
 23 39  1  0
 23 40  1  0
 25 41  1  0
 26 42  1  0
 27 43  1  0
 28 44  1  0
 29 45  1  0
M  CHG  2  14  -1  18  -1
M  END
>  <UniqueID>  (60) 
56

>  <SMILES>  (60) 
C=c1c(=O)c(=Cc2cc(OCC(=O)[O-])ccc2[O-])[nH]c(=O)n1Cc1ccccc1

>  <Energy>  (60) 
74.15658551444297

>  <Genealogy>  (60) 
C=c1c(=O)c(=Cc2cc(OCC(=O)[O-])ccc2[O-])[nH]c(=O)n1Cc1ccccc1 (protonated)
C=c1c(=O)c(=Cc2cc(OCC(=O)[O-])ccc2[O-])[nH]c(=O)n1Cc1ccccc1 (3D coordinates assigned)
C=c1c(=O)c(=Cc2cc(OCC(=O)[O-])ccc2[O-])[nH]c(=O)n1Cc1ccccc1 (optimized conformer: 74.15658551444297 kcal/mol)

>  <smiles>  (60) 
C=c1c(=O)c(=Cc2cc(OCC(=O)O)ccc2O)[nH]c(=O)n1Cc1ccccc1

>  <score_type>  (60) 
oracle

>  <origin>  (60) 
adg

>  <m_score__min__energy>  (60) 
-14.35

>  <m_primary>  (60) 
energy

$$$$
60:0
     RDKit          3D

 46 49  0  0  0  0  0  0  0  0999 V2000
   60.1349   35.5461   47.9633 H   0  0  0  0  0  0  0  0  0  0  0  0
   59.5520   34.6520   47.6970 C   0  0  0  0  0  0  0  0  0  0  0  0
   59.0150   34.5300   46.4120 C   0  0  0  0  0  0  0  0  0  0  0  0
   59.1732   35.3301   45.6739 H   0  0  0  0  0  0  0  0  0  0  0  0
   58.2750   33.3910   46.0600 C   0  0  0  0  0  0  0  0  0  0  0  0
   57.7130   33.2400   44.6730 C   0  0  0  0  0  0  0  0  0  0  0  0
   58.2430   33.9208   43.9906 H   0  0  0  0  0  0  0  0  0  0  0  0
   56.6409   33.4854   44.6927 H   0  0  0  0  0  0  0  0  0  0  0  0
   57.8770   31.8680   44.2070 N   0  0  0  0  0  0  0  0  0  0  0  0
   56.8860   30.8460   44.3800 C   0  0  0  0  0  0  0  0  0  0  0  0
   55.6870   31.0770   44.0620 O   0  0  0  0  0  0  0  0  0  0  0  0
   57.2670   29.5250   44.9330 C   0  0  0  0  0  0  0  0  0  0  0  0
   58.6200   29.2120   45.1710 C   0  0  0  0  0  0  0  0  0  0  0  0
   59.3989   29.9553   44.9457 H   0  0  0  0  0  0  0  0  0  0  0  0
   58.9820   27.9650   45.6910 C   0  0  0  0  0  0  0  0  0  0  0  0
   60.0414   27.7311   45.8723 H   0  0  0  0  0  0  0  0  0  0  0  0
   57.9980   27.0170   45.9800 C   0  0  0  0  0  0  0  0  0  0  0  0
   58.3350   25.8000   46.4860 N   0  0  0  0  0  0  0  0  0  0  0  0
   57.3850   24.8700   46.7700 C   0  0  0  0  0  0  0  0  0  0  0  0
   57.7260   23.7510   47.2370 O   0  0  0  0  0  0  0  0  0  0  0  0
   56.0340   25.1680   46.5380 C   0  0  0  0  0  0  0  0  0  0  0  0
   55.1350   24.3230   46.7940 O   0  0  0  0  0  0  0  0  0  0  0  0
   55.6960   26.3840   46.0330 N   0  0  0  0  0  0  0  0  0  0  0  0
   56.6420   27.3170   45.7470 C   0  0  0  0  0  0  0  0  0  0  0  0
   56.2800   28.5630   45.2270 C   0  0  0  0  0  0  0  0  0  0  0  0
   55.2197   28.7937   45.0464 H   0  0  0  0  0  0  0  0  0  0  0  0
   58.0920   32.3700   47.0050 C   0  0  0  0  0  0  0  0  0  0  0  0
   57.5240   31.4681   46.7330 H   0  0  0  0  0  0  0  0  0  0  0  0
   58.6280   32.4930   48.2910 C   0  0  0  0  0  0  0  0  0  0  0  0
   58.4816   31.6868   49.0249 H   0  0  0  0  0  0  0  0  0  0  0  0
   59.3520   33.6410   48.6490 C   0  0  0  0  0  0  0  0  0  0  0  0
   59.9420   33.7730   50.0300 C   0  0  0  0  0  0  0  0  0  0  0  0
   59.9929   34.8383   50.2995 H   0  0  0  0  0  0  0  0  0  0  0  0
   59.3021   33.2273   50.7390 H   0  0  0  0  0  0  0  0  0  0  0  0
   61.2890   33.2010   50.0800 N   0  0  0  0  0  0  0  0  0  0  0  0
   62.1090   33.0170   49.0810 C   0  0  0  0  0  0  0  0  0  0  0  0
   62.3320   31.7440   48.5150 C   0  0  0  0  0  0  0  0  0  0  0  0
   61.8053   30.8627   48.9099 H   0  0  0  0  0  0  0  0  0  0  0  0
   63.2250   31.6100   47.4510 C   0  0  0  0  0  0  0  0  0  0  0  0
   63.4061   30.6211   47.0047 H   0  0  0  0  0  0  0  0  0  0  0  0
   63.8870   32.7320   46.9550 C   0  0  0  0  0  0  0  0  0  0  0  0
   64.5942   32.6349   46.1181 H   0  0  0  0  0  0  0  0  0  0  0  0
   63.6440   33.9780   47.5300 C   0  0  0  0  0  0  0  0  0  0  0  0
   64.1589   34.8699   47.1435 H   0  0  0  0  0  0  0  0  0  0  0  0
   62.7710   34.0950   48.5690 N   0  0  0  0  0  0  0  0  0  0  0  0
   62.6120   35.0430   48.9800 H   0  0  0  0  0  0  0  0  0  0  0  0
  1  2  1  0
  2  3  2  0
  3  4  1  0
  3  5  1  0
  5  6  1  0
  6  7  1  0
  6  8  1  0
  6  9  1  0
  9 10  1  0
 10 11  2  0
 10 12  1  0
 12 13  2  0
 13 14  1  0
 13 15  1  0
 15 16  1  0
 15 17  2  0
 17 18  1  0
 18 19  1  0
 19 20  2  0
 19 21  1  0
 21 22  2  0
 21 23  1  0
 23 24  1  0
 24 25  2  0
 25 26  1  0
  5 27  2  0
 27 28  1  0
 27 29  1  0
 29 30  1  0
 29 31  2  0
 31 32  1  0
 32 33  1  0
 32 34  1  0
 32 35  1  0
 35 36  2  0
 36 37  1  0
 37 38  1  0
 37 39  2  0
 39 40  1  0
 39 41  1  0
 41 42  1  0
 41 43  2  0
 43 44  1  0
 43 45  1  0
 45 46  1  0
 31  2  1  0
 45 36  1  0
 25 12  1  0
 24 17  1  0
M  CHG  3   9  -1  18  -1  23  -1
M  END
>  <UniqueID>  (61) 
57

>  <SMILES>  (61) 
O=C([N-]Cc1ccc(C/N=c2\cccc[nH]2)cc1)c1ccc2[n-]c(=O)c(=O)[n-]c2c1

>  <Energy>  (61) 
56.01181823918284

>  <Genealogy>  (61) 
O=C([N-]Cc1ccc(CN=c2cccc[nH]2)cc1)c1ccc2[n-]c(=O)c(=O)[n-]c2c1 (protonated)
O=C([N-]Cc1ccc(C/N=c2\cccc[nH]2)cc1)c1ccc2[n-]c(=O)c(=O)[n-]c2c1 (cis-trans isomerization)
O=C([N-]Cc1ccc(C/N=c2\cccc[nH]2)cc1)c1ccc2[n-]c(=O)c(=O)[n-]c2c1 (3D coordinates assigned)
O=C([N-]Cc1ccc(C/N=c2\cccc[nH]2)cc1)c1ccc2[n-]c(=O)c(=O)[n-]c2c1 (optimized conformer: 56.01181823918284 kcal/mol)

>  <smiles>  (61) 
O=C(NCc1ccc(CN=c2cccc[nH]2)cc1)c1ccc2[nH]c(=O)c(=O)[nH]c2c1

>  <score_type>  (61) 
oracle

>  <origin>  (61) 
adg

>  <m_score__min__energy>  (61) 
-13.35

>  <m_primary>  (61) 
energy

$$$$
61:0
     RDKit          3D

 42 44  0  0  0  0  0  0  0  0999 V2000
   64.1250   32.1130   46.7510 N   0  0  0  0  0  0  0  0  0  0  0  0
   62.8940   33.1680   47.3510 S   0  0  0  0  0  0  0  0  0  0  0  0
   62.1990   33.8400   46.1990 O   0  0  0  0  0  0  0  0  0  0  0  0
   63.5170   34.2230   48.2220 O   0  0  0  0  0  0  0  0  0  0  0  0
   61.7310   32.2360   48.2890 C   0  0  0  0  0  0  0  0  0  0  0  0
   61.4470   32.5920   49.6150 C   0  0  0  0  0  0  0  0  0  0  0  0
   60.5300   31.8470   50.3620 C   0  0  0  0  0  0  0  0  0  0  0  0
   59.8960   30.7390   49.7920 C   0  0  0  0  0  0  0  0  0  0  0  0
   60.1820   30.3720   48.4720 C   0  0  0  0  0  0  0  0  0  0  0  0
   59.5290   29.2350   47.8810 C   0  0  0  0  0  0  0  0  0  0  0  0
   58.9880   28.2840   47.3740 C   0  0  0  0  0  0  0  0  0  0  0  0
   58.3300   27.1540   46.7670 C   0  0  0  0  0  0  0  0  0  0  0  0
   58.1510   25.9910   47.5280 C   0  0  0  0  0  0  0  0  0  0  0  0
   57.5320   24.8710   46.9690 C   0  0  0  0  0  0  0  0  0  0  0  0
   57.0920   24.9040   45.6450 C   0  0  0  0  0  0  0  0  0  0  0  0
   57.2670   26.0580   44.8760 C   0  0  0  0  0  0  0  0  0  0  0  0
   57.8740   27.1980   45.4290 C   0  0  0  0  0  0  0  0  0  0  0  0
   58.0750   28.6440   44.4240 S   0  0  0  0  0  0  0  0  0  0  0  0
   59.5240   28.9440   44.1540 O   0  0  0  0  0  0  0  0  0  0  0  0
   57.3940   28.3830   43.1090 O   0  0  0  0  0  0  0  0  0  0  0  0
   57.3250   30.0340   45.1490 N   0  0  0  0  0  0  0  0  0  0  0  0
   57.7590   31.2390   45.4070 C   0  0  0  0  0  0  0  0  0  0  0  0
   57.9190   31.5520   46.7220 N   0  0  0  0  0  0  0  0  0  0  0  0
   58.3660   32.7590   47.1520 C   0  0  0  0  0  0  0  0  0  0  0  0
   58.6860   33.7490   46.2300 C   0  0  0  0  0  0  0  0  0  0  0  0
   59.2660   35.3140   46.7700 Cl  0  0  0  0  0  0  0  0  0  0  0  0
   58.5410   33.4800   44.8710 C   0  0  0  0  0  0  0  0  0  0  0  0
   58.0790   32.2320   44.4320 C   0  0  0  0  0  0  0  0  0  0  0  0
   57.9530   32.0600   42.6850 Cl  0  0  0  0  0  0  0  0  0  0  0  0
   61.1010   31.1190   47.7210 C   0  0  0  0  0  0  0  0  0  0  0  0
   64.5140   31.5980   47.5740 H   0  0  0  0  0  0  0  0  0  0  0  0
   64.8910   32.7190   46.3830 H   0  0  0  0  0  0  0  0  0  0  0  0
   61.9473   33.4602   50.0689 H   0  0  0  0  0  0  0  0  0  0  0  0
   60.3068   32.1331   51.4004 H   0  0  0  0  0  0  0  0  0  0  0  0
   59.1726   30.1558   50.3808 H   0  0  0  0  0  0  0  0  0  0  0  0
   58.4998   25.9602   48.5708 H   0  0  0  0  0  0  0  0  0  0  0  0
   57.3911   23.9622   47.5726 H   0  0  0  0  0  0  0  0  0  0  0  0
   56.6065   24.0201   45.2057 H   0  0  0  0  0  0  0  0  0  0  0  0
   56.9269   26.0737   43.8300 H   0  0  0  0  0  0  0  0  0  0  0  0
   58.4750   32.9538   48.2291 H   0  0  0  0  0  0  0  0  0  0  0  0
   58.7922   34.2566   44.1335 H   0  0  0  0  0  0  0  0  0  0  0  0
   61.3282   30.8284   46.6847 H   0  0  0  0  0  0  0  0  0  0  0  0
  1  2  1  0
  2  3  2  0
  2  4  2  0
  2  5  1  0
  5  6  2  0
  6  7  1  0
  7  8  2  0
  8  9  1  0
  9 10  1  0
 10 11  3  0
 11 12  1  0
 12 13  2  0
 13 14  1  0
 14 15  2  0
 15 16  1  0
 16 17  2  0
 17 18  1  0
 18 19  2  0
 18 20  2  0
 18 21  1  0
 21 22  2  3
 22 23  1  0
 23 24  1  0
 24 25  2  0
 25 26  1  0
 25 27  1  0
 27 28  2  0
 28 29  1  0
  9 30  2  0
 30  5  1  0
 17 12  1  0
 28 22  1  0
  1 31  1  0
  1 32  1  0
  6 33  1  0
  7 34  1  0
  8 35  1  0
 13 36  1  0
 14 37  1  0
 15 38  1  0
 16 39  1  0
 24 40  1  0
 27 41  1  0
 30 42  1  0
M  CHG  1  23  -1
M  END
>  <UniqueID>  (62) 
58

>  <SMILES>  (62) 
NS(=O)(=O)c1cccc(C#Cc2ccccc2S(=O)(=O)N=c2[n-]cc(Cl)cc2Cl)c1

>  <Energy>  (62) 
56.83551878128664

>  <Genealogy>  (62) 
NS(=O)(=O)c1cccc(C#Cc2ccccc2S(=O)(=O)N=c2[n-]cc(Cl)cc2Cl)c1 (protonated)
NS(=O)(=O)c1cccc(C#Cc2ccccc2S(=O)(=O)N=c2[n-]cc(Cl)cc2Cl)c1 (3D coordinates assigned)
NS(=O)(=O)c1cccc(C#Cc2ccccc2S(=O)(=O)N=c2[n-]cc(Cl)cc2Cl)c1 (optimized conformer: 56.83551878128664 kcal/mol)

>  <smiles>  (62) 
NS(=O)(=O)c1cccc(C#Cc2ccccc2S(=O)(=O)N=c2[nH]cc(Cl)cc2Cl)c1

>  <score_type>  (62) 
oracle

>  <origin>  (62) 
adg

>  <m_score__min__energy>  (62) 
-10.93

>  <m_primary>  (62) 
energy

$$$$
62:0
     RDKit          3D

 35 37  0  0  0  0  0  0  0  0999 V2000
   57.6620   33.0820   47.3550 O   0  0  0  0  0  0  0  0  0  0  0  0
   58.2730   33.0070   46.2580 C   0  0  0  0  0  0  0  0  0  0  0  0
   59.5150   33.7160   46.1200 N   0  0  0  0  0  0  0  0  0  0  0  0
   60.8070   33.2690   46.5530 C   0  0  0  0  0  0  0  0  0  0  0  0
   60.9250   32.0090   47.1520 C   0  0  0  0  0  0  0  0  0  0  0  0
   62.1770   31.5330   47.5550 C   0  0  0  0  0  0  0  0  0  0  0  0
   63.3160   32.3220   47.3770 C   0  0  0  0  0  0  0  0  0  0  0  0
   63.2020   33.5950   46.8120 C   0  0  0  0  0  0  0  0  0  0  0  0
   61.9520   34.0740   46.4100 C   0  0  0  0  0  0  0  0  0  0  0  0
   57.7880   32.0850   45.2010 C   0  0  0  0  0  0  0  0  0  0  0  0
   57.1630   30.9440   45.5950 N   0  0  0  0  0  0  0  0  0  0  0  0
   56.6440   30.0540   44.7100 C   0  0  0  0  0  0  0  0  0  0  0  0
   56.1290   28.9310   45.1140 N   0  0  0  0  0  0  0  0  0  0  0  0
   56.8640   27.7760   45.5560 C   0  0  0  0  0  0  0  0  0  0  0  0
   58.2720   27.7680   45.5940 C   0  0  0  0  0  0  0  0  0  0  0  0
   58.9590   26.6300   46.0260 C   0  0  0  0  0  0  0  0  0  0  0  0
   58.2500   25.4970   46.4360 C   0  0  0  0  0  0  0  0  0  0  0  0
   56.8530   25.5070   46.4280 C   0  0  0  0  0  0  0  0  0  0  0  0
   56.1600   26.6450   45.9980 C   0  0  0  0  0  0  0  0  0  0  0  0
   54.7700   26.6420   45.9960 O   0  0  0  0  0  0  0  0  0  0  0  0
   56.7230   30.3140   43.3810 N   0  0  0  0  0  0  0  0  0  0  0  0
   57.3310   31.4370   42.9200 C   0  0  0  0  0  0  0  0  0  0  0  0
   57.3910   31.6440   41.6790 O   0  0  0  0  0  0  0  0  0  0  0  0
   57.9080   32.3460   43.8160 C   0  0  0  0  0  0  0  0  0  0  0  0
   58.6020   33.4460   43.3040 O   0  0  0  0  0  0  0  0  0  0  0  0
   60.0287   31.3903   47.3064 H   0  0  0  0  0  0  0  0  0  0  0  0
   62.2648   30.5365   48.0125 H   0  0  0  0  0  0  0  0  0  0  0  0
   64.3021   31.9414   47.6814 H   0  0  0  0  0  0  0  0  0  0  0  0
   64.0973   34.2210   46.6834 H   0  0  0  0  0  0  0  0  0  0  0  0
   61.8632   35.0829   45.9807 H   0  0  0  0  0  0  0  0  0  0  0  0
   58.8333   28.6612   45.2824 H   0  0  0  0  0  0  0  0  0  0  0  0
   60.0589   26.6259   46.0434 H   0  0  0  0  0  0  0  0  0  0  0  0
   58.7919   24.5980   46.7648 H   0  0  0  0  0  0  0  0  0  0  0  0
   56.2961   24.6185   46.7604 H   0  0  0  0  0  0  0  0  0  0  0  0
   59.2140   34.0290   43.8580 H   0  0  0  0  0  0  0  0  0  0  0  0
  1  2  2  0
  2  3  1  0
  3  4  1  0
  4  5  2  0
  5  6  1  0
  6  7  2  0
  7  8  1  0
  8  9  2  0
  2 10  1  0
 10 11  1  0
 11 12  1  0
 12 13  2  3
 13 14  1  0
 14 15  2  0
 15 16  1  0
 16 17  2  0
 17 18  1  0
 18 19  2  0
 19 20  1  0
 12 21  1  0
 21 22  1  0
 22 23  2  0
 22 24  1  0
 24 25  1  0
  9  4  1  0
 24 10  2  0
 19 14  1  0
  5 26  1  0
  6 27  1  0
  7 28  1  0
  8 29  1  0
  9 30  1  0
 15 31  1  0
 16 32  1  0
 17 33  1  0
 18 34  1  0
 25 35  1  0
M  CHG  4   3  -1  11  -1  20  -1  21  -1
M  END
>  <UniqueID>  (63) 
59

>  <SMILES>  (63) 
O=C([N-]c1ccccc1)c1[n-]c(=Nc2ccccc2[O-])[n-]c(=O)c1O

>  <Energy>  (63) 
51.85405400608404

>  <Genealogy>  (63) 
O=C([N-]c1ccccc1)c1[n-]c(=Nc2ccccc2[O-])[n-]c(=O)c1O (protonated)
O=C([N-]c1ccccc1)c1[n-]c(=Nc2ccccc2[O-])[n-]c(=O)c1O (3D coordinates assigned)
O=C([N-]c1ccccc1)c1[n-]c(=Nc2ccccc2[O-])[n-]c(=O)c1O (optimized conformer: 51.85405400608404 kcal/mol)

>  <smiles>  (63) 
O=C(Nc1ccccc1)c1[nH]c(=Nc2ccccc2O)[nH]c(=O)c1O

>  <score_type>  (63) 
oracle

>  <origin>  (63) 
adg

>  <m_score__min__energy>  (63) 
-15.68

>  <m_primary>  (63) 
energy

$$$$
63:0
     RDKit          3D

 40 43  0  0  0  0  0  0  0  0999 V2000
   62.1620   32.2940   53.7330 H   0  0  0  0  0  0  0  0  0  0  0  0
   61.2440   32.6730   53.5410 O   0  0  0  0  0  0  0  0  0  0  0  0
   60.7530   32.7590   52.2410 C   0  0  0  0  0  0  0  0  0  0  0  0
   60.9500   33.8210   51.4440 N   0  0  0  0  0  0  0  0  0  0  0  0
   60.3280   33.4570   50.3020 C   0  0  0  0  0  0  0  0  0  0  0  0
   60.2900   34.1980   49.2850 O   0  0  0  0  0  0  0  0  0  0  0  0
   59.7600   32.2330   50.3320 N   0  0  0  0  0  0  0  0  0  0  0  0
   60.0120   31.8030   51.5820 C   0  0  0  0  0  0  0  0  0  0  0  0
   59.7080   30.4490   52.0730 C   0  0  0  0  0  0  0  0  0  0  0  0
   60.5254   29.7130   52.0574 H   0  0  0  0  0  0  0  0  0  0  0  0
   58.5140   30.0340   52.5400 C   0  0  0  0  0  0  0  0  0  0  0  0
   58.3630   28.8630   53.2650 C   0  0  0  0  0  0  0  0  0  0  0  0
   59.1661   28.1834   53.5863 H   0  0  0  0  0  0  0  0  0  0  0  0
   57.0130   28.7120   53.5070 C   0  0  0  0  0  0  0  0  0  0  0  0
   56.4000   27.5570   54.2380 C   0  0  0  0  0  0  0  0  0  0  0  0
   56.4872   27.7213   55.3222 H   0  0  0  0  0  0  0  0  0  0  0  0
   55.3380   27.4718   53.9643 H   0  0  0  0  0  0  0  0  0  0  0  0
   56.9247   26.6297   53.9643 H   0  0  0  0  0  0  0  0  0  0  0  0
   56.3240   29.7490   52.9830 N   0  0  0  0  0  0  0  0  0  0  0  0
   54.9040   29.9460   53.1020 C   0  0  0  0  0  0  0  0  0  0  0  0
   54.2790   29.8220   54.3490 C   0  0  0  0  0  0  0  0  0  0  0  0
   54.8714   29.5488   55.2347 H   0  0  0  0  0  0  0  0  0  0  0  0
   52.9070   30.0440   54.4710 C   0  0  0  0  0  0  0  0  0  0  0  0
   52.4205   29.9462   55.4527 H   0  0  0  0  0  0  0  0  0  0  0  0
   52.1500   30.3900   53.3500 C   0  0  0  0  0  0  0  0  0  0  0  0
   51.0697   30.5685   53.4549 H   0  0  0  0  0  0  0  0  0  0  0  0
   52.7580   30.5120   52.0880 C   0  0  0  0  0  0  0  0  0  0  0  0
   51.9340   30.8850   50.9120 C   0  0  0  0  0  0  0  0  0  0  0  0
   51.8540   30.1400   49.7940 N   0  0  0  0  0  0  0  0  0  0  0  0
   51.0240   30.8440   48.9960 C   0  0  0  0  0  0  0  0  0  0  0  0
   50.6990   30.4570   47.8450 O   0  0  0  0  0  0  0  0  0  0  0  0
   50.5770   32.0000   49.5290 N   0  0  0  0  0  0  0  0  0  0  0  0
   51.1610   32.0170   50.7380 C   0  0  0  0  0  0  0  0  0  0  0  0
   51.0140   33.0640   51.6390 O   0  0  0  0  0  0  0  0  0  0  0  0
   54.1450   30.3030   51.9770 C   0  0  0  0  0  0  0  0  0  0  0  0
   54.6382   30.4204   51.0008 H   0  0  0  0  0  0  0  0  0  0  0  0
   57.2290   30.5880   52.4160 C   0  0  0  0  0  0  0  0  0  0  0  0
   56.9090   31.7970   51.9270 C   0  0  0  0  0  0  0  0  0  0  0  0
   55.8559   32.1121   51.8848 H   0  0  0  0  0  0  0  0  0  0  0  0
   57.6999   32.4723   51.5686 H   0  0  0  0  0  0  0  0  0  0  0  0
  1  2  1  0
  2  3  1  0
  3  4  1  0
  4  5  1  0
  5  6  2  0
  5  7  1  0
  7  8  1  0
  8  9  1  0
  9 10  1  0
  9 11  2  0
 11 12  1  0
 12 13  1  0
 12 14  2  0
 14 15  1  0
 15 16  1  0
 15 17  1  0
 15 18  1  0
 14 19  1  0
 19 20  1  0
 20 21  2  0
 21 22  1  0
 21 23  1  0
 23 24  1  0
 23 25  2  0
 25 26  1  0
 25 27  1  0
 27 28  1  0
 28 29  1  0
 29 30  1  0
 30 31  2  0
 30 32  1  0
 32 33  1  0
 33 34  1  0
 27 35  2  0
 35 36  1  0
 19 37  1  0
 37 38  2  0
 38 39  1  0
 38 40  1  0
  8  3  2  0
 37 11  1  0
 35 20  1  0
 33 28  2  0
M  CHG  5   4  -1   7  -1  29  -1  32  -1  34  -1
M  END
>  <UniqueID>  (64) 
60

>  <SMILES>  (64) 
C=c1/c(=C\c2[n-]c(=O)[n-]c2O)cc(C)n1-c1cccc(-c2[n-]c(=O)[n-]c2[O-])c1

>  <Energy>  (64) 
151.403407208624

>  <Genealogy>  (64) 
C=c1c(=Cc2[n-]c(=O)[n-]c2O)cc(C)n1-c1cccc(-c2[n-]c(=O)[n-]c2[O-])c1 (protonated)
C=c1/c(=C\c2[n-]c(=O)[n-]c2O)cc(C)n1-c1cccc(-c2[n-]c(=O)[n-]c2[O-])c1 (cis-trans isomerization)
C=c1/c(=C\c2[n-]c(=O)[n-]c2O)cc(C)n1-c1cccc(-c2[n-]c(=O)[n-]c2[O-])c1 (3D coordinates assigned)
C=c1/c(=C\c2[n-]c(=O)[n-]c2O)cc(C)n1-c1cccc(-c2[n-]c(=O)[n-]c2[O-])c1 (optimized conformer: 151.403407208624 kcal/mol)

>  <smiles>  (64) 
C=c1c(=Cc2[nH]c(=O)[nH]c2O)cc(C)n1-c1cccc(-c2[nH]c(=O)[nH]c2O)c1

>  <score_type>  (64) 
oracle

>  <origin>  (64) 
adg

>  <m_score__min__energy>  (64) 
-17.329999999999998

>  <m_primary>  (64) 
energy

$$$$
64:0
     RDKit          3D

 42 44  0  0  0  0  0  0  0  0999 V2000
   57.2150   33.1170   46.7910 O   0  0  0  0  0  0  0  0  0  0  0  0
   58.1970   33.3330   46.0300 C   0  0  0  0  0  0  0  0  0  0  0  0
   59.0240   34.5640   46.2220 C   0  0  0  0  0  0  0  0  0  0  0  0
   60.2520   34.2330   47.0240 C   0  0  0  0  0  0  0  0  0  0  0  0
   60.2580   34.4160   48.4170 C   0  0  0  0  0  0  0  0  0  0  0  0
   61.4110   34.1440   49.1570 C   0  0  0  0  0  0  0  0  0  0  0  0
   62.5700   33.6970   48.5150 C   0  0  0  0  0  0  0  0  0  0  0  0
   63.7100   33.4300   49.2660 O   0  0  0  0  0  0  0  0  0  0  0  0
   62.5780   33.5240   47.1200 C   0  0  0  0  0  0  0  0  0  0  0  0
   63.7220   33.0860   46.4550 O   0  0  0  0  0  0  0  0  0  0  0  0
   61.4210   33.7960   46.3810 C   0  0  0  0  0  0  0  0  0  0  0  0
   58.5310   32.4140   44.9830 N   0  0  0  0  0  0  0  0  0  0  0  0
   58.0160   31.0850   44.8290 C   0  0  0  0  0  0  0  0  0  0  0  0
   57.4940   30.7040   43.5870 C   0  0  0  0  0  0  0  0  0  0  0  0
   56.9910   29.4150   43.3960 C   0  0  0  0  0  0  0  0  0  0  0  0
   57.0220   28.4890   44.4410 C   0  0  0  0  0  0  0  0  0  0  0  0
   57.5750   28.8410   45.6820 C   0  0  0  0  0  0  0  0  0  0  0  0
   57.5990   27.8510   46.8160 C   0  0  0  0  0  0  0  0  0  0  0  0
   57.4620   26.4460   46.2880 C   0  0  0  0  0  0  0  0  0  0  0  0
   58.5950   25.6160   46.2140 C   0  0  0  0  0  0  0  0  0  0  0  0
   58.4790   24.2980   45.7630 C   0  0  0  0  0  0  0  0  0  0  0  0
   59.6050   23.4880   45.6880 O   0  0  0  0  0  0  0  0  0  0  0  0
   57.2300   23.7950   45.3860 C   0  0  0  0  0  0  0  0  0  0  0  0
   56.0960   24.6080   45.4660 C   0  0  0  0  0  0  0  0  0  0  0  0
   56.2050   25.9270   45.9190 C   0  0  0  0  0  0  0  0  0  0  0  0
   55.0610   26.7130   45.9980 O   0  0  0  0  0  0  0  0  0  0  0  0
   58.0730   30.1410   45.8710 C   0  0  0  0  0  0  0  0  0  0  0  0
   59.3245   34.9588   45.2402 H   0  0  0  0  0  0  0  0  0  0  0  0
   58.4318   35.3190   46.7598 H   0  0  0  0  0  0  0  0  0  0  0  0
   59.3516   34.7747   48.9266 H   0  0  0  0  0  0  0  0  0  0  0  0
   61.4073   34.2819   50.2483 H   0  0  0  0  0  0  0  0  0  0  0  0
   64.5240   32.7150   46.9500 H   0  0  0  0  0  0  0  0  0  0  0  0
   61.4276   33.6665   45.2887 H   0  0  0  0  0  0  0  0  0  0  0  0
   57.4799   31.4246   42.7560 H   0  0  0  0  0  0  0  0  0  0  0  0
   56.5698   29.1288   42.4210 H   0  0  0  0  0  0  0  0  0  0  0  0
   56.6113   27.4797   44.2908 H   0  0  0  0  0  0  0  0  0  0  0  0
   58.5517   27.9435   47.3581 H   0  0  0  0  0  0  0  0  0  0  0  0
   56.7578   28.0621   47.4926 H   0  0  0  0  0  0  0  0  0  0  0  0
   59.5789   26.0066   46.5130 H   0  0  0  0  0  0  0  0  0  0  0  0
   57.1399   22.7593   45.0264 H   0  0  0  0  0  0  0  0  0  0  0  0
   55.1140   24.2092   45.1716 H   0  0  0  0  0  0  0  0  0  0  0  0
   58.5105   30.4229   46.8401 H   0  0  0  0  0  0  0  0  0  0  0  0
  1  2  2  0
  2  3  1  0
  3  4  1  0
  4  5  2  0
  5  6  1  0
  6  7  2  0
  7  8  1  0
  7  9  1  0
  9 10  1  0
  9 11  2  0
  2 12  1  0
 12 13  1  0
 13 14  2  0
 14 15  1  0
 15 16  2  0
 16 17  1  0
 17 18  1  0
 18 19  1  0
 19 20  2  0
 20 21  1  0
 21 22  1  0
 21 23  2  0
 23 24  1  0
 24 25  2  0
 25 26  1  0
 17 27  2  0
 11  4  1  0
 27 13  1  0
 25 19  1  0
  3 28  1  0
  3 29  1  0
  5 30  1  0
  6 31  1  0
 10 32  1  0
 11 33  1  0
 14 34  1  0
 15 35  1  0
 16 36  1  0
 18 37  1  0
 18 38  1  0
 20 39  1  0
 23 40  1  0
 24 41  1  0
 27 42  1  0
M  CHG  4   8  -1  12  -1  22  -1  26  -1
M  END
>  <UniqueID>  (65) 
61

>  <SMILES>  (65) 
O=C(Cc1ccc([O-])c(O)c1)[N-]c1cccc(Cc2cc([O-])ccc2[O-])c1

>  <Energy>  (65) 
45.510848819431736

>  <Genealogy>  (65) 
O=C(Cc1ccc([O-])c(O)c1)[N-]c1cccc(Cc2cc([O-])ccc2[O-])c1 (protonated)
O=C(Cc1ccc([O-])c(O)c1)[N-]c1cccc(Cc2cc([O-])ccc2[O-])c1 (3D coordinates assigned)
O=C(Cc1ccc([O-])c(O)c1)[N-]c1cccc(Cc2cc([O-])ccc2[O-])c1 (optimized conformer: 45.510848819431736 kcal/mol)

>  <smiles>  (65) 
O=C(Cc1ccc(O)c(O)c1)Nc1cccc(Cc2cc(O)ccc2O)c1

>  <score_type>  (65) 
oracle

>  <origin>  (65) 
adg

>  <m_score__min__energy>  (65) 
-17.629999999999999

>  <m_primary>  (65) 
energy

$$$$
65:0
     RDKit          3D

 72 77  0  0  0  0  0  0  0  0999 V2000
   56.3610   23.8430   45.1330 C   0  0  0  0  0  0  0  0  0  0  0  0
   56.1960   25.3020   45.4270 C   0  0  0  0  0  0  0  0  0  0  0  0
   55.1460   25.6910   46.0030 O   0  0  0  0  0  0  0  0  0  0  0  0
   57.2060   26.2630   45.0680 N   0  0  0  0  0  0  0  0  0  0  0  0
   57.7840   26.3890   43.7350 C   0  0  0  0  0  0  0  0  0  0  0  0
   58.7600   27.5900   43.8060 C   0  0  0  0  0  0  0  0  0  0  0  0
   58.6740   28.1030   45.1730 N   0  0  0  0  0  0  0  0  0  0  0  0
   59.2610   29.3420   45.6210 C   0  0  0  0  0  0  0  0  0  0  0  0
   60.5670   29.3810   46.1420 C   0  0  0  0  0  0  0  0  0  0  0  0
   61.1090   30.5820   46.6060 C   0  0  0  0  0  0  0  0  0  0  0  0
   60.3510   31.7550   46.5870 C   0  0  0  0  0  0  0  0  0  0  0  0
   60.9250   32.9360   47.0730 O   0  0  0  0  0  0  0  0  0  0  0  0
   61.9550   33.0130   48.0280 C   0  0  0  0  0  0  0  0  0  0  0  0
   63.3100   32.8880   47.6700 C   0  0  0  0  0  0  0  0  0  0  0  0
   64.3130   33.0620   48.6250 C   0  0  0  0  0  0  0  0  0  0  0  0
   63.9830   33.3590   49.9510 C   0  0  0  0  0  0  0  0  0  0  0  0
   65.2630   33.6850   51.1160 S   0  0  0  0  0  0  0  0  0  0  0  0
   64.9730   34.9840   51.8100 O   0  0  0  0  0  0  0  0  0  0  0  0
   66.5970   33.7890   50.4310 O   0  0  0  0  0  0  0  0  0  0  0  0
   65.3180   32.4040   52.2860 N   0  0  0  0  0  0  0  0  0  0  0  0
   65.1570   31.1550   51.9730 C   0  0  0  0  0  0  0  0  0  0  0  0
   66.1140   30.1790   52.1310 C   0  0  0  0  0  0  0  0  0  0  0  0
   65.4700   29.0490   51.6700 C   0  0  0  0  0  0  0  0  0  0  0  0
   66.0500   27.6780   51.5860 C   0  0  0  0  0  0  0  0  0  0  0  0
   64.2580   29.3690   51.2750 O   0  0  0  0  0  0  0  0  0  0  0  0
   64.0300   30.6390   51.4440 N   0  0  0  0  0  0  0  0  0  0  0  0
   62.6390   33.4720   50.3200 C   0  0  0  0  0  0  0  0  0  0  0  0
   61.6230   33.3110   49.3640 C   0  0  0  0  0  0  0  0  0  0  0  0
   60.2140   33.5020   49.7540 C   0  0  0  0  0  0  0  0  0  0  0  0
   59.6560   34.5970   49.4700 O   0  0  0  0  0  0  0  0  0  0  0  0
   59.4800   32.4800   50.4680 N   0  0  0  0  0  0  0  0  0  0  0  0
   59.7920   32.1960   51.8710 C   0  0  0  0  0  0  0  0  0  0  0  0
   60.8250   31.0660   51.9300 C   0  0  0  0  0  0  0  0  0  0  0  0
   60.5010   29.9370   50.9710 C   0  0  0  0  0  0  0  0  0  0  0  0
   61.1980   28.7240   51.0870 C   0  0  0  0  0  0  0  0  0  0  0  0
   60.9700   27.6860   50.1800 C   0  0  0  0  0  0  0  0  0  0  0  0
   60.0460   27.8500   49.1460 C   0  0  0  0  0  0  0  0  0  0  0  0
   59.3500   29.0520   49.0120 C   0  0  0  0  0  0  0  0  0  0  0  0
   59.5830   30.1090   49.9050 C   0  0  0  0  0  0  0  0  0  0  0  0
   58.7980   31.3890   49.7590 C   0  0  0  0  0  0  0  0  0  0  0  0
   59.0540   31.7320   46.0500 C   0  0  0  0  0  0  0  0  0  0  0  0
   58.5120   30.5330   45.5770 C   0  0  0  0  0  0  0  0  0  0  0  0
   57.7760   27.2700   45.8860 C   0  0  0  0  0  0  0  0  0  0  0  0
   57.5750   27.3610   47.1250 O   0  0  0  0  0  0  0  0  0  0  0  0
   56.4243   23.2834   46.0779 H   0  0  0  0  0  0  0  0  0  0  0  0
   55.4975   23.4860   44.5526 H   0  0  0  0  0  0  0  0  0  0  0  0
   57.2824   23.6878   44.5526 H   0  0  0  0  0  0  0  0  0  0  0  0
   58.3264   25.4709   43.4650 H   0  0  0  0  0  0  0  0  0  0  0  0
   57.0075   26.5448   42.9716 H   0  0  0  0  0  0  0  0  0  0  0  0
   59.7863   27.2613   43.5856 H   0  0  0  0  0  0  0  0  0  0  0  0
   58.4987   28.3640   43.0694 H   0  0  0  0  0  0  0  0  0  0  0  0
   61.1658   28.4592   46.1844 H   0  0  0  0  0  0  0  0  0  0  0  0
   62.1399   30.6041   46.9890 H   0  0  0  0  0  0  0  0  0  0  0  0
   63.5807   32.6515   46.6304 H   0  0  0  0  0  0  0  0  0  0  0  0
   65.3690   32.9649   48.3329 H   0  0  0  0  0  0  0  0  0  0  0  0
   67.1362   30.2754   52.5258 H   0  0  0  0  0  0  0  0  0  0  0  0
   66.2154   27.2870   52.6008 H   0  0  0  0  0  0  0  0  0  0  0  0
   65.3541   27.0178   51.0476 H   0  0  0  0  0  0  0  0  0  0  0  0
   67.0084   27.7177   51.0476 H   0  0  0  0  0  0  0  0  0  0  0  0
   62.3758   33.6884   51.3659 H   0  0  0  0  0  0  0  0  0  0  0  0
   60.2035   33.0979   52.3478 H   0  0  0  0  0  0  0  0  0  0  0  0
   58.8777   31.8937   52.4026 H   0  0  0  0  0  0  0  0  0  0  0  0
   61.8126   31.4762   51.6722 H   0  0  0  0  0  0  0  0  0  0  0  0
   60.8138   30.6539   52.9498 H   0  0  0  0  0  0  0  0  0  0  0  0
   61.9290   28.5897   51.8979 H   0  0  0  0  0  0  0  0  0  0  0  0
   61.5192   26.7382   50.2806 H   0  0  0  0  0  0  0  0  0  0  0  0
   59.8663   27.0297   48.4354 H   0  0  0  0  0  0  0  0  0  0  0  0
   58.6151   29.1715   48.2023 H   0  0  0  0  0  0  0  0  0  0  0  0
   58.7130   31.6446   48.6925 H   0  0  0  0  0  0  0  0  0  0  0  0
   57.7957   31.2491   50.1900 H   0  0  0  0  0  0  0  0  0  0  0  0
   58.4633   32.6587   46.0013 H   0  0  0  0  0  0  0  0  0  0  0  0
   57.4914   30.5204   45.1669 H   0  0  0  0  0  0  0  0  0  0  0  0
  1  2  1  0
  2  3  2  0
  2  4  1  0
  4  5  1  0
  5  6  1  0
  6  7  1  0
  7  8  1  0
  8  9  2  0
  9 10  1  0
 10 11  2  0
 11 12  1  0
 12 13  1  0
 13 14  2  0
 14 15  1  0
 15 16  2  0
 16 17  1  0
 17 18  2  0
 17 19  2  0
 17 20  1  0
 20 21  2  3
 21 22  1  0
 22 23  2  0
 23 24  1  0
 23 25  1  0
 25 26  1  0
 16 27  1  0
 27 28  2  0
 28 29  1  0
 29 30  2  0
 29 31  1  0
 31 32  1  0
 32 33  1  0
 33 34  1  0
 34 35  2  0
 35 36  1  0
 36 37  2  0
 37 38  1  0
 38 39  2  0
 39 40  1  0
 11 41  1  0
 41 42  2  0
  7 43  1  0
 43 44  2  0
 43  4  1  0
 42  8  1  0
 28 13  1  0
 40 31  1  0
 26 21  1  0
 39 34  1  0
  1 45  1  0
  1 46  1  0
  1 47  1  0
  5 48  1  0
  5 49  1  0
  6 50  1  0
  6 51  1  0
  9 52  1  0
 10 53  1  0
 14 54  1  0
 15 55  1  0
 22 56  1  0
 24 57  1  0
 24 58  1  0
 24 59  1  0
 27 60  1  0
 32 61  1  0
 32 62  1  0
 33 63  1  0
 33 64  1  0
 35 65  1  0
 36 66  1  0
 37 67  1  0
 38 68  1  0
 40 69  1  0
 40 70  1  0
 41 71  1  0
 42 72  1  0
M  CHG  1  26  -1
M  END
>  <UniqueID>  (66) 
62

>  <SMILES>  (66) 
CC(=O)N1CCN(c2ccc(Oc3ccc(S(=O)(=O)N=c4cc(C)o[n-]4)cc3C(=O)N3CCc4ccccc4C3)cc2)C1=O

>  <Energy>  (66) 
143.39956914248938

>  <Genealogy>  (66) 
CC(=O)N1CCN(c2ccc(Oc3ccc(S(=O)(=O)N=c4cc(C)o[n-]4)cc3C(=O)N3CCc4ccccc4C3)cc2)C1=O (protonated)
CC(=O)N1CCN(c2ccc(Oc3ccc(S(=O)(=O)N=c4cc(C)o[n-]4)cc3C(=O)N3CCc4ccccc4C3)cc2)C1=O (3D coordinates assigned)
CC(=O)N1CCN(c2ccc(Oc3ccc(S(=O)(=O)N=c4cc(C)o[n-]4)cc3C(=O)N3CCc4ccccc4C3)cc2)C1=O (nonaromatic ring conformer: 143.39956914248938 kcal/mol)

>  <smiles>  (66) 
CC(=O)N1CCN(c2ccc(Oc3ccc(S(=O)(=O)N=c4cc(C)o[nH]4)cc3C(=O)N3CCc4ccccc4C3)cc2)C1=O

>  <score_type>  (66) 
oracle

>  <origin>  (66) 
adg

>  <m_score__min__energy>  (66) 
-12.77

>  <m_primary>  (66) 
energy

$$$$
66:0
     RDKit          3D

 37 37  0  0  0  0  0  0  0  0999 V2000
   63.4740   32.7030   47.4180 C   0  0  0  0  0  0  0  0  0  0  0  0
   62.6390   33.7820   46.7280 C   0  0  0  0  0  0  0  0  0  0  0  0
   61.1730   33.7870   47.1880 C   0  0  0  0  0  0  0  0  0  0  0  0
   60.3120   34.7760   46.3900 C   0  0  0  0  0  0  0  0  0  0  0  0
   58.8190   34.4240   46.4880 C   0  0  0  0  0  0  0  0  0  0  0  0
   58.1230   34.3610   45.1150 C   0  0  0  0  0  0  0  0  0  0  0  0
   58.2780   32.9970   44.4130 C   0  0  0  0  0  0  0  0  0  0  0  0
   57.1890   31.9970   44.8380 C   0  0  0  0  0  0  0  0  0  0  0  0
   57.3490   30.6950   44.1040 C   0  0  0  0  0  0  0  0  0  0  0  0
   57.4420   30.7050   42.8470 O   0  0  0  0  0  0  0  0  0  0  0  0
   57.5360   29.4210   44.8380 C   0  0  0  0  0  0  0  0  0  0  0  0
   56.4450   28.6220   45.2290 C   0  0  0  0  0  0  0  0  0  0  0  0
   55.1460   28.9640   44.8710 O   0  0  0  0  0  0  0  0  0  0  0  0
   56.6560   27.4830   45.9410 N   0  0  0  0  0  0  0  0  0  0  0  0
   57.9140   27.0820   46.2630 C   0  0  0  0  0  0  0  0  0  0  0  0
   58.0920   26.0190   46.9140 O   0  0  0  0  0  0  0  0  0  0  0  0
   58.9830   27.8210   45.8770 N   0  0  0  0  0  0  0  0  0  0  0  0
   58.8260   28.9730   45.1750 C   0  0  0  0  0  0  0  0  0  0  0  0
   59.8450   29.6390   44.8500 O   0  0  0  0  0  0  0  0  0  0  0  0
   63.3878   32.8144   48.5089 H   0  0  0  0  0  0  0  0  0  0  0  0
   63.1072   31.7095   47.1207 H   0  0  0  0  0  0  0  0  0  0  0  0
   64.5278   32.8088   47.1207 H   0  0  0  0  0  0  0  0  0  0  0  0
   63.0806   34.7644   46.9515 H   0  0  0  0  0  0  0  0  0  0  0  0
   62.6464   33.5665   45.6493 H   0  0  0  0  0  0  0  0  0  0  0  0
   60.7594   32.7758   47.0603 H   0  0  0  0  0  0  0  0  0  0  0  0
   61.1536   34.1006   48.2422 H   0  0  0  0  0  0  0  0  0  0  0  0
   60.4679   35.7893   46.7887 H   0  0  0  0  0  0  0  0  0  0  0  0
   60.6121   34.7226   45.3331 H   0  0  0  0  0  0  0  0  0  0  0  0
   58.7217   33.4427   46.9755 H   0  0  0  0  0  0  0  0  0  0  0  0
   58.3308   35.2213   47.0676 H   0  0  0  0  0  0  0  0  0  0  0  0
   57.0506   34.5599   45.2580 H   0  0  0  0  0  0  0  0  0  0  0  0
   58.6029   35.1138   44.4724 H   0  0  0  0  0  0  0  0  0  0  0  0
   58.2141   33.1492   43.3254 H   0  0  0  0  0  0  0  0  0  0  0  0
   59.2528   32.5775   44.7023 H   0  0  0  0  0  0  0  0  0  0  0  0
   57.2688   31.8141   45.9197 H   0  0  0  0  0  0  0  0  0  0  0  0
   56.2039   32.4218   44.5949 H   0  0  0  0  0  0  0  0  0  0  0  0
   55.8370   26.9030   46.2350 H   0  0  0  0  0  0  0  0  0  0  0  0
  1  2  1  0
  2  3  1  0
  3  4  1  0
  4  5  1  0
  5  6  1  0
  6  7  1  0
  7  8  1  0
  8  9  1  0
  9 10  2  0
  9 11  1  0
 11 12  2  0
 12 13  1  0
 12 14  1  0
 14 15  1  0
 15 16  2  0
 15 17  1  0
 17 18  1  0
 18 19  2  0
 18 11  1  0
  1 20  1  0
  1 21  1  0
  1 22  1  0
  2 23  1  0
  2 24  1  0
  3 25  1  0
  3 26  1  0
  4 27  1  0
  4 28  1  0
  5 29  1  0
  5 30  1  0
  6 31  1  0
  6 32  1  0
  7 33  1  0
  7 34  1  0
  8 35  1  0
  8 36  1  0
 14 37  1  0
M  CHG  2  13  -1  17  -1
M  END
>  <UniqueID>  (67) 
63

>  <SMILES>  (67) 
CCCCCCCCC(=O)c1c([O-])[nH]c(=O)[n-]c1=O

>  <Energy>  (67) 
29.69370530824056

>  <Genealogy>  (67) 
CCCCCCCCC(=O)c1c([O-])[nH]c(=O)[n-]c1=O (protonated)
CCCCCCCCC(=O)c1c([O-])[nH]c(=O)[n-]c1=O (3D coordinates assigned)
CCCCCCCCC(=O)c1c([O-])[nH]c(=O)[n-]c1=O (optimized conformer: 29.69370530824056 kcal/mol)

>  <smiles>  (67) 
CCCCCCCCC(=O)c1c(O)[nH]c(=O)[nH]c1=O

>  <score_type>  (67) 
oracle

>  <origin>  (67) 
adg

>  <m_score__min__energy>  (67) 
-11.98

>  <m_primary>  (67) 
energy

$$$$
67:0
     RDKit          3D

 49 52  0  0  0  0  0  0  0  0999 V2000
   57.3140   25.8230   47.0960 O   0  0  0  0  0  0  0  0  0  0  0  0
   56.7740   26.0600   45.9820 C   0  0  0  0  0  0  0  0  0  0  0  0
   57.1330   27.2400   45.2420 N   0  0  0  0  0  0  0  0  0  0  0  0
   57.8230   28.3710   45.8050 C   0  0  0  0  0  0  0  0  0  0  0  0
   58.8650   28.2180   46.7330 C   0  0  0  0  0  0  0  0  0  0  0  0
   59.4930   29.3400   47.2750 C   0  0  0  0  0  0  0  0  0  0  0  0
   59.0660   30.6300   46.9040 C   0  0  0  0  0  0  0  0  0  0  0  0
   59.6950   31.8230   47.4380 N   0  0  0  0  0  0  0  0  0  0  0  0
   61.0230   32.2520   46.9610 C   0  0  0  0  0  0  0  0  0  0  0  0
   61.9480   32.5130   48.1560 C   0  0  0  0  0  0  0  0  0  0  0  0
   61.2670   33.2860   49.2060 N   0  0  0  0  0  0  0  0  0  0  0  0
   61.8460   33.3550   50.5240 C   0  0  0  0  0  0  0  0  0  0  0  0
   61.1070   33.2250   51.5380 O   0  0  0  0  0  0  0  0  0  0  0  0
   63.2980   33.5560   50.7160 C   0  0  0  0  0  0  0  0  0  0  0  0
   64.2210   32.7430   50.0330 C   0  0  0  0  0  0  0  0  0  0  0  0
   65.5960   32.9300   50.2140 C   0  0  0  0  0  0  0  0  0  0  0  0
   66.0600   33.9140   51.0890 C   0  0  0  0  0  0  0  0  0  0  0  0
   65.1490   34.7170   51.7830 C   0  0  0  0  0  0  0  0  0  0  0  0
   63.7740   34.5370   51.6030 C   0  0  0  0  0  0  0  0  0  0  0  0
   59.9050   33.7820   48.9700 C   0  0  0  0  0  0  0  0  0  0  0  0
   59.0160   32.6360   48.4660 C   0  0  0  0  0  0  0  0  0  0  0  0
   58.0350   30.7440   46.0190 N   0  0  0  0  0  0  0  0  0  0  0  0
   57.4100   29.6660   45.4770 C   0  0  0  0  0  0  0  0  0  0  0  0
   55.7960   25.1000   45.4250 C   0  0  0  0  0  0  0  0  0  0  0  0
   56.1930   24.0900   44.5360 C   0  0  0  0  0  0  0  0  0  0  0  0
   55.2260   23.2140   44.0400 C   0  0  0  0  0  0  0  0  0  0  0  0
   55.5500   22.3000   43.2370 O   0  0  0  0  0  0  0  0  0  0  0  0
   53.9290   23.3490   44.4210 N   0  0  0  0  0  0  0  0  0  0  0  0
   53.5570   24.3280   45.2860 C   0  0  0  0  0  0  0  0  0  0  0  0
   52.3510   24.4390   45.6280 O   0  0  0  0  0  0  0  0  0  0  0  0
   54.4840   25.1900   45.7800 N   0  0  0  0  0  0  0  0  0  0  0  0
   56.9450   27.2530   44.2150 H   0  0  0  0  0  0  0  0  0  0  0  0
   59.1875   27.2103   47.0339 H   0  0  0  0  0  0  0  0  0  0  0  0
   60.3196   29.2174   47.9903 H   0  0  0  0  0  0  0  0  0  0  0  0
   61.4565   31.4621   46.3300 H   0  0  0  0  0  0  0  0  0  0  0  0
   60.9161   33.1780   46.3770 H   0  0  0  0  0  0  0  0  0  0  0  0
   62.2715   31.5487   48.5749 H   0  0  0  0  0  0  0  0  0  0  0  0
   62.8115   33.0961   47.8032 H   0  0  0  0  0  0  0  0  0  0  0  0
   63.8602   31.9567   49.3536 H   0  0  0  0  0  0  0  0  0  0  0  0
   66.3125   32.3006   49.6659 H   0  0  0  0  0  0  0  0  0  0  0  0
   67.1411   34.0577   51.2325 H   0  0  0  0  0  0  0  0  0  0  0  0
   65.5152   35.4922   52.4722 H   0  0  0  0  0  0  0  0  0  0  0  0
   63.0620   35.1657   52.1578 H   0  0  0  0  0  0  0  0  0  0  0  0
   59.4925   34.1785   49.9095 H   0  0  0  0  0  0  0  0  0  0  0  0
   59.9343   34.5797   48.2132 H   0  0  0  0  0  0  0  0  0  0  0  0
   58.7548   31.9885   49.3160 H   0  0  0  0  0  0  0  0  0  0  0  0
   58.1164   33.0772   48.0120 H   0  0  0  0  0  0  0  0  0  0  0  0
   56.5747   29.8129   44.7765 H   0  0  0  0  0  0  0  0  0  0  0  0
   57.2464   23.9902   44.2355 H   0  0  0  0  0  0  0  0  0  0  0  0
  1  2  2  0
  2  3  1  0
  3  4  1  0
  4  5  2  0
  5  6  1  0
  6  7  2  0
  7  8  1  0
  8  9  1  0
  9 10  1  0
 10 11  1  0
 11 12  1  0
 12 13  2  0
 12 14  1  0
 14 15  2  0
 15 16  1  0
 16 17  2  0
 17 18  1  0
 18 19  2  0
 11 20  1  0
 20 21  1  0
  7 22  1  0
 22 23  2  0
  2 24  1  0
 24 25  2  0
 25 26  1  0
 26 27  2  0
 26 28  1  0
 28 29  1  0
 29 30  2  0
 29 31  1  0
 23  4  1  0
 31 24  1  0
 21  8  1  0
 19 14  1  0
  3 32  1  0
  5 33  1  0
  6 34  1  0
  9 35  1  0
  9 36  1  0
 10 37  1  0
 10 38  1  0
 15 39  1  0
 16 40  1  0
 17 41  1  0
 18 42  1  0
 19 43  1  0
 20 44  1  0
 20 45  1  0
 21 46  1  0
 21 47  1  0
 23 48  1  0
 25 49  1  0
M  CHG  2  28  -1  31  -1
M  END
>  <UniqueID>  (68) 
64

>  <SMILES>  (68) 
O=C(Nc1ccc(N2CCN(C(=O)c3ccccc3)CC2)nc1)c1cc(=O)[n-]c(=O)[n-]1

>  <Energy>  (68) 
67.40674796238793

>  <Genealogy>  (68) 
O=C(Nc1ccc(N2CCN(C(=O)c3ccccc3)CC2)nc1)c1cc(=O)[n-]c(=O)[n-]1 (protonated)
O=C(Nc1ccc(N2CCN(C(=O)c3ccccc3)CC2)nc1)c1cc(=O)[n-]c(=O)[n-]1 (3D coordinates assigned)
O=C(Nc1ccc(N2CCN(C(=O)c3ccccc3)CC2)nc1)c1cc(=O)[n-]c(=O)[n-]1 (nonaromatic ring conformer: 67.40674796238793 kcal/mol)

>  <smiles>  (68) 
O=C(Nc1ccc(N2CCN(C(=O)c3ccccc3)CC2)nc1)c1cc(=O)[nH]c(=O)[nH]1

>  <score_type>  (68) 
oracle

>  <origin>  (68) 
adg

>  <m_score__min__energy>  (68) 
-11.85

>  <m_primary>  (68) 
energy

$$$$
68:0
     RDKit          3D

 61 64  0  0  0  0  0  0  0  0999 V2000
   57.7600   23.5890   46.9780 O   0  0  0  0  0  0  0  0  0  0  0  0
   58.0030   24.7750   46.6280 C   0  0  0  0  0  0  0  0  0  0  0  0
   57.8410   25.1760   45.1970 C   0  0  0  0  0  0  0  0  0  0  0  0
   57.9780   26.6250   45.0650 N   0  0  0  0  0  0  0  0  0  0  0  0
   57.8210   27.2980   43.8050 C   0  0  0  0  0  0  0  0  0  0  0  0
   57.7970   26.6260   42.7370 O   0  0  0  0  0  0  0  0  0  0  0  0
   57.6990   28.7720   43.7400 C   0  0  0  0  0  0  0  0  0  0  0  0
   56.6870   29.3800   42.9720 C   0  0  0  0  0  0  0  0  0  0  0  0
   56.5820   30.7730   42.9170 C   0  0  0  0  0  0  0  0  0  0  0  0
   57.4770   31.5730   43.6320 C   0  0  0  0  0  0  0  0  0  0  0  0
   58.4900   30.9790   44.3910 C   0  0  0  0  0  0  0  0  0  0  0  0
   58.6080   29.5860   44.4400 C   0  0  0  0  0  0  0  0  0  0  0  0
   58.4300   25.7460   47.5890 N   0  0  0  0  0  0  0  0  0  0  0  0
   59.7560   26.3510   47.5920 C   0  0  0  0  0  0  0  0  0  0  0  0
   59.6760   27.7830   48.0420 C   0  0  0  0  0  0  0  0  0  0  0  0
   60.4010   28.2090   49.1650 C   0  0  0  0  0  0  0  0  0  0  0  0
   60.2790   29.5230   49.6240 C   0  0  0  0  0  0  0  0  0  0  0  0
   59.4110   30.4260   48.9850 C   0  0  0  0  0  0  0  0  0  0  0  0
   59.2710   31.8070   49.5020 C   0  0  0  0  0  0  0  0  0  0  0  0
   59.9070   32.1430   50.5390 O   0  0  0  0  0  0  0  0  0  0  0  0
   58.4620   32.7970   48.8500 N   0  0  0  0  0  0  0  0  0  0  0  0
   58.6420   33.3020   47.5180 C   0  0  0  0  0  0  0  0  0  0  0  0
   57.4960   33.6580   46.7910 C   0  0  0  0  0  0  0  0  0  0  0  0
   57.6060   34.1960   45.5090 C   0  0  0  0  0  0  0  0  0  0  0  0
   58.8640   34.3590   44.9260 C   0  0  0  0  0  0  0  0  0  0  0  0
   60.0160   33.9890   45.6250 C   0  0  0  0  0  0  0  0  0  0  0  0
   59.9230   33.4560   46.9240 C   0  0  0  0  0  0  0  0  0  0  0  0
   61.1230   33.0040   47.5800 N   0  0  0  0  0  0  0  0  0  0  0  0
   61.8020   31.7890   47.1190 C   0  0  0  0  0  0  0  0  0  0  0  0
   63.2920   31.8610   47.4650 C   0  0  0  0  0  0  0  0  0  0  0  0
   63.7740   33.1620   47.1920 O   0  0  0  0  0  0  0  0  0  0  0  0
   63.2760   34.0990   48.1400 C   0  0  0  0  0  0  0  0  0  0  0  0
   61.8050   33.8630   48.5570 C   0  0  0  0  0  0  0  0  0  0  0  0
   58.7130   30.0050   47.8410 C   0  0  0  0  0  0  0  0  0  0  0  0
   58.8400   28.6930   47.3780 C   0  0  0  0  0  0  0  0  0  0  0  0
   58.6131   24.6804   44.5902 H   0  0  0  0  0  0  0  0  0  0  0  0
   56.8421   24.8747   44.8486 H   0  0  0  0  0  0  0  0  0  0  0  0
   58.2220   27.1740   45.9190 H   0  0  0  0  0  0  0  0  0  0  0  0
   55.9753   28.7553   42.4123 H   0  0  0  0  0  0  0  0  0  0  0  0
   55.7930   31.2403   42.3095 H   0  0  0  0  0  0  0  0  0  0  0  0
   57.3848   32.6686   43.5978 H   0  0  0  0  0  0  0  0  0  0  0  0
   59.1964   31.6091   44.9514 H   0  0  0  0  0  0  0  0  0  0  0  0
   59.4151   29.1251   45.0284 H   0  0  0  0  0  0  0  0  0  0  0  0
   60.4086   25.7911   48.2781 H   0  0  0  0  0  0  0  0  0  0  0  0
   60.1656   26.3193   46.5716 H   0  0  0  0  0  0  0  0  0  0  0  0
   61.0678   27.5061   49.6859 H   0  0  0  0  0  0  0  0  0  0  0  0
   60.8670   29.8539   50.4927 H   0  0  0  0  0  0  0  0  0  0  0  0
   56.5010   33.5113   47.2365 H   0  0  0  0  0  0  0  0  0  0  0  0
   56.7016   34.4919   44.9572 H   0  0  0  0  0  0  0  0  0  0  0  0
   58.9486   34.7800   43.9133 H   0  0  0  0  0  0  0  0  0  0  0  0
   61.0031   34.1153   45.1562 H   0  0  0  0  0  0  0  0  0  0  0  0
   61.3553   30.9125   47.6112 H   0  0  0  0  0  0  0  0  0  0  0  0
   61.6874   31.7019   46.0285 H   0  0  0  0  0  0  0  0  0  0  0  0
   63.4326   31.6337   48.5320 H   0  0  0  0  0  0  0  0  0  0  0  0
   63.8462   31.1287   46.8595 H   0  0  0  0  0  0  0  0  0  0  0  0
   63.9030   34.0425   49.0421 H   0  0  0  0  0  0  0  0  0  0  0  0
   63.3113   35.0859   47.6555 H   0  0  0  0  0  0  0  0  0  0  0  0
   61.7823   33.3773   49.5437 H   0  0  0  0  0  0  0  0  0  0  0  0
   61.2879   34.8330   48.5988 H   0  0  0  0  0  0  0  0  0  0  0  0
   58.0624   30.7127   47.3064 H   0  0  0  0  0  0  0  0  0  0  0  0
   58.2808   28.3715   46.4870 H   0  0  0  0  0  0  0  0  0  0  0  0
  1  2  2  0
  2  3  1  0
  3  4  1  0
  4  5  1  0
  5  6  2  0
  5  7  1  0
  7  8  2  0
  8  9  1  0
  9 10  2  0
 10 11  1  0
 11 12  2  0
  2 13  1  0
 13 14  1  0
 14 15  1  0
 15 16  2  0
 16 17  1  0
 17 18  2  0
 18 19  1  0
 19 20  2  0
 19 21  1  0
 21 22  1  0
 22 23  2  0
 23 24  1  0
 24 25  2  0
 25 26  1  0
 26 27  2  0
 27 28  1  0
 28 29  1  0
 29 30  1  0
 30 31  1  0
 31 32  1  0
 32 33  1  0
 18 34  1  0
 34 35  2  0
 12  7  1  0
 35 15  1  0
 27 22  1  0
 33 28  1  0
  3 36  1  0
  3 37  1  0
  4 38  1  0
  8 39  1  0
  9 40  1  0
 10 41  1  0
 11 42  1  0
 12 43  1  0
 14 44  1  0
 14 45  1  0
 16 46  1  0
 17 47  1  0
 23 48  1  0
 24 49  1  0
 25 50  1  0
 26 51  1  0
 29 52  1  0
 29 53  1  0
 30 54  1  0
 30 55  1  0
 32 56  1  0
 32 57  1  0
 33 58  1  0
 33 59  1  0
 34 60  1  0
 35 61  1  0
M  CHG  2  13  -1  21  -1
M  END
>  <UniqueID>  (69) 
65

>  <SMILES>  (69) 
O=C(CNC(=O)c1ccccc1)[N-]Cc1ccc(C(=O)[N-]c2ccccc2N2CCOCC2)cc1

>  <Energy>  (69) 
79.97207072008001

>  <Genealogy>  (69) 
O=C(CNC(=O)c1ccccc1)[N-]Cc1ccc(C(=O)[N-]c2ccccc2N2CCOCC2)cc1 (protonated)
O=C(CNC(=O)c1ccccc1)[N-]Cc1ccc(C(=O)[N-]c2ccccc2N2CCOCC2)cc1 (3D coordinates assigned)
O=C(CNC(=O)c1ccccc1)[N-]Cc1ccc(C(=O)[N-]c2ccccc2N2CCOCC2)cc1 (nonaromatic ring conformer: 79.97207072008001 kcal/mol)

>  <smiles>  (69) 
O=C(CNC(=O)c1ccccc1)NCc1ccc(C(=O)Nc2ccccc2N2CCOCC2)cc1

>  <score_type>  (69) 
oracle

>  <origin>  (69) 
adg

>  <m_score__min__energy>  (69) 
-11.73

>  <m_primary>  (69) 
energy

$$$$
69:0
     RDKit          3D

 66 70  0  0  0  0  0  0  0  0999 V2000
   61.3010   30.4600   46.7930 O   0  0  0  0  0  0  0  0  0  0  0  0
   60.7640   30.7500   47.8950 C   0  0  0  0  0  0  0  0  0  0  0  0
   59.4860   30.1990   48.2140 N   0  0  0  0  0  0  0  0  0  0  0  0
   59.2460   28.7650   48.3560 C   0  0  1  0  0  0  0  0  0  0  0  0
   59.3820   28.0940   46.9800 C   0  0  0  0  0  0  0  0  0  0  0  0
   58.1960   28.3690   46.1010 C   0  0  0  0  0  0  0  0  0  0  0  0
   57.0090   27.6430   46.0650 C   0  0  0  0  0  0  0  0  0  0  0  0
   56.1270   28.2220   45.2180 N   0  0  0  0  0  0  0  0  0  0  0  0
   56.7440   29.3120   44.7290 C   0  0  0  0  0  0  0  0  0  0  0  0
   56.2260   30.2430   43.8300 C   0  0  0  0  0  0  0  0  0  0  0  0
   57.0430   31.3290   43.4640 C   0  0  0  0  0  0  0  0  0  0  0  0
   58.3430   31.4600   44.0040 C   0  0  0  0  0  0  0  0  0  0  0  0
   58.8370   30.5070   44.9120 C   0  0  0  0  0  0  0  0  0  0  0  0
   58.0060   29.4390   45.2490 C   0  0  0  0  0  0  0  0  0  0  0  0
   60.2180   28.1800   49.3490 C   0  0  0  0  0  0  0  0  0  0  0  0
   60.4800   26.9470   49.2960 O   0  0  0  0  0  0  0  0  0  0  0  0
   60.8920   29.0290   50.2920 N   0  0  0  0  0  0  0  0  0  0  0  0
   61.8290   28.5450   51.2700 C   0  0  0  0  0  0  0  0  0  0  0  0
   61.9410   27.1690   51.5360 C   0  0  0  0  0  0  0  0  0  0  0  0
   62.8300   26.7060   52.5060 C   0  0  0  0  0  0  0  0  0  0  0  0
   63.6140   27.6100   53.2230 C   0  0  0  0  0  0  0  0  0  0  0  0
   63.5090   28.9810   52.9740 C   0  0  0  0  0  0  0  0  0  0  0  0
   62.6130   29.4610   51.9970 C   0  0  0  0  0  0  0  0  0  0  0  0
   62.4820   30.8320   51.7120 O   0  0  0  0  0  0  0  0  0  0  0  0
   61.8920   31.8030   52.5760 C   0  0  0  0  0  0  0  0  0  0  0  0
   60.4510   32.0230   52.2130 C   0  0  0  0  0  0  0  0  0  0  0  0
   59.8700   33.2960   52.3080 C   0  0  0  0  0  0  0  0  0  0  0  0
   58.5220   33.4580   51.9780 C   0  0  0  0  0  0  0  0  0  0  0  0
   57.7700   32.3570   51.5660 C   0  0  0  0  0  0  0  0  0  0  0  0
   58.3790   31.1030   51.4940 C   0  0  0  0  0  0  0  0  0  0  0  0
   59.6910   30.9640   51.8190 N   0  0  0  0  0  0  0  0  0  0  0  0
   61.4040   31.6100   48.7960 O   0  0  0  0  0  0  0  0  0  0  0  0
   60.9720   32.9460   49.0460 C   0  0  0  0  0  0  0  0  0  0  0  0
   59.9930   33.3770   47.9900 C   0  0  0  0  0  0  0  0  0  0  0  0
   58.6240   33.0990   48.1260 C   0  0  0  0  0  0  0  0  0  0  0  0
   57.7290   33.4570   47.1130 C   0  0  0  0  0  0  0  0  0  0  0  0
   58.1940   34.0890   45.9570 C   0  0  0  0  0  0  0  0  0  0  0  0
   59.5550   34.3670   45.8130 C   0  0  0  0  0  0  0  0  0  0  0  0
   60.4540   34.0100   46.8230 C   0  0  0  0  0  0  0  0  0  0  0  0
   58.2286   28.5870   48.7345 H   0  0  0  0  0  0  0  0  0  0  0  0
   60.2869   28.4772   46.4858 H   0  0  0  0  0  0  0  0  0  0  0  0
   59.4445   27.0070   47.1365 H   0  0  0  0  0  0  0  0  0  0  0  0
   56.8153   26.7277   46.6435 H   0  0  0  0  0  0  0  0  0  0  0  0
   55.1600   27.8950   45.0030 H   0  0  0  0  0  0  0  0  0  0  0  0
   55.2113   30.1324   43.4199 H   0  0  0  0  0  0  0  0  0  0  0  0
   56.6678   32.0803   42.7536 H   0  0  0  0  0  0  0  0  0  0  0  0
   58.9724   32.3135   43.7117 H   0  0  0  0  0  0  0  0  0  0  0  0
   59.8451   30.6007   45.3421 H   0  0  0  0  0  0  0  0  0  0  0  0
   60.7770   30.0620   50.1910 H   0  0  0  0  0  0  0  0  0  0  0  0
   61.3231   26.4524   50.9751 H   0  0  0  0  0  0  0  0  0  0  0  0
   62.9129   25.6275   52.7057 H   0  0  0  0  0  0  0  0  0  0  0  0
   64.3163   27.2429   53.9859 H   0  0  0  0  0  0  0  0  0  0  0  0
   64.1287   29.6895   53.5433 H   0  0  0  0  0  0  0  0  0  0  0  0
   61.9535   31.4479   53.6153 H   0  0  0  0  0  0  0  0  0  0  0  0
   62.4355   32.7532   52.4675 H   0  0  0  0  0  0  0  0  0  0  0  0
   60.4690   34.1574   52.6386 H   0  0  0  0  0  0  0  0  0  0  0  0
   58.0544   34.4515   52.0428 H   0  0  0  0  0  0  0  0  0  0  0  0
   56.7091   32.4760   51.3009 H   0  0  0  0  0  0  0  0  0  0  0  0
   57.7963   30.2266   51.1739 H   0  0  0  0  0  0  0  0  0  0  0  0
   60.4877   32.9935   50.0325 H   0  0  0  0  0  0  0  0  0  0  0  0
   61.8436   33.6167   49.0250 H   0  0  0  0  0  0  0  0  0  0  0  0
   58.2539   32.5978   49.0325 H   0  0  0  0  0  0  0  0  0  0  0  0
   56.6565   33.2406   47.2265 H   0  0  0  0  0  0  0  0  0  0  0  0
   57.4883   34.3675   45.1605 H   0  0  0  0  0  0  0  0  0  0  0  0
   59.9203   34.8674   44.9041 H   0  0  0  0  0  0  0  0  0  0  0  0
   61.5261   34.2255   46.7036 H   0  0  0  0  0  0  0  0  0  0  0  0
  1  2  2  0
  2  3  1  0
  3  4  1  0
  4  5  1  0
  5  6  1  0
  6  7  2  0
  7  8  1  0
  8  9  1  0
  9 10  2  0
 10 11  1  0
 11 12  2  0
 12 13  1  0
 13 14  2  0
  4 15  1  0
 15 16  2  0
 15 17  1  0
 17 18  1  0
 18 19  2  0
 19 20  1  0
 20 21  2  0
 21 22  1  0
 22 23  2  0
 23 24  1  0
 24 25  1  0
 25 26  1  0
 26 27  2  0
 27 28  1  0
 28 29  2  0
 29 30  1  0
 30 31  2  0
  2 32  1  0
 32 33  1  0
 33 34  1  0
 34 35  2  0
 35 36  1  0
 36 37  2  0
 37 38  1  0
 38 39  2  0
 14  6  1  0
 23 18  1  0
 31 26  1  0
 39 34  1  0
 14  9  1  0
  4 40  1  1
  5 41  1  0
  5 42  1  0
  7 43  1  0
  8 44  1  0
 10 45  1  0
 11 46  1  0
 12 47  1  0
 13 48  1  0
 17 49  1  0
 19 50  1  0
 20 51  1  0
 21 52  1  0
 22 53  1  0
 25 54  1  0
 25 55  1  0
 27 56  1  0
 28 57  1  0
 29 58  1  0
 30 59  1  0
 33 60  1  0
 33 61  1  0
 35 62  1  0
 36 63  1  0
 37 64  1  0
 38 65  1  0
 39 66  1  0
M  CHG  1   3  -1
M  END
>  <UniqueID>  (70) 
66

>  <SMILES>  (70) 
O=C([N-][C@@H](Cc1c[nH]c2ccccc12)C(=O)Nc1ccccc1OCc1ccccn1)OCc1ccccc1

>  <Energy>  (70) 
97.46242081475135

>  <Genealogy>  (70) 
O=C([N-]C(Cc1c[nH]c2ccccc12)C(=O)Nc1ccccc1OCc1ccccn1)OCc1ccccc1 (protonated)
O=C([N-][C@@H](Cc1c[nH]c2ccccc12)C(=O)Nc1ccccc1OCc1ccccn1)OCc1ccccc1 (chirality)
O=C([N-][C@@H](Cc1c[nH]c2ccccc12)C(=O)Nc1ccccc1OCc1ccccn1)OCc1ccccc1 (3D coordinates assigned)
O=C([N-][C@@H](Cc1c[nH]c2ccccc12)C(=O)Nc1ccccc1OCc1ccccn1)OCc1ccccc1 (optimized conformer: 97.46242081475135 kcal/mol)

>  <smiles>  (70) 
O=C(NC(Cc1c[nH]c2ccccc12)C(=O)Nc1ccccc1OCc1ccccn1)OCc1ccccc1

>  <score_type>  (70) 
oracle

>  <origin>  (70) 
adg

>  <m_score__min__energy>  (70) 
-10.58

>  <m_primary>  (70) 
energy

$$$$
70:0
     RDKit          3D

 53 56  0  0  0  0  0  0  0  0999 V2000
   59.3590   29.4830   47.0630 C   0  0  0  0  0  0  0  0  0  0  0  0
   58.3400   29.2300   46.2270 C   0  0  0  0  0  0  0  0  0  0  0  0
   57.6460   28.0210   46.1070 C   0  0  0  0  0  0  0  0  0  0  0  0
   57.9010   26.8640   46.7490 C   0  0  0  0  0  0  0  0  0  0  0  0
   57.2030   25.5970   46.4570 C   0  0  0  0  0  0  0  0  0  0  0  0
   57.9220   24.4440   46.4520 N   0  0  0  0  0  0  0  0  0  0  0  0
   57.3300   23.2450   46.2150 C   0  0  0  0  0  0  0  0  0  0  0  0
   58.0200   22.1930   46.2030 O   0  0  0  0  0  0  0  0  0  0  0  0
   55.9920   23.1790   45.9910 N   0  0  0  0  0  0  0  0  0  0  0  0
   55.2240   24.2990   46.0110 C   0  0  0  0  0  0  0  0  0  0  0  0
   53.9840   24.2110   45.8110 O   0  0  0  0  0  0  0  0  0  0  0  0
   55.8130   25.5420   46.2590 C   0  0  0  0  0  0  0  0  0  0  0  0
   55.0280   26.6900   46.3300 O   0  0  0  0  0  0  0  0  0  0  0  0
   56.6560   28.2310   45.1570 C   0  0  0  0  0  0  0  0  0  0  0  0
   56.7820   29.5410   44.7380 C   0  0  0  0  0  0  0  0  0  0  0  0
   55.9070   30.1940   43.7100 C   0  0  0  0  0  0  0  0  0  0  0  0
   57.7980   30.1500   45.3900 N   0  0  0  0  0  0  0  0  0  0  0  0
   58.2230   31.5110   45.1990 C   0  0  0  0  0  0  0  0  0  0  0  0
   58.1050   32.1160   43.9400 C   0  0  0  0  0  0  0  0  0  0  0  0
   58.5320   33.4320   43.7510 C   0  0  0  0  0  0  0  0  0  0  0  0
   59.0740   34.1540   44.8180 C   0  0  0  0  0  0  0  0  0  0  0  0
   59.1880   33.5660   46.0880 C   0  0  0  0  0  0  0  0  0  0  0  0
   59.7770   34.3210   47.2170 C   0  0  0  0  0  0  0  0  0  0  0  0
   59.1340   35.2830   47.7190 O   0  0  0  0  0  0  0  0  0  0  0  0
   61.0650   33.9760   47.7530 N   0  0  0  0  0  0  0  0  0  0  0  0
   61.2850   34.0600   49.2020 C   0  0  0  0  0  0  0  0  0  0  0  0
   62.2290   32.9460   49.6870 C   0  0  0  0  0  0  0  0  0  0  0  0
   63.3430   32.5780   48.6740 C   0  0  0  0  0  0  0  0  0  0  0  0
   64.5620   32.3810   49.3410 O   0  0  0  0  0  0  0  0  0  0  0  0
   63.5260   33.6570   47.6020 C   0  0  0  0  0  0  0  0  0  0  0  0
   62.2130   33.8670   46.8380 C   0  0  0  0  0  0  0  0  0  0  0  0
   58.7730   32.2350   46.2670 C   0  0  0  0  0  0  0  0  0  0  0  0
   59.8308   30.4766   47.0702 H   0  0  0  0  0  0  0  0  0  0  0  0
   59.7224   28.6967   47.7410 H   0  0  0  0  0  0  0  0  0  0  0  0
   58.6718   26.8639   47.5338 H   0  0  0  0  0  0  0  0  0  0  0  0
   55.9155   27.4971   44.8062 H   0  0  0  0  0  0  0  0  0  0  0  0
   55.1233   30.7789   44.2137 H   0  0  0  0  0  0  0  0  0  0  0  0
   56.5151   30.8609   43.0811 H   0  0  0  0  0  0  0  0  0  0  0  0
   55.4408   29.4213   43.0811 H   0  0  0  0  0  0  0  0  0  0  0  0
   57.6749   31.5526   43.0988 H   0  0  0  0  0  0  0  0  0  0  0  0
   58.4416   33.9014   42.7603 H   0  0  0  0  0  0  0  0  0  0  0  0
   59.4132   35.1887   44.6620 H   0  0  0  0  0  0  0  0  0  0  0  0
   61.7302   35.0370   49.4413 H   0  0  0  0  0  0  0  0  0  0  0  0
   60.3161   33.9407   49.7089 H   0  0  0  0  0  0  0  0  0  0  0  0
   62.7065   33.2792   50.6203 H   0  0  0  0  0  0  0  0  0  0  0  0
   61.6135   32.0447   49.8244 H   0  0  0  0  0  0  0  0  0  0  0  0
   63.0305   31.6482   48.1762 H   0  0  0  0  0  0  0  0  0  0  0  0
   64.4680   32.7990   50.2370 H   0  0  0  0  0  0  0  0  0  0  0  0
   63.8226   34.6010   48.0825 H   0  0  0  0  0  0  0  0  0  0  0  0
   64.3063   33.3356   46.8964 H   0  0  0  0  0  0  0  0  0  0  0  0
   62.2877   34.7919   46.2473 H   0  0  0  0  0  0  0  0  0  0  0  0
   62.0515   32.9962   46.1857 H   0  0  0  0  0  0  0  0  0  0  0  0
   58.8804   31.7576   47.2522 H   0  0  0  0  0  0  0  0  0  0  0  0
  1  2  2  0
  2  3  1  0
  3  4  2  3
  4  5  1  0
  5  6  1  0
  6  7  1  0
  7  8  2  0
  7  9  1  0
  9 10  1  0
 10 11  2  0
 10 12  1  0
 12 13  1  0
  3 14  1  0
 14 15  2  0
 15 16  1  0
 15 17  1  0
 17 18  1  0
 18 19  2  0
 19 20  1  0
 20 21  2  0
 21 22  1  0
 22 23  1  0
 23 24  2  0
 23 25  1  0
 25 26  1  0
 26 27  1  0
 27 28  1  0
 28 29  1  0
 28 30  1  0
 30 31  1  0
 22 32  2  0
 17  2  1  0
 32 18  1  0
 12  5  2  0
 31 25  1  0
  1 33  1  0
  1 34  1  0
  4 35  1  0
 14 36  1  0
 16 37  1  0
 16 38  1  0
 16 39  1  0
 19 40  1  0
 20 41  1  0
 21 42  1  0
 26 43  1  0
 26 44  1  0
 27 45  1  0
 27 46  1  0
 28 47  1  0
 29 48  1  0
 30 49  1  0
 30 50  1  0
 31 51  1  0
 31 52  1  0
 32 53  1  0
M  CHG  3   6  -1   9  -1  13  -1
M  END
>  <UniqueID>  (71) 
67

>  <SMILES>  (71) 
C=c1c(=Cc2[n-]c(=O)[n-]c(=O)c2[O-])cc(C)n1-c1cccc(C(=O)N2CCC(O)CC2)c1

>  <Energy>  (71) 
107.1260280338784

>  <Genealogy>  (71) 
C=c1c(=Cc2[n-]c(=O)[n-]c(=O)c2[O-])cc(C)n1-c1cccc(C(=O)N2CCC(O)CC2)c1 (protonated)
C=c1c(=Cc2[n-]c(=O)[n-]c(=O)c2[O-])cc(C)n1-c1cccc(C(=O)N2CCC(O)CC2)c1 (3D coordinates assigned)
C=c1c(=Cc2[n-]c(=O)[n-]c(=O)c2[O-])cc(C)n1-c1cccc(C(=O)N2CCC(O)CC2)c1 (nonaromatic ring conformer: 107.1260280338784 kcal/mol)

>  <smiles>  (71) 
C=c1c(=Cc2[nH]c(=O)[nH]c(=O)c2O)cc(C)n1-c1cccc(C(=O)N2CCC(O)CC2)c1

>  <score_type>  (71) 
oracle

>  <origin>  (71) 
adg

>  <m_score__min__energy>  (71) 
-17.390000000000001

>  <m_primary>  (71) 
energy

$$$$
71:0
     RDKit          3D

 44 45  0  0  0  0  0  0  0  0999 V2000
   63.3470   32.5180   47.2390 C   0  0  0  0  0  0  0  0  0  0  0  0
   62.4730   31.3960   47.1620 O   0  0  0  0  0  0  0  0  0  0  0  0
   61.5270   31.1080   48.1510 C   0  0  0  0  0  0  0  0  0  0  0  0
   61.5690   31.7070   49.2600 O   0  0  0  0  0  0  0  0  0  0  0  0
   60.4860   30.0890   47.8970 C   0  0  0  0  0  0  0  0  0  0  0  0
   60.5930   28.7990   48.4360 C   0  0  0  0  0  0  0  0  0  0  0  0
   59.6210   27.8390   48.1570 C   0  0  0  0  0  0  0  0  0  0  0  0
   58.5420   28.1630   47.3290 C   0  0  0  0  0  0  0  0  0  0  0  0
   57.6460   27.2470   47.0890 N   0  0  0  0  0  0  0  0  0  0  0  0
   56.8550   27.0970   45.9010 C   0  0  0  0  0  0  0  0  0  0  0  0
   55.6670   26.6950   46.0080 O   0  0  0  0  0  0  0  0  0  0  0  0
   57.4280   27.3050   44.5280 C   0  0  0  0  0  0  0  0  0  0  0  0
   57.8670   28.6500   44.3610 O   0  0  0  0  0  0  0  0  0  0  0  0
   56.9820   29.7200   44.2030 C   0  0  0  0  0  0  0  0  0  0  0  0
   55.9130   29.7710   44.8690 O   0  0  0  0  0  0  0  0  0  0  0  0
   57.3100   30.8220   43.2390 C   0  0  0  0  0  0  0  0  0  0  0  0
   58.0230   31.9940   43.9240 C   0  0  0  0  0  0  0  0  0  0  0  0
   56.9510   32.8360   45.1480 S   0  0  0  0  0  0  0  0  0  0  0  0
   58.2970   33.4610   46.1600 C   0  0  0  0  0  0  0  0  0  0  0  0
   59.3940   34.0920   45.5620 C   0  0  0  0  0  0  0  0  0  0  0  0
   60.4250   34.6070   46.3530 C   0  0  0  0  0  0  0  0  0  0  0  0
   60.3620   34.4910   47.7460 C   0  0  0  0  0  0  0  0  0  0  0  0
   59.2670   33.8620   48.3460 C   0  0  0  0  0  0  0  0  0  0  0  0
   58.2330   33.3490   47.5550 C   0  0  0  0  0  0  0  0  0  0  0  0
   58.4380   29.4320   46.8260 N   0  0  0  0  0  0  0  0  0  0  0  0
   59.3760   30.3830   47.0890 C   0  0  0  0  0  0  0  0  0  0  0  0
   63.5375   32.7626   48.2944 H   0  0  0  0  0  0  0  0  0  0  0  0
   64.2978   32.2770   46.7410 H   0  0  0  0  0  0  0  0  0  0  0  0
   62.8807   33.3809   46.7410 H   0  0  0  0  0  0  0  0  0  0  0  0
   61.4466   28.5435   49.0811 H   0  0  0  0  0  0  0  0  0  0  0  0
   59.7029   26.8298   48.5870 H   0  0  0  0  0  0  0  0  0  0  0  0
   58.2825   26.6267   44.3874 H   0  0  0  0  0  0  0  0  0  0  0  0
   56.6455   27.0948   43.7840 H   0  0  0  0  0  0  0  0  0  0  0  0
   57.9639   30.4208   42.4507 H   0  0  0  0  0  0  0  0  0  0  0  0
   56.3650   31.1983   42.8203 H   0  0  0  0  0  0  0  0  0  0  0  0
   58.9170   31.6126   44.4391 H   0  0  0  0  0  0  0  0  0  0  0  0
   58.2901   32.7268   43.1483 H   0  0  0  0  0  0  0  0  0  0  0  0
   59.4449   34.1828   44.4669 H   0  0  0  0  0  0  0  0  0  0  0  0
   61.2855   35.1033   45.8806 H   0  0  0  0  0  0  0  0  0  0  0  0
   61.1738   34.8946   48.3689 H   0  0  0  0  0  0  0  0  0  0  0  0
   59.2183   33.7703   49.4411 H   0  0  0  0  0  0  0  0  0  0  0  0
   57.3701   32.8579   48.0284 H   0  0  0  0  0  0  0  0  0  0  0  0
   57.6200   29.7170   46.2450 H   0  0  0  0  0  0  0  0  0  0  0  0
   59.2632   31.3915   46.6644 H   0  0  0  0  0  0  0  0  0  0  0  0
  1  2  1  0
  2  3  1  0
  3  4  2  0
  3  5  1  0
  5  6  1  0
  6  7  2  0
  7  8  1  0
  8  9  2  3
  9 10  1  0
 10 11  2  0
 10 12  1  0
 12 13  1  0
 13 14  1  0
 14 15  2  0
 14 16  1  0
 16 17  1  0
 17 18  1  0
 18 19  1  0
 19 20  2  0
 20 21  1  0
 21 22  2  0
 22 23  1  0
 23 24  2  0
  8 25  1  0
 25 26  1  0
 26  5  2  0
 24 19  1  0
  1 27  1  0
  1 28  1  0
  1 29  1  0
  6 30  1  0
  7 31  1  0
 12 32  1  0
 12 33  1  0
 16 34  1  0
 16 35  1  0
 17 36  1  0
 17 37  1  0
 20 38  1  0
 21 39  1  0
 22 40  1  0
 23 41  1  0
 24 42  1  0
 25 43  1  0
 26 44  1  0
M  END
>  <UniqueID>  (72) 
68

>  <SMILES>  (72) 
COC(=O)c1ccc(=NC(=O)COC(=O)CCSc2ccccc2)[nH]c1

>  <Energy>  (72) 
38.82673754316756

>  <Genealogy>  (72) 
COC(=O)c1ccc(=NC(=O)COC(=O)CCSc2ccccc2)[nH]c1 (3D coordinates assigned)
COC(=O)c1ccc(=NC(=O)COC(=O)CCSc2ccccc2)[nH]c1 (optimized conformer: 38.82673754316756 kcal/mol)

>  <smiles>  (72) 
COC(=O)c1ccc(=NC(=O)COC(=O)CCSc2ccccc2)[nH]c1

>  <score_type>  (72) 
oracle

>  <origin>  (72) 
adg

>  <m_score__min__energy>  (72) 
-7.4699999999999998

>  <m_primary>  (72) 
energy

$$$$
72:0
     RDKit          3D

 49 52  0  0  0  0  0  0  0  0999 V2000
   54.4120   25.9940   45.9960 N   0  0  0  0  0  0  0  0  0  0  0  0
   54.5460   24.5750   45.9930 C   0  0  0  0  0  0  0  0  0  0  0  0
   53.5800   23.8520   46.3580 O   0  0  0  0  0  0  0  0  0  0  0  0
   55.8430   23.9470   45.5970 C   0  0  0  0  0  0  0  0  0  0  0  0
   56.5810   24.8440   44.6590 C   0  0  0  0  0  0  0  0  0  0  0  0
   57.0950   26.0410   45.0170 N   0  0  0  0  0  0  0  0  0  0  0  0
   57.7680   26.6350   43.9940 C   0  0  0  0  0  0  0  0  0  0  0  0
   58.3950   27.9600   44.1570 C   0  0  0  0  0  0  0  0  0  0  0  0
   59.6510   28.0520   44.1110 O   0  0  0  0  0  0  0  0  0  0  0  0
   57.5930   29.1420   44.3180 N   0  0  0  0  0  0  0  0  0  0  0  0
   58.0910   30.3790   44.8580 C   0  0  0  0  0  0  0  0  0  0  0  0
   59.0550   30.3470   45.8740 C   0  0  0  0  0  0  0  0  0  0  0  0
   59.5830   31.5340   46.3910 C   0  0  0  0  0  0  0  0  0  0  0  0
   59.1610   32.7770   45.8910 C   0  0  0  0  0  0  0  0  0  0  0  0
   59.7370   34.0360   46.4190 C   0  0  0  0  0  0  0  0  0  0  0  0
   59.1640   35.1350   46.1780 O   0  0  0  0  0  0  0  0  0  0  0  0
   60.9380   34.0310   47.2110 N   0  0  0  0  0  0  0  0  0  0  0  0
   62.2350   34.1300   46.5310 C   0  0  0  0  0  0  0  0  0  0  0  0
   63.2190   33.1270   47.1320 C   0  0  0  0  0  0  0  0  0  0  0  0
   63.3970   33.3890   48.6290 C   0  0  0  0  0  0  0  0  0  0  0  0
   62.0720   33.4930   49.3460 C   0  0  0  0  0  0  0  0  0  0  0  0
   62.0330   33.3230   50.7400 C   0  0  0  0  0  0  0  0  0  0  0  0
   60.8350   33.4810   51.4370 C   0  0  0  0  0  0  0  0  0  0  0  0
   59.6690   33.8300   50.7540 C   0  0  0  0  0  0  0  0  0  0  0  0
   59.6950   34.0170   49.3690 C   0  0  0  0  0  0  0  0  0  0  0  0
   60.8940   33.8450   48.6470 C   0  0  0  0  0  0  0  0  0  0  0  0
   58.2150   32.8090   44.8530 C   0  0  0  0  0  0  0  0  0  0  0  0
   57.6850   31.6210   44.3400 C   0  0  0  0  0  0  0  0  0  0  0  0
   57.7970   25.9010   42.8070 C   0  0  0  0  0  0  0  0  0  0  0  0
   56.9580   24.4670   43.0660 S   0  0  0  0  0  0  0  0  0  0  0  0
   54.9570   26.5850   45.3310 H   0  0  0  0  0  0  0  0  0  0  0  0
   56.4546   23.7774   46.4954 H   0  0  0  0  0  0  0  0  0  0  0  0
   55.6413   22.9888   45.0958 H   0  0  0  0  0  0  0  0  0  0  0  0
   56.6210   29.1350   43.9340 H   0  0  0  0  0  0  0  0  0  0  0  0
   59.3995   29.3797   46.2684 H   0  0  0  0  0  0  0  0  0  0  0  0
   60.3335   31.4942   47.1942 H   0  0  0  0  0  0  0  0  0  0  0  0
   62.1025   33.9135   45.4607 H   0  0  0  0  0  0  0  0  0  0  0  0
   62.6331   35.1473   46.6597 H   0  0  0  0  0  0  0  0  0  0  0  0
   62.8328   32.1075   46.9855 H   0  0  0  0  0  0  0  0  0  0  0  0
   64.1923   33.2370   46.6314 H   0  0  0  0  0  0  0  0  0  0  0  0
   63.9746   32.5622   49.0681 H   0  0  0  0  0  0  0  0  0  0  0  0
   63.9232   34.3479   48.7462 H   0  0  0  0  0  0  0  0  0  0  0  0
   62.9526   33.0638   51.2851 H   0  0  0  0  0  0  0  0  0  0  0  0
   60.8093   33.3303   52.5263 H   0  0  0  0  0  0  0  0  0  0  0  0
   58.7269   33.9583   51.3072 H   0  0  0  0  0  0  0  0  0  0  0  0
   58.7739   34.3003   48.8387 H   0  0  0  0  0  0  0  0  0  0  0  0
   57.8889   33.7753   44.4409 H   0  0  0  0  0  0  0  0  0  0  0  0
   56.9459   31.6587   43.5262 H   0  0  0  0  0  0  0  0  0  0  0  0
   58.2827   26.2066   41.8685 H   0  0  0  0  0  0  0  0  0  0  0  0
  1  2  1  0
  2  3  2  0
  2  4  1  0
  4  5  1  0
  5  6  2  0
  6  7  1  0
  7  8  1  0
  8  9  2  0
  8 10  1  0
 10 11  1  0
 11 12  2  0
 12 13  1  0
 13 14  2  0
 14 15  1  0
 15 16  2  0
 15 17  1  0
 17 18  1  0
 18 19  1  0
 19 20  1  0
 20 21  1  0
 21 22  2  0
 22 23  1  0
 23 24  2  0
 24 25  1  0
 25 26  2  0
 14 27  1  0
 27 28  2  0
  7 29  2  0
 29 30  1  0
 30  5  1  0
 28 11  1  0
 26 17  1  0
 26 21  1  0
  1 31  1  0
  4 32  1  0
  4 33  1  0
 10 34  1  0
 12 35  1  0
 13 36  1  0
 18 37  1  0
 18 38  1  0
 19 39  1  0
 19 40  1  0
 20 41  1  0
 20 42  1  0
 22 43  1  0
 23 44  1  0
 24 45  1  0
 25 46  1  0
 27 47  1  0
 28 48  1  0
 29 49  1  0
M  CHG  1   1  -1
M  END
>  <UniqueID>  (73) 
69

>  <SMILES>  (73) 
[NH-]C(=O)Cc1nc(C(=O)Nc2ccc(C(=O)N3CCCc4ccccc43)cc2)cs1

>  <Energy>  (73) 
90.42853727680236

>  <Genealogy>  (73) 
[NH-]C(=O)Cc1nc(C(=O)Nc2ccc(C(=O)N3CCCc4ccccc43)cc2)cs1 (protonated)
[NH-]C(=O)Cc1nc(C(=O)Nc2ccc(C(=O)N3CCCc4ccccc43)cc2)cs1 (3D coordinates assigned)
[NH-]C(=O)Cc1nc(C(=O)Nc2ccc(C(=O)N3CCCc4ccccc43)cc2)cs1 (nonaromatic ring conformer: 90.42853727680236 kcal/mol)

>  <smiles>  (73) 
NC(=O)Cc1nc(C(=O)Nc2ccc(C(=O)N3CCCc4ccccc43)cc2)cs1

>  <score_type>  (73) 
oracle

>  <origin>  (73) 
adg

>  <m_score__min__energy>  (73) 
-13.1

>  <m_primary>  (73) 
energy

$$$$
73:0
     RDKit          3D

 62 65  0  0  0  0  0  0  0  0999 V2000
   50.6270   24.8130   44.2330 C   0  0  0  0  0  0  0  0  0  0  0  0
   51.7670   24.0350   44.8110 C   0  0  0  0  0  0  0  0  0  0  0  0
   53.0700   24.4770   44.9110 C   0  0  0  0  0  0  0  0  0  0  0  0
   53.7490   23.3980   45.4390 C   0  0  0  0  0  0  0  0  0  0  0  0
   55.2050   23.3830   45.7890 C   0  0  0  0  0  0  0  0  0  0  0  0
   55.5570   24.5060   46.6460 N   0  0  0  0  0  0  0  0  0  0  0  0
   55.9690   25.7980   46.1750 C   0  0  0  0  0  0  0  0  0  0  0  0
   55.1150   26.7090   45.9980 O   0  0  0  0  0  0  0  0  0  0  0  0
   57.4110   26.0870   45.8510 C   0  0  2  0  0  0  0  0  0  0  0  0
   58.1360   26.6040   47.1110 C   0  0  0  0  0  0  0  0  0  0  0  0
   59.5510   27.0740   46.7710 C   0  0  0  0  0  0  0  0  0  0  0  0
   59.5930   28.0920   45.6070 C   0  0  0  0  0  0  0  0  0  0  0  0
   58.2870   28.2940   44.9380 N   0  0  0  0  0  0  0  0  0  0  0  0
   57.4160   29.2930   45.5930 C   0  0  0  0  0  0  0  0  0  0  0  0
   57.5920   30.6260   44.9220 C   0  0  0  0  0  0  0  0  0  0  0  0
   57.6050   30.7170   43.5200 C   0  0  0  0  0  0  0  0  0  0  0  0
   57.8170   31.9480   42.8990 C   0  0  0  0  0  0  0  0  0  0  0  0
   58.0190   33.0990   43.6680 C   0  0  0  0  0  0  0  0  0  0  0  0
   58.0330   33.0140   45.0720 C   0  0  0  0  0  0  0  0  0  0  0  0
   58.2330   34.1790   45.8890 N   0  0  0  0  0  0  0  0  0  0  0  0
   59.4850   34.6250   46.4240 C   0  0  0  0  0  0  0  0  0  0  0  0
   59.6910   35.8650   46.5140 O   0  0  0  0  0  0  0  0  0  0  0  0
   60.5070   33.6790   46.9280 C   0  0  0  0  0  0  0  0  0  0  0  0
   60.1210   32.5610   47.6840 C   0  0  0  0  0  0  0  0  0  0  0  0
   61.0800   31.6540   48.1470 C   0  0  0  0  0  0  0  0  0  0  0  0
   62.4300   31.8530   47.8560 C   0  0  0  0  0  0  0  0  0  0  0  0
   62.8230   32.9450   47.0820 C   0  0  0  0  0  0  0  0  0  0  0  0
   64.1330   33.1190   46.7730 F   0  0  0  0  0  0  0  0  0  0  0  0
   61.8680   33.8500   46.6090 C   0  0  0  0  0  0  0  0  0  0  0  0
   57.8050   31.7800   45.6910 C   0  0  0  0  0  0  0  0  0  0  0  0
   57.6060   27.0210   44.6200 C   0  0  0  0  0  0  0  0  0  0  0  0
   52.9060   22.3610   45.6340 N   0  0  0  0  0  0  0  0  0  0  0  0
   51.7060   22.7540   45.2320 N   0  0  0  0  0  0  0  0  0  0  0  0
   50.5320   21.9140   45.2550 C   0  0  0  0  0  0  0  0  0  0  0  0
   50.0168   25.2295   45.0480 H   0  0  0  0  0  0  0  0  0  0  0  0
   51.0194   25.6326   43.6131 H   0  0  0  0  0  0  0  0  0  0  0  0
   50.0068   24.1489   43.6131 H   0  0  0  0  0  0  0  0  0  0  0  0
   53.4742   25.4618   44.6339 H   0  0  0  0  0  0  0  0  0  0  0  0
   55.4370   22.4451   46.3148 H   0  0  0  0  0  0  0  0  0  0  0  0
   55.7856   23.4626   44.8581 H   0  0  0  0  0  0  0  0  0  0  0  0
   57.8740   25.1380   45.5426 H   0  0  0  0  0  0  0  0  0  0  0  0
   57.5683   27.4462   47.5333 H   0  0  0  0  0  0  0  0  0  0  0  0
   58.2036   25.7829   47.8399 H   0  0  0  0  0  0  0  0  0  0  0  0
   59.9863   27.5462   47.6640 H   0  0  0  0  0  0  0  0  0  0  0  0
   60.1209   26.1891   46.4514 H   0  0  0  0  0  0  0  0  0  0  0  0
   59.9312   29.0599   46.0056 H   0  0  0  0  0  0  0  0  0  0  0  0
   60.2791   27.6834   44.8505 H   0  0  0  0  0  0  0  0  0  0  0  0
   56.3661   28.9757   45.5089 H   0  0  0  0  0  0  0  0  0  0  0  0
   57.6889   29.3778   46.6552 H   0  0  0  0  0  0  0  0  0  0  0  0
   57.4476   29.8150   42.9103 H   0  0  0  0  0  0  0  0  0  0  0  0
   57.8254   32.0139   41.8010 H   0  0  0  0  0  0  0  0  0  0  0  0
   58.1669   34.0709   43.1746 H   0  0  0  0  0  0  0  0  0  0  0  0
   59.0578   32.3971   47.9137 H   0  0  0  0  0  0  0  0  0  0  0  0
   60.7693   30.7823   48.7416 H   0  0  0  0  0  0  0  0  0  0  0  0
   63.1844   31.1488   48.2369 H   0  0  0  0  0  0  0  0  0  0  0  0
   62.1812   34.6997   45.9846 H   0  0  0  0  0  0  0  0  0  0  0  0
   57.7927   31.7142   46.7890 H   0  0  0  0  0  0  0  0  0  0  0  0
   56.6159   27.2529   44.2005 H   0  0  0  0  0  0  0  0  0  0  0  0
   58.2496   26.4827   43.9086 H   0  0  0  0  0  0  0  0  0  0  0  0
   50.2473   21.7103   46.2978 H   0  0  0  0  0  0  0  0  0  0  0  0
   49.7045   22.4263   44.7424 H   0  0  0  0  0  0  0  0  0  0  0  0
   50.7497   20.9654   44.7424 H   0  0  0  0  0  0  0  0  0  0  0  0
  1  2  1  0
  2  3  2  0
  3  4  1  0
  4  5  1  0
  5  6  1  0
  6  7  1  0
  7  8  2  0
  7  9  1  0
  9 10  1  0
 10 11  1  0
 11 12  1  0
 12 13  1  0
 13 14  1  0
 14 15  1  0
 15 16  2  0
 16 17  1  0
 17 18  2  0
 18 19  1  0
 19 20  1  0
 20 21  1  0
 21 22  2  0
 21 23  1  0
 23 24  2  0
 24 25  1  0
 25 26  2  0
 26 27  1  0
 27 28  1  0
 27 29  2  0
 19 30  2  0
 13 31  1  0
  4 32  2  0
 32 33  1  0
 33 34  1  0
 33  2  1  0
 31  9  1  0
 30 15  1  0
 29 23  1  0
  1 35  1  0
  1 36  1  0
  1 37  1  0
  3 38  1  0
  5 39  1  0
  5 40  1  0
  9 41  1  6
 10 42  1  0
 10 43  1  0
 11 44  1  0
 11 45  1  0
 12 46  1  0
 12 47  1  0
 14 48  1  0
 14 49  1  0
 16 50  1  0
 17 51  1  0
 18 52  1  0
 24 53  1  0
 25 54  1  0
 26 55  1  0
 29 56  1  0
 30 57  1  0
 31 58  1  0
 31 59  1  0
 34 60  1  0
 34 61  1  0
 34 62  1  0
M  CHG  2   6  -1  20  -1
M  END
>  <UniqueID>  (74) 
70

>  <SMILES>  (74) 
Cc1cc(C[N-]C(=O)[C@@H]2CCCN(Cc3cccc([N-]C(=O)c4cccc(F)c4)c3)C2)nn1C

>  <Energy>  (74) 
110.60612945180645

>  <Genealogy>  (74) 
Cc1cc(C[N-]C(=O)C2CCCN(Cc3cccc([N-]C(=O)c4cccc(F)c4)c3)C2)nn1C (protonated)
Cc1cc(C[N-]C(=O)[C@@H]2CCCN(Cc3cccc([N-]C(=O)c4cccc(F)c4)c3)C2)nn1C (chirality)
Cc1cc(C[N-]C(=O)[C@@H]2CCCN(Cc3cccc([N-]C(=O)c4cccc(F)c4)c3)C2)nn1C (3D coordinates assigned)
Cc1cc(C[N-]C(=O)[C@@H]2CCCN(Cc3cccc([N-]C(=O)c4cccc(F)c4)c3)C2)nn1C (nonaromatic ring conformer: 110.60612945180645 kcal/mol)

>  <smiles>  (74) 
Cc1cc(CNC(=O)C2CCCN(Cc3cccc(NC(=O)c4cccc(F)c4)c3)C2)nn1C

>  <score_type>  (74) 
oracle

>  <origin>  (74) 
adg

>  <m_score__min__energy>  (74) 
-13.23

>  <m_primary>  (74) 
energy

$$$$
74:0
     RDKit          3D

 50 53  0  0  0  0  0  0  0  0999 V2000
   58.7110   32.6160   47.8550 H   0  0  0  0  0  0  0  0  0  0  0  0
   58.7510   31.6660   48.2030 O   0  0  0  0  0  0  0  0  0  0  0  0
   59.5260   30.7310   47.5610 N   0  0  0  0  0  0  0  0  0  0  0  0
   59.1270   29.5210   47.3000 C   0  0  0  0  0  0  0  0  0  0  0  0
   58.6760   29.0120   46.0020 C   0  0  0  0  0  0  0  0  0  0  0  0
   58.0220   29.6450   44.9190 C   0  0  0  0  0  0  0  0  0  0  0  0
   57.4490   31.0020   45.0130 C   0  0  0  0  0  0  0  0  0  0  0  0
   56.3220   31.2310   44.4940 O   0  0  0  0  0  0  0  0  0  0  0  0
   58.1750   32.0520   45.6740 N   0  0  0  0  0  0  0  0  0  0  0  0
   59.0750   31.8150   46.1500 H   0  0  0  0  0  0  0  0  0  0  0  0
   57.7120   33.4050   45.7800 C   0  0  0  0  0  0  0  0  0  0  0  0
   56.6440   33.7660   45.2150 O   0  0  0  0  0  0  0  0  0  0  0  0
   58.4660   34.3240   46.5190 O   0  0  0  0  0  0  0  0  0  0  0  0
   59.7460   34.7990   46.1060 C   0  0  0  0  0  0  0  0  0  0  0  0
   59.9145   34.5201   45.0554 H   0  0  0  0  0  0  0  0  0  0  0  0
   59.7731   35.8932   46.2154 H   0  0  0  0  0  0  0  0  0  0  0  0
   60.8290   34.1960   46.9590 C   0  0  0  0  0  0  0  0  0  0  0  0
   61.9980   33.6810   46.3750 C   0  0  0  0  0  0  0  0  0  0  0  0
   62.1189   33.7009   45.2818 H   0  0  0  0  0  0  0  0  0  0  0  0
   63.0090   33.1430   47.1780 C   0  0  0  0  0  0  0  0  0  0  0  0
   63.9216   32.7387   46.7158 H   0  0  0  0  0  0  0  0  0  0  0  0
   62.8600   33.1190   48.5670 C   0  0  0  0  0  0  0  0  0  0  0  0
   63.6557   32.6959   49.1977 H   0  0  0  0  0  0  0  0  0  0  0  0
   61.7010   33.6320   49.1560 C   0  0  0  0  0  0  0  0  0  0  0  0
   61.5850   33.6117   50.2497 H   0  0  0  0  0  0  0  0  0  0  0  0
   60.6890   34.1710   48.3560 C   0  0  0  0  0  0  0  0  0  0  0  0
   59.7795   34.5771   48.8228 H   0  0  0  0  0  0  0  0  0  0  0  0
   57.7670   28.8770   43.7640 C   0  0  0  0  0  0  0  0  0  0  0  0
   57.3140   29.3542   42.8825 H   0  0  0  0  0  0  0  0  0  0  0  0
   58.0850   27.5100   43.7270 C   0  0  0  0  0  0  0  0  0  0  0  0
   57.9034   26.9294   42.8105 H   0  0  0  0  0  0  0  0  0  0  0  0
   58.6320   26.8840   44.8520 C   0  0  0  0  0  0  0  0  0  0  0  0
   58.8457   25.8050   44.8432 H   0  0  0  0  0  0  0  0  0  0  0  0
   58.9020   27.6520   45.9860 C   0  0  0  0  0  0  0  0  0  0  0  0
   59.4230   27.1350   47.2840 C   0  0  0  0  0  0  0  0  0  0  0  0
   60.4487   26.7548   47.1682 H   0  0  0  0  0  0  0  0  0  0  0  0
   58.8258   26.2966   47.6719 H   0  0  0  0  0  0  0  0  0  0  0  0
   59.3970   28.3650   48.2260 C   0  0  1  0  0  0  0  0  0  0  0  0
   58.6309   28.3028   49.0129 H   0  0  0  0  0  0  0  0  0  0  0  0
   60.7180   28.4920   49.0150 C   0  0  0  0  0  0  0  0  0  0  0  0
   60.9240   27.5391   49.5245 H   0  0  0  0  0  0  0  0  0  0  0  0
   61.5232   28.7368   48.3066 H   0  0  0  0  0  0  0  0  0  0  0  0
   60.6410   29.5590   50.0130 N   0  0  0  0  0  0  0  0  0  0  0  0
   61.6400   30.3730   50.4090 C   0  0  0  0  0  0  0  0  0  0  0  0
   62.6689   30.3112   50.0248 H   0  0  0  0  0  0  0  0  0  0  0  0
   61.2350   31.2720   51.3300 N   0  0  0  0  0  0  0  0  0  0  0  0
   59.9250   31.0030   51.5060 C   0  0  0  0  0  0  0  0  0  0  0  0
   59.2546   31.5398   52.1933 H   0  0  0  0  0  0  0  0  0  0  0  0
   59.5550   29.9550   50.6950 C   0  0  0  0  0  0  0  0  0  0  0  0
   58.5479   29.5191   50.6190 H   0  0  0  0  0  0  0  0  0  0  0  0
  1  2  1  0
  2  3  1  0
  3  4  2  0
  4  5  1  0
  5  6  2  0
  6  7  1  0
  7  8  2  0
  7  9  1  0
  9 10  1  0
  9 11  1  0
 11 12  2  0
 11 13  1  0
 13 14  1  0
 14 15  1  0
 14 16  1  0
 14 17  1  0
 17 18  2  0
 18 19  1  0
 18 20  1  0
 20 21  1  0
 20 22  2  0
 22 23  1  0
 22 24  1  0
 24 25  1  0
 24 26  2  0
 26 27  1  0
  6 28  1  0
 28 29  1  0
 28 30  2  0
 30 31  1  0
 30 32  1  0
 32 33  1  0
 32 34  2  0
 34 35  1  0
 35 36  1  0
 35 37  1  0
 35 38  1  0
 38 39  1  1
 38 40  1  0
 40 41  1  0
 40 42  1  0
 40 43  1  0
 43 44  1  0
 44 45  1  0
 44 46  2  0
 46 47  1  0
 47 48  1  0
 47 49  2  0
 49 50  1  0
 38  4  1  0
 49 43  1  0
 34  5  1  0
 26 17  1  0
M  END
>  <UniqueID>  (75) 
71

>  <SMILES>  (75) 
O=C(NC(=O)c1cccc2c1/C(=N\O)[C@H](Cn1ccnc1)C2)OCc1ccccc1

>  <Energy>  (75) 
105.15220676182949

>  <Genealogy>  (75) 
O=C(NC(=O)c1cccc2c1C(=NO)[C@H](Cn1ccnc1)C2)OCc1ccccc1 (chirality)
O=C(NC(=O)c1cccc2c1/C(=N\O)[C@H](Cn1ccnc1)C2)OCc1ccccc1 (cis-trans isomerization)
O=C(NC(=O)c1cccc2c1/C(=N\O)[C@H](Cn1ccnc1)C2)OCc1ccccc1 (3D coordinates assigned)
O=C(NC(=O)c1cccc2c1/C(=N\O)[C@H](Cn1ccnc1)C2)OCc1ccccc1 (nonaromatic ring conformer: 105.15220676182949 kcal/mol)

>  <smiles>  (75) 
O=C(NC(=O)c1cccc2c1C(=NO)C(Cn1ccnc1)C2)OCc1ccccc1

>  <score_type>  (75) 
oracle

>  <origin>  (75) 
adg

>  <m_score__min__energy>  (75) 
-9.1199999999999992

>  <m_primary>  (75) 
energy

$$$$
75:0
     RDKit          3D

 60 63  0  0  0  0  0  0  0  0999 V2000
   59.4040   26.8800   46.9870 C   0  0  0  0  0  0  0  0  0  0  0  0
   59.6510   27.3570   45.6150 N   0  0  0  0  0  0  0  0  0  0  0  0
   58.4940   27.0850   44.7300 C   0  0  0  0  0  0  0  0  0  0  0  0
   57.4370   28.2010   44.7800 C   0  0  0  0  0  0  0  0  0  0  0  0
   58.0440   29.5220   44.5770 N   0  0  0  0  0  0  0  0  0  0  0  0
   57.1880   30.6790   44.4560 C   0  0  0  0  0  0  0  0  0  0  0  0
   55.9950   30.6050   44.8620 O   0  0  0  0  0  0  0  0  0  0  0  0
   57.7060   31.9810   43.8960 C   0  0  0  0  0  0  0  0  0  0  0  0
   58.3620   32.8310   44.9420 C   0  0  0  0  0  0  0  0  0  0  0  0
   58.5600   34.2040   44.8580 C   0  0  0  0  0  0  0  0  0  0  0  0
   59.2540   34.7280   45.9530 C   0  0  0  0  0  0  0  0  0  0  0  0
   59.6170   33.7650   46.8880 C   0  0  0  0  0  0  0  0  0  0  0  0
   60.3270   34.0030   48.1550 C   0  0  0  0  0  0  0  0  0  0  0  0
   59.6500   34.2620   49.1890 O   0  0  0  0  0  0  0  0  0  0  0  0
   61.7650   33.9200   48.2410 N   0  0  0  0  0  0  0  0  0  0  0  0
   62.4820   34.5940   49.3240 C   0  0  0  0  0  0  0  0  0  0  0  0
   62.9910   33.5460   50.3200 C   0  0  0  0  0  0  0  0  0  0  0  0
   63.5540   32.3400   49.6610 N   0  0  0  0  0  0  0  0  0  0  0  0
   63.0520   31.0450   50.1750 C   0  0  0  0  0  0  0  0  0  0  0  0
   61.5690   30.8360   49.9500 C   0  0  0  0  0  0  0  0  0  0  0  0
   61.1260   30.0540   48.8690 C   0  0  0  0  0  0  0  0  0  0  0  0
   59.7540   29.8990   48.6230 C   0  0  0  0  0  0  0  0  0  0  0  0
   58.8180   30.5140   49.4540 C   0  0  0  0  0  0  0  0  0  0  0  0
   59.2490   31.2670   50.5500 C   0  0  0  0  0  0  0  0  0  0  0  0
   60.6170   31.4220   50.8040 C   0  0  0  0  0  0  0  0  0  0  0  0
   63.7510   32.4190   48.1950 C   0  0  0  0  0  0  0  0  0  0  0  0
   62.5010   32.9260   47.4470 C   0  0  0  0  0  0  0  0  0  0  0  0
   59.0580   32.2640   46.3650 S   0  0  0  0  0  0  0  0  0  0  0  0
   59.5070   29.6210   44.5000 C   0  0  0  0  0  0  0  0  0  0  0  0
   60.1290   28.7670   45.6110 C   0  0  0  0  0  0  0  0  0  0  0  0
   59.7866   27.6189   47.7065 H   0  0  0  0  0  0  0  0  0  0  0  0
   58.3229   26.7455   47.1394 H   0  0  0  0  0  0  0  0  0  0  0  0
   59.9181   25.9195   47.1394 H   0  0  0  0  0  0  0  0  0  0  0  0
   58.8563   26.9887   43.6958 H   0  0  0  0  0  0  0  0  0  0  0  0
   58.0169   26.1578   45.0803 H   0  0  0  0  0  0  0  0  0  0  0  0
   56.6920   28.0241   43.9903 H   0  0  0  0  0  0  0  0  0  0  0  0
   56.9638   28.1859   45.7729 H   0  0  0  0  0  0  0  0  0  0  0  0
   58.4413   31.7594   43.1084 H   0  0  0  0  0  0  0  0  0  0  0  0
   56.8468   32.5411   43.4984 H   0  0  0  0  0  0  0  0  0  0  0  0
   58.2066   34.8165   44.0154 H   0  0  0  0  0  0  0  0  0  0  0  0
   59.4896   35.7968   46.0638 H   0  0  0  0  0  0  0  0  0  0  0  0
   63.3344   35.1522   48.9094 H   0  0  0  0  0  0  0  0  0  0  0  0
   61.8049   35.2930   49.8367 H   0  0  0  0  0  0  0  0  0  0  0  0
   63.7755   34.0044   50.9400 H   0  0  0  0  0  0  0  0  0  0  0  0
   62.1294   33.2191   50.9206 H   0  0  0  0  0  0  0  0  0  0  0  0
   63.5978   30.2351   49.6689 H   0  0  0  0  0  0  0  0  0  0  0  0
   63.2159   31.0448   51.2627 H   0  0  0  0  0  0  0  0  0  0  0  0
   61.8589   29.5614   48.2131 H   0  0  0  0  0  0  0  0  0  0  0  0
   59.4151   29.2903   47.7718 H   0  0  0  0  0  0  0  0  0  0  0  0
   57.7429   30.4068   49.2474 H   0  0  0  0  0  0  0  0  0  0  0  0
   58.5109   31.7393   51.2150 H   0  0  0  0  0  0  0  0  0  0  0  0
   60.9491   32.0049   51.6757 H   0  0  0  0  0  0  0  0  0  0  0  0
   64.5853   33.1058   47.9896 H   0  0  0  0  0  0  0  0  0  0  0  0
   63.9603   31.4008   47.8351 H   0  0  0  0  0  0  0  0  0  0  0  0
   62.8143   33.3869   46.4986 H   0  0  0  0  0  0  0  0  0  0  0  0
   61.8362   32.0688   47.2647 H   0  0  0  0  0  0  0  0  0  0  0  0
   59.8494   29.2564   43.5203 H   0  0  0  0  0  0  0  0  0  0  0  0
   59.8136   30.6700   44.6246 H   0  0  0  0  0  0  0  0  0  0  0  0
   61.2209   28.7640   45.4777 H   0  0  0  0  0  0  0  0  0  0  0  0
   59.8267   29.2136   46.5697 H   0  0  0  0  0  0  0  0  0  0  0  0
  1  2  1  0
  2  3  1  0
  3  4  1  0
  4  5  1  0
  5  6  1  0
  6  7  2  0
  6  8  1  0
  8  9  1  0
  9 10  2  0
 10 11  1  0
 11 12  2  0
 12 13  1  0
 13 14  2  0
 13 15  1  0
 15 16  1  0
 16 17  1  0
 17 18  1  0
 18 19  1  0
 19 20  1  0
 20 21  2  0
 21 22  1  0
 22 23  2  0
 23 24  1  0
 24 25  2  0
 18 26  1  0
 26 27  1  0
 12 28  1  0
  5 29  1  0
 29 30  1  0
 30  2  1  0
 28  9  1  0
 27 15  1  0
 25 20  1  0
  1 31  1  0
  1 32  1  0
  1 33  1  0
  3 34  1  0
  3 35  1  0
  4 36  1  0
  4 37  1  0
  8 38  1  0
  8 39  1  0
 10 40  1  0
 11 41  1  0
 16 42  1  0
 16 43  1  0
 17 44  1  0
 17 45  1  0
 19 46  1  0
 19 47  1  0
 21 48  1  0
 22 49  1  0
 23 50  1  0
 24 51  1  0
 25 52  1  0
 26 53  1  0
 26 54  1  0
 27 55  1  0
 27 56  1  0
 29 57  1  0
 29 58  1  0
 30 59  1  0
 30 60  1  0
M  END
>  <UniqueID>  (76) 
72

>  <SMILES>  (76) 
CN1CCN(C(=O)Cc2ccc(C(=O)N3CCN(Cc4ccccc4)CC3)s2)CC1

>  <Energy>  (76) 
108.28804514893432

>  <Genealogy>  (76) 
CN1CCN(C(=O)Cc2ccc(C(=O)N3CCN(Cc4ccccc4)CC3)s2)CC1 (3D coordinates assigned)
CN1CCN(C(=O)Cc2ccc(C(=O)N3CCN(Cc4ccccc4)CC3)s2)CC1 (nonaromatic ring conformer: 108.28804514893432 kcal/mol)

>  <smiles>  (76) 
CN1CCN(C(=O)Cc2ccc(C(=O)N3CCN(Cc4ccccc4)CC3)s2)CC1

>  <score_type>  (76) 
oracle

>  <origin>  (76) 
adg

>  <m_score__min__energy>  (76) 
-8.9399999999999995

>  <m_primary>  (76) 
energy

$$$$
76:0
     RDKit          3D

 60 62  0  0  0  0  0  0  0  0999 V2000
   55.1480   27.0900   45.2860 H   0  0  0  0  0  0  0  0  0  0  0  0
   56.1060   27.2770   45.6570 N   0  0  0  0  0  0  0  0  0  0  0  0
   56.6520   28.7500   44.9380 S   0  0  0  0  0  0  0  0  0  0  0  0
   55.5480   29.7690   44.9750 O   0  0  0  0  0  0  0  0  0  0  0  0
   57.0210   28.4830   43.5070 O   0  0  0  0  0  0  0  0  0  0  0  0
   58.0440   29.3680   45.8240 C   0  0  0  0  0  0  0  0  0  0  0  0
   58.8180   30.4130   45.3020 C   0  0  0  0  0  0  0  0  0  0  0  0
   58.5732   30.8371   44.3170 H   0  0  0  0  0  0  0  0  0  0  0  0
   59.9010   30.9190   46.0290 C   0  0  0  0  0  0  0  0  0  0  0  0
   60.5120   31.7314   45.6086 H   0  0  0  0  0  0  0  0  0  0  0  0
   60.2110   30.3920   47.2960 C   0  0  0  0  0  0  0  0  0  0  0  0
   61.3240   30.8660   48.0680 N   0  0  0  0  0  0  0  0  0  0  0  0
   62.4140   31.6730   47.6060 C   0  0  0  0  0  0  0  0  0  0  0  0
   63.2670   31.2160   46.7990 O   0  0  0  0  0  0  0  0  0  0  0  0
   62.5140   33.0850   48.0750 C   0  0  0  0  0  0  0  0  0  0  0  0
   62.8889   33.7209   47.2595 H   0  0  0  0  0  0  0  0  0  0  0  0
   63.2086   33.1508   48.9254 H   0  0  0  0  0  0  0  0  0  0  0  0
   61.2190   33.5240   48.4690 O   0  0  0  0  0  0  0  0  0  0  0  0
   60.1500   33.7560   47.5890 C   0  0  0  0  0  0  0  0  0  0  0  0
   60.3510   34.2770   46.2960 C   0  0  0  0  0  0  0  0  0  0  0  0
   61.3619   34.5662   45.9729 H   0  0  0  0  0  0  0  0  0  0  0  0
   59.2710   34.4280   45.4220 C   0  0  0  0  0  0  0  0  0  0  0  0
   59.4353   34.8285   44.4108 H   0  0  0  0  0  0  0  0  0  0  0  0
   57.9850   34.0720   45.8290 C   0  0  0  0  0  0  0  0  0  0  0  0
   57.1387   34.1830   45.1351 H   0  0  0  0  0  0  0  0  0  0  0  0
   57.7710   33.5750   47.1160 C   0  0  0  0  0  0  0  0  0  0  0  0
   56.7537   33.3057   47.4364 H   0  0  0  0  0  0  0  0  0  0  0  0
   58.8480   33.4170   48.0040 C   0  0  0  0  0  0  0  0  0  0  0  0
   58.6190   32.9300   49.3810 C   0  0  0  0  0  0  0  0  0  0  0  0
   57.6763   33.2082   49.8749 H   0  0  0  0  0  0  0  0  0  0  0  0
   59.4850   32.1720   50.0660 C   0  0  0  0  0  0  0  0  0  0  0  0
   60.5091   32.5509   50.1990 H   0  0  0  0  0  0  0  0  0  0  0  0
   59.1510   30.8610   50.6530 C   0  0  0  0  0  0  0  0  0  0  0  0
   57.9910   30.4030   50.4730 O   0  0  0  0  0  0  0  0  0  0  0  0
   60.0960   30.1230   51.4570 N   0  0  0  0  0  0  0  0  0  0  0  0
   60.1510   28.6650   51.3120 C   0  0  0  0  0  0  0  0  0  0  0  0
   60.1686   28.1979   52.3077 H   0  0  0  0  0  0  0  0  0  0  0  0
   59.2653   28.3178   50.7597 H   0  0  0  0  0  0  0  0  0  0  0  0
   61.0603   28.3855   50.7597 H   0  0  0  0  0  0  0  0  0  0  0  0
   60.9130   30.7950   52.4800 C   0  0  0  0  0  0  0  0  0  0  0  0
   61.2081   30.0623   53.2455 H   0  0  0  0  0  0  0  0  0  0  0  0
   60.3190   31.6019   52.9340 H   0  0  0  0  0  0  0  0  0  0  0  0
   62.1490   31.3910   51.8640 C   0  0  0  0  0  0  0  0  0  0  0  0
   62.3370   32.7810   51.8690 C   0  0  0  0  0  0  0  0  0  0  0  0
   61.5828   33.4337   52.3328 H   0  0  0  0  0  0  0  0  0  0  0  0
   63.4790   33.3410   51.2870 C   0  0  0  0  0  0  0  0  0  0  0  0
   63.6194   34.4320   51.2950 H   0  0  0  0  0  0  0  0  0  0  0  0
   64.4460   32.5160   50.6930 C   0  0  0  0  0  0  0  0  0  0  0  0
   65.6540   33.1300   50.0520 C   0  0  0  0  0  0  0  0  0  0  0  0
   66.3448   33.4811   50.8327 H   0  0  0  0  0  0  0  0  0  0  0  0
   66.1588   32.3791   49.4265 H   0  0  0  0  0  0  0  0  0  0  0  0
   65.3449   33.9804   49.4265 H   0  0  0  0  0  0  0  0  0  0  0  0
   64.2510   31.1270   50.6740 C   0  0  0  0  0  0  0  0  0  0  0  0
   64.9999   30.4753   50.2003 H   0  0  0  0  0  0  0  0  0  0  0  0
   63.1100   30.5680   51.2540 C   0  0  0  0  0  0  0  0  0  0  0  0
   62.9633   29.4780   51.2330 H   0  0  0  0  0  0  0  0  0  0  0  0
   59.4560   29.3240   47.7960 C   0  0  0  0  0  0  0  0  0  0  0  0
   59.7154   28.8795   48.7682 H   0  0  0  0  0  0  0  0  0  0  0  0
   58.3750   28.8190   47.0680 C   0  0  0  0  0  0  0  0  0  0  0  0
   57.7819   27.9866   47.4746 H   0  0  0  0  0  0  0  0  0  0  0  0
  1  2  1  0
  2  3  1  0
  3  4  2  0
  3  5  2  0
  3  6  1  0
  6  7  2  0
  7  8  1  0
  7  9  1  0
  9 10  1  0
  9 11  2  0
 11 12  1  0
 12 13  1  0
 13 14  2  0
 13 15  1  0
 15 16  1  0
 15 17  1  0
 15 18  1  0
 18 19  1  0
 19 20  2  0
 20 21  1  0
 20 22  1  0
 22 23  1  0
 22 24  2  0
 24 25  1  0
 24 26  1  0
 26 27  1  0
 26 28  2  0
 28 29  1  0
 29 30  1  0
 29 31  2  0
 31 32  1  0
 31 33  1  0
 33 34  2  0
 33 35  1  0
 35 36  1  0
 36 37  1  0
 36 38  1  0
 36 39  1  0
 35 40  1  0
 40 41  1  0
 40 42  1  0
 40 43  1  0
 43 44  2  0
 44 45  1  0
 44 46  1  0
 46 47  1  0
 46 48  2  0
 48 49  1  0
 49 50  1  0
 49 51  1  0
 49 52  1  0
 48 53  1  0
 53 54  1  0
 53 55  2  0
 55 56  1  0
 11 57  1  0
 57 58  1  0
 57 59  2  0
 59 60  1  0
 59  6  1  0
 28 19  1  0
 55 43  1  0
M  CHG  2   2  -1  12  -1
M  END
>  <UniqueID>  (77) 
73

>  <SMILES>  (77) 
Cc1ccc(CN(C)C(=O)/C=C\c2ccccc2OCC(=O)[N-]c2ccc(S([NH-])(=O)=O)cc2)cc1

>  <Energy>  (77) 
65.24924002832202

>  <Genealogy>  (77) 
Cc1ccc(CN(C)C(=O)C=Cc2ccccc2OCC(=O)[N-]c2ccc(S([NH-])(=O)=O)cc2)cc1 (protonated)
Cc1ccc(CN(C)C(=O)/C=C\c2ccccc2OCC(=O)[N-]c2ccc(S([NH-])(=O)=O)cc2)cc1 (cis-trans isomerization)
Cc1ccc(CN(C)C(=O)/C=C\c2ccccc2OCC(=O)[N-]c2ccc(S([NH-])(=O)=O)cc2)cc1 (3D coordinates assigned)
Cc1ccc(CN(C)C(=O)/C=C\c2ccccc2OCC(=O)[N-]c2ccc(S([NH-])(=O)=O)cc2)cc1 (optimized conformer: 65.24924002832202 kcal/mol)

>  <smiles>  (77) 
Cc1ccc(CN(C)C(=O)C=Cc2ccccc2OCC(=O)Nc2ccc(S(N)(=O)=O)cc2)cc1

>  <score_type>  (77) 
oracle

>  <origin>  (77) 
adg

>  <m_score__min__energy>  (77) 
-12.710000000000001

>  <m_primary>  (77) 
energy

$$$$
77:0
     RDKit          3D

 42 43  0  0  0  0  0  0  0  0999 V2000
   54.6720   26.2260   45.9930 N   0  0  0  0  0  0  0  0  0  0  0  0
   54.7770   24.5920   45.4360 S   0  0  0  0  0  0  0  0  0  0  0  0
   53.4830   24.2170   44.7700 O   0  0  0  0  0  0  0  0  0  0  0  0
   55.8970   24.4720   44.4400 O   0  0  0  0  0  0  0  0  0  0  0  0
   55.0680   23.4890   46.8100 C   0  0  0  0  0  0  0  0  0  0  0  0
   56.0680   22.3960   46.4390 C   0  0  0  0  0  0  0  0  0  0  0  0
   57.4140   22.7760   46.8530 N   0  0  0  0  0  0  0  0  0  0  0  0
   57.9390   24.1020   46.7280 C   0  0  0  0  0  0  0  0  0  0  0  0
   58.7930   24.3710   45.8410 O   0  0  0  0  0  0  0  0  0  0  0  0
   57.4360   25.1830   47.6270 C   0  0  0  0  0  0  0  0  0  0  0  0
   57.9300   26.5130   47.1570 C   0  0  0  0  0  0  0  0  0  0  0  0
   57.1420   27.2920   46.3690 N   0  0  0  0  0  0  0  0  0  0  0  0
   57.5690   28.5060   45.9280 C   0  0  0  0  0  0  0  0  0  0  0  0
   56.6960   29.3020   45.0530 C   0  0  0  0  0  0  0  0  0  0  0  0
   55.5050   28.9340   44.8800 O   0  0  0  0  0  0  0  0  0  0  0  0
   57.1740   30.4580   44.3500 N   0  0  0  0  0  0  0  0  0  0  0  0
   56.6960   31.8250   44.5420 C   0  0  0  0  0  0  0  0  0  0  0  0
   57.7030   32.6370   45.3120 C   0  0  0  0  0  0  0  0  0  0  0  0
   58.2350   33.8200   44.7690 C   0  0  0  0  0  0  0  0  0  0  0  0
   59.1340   34.5920   45.5090 C   0  0  0  0  0  0  0  0  0  0  0  0
   59.5150   34.1880   46.7920 C   0  0  0  0  0  0  0  0  0  0  0  0
   60.3890   34.9380   47.5080 F   0  0  0  0  0  0  0  0  0  0  0  0
   58.9960   33.0090   47.3360 C   0  0  0  0  0  0  0  0  0  0  0  0
   58.0950   32.2350   46.6000 C   0  0  0  0  0  0  0  0  0  0  0  0
   58.8240   28.9810   46.3230 C   0  0  0  0  0  0  0  0  0  0  0  0
   59.6130   28.1730   47.1440 C   0  0  0  0  0  0  0  0  0  0  0  0
   60.7500   28.5670   47.5150 O   0  0  0  0  0  0  0  0  0  0  0  0
   59.1540   26.9600   47.5430 N   0  0  0  0  0  0  0  0  0  0  0  0
   55.2370   26.8120   45.3390 H   0  0  0  0  0  0  0  0  0  0  0  0
   55.4666   24.0676   47.6564 H   0  0  0  0  0  0  0  0  0  0  0  0
   54.1149   23.0114   47.0810 H   0  0  0  0  0  0  0  0  0  0  0  0
   55.7848   21.4598   46.9423 H   0  0  0  0  0  0  0  0  0  0  0  0
   56.0563   22.2573   45.3478 H   0  0  0  0  0  0  0  0  0  0  0  0
   56.3360   25.1800   47.6195 H   0  0  0  0  0  0  0  0  0  0  0  0
   57.8037   25.0025   48.6479 H   0  0  0  0  0  0  0  0  0  0  0  0
   56.5312   32.2914   43.5595 H   0  0  0  0  0  0  0  0  0  0  0  0
   55.7558   31.7943   45.1121 H   0  0  0  0  0  0  0  0  0  0  0  0
   57.9422   34.1388   43.7577 H   0  0  0  0  0  0  0  0  0  0  0  0
   59.5428   35.5194   45.0814 H   0  0  0  0  0  0  0  0  0  0  0  0
   59.2974   32.6904   48.3448 H   0  0  0  0  0  0  0  0  0  0  0  0
   57.6909   31.3070   47.0308 H   0  0  0  0  0  0  0  0  0  0  0  0
   59.1810   29.9682   45.9944 H   0  0  0  0  0  0  0  0  0  0  0  0
  1  2  1  0
  2  3  2  0
  2  4  2  0
  2  5  1  0
  5  6  1  0
  6  7  1  0
  7  8  1  0
  8  9  2  0
  8 10  1  0
 10 11  1  0
 11 12  2  0
 12 13  1  0
 13 14  1  0
 14 15  2  0
 14 16  1  0
 16 17  1  0
 17 18  1  0
 18 19  2  0
 19 20  1  0
 20 21  2  0
 21 22  1  0
 21 23  1  0
 23 24  2  0
 13 25  2  0
 25 26  1  0
 26 27  2  0
 26 28  1  0
 28 11  1  0
 24 18  1  0
  1 29  1  0
  5 30  1  0
  5 31  1  0
  6 32  1  0
  6 33  1  0
 10 34  1  0
 10 35  1  0
 17 36  1  0
 17 37  1  0
 19 38  1  0
 20 39  1  0
 23 40  1  0
 24 41  1  0
 25 42  1  0
M  CHG  4   1  -1   7  -1  16  -1  28  -1
M  END
>  <UniqueID>  (78) 
74

>  <SMILES>  (78) 
[NH-]S(=O)(=O)CC[N-]C(=O)Cc1nc(C(=O)[N-]Cc2ccc(F)cc2)cc(=O)[n-]1

>  <Energy>  (78) 
33.77996499808535

>  <Genealogy>  (78) 
[NH-]S(=O)(=O)CC[N-]C(=O)Cc1nc(C(=O)[N-]Cc2ccc(F)cc2)cc(=O)[n-]1 (protonated)
[NH-]S(=O)(=O)CC[N-]C(=O)Cc1nc(C(=O)[N-]Cc2ccc(F)cc2)cc(=O)[n-]1 (3D coordinates assigned)
[NH-]S(=O)(=O)CC[N-]C(=O)Cc1nc(C(=O)[N-]Cc2ccc(F)cc2)cc(=O)[n-]1 (optimized conformer: 33.77996499808535 kcal/mol)

>  <smiles>  (78) 
NS(=O)(=O)CCNC(=O)Cc1nc(C(=O)NCc2ccc(F)cc2)cc(=O)[nH]1

>  <score_type>  (78) 
oracle

>  <origin>  (78) 
adg

>  <m_score__min__energy>  (78) 
-14.9

>  <m_primary>  (78) 
energy

$$$$
78:0
     RDKit          3D

 50 53  0  0  0  0  0  0  0  0999 V2000
   57.1760   28.5490   44.9190 C   0  0  0  0  0  0  0  0  0  0  0  0
   57.8770   27.6120   45.5790 C   0  0  0  0  0  0  0  0  0  0  0  0
   57.7790   26.2150   45.4530 C   0  0  0  0  0  0  0  0  0  0  0  0
   57.0850   25.4460   44.5920 C   0  0  0  0  0  0  0  0  0  0  0  0
   55.8580   24.6940   44.9140 C   0  0  0  0  0  0  0  0  0  0  0  0
   54.8110   25.3100   45.6150 C   0  0  0  0  0  0  0  0  0  0  0  0
   54.8980   26.6480   45.9820 O   0  0  0  0  0  0  0  0  0  0  0  0
   53.6980   24.6010   45.9320 N   0  0  0  0  0  0  0  0  0  0  0  0
   53.5820   23.2900   45.5950 C   0  0  0  0  0  0  0  0  0  0  0  0
   52.5400   22.6550   45.8970 O   0  0  0  0  0  0  0  0  0  0  0  0
   54.5920   22.6650   44.9380 N   0  0  0  0  0  0  0  0  0  0  0  0
   55.7270   23.3300   44.5980 C   0  0  0  0  0  0  0  0  0  0  0  0
   56.6530   22.7130   44.0050 O   0  0  0  0  0  0  0  0  0  0  0  0
   58.5900   25.6790   46.4440 C   0  0  0  0  0  0  0  0  0  0  0  0
   59.1770   26.7420   47.1000 C   0  0  0  0  0  0  0  0  0  0  0  0
   60.1100   26.6250   48.2660 C   0  0  0  0  0  0  0  0  0  0  0  0
   58.7480   27.9090   46.5760 N   0  0  0  0  0  0  0  0  0  0  0  0
   59.1240   29.2150   47.0370 C   0  0  0  0  0  0  0  0  0  0  0  0
   58.8010   29.6160   48.3380 C   0  0  0  0  0  0  0  0  0  0  0  0
   59.1450   30.8940   48.7850 C   0  0  0  0  0  0  0  0  0  0  0  0
   59.8280   31.7880   47.9400 C   0  0  0  0  0  0  0  0  0  0  0  0
   60.1840   33.1440   48.4300 C   0  0  0  0  0  0  0  0  0  0  0  0
   59.2930   33.8330   49.0030 O   0  0  0  0  0  0  0  0  0  0  0  0
   61.5110   33.6940   48.2320 N   0  0  0  0  0  0  0  0  0  0  0  0
   61.8570   33.8640   46.8150 C   0  0  0  0  0  0  0  0  0  0  0  0
   63.3750   33.8530   46.7470 C   0  0  0  0  0  0  0  0  0  0  0  0
   63.8220   33.0820   47.9820 C   0  0  0  0  0  0  0  0  0  0  0  0
   62.5520   32.8210   48.7870 C   0  0  0  0  0  0  0  0  0  0  0  0
   60.1450   31.3770   46.6310 C   0  0  0  0  0  0  0  0  0  0  0  0
   59.7940   30.1000   46.1840 C   0  0  0  0  0  0  0  0  0  0  0  0
   60.1010   29.7260   44.9160 F   0  0  0  0  0  0  0  0  0  0  0  0
   57.3582   29.6151   45.1195 H   0  0  0  0  0  0  0  0  0  0  0  0
   56.4198   28.2501   44.1782 H   0  0  0  0  0  0  0  0  0  0  0  0
   57.4653   25.3728   43.5624 H   0  0  0  0  0  0  0  0  0  0  0  0
   58.7367   24.6113   46.6643 H   0  0  0  0  0  0  0  0  0  0  0  0
   59.5374   26.6968   49.2024 H   0  0  0  0  0  0  0  0  0  0  0  0
   60.6271   25.6550   48.2259 H   0  0  0  0  0  0  0  0  0  0  0  0
   60.8506   27.4373   48.2259 H   0  0  0  0  0  0  0  0  0  0  0  0
   58.2747   28.9229   49.0108 H   0  0  0  0  0  0  0  0  0  0  0  0
   58.8796   31.2041   49.8065 H   0  0  0  0  0  0  0  0  0  0  0  0
   61.5780   34.6370   48.6800 H   0  0  0  0  0  0  0  0  0  0  0  0
   61.4423   33.0376   46.2191 H   0  0  0  0  0  0  0  0  0  0  0  0
   61.4436   34.7995   46.4101 H   0  0  0  0  0  0  0  0  0  0  0  0
   63.7169   33.3478   45.8317 H   0  0  0  0  0  0  0  0  0  0  0  0
   63.7938   34.8699   46.7220 H   0  0  0  0  0  0  0  0  0  0  0  0
   64.2940   32.1319   47.6912 H   0  0  0  0  0  0  0  0  0  0  0  0
   64.5646   33.6454   48.5660 H   0  0  0  0  0  0  0  0  0  0  0  0
   62.2529   31.7668   48.6911 H   0  0  0  0  0  0  0  0  0  0  0  0
   62.7124   33.0281   49.8553 H   0  0  0  0  0  0  0  0  0  0  0  0
   60.6728   32.0660   45.9552 H   0  0  0  0  0  0  0  0  0  0  0  0
  1  2  2  0
  2  3  1  0
  3  4  2  3
  4  5  1  0
  5  6  2  0
  6  7  1  0
  6  8  1  0
  8  9  1  0
  9 10  2  0
  9 11  1  0
 11 12  1  0
 12 13  2  0
  3 14  1  0
 14 15  2  0
 15 16  1  0
 15 17  1  0
 17 18  1  0
 18 19  2  0
 19 20  1  0
 20 21  2  0
 21 22  1  0
 22 23  2  0
 22 24  1  0
 24 25  1  0
 25 26  1  0
 26 27  1  0
 27 28  1  0
 21 29  1  0
 29 30  2  0
 30 31  1  0
 17  2  1  0
 30 18  1  0
 12  5  1  0
 28 24  1  0
  1 32  1  0
  1 33  1  0
  4 34  1  0
 14 35  1  0
 16 36  1  0
 16 37  1  0
 16 38  1  0
 19 39  1  0
 20 40  1  0
 24 41  1  0
 25 42  1  0
 25 43  1  0
 26 44  1  0
 26 45  1  0
 27 46  1  0
 27 47  1  0
 28 48  1  0
 28 49  1  0
 29 50  1  0
M  CHG  4   7  -1   8  -1  11  -1  24   1
M  END
>  <UniqueID>  (79) 
75

>  <SMILES>  (79) 
C=c1c(=Cc2c([O-])[n-]c(=O)[n-]c2=O)cc(C)n1-c1ccc(C(=O)[NH+]2CCCC2)cc1F

>  <Energy>  (79) 
110.89344572192928

>  <Genealogy>  (79) 
C=c1c(=Cc2c([O-])[n-]c(=O)[n-]c2=O)cc(C)n1-c1ccc(C(=O)[NH+]2CCCC2)cc1F (protonated)
C=c1c(=Cc2c([O-])[n-]c(=O)[n-]c2=O)cc(C)n1-c1ccc(C(=O)[NH+]2CCCC2)cc1F (3D coordinates assigned)
C=c1c(=Cc2c([O-])[n-]c(=O)[n-]c2=O)cc(C)n1-c1ccc(C(=O)[NH+]2CCCC2)cc1F (nonaromatic ring conformer: 110.89344572192928 kcal/mol)

>  <smiles>  (79) 
C=c1c(=Cc2c(O)[nH]c(=O)[nH]c2=O)cc(C)n1-c1ccc(C(=O)N2CCCC2)cc1F

>  <score_type>  (79) 
oracle

>  <origin>  (79) 
adg

>  <m_score__min__energy>  (79) 
-14.81

>  <m_primary>  (79) 
energy

$$$$
79:0
     RDKit          3D

 34 36  0  0  0  0  0  0  0  0999 V2000
   60.1075   27.9776   48.0135 H   0  0  0  0  0  0  0  0  0  0  0  0
   59.7160   28.9920   48.1800 C   0  0  0  0  0  0  0  0  0  0  0  0
   59.0540   29.3920   49.2420 O   0  0  0  0  0  0  0  0  0  0  0  0
   58.7210   30.6470   49.1520 N   0  0  0  0  0  0  0  0  0  0  0  0
   59.1990   31.0850   47.9740 C   0  0  0  0  0  0  0  0  0  0  0  0
   59.0120   32.3030   47.5520 N   0  0  0  0  0  0  0  0  0  0  0  0
   58.0070   32.7590   46.6310 C   0  0  0  0  0  0  0  0  0  0  0  0
   57.1470   33.5810   47.0440 O   0  0  0  0  0  0  0  0  0  0  0  0
   58.0220   32.3890   45.1940 C   0  0  0  0  0  0  0  0  0  0  0  0
   58.4900   33.3270   44.2550 C   0  0  0  0  0  0  0  0  0  0  0  0
   58.9106   34.2820   44.6029 H   0  0  0  0  0  0  0  0  0  0  0  0
   58.4260   33.0580   42.8870 C   0  0  0  0  0  0  0  0  0  0  0  0
   58.8106   33.7926   42.1642 H   0  0  0  0  0  0  0  0  0  0  0  0
   57.8750   31.8590   42.4350 C   0  0  0  0  0  0  0  0  0  0  0  0
   57.8138   31.6538   41.3560 H   0  0  0  0  0  0  0  0  0  0  0  0
   57.4010   30.9190   43.3530 C   0  0  0  0  0  0  0  0  0  0  0  0
   56.9534   29.9818   42.9908 H   0  0  0  0  0  0  0  0  0  0  0  0
   57.4900   31.1580   44.7300 C   0  0  0  0  0  0  0  0  0  0  0  0
   57.0150   30.1420   45.6230 N   0  0  0  0  0  0  0  0  0  0  0  0
   56.3730   28.9270   45.2140 C   0  0  0  0  0  0  0  0  0  0  0  0
   55.2940   28.9850   44.5650 O   0  0  0  0  0  0  0  0  0  0  0  0
   56.9640   27.6130   45.5800 C   0  0  0  0  0  0  0  0  0  0  0  0
   58.3610   27.4370   45.5250 C   0  0  0  0  0  0  0  0  0  0  0  0
   59.0028   28.2742   45.2133 H   0  0  0  0  0  0  0  0  0  0  0  0
   58.9400   26.2110   45.8620 C   0  0  0  0  0  0  0  0  0  0  0  0
   60.0322   26.0886   45.8157 H   0  0  0  0  0  0  0  0  0  0  0  0
   58.1360   25.1420   46.2570 C   0  0  0  0  0  0  0  0  0  0  0  0
   58.5940   24.1778   46.5227 H   0  0  0  0  0  0  0  0  0  0  0  0
   56.7510   25.2960   46.3150 C   0  0  0  0  0  0  0  0  0  0  0  0
   56.1200   24.4508   46.6271 H   0  0  0  0  0  0  0  0  0  0  0  0
   56.1590   26.5180   45.9790 C   0  0  0  0  0  0  0  0  0  0  0  0
   54.7740   26.6280   46.0480 O   0  0  0  0  0  0  0  0  0  0  0  0
   59.8390   30.0530   47.3090 C   0  0  0  0  0  0  0  0  0  0  0  0
   60.3275   30.0746   46.3237 H   0  0  0  0  0  0  0  0  0  0  0  0
  1  2  1  0
  2  3  1  0
  3  4  1  0
  4  5  1  0
  5  6  2  0
  6  7  1  0
  7  8  2  0
  7  9  1  0
  9 10  2  0
 10 11  1  0
 10 12  1  0
 12 13  1  0
 12 14  2  0
 14 15  1  0
 14 16  1  0
 16 17  1  0
 16 18  2  0
 18 19  1  0
 19 20  1  0
 20 21  2  0
 20 22  1  0
 22 23  2  0
 23 24  1  0
 23 25  1  0
 25 26  1  0
 25 27  2  0
 27 28  1  0
 27 29  1  0
 29 30  1  0
 29 31  2  0
 31 32  1  0
  5 33  1  0
 33 34  1  0
 33  2  2  0
 18  9  1  0
 31 22  1  0
M  CHG  3   4  -1  19  -1  32  -1
M  END
>  <UniqueID>  (80) 
76

>  <SMILES>  (80) 
O=C([N-]c1ccccc1C(=O)/N=c1\cco[n-]1)c1ccccc1[O-]

>  <Energy>  (80) 
86.27574466624178

>  <Genealogy>  (80) 
O=C([N-]c1ccccc1C(=O)N=c1cco[n-]1)c1ccccc1[O-] (protonated)
O=C([N-]c1ccccc1C(=O)/N=c1\cco[n-]1)c1ccccc1[O-] (cis-trans isomerization)
O=C([N-]c1ccccc1C(=O)/N=c1\cco[n-]1)c1ccccc1[O-] (3D coordinates assigned)
O=C([N-]c1ccccc1C(=O)/N=c1\cco[n-]1)c1ccccc1[O-] (optimized conformer: 86.27574466624178 kcal/mol)

>  <smiles>  (80) 
O=C(Nc1ccccc1C(=O)N=c1cco[nH]1)c1ccccc1O

>  <score_type>  (80) 
oracle

>  <origin>  (80) 
adg

>  <m_score__min__energy>  (80) 
-14.51

>  <m_primary>  (80) 
energy

$$$$
80:0
     RDKit          3D

 75 80  0  0  0  0  0  0  0  0999 V2000
   55.1350   26.6700   46.0190 N   0  0  0  0  0  0  0  0  0  0  0  0
   56.5320   26.9580   46.0000 C   0  0  0  0  0  0  0  0  0  0  0  0
   57.3110   26.3400   46.7770 O   0  0  0  0  0  0  0  0  0  0  0  0
   57.0740   27.9800   45.0500 C   0  0  0  0  0  0  0  0  0  0  0  0
   58.2650   28.6730   45.6550 C   0  0  0  0  0  0  0  0  0  0  0  0
   59.5150   28.6070   45.0210 C   0  0  0  0  0  0  0  0  0  0  0  0
   60.6350   29.1970   45.6100 C   0  0  0  0  0  0  0  0  0  0  0  0
   60.5220   29.8580   46.8370 C   0  0  0  0  0  0  0  0  0  0  0  0
   61.6580   30.4240   47.4040 O   0  0  0  0  0  0  0  0  0  0  0  0
   59.2700   29.9450   47.4810 C   0  0  0  0  0  0  0  0  0  0  0  0
   59.1170   30.6300   48.8260 C   0  0  0  0  0  0  0  0  0  0  0  0
   59.7370   31.9770   48.8450 N   0  0  0  0  0  0  0  0  0  0  0  0
   59.3820   32.9270   47.8170 C   0  0  0  0  0  0  0  0  0  0  0  0
   58.1010   32.9750   47.2360 C   0  0  0  0  0  0  0  0  0  0  0  0
   57.8420   33.8680   46.1910 C   0  0  0  0  0  0  0  0  0  0  0  0
   58.8540   34.7130   45.7230 C   0  0  0  0  0  0  0  0  0  0  0  0
   60.1230   34.6770   46.3080 C   0  0  0  0  0  0  0  0  0  0  0  0
   60.3800   33.7960   47.3630 C   0  0  0  0  0  0  0  0  0  0  0  0
   61.6660   33.7700   47.9900 N   0  0  0  0  0  0  0  0  0  0  0  0
   61.9040   33.1300   49.1000 C   0  0  0  0  0  0  0  0  0  0  0  0
   63.2450   33.3260   49.6790 C   0  0  0  0  0  0  0  0  0  0  0  0
   64.3380   32.5870   49.2000 C   0  0  0  0  0  0  0  0  0  0  0  0
   65.5900   32.7110   49.8060 C   0  0  0  0  0  0  0  0  0  0  0  0
   65.7480   33.5300   50.9270 C   0  0  0  0  0  0  0  0  0  0  0  0
   64.6480   34.2180   51.4500 C   0  0  0  0  0  0  0  0  0  0  0  0
   63.3950   34.0980   50.8420 C   0  0  0  0  0  0  0  0  0  0  0  0
   60.7300   32.4690   49.8480 C   0  0  2  0  0  0  0  0  0  0  0  0
   61.0770   31.4370   50.9830 C   0  0  0  0  0  0  0  0  0  0  0  0
   61.9900   30.2750   50.5090 C   0  0  0  0  0  0  0  0  0  0  0  0
   61.7390   28.9650   51.2830 C   0  0  0  0  0  0  0  0  0  0  0  0
   61.4950   29.1990   52.7230 N   0  0  0  0  0  0  0  0  0  0  0  0
   62.7270   29.6140   53.4300 C   0  0  0  0  0  0  0  0  0  0  0  0
   63.9380   28.9770   52.7990 C   0  0  0  0  0  0  0  0  0  0  0  0
   64.0920   27.5810   52.8250 C   0  0  0  0  0  0  0  0  0  0  0  0
   65.2130   26.9840   52.2420 C   0  0  0  0  0  0  0  0  0  0  0  0
   66.1920   27.7760   51.6340 C   0  0  0  0  0  0  0  0  0  0  0  0
   66.0500   29.1670   51.6060 C   0  0  0  0  0  0  0  0  0  0  0  0
   64.9260   29.7670   52.1860 C   0  0  0  0  0  0  0  0  0  0  0  0
   60.3390   30.1000   52.9940 C   0  0  0  0  0  0  0  0  0  0  0  0
   59.8640   30.8950   51.7640 C   0  0  0  0  0  0  0  0  0  0  0  0
   58.1520   29.3320   46.8880 C   0  0  0  0  0  0  0  0  0  0  0  0
   54.5150   27.0740   46.7540 H   0  0  0  0  0  0  0  0  0  0  0  0
   57.3781   27.4833   44.1168 H   0  0  0  0  0  0  0  0  0  0  0  0
   56.2928   28.7258   44.8416 H   0  0  0  0  0  0  0  0  0  0  0  0
   59.6130   28.0883   44.0559 H   0  0  0  0  0  0  0  0  0  0  0  0
   61.6113   29.1416   45.1062 H   0  0  0  0  0  0  0  0  0  0  0  0
   58.0452   30.7307   49.0519 H   0  0  0  0  0  0  0  0  0  0  0  0
   59.6297   30.0128   49.5784 H   0  0  0  0  0  0  0  0  0  0  0  0
   57.3045   32.3111   47.6032 H   0  0  0  0  0  0  0  0  0  0  0  0
   56.8410   33.9059   45.7365 H   0  0  0  0  0  0  0  0  0  0  0  0
   58.6508   35.4065   44.8937 H   0  0  0  0  0  0  0  0  0  0  0  0
   60.9185   35.3410   45.9388 H   0  0  0  0  0  0  0  0  0  0  0  0
   64.2079   31.9080   48.3444 H   0  0  0  0  0  0  0  0  0  0  0  0
   66.4532   32.1630   49.4002 H   0  0  0  0  0  0  0  0  0  0  0  0
   66.7367   33.6337   51.3979 H   0  0  0  0  0  0  0  0  0  0  0  0
   64.7690   34.8534   52.3397 H   0  0  0  0  0  0  0  0  0  0  0  0
   62.5237   34.6101   51.2762 H   0  0  0  0  0  0  0  0  0  0  0  0
   60.2782   33.2593   50.4655 H   0  0  0  0  0  0  0  0  0  0  0  0
   61.6519   32.0460   51.6962 H   0  0  0  0  0  0  0  0  0  0  0  0
   61.8020   30.0936   49.4405 H   0  0  0  0  0  0  0  0  0  0  0  0
   63.0319   30.5752   50.6944 H   0  0  0  0  0  0  0  0  0  0  0  0
   60.8597   28.4633   50.8526 H   0  0  0  0  0  0  0  0  0  0  0  0
   62.6421   28.3435   51.1924 H   0  0  0  0  0  0  0  0  0  0  0  0
   62.8241   30.7084   53.3759 H   0  0  0  0  0  0  0  0  0  0  0  0
   62.6610   29.2904   54.4792 H   0  0  0  0  0  0  0  0  0  0  0  0
   63.3266   26.9547   53.3066 H   0  0  0  0  0  0  0  0  0  0  0  0
   65.3254   25.8899   52.2614 H   0  0  0  0  0  0  0  0  0  0  0  0
   67.0747   27.3045   51.1773 H   0  0  0  0  0  0  0  0  0  0  0  0
   66.8211   29.7893   51.1285 H   0  0  0  0  0  0  0  0  0  0  0  0
   64.8155   30.8612   52.1620 H   0  0  0  0  0  0  0  0  0  0  0  0
   59.4999   29.4873   53.3552 H   0  0  0  0  0  0  0  0  0  0  0  0
   60.6765   30.8362   53.7384 H   0  0  0  0  0  0  0  0  0  0  0  0
   59.2752   30.2354   51.1096 H   0  0  0  0  0  0  0  0  0  0  0  0
   59.2445   31.7401   52.0988 H   0  0  0  0  0  0  0  0  0  0  0  0
   57.1776   29.3697   47.3970 H   0  0  0  0  0  0  0  0  0  0  0  0
  1  2  1  0
  2  3  2  0
  2  4  1  0
  4  5  1  0
  5  6  2  0
  6  7  1  0
  7  8  2  0
  8  9  1  0
  8 10  1  0
 10 11  1  0
 11 12  1  0
 12 13  1  0
 13 14  2  0
 14 15  1  0
 15 16  2  0
 16 17  1  0
 17 18  2  0
 18 19  1  0
 19 20  2  0
 20 21  1  0
 21 22  2  0
 22 23  1  0
 23 24  2  0
 24 25  1  0
 25 26  2  0
 20 27  1  0
 27 28  1  0
 28 29  1  0
 29 30  1  0
 30 31  1  0
 31 32  1  0
 32 33  1  0
 33 34  2  0
 34 35  1  0
 35 36  2  0
 36 37  1  0
 37 38  2  0
 31 39  1  0
 39 40  1  0
 10 41  2  0
 41  5  1  0
 27 12  1  0
 40 28  1  0
 18 13  1  0
 26 21  1  0
 38 33  1  0
  1 42  1  0
  4 43  1  0
  4 44  1  0
  6 45  1  0
  7 46  1  0
 11 47  1  0
 11 48  1  0
 14 49  1  0
 15 50  1  0
 16 51  1  0
 17 52  1  0
 22 53  1  0
 23 54  1  0
 24 55  1  0
 25 56  1  0
 26 57  1  0
 27 58  1  1
 28 59  1  0
 29 60  1  0
 29 61  1  0
 30 62  1  0
 30 63  1  0
 32 64  1  0
 32 65  1  0
 34 66  1  0
 35 67  1  0
 36 68  1  0
 37 69  1  0
 38 70  1  0
 39 71  1  0
 39 72  1  0
 40 73  1  0
 40 74  1  0
 41 75  1  0
M  CHG  2   1  -1   9  -1
M  END
>  <UniqueID>  (81) 
77

>  <SMILES>  (81) 
[NH-]C(=O)Cc1ccc([O-])c(CN2c3ccccc3N=C(c3ccccc3)[C@@H]2C2CCN(Cc3ccccc3)CC2)c1

>  <Energy>  (81) 
116.72159745385507

>  <Genealogy>  (81) 
[NH-]C(=O)Cc1ccc([O-])c(CN2c3ccccc3N=C(c3ccccc3)C2C2CCN(Cc3ccccc3)CC2)c1 (protonated)
[NH-]C(=O)Cc1ccc([O-])c(CN2c3ccccc3N=C(c3ccccc3)[C@@H]2C2CCN(Cc3ccccc3)CC2)c1 (chirality)
[NH-]C(=O)Cc1ccc([O-])c(CN2c3ccccc3N=C(c3ccccc3)[C@@H]2C2CCN(Cc3ccccc3)CC2)c1 (3D coordinates assigned)
[NH-]C(=O)Cc1ccc([O-])c(CN2c3ccccc3N=C(c3ccccc3)[C@@H]2C2CCN(Cc3ccccc3)CC2)c1 (nonaromatic ring conformer: 116.72159745385507 kcal/mol)

>  <smiles>  (81) 
NC(=O)Cc1ccc(O)c(CN2c3ccccc3N=C(c3ccccc3)C2C2CCN(Cc3ccccc3)CC2)c1

>  <score_type>  (81) 
oracle

>  <origin>  (81) 
adg

>  <m_score__min__energy>  (81) 
-14.34

>  <m_primary>  (81) 
energy

$$$$
81:0
     RDKit          3D

 37 38  0  0  0  0  0  0  0  0999 V2000
   55.5040   25.4180   45.9340 C   0  0  0  0  0  0  0  0  0  0  0  0
   56.0500   26.7310   45.9870 O   0  0  0  0  0  0  0  0  0  0  0  0
   57.4100   27.0360   45.8010 C   0  0  0  0  0  0  0  0  0  0  0  0
   58.4290   26.2890   46.4260 C   0  0  0  0  0  0  0  0  0  0  0  0
   59.7710   26.6210   46.2280 C   0  0  0  0  0  0  0  0  0  0  0  0
   60.1130   27.6920   45.4020 C   0  0  0  0  0  0  0  0  0  0  0  0
   59.1140   28.4400   44.7770 C   0  0  0  0  0  0  0  0  0  0  0  0
   57.7590   28.1270   44.9780 C   0  0  0  0  0  0  0  0  0  0  0  0
   56.6920   28.9790   44.3310 C   0  0  0  0  0  0  0  0  0  0  0  0
   56.2970   30.1000   45.1880 N   0  0  0  0  0  0  0  0  0  0  0  0
   57.3980   31.4420   45.0420 S   0  0  0  0  0  0  0  0  0  0  0  0
   56.6280   32.7240   45.1960 O   0  0  0  0  0  0  0  0  0  0  0  0
   58.0400   31.4330   43.6820 O   0  0  0  0  0  0  0  0  0  0  0  0
   58.5980   31.3520   46.3370 C   0  0  0  0  0  0  0  0  0  0  0  0
   58.5360   30.2730   47.2260 C   0  0  0  0  0  0  0  0  0  0  0  0
   59.5050   30.1190   48.2120 C   0  0  0  0  0  0  0  0  0  0  0  0
   60.5350   31.0530   48.3090 C   0  0  0  0  0  0  0  0  0  0  0  0
   61.7730   30.8580   49.5380 Cl  0  0  0  0  0  0  0  0  0  0  0  0
   60.5850   32.1090   47.4510 N   0  0  0  0  0  0  0  0  0  0  0  0
   59.6480   32.2840   46.4690 C   0  0  0  0  0  0  0  0  0  0  0  0
   59.7200   33.3700   45.5840 O   0  0  0  0  0  0  0  0  0  0  0  0
   59.0730   34.6210   45.7880 C   0  0  0  0  0  0  0  0  0  0  0  0
   55.3485   25.0440   46.9567 H   0  0  0  0  0  0  0  0  0  0  0  0
   54.5414   25.4424   45.4022 H   0  0  0  0  0  0  0  0  0  0  0  0
   56.2000   24.7526   45.4022 H   0  0  0  0  0  0  0  0  0  0  0  0
   58.1656   25.4396   47.0734 H   0  0  0  0  0  0  0  0  0  0  0  0
   60.5600   26.0369   46.7243 H   0  0  0  0  0  0  0  0  0  0  0  0
   61.1711   27.9472   45.2431 H   0  0  0  0  0  0  0  0  0  0  0  0
   59.3893   29.2802   44.1226 H   0  0  0  0  0  0  0  0  0  0  0  0
   57.0806   29.3762   43.3817 H   0  0  0  0  0  0  0  0  0  0  0  0
   55.8064   28.3486   44.1628 H   0  0  0  0  0  0  0  0  0  0  0  0
   57.7170   29.5431   47.1447 H   0  0  0  0  0  0  0  0  0  0  0  0
   59.4589   29.2686   48.9082 H   0  0  0  0  0  0  0  0  0  0  0  0
   61.3720   32.7860   47.5590 H   0  0  0  0  0  0  0  0  0  0  0  0
   58.9746   34.8113   46.8669 H   0  0  0  0  0  0  0  0  0  0  0  0
   59.6699   35.4219   45.3274 H   0  0  0  0  0  0  0  0  0  0  0  0
   58.0744   34.5968   45.3274 H   0  0  0  0  0  0  0  0  0  0  0  0
  1  2  1  0
  2  3  1  0
  3  4  2  0
  4  5  1  0
  5  6  2  0
  6  7  1  0
  7  8  2  0
  8  9  1  0
  9 10  1  0
 10 11  1  0
 11 12  2  0
 11 13  2  0
 11 14  1  0
 14 15  2  0
 15 16  1  0
 16 17  2  0
 17 18  1  0
 17 19  1  0
 19 20  2  0
 20 21  1  0
 21 22  1  0
  8  3  1  0
 20 14  1  0
  1 23  1  0
  1 24  1  0
  1 25  1  0
  4 26  1  0
  5 27  1  0
  6 28  1  0
  7 29  1  0
  9 30  1  0
  9 31  1  0
 15 32  1  0
 16 33  1  0
 19 34  1  0
 22 35  1  0
 22 36  1  0
 22 37  1  0
M  CHG  2  10  -1  19   1
M  END
>  <UniqueID>  (82) 
78

>  <SMILES>  (82) 
COc1ccccc1C[N-]S(=O)(=O)c1ccc(Cl)[nH+]c1OC

>  <Energy>  (82) 
32.082997008052004

>  <Genealogy>  (82) 
COc1ccccc1C[N-]S(=O)(=O)c1ccc(Cl)[nH+]c1OC (protonated)
COc1ccccc1C[N-]S(=O)(=O)c1ccc(Cl)[nH+]c1OC (3D coordinates assigned)
COc1ccccc1C[N-]S(=O)(=O)c1ccc(Cl)[nH+]c1OC (optimized conformer: 32.082997008052004 kcal/mol)

>  <smiles>  (82) 
COc1ccccc1CNS(=O)(=O)c1ccc(Cl)nc1OC

>  <score_type>  (82) 
oracle

>  <origin>  (82) 
adg

>  <m_score__min__energy>  (82) 
-7.1600000000000001

>  <m_primary>  (82) 
energy

$$$$
82:0
     RDKit          3D

 63 66  0  0  0  0  0  0  0  0999 V2000
   58.0520   27.3290   46.8490 O   0  0  0  0  0  0  0  0  0  0  0  0
   58.3430   28.3670   46.1940 C   0  0  0  0  0  0  0  0  0  0  0  0
   57.9470   28.4650   44.7580 C   0  0  0  0  0  0  0  0  0  0  0  0
   58.5420   29.6660   44.1770 N   0  0  0  0  0  0  0  0  0  0  0  0
   57.3600   30.9350   44.1020 S   0  0  0  0  0  0  0  0  0  0  0  0
   57.1200   31.2980   42.6640 O   0  0  0  0  0  0  0  0  0  0  0  0
   56.0620   30.4640   44.6950 O   0  0  0  0  0  0  0  0  0  0  0  0
   57.9360   32.3590   44.9650 C   0  0  0  0  0  0  0  0  0  0  0  0
   58.4960   33.4300   44.2530 C   0  0  0  0  0  0  0  0  0  0  0  0
   58.9700   34.5570   44.9330 C   0  0  0  0  0  0  0  0  0  0  0  0
   58.8900   34.6160   46.3290 C   0  0  0  0  0  0  0  0  0  0  0  0
   59.3490   35.7090   46.9880 F   0  0  0  0  0  0  0  0  0  0  0  0
   58.3390   33.5470   47.0430 C   0  0  0  0  0  0  0  0  0  0  0  0
   57.8640   32.4200   46.3650 C   0  0  0  0  0  0  0  0  0  0  0  0
   59.0800   29.4390   46.8070 N   0  0  0  0  0  0  0  0  0  0  0  0
   59.3290   29.5490   48.2180 C   0  0  0  0  0  0  0  0  0  0  0  0
   58.8540   30.6430   48.9650 C   0  0  0  0  0  0  0  0  0  0  0  0
   59.1310   30.7380   50.3320 C   0  0  0  0  0  0  0  0  0  0  0  0
   59.9060   29.7590   50.9650 C   0  0  0  0  0  0  0  0  0  0  0  0
   60.2380   29.8780   52.6930 S   0  0  0  0  0  0  0  0  0  0  0  0
   61.4890   29.1110   53.0240 O   0  0  0  0  0  0  0  0  0  0  0  0
   60.4570   31.3230   53.0440 O   0  0  0  0  0  0  0  0  0  0  0  0
   58.8880   29.2500   53.6080 N   0  0  0  0  0  0  0  0  0  0  0  0
   58.4560   30.2410   54.6180 C   0  0  0  0  0  0  0  0  0  0  0  0
   57.0100   29.9870   55.0530 C   0  0  0  0  0  0  0  0  0  0  0  0
   56.0870   30.1690   53.9130 N   0  0  0  0  0  0  0  0  0  0  0  0
   54.7190   29.6550   54.1590 C   0  0  0  0  0  0  0  0  0  0  0  0
   53.6280   30.4690   53.4920 C   0  0  0  0  0  0  0  0  0  0  0  0
   52.4650   30.8280   54.1990 C   0  0  0  0  0  0  0  0  0  0  0  0
   51.4630   31.5780   53.5760 C   0  0  0  0  0  0  0  0  0  0  0  0
   51.6050   31.9670   52.2400 C   0  0  0  0  0  0  0  0  0  0  0  0
   50.6100   32.7160   51.6250 O   0  0  0  0  0  0  0  0  0  0  0  0
   52.7460   31.5960   51.5220 C   0  0  0  0  0  0  0  0  0  0  0  0
   53.7480   30.8440   52.1410 C   0  0  0  0  0  0  0  0  0  0  0  0
   56.6570   29.8110   52.5920 C   0  0  0  0  0  0  0  0  0  0  0  0
   57.8010   28.7890   52.7110 C   0  0  0  0  0  0  0  0  0  0  0  0
   60.4010   28.6800   50.2210 C   0  0  0  0  0  0  0  0  0  0  0  0
   60.1170   28.5780   48.8560 C   0  0  0  0  0  0  0  0  0  0  0  0
   58.3056   27.5775   44.2160 H   0  0  0  0  0  0  0  0  0  0  0  0
   56.8512   28.5202   44.6796 H   0  0  0  0  0  0  0  0  0  0  0  0
   58.5627   33.3836   43.1560 H   0  0  0  0  0  0  0  0  0  0  0  0
   59.4053   35.3963   44.3708 H   0  0  0  0  0  0  0  0  0  0  0  0
   58.2792   33.5929   48.1404 H   0  0  0  0  0  0  0  0  0  0  0  0
   57.4333   31.5801   46.9299 H   0  0  0  0  0  0  0  0  0  0  0  0
   59.5350   30.1350   46.1720 H   0  0  0  0  0  0  0  0  0  0  0  0
   58.2618   31.4273   48.4708 H   0  0  0  0  0  0  0  0  0  0  0  0
   58.7383   31.5857   50.9127 H   0  0  0  0  0  0  0  0  0  0  0  0
   59.1138   30.1691   55.4967 H   0  0  0  0  0  0  0  0  0  0  0  0
   58.5165   31.2448   54.1721 H   0  0  0  0  0  0  0  0  0  0  0  0
   56.9209   28.9575   55.4301 H   0  0  0  0  0  0  0  0  0  0  0  0
   56.7450   30.7046   55.8434 H   0  0  0  0  0  0  0  0  0  0  0  0
   54.6629   28.6240   53.7796 H   0  0  0  0  0  0  0  0  0  0  0  0
   54.5452   29.7159   55.2435 H   0  0  0  0  0  0  0  0  0  0  0  0
   52.3439   30.5168   55.2471 H   0  0  0  0  0  0  0  0  0  0  0  0
   50.5611   31.8628   54.1377 H   0  0  0  0  0  0  0  0  0  0  0  0
   52.8549   31.8962   50.4694 H   0  0  0  0  0  0  0  0  0  0  0  0
   54.6373   30.5429   51.5679 H   0  0  0  0  0  0  0  0  0  0  0  0
   55.8606   29.3803   51.9674 H   0  0  0  0  0  0  0  0  0  0  0  0
   57.0674   30.7268   52.1416 H   0  0  0  0  0  0  0  0  0  0  0  0
   57.3925   27.8479   53.1077 H   0  0  0  0  0  0  0  0  0  0  0  0
   58.2321   28.6540   51.7080 H   0  0  0  0  0  0  0  0  0  0  0  0
   61.0149   27.9108   50.7124 H   0  0  0  0  0  0  0  0  0  0  0  0
   60.5139   27.7307   48.2776 H   0  0  0  0  0  0  0  0  0  0  0  0
  1  2  2  0
  2  3  1  0
  3  4  1  0
  4  5  1  0
  5  6  2  0
  5  7  2  0
  5  8  1  0
  8  9  2  0
  9 10  1  0
 10 11  2  0
 11 12  1  0
 11 13  1  0
 13 14  2  0
  2 15  1  0
 15 16  1  0
 16 17  2  0
 17 18  1  0
 18 19  2  0
 19 20  1  0
 20 21  2  0
 20 22  2  0
 20 23  1  0
 23 24  1  0
 24 25  1  0
 25 26  1  0
 26 27  1  0
 27 28  1  0
 28 29  2  0
 29 30  1  0
 30 31  2  0
 31 32  1  0
 31 33  1  0
 33 34  2  0
 26 35  1  0
 35 36  1  0
 19 37  1  0
 37 38  2  0
 14  8  1  0
 38 16  1  0
 36 23  1  0
 34 28  1  0
  3 39  1  0
  3 40  1  0
  9 41  1  0
 10 42  1  0
 13 43  1  0
 14 44  1  0
 15 45  1  0
 17 46  1  0
 18 47  1  0
 24 48  1  0
 24 49  1  0
 25 50  1  0
 25 51  1  0
 27 52  1  0
 27 53  1  0
 29 54  1  0
 30 55  1  0
 33 56  1  0
 34 57  1  0
 35 58  1  0
 35 59  1  0
 36 60  1  0
 36 61  1  0
 37 62  1  0
 38 63  1  0
M  CHG  2   4  -1  32  -1
M  END
>  <UniqueID>  (83) 
79

>  <SMILES>  (83) 
O=C(C[N-]S(=O)(=O)c1ccc(F)cc1)Nc1ccc(S(=O)(=O)N2CCN(Cc3ccc([O-])cc3)CC2)cc1

>  <Energy>  (83) 
80.61283579816099

>  <Genealogy>  (83) 
O=C(C[N-]S(=O)(=O)c1ccc(F)cc1)Nc1ccc(S(=O)(=O)N2CCN(Cc3ccc([O-])cc3)CC2)cc1 (protonated)
O=C(C[N-]S(=O)(=O)c1ccc(F)cc1)Nc1ccc(S(=O)(=O)N2CCN(Cc3ccc([O-])cc3)CC2)cc1 (3D coordinates assigned)
O=C(C[N-]S(=O)(=O)c1ccc(F)cc1)Nc1ccc(S(=O)(=O)N2CCN(Cc3ccc([O-])cc3)CC2)cc1 (nonaromatic ring conformer: 80.61283579816099 kcal/mol)

>  <smiles>  (83) 
O=C(CNS(=O)(=O)c1ccc(F)cc1)Nc1ccc(S(=O)(=O)N2CCN(Cc3ccc(O)cc3)CC2)cc1

>  <score_type>  (83) 
oracle

>  <origin>  (83) 
adg

>  <m_score__min__energy>  (83) 
-14.470000000000001

>  <m_primary>  (83) 
energy

$$$$
83:0
     RDKit          3D

 56 58  0  0  0  0  0  0  0  0999 V2000
   57.8740   29.0270   53.3180 C   0  0  0  0  0  0  0  0  0  0  0  0
   57.3440   29.2580   52.0170 O   0  0  0  0  0  0  0  0  0  0  0  0
   57.9320   30.0920   51.0520 C   0  0  0  0  0  0  0  0  0  0  0  0
   58.7710   29.5880   50.0400 C   0  0  0  0  0  0  0  0  0  0  0  0
   59.3510   30.4440   49.0910 C   0  0  0  0  0  0  0  0  0  0  0  0
   60.2450   29.8580   48.0270 C   0  0  0  0  0  0  0  0  0  0  0  0
   60.0460   28.4160   47.9710 N   0  0  0  0  0  0  0  0  0  0  0  0
   59.2180   27.7790   46.9960 C   0  0  0  0  0  0  0  0  0  0  0  0
   58.5800   26.7290   47.2860 O   0  0  0  0  0  0  0  0  0  0  0  0
   59.1600   28.3310   45.6060 C   0  0  0  0  0  0  0  0  0  0  0  0
   57.7820   28.8360   45.2910 C   0  0  0  0  0  0  0  0  0  0  0  0
   57.4070   30.1270   44.9690 C   0  0  0  0  0  0  0  0  0  0  0  0
   58.3090   31.3130   44.8560 C   0  0  0  0  0  0  0  0  0  0  0  0
   56.0690   30.1850   44.8220 N   0  0  0  0  0  0  0  0  0  0  0  0
   55.5720   28.9740   45.0410 N   0  0  0  0  0  0  0  0  0  0  0  0
   56.5900   28.1400   45.3330 C   0  0  0  0  0  0  0  0  0  0  0  0
   56.4150   26.6910   45.6500 C   0  0  0  0  0  0  0  0  0  0  0  0
   59.0580   31.8280   49.1380 C   0  0  0  0  0  0  0  0  0  0  0  0
   59.6080   32.7780   48.1460 C   0  0  0  0  0  0  0  0  0  0  0  0
   58.7540   33.6200   47.4190 C   0  0  0  0  0  0  0  0  0  0  0  0
   59.2780   34.5070   46.4800 C   0  0  0  0  0  0  0  0  0  0  0  0
   60.6580   34.5740   46.2680 C   0  0  0  0  0  0  0  0  0  0  0  0
   61.5360   33.7530   47.0020 C   0  0  0  0  0  0  0  0  0  0  0  0
   63.0090   33.8200   46.7990 C   0  0  0  0  0  0  0  0  0  0  0  0
   63.9770   33.4240   47.8750 C   0  0  0  0  0  0  0  0  0  0  0  0
   63.4730   34.2180   45.6960 O   0  0  0  0  0  0  0  0  0  0  0  0
   60.9950   32.8550   47.9430 C   0  0  0  0  0  0  0  0  0  0  0  0
   58.2330   32.3270   50.1560 C   0  0  0  0  0  0  0  0  0  0  0  0
   57.6650   31.4660   51.1110 C   0  0  0  0  0  0  0  0  0  0  0  0
   56.8220   31.9390   52.1300 O   0  0  0  0  0  0  0  0  0  0  0  0
   55.5070   31.4530   52.3830 C   0  0  0  0  0  0  0  0  0  0  0  0
   57.1417   29.3462   54.0742 H   0  0  0  0  0  0  0  0  0  0  0  0
   58.0860   27.9548   53.4425 H   0  0  0  0  0  0  0  0  0  0  0  0
   58.8037   29.6015   53.4425 H   0  0  0  0  0  0  0  0  0  0  0  0
   58.9748   28.5081   49.9924 H   0  0  0  0  0  0  0  0  0  0  0  0
   59.9950   30.3015   47.0519 H   0  0  0  0  0  0  0  0  0  0  0  0
   61.2960   30.0757   48.2680 H   0  0  0  0  0  0  0  0  0  0  0  0
   59.8773   29.1602   45.5169 H   0  0  0  0  0  0  0  0  0  0  0  0
   59.4126   27.5289   44.8969 H   0  0  0  0  0  0  0  0  0  0  0  0
   58.5778   31.6664   45.8624 H   0  0  0  0  0  0  0  0  0  0  0  0
   59.2215   31.0291   44.3112 H   0  0  0  0  0  0  0  0  0  0  0  0
   57.7917   32.1165   44.3112 H   0  0  0  0  0  0  0  0  0  0  0  0
   56.3984   26.5538   46.7413 H   0  0  0  0  0  0  0  0  0  0  0  0
   55.4672   26.3337   45.2211 H   0  0  0  0  0  0  0  0  0  0  0  0
   57.2505   26.1183   45.2211 H   0  0  0  0  0  0  0  0  0  0  0  0
   57.6681   33.5804   47.5902 H   0  0  0  0  0  0  0  0  0  0  0  0
   58.6029   35.1567   45.9036 H   0  0  0  0  0  0  0  0  0  0  0  0
   61.0617   35.2739   45.5216 H   0  0  0  0  0  0  0  0  0  0  0  0
   63.5252   33.6088   48.8608 H   0  0  0  0  0  0  0  0  0  0  0  0
   64.2176   32.3552   47.7765 H   0  0  0  0  0  0  0  0  0  0  0  0
   64.8978   34.0177   47.7765 H   0  0  0  0  0  0  0  0  0  0  0  0
   61.6667   32.2070   48.5251 H   0  0  0  0  0  0  0  0  0  0  0  0
   58.0276   33.4064   50.2080 H   0  0  0  0  0  0  0  0  0  0  0  0
   55.3413   31.3918   53.4687 H   0  0  0  0  0  0  0  0  0  0  0  0
   54.7708   32.1384   51.9378 H   0  0  0  0  0  0  0  0  0  0  0  0
   55.3935   30.4535   51.9378 H   0  0  0  0  0  0  0  0  0  0  0  0
  1  2  1  0
  2  3  1  0
  3  4  2  0
  4  5  1  0
  5  6  1  0
  6  7  1  0
  7  8  1  0
  8  9  2  0
  8 10  1  0
 10 11  1  0
 11 12  1  0
 12 13  1  0
 12 14  2  0
 14 15  1  0
 15 16  1  0
 16 17  1  0
  5 18  2  0
 18 19  1  0
 19 20  2  0
 20 21  1  0
 21 22  2  0
 22 23  1  0
 23 24  1  0
 24 25  1  0
 24 26  2  0
 23 27  2  0
 18 28  1  0
 28 29  2  0
 29 30  1  0
 30 31  1  0
 29  3  1  0
 16 11  2  0
 27 19  1  0
  1 32  1  0
  1 33  1  0
  1 34  1  0
  4 35  1  0
  6 36  1  0
  6 37  1  0
 10 38  1  0
 10 39  1  0
 13 40  1  0
 13 41  1  0
 13 42  1  0
 17 43  1  0
 17 44  1  0
 17 45  1  0
 20 46  1  0
 21 47  1  0
 22 48  1  0
 25 49  1  0
 25 50  1  0
 25 51  1  0
 27 52  1  0
 28 53  1  0
 31 54  1  0
 31 55  1  0
 31 56  1  0
M  CHG  2   7  -1  15  -1
M  END
>  <UniqueID>  (84) 
80

>  <SMILES>  (84) 
COc1cc(C[N-]C(=O)Cc2c(C)n[n-]c2C)c(-c2cccc(C(C)=O)c2)cc1OC

>  <Energy>  (84) 
87.3001796539561

>  <Genealogy>  (84) 
COc1cc(C[N-]C(=O)Cc2c(C)n[n-]c2C)c(-c2cccc(C(C)=O)c2)cc1OC (protonated)
COc1cc(C[N-]C(=O)Cc2c(C)n[n-]c2C)c(-c2cccc(C(C)=O)c2)cc1OC (3D coordinates assigned)
COc1cc(C[N-]C(=O)Cc2c(C)n[n-]c2C)c(-c2cccc(C(C)=O)c2)cc1OC (optimized conformer: 87.3001796539561 kcal/mol)

>  <smiles>  (84) 
COc1cc(CNC(=O)Cc2c(C)n[nH]c2C)c(-c2cccc(C(C)=O)c2)cc1OC

>  <score_type>  (84) 
oracle

>  <origin>  (84) 
adg

>  <m_score__min__energy>  (84) 
-11.77

>  <m_primary>  (84) 
energy

$$$$
84:0
     RDKit          3D

 46 48  0  0  0  0  0  0  0  0999 V2000
   57.7180   26.6130   47.4070 H   0  0  0  0  0  0  0  0  0  0  0  0
   58.4920   26.4850   48.0160 O   0  0  0  0  0  0  0  0  0  0  0  0
   59.6500   26.7480   47.2670 C   0  0  0  0  0  0  0  0  0  0  0  0
   59.3993   26.7111   46.1966 H   0  0  0  0  0  0  0  0  0  0  0  0
   60.4041   25.9878   47.5191 H   0  0  0  0  0  0  0  0  0  0  0  0
   60.2330   28.1350   47.5970 C   0  0  2  0  0  0  0  0  0  0  0  0
   61.2710   27.9713   47.9221 H   0  0  0  0  0  0  0  0  0  0  0  0
   59.4660   28.8120   48.7420 C   0  0  0  0  0  0  0  0  0  0  0  0
   59.5553   28.1942   49.6477 H   0  0  0  0  0  0  0  0  0  0  0  0
   58.4124   28.9130   48.4425 H   0  0  0  0  0  0  0  0  0  0  0  0
   60.0260   30.2190   49.0360 C   0  0  0  0  0  0  0  0  0  0  0  0
   61.0220   30.1074   49.4894 H   0  0  0  0  0  0  0  0  0  0  0  0
   59.3088   30.7138   49.7075 H   0  0  0  0  0  0  0  0  0  0  0  0
   60.1540   31.0800   47.8330 N   0  0  2  0  0  0  0  0  0  0  0  0
   60.7530   31.8830   48.1350 H   0  0  0  0  0  0  0  0  0  0  0  0
   58.8930   31.6490   47.3840 C   0  0  0  0  0  0  0  0  0  0  0  0
   58.3220   32.5520   48.0560 O   0  0  0  0  0  0  0  0  0  0  0  0
   58.2340   31.1480   46.1520 C   0  0  0  0  0  0  0  0  0  0  0  0
   57.4360   30.0460   46.2110 N   0  0  0  0  0  0  0  0  0  0  0  0
   56.7930   29.5390   45.1210 C   0  0  0  0  0  0  0  0  0  0  0  0
   56.0030   28.5080   45.2300 N   0  0  0  0  0  0  0  0  0  0  0  0
   56.3580   27.1690   45.6130 C   0  0  0  0  0  0  0  0  0  0  0  0
   55.6770   26.4830   46.5500 N   0  0  0  0  0  0  0  0  0  0  0  0
   56.2040   25.2710   46.6400 N   0  0  0  0  0  0  0  0  0  0  0  0
   57.2200   25.1860   45.7600 C   0  0  0  0  0  0  0  0  0  0  0  0
   58.0050   23.9430   45.5110 C   0  0  0  0  0  0  0  0  0  0  0  0
   58.2905   23.4909   46.4723 H   0  0  0  0  0  0  0  0  0  0  0  0
   57.3924   23.2310   44.9385 H   0  0  0  0  0  0  0  0  0  0  0  0
   58.9112   24.1901   44.9385 H   0  0  0  0  0  0  0  0  0  0  0  0
   57.3420   26.3680   45.0630 C   0  0  0  0  0  0  0  0  0  0  0  0
   58.0525   26.6156   44.2606 H   0  0  0  0  0  0  0  0  0  0  0  0
   56.9520   30.1710   43.8710 C   0  0  0  0  0  0  0  0  0  0  0  0
   56.2450   29.6580   42.6450 C   0  0  0  0  0  0  0  0  0  0  0  0
   55.3892   29.0370   42.9482 H   0  0  0  0  0  0  0  0  0  0  0  0
   55.8871   30.5080   42.0455 H   0  0  0  0  0  0  0  0  0  0  0  0
   56.9421   29.0541   42.0455 H   0  0  0  0  0  0  0  0  0  0  0  0
   57.7640   31.3090   43.7880 C   0  0  0  0  0  0  0  0  0  0  0  0
   57.8961   31.8175   42.8216 H   0  0  0  0  0  0  0  0  0  0  0  0
   58.4060   31.8010   44.9240 C   0  0  0  0  0  0  0  0  0  0  0  0
   59.0429   32.6953   44.8567 H   0  0  0  0  0  0  0  0  0  0  0  0
   60.8720   30.4050   46.7270 C   0  0  0  0  0  0  0  0  0  0  0  0
   61.9170   30.2444   47.0307 H   0  0  0  0  0  0  0  0  0  0  0  0
   60.8039   31.0519   45.8399 H   0  0  0  0  0  0  0  0  0  0  0  0
   60.2510   29.0500   46.3650 C   0  0  0  0  0  0  0  0  0  0  0  0
   60.8456   28.5777   45.5691 H   0  0  0  0  0  0  0  0  0  0  0  0
   59.2195   29.2070   46.0167 H   0  0  0  0  0  0  0  0  0  0  0  0
  1  2  1  0
  2  3  1  0
  3  4  1  0
  3  5  1  0
  3  6  1  0
  6  7  1  1
  6  8  1  0
  8  9  1  0
  8 10  1  0
  8 11  1  0
 11 12  1  0
 11 13  1  0
 11 14  1  0
 14 15  1  1
 14 16  1  0
 16 17  2  0
 16 18  1  0
 18 19  1  0
 19 20  1  0
 20 21  2  0
 21 22  1  0
 22 23  2  0
 23 24  1  0
 24 25  1  0
 25 26  1  0
 26 27  1  0
 26 28  1  0
 26 29  1  0
 25 30  2  0
 30 31  1  0
 20 32  1  0
 32 33  1  0
 33 34  1  0
 33 35  1  0
 33 36  1  0
 32 37  2  0
 37 38  1  0
 37 39  1  0
 39 40  1  0
 14 41  1  0
 41 42  1  0
 41 43  1  0
 41 44  1  0
 44 45  1  0
 44 46  1  0
 44  6  1  0
 39 18  2  0
 30 22  1  0
M  CHG  3  14   1  19  -1  24  -1
M  END
>  <UniqueID>  (85) 
81

>  <SMILES>  (85) 
Cc1cc(/N=c2\[n-]c(C(=O)[NH+]3CCC(CO)CC3)ccc2C)n[n-]1

>  <Energy>  (85) 
82.24155846086134

>  <Genealogy>  (85) 
Cc1cc(N=c2[n-]c(C(=O)[NH+]3CCC(CO)CC3)ccc2C)n[n-]1 (protonated)
Cc1cc(/N=c2\[n-]c(C(=O)[NH+]3CCC(CO)CC3)ccc2C)n[n-]1 (cis-trans isomerization)
Cc1cc(/N=c2\[n-]c(C(=O)[NH+]3CCC(CO)CC3)ccc2C)n[n-]1 (3D coordinates assigned)
Cc1cc(/N=c2\[n-]c(C(=O)[NH+]3CCC(CO)CC3)ccc2C)n[n-]1 (nonaromatic ring conformer: 82.24155846086134 kcal/mol)

>  <smiles>  (85) 
Cc1cc(N=c2[nH]c(C(=O)N3CCC(CO)CC3)ccc2C)n[nH]1

>  <score_type>  (85) 
oracle

>  <origin>  (85) 
adg

>  <m_score__min__energy>  (85) 
-10.640000000000001

>  <m_primary>  (85) 
energy

$$$$
85:0
     RDKit          3D

 18 18  0  0  0  0  0  0  0  0999 V2000
   55.4910   29.2240   44.8540 N   0  0  0  0  0  0  0  0  0  0  0  0
   56.7800   28.7590   45.2650 C   0  0  0  0  0  0  0  0  0  0  0  0
   57.0580   27.1490   45.3590 S   0  0  0  0  0  0  0  0  0  0  0  0
   57.7780   29.6750   45.7420 N   0  0  0  0  0  0  0  0  0  0  0  0
   57.8840   31.0420   45.3140 C   0  0  0  0  0  0  0  0  0  0  0  0
   57.6420   31.4130   43.9780 C   0  0  0  0  0  0  0  0  0  0  0  0
   57.7800   32.7460   43.5800 C   0  0  0  0  0  0  0  0  0  0  0  0
   58.1730   33.7170   44.5040 C   0  0  0  0  0  0  0  0  0  0  0  0
   58.4370   33.3550   45.8290 C   0  0  0  0  0  0  0  0  0  0  0  0
   58.9440   34.5720   46.9860 Cl  0  0  0  0  0  0  0  0  0  0  0  0
   58.3000   32.0210   46.2310 C   0  0  0  0  0  0  0  0  0  0  0  0
   54.7720   28.5530   44.5040 H   0  0  0  0  0  0  0  0  0  0  0  0
   55.2240   30.2280   44.9560 H   0  0  0  0  0  0  0  0  0  0  0  0
   58.4630   29.3280   46.4500 H   0  0  0  0  0  0  0  0  0  0  0  0
   57.3429   30.6506   43.2437 H   0  0  0  0  0  0  0  0  0  0  0  0
   57.5786   33.0309   42.5368 H   0  0  0  0  0  0  0  0  0  0  0  0
   58.2749   34.7662   44.1897 H   0  0  0  0  0  0  0  0  0  0  0  0
   58.5194   31.7380   47.2711 H   0  0  0  0  0  0  0  0  0  0  0  0
  1  2  1  0
  2  3  2  0
  2  4  1  0
  4  5  1  0
  5  6  2  0
  6  7  1  0
  7  8  2  0
  8  9  1  0
  9 10  1  0
  9 11  2  0
 11  5  1  0
  1 12  1  0
  1 13  1  0
  4 14  1  0
  6 15  1  0
  7 16  1  0
  8 17  1  0
 11 18  1  0
M  END
>  <UniqueID>  (86) 
82

>  <SMILES>  (86) 
NC(=S)Nc1cccc(Cl)c1

>  <Energy>  (86) 
18.897293400174235

>  <Genealogy>  (86) 
NC(=S)Nc1cccc(Cl)c1 (3D coordinates assigned)
NC(=S)Nc1cccc(Cl)c1 (optimized conformer: 18.897293400174235 kcal/mol)

>  <smiles>  (86) 
NC(=S)Nc1cccc(Cl)c1

>  <score_type>  (86) 
oracle

>  <origin>  (86) 
adg

>  <m_score__min__energy>  (86) 
-5.5700000000000003

>  <m_primary>  (86) 
energy

$$$$
86:0
     RDKit          3D

 54 57  0  0  1  0  0  0  0  0999 V2000
   55.5160   22.6360   42.5750 O   0  0  0  0  0  0  0  0  0  0  0  0
   56.2780   22.2410   43.4680 C   0  0  0  0  0  0  0  0  0  0  0  0
   57.2090   21.0920   43.2270 C   0  0  0  0  0  0  0  0  0  0  0  0
   58.5580   21.4810   43.7530 C   0  0  0  0  0  0  0  0  0  0  0  0
   58.5380   22.0370   45.1500 C   0  0  0  0  0  0  0  0  0  0  0  0
   57.6180   23.1540   45.2860 N   0  0  0  0  0  0  0  0  0  0  0  0
   57.9870   24.4030   45.8730 C   0  0  0  0  0  0  0  0  0  0  0  0
   59.3090   24.7520   45.9840 C   0  0  0  0  0  0  0  0  0  0  0  0
   59.6840   25.9580   46.5370 C   0  0  0  0  0  0  0  0  0  0  0  0
   58.7390   26.8810   47.0100 C   0  0  0  0  0  0  0  0  0  0  0  0
   59.2680   28.1180   47.6000 C   0  0  0  0  0  0  0  0  0  0  0  0
   58.9300   29.2730   46.8500 N   0  0  0  0  0  0  0  0  0  0  0  0
   58.7590   29.3940   45.4610 C   0  0  0  0  0  0  0  0  0  0  0  0
   58.8790   28.3980   44.7010 O   0  0  0  0  0  0  0  0  0  0  0  0
   58.4400   30.6640   44.8330 C   0  0  0  0  0  0  0  0  0  0  0  0
   58.4530   31.8710   45.5150 C   0  0  0  0  0  0  0  0  0  0  0  0
   58.1020   32.8550   44.6200 C   0  0  0  0  0  0  0  0  0  0  0  0
   58.0140   34.1250   44.7420 N   0  0  0  0  0  0  0  0  0  0  0  0
   59.0580   34.8990   45.2960 C   0  0  0  0  0  0  0  0  0  0  0  0
   59.3890   36.0520   44.8290 O   0  0  0  0  0  0  0  0  0  0  0  0
   59.8620   34.4860   46.4470 C   0  0  0  0  0  0  0  0  0  0  0  0
   59.2640   34.5880   47.7030 C   0  0  0  0  0  0  0  0  0  0  0  0
   59.9100   34.2360   48.8670 C   0  0  0  0  0  0  0  0  0  0  0  0
   61.1950   33.7690   48.7820 C   0  0  0  0  0  0  0  0  0  0  0  0
   61.8090   33.6580   47.5650 C   0  0  0  0  0  0  0  0  0  0  0  0
   63.4550   33.0600   47.5040 Cl  0  0  0  0  0  0  0  0  0  0  0  0
   61.1460   34.0170   46.3790 C   0  0  0  0  0  0  0  0  0  0  0  0
   57.8860   32.2300   43.4400 N   0  0  0  0  0  0  0  0  0  0  0  0
   58.0890   30.9160   43.5640 N   0  0  0  0  0  0  0  0  0  0  0  0
   57.4130   26.5360   46.8970 C   0  0  0  0  0  0  0  0  0  0  0  0
   57.0340   25.3120   46.3380 C   0  0  0  0  0  0  0  0  0  0  0  0
   56.2690   22.9150   44.7950 C   0  0  0  0  0  0  0  0  0  0  0  0
   56.8449   20.1978   43.7540 H   0  0  0  0  0  0  0  0  0  0  0  0
   57.2660   20.8607   42.1531 H   0  0  0  0  0  0  0  0  0  0  0  0
   59.2014   20.5888   43.7460 H   0  0  0  0  0  0  0  0  0  0  0  0
   58.9332   22.2822   43.0993 H   0  0  0  0  0  0  0  0  0  0  0  0
   58.2318   21.2400   45.8436 H   0  0  0  0  0  0  0  0  0  0  0  0
   59.5491   22.4038   45.3807 H   0  0  0  0  0  0  0  0  0  0  0  0
   60.0832   24.0577   45.6256 H   0  0  0  0  0  0  0  0  0  0  0  0
   60.7538   26.2034   46.6094 H   0  0  0  0  0  0  0  0  0  0  0  0
   58.8588   28.2261   48.6153 H   0  0  0  0  0  0  0  0  0  0  0  0
   60.3651   28.0380   47.6085 H   0  0  0  0  0  0  0  0  0  0  0  0
   58.7870   30.1820   47.4020 H   0  0  0  0  0  0  0  0  0  0  0  0
   58.6990   32.0154   46.5774 H   0  0  0  0  0  0  0  0  0  0  0  0
   58.2328   34.9656   47.7663 H   0  0  0  0  0  0  0  0  0  0  0  0
   59.4067   34.3275   49.8408 H   0  0  0  0  0  0  0  0  0  0  0  0
   61.7352   33.4821   49.6963 H   0  0  0  0  0  0  0  0  0  0  0  0
   61.6531   33.9222   45.4075 H   0  0  0  0  0  0  0  0  0  0  0  0
   57.6000   32.6500   42.5440 H   0  0  0  0  0  0  0  0  0  0  0  0
   57.9870   30.1970   42.7820 H   0  0  0  0  0  0  0  0  0  0  0  0
   56.6393   27.2330   47.2515 H   0  0  0  0  0  0  0  0  0  0  0  0
   55.9658   25.0602   46.2630 H   0  0  0  0  0  0  0  0  0  0  0  0
   55.7352   22.2775   45.5151 H   0  0  0  0  0  0  0  0  0  0  0  0
   55.7675   23.8875   44.6825 H   0  0  0  0  0  0  0  0  0  0  0  0
  1  2  2  0
  2  3  1  0
  3  4  1  0
  4  5  1  0
  5  6  1  0
  6  7  1  0
  7  8  2  0
  8  9  1  0
  9 10  2  0
 10 11  1  0
 11 12  1  0
 12 13  1  0
 13 14  2  0
 13 15  1  0
 15 16  2  0
 16 17  1  0
 17 18  2  0
 18 19  1  0
 19 20  2  0
 19 21  1  0
 21 22  2  0
 22 23  1  0
 23 24  2  0
 24 25  1  0
 25 26  1  0
 25 27  2  0
 17 28  1  0
 28 29  1  0
 10 30  1  0
 30 31  2  0
  6 32  1  0
 32  2  1  0
 31  7  1  0
 29 15  1  0
 27 21  1  0
  3 33  1  0
  3 34  1  0
  4 35  1  0
  4 36  1  0
  5 37  1  0
  5 38  1  0
  8 39  1  0
  9 40  1  0
 11 41  1  0
 11 42  1  0
 12 43  1  0
 16 44  1  0
 22 45  1  0
 23 46  1  0
 24 47  1  0
 27 48  1  0
 28 49  1  0
 29 50  1  0
 30 51  1  0
 31 52  1  0
 32 53  1  0
 32 54  1  0
M  END
>  <smiles>  (87) 
O=C1CCCN(c2ccc(CNC(=O)c3cc(=NC(=O)c4cccc(Cl)c4)[nH][nH]3)cc2)C1

>  <score_type>  (87) 
oracle

>  <origin>  (87) 
adg

>  <m_score__min__energy>  (87) 
-9.5700000000000003

>  <m_primary>  (87) 
energy

$$$$
87:0
     RDKit          3D

 39 41  0  0  1  0  0  0  0  0999 V2000
   56.4520   29.1040   42.7060 N   0  0  0  0  0  0  0  0  0  0  0  0
   56.3060   29.5320   44.0480 C   0  0  0  0  0  0  0  0  0  0  0  0
   55.3630   29.0580   44.7500 O   0  0  0  0  0  0  0  0  0  0  0  0
   57.1890   30.5000   44.6740 C   0  0  0  0  0  0  0  0  0  0  0  0
   56.9730   31.8390   44.4200 C   0  0  0  0  0  0  0  0  0  0  0  0
   57.8160   32.7650   45.0180 C   0  0  0  0  0  0  0  0  0  0  0  0
   58.8430   32.3510   45.8440 C   0  0  0  0  0  0  0  0  0  0  0  0
   59.0510   31.0000   46.0920 C   0  0  0  0  0  0  0  0  0  0  0  0
   60.1310   30.6410   46.9550 N   0  0  0  0  0  0  0  0  0  0  0  0
   60.1400   29.5270   47.6080 C   0  0  0  0  0  0  0  0  0  0  0  0
   60.2140   29.5320   48.9700 N   0  0  0  0  0  0  0  0  0  0  0  0
   60.2260   28.3830   49.6820 C   0  0  0  0  0  0  0  0  0  0  0  0
   60.1580   27.2120   48.9510 C   0  0  0  0  0  0  0  0  0  0  0  0
   60.1680   26.0390   49.6370 F   0  0  0  0  0  0  0  0  0  0  0  0
   60.0820   27.1990   47.5750 C   0  0  0  0  0  0  0  0  0  0  0  0
   60.0220   26.0570   46.9760 N   0  0  0  0  0  0  0  0  0  0  0  0
   58.8050   25.7370   46.3130 C   0  0  0  0  0  0  0  0  0  0  0  0
   58.8440   24.6930   45.3830 C   0  0  0  0  0  0  0  0  0  0  0  0
   57.6870   24.3270   44.6990 C   0  0  0  0  0  0  0  0  0  0  0  0
   56.4910   24.9970   44.9370 C   0  0  0  0  0  0  0  0  0  0  0  0
   56.4780   26.0350   45.8710 C   0  0  0  0  0  0  0  0  0  0  0  0
   55.2830   26.7220   46.1260 O   0  0  0  0  0  0  0  0  0  0  0  0
   57.6180   26.4100   46.5590 C   0  0  0  0  0  0  0  0  0  0  0  0
   60.0750   28.3780   46.9250 N   0  0  0  0  0  0  0  0  0  0  0  0
   58.2200   30.0920   45.5020 C   0  0  0  0  0  0  0  0  0  0  0  0
   57.3710   29.1230   42.2250 H   0  0  0  0  0  0  0  0  0  0  0  0
   55.6430   28.7530   42.1520 H   0  0  0  0  0  0  0  0  0  0  0  0
   56.1543   32.1638   43.7610 H   0  0  0  0  0  0  0  0  0  0  0  0
   57.6651   33.8387   44.8326 H   0  0  0  0  0  0  0  0  0  0  0  0
   59.5023   33.0982   46.3098 H   0  0  0  0  0  0  0  0  0  0  0  0
   60.2640   30.4370   49.4870 H   0  0  0  0  0  0  0  0  0  0  0  0
   60.2864   28.3801   50.7803 H   0  0  0  0  0  0  0  0  0  0  0  0
   59.7878   24.1613   45.1918 H   0  0  0  0  0  0  0  0  0  0  0  0
   57.7190   23.5055   43.9682 H   0  0  0  0  0  0  0  0  0  0  0  0
   55.5736   24.7145   44.3999 H   0  0  0  0  0  0  0  0  0  0  0  0
   54.7660   27.0990   45.3460 H   0  0  0  0  0  0  0  0  0  0  0  0
   57.5833   27.2305   47.2909 H   0  0  0  0  0  0  0  0  0  0  0  0
   60.0190   28.3960   45.8840 H   0  0  0  0  0  0  0  0  0  0  0  0
   58.3723   29.0185   45.6877 H   0  0  0  0  0  0  0  0  0  0  0  0
  1  2  1  0
  2  3  2  0
  2  4  1  0
  4  5  2  0
  5  6  1  0
  6  7  2  0
  7  8  1  0
  8  9  1  0
  9 10  2  0
 10 11  1  0
 11 12  1  0
 12 13  2  0
 13 14  1  0
 13 15  1  0
 15 16  2  0
 16 17  1  0
 17 18  2  0
 18 19  1  0
 19 20  2  0
 20 21  1  0
 21 22  1  0
 21 23  2  0
 15 24  1  0
  8 25  2  0
 25  4  1  0
 24 10  1  0
 23 17  1  0
  1 26  1  0
  1 27  1  0
  5 28  1  0
  6 29  1  0
  7 30  1  0
 11 31  1  0
 12 32  1  0
 18 33  1  0
 19 34  1  0
 20 35  1  0
 22 36  1  0
 23 37  1  0
 24 38  1  0
 25 39  1  0
M  END
>  <smiles>  (88) 
NC(=O)c1cccc(N=c2[nH]cc(F)c(=Nc3cccc(O)c3)[nH]2)c1

>  <score_type>  (88) 
oracle

>  <origin>  (88) 
adg

>  <m_score__min__energy>  (88) 
-8.9700000000000006

>  <m_primary>  (88) 
energy

$$$$
88:0
     RDKit          3D

 45 47  0  0  0  0  0  0  0  0999 V2000
   59.9260   28.1760   49.0430 N   0  0  0  0  0  0  0  0  0  0  0  0
   59.5470   29.5180   49.3540 C   0  0  0  0  0  0  0  0  0  0  0  0
   58.5520   29.7650   50.3090 C   0  0  0  0  0  0  0  0  0  0  0  0
   58.1750   31.0770   50.6060 C   0  0  0  0  0  0  0  0  0  0  0  0
   58.7890   32.1480   49.9520 C   0  0  0  0  0  0  0  0  0  0  0  0
   59.7870   31.9210   48.9960 C   0  0  0  0  0  0  0  0  0  0  0  0
   60.3730   33.0370   48.3770 O   0  0  0  0  0  0  0  0  0  0  0  0
   59.8940   34.3800   48.4580 C   0  0  0  0  0  0  0  0  0  0  0  0
   59.1870   34.7810   47.1560 C   0  0  0  0  0  0  0  0  0  0  0  0
   57.9810   33.8790   46.8260 C   0  0  0  0  0  0  0  0  0  0  0  0
   57.4890   34.0080   45.3730 C   0  0  0  0  0  0  0  0  0  0  0  0
   58.5230   33.5850   44.3770 C   0  0  0  0  0  0  0  0  0  0  0  0
   59.5800   34.2600   44.2540 O   0  0  0  0  0  0  0  0  0  0  0  0
   58.3260   32.3800   43.6270 N   0  0  0  0  0  0  0  0  0  0  0  0
   57.7440   31.1590   44.1040 C   0  0  0  0  0  0  0  0  0  0  0  0
   56.4060   30.8160   43.8390 C   0  0  0  0  0  0  0  0  0  0  0  0
   55.8710   29.6250   44.3350 C   0  0  0  0  0  0  0  0  0  0  0  0
   56.6570   28.7640   45.1140 C   0  0  0  0  0  0  0  0  0  0  0  0
   56.1390   27.5990   45.5980 N   0  0  0  0  0  0  0  0  0  0  0  0
   56.8980   26.7640   46.3590 C   0  0  0  0  0  0  0  0  0  0  0  0
   56.4070   25.6920   46.7990 O   0  0  0  0  0  0  0  0  0  0  0  0
   58.1850   27.0830   46.6490 N   0  0  0  0  0  0  0  0  0  0  0  0
   58.7500   28.2300   46.1940 C   0  0  0  0  0  0  0  0  0  0  0  0
   59.9490   28.4870   46.4880 O   0  0  0  0  0  0  0  0  0  0  0  0
   57.9940   29.1120   45.4030 C   0  0  0  0  0  0  0  0  0  0  0  0
   58.5250   30.3140   44.9030 C   0  0  0  0  0  0  0  0  0  0  0  0
   60.1650   30.5970   48.7010 C   0  0  0  0  0  0  0  0  0  0  0  0
   60.7150   27.7120   49.5450 H   0  0  0  0  0  0  0  0  0  0  0  0
   59.4150   27.6300   48.3140 H   0  0  0  0  0  0  0  0  0  0  0  0
   58.0666   28.9241   50.8260 H   0  0  0  0  0  0  0  0  0  0  0  0
   57.3933   31.2671   51.3562 H   0  0  0  0  0  0  0  0  0  0  0  0
   58.4860   33.1783   50.1899 H   0  0  0  0  0  0  0  0  0  0  0  0
   59.1842   34.4608   49.2945 H   0  0  0  0  0  0  0  0  0  0  0  0
   60.7495   35.0525   48.6185 H   0  0  0  0  0  0  0  0  0  0  0  0
   58.8334   35.8180   47.2536 H   0  0  0  0  0  0  0  0  0  0  0  0
   59.9145   34.6719   46.3381 H   0  0  0  0  0  0  0  0  0  0  0  0
   58.2716   32.8328   47.0023 H   0  0  0  0  0  0  0  0  0  0  0  0
   57.1529   34.2005   47.4748 H   0  0  0  0  0  0  0  0  0  0  0  0
   56.5974   33.3766   45.2453 H   0  0  0  0  0  0  0  0  0  0  0  0
   57.2635   35.0690   45.1899 H   0  0  0  0  0  0  0  0  0  0  0  0
   55.7775   31.4894   43.2378 H   0  0  0  0  0  0  0  0  0  0  0  0
   54.8265   29.3608   44.1131 H   0  0  0  0  0  0  0  0  0  0  0  0
   55.1490   27.3380   45.3870 H   0  0  0  0  0  0  0  0  0  0  0  0
   59.5620   30.5931   45.1411 H   0  0  0  0  0  0  0  0  0  0  0  0
   60.9497   30.4065   47.9540 H   0  0  0  0  0  0  0  0  0  0  0  0
  1  2  1  0
  2  3  2  0
  3  4  1  0
  4  5  2  0
  5  6  1  0
  6  7  1  0
  7  8  1  0
  8  9  1  0
  9 10  1  0
 10 11  1  0
 11 12  1  0
 12 13  2  0
 12 14  1  0
 14 15  1  0
 15 16  2  0
 16 17  1  0
 17 18  2  0
 18 19  1  0
 19 20  1  0
 20 21  2  0
 20 22  1  0
 22 23  1  0
 23 24  2  0
 23 25  1  0
 25 26  2  0
  6 27  2  0
 27  2  1  0
 26 15  1  0
 25 18  1  0
  1 28  1  0
  1 29  1  0
  3 30  1  0
  4 31  1  0
  5 32  1  0
  8 33  1  0
  8 34  1  0
  9 35  1  0
  9 36  1  0
 10 37  1  0
 10 38  1  0
 11 39  1  0
 11 40  1  0
 16 41  1  0
 17 42  1  0
 19 43  1  0
 26 44  1  0
 27 45  1  0
M  CHG  2  14  -1  22  -1
M  END
>  <UniqueID>  (89) 
83

>  <SMILES>  (89) 
Nc1cccc(OCCCCC(=O)[N-]c2ccc3[nH]c(=O)[n-]c(=O)c3c2)c1

>  <Energy>  (89) 
48.43677908394775

>  <Genealogy>  (89) 
Nc1cccc(OCCCCC(=O)[N-]c2ccc3[nH]c(=O)[n-]c(=O)c3c2)c1 (protonated)
Nc1cccc(OCCCCC(=O)[N-]c2ccc3[nH]c(=O)[n-]c(=O)c3c2)c1 (3D coordinates assigned)
Nc1cccc(OCCCCC(=O)[N-]c2ccc3[nH]c(=O)[n-]c(=O)c3c2)c1 (optimized conformer: 48.43677908394775 kcal/mol)

>  <smiles>  (89) 
Nc1cccc(OCCCCC(=O)Nc2ccc3[nH]c(=O)[nH]c(=O)c3c2)c1

>  <score_type>  (89) 
oracle

>  <origin>  (89) 
adg

>  <m_score__min__energy>  (89) 
-12.19

>  <m_primary>  (89) 
energy

$$$$
89:0
     RDKit          3D

 73 77  0  0  0  0  0  0  0  0999 V2000
   61.9970   33.8290   46.0280 O   0  0  0  0  0  0  0  0  0  0  0  0
   61.4760   33.1600   46.9640 C   0  0  0  0  0  0  0  0  0  0  0  0
   62.2400   31.9690   47.4690 C   0  0  0  0  0  0  0  0  0  0  0  0
   61.3170   30.9230   47.7680 O   0  0  0  0  0  0  0  0  0  0  0  0
   61.2310   30.2490   48.9940 C   0  0  0  0  0  0  0  0  0  0  0  0
   62.0610   30.6730   50.0360 C   0  0  0  0  0  0  0  0  0  0  0  0
   62.0330   30.0280   51.2720 C   0  0  0  0  0  0  0  0  0  0  0  0
   61.2180   28.8990   51.4840 C   0  0  0  0  0  0  0  0  0  0  0  0
   61.1680   28.1340   52.7830 C   0  0  0  0  0  0  0  0  0  0  0  0
   60.3420   28.5410   53.6480 O   0  0  0  0  0  0  0  0  0  0  0  0
   62.0100   26.9960   53.1510 N   0  0  0  0  0  0  0  0  0  0  0  0
   62.3850   26.0580   52.0530 C   0  0  0  0  0  0  0  0  0  0  0  0
   63.9050   25.7860   51.9400 C   0  0  0  0  0  0  0  0  0  0  0  0
   64.7010   27.0030   52.1760 N   0  0  0  0  0  0  0  0  0  0  0  0
   65.9500   27.1980   51.4820 C   0  0  0  0  0  0  0  0  0  0  0  0
   66.6100   28.4410   51.5380 C   0  0  0  0  0  0  0  0  0  0  0  0
   67.8200   28.6300   50.8650 C   0  0  0  0  0  0  0  0  0  0  0  0
   68.3840   27.5860   50.1260 C   0  0  0  0  0  0  0  0  0  0  0  0
   67.7410   26.3450   50.0700 C   0  0  0  0  0  0  0  0  0  0  0  0
   66.5310   26.1510   50.7420 C   0  0  0  0  0  0  0  0  0  0  0  0
   64.3220   27.9360   53.2440 C   0  0  0  0  0  0  0  0  0  0  0  0
   63.1280   27.4060   54.0340 C   0  0  0  0  0  0  0  0  0  0  0  0
   60.3750   28.4880   50.4320 C   0  0  0  0  0  0  0  0  0  0  0  0
   60.3680   29.1610   49.2060 C   0  0  0  0  0  0  0  0  0  0  0  0
   60.1600   33.5110   47.4830 N   0  0  0  0  0  0  0  0  0  0  0  0
   60.0030   34.2490   48.7510 C   0  0  0  0  0  0  0  0  0  0  0  0
   59.5700   33.3170   49.8520 C   0  0  0  0  0  0  0  0  0  0  0  0
   60.1380   33.4130   51.1360 C   0  0  0  0  0  0  0  0  0  0  0  0
   59.7160   32.5520   52.1570 C   0  0  0  0  0  0  0  0  0  0  0  0
   58.7300   31.5920   51.9060 C   0  0  0  0  0  0  0  0  0  0  0  0
   58.3150   30.7610   52.9000 F   0  0  0  0  0  0  0  0  0  0  0  0
   58.1650   31.4880   50.6330 C   0  0  0  0  0  0  0  0  0  0  0  0
   58.5850   32.3440   49.6080 C   0  0  0  0  0  0  0  0  0  0  0  0
   58.9190   33.2050   46.7340 C   0  0  1  0  0  0  0  0  0  0  0  0
   58.4660   34.3650   45.8230 C   0  0  0  0  0  0  0  0  0  0  0  0
   57.4170   33.8190   44.8550 C   0  0  0  0  0  0  0  0  0  0  0  0
   57.8270   32.1120   44.6220 S   0  0  0  0  0  0  0  0  0  0  0  0
   58.4280   31.8700   43.2630 O   0  0  0  0  0  0  0  0  0  0  0  0
   56.6320   31.2290   44.8430 O   0  0  0  0  0  0  0  0  0  0  0  0
   59.0260   31.9150   45.9070 C   0  0  0  0  0  0  0  0  0  0  0  0
   62.9467   31.6290   46.6976 H   0  0  0  0  0  0  0  0  0  0  0  0
   62.8013   32.2420   48.3747 H   0  0  0  0  0  0  0  0  0  0  0  0
   62.7419   31.5226   49.8795 H   0  0  0  0  0  0  0  0  0  0  0  0
   62.6574   30.4070   52.0945 H   0  0  0  0  0  0  0  0  0  0  0  0
   61.3940   26.4220   53.7790 H   0  0  0  0  0  0  0  0  0  0  0  0
   61.8755   25.0993   52.2297 H   0  0  0  0  0  0  0  0  0  0  0  0
   62.0794   26.5368   51.1110 H   0  0  0  0  0  0  0  0  0  0  0  0
   64.1866   25.0271   52.6849 H   0  0  0  0  0  0  0  0  0  0  0  0
   64.1131   25.4359   50.9182 H   0  0  0  0  0  0  0  0  0  0  0  0
   66.1703   29.2679   52.1149 H   0  0  0  0  0  0  0  0  0  0  0  0
   68.3302   29.6032   50.9169 H   0  0  0  0  0  0  0  0  0  0  0  0
   69.3318   27.7401   49.5895 H   0  0  0  0  0  0  0  0  0  0  0  0
   68.1885   25.5202   49.4960 H   0  0  0  0  0  0  0  0  0  0  0  0
   66.0292   25.1734   50.6923 H   0  0  0  0  0  0  0  0  0  0  0  0
   65.1749   28.0679   53.9261 H   0  0  0  0  0  0  0  0  0  0  0  0
   64.0420   28.8968   52.7875 H   0  0  0  0  0  0  0  0  0  0  0  0
   63.4515   26.5354   54.6235 H   0  0  0  0  0  0  0  0  0  0  0  0
   62.7658   28.2167   54.6832 H   0  0  0  0  0  0  0  0  0  0  0  0
   59.7112   27.6231   50.5777 H   0  0  0  0  0  0  0  0  0  0  0  0
   59.6854   28.8378   48.4062 H   0  0  0  0  0  0  0  0  0  0  0  0
   60.9640   34.7097   49.0234 H   0  0  0  0  0  0  0  0  0  0  0  0
   59.2351   35.0254   48.6187 H   0  0  0  0  0  0  0  0  0  0  0  0
   60.9146   34.1654   51.3381 H   0  0  0  0  0  0  0  0  0  0  0  0
   60.1615   32.6310   53.1597 H   0  0  0  0  0  0  0  0  0  0  0  0
   57.3896   30.7331   50.4357 H   0  0  0  0  0  0  0  0  0  0  0  0
   58.1415   32.2547   48.6053 H   0  0  0  0  0  0  0  0  0  0  0  0
   58.1542   33.0573   47.5107 H   0  0  0  0  0  0  0  0  0  0  0  0
   58.0294   35.1702   46.4322 H   0  0  0  0  0  0  0  0  0  0  0  0
   59.3233   34.7744   45.2685 H   0  0  0  0  0  0  0  0  0  0  0  0
   56.4095   33.9166   45.2855 H   0  0  0  0  0  0  0  0  0  0  0  0
   57.4149   34.3707   43.9034 H   0  0  0  0  0  0  0  0  0  0  0  0
   58.7921   31.0360   46.5256 H   0  0  0  0  0  0  0  0  0  0  0  0
   60.0400   31.7544   45.5119 H   0  0  0  0  0  0  0  0  0  0  0  0
  1  2  2  0
  2  3  1  0
  3  4  1  0
  4  5  1  0
  5  6  2  0
  6  7  1  0
  7  8  2  0
  8  9  1  0
  9 10  2  0
  9 11  1  0
 11 12  1  0
 12 13  1  0
 13 14  1  0
 14 15  1  0
 15 16  2  0
 16 17  1  0
 17 18  2  0
 18 19  1  0
 19 20  2  0
 14 21  1  0
 21 22  1  0
  8 23  1  0
 23 24  2  0
  2 25  1  0
 25 26  1  0
 26 27  1  0
 27 28  2  0
 28 29  1  0
 29 30  2  0
 30 31  1  0
 30 32  1  0
 32 33  2  0
 25 34  1  0
 34 35  1  0
 35 36  1  0
 36 37  1  0
 37 38  2  0
 37 39  2  0
 37 40  1  0
 24  5  1  0
 33 27  1  0
 40 34  1  0
 22 11  1  0
 20 15  1  0
  3 41  1  0
  3 42  1  0
  6 43  1  0
  7 44  1  0
 11 45  1  0
 12 46  1  0
 12 47  1  0
 13 48  1  0
 13 49  1  0
 16 50  1  0
 17 51  1  0
 18 52  1  0
 19 53  1  0
 20 54  1  0
 21 55  1  0
 21 56  1  0
 22 57  1  0
 22 58  1  0
 23 59  1  0
 24 60  1  0
 26 61  1  0
 26 62  1  0
 28 63  1  0
 29 64  1  0
 32 65  1  0
 33 66  1  0
 34 67  1  1
 35 68  1  0
 35 69  1  0
 36 70  1  0
 36 71  1  0
 40 72  1  0
 40 73  1  0
M  CHG  1  11   1
M  END
>  <UniqueID>  (90) 
84

>  <SMILES>  (90) 
O=C(COc1ccc(C(=O)[NH+]2CCN(c3ccccc3)CC2)cc1)N(Cc1ccc(F)cc1)[C@H]1CCS(=O)(=O)C1

>  <Energy>  (90) 
102.76190528661083

>  <Genealogy>  (90) 
O=C(COc1ccc(C(=O)[NH+]2CCN(c3ccccc3)CC2)cc1)N(Cc1ccc(F)cc1)C1CCS(=O)(=O)C1 (protonated)
O=C(COc1ccc(C(=O)[NH+]2CCN(c3ccccc3)CC2)cc1)N(Cc1ccc(F)cc1)[C@H]1CCS(=O)(=O)C1 (chirality)
O=C(COc1ccc(C(=O)[NH+]2CCN(c3ccccc3)CC2)cc1)N(Cc1ccc(F)cc1)[C@H]1CCS(=O)(=O)C1 (3D coordinates assigned)
O=C(COc1ccc(C(=O)[NH+]2CCN(c3ccccc3)CC2)cc1)N(Cc1ccc(F)cc1)[C@H]1CCS(=O)(=O)C1 (nonaromatic ring conformer: 102.76190528661083 kcal/mol)

>  <smiles>  (90) 
O=C(c1ccc(OCC(=O)N(Cc2ccc(F)cc2)C2CCS(=O)(=O)C2)cc1)N1CCN(c2ccccc2)CC1

>  <score_type>  (90) 
oracle

>  <origin>  (90) 
adg

>  <m_score__min__energy>  (90) 
-8.9900000000000002

>  <m_primary>  (90) 
energy

$$$$
