0:0
     RDKit          3D

 41 43  0  0  0  0  0  0  0  0999 V2000
   53.7460   24.7790   45.4760 C   0  0  0  0  0  0  0  0  0  0  0  0
   54.5210   25.9460   45.7280 O   0  0  0  0  0  0  0  0  0  0  0  0
   55.8700   25.9400   46.1210 C   0  0  0  0  0  0  0  0  0  0  0  0
   56.4450   24.8260   46.7640 C   0  0  0  0  0  0  0  0  0  0  0  0
   57.7880   24.8430   47.1430 C   0  0  0  0  0  0  0  0  0  0  0  0
   58.5750   25.9650   46.8900 C   0  0  0  0  0  0  0  0  0  0  0  0
   58.0230   27.0890   46.2520 C   0  0  0  0  0  0  0  0  0  0  0  0
   58.7880   28.2370   45.9830 C   0  0  0  0  0  0  0  0  0  0  0  0
   60.0100   28.2550   46.3060 O   0  0  0  0  0  0  0  0  0  0  0  0
   58.2180   29.3280   45.3710 N   0  0  0  0  0  0  0  0  0  0  0  0
   59.0570   30.5170   45.0930 C   0  0  0  0  0  0  0  0  0  0  0  0
   59.2580   31.3420   46.3720 C   0  0  0  0  0  0  0  0  0  0  0  0
   58.4750   32.5980   46.3380 N   0  0  0  0  0  0  0  0  0  0  0  0
   58.2550   33.0680   44.9480 C   0  0  0  0  0  0  0  0  0  0  0  0
   58.0590   34.5920   44.8950 C   0  0  0  0  0  0  0  0  0  0  0  0
   59.1790   35.3230   45.3740 O   0  0  0  0  0  0  0  0  0  0  0  0
   59.9230   34.6380   46.3730 C   0  0  0  0  0  0  0  0  0  0  0  0
   59.0850   33.6410   47.1960 C   0  0  0  0  0  0  0  0  0  0  0  0
   56.8950   29.2760   44.9820 C   0  0  0  0  0  0  0  0  0  0  0  0
   56.1730   30.5290   44.1870 S   0  0  0  0  0  0  0  0  0  0  0  0
   56.1460   28.1680   45.2380 N   0  0  0  0  0  0  0  0  0  0  0  0
   56.6690   27.0780   45.8650 C   0  0  0  0  0  0  0  0  0  0  0  0
   53.4448   24.3254   46.4318 H   0  0  0  0  0  0  0  0  0  0  0  0
   52.8490   25.0517   44.9007 H   0  0  0  0  0  0  0  0  0  0  0  0
   54.3453   24.0580   44.9007 H   0  0  0  0  0  0  0  0  0  0  0  0
   55.8310   23.9366   46.9687 H   0  0  0  0  0  0  0  0  0  0  0  0
   58.2271   23.9674   47.6434 H   0  0  0  0  0  0  0  0  0  0  0  0
   59.6330   25.9709   47.1910 H   0  0  0  0  0  0  0  0  0  0  0  0
   60.0368   30.1889   44.7158 H   0  0  0  0  0  0  0  0  0  0  0  0
   58.5521   31.1417   44.3415 H   0  0  0  0  0  0  0  0  0  0  0  0
   58.9361   30.7438   47.2372 H   0  0  0  0  0  0  0  0  0  0  0  0
   60.3239   31.6026   46.4499 H   0  0  0  0  0  0  0  0  0  0  0  0
   59.1287   32.7981   44.3366 H   0  0  0  0  0  0  0  0  0  0  0  0
   57.3440   32.5883   44.5607 H   0  0  0  0  0  0  0  0  0  0  0  0
   57.8735   34.8834   43.8506 H   0  0  0  0  0  0  0  0  0  0  0  0
   57.2099   34.8327   45.5516 H   0  0  0  0  0  0  0  0  0  0  0  0
   60.7367   34.0846   45.8815 H   0  0  0  0  0  0  0  0  0  0  0  0
   60.2961   35.3992   47.0740 H   0  0  0  0  0  0  0  0  0  0  0  0
   59.7359   33.1560   47.9384 H   0  0  0  0  0  0  0  0  0  0  0  0
   58.2738   34.1985   47.6870 H   0  0  0  0  0  0  0  0  0  0  0  0
   55.1440   28.1620   44.9370 H   0  0  0  0  0  0  0  0  0  0  0  0
  1  2  1  0
  2  3  1  0
  3  4  2  0
  4  5  1  0
  5  6  2  0
  6  7  1  0
  7  8  1  0
  8  9  2  0
  8 10  1  0
 10 11  1  0
 11 12  1  0
 12 13  1  0
 13 14  1  0
 14 15  1  0
 15 16  1  0
 16 17  1  0
 17 18  1  0
 10 19  1  0
 19 20  2  0
 19 21  1  0
 21 22  1  0
 22  3  1  0
 22  7  2  0
 18 13  1  0
  1 23  1  0
  1 24  1  0
  1 25  1  0
  4 26  1  0
  5 27  1  0
  6 28  1  0
 11 29  1  0
 11 30  1  0
 12 31  1  0
 12 32  1  0
 14 33  1  0
 14 34  1  0
 15 35  1  0
 15 36  1  0
 17 37  1  0
 17 38  1  0
 18 39  1  0
 18 40  1  0
 21 41  1  0
M  END
>  <UniqueID>  (1) 
1

>  <SMILES>  (1) 
COc1cccc2c(=O)n(CCN3CCOCC3)c(=S)[nH]c12

>  <Energy>  (1) 
66.52758632925818

>  <Genealogy>  (1) 
COc1cccc2c(=O)n(CCN3CCOCC3)c(=S)[nH]c12 (3D coordinates assigned)
COc1cccc2c(=O)n(CCN3CCOCC3)c(=S)[nH]c12 (nonaromatic ring conformer: 66.52758632925818 kcal/mol)

>  <smiles>  (1) 
COc1cccc2c(=O)n(CCN3CCOCC3)c(=S)[nH]c12

>  <score_type>  (1) 
oracle

>  <origin>  (1) 
adg

>  <m_score__min__energy>  (1) 
-7.8399999999999999

>  <m_primary>  (1) 
energy

$$$$
1:0
     RDKit          3D

 40 43  0  0  0  0  0  0  0  0999 V2000
   59.0651   34.6535   43.8532 H   0  0  0  0  0  0  0  0  0  0  0  0
   58.6490   33.8130   44.4280 C   0  0  0  0  0  0  0  0  0  0  0  0
   58.6150   33.8720   45.8260 C   0  0  0  0  0  0  0  0  0  0  0  0
   59.1900   35.0510   46.5610 C   0  0  0  0  0  0  0  0  0  0  0  0
   59.7963   35.6520   45.8674 H   0  0  0  0  0  0  0  0  0  0  0  0
   58.3678   35.6610   46.9634 H   0  0  0  0  0  0  0  0  0  0  0  0
   60.0520   34.5800   47.6930 C   0  0  0  0  0  0  0  0  0  0  0  0
   59.6800   34.4920   49.0310 C   0  0  0  0  0  0  0  0  0  0  0  0
   58.7152   34.8291   49.4378 H   0  0  0  0  0  0  0  0  0  0  0  0
   60.6730   33.9330   49.7610 N   0  0  0  0  0  0  0  0  0  0  0  0
   60.6620   33.7410   50.7870 H   0  0  0  0  0  0  0  0  0  0  0  0
   61.6620   33.6560   48.8940 C   0  0  0  0  0  0  0  0  0  0  0  0
   62.8860   33.0500   49.1740 C   0  0  0  0  0  0  0  0  0  0  0  0
   63.1501   32.7512   50.1992 H   0  0  0  0  0  0  0  0  0  0  0  0
   63.7720   32.8330   48.1040 C   0  0  0  0  0  0  0  0  0  0  0  0
   64.7474   32.3599   48.2904 H   0  0  0  0  0  0  0  0  0  0  0  0
   63.4190   33.2180   46.7910 C   0  0  0  0  0  0  0  0  0  0  0  0
   64.1205   33.0422   45.9622 H   0  0  0  0  0  0  0  0  0  0  0  0
   62.1750   33.8250   46.5380 C   0  0  0  0  0  0  0  0  0  0  0  0
   61.8873   34.1274   45.5203 H   0  0  0  0  0  0  0  0  0  0  0  0
   61.3180   34.0310   47.6200 C   0  0  0  0  0  0  0  0  0  0  0  0
   58.0830   32.7850   46.5310 C   0  0  0  0  0  0  0  0  0  0  0  0
   58.0506   32.8102   47.6302 H   0  0  0  0  0  0  0  0  0  0  0  0
   57.6060   31.6980   45.8660 N   0  0  0  0  0  0  0  0  0  0  0  0
   57.2170   30.9040   46.4250 H   0  0  0  0  0  0  0  0  0  0  0  0
   57.6410   31.6100   44.5050 C   0  0  0  0  0  0  0  0  0  0  0  0
   57.1760   30.5320   43.9330 N   0  0  0  0  0  0  0  0  0  0  0  0
   56.2950   29.5580   44.5150 C   0  0  0  0  0  0  0  0  0  0  0  0
   55.0520   29.7570   44.4620 O   0  0  0  0  0  0  0  0  0  0  0  0
   56.8050   28.3700   45.2330 C   0  0  0  0  0  0  0  0  0  0  0  0
   55.9300   27.4000   45.6200 N   0  0  0  0  0  0  0  0  0  0  0  0
   56.3520   26.2930   46.2840 C   0  0  0  0  0  0  0  0  0  0  0  0
   55.5220   25.4110   46.6250 O   0  0  0  0  0  0  0  0  0  0  0  0
   57.6680   26.1380   46.5820 N   0  0  0  0  0  0  0  0  0  0  0  0
   58.5790   27.0810   46.2270 C   0  0  0  0  0  0  0  0  0  0  0  0
   59.7930   26.9200   46.5160 O   0  0  0  0  0  0  0  0  0  0  0  0
   58.1650   28.2270   45.5460 C   0  0  0  0  0  0  0  0  0  0  0  0
   58.8908   29.0026   45.2604 H   0  0  0  0  0  0  0  0  0  0  0  0
   58.1570   32.6920   43.7630 C   0  0  0  0  0  0  0  0  0  0  0  0
   58.1711   32.6513   42.6638 H   0  0  0  0  0  0  0  0  0  0  0  0
  1  2  1  0
  2  3  1  0
  3  4  1  0
  4  5  1  0
  4  6  1  0
  4  7  1  0
  7  8  2  0
  8  9  1  0
  8 10  1  0
 10 11  1  0
 10 12  1  0
 12 13  2  0
 13 14  1  0
 13 15  1  0
 15 16  1  0
 15 17  2  0
 17 18  1  0
 17 19  1  0
 19 20  1  0
 19 21  2  0
  3 22  2  0
 22 23  1  0
 22 24  1  0
 24 25  1  0
 24 26  1  0
 26 27  2  0
 27 28  1  0
 28 29  2  0
 28 30  1  0
 30 31  1  0
 31 32  1  0
 32 33  2  0
 32 34  1  0
 34 35  1  0
 35 36  2  0
 35 37  1  0
 37 38  1  0
 26 39  1  0
 39 40  1  0
 39  2  2  0
 21  7  1  0
 37 30  2  0
 21 12  1  0
M  CHG  2  31  -1  34  -1
M  END
>  <UniqueID>  (2) 
2

>  <SMILES>  (2) 
O=C(/N=c1\ccc(Cc2c[nH]c3ccccc23)c[nH]1)c1cc(=O)[n-]c(=O)[n-]1

>  <Energy>  (2) 
86.89630300555508

>  <Genealogy>  (2) 
O=C(N=c1ccc(Cc2c[nH]c3ccccc23)c[nH]1)c1cc(=O)[n-]c(=O)[n-]1 (protonated)
O=C(/N=c1\ccc(Cc2c[nH]c3ccccc23)c[nH]1)c1cc(=O)[n-]c(=O)[n-]1 (cis-trans isomerization)
O=C(/N=c1\ccc(Cc2c[nH]c3ccccc23)c[nH]1)c1cc(=O)[n-]c(=O)[n-]1 (3D coordinates assigned)
O=C(/N=c1\ccc(Cc2c[nH]c3ccccc23)c[nH]1)c1cc(=O)[n-]c(=O)[n-]1 (optimized conformer: 86.89630300555508 kcal/mol)

>  <smiles>  (2) 
O=C(N=c1ccc(Cc2c[nH]c3ccccc23)c[nH]1)c1cc(=O)[nH]c(=O)[nH]1

>  <score_type>  (2) 
oracle

>  <origin>  (2) 
adg

>  <m_score__min__energy>  (2) 
-13.880000000000001

>  <m_primary>  (2) 
energy

$$$$
2:0
     RDKit          3D

 48 51  0  0  0  0  0  0  0  0999 V2000
   62.2280   33.2320   49.2280 C   0  0  0  0  0  0  0  0  0  0  0  0
   61.4290   32.0970   48.6400 C   0  0  0  0  0  0  0  0  0  0  0  0
   61.5580   30.8260   49.2110 C   0  0  0  0  0  0  0  0  0  0  0  0
   60.8750   29.7370   48.6610 C   0  0  0  0  0  0  0  0  0  0  0  0
   60.9800   28.6090   49.2150 O   0  0  0  0  0  0  0  0  0  0  0  0
   60.1000   29.8980   47.5430 N   0  0  0  0  0  0  0  0  0  0  0  0
   59.4560   28.7630   46.9230 C   0  0  0  0  0  0  0  0  0  0  0  0
   58.9560   27.7700   47.6880 C   0  0  0  0  0  0  0  0  0  0  0  0
   58.2560   26.6120   47.0960 C   0  0  0  0  0  0  0  0  0  0  0  0
   57.7640   25.7250   47.8510 O   0  0  0  0  0  0  0  0  0  0  0  0
   58.1290   26.5070   45.6230 C   0  0  0  0  0  0  0  0  0  0  0  0
   57.4980   25.4020   45.0260 C   0  0  0  0  0  0  0  0  0  0  0  0
   57.3970   25.3160   43.6340 C   0  0  0  0  0  0  0  0  0  0  0  0
   57.9190   26.3350   42.8260 C   0  0  0  0  0  0  0  0  0  0  0  0
   58.5420   27.4450   43.4090 C   0  0  0  0  0  0  0  0  0  0  0  0
   58.6490   27.5410   44.8090 C   0  0  0  0  0  0  0  0  0  0  0  0
   59.2900   28.7160   45.4470 C   0  0  0  0  0  0  0  0  0  0  0  0
   59.6660   29.6910   44.7460 O   0  0  0  0  0  0  0  0  0  0  0  0
   59.9350   31.1370   46.9910 C   0  0  0  0  0  0  0  0  0  0  0  0
   60.5600   32.2670   47.5390 C   0  0  0  0  0  0  0  0  0  0  0  0
   60.2790   33.5820   46.9310 C   0  0  0  0  0  0  0  0  0  0  0  0
   61.1520   34.1090   46.1880 O   0  0  0  0  0  0  0  0  0  0  0  0
   58.9710   34.2470   47.1510 C   0  0  0  0  0  0  0  0  0  0  0  0
   57.8450   33.9880   46.4640 C   0  0  0  0  0  0  0  0  0  0  0  0
   57.7760   33.1750   45.2280 C   0  0  0  0  0  0  0  0  0  0  0  0
   56.9730   32.0250   45.2180 C   0  0  0  0  0  0  0  0  0  0  0  0
   56.9140   31.2120   44.0790 C   0  0  0  0  0  0  0  0  0  0  0  0
   55.9080   29.7740   44.0750 Cl  0  0  0  0  0  0  0  0  0  0  0  0
   57.6690   31.5390   42.9480 C   0  0  0  0  0  0  0  0  0  0  0  0
   58.4950   32.6670   42.9580 C   0  0  0  0  0  0  0  0  0  0  0  0
   58.5660   33.4830   44.0990 C   0  0  0  0  0  0  0  0  0  0  0  0
   59.4310   34.5810   44.1190 O   0  0  0  0  0  0  0  0  0  0  0  0
   62.1895   33.1773   50.3260 H   0  0  0  0  0  0  0  0  0  0  0  0
   63.2732   33.1565   48.8936 H   0  0  0  0  0  0  0  0  0  0  0  0
   61.8044   34.1905   48.8936 H   0  0  0  0  0  0  0  0  0  0  0  0
   62.1980   30.6834   50.0942 H   0  0  0  0  0  0  0  0  0  0  0  0
   59.0728   27.8245   48.7804 H   0  0  0  0  0  0  0  0  0  0  0  0
   57.0821   24.6020   45.6561 H   0  0  0  0  0  0  0  0  0  0  0  0
   56.9066   24.4464   43.1721 H   0  0  0  0  0  0  0  0  0  0  0  0
   57.8391   26.2626   41.7313 H   0  0  0  0  0  0  0  0  0  0  0  0
   58.9487   28.2438   42.7714 H   0  0  0  0  0  0  0  0  0  0  0  0
   59.3000   31.2505   46.1000 H   0  0  0  0  0  0  0  0  0  0  0  0
   58.9185   35.0128   47.9389 H   0  0  0  0  0  0  0  0  0  0  0  0
   56.9052   34.4112   46.8483 H   0  0  0  0  0  0  0  0  0  0  0  0
   56.3862   31.7601   46.1099 H   0  0  0  0  0  0  0  0  0  0  0  0
   57.6128   30.9076   42.0490 H   0  0  0  0  0  0  0  0  0  0  0  0
   59.0919   32.9165   42.0684 H   0  0  0  0  0  0  0  0  0  0  0  0
   60.2620   34.5990   44.7030 H   0  0  0  0  0  0  0  0  0  0  0  0
  1  2  1  0
  2  3  2  0
  3  4  1  0
  4  5  2  0
  4  6  1  0
  6  7  1  0
  7  8  2  0
  8  9  1  0
  9 10  2  0
  9 11  1  0
 11 12  2  0
 12 13  1  0
 13 14  2  0
 14 15  1  0
 15 16  2  0
 16 17  1  0
 17 18  2  0
  6 19  1  0
 19 20  2  0
 20 21  1  0
 21 22  2  0
 21 23  1  0
 23 24  2  3
 24 25  1  0
 25 26  2  0
 26 27  1  0
 27 28  1  0
 27 29  2  0
 29 30  1  0
 30 31  2  0
 31 32  1  0
 20  2  1  0
 31 25  1  0
 17  7  1  0
 16 11  1  0
  1 33  1  0
  1 34  1  0
  1 35  1  0
  3 36  1  0
  8 37  1  0
 12 38  1  0
 13 39  1  0
 14 40  1  0
 15 41  1  0
 19 42  1  0
 23 43  1  0
 24 44  1  0
 26 45  1  0
 29 46  1  0
 30 47  1  0
 32 48  1  0
M  END
>  <UniqueID>  (3) 
3

>  <SMILES>  (3) 
Cc1cc(=O)n(C2=CC(=O)c3ccccc3C2=O)cc1C(=O)C=Cc1cc(Cl)ccc1O

>  <Energy>  (3) 
78.79739704949975

>  <Genealogy>  (3) 
Cc1cc(=O)n(C2=CC(=O)c3ccccc3C2=O)cc1C(=O)C=Cc1cc(Cl)ccc1O (3D coordinates assigned)
Cc1cc(=O)n(C2=CC(=O)c3ccccc3C2=O)cc1C(=O)C=Cc1cc(Cl)ccc1O (nonaromatic ring conformer: 78.79739704949975 kcal/mol)

>  <smiles>  (3) 
Cc1cc(=O)n(C2=CC(=O)c3ccccc3C2=O)cc1C(=O)C=Cc1cc(Cl)ccc1O

>  <score_type>  (3) 
oracle

>  <origin>  (3) 
adg

>  <m_score__min__energy>  (3) 
-11.94

>  <m_primary>  (3) 
energy

$$$$
3:0
     RDKit          3D

 58 60  0  0  0  0  0  0  0  0999 V2000
   57.9731   24.3045   48.6381 H   0  0  0  0  0  0  0  0  0  0  0  0
   57.7270   24.8900   47.7400 C   0  0  0  0  0  0  0  0  0  0  0  0
   58.7430   25.5330   47.0270 C   0  0  0  0  0  0  0  0  0  0  0  0
   59.7847   25.4599   47.3728 H   0  0  0  0  0  0  0  0  0  0  0  0
   58.4420   26.2690   45.8760 C   0  0  0  0  0  0  0  0  0  0  0  0
   59.4850   26.9240   45.2070 O   0  0  0  0  0  0  0  0  0  0  0  0
   59.6180   28.3110   45.0800 C   0  0  0  0  0  0  0  0  0  0  0  0
   60.4410   28.9510   45.7910 O   0  0  0  0  0  0  0  0  0  0  0  0
   58.7080   29.0460   44.1500 C   0  0  0  0  0  0  0  0  0  0  0  0
   58.8863   28.6913   43.1241 H   0  0  0  0  0  0  0  0  0  0  0  0
   57.6716   28.8511   44.4630 H   0  0  0  0  0  0  0  0  0  0  0  0
   58.9310   30.4930   44.1960 N   0  0  0  0  0  0  0  0  0  0  0  0
   57.8300   31.2990   45.2810 S   0  0  0  0  0  0  0  0  0  0  0  0
   57.6200   30.4410   46.4930 O   0  0  0  0  0  0  0  0  0  0  0  0
   56.5060   31.4530   44.5850 O   0  0  0  0  0  0  0  0  0  0  0  0
   58.4360   32.8870   45.7960 C   0  0  0  0  0  0  0  0  0  0  0  0
   58.7960   33.8140   44.8040 C   0  0  0  0  0  0  0  0  0  0  0  0
   58.6431   33.5622   43.7442 H   0  0  0  0  0  0  0  0  0  0  0  0
   59.3450   35.0500   45.1460 C   0  0  0  0  0  0  0  0  0  0  0  0
   59.6090   35.7708   44.3581 H   0  0  0  0  0  0  0  0  0  0  0  0
   59.5590   35.3720   46.4820 C   0  0  0  0  0  0  0  0  0  0  0  0
   60.0141   36.3371   46.7494 H   0  0  0  0  0  0  0  0  0  0  0  0
   59.1960   34.4700   47.4830 C   0  0  0  0  0  0  0  0  0  0  0  0
   59.3849   34.7244   48.5364 H   0  0  0  0  0  0  0  0  0  0  0  0
   58.5910   33.2380   47.1640 C   0  0  0  0  0  0  0  0  0  0  0  0
   58.2080   32.3010   48.2930 C   0  0  0  0  0  0  0  0  0  0  0  0
   57.4778   32.8056   48.9428 H   0  0  0  0  0  0  0  0  0  0  0  0
   57.7791   31.3894   47.8513 H   0  0  0  0  0  0  0  0  0  0  0  0
   59.3700   31.9160   49.0950 N   0  0  0  0  0  0  0  0  0  0  0  0
   60.4520   31.3600   48.6310 C   0  0  0  0  0  0  0  0  0  0  0  0
   60.4370   29.9850   48.2250 N   0  0  0  0  0  0  0  0  0  0  0  0
   61.3090   29.5460   47.8530 H   0  0  0  0  0  0  0  0  0  0  0  0
   59.2990   29.1800   48.3840 C   0  0  0  0  0  0  0  0  0  0  0  0
   58.3590   28.5170   48.5170 N   0  0  0  0  0  0  0  0  0  0  0  0
   61.6770   32.1030   48.5270 N   0  0  0  0  0  0  0  0  0  0  0  0
   62.6160   31.7800   47.4860 C   0  0  0  0  0  0  0  0  0  0  0  0
   62.4400   30.7680   46.7540 O   0  0  0  0  0  0  0  0  0  0  0  0
   63.7830   32.5910   47.3070 N   0  0  0  0  0  0  0  0  0  0  0  0
   64.5370   32.2770   46.6560 H   0  0  0  0  0  0  0  0  0  0  0  0
   63.9210   33.8680   48.0020 C   0  0  0  0  0  0  0  0  0  0  0  0
   63.4392   34.6580   47.4072 H   0  0  0  0  0  0  0  0  0  0  0  0
   64.9907   34.0898   48.1305 H   0  0  0  0  0  0  0  0  0  0  0  0
   63.2590   33.8010   49.3820 C   0  0  0  0  0  0  0  0  0  0  0  0
   63.3088   34.7913   49.8582 H   0  0  0  0  0  0  0  0  0  0  0  0
   63.7890   33.0619   50.0007 H   0  0  0  0  0  0  0  0  0  0  0  0
   61.7920   33.3790   49.2410 C   0  0  0  0  0  0  0  0  0  0  0  0
   61.2471   34.1541   48.6820 H   0  0  0  0  0  0  0  0  0  0  0  0
   61.3649   33.2565   50.2473 H   0  0  0  0  0  0  0  0  0  0  0  0
   57.1030   26.3730   45.4550 C   0  0  0  0  0  0  0  0  0  0  0  0
   56.8593   26.9562   44.5547 H   0  0  0  0  0  0  0  0  0  0  0  0
   56.0780   25.7420   46.1700 C   0  0  0  0  0  0  0  0  0  0  0  0
   54.7590   25.8940   45.7170 O   0  0  0  0  0  0  0  0  0  0  0  0
   53.8960   24.8140   45.3820 C   0  0  0  0  0  0  0  0  0  0  0  0
   53.5211   24.3448   46.3036 H   0  0  0  0  0  0  0  0  0  0  0  0
   53.0481   25.1917   44.7917 H   0  0  0  0  0  0  0  0  0  0  0  0
   54.4514   24.0703   44.7917 H   0  0  0  0  0  0  0  0  0  0  0  0
   56.4000   24.9890   47.3150 C   0  0  0  0  0  0  0  0  0  0  0  0
   55.6045   24.4772   47.8765 H   0  0  0  0  0  0  0  0  0  0  0  0
  1  2  1  0
  2  3  2  0
  3  4  1  0
  3  5  1  0
  5  6  1  0
  6  7  1  0
  7  8  2  0
  7  9  1  0
  9 10  1  0
  9 11  1  0
  9 12  1  0
 12 13  1  0
 13 14  2  0
 13 15  2  0
 13 16  1  0
 16 17  2  0
 17 18  1  0
 17 19  1  0
 19 20  1  0
 19 21  2  0
 21 22  1  0
 21 23  1  0
 23 24  1  0
 23 25  2  0
 25 26  1  0
 26 27  1  0
 26 28  1  0
 26 29  1  0
 29 30  2  0
 30 31  1  0
 31 32  1  0
 31 33  1  0
 33 34  3  0
 30 35  1  0
 35 36  1  0
 36 37  2  0
 36 38  1  0
 38 39  1  0
 38 40  1  0
 40 41  1  0
 40 42  1  0
 40 43  1  0
 43 44  1  0
 43 45  1  0
 43 46  1  0
 46 47  1  0
 46 48  1  0
  5 49  2  0
 49 50  1  0
 49 51  1  0
 51 52  1  0
 52 53  1  0
 53 54  1  0
 53 55  1  0
 53 56  1  0
 51 57  2  0
 57 58  1  0
 57  2  1  0
 25 16  1  0
 46 35  1  0
M  CHG  1  12  -1
M  END
>  <UniqueID>  (4) 
4

>  <SMILES>  (4) 
COc1cccc(OC(=O)C[N-]S(=O)(=O)c2ccccc2C/N=C(/NC#N)N2CCCNC2=O)c1

>  <Energy>  (4) 
61.38191093563716

>  <Genealogy>  (4) 
COc1cccc(OC(=O)C[N-]S(=O)(=O)c2ccccc2CN=C(NC#N)N2CCCNC2=O)c1 (protonated)
COc1cccc(OC(=O)C[N-]S(=O)(=O)c2ccccc2C/N=C(/NC#N)N2CCCNC2=O)c1 (cis-trans isomerization)
COc1cccc(OC(=O)C[N-]S(=O)(=O)c2ccccc2C/N=C(/NC#N)N2CCCNC2=O)c1 (3D coordinates assigned)
COc1cccc(OC(=O)C[N-]S(=O)(=O)c2ccccc2C/N=C(/NC#N)N2CCCNC2=O)c1 (nonaromatic ring conformer: 61.38191093563716 kcal/mol)

>  <smiles>  (4) 
COc1cccc(OC(=O)CNS(=O)(=O)c2ccccc2CN=C(NC#N)N2CCCNC2=O)c1

>  <score_type>  (4) 
oracle

>  <origin>  (4) 
adg

>  <m_score__min__energy>  (4) 
-10.220000000000001

>  <m_primary>  (4) 
energy

$$$$
4:0
     RDKit          3D

 61 63  0  0  0  0  0  0  0  0999 V2000
   63.8890   31.5910   50.3690 C   0  0  0  0  0  0  0  0  0  0  0  0
   64.5590   32.7540   49.9280 O   0  0  0  0  0  0  0  0  0  0  0  0
   63.9530   33.9060   50.4860 C   0  0  0  0  0  0  0  0  0  0  0  0
   62.4460   33.8090   50.4410 C   0  0  0  0  0  0  0  0  0  0  0  0
   61.8050   33.8150   51.5280 O   0  0  0  0  0  0  0  0  0  0  0  0
   61.7310   33.7470   49.1840 N   0  0  0  0  0  0  0  0  0  0  0  0
   62.4750   33.5790   47.9230 C   0  0  0  0  0  0  0  0  0  0  0  0
   61.5450   33.3680   46.7250 C   0  0  0  0  0  0  0  0  0  0  0  0
   60.4410   34.4380   46.7120 C   0  0  0  0  0  0  0  0  0  0  0  0
   59.5670   34.2910   45.5830 O   0  0  0  0  0  0  0  0  0  0  0  0
   58.7700   33.1810   45.2450 C   0  0  0  0  0  0  0  0  0  0  0  0
   58.5970   32.1840   46.2130 C   0  0  0  0  0  0  0  0  0  0  0  0
   57.7720   31.0820   45.9650 C   0  0  0  0  0  0  0  0  0  0  0  0
   57.1010   30.9650   44.7380 C   0  0  0  0  0  0  0  0  0  0  0  0
   56.1880   29.8280   44.4980 C   0  0  0  0  0  0  0  0  0  0  0  0
   55.2660   29.9520   43.6490 O   0  0  0  0  0  0  0  0  0  0  0  0
   56.3240   28.5760   45.1880 N   0  0  0  0  0  0  0  0  0  0  0  0
   57.4610   27.6650   45.0740 C   0  0  0  0  0  0  0  0  0  0  0  0
   57.9410   27.2460   46.4650 C   0  0  0  0  0  0  0  0  0  0  0  0
   58.8400   28.3010   47.0540 C   0  0  0  0  0  0  0  0  0  0  0  0
   59.9770   28.7330   46.3540 C   0  0  0  0  0  0  0  0  0  0  0  0
   60.7880   29.7420   46.8820 C   0  0  0  0  0  0  0  0  0  0  0  0
   60.4650   30.3320   48.1070 C   0  0  0  0  0  0  0  0  0  0  0  0
   59.3260   29.9190   48.8100 C   0  0  0  0  0  0  0  0  0  0  0  0
   58.9350   30.6740   50.3540 S   0  0  0  0  0  0  0  0  0  0  0  0
   60.3910   31.0590   51.2020 N   0  0  0  0  0  0  0  0  0  0  0  0
   58.1440   31.9280   50.1100 O   0  0  0  0  0  0  0  0  0  0  0  0
   58.1170   29.7360   51.1970 O   0  0  0  0  0  0  0  0  0  0  0  0
   58.5120   28.9080   48.2780 C   0  0  0  0  0  0  0  0  0  0  0  0
   57.3230   31.9260   43.7430 C   0  0  0  0  0  0  0  0  0  0  0  0
   58.1460   33.0280   43.9940 C   0  0  0  0  0  0  0  0  0  0  0  0
   59.6660   34.5550   48.0460 C   0  0  0  0  0  0  0  0  0  0  0  0
   60.2570   33.7010   49.1810 C   0  0  0  0  0  0  0  0  0  0  0  0
   63.8767   31.5697   51.4687 H   0  0  0  0  0  0  0  0  0  0  0  0
   62.8561   31.5972   49.9908 H   0  0  0  0  0  0  0  0  0  0  0  0
   64.4126   30.7006   49.9908 H   0  0  0  0  0  0  0  0  0  0  0  0
   64.2745   34.0087   51.5330 H   0  0  0  0  0  0  0  0  0  0  0  0
   64.2626   34.7816   49.8965 H   0  0  0  0  0  0  0  0  0  0  0  0
   63.0807   34.4801   47.7466 H   0  0  0  0  0  0  0  0  0  0  0  0
   63.1069   32.6840   48.0210 H   0  0  0  0  0  0  0  0  0  0  0  0
   62.1290   33.4378   45.7955 H   0  0  0  0  0  0  0  0  0  0  0  0
   61.0796   32.3744   46.8037 H   0  0  0  0  0  0  0  0  0  0  0  0
   60.9625   35.4000   46.6001 H   0  0  0  0  0  0  0  0  0  0  0  0
   59.1157   32.2684   47.1793 H   0  0  0  0  0  0  0  0  0  0  0  0
   57.6488   30.3050   46.7338 H   0  0  0  0  0  0  0  0  0  0  0  0
   57.1559   26.7713   44.5100 H   0  0  0  0  0  0  0  0  0  0  0  0
   58.2812   28.1770   44.5494 H   0  0  0  0  0  0  0  0  0  0  0  0
   57.0695   27.1057   47.1214 H   0  0  0  0  0  0  0  0  0  0  0  0
   58.5059   26.3062   46.3777 H   0  0  0  0  0  0  0  0  0  0  0  0
   60.2311   28.2760   45.3862 H   0  0  0  0  0  0  0  0  0  0  0  0
   61.6818   30.0720   46.3323 H   0  0  0  0  0  0  0  0  0  0  0  0
   61.1074   31.1234   48.5205 H   0  0  0  0  0  0  0  0  0  0  0  0
   61.1850   30.7040   50.6240 H   0  0  0  0  0  0  0  0  0  0  0  0
   60.4710   32.1000   51.2180 H   0  0  0  0  0  0  0  0  0  0  0  0
   57.6112   28.5884   48.8225 H   0  0  0  0  0  0  0  0  0  0  0  0
   56.8467   31.8128   42.7579 H   0  0  0  0  0  0  0  0  0  0  0  0
   58.3065   33.7804   43.2077 H   0  0  0  0  0  0  0  0  0  0  0  0
   59.6763   35.6084   48.3625 H   0  0  0  0  0  0  0  0  0  0  0  0
   58.6477   34.1828   47.8601 H   0  0  0  0  0  0  0  0  0  0  0  0
   59.8860   34.0813   50.1442 H   0  0  0  0  0  0  0  0  0  0  0  0
   59.9457   32.6577   49.0244 H   0  0  0  0  0  0  0  0  0  0  0  0
  1  2  1  0
  2  3  1  0
  3  4  1  0
  4  5  2  0
  4  6  1  0
  6  7  1  0
  7  8  1  0
  8  9  1  0
  9 10  1  0
 10 11  1  0
 11 12  2  0
 12 13  1  0
 13 14  2  0
 14 15  1  0
 15 16  2  0
 15 17  1  0
 17 18  1  0
 18 19  1  0
 19 20  1  0
 20 21  2  0
 21 22  1  0
 22 23  2  0
 23 24  1  0
 24 25  1  0
 25 26  1  0
 25 27  2  0
 25 28  2  0
 24 29  2  0
 14 30  1  0
 30 31  2  0
  9 32  1  0
 32 33  1  0
 33  6  1  0
 31 11  1  0
 29 20  1  0
  1 34  1  0
  1 35  1  0
  1 36  1  0
  3 37  1  0
  3 38  1  0
  7 39  1  0
  7 40  1  0
  8 41  1  0
  8 42  1  0
  9 43  1  0
 12 44  1  0
 13 45  1  0
 18 46  1  0
 18 47  1  0
 19 48  1  0
 19 49  1  0
 21 50  1  0
 22 51  1  0
 23 52  1  0
 26 53  1  0
 26 54  1  0
 29 55  1  0
 30 56  1  0
 31 57  1  0
 32 58  1  0
 32 59  1  0
 33 60  1  0
 33 61  1  0
M  CHG  1  17  -1
M  END
>  <UniqueID>  (5) 
5

>  <SMILES>  (5) 
COCC(=O)N1CCC(Oc2ccc(C(=O)[N-]CCc3cccc(S(N)(=O)=O)c3)cc2)CC1

>  <Energy>  (5) 
68.4840872828468

>  <Genealogy>  (5) 
COCC(=O)N1CCC(Oc2ccc(C(=O)[N-]CCc3cccc(S(N)(=O)=O)c3)cc2)CC1 (protonated)
COCC(=O)N1CCC(Oc2ccc(C(=O)[N-]CCc3cccc(S(N)(=O)=O)c3)cc2)CC1 (3D coordinates assigned)
COCC(=O)N1CCC(Oc2ccc(C(=O)[N-]CCc3cccc(S(N)(=O)=O)c3)cc2)CC1 (nonaromatic ring conformer: 68.4840872828468 kcal/mol)

>  <smiles>  (5) 
COCC(=O)N1CCC(Oc2ccc(C(=O)NCCc3cccc(S(N)(=O)=O)c3)cc2)CC1

>  <score_type>  (5) 
oracle

>  <origin>  (5) 
adg

>  <m_score__min__energy>  (5) 
-10.48

>  <m_primary>  (5) 
energy

$$$$
5:0
     RDKit          3D

 54 56  0  0  0  0  0  0  0  0999 V2000
   54.2320   28.3810   53.7160 C   0  0  0  0  0  0  0  0  0  0  0  0
   54.6420   29.5440   53.1860 C   0  0  0  0  0  0  0  0  0  0  0  0
   53.8660   30.4520   52.4430 C   0  0  0  0  0  0  0  0  0  0  0  0
   52.5400   30.5020   52.2070 C   0  0  0  0  0  0  0  0  0  0  0  0
   51.9060   30.8940   50.9370 C   0  0  0  0  0  0  0  0  0  0  0  0
   51.7850   30.0950   49.8620 N   0  0  0  0  0  0  0  0  0  0  0  0
   51.0320   30.8280   49.0130 C   0  0  0  0  0  0  0  0  0  0  0  0
   50.7090   30.4180   47.8670 O   0  0  0  0  0  0  0  0  0  0  0  0
   50.6400   32.0270   49.4930 N   0  0  0  0  0  0  0  0  0  0  0  0
   51.1900   32.0450   50.7180 C   0  0  0  0  0  0  0  0  0  0  0  0
   51.0330   33.0900   51.6200 O   0  0  0  0  0  0  0  0  0  0  0  0
   54.7420   31.4080   51.9620 C   0  0  0  0  0  0  0  0  0  0  0  0
   55.9870   31.0970   52.4620 C   0  0  0  0  0  0  0  0  0  0  0  0
   57.2100   31.8530   52.1390 C   0  0  0  0  0  0  0  0  0  0  0  0
   57.2310   33.0910   52.3790 O   0  0  0  0  0  0  0  0  0  0  0  0
   58.3420   31.2160   51.5070 N   0  0  0  0  0  0  0  0  0  0  0  0
   58.1440   29.9520   50.7840 C   0  0  0  0  0  0  0  0  0  0  0  0
   59.4370   29.4880   50.1020 C   0  0  0  0  0  0  0  0  0  0  0  0
   60.6090   29.6720   50.9790 N   0  0  0  0  0  0  0  0  0  0  0  0
   60.5590   28.7940   52.1620 C   0  0  0  0  0  0  0  0  0  0  0  0
   60.8340   31.0890   51.3530 C   0  0  0  0  0  0  0  0  0  0  0  0
   59.5750   31.9820   51.2820 C   0  0  0  0  0  0  0  0  0  0  0  0
   55.9340   29.9720   53.2110 N   0  0  0  0  0  0  0  0  0  0  0  0
   57.0430   29.3980   53.9270 C   0  0  0  0  0  0  0  0  0  0  0  0
   57.6960   28.4410   53.4300 O   0  0  0  0  0  0  0  0  0  0  0  0
   57.4080   29.9200   55.2080 N   0  0  0  0  0  0  0  0  0  0  0  0
   58.5940   30.7420   55.4180 C   0  0  0  0  0  0  0  0  0  0  0  0
   58.2030   32.2210   55.4990 C   0  0  0  0  0  0  0  0  0  0  0  0
   59.1860   33.1460   54.7650 C   0  0  0  0  0  0  0  0  0  0  0  0
   60.5550   32.4980   54.5590 C   0  0  0  0  0  0  0  0  0  0  0  0
   54.9384   27.7543   54.2801 H   0  0  0  0  0  0  0  0  0  0  0  0
   53.1896   28.0546   53.5862 H   0  0  0  0  0  0  0  0  0  0  0  0
   51.8723   30.2256   53.0364 H   0  0  0  0  0  0  0  0  0  0  0  0
   54.4922   32.2547   51.3057 H   0  0  0  0  0  0  0  0  0  0  0  0
   57.8182   29.1797   51.4963 H   0  0  0  0  0  0  0  0  0  0  0  0
   57.3821   30.1136   50.0073 H   0  0  0  0  0  0  0  0  0  0  0  0
   59.3443   28.4215   49.8488 H   0  0  0  0  0  0  0  0  0  0  0  0
   59.5857   30.0948   49.1967 H   0  0  0  0  0  0  0  0  0  0  0  0
   60.5939   29.4066   53.0750 H   0  0  0  0  0  0  0  0  0  0  0  0
   59.6262   28.2112   52.1469 H   0  0  0  0  0  0  0  0  0  0  0  0
   61.4196   28.1091   52.1469 H   0  0  0  0  0  0  0  0  0  0  0  0
   61.2151   31.1150   52.3846 H   0  0  0  0  0  0  0  0  0  0  0  0
   61.5455   31.4953   50.6191 H   0  0  0  0  0  0  0  0  0  0  0  0
   59.6516   32.7651   52.0507 H   0  0  0  0  0  0  0  0  0  0  0  0
   59.5245   32.4174   50.2731 H   0  0  0  0  0  0  0  0  0  0  0  0
   59.0821   30.4429   56.3573 H   0  0  0  0  0  0  0  0  0  0  0  0
   59.2851   30.5984   54.5743 H   0  0  0  0  0  0  0  0  0  0  0  0
   57.2057   32.3444   55.0515 H   0  0  0  0  0  0  0  0  0  0  0  0
   58.2161   32.5057   56.5614 H   0  0  0  0  0  0  0  0  0  0  0  0
   58.7642   33.4001   53.7814 H   0  0  0  0  0  0  0  0  0  0  0  0
   59.3299   34.0422   55.3864 H   0  0  0  0  0  0  0  0  0  0  0  0
   61.0097   32.2828   55.5372 H   0  0  0  0  0  0  0  0  0  0  0  0
   60.4360   31.5607   53.9958 H   0  0  0  0  0  0  0  0  0  0  0  0
   61.2045   33.1843   53.9958 H   0  0  0  0  0  0  0  0  0  0  0  0
  1  2  2  0
  2  3  1  0
  3  4  2  3
  4  5  1  0
  5  6  1  0
  6  7  1  0
  7  8  2  0
  7  9  1  0
  9 10  1  0
 10 11  1  0
  3 12  1  0
 12 13  2  0
 13 14  1  0
 14 15  2  0
 14 16  1  0
 16 17  1  0
 17 18  1  0
 18 19  1  0
 19 20  1  0
 19 21  1  0
 21 22  1  0
 13 23  1  0
 23 24  1  0
 24 25  2  0
 24 26  1  0
 26 27  1  0
 27 28  1  0
 28 29  1  0
 29 30  1  0
 23  2  1  0
 10  5  2  0
 22 16  1  0
  1 31  1  0
  1 32  1  0
  4 33  1  0
 12 34  1  0
 17 35  1  0
 17 36  1  0
 18 37  1  0
 18 38  1  0
 20 39  1  0
 20 40  1  0
 20 41  1  0
 21 42  1  0
 21 43  1  0
 22 44  1  0
 22 45  1  0
 27 46  1  0
 27 47  1  0
 28 48  1  0
 28 49  1  0
 29 50  1  0
 29 51  1  0
 30 52  1  0
 30 53  1  0
 30 54  1  0
M  CHG  4   6  -1   9  -1  11  -1  26  -1
M  END
>  <UniqueID>  (6) 
6

>  <SMILES>  (6) 
C=c1c(=Cc2[n-]c(=O)[n-]c2[O-])cc(C(=O)N2CCN(C)CC2)n1C(=O)[N-]CCCC

>  <Energy>  (6) 
131.59867333613462

>  <Genealogy>  (6) 
C=c1c(=Cc2[n-]c(=O)[n-]c2[O-])cc(C(=O)N2CCN(C)CC2)n1C(=O)[N-]CCCC (protonated)
C=c1c(=Cc2[n-]c(=O)[n-]c2[O-])cc(C(=O)N2CCN(C)CC2)n1C(=O)[N-]CCCC (3D coordinates assigned)
C=c1c(=Cc2[n-]c(=O)[n-]c2[O-])cc(C(=O)N2CCN(C)CC2)n1C(=O)[N-]CCCC (nonaromatic ring conformer: 131.59867333613462 kcal/mol)

>  <smiles>  (6) 
C=c1c(=Cc2[nH]c(=O)[nH]c2O)cc(C(=O)N2CCN(C)CC2)n1C(=O)NCCCC

>  <score_type>  (6) 
oracle

>  <origin>  (6) 
adg

>  <m_score__min__energy>  (6) 
-16.350000000000001

>  <m_primary>  (6) 
energy

$$$$
6:0
     RDKit          3D

 48 51  0  0  0  0  0  0  0  0999 V2000
   55.5230   28.8630   44.8870 O   0  0  0  0  0  0  0  0  0  0  0  0
   56.6530   28.4610   45.2770 C   0  0  0  0  0  0  0  0  0  0  0  0
   57.7810   29.3480   45.1880 N   0  0  0  0  0  0  0  0  0  0  0  0
   57.7790   30.5020   44.3310 C   0  0  0  0  0  0  0  0  0  0  0  0
   57.0370   30.4660   43.1400 C   0  0  0  0  0  0  0  0  0  0  0  0
   57.0470   31.5570   42.2670 C   0  0  0  0  0  0  0  0  0  0  0  0
   57.7910   32.6960   42.5800 C   0  0  0  0  0  0  0  0  0  0  0  0
   58.5120   32.7560   43.7730 C   0  0  0  0  0  0  0  0  0  0  0  0
   58.5030   31.6700   44.6620 C   0  0  0  0  0  0  0  0  0  0  0  0
   59.1700   31.7850   45.9270 N   0  0  0  0  0  0  0  0  0  0  0  0
   58.7700   32.8180   46.8800 C   0  0  0  0  0  0  0  0  0  0  0  0
   59.9350   33.2250   47.7390 C   0  0  0  0  0  0  0  0  0  0  0  0
   61.0440   32.4700   47.8830 C   0  0  0  0  0  0  0  0  0  0  0  0
   62.1470   32.9370   48.7670 C   0  0  0  0  0  0  0  0  0  0  0  0
   61.8820   33.7710   49.8710 C   0  0  0  0  0  0  0  0  0  0  0  0
   62.9240   34.2130   50.6920 C   0  0  0  0  0  0  0  0  0  0  0  0
   64.2390   33.8290   50.4240 C   0  0  0  0  0  0  0  0  0  0  0  0
   64.5150   32.9960   49.3380 C   0  0  0  0  0  0  0  0  0  0  0  0
   63.4770   32.5470   48.5160 C   0  0  0  0  0  0  0  0  0  0  0  0
   61.2470   31.2030   47.0700 C   0  0  0  0  0  0  0  0  0  0  0  0
   59.9600   30.6690   46.4390 C   0  0  0  0  0  0  0  0  0  0  0  0
   56.7840   27.0870   45.8300 C   0  0  0  0  0  0  0  0  0  0  0  0
   58.0440   26.5970   46.2160 C   0  0  0  0  0  0  0  0  0  0  0  0
   58.1690   25.3220   46.7700 C   0  0  0  0  0  0  0  0  0  0  0  0
   57.0280   24.5380   46.9400 C   0  0  0  0  0  0  0  0  0  0  0  0
   57.1210   23.3870   47.4420 O   0  0  0  0  0  0  0  0  0  0  0  0
   55.8130   25.0190   46.5720 N   0  0  0  0  0  0  0  0  0  0  0  0
   55.6640   26.2570   46.0290 C   0  0  0  0  0  0  0  0  0  0  0  0
   58.5150   29.2980   45.9280 H   0  0  0  0  0  0  0  0  0  0  0  0
   56.4439   29.5733   42.8924 H   0  0  0  0  0  0  0  0  0  0  0  0
   56.4682   31.5183   41.3324 H   0  0  0  0  0  0  0  0  0  0  0  0
   57.8088   33.5481   41.8845 H   0  0  0  0  0  0  0  0  0  0  0  0
   59.0904   33.6590   44.0180 H   0  0  0  0  0  0  0  0  0  0  0  0
   58.4032   33.6962   46.3285 H   0  0  0  0  0  0  0  0  0  0  0  0
   57.9760   32.4159   47.5265 H   0  0  0  0  0  0  0  0  0  0  0  0
   59.8806   34.1838   48.2755 H   0  0  0  0  0  0  0  0  0  0  0  0
   60.8480   34.0767   50.0887 H   0  0  0  0  0  0  0  0  0  0  0  0
   62.7070   34.8648   51.5511 H   0  0  0  0  0  0  0  0  0  0  0  0
   65.0575   34.1825   51.0682 H   0  0  0  0  0  0  0  0  0  0  0  0
   65.5513   32.6923   49.1287 H   0  0  0  0  0  0  0  0  0  0  0  0
   63.7006   31.8843   47.6670 H   0  0  0  0  0  0  0  0  0  0  0  0
   61.9661   31.4172   46.2656 H   0  0  0  0  0  0  0  0  0  0  0  0
   61.6124   30.4300   47.7621 H   0  0  0  0  0  0  0  0  0  0  0  0
   60.2118   29.9883   45.6124 H   0  0  0  0  0  0  0  0  0  0  0  0
   59.3779   30.1250   47.1974 H   0  0  0  0  0  0  0  0  0  0  0  0
   58.9381   27.2232   46.0804 H   0  0  0  0  0  0  0  0  0  0  0  0
   59.1561   24.9398   47.0691 H   0  0  0  0  0  0  0  0  0  0  0  0
   54.6627   26.6120   45.7436 H   0  0  0  0  0  0  0  0  0  0  0  0
  1  2  2  0
  2  3  1  0
  3  4  1  0
  4  5  2  0
  5  6  1  0
  6  7  2  0
  7  8  1  0
  8  9  2  0
  9 10  1  0
 10 11  1  0
 11 12  1  0
 12 13  2  0
 13 14  1  0
 14 15  2  0
 15 16  1  0
 16 17  2  0
 17 18  1  0
 18 19  2  0
 13 20  1  0
 20 21  1  0
  2 22  1  0
 22 23  1  0
 23 24  2  0
 24 25  1  0
 25 26  2  0
 25 27  1  0
 27 28  1  0
  9  4  1  0
 21 10  1  0
 28 22  2  0
 19 14  1  0
  3 29  1  0
  5 30  1  0
  6 31  1  0
  7 32  1  0
  8 33  1  0
 11 34  1  0
 11 35  1  0
 12 36  1  0
 15 37  1  0
 16 38  1  0
 17 39  1  0
 18 40  1  0
 19 41  1  0
 20 42  1  0
 20 43  1  0
 21 44  1  0
 21 45  1  0
 23 46  1  0
 24 47  1  0
 28 48  1  0
M  CHG  1  27  -1
M  END
>  <UniqueID>  (7) 
7

>  <SMILES>  (7) 
O=C(Nc1ccccc1N1CC=C(c2ccccc2)CC1)c1ccc(=O)[n-]c1

>  <Energy>  (7) 
66.90659426723246

>  <Genealogy>  (7) 
O=C(Nc1ccccc1N1CC=C(c2ccccc2)CC1)c1ccc(=O)[n-]c1 (protonated)
O=C(Nc1ccccc1N1CC=C(c2ccccc2)CC1)c1ccc(=O)[n-]c1 (3D coordinates assigned)
O=C(Nc1ccccc1N1CC=C(c2ccccc2)CC1)c1ccc(=O)[n-]c1 (nonaromatic ring conformer: 66.90659426723246 kcal/mol)

>  <smiles>  (7) 
O=C(Nc1ccccc1N1CC=C(c2ccccc2)CC1)c1ccc(=O)[nH]c1

>  <score_type>  (7) 
oracle

>  <origin>  (7) 
adg

>  <m_score__min__energy>  (7) 
-10.880000000000001

>  <m_primary>  (7) 
energy

$$$$
7:0
     RDKit          3D

 52 55  0  0  0  0  0  0  0  0999 V2000
   56.6684   31.0940   44.0446 H   0  0  0  0  0  0  0  0  0  0  0  0
   56.9020   30.0370   44.2400 C   0  0  0  0  0  0  0  0  0  0  0  0
   56.4516   29.2500   43.6173 H   0  0  0  0  0  0  0  0  0  0  0  0
   57.7380   29.7070   45.2400 C   0  0  0  0  0  0  0  0  0  0  0  0
   58.1230   28.4120   45.6010 C   0  0  0  0  0  0  0  0  0  0  0  0
   57.6900   27.2480   45.0740 C   0  0  0  0  0  0  0  0  0  0  0  0
   57.7270   27.1301   43.9810 H   0  0  0  0  0  0  0  0  0  0  0  0
   57.1700   26.1240   45.8750 C   0  0  0  0  0  0  0  0  0  0  0  0
   57.9580   25.1870   46.4280 N   0  0  0  0  0  0  0  0  0  0  0  0
   57.0960   24.4210   47.1280 C   0  0  0  0  0  0  0  0  0  0  0  0
   57.4620   23.4110   47.7830 O   0  0  0  0  0  0  0  0  0  0  0  0
   55.8080   24.8240   47.0760 N   0  0  0  0  0  0  0  0  0  0  0  0
   55.8730   25.9100   46.2890 C   0  0  0  0  0  0  0  0  0  0  0  0
   54.7750   26.7110   45.9990 O   0  0  0  0  0  0  0  0  0  0  0  0
   59.0100   28.5520   46.6550 C   0  0  0  0  0  0  0  0  0  0  0  0
   59.5101   27.7394   47.2023 H   0  0  0  0  0  0  0  0  0  0  0  0
   59.1470   29.9060   46.8880 C   0  0  0  0  0  0  0  0  0  0  0  0
   60.0810   30.4630   47.8880 C   0  0  0  0  0  0  0  0  0  0  0  0
   61.3200   30.4720   47.6630 O   0  0  0  0  0  0  0  0  0  0  0  0
   59.5910   30.8900   49.1670 N   0  0  0  0  0  0  0  0  0  0  0  0
   58.5240   31.8990   49.2420 C   0  0  0  0  0  0  0  0  0  0  0  0
   58.9337   32.8754   48.9440 H   0  0  0  0  0  0  0  0  0  0  0  0
   57.7113   31.5928   48.5668 H   0  0  0  0  0  0  0  0  0  0  0  0
   57.9540   32.0100   50.6620 C   0  0  0  0  0  0  0  0  0  0  0  0
   58.6505   32.5850   51.2899 H   0  0  0  0  0  0  0  0  0  0  0  0
   56.9801   32.5198   50.6206 H   0  0  0  0  0  0  0  0  0  0  0  0
   57.7720   30.6690   51.2390 N   0  0  0  0  0  0  0  0  0  0  0  0
   56.5900   30.3650   52.0080 C   0  0  0  0  0  0  0  0  0  0  0  0
   56.6700   29.5310   53.1360 C   0  0  0  0  0  0  0  0  0  0  0  0
   57.6410   29.1107   53.4368 H   0  0  0  0  0  0  0  0  0  0  0  0
   55.5250   29.2320   53.8780 C   0  0  0  0  0  0  0  0  0  0  0  0
   55.5996   28.5897   54.7679 H   0  0  0  0  0  0  0  0  0  0  0  0
   54.2860   29.7470   53.4920 C   0  0  0  0  0  0  0  0  0  0  0  0
   53.3869   29.5091   54.0794 H   0  0  0  0  0  0  0  0  0  0  0  0
   54.1830   30.5660   52.3590 C   0  0  0  0  0  0  0  0  0  0  0  0
   52.8510   31.1350   51.9680 C   0  0  0  0  0  0  0  0  0  0  0  0
   52.2769   31.3802   52.8737 H   0  0  0  0  0  0  0  0  0  0  0  0
   53.0026   32.0469   51.3718 H   0  0  0  0  0  0  0  0  0  0  0  0
   52.2969   30.3950   51.3718 H   0  0  0  0  0  0  0  0  0  0  0  0
   55.3390   30.8840   51.6270 C   0  0  0  0  0  0  0  0  0  0  0  0
   55.2656   31.5435   50.7497 H   0  0  0  0  0  0  0  0  0  0  0  0
   58.8560   29.6760   51.1540 C   0  0  0  0  0  0  0  0  0  0  0  0
   59.1747   29.4074   52.1720 H   0  0  0  0  0  0  0  0  0  0  0  0
   58.4745   28.7953   50.6166 H   0  0  0  0  0  0  0  0  0  0  0  0
   60.0610   30.2220   50.3840 C   0  0  0  0  0  0  0  0  0  0  0  0
   60.6042   30.9425   51.0131 H   0  0  0  0  0  0  0  0  0  0  0  0
   60.7346   29.3948   50.1157 H   0  0  0  0  0  0  0  0  0  0  0  0
   58.3580   30.6130   46.0390 N   0  0  0  0  0  0  0  0  0  0  0  0
   58.1810   32.0690   46.0050 C   0  0  0  0  0  0  0  0  0  0  0  0
   58.1339   32.4567   47.0333 H   0  0  0  0  0  0  0  0  0  0  0  0
   59.0298   32.5293   45.4781 H   0  0  0  0  0  0  0  0  0  0  0  0
   57.2466   32.3126   45.4781 H   0  0  0  0  0  0  0  0  0  0  0  0
  1  2  1  0
  2  3  1  0
  2  4  2  0
  4  5  1  0
  5  6  2  0
  6  7  1  0
  6  8  1  0
  8  9  1  0
  9 10  1  0
 10 11  2  0
 10 12  1  0
 12 13  1  0
 13 14  1  0
  5 15  1  0
 15 16  1  0
 15 17  2  0
 17 18  1  0
 18 19  2  0
 18 20  1  0
 20 21  1  0
 21 22  1  0
 21 23  1  0
 21 24  1  0
 24 25  1  0
 24 26  1  0
 24 27  1  0
 27 28  1  0
 28 29  2  0
 29 30  1  0
 29 31  1  0
 31 32  1  0
 31 33  2  0
 33 34  1  0
 33 35  1  0
 35 36  1  0
 36 37  1  0
 36 38  1  0
 36 39  1  0
 35 40  2  0
 40 41  1  0
 27 42  1  0
 42 43  1  0
 42 44  1  0
 42 45  1  0
 45 46  1  0
 45 47  1  0
 17 48  1  0
 48 49  1  0
 49 50  1  0
 49 51  1  0
 49 52  1  0
 48  4  1  0
 13  8  2  0
 45 20  1  0
 40 28  1  0
M  CHG  3   9  -1  12  -1  14  -1
M  END
>  <UniqueID>  (8) 
8

>  <SMILES>  (8) 
C=c1/c(=C/c2[n-]c(=O)[n-]c2[O-])cc(C(=O)N2CCN(c3cccc(C)c3)CC2)n1C

>  <Energy>  (8) 
128.38909404002166

>  <Genealogy>  (8) 
C=c1c(=Cc2[n-]c(=O)[n-]c2[O-])cc(C(=O)N2CCN(c3cccc(C)c3)CC2)n1C (protonated)
C=c1/c(=C/c2[n-]c(=O)[n-]c2[O-])cc(C(=O)N2CCN(c3cccc(C)c3)CC2)n1C (cis-trans isomerization)
C=c1/c(=C/c2[n-]c(=O)[n-]c2[O-])cc(C(=O)N2CCN(c3cccc(C)c3)CC2)n1C (3D coordinates assigned)
C=c1/c(=C/c2[n-]c(=O)[n-]c2[O-])cc(C(=O)N2CCN(c3cccc(C)c3)CC2)n1C (nonaromatic ring conformer: 128.38909404002166 kcal/mol)

>  <smiles>  (8) 
C=c1c(=Cc2[nH]c(=O)[nH]c2O)cc(C(=O)N2CCN(c3cccc(C)c3)CC2)n1C

>  <score_type>  (8) 
oracle

>  <origin>  (8) 
adg

>  <m_score__min__energy>  (8) 
-18.420000000000002

>  <m_primary>  (8) 
energy

$$$$
8:0
     RDKit          3D

 42 44  0  0  0  0  0  0  0  0999 V2000
   54.8150   26.3440   45.9810 N   0  0  0  0  0  0  0  0  0  0  0  0
   56.2290   25.3540   45.9140 S   0  0  0  0  0  0  0  0  0  0  0  0
   56.0580   24.3100   44.8470 O   0  0  0  0  0  0  0  0  0  0  0  0
   56.4210   24.6630   47.2350 O   0  0  0  0  0  0  0  0  0  0  0  0
   57.6300   26.3550   45.5500 C   0  0  0  0  0  0  0  0  0  0  0  0
   57.7890   26.9030   44.2700 C   0  0  0  0  0  0  0  0  0  0  0  0
   58.8940   27.7100   43.9860 C   0  0  0  0  0  0  0  0  0  0  0  0
   59.8370   27.9860   44.9800 C   0  0  0  0  0  0  0  0  0  0  0  0
   59.6730   27.4660   46.2740 C   0  0  0  0  0  0  0  0  0  0  0  0
   60.6780   27.7740   47.3530 C   0  0  0  0  0  0  0  0  0  0  0  0
   60.1380   29.1730   48.4000 S   0  0  0  0  0  0  0  0  0  0  0  0
   59.6400   30.2240   47.0350 C   0  0  0  0  0  0  0  0  0  0  0  0
   60.5180   30.8610   46.3940 O   0  0  0  0  0  0  0  0  0  0  0  0
   58.2540   30.3450   46.6960 N   0  0  0  0  0  0  0  0  0  0  0  0
   57.7440   31.3310   45.7360 C   0  0  2  0  0  0  0  0  0  0  0  0
   58.0340   30.8320   44.3060 C   0  0  0  0  0  0  0  0  0  0  0  0
   57.7530   31.9350   43.2860 C   0  0  0  0  0  0  0  0  0  0  0  0
   58.5310   33.0900   43.5900 O   0  0  0  0  0  0  0  0  0  0  0  0
   58.7240   33.5220   44.9070 C   0  0  0  0  0  0  0  0  0  0  0  0
   59.2880   34.7810   45.1410 C   0  0  0  0  0  0  0  0  0  0  0  0
   59.4520   35.2440   46.4500 C   0  0  0  0  0  0  0  0  0  0  0  0
   59.0450   34.4520   47.5270 C   0  0  0  0  0  0  0  0  0  0  0  0
   58.4920   33.1890   47.3000 C   0  0  0  0  0  0  0  0  0  0  0  0
   58.3610   32.6940   45.9910 C   0  0  0  0  0  0  0  0  0  0  0  0
   58.5770   26.6310   46.5460 C   0  0  0  0  0  0  0  0  0  0  0  0
   55.1380   27.3370   46.0040 H   0  0  0  0  0  0  0  0  0  0  0  0
   57.0432   26.6977   43.4880 H   0  0  0  0  0  0  0  0  0  0  0  0
   59.0220   28.1293   42.9771 H   0  0  0  0  0  0  0  0  0  0  0  0
   60.7107   28.6127   44.7478 H   0  0  0  0  0  0  0  0  0  0  0  0
   60.8058   26.8835   47.9859 H   0  0  0  0  0  0  0  0  0  0  0  0
   61.6259   28.0530   46.8696 H   0  0  0  0  0  0  0  0  0  0  0  0
   57.5800   29.6780   47.1370 H   0  0  0  0  0  0  0  0  0  0  0  0
   56.6565   31.4434   45.8574 H   0  0  0  0  0  0  0  0  0  0  0  0
   59.0902   30.5333   44.2342 H   0  0  0  0  0  0  0  0  0  0  0  0
   57.3812   29.9734   44.0899 H   0  0  0  0  0  0  0  0  0  0  0  0
   58.0130   31.5752   42.2795 H   0  0  0  0  0  0  0  0  0  0  0  0
   56.6857   32.1984   43.3239 H   0  0  0  0  0  0  0  0  0  0  0  0
   59.6029   35.4076   44.2935 H   0  0  0  0  0  0  0  0  0  0  0  0
   59.9013   36.2314   46.6321 H   0  0  0  0  0  0  0  0  0  0  0  0
   59.1602   34.8237   48.5559 H   0  0  0  0  0  0  0  0  0  0  0  0
   58.1570   32.5781   48.1513 H   0  0  0  0  0  0  0  0  0  0  0  0
   58.4609   26.1906   47.5473 H   0  0  0  0  0  0  0  0  0  0  0  0
  1  2  1  0
  2  3  2  0
  2  4  2  0
  2  5  1  0
  5  6  2  0
  6  7  1  0
  7  8  2  0
  8  9  1  0
  9 10  1  0
 10 11  1  0
 11 12  1  0
 12 13  2  0
 12 14  1  0
 14 15  1  0
 15 16  1  0
 16 17  1  0
 17 18  1  0
 18 19  1  0
 19 20  2  0
 20 21  1  0
 21 22  2  0
 22 23  1  0
 23 24  2  0
  9 25  2  0
 25  5  1  0
 24 15  1  0
 24 19  1  0
  1 26  1  0
  6 27  1  0
  7 28  1  0
  8 29  1  0
 10 30  1  0
 10 31  1  0
 14 32  1  0
 15 33  1  6
 16 34  1  0
 16 35  1  0
 17 36  1  0
 17 37  1  0
 20 38  1  0
 21 39  1  0
 22 40  1  0
 23 41  1  0
 25 42  1  0
M  CHG  1   1  -1
M  END
>  <UniqueID>  (9) 
9

>  <SMILES>  (9) 
[NH-]S(=O)(=O)c1cccc(CSC(=O)N[C@@H]2CCOc3ccccc32)c1

>  <Energy>  (9) 
36.744572948908306

>  <Genealogy>  (9) 
[NH-]S(=O)(=O)c1cccc(CSC(=O)NC2CCOc3ccccc32)c1 (protonated)
[NH-]S(=O)(=O)c1cccc(CSC(=O)N[C@@H]2CCOc3ccccc32)c1 (chirality)
[NH-]S(=O)(=O)c1cccc(CSC(=O)N[C@@H]2CCOc3ccccc32)c1 (3D coordinates assigned)
[NH-]S(=O)(=O)c1cccc(CSC(=O)N[C@@H]2CCOc3ccccc32)c1 (nonaromatic ring conformer: 36.744572948908306 kcal/mol)

>  <smiles>  (9) 
NS(=O)(=O)c1cccc(CSC(=O)NC2CCOc3ccccc32)c1

>  <score_type>  (9) 
oracle

>  <origin>  (9) 
adg

>  <m_score__min__energy>  (9) 
-11.9

>  <m_primary>  (9) 
energy

$$$$
9:0
     RDKit          3D

 65 69  0  0  0  0  0  0  0  0999 V2000
   53.4400   28.0020   53.2630 C   0  0  0  0  0  0  0  0  0  0  0  0
   54.2860   29.0480   53.3570 C   0  0  0  0  0  0  0  0  0  0  0  0
   55.6070   28.8590   53.8640 C   0  0  0  0  0  0  0  0  0  0  0  0
   56.0380   27.6500   54.6680 C   0  0  0  0  0  0  0  0  0  0  0  0
   57.3480   27.1040   54.1510 C   0  0  0  0  0  0  0  0  0  0  0  0
   58.4420   27.9520   53.9290 C   0  0  0  0  0  0  0  0  0  0  0  0
   59.6060   27.4530   53.4360 N   0  0  0  0  0  0  0  0  0  0  0  0
   59.7350   26.1320   53.1530 C   0  0  0  0  0  0  0  0  0  0  0  0
   61.1420   25.5620   52.5560 S   0  0  0  0  0  0  0  0  0  0  0  0
   58.6960   25.2860   53.3690 N   0  0  0  0  0  0  0  0  0  0  0  0
   57.5130   25.7370   53.8600 C   0  0  0  0  0  0  0  0  0  0  0  0
   56.5760   24.9200   54.0570 O   0  0  0  0  0  0  0  0  0  0  0  0
   56.5490   29.8140   53.6460 N   0  0  0  0  0  0  0  0  0  0  0  0
   56.3000   30.9600   52.9640 C   0  0  0  0  0  0  0  0  0  0  0  0
   57.3690   31.9080   52.7430 N   0  0  0  0  0  0  0  0  0  0  0  0
   58.3580   31.4630   51.7250 C   0  0  2  0  0  0  0  0  0  0  0  0
   57.9750   30.0890   51.1180 C   0  0  0  0  0  0  0  0  0  0  0  0
   59.7980   31.4090   52.2860 C   0  0  0  0  0  0  0  0  0  0  0  0
   60.7040   31.7730   51.1180 C   0  0  0  0  0  0  0  0  0  0  0  0
   59.8620   32.5180   50.1980 N   0  0  0  0  0  0  0  0  0  0  0  0
   60.3740   33.1480   49.0100 C   0  0  0  0  0  0  0  0  0  0  0  0
   60.8700   34.3050   49.0890 O   0  0  0  0  0  0  0  0  0  0  0  0
   60.3880   32.4320   47.6840 C   0  0  0  0  0  0  0  0  0  0  0  0
   59.4940   33.1230   46.6880 C   0  0  0  0  0  0  0  0  0  0  0  0
   58.1700   32.6880   46.5080 C   0  0  0  0  0  0  0  0  0  0  0  0
   57.3300   33.3440   45.6040 C   0  0  0  0  0  0  0  0  0  0  0  0
   57.8010   34.4440   44.8800 C   0  0  0  0  0  0  0  0  0  0  0  0
   59.1130   34.8890   45.0630 C   0  0  0  0  0  0  0  0  0  0  0  0
   59.9570   34.2360   45.9660 C   0  0  0  0  0  0  0  0  0  0  0  0
   58.4600   32.5040   50.5900 C   0  0  0  0  0  0  0  0  0  0  0  0
   55.0020   31.2220   52.5160 C   0  0  0  0  0  0  0  0  0  0  0  0
   53.9550   30.3270   52.8020 C   0  0  0  0  0  0  0  0  0  0  0  0
   52.6950   30.7670   52.5490 C   0  0  0  0  0  0  0  0  0  0  0  0
   52.1020   30.9750   51.2110 C   0  0  0  0  0  0  0  0  0  0  0  0
   52.1250   30.0770   50.2070 N   0  0  0  0  0  0  0  0  0  0  0  0
   51.3740   30.6620   49.2490 C   0  0  0  0  0  0  0  0  0  0  0  0
   51.1690   30.1270   48.1280 O   0  0  0  0  0  0  0  0  0  0  0  0
   50.8560   31.8610   49.5870 N   0  0  0  0  0  0  0  0  0  0  0  0
   51.3170   32.0370   50.8370 C   0  0  0  0  0  0  0  0  0  0  0  0
   51.0230   33.1460   51.6200 O   0  0  0  0  0  0  0  0  0  0  0  0
   52.4227   28.1508   52.8719 H   0  0  0  0  0  0  0  0  0  0  0  0
   53.7672   27.0000   53.5774 H   0  0  0  0  0  0  0  0  0  0  0  0
   56.1591   27.9416   55.7217 H   0  0  0  0  0  0  0  0  0  0  0  0
   55.2681   26.8700   54.5738 H   0  0  0  0  0  0  0  0  0  0  0  0
   58.3580   29.0253   54.1547 H   0  0  0  0  0  0  0  0  0  0  0  0
   56.9420   32.8130   52.4310 H   0  0  0  0  0  0  0  0  0  0  0  0
   57.8490   32.1030   53.6540 H   0  0  0  0  0  0  0  0  0  0  0  0
   57.7754   29.3728   51.9287 H   0  0  0  0  0  0  0  0  0  0  0  0
   57.0738   30.2008   50.4973 H   0  0  0  0  0  0  0  0  0  0  0  0
   58.8041   29.7184   50.4973 H   0  0  0  0  0  0  0  0  0  0  0  0
   59.9185   32.1324   53.1058 H   0  0  0  0  0  0  0  0  0  0  0  0
   60.0392   30.4170   52.6956 H   0  0  0  0  0  0  0  0  0  0  0  0
   61.5441   32.3947   51.4611 H   0  0  0  0  0  0  0  0  0  0  0  0
   61.1408   30.8815   50.6442 H   0  0  0  0  0  0  0  0  0  0  0  0
   61.4165   32.4168   47.2942 H   0  0  0  0  0  0  0  0  0  0  0  0
   60.0180   31.4072   47.8351 H   0  0  0  0  0  0  0  0  0  0  0  0
   57.7933   31.8278   47.0808 H   0  0  0  0  0  0  0  0  0  0  0  0
   56.2967   32.9946   45.4617 H   0  0  0  0  0  0  0  0  0  0  0  0
   57.1395   34.9583   44.1673 H   0  0  0  0  0  0  0  0  0  0  0  0
   59.4826   35.7554   44.4950 H   0  0  0  0  0  0  0  0  0  0  0  0
   60.9867   34.5945   46.1118 H   0  0  0  0  0  0  0  0  0  0  0  0
   58.1519   33.4966   50.9503 H   0  0  0  0  0  0  0  0  0  0  0  0
   57.8030   32.2510   49.7448 H   0  0  0  0  0  0  0  0  0  0  0  0
   54.7979   32.1341   51.9360 H   0  0  0  0  0  0  0  0  0  0  0  0
   52.0584   30.9885   53.4183 H   0  0  0  0  0  0  0  0  0  0  0  0
  1  2  2  0
  2  3  1  0
  3  4  1  0
  4  5  1  0
  5  6  2  0
  6  7  1  0
  7  8  1  0
  8  9  2  0
  8 10  1  0
 10 11  1  0
 11 12  2  0
  3 13  2  0
 13 14  1  0
 14 15  1  0
 15 16  1  0
 16 17  1  6
 16 18  1  0
 18 19  1  0
 19 20  1  0
 20 21  1  0
 21 22  2  0
 21 23  1  0
 23 24  1  0
 24 25  2  0
 25 26  1  0
 26 27  2  0
 27 28  1  0
 28 29  2  0
 20 30  1  0
 14 31  2  0
 31 32  1  0
 32 33  2  3
 33 34  1  0
 34 35  1  0
 35 36  1  0
 36 37  2  0
 36 38  1  0
 38 39  1  0
 39 40  1  0
 32  2  1  0
 39 34  2  0
 11  5  1  0
 30 16  1  0
 29 24  1  0
  1 41  1  0
  1 42  1  0
  4 43  1  0
  4 44  1  0
  6 45  1  0
 15 46  1  0
 15 47  1  0
 17 48  1  0
 17 49  1  0
 17 50  1  0
 18 51  1  0
 18 52  1  0
 19 53  1  0
 19 54  1  0
 23 55  1  0
 23 56  1  0
 25 57  1  0
 26 58  1  0
 27 59  1  0
 28 60  1  0
 29 61  1  0
 30 62  1  0
 30 63  1  0
 31 64  1  0
 33 65  1  0
M  CHG  6   7  -1  10  -1  15   1  35  -1  38  -1  40  -1
M  END
>  <UniqueID>  (10) 
10

>  <SMILES>  (10) 
C=c1c(Cc2c[n-]c(=S)[n-]c2=O)nc([NH2+][C@]2(C)CCN(C(=O)Cc3ccccc3)C2)cc1=Cc1[n-]c(=O)[n-]c1[O-]

>  <Energy>  (10) 
128.06133018354703

>  <Genealogy>  (10) 
C=c1c(Cc2c[n-]c(=S)[n-]c2=O)nc([NH2+]C2(C)CCN(C(=O)Cc3ccccc3)C2)cc1=Cc1[n-]c(=O)[n-]c1[O-] (protonated)
C=c1c(Cc2c[n-]c(=S)[n-]c2=O)nc([NH2+][C@]2(C)CCN(C(=O)Cc3ccccc3)C2)cc1=Cc1[n-]c(=O)[n-]c1[O-] (chirality)
C=c1c(Cc2c[n-]c(=S)[n-]c2=O)nc([NH2+][C@]2(C)CCN(C(=O)Cc3ccccc3)C2)cc1=Cc1[n-]c(=O)[n-]c1[O-] (3D coordinates assigned)
C=c1c(Cc2c[n-]c(=S)[n-]c2=O)nc([NH2+][C@]2(C)CCN(C(=O)Cc3ccccc3)C2)cc1=Cc1[n-]c(=O)[n-]c1[O-] (nonaromatic ring conformer: 128.06133018354703 kcal/mol)

>  <smiles>  (10) 
C=c1c(Cc2c[nH]c(=S)[nH]c2=O)nc(NC2(C)CCN(C(=O)Cc3ccccc3)C2)cc1=Cc1[nH]c(=O)[nH]c1O

>  <score_type>  (10) 
oracle

>  <origin>  (10) 
adg

>  <m_score__min__energy>  (10) 
-19.219999999999999

>  <m_primary>  (10) 
energy

$$$$
10:0
     RDKit          3D

 52 55  0  0  0  0  0  0  0  0999 V2000
   60.9945   27.4034   48.2091 H   0  0  0  0  0  0  0  0  0  0  0  0
   60.2090   27.3360   47.4420 C   0  0  0  0  0  0  0  0  0  0  0  0
   60.1079   26.4228   46.8371 H   0  0  0  0  0  0  0  0  0  0  0  0
   59.3740   28.3680   47.2440 C   0  0  0  0  0  0  0  0  0  0  0  0
   58.3270   28.4400   46.3120 C   0  0  0  0  0  0  0  0  0  0  0  0
   57.7340   27.4840   45.5720 C   0  0  0  0  0  0  0  0  0  0  0  0
   57.6296   27.6750   44.4937 H   0  0  0  0  0  0  0  0  0  0  0  0
   57.2130   26.2040   46.0830 C   0  0  0  0  0  0  0  0  0  0  0  0
   57.9710   25.2050   46.5690 N   0  0  0  0  0  0  0  0  0  0  0  0
   57.0620   24.3170   47.0270 C   0  0  0  0  0  0  0  0  0  0  0  0
   57.3890   23.2200   47.5490 O   0  0  0  0  0  0  0  0  0  0  0  0
   55.7750   24.7010   46.8900 N   0  0  0  0  0  0  0  0  0  0  0  0
   55.8910   25.9040   46.3050 C   0  0  0  0  0  0  0  0  0  0  0  0
   54.8080   26.7140   45.9840 O   0  0  0  0  0  0  0  0  0  0  0  0
   57.9320   29.7670   46.2770 C   0  0  0  0  0  0  0  0  0  0  0  0
   57.1692   30.2072   45.6179 H   0  0  0  0  0  0  0  0  0  0  0  0
   58.6780   30.4290   47.2260 C   0  0  0  0  0  0  0  0  0  0  0  0
   58.5430   31.8590   47.5330 C   0  0  0  0  0  0  0  0  0  0  0  0
   58.2980   32.2060   48.7180 O   0  0  0  0  0  0  0  0  0  0  0  0
   58.7050   32.8560   46.5060 N   0  0  0  0  0  0  0  0  0  0  0  0
   57.9340   32.8690   45.2720 C   0  0  0  0  0  0  0  0  0  0  0  0
   58.0977   31.9391   44.7076 H   0  0  0  0  0  0  0  0  0  0  0  0
   56.8541   32.9412   45.4686 H   0  0  0  0  0  0  0  0  0  0  0  0
   58.4430   34.0670   44.4810 C   0  0  0  0  0  0  0  0  0  0  0  0
   59.1249   33.7385   43.6828 H   0  0  0  0  0  0  0  0  0  0  0  0
   57.6207   34.6140   43.9966 H   0  0  0  0  0  0  0  0  0  0  0  0
   59.1850   34.9400   45.4900 C   0  0  0  0  0  0  0  0  0  0  0  0
   60.0693   35.3989   45.0238 H   0  0  0  0  0  0  0  0  0  0  0  0
   58.5537   35.7615   45.8596 H   0  0  0  0  0  0  0  0  0  0  0  0
   59.6060   33.9950   46.6210 C   0  0  2  0  0  0  0  0  0  0  0  0
   59.5463   34.4909   47.6011 H   0  0  0  0  0  0  0  0  0  0  0  0
   61.0700   33.5340   46.4660 C   0  0  0  0  0  0  0  0  0  0  0  0
   61.1477   32.8688   45.5934 H   0  0  0  0  0  0  0  0  0  0  0  0
   61.7056   34.4214   46.3301 H   0  0  0  0  0  0  0  0  0  0  0  0
   61.5250   32.8060   47.6730 N   0  0  0  0  0  0  0  0  0  0  0  0
   62.8060   32.1100   47.4450 C   0  0  0  0  0  0  0  0  0  0  0  0
   62.7566   31.0950   47.8662 H   0  0  0  0  0  0  0  0  0  0  0  0
   63.0083   32.0381   46.3661 H   0  0  0  0  0  0  0  0  0  0  0  0
   63.9170   32.8990   48.1330 C   0  0  0  0  0  0  0  0  0  0  0  0
   64.4033   32.2839   48.9045 H   0  0  0  0  0  0  0  0  0  0  0  0
   64.6997   33.2028   47.4223 H   0  0  0  0  0  0  0  0  0  0  0  0
   63.2390   34.0950   48.7620 C   0  0  0  0  0  0  0  0  0  0  0  0
   63.6191   34.2671   49.7798 H   0  0  0  0  0  0  0  0  0  0  0  0
   63.4238   35.0238   48.2024 H   0  0  0  0  0  0  0  0  0  0  0  0
   61.7710   33.7230   48.7940 C   0  0  0  0  0  0  0  0  0  0  0  0
   61.5297   33.2267   49.7455 H   0  0  0  0  0  0  0  0  0  0  0  0
   61.1412   34.6206   48.7066 H   0  0  0  0  0  0  0  0  0  0  0  0
   59.5470   29.5830   47.8250 N   0  0  0  0  0  0  0  0  0  0  0  0
   60.5910   29.9550   48.7880 C   0  0  0  0  0  0  0  0  0  0  0  0
   60.2110   29.8196   49.8113 H   0  0  0  0  0  0  0  0  0  0  0  0
   61.4736   29.3160   48.6371 H   0  0  0  0  0  0  0  0  0  0  0  0
   60.8706   31.0081   48.6371 H   0  0  0  0  0  0  0  0  0  0  0  0
  1  2  1  0
  2  3  1  0
  2  4  2  0
  4  5  1  0
  5  6  2  0
  6  7  1  0
  6  8  1  0
  8  9  1  0
  9 10  1  0
 10 11  2  0
 10 12  1  0
 12 13  1  0
 13 14  1  0
  5 15  1  0
 15 16  1  0
 15 17  2  0
 17 18  1  0
 18 19  2  0
 18 20  1  0
 20 21  1  0
 21 22  1  0
 21 23  1  0
 21 24  1  0
 24 25  1  0
 24 26  1  0
 24 27  1  0
 27 28  1  0
 27 29  1  0
 27 30  1  0
 30 31  1  1
 30 32  1  0
 32 33  1  0
 32 34  1  0
 32 35  1  0
 35 36  1  0
 36 37  1  0
 36 38  1  0
 36 39  1  0
 39 40  1  0
 39 41  1  0
 39 42  1  0
 42 43  1  0
 42 44  1  0
 42 45  1  0
 45 46  1  0
 45 47  1  0
 17 48  1  0
 48 49  1  0
 49 50  1  0
 49 51  1  0
 49 52  1  0
 48  4  1  0
 13  8  2  0
 30 20  1  0
 45 35  1  0
M  CHG  3   9  -1  12  -1  14  -1
M  END
>  <UniqueID>  (11) 
11

>  <SMILES>  (11) 
C=c1/c(=C\c2[n-]c(=O)[n-]c2[O-])cc(C(=O)N2CCC[C@@H]2CN2CCCC2)n1C

>  <Energy>  (11) 
130.8657550194398

>  <Genealogy>  (11) 
C=c1c(=Cc2[n-]c(=O)[n-]c2[O-])cc(C(=O)N2CCCC2CN2CCCC2)n1C (protonated)
C=c1c(=Cc2[n-]c(=O)[n-]c2[O-])cc(C(=O)N2CCC[C@@H]2CN2CCCC2)n1C (chirality)
C=c1/c(=C\c2[n-]c(=O)[n-]c2[O-])cc(C(=O)N2CCC[C@@H]2CN2CCCC2)n1C (cis-trans isomerization)
C=c1/c(=C\c2[n-]c(=O)[n-]c2[O-])cc(C(=O)N2CCC[C@@H]2CN2CCCC2)n1C (3D coordinates assigned)
C=c1/c(=C\c2[n-]c(=O)[n-]c2[O-])cc(C(=O)N2CCC[C@@H]2CN2CCCC2)n1C (nonaromatic ring conformer: 130.8657550194398 kcal/mol)

>  <smiles>  (11) 
C=c1c(=Cc2[nH]c(=O)[nH]c2O)cc(C(=O)N2CCCC2CN2CCCC2)n1C

>  <score_type>  (11) 
oracle

>  <origin>  (11) 
adg

>  <m_score__min__energy>  (11) 
-18.059999999999999

>  <m_primary>  (11) 
energy

$$$$
11:0
     RDKit          3D

 52 55  0  0  0  0  0  0  0  0999 V2000
   64.0790   33.0900   47.1260 C   0  0  0  0  0  0  0  0  0  0  0  0
   62.7030   33.6170   47.3620 C   0  0  0  0  0  0  0  0  0  0  0  0
   61.9260   34.1580   46.4000 N   0  0  0  0  0  0  0  0  0  0  0  0
   60.7790   34.5090   46.9640 N   0  0  0  0  0  0  0  0  0  0  0  0
   59.6500   35.0480   46.2090 C   0  0  0  0  0  0  0  0  0  0  0  0
   58.7450   33.9310   45.7960 C   0  0  0  0  0  0  0  0  0  0  0  0
   57.4680   34.0650   45.2860 C   0  0  0  0  0  0  0  0  0  0  0  0
   57.0180   32.7790   45.0690 C   0  0  0  0  0  0  0  0  0  0  0  0
   58.0510   31.9470   45.4610 C   0  0  0  0  0  0  0  0  0  0  0  0
   58.0370   30.4740   45.4370 C   0  0  0  0  0  0  0  0  0  0  0  0
   56.9420   29.8790   45.2400 O   0  0  0  0  0  0  0  0  0  0  0  0
   59.2580   29.7300   45.6920 N   0  0  0  0  0  0  0  0  0  0  0  0
   59.1440   28.8630   46.8730 C   0  0  0  0  0  0  0  0  0  0  0  0
   58.0780   27.7840   46.6910 C   0  0  0  0  0  0  0  0  0  0  0  0
   58.1030   27.1380   45.3640 N   0  0  0  0  0  0  0  0  0  0  0  0
   57.2340   25.9860   45.1270 C   0  0  0  0  0  0  0  0  0  0  0  0
   57.4240   25.1380   44.0080 C   0  0  0  0  0  0  0  0  0  0  0  0
   56.5880   24.0400   43.7860 C   0  0  0  0  0  0  0  0  0  0  0  0
   55.5440   23.7620   44.6660 C   0  0  0  0  0  0  0  0  0  0  0  0
   55.3320   24.5810   45.7730 C   0  0  0  0  0  0  0  0  0  0  0  0
   56.1630   25.6800   46.0040 C   0  0  0  0  0  0  0  0  0  0  0  0
   58.8750   27.6950   44.2280 C   0  0  0  0  0  0  0  0  0  0  0  0
   59.7310   28.9430   44.5410 C   0  0  0  0  0  0  0  0  0  0  0  0
   59.0680   32.6620   45.8830 O   0  0  0  0  0  0  0  0  0  0  0  0
   60.7960   34.1810   48.2760 C   0  0  0  0  0  0  0  0  0  0  0  0
   59.6590   34.3900   49.2300 C   0  0  0  0  0  0  0  0  0  0  0  0
   62.0230   33.6150   48.5650 C   0  0  0  0  0  0  0  0  0  0  0  0
   62.5920   32.9990   50.1080 Cl  0  0  0  0  0  0  0  0  0  0  0  0
   64.5703   32.9018   48.0921 H   0  0  0  0  0  0  0  0  0  0  0  0
   64.0193   32.1511   46.5560 H   0  0  0  0  0  0  0  0  0  0  0  0
   64.6618   33.8286   46.5560 H   0  0  0  0  0  0  0  0  0  0  0  0
   59.0929   35.7569   46.8392 H   0  0  0  0  0  0  0  0  0  0  0  0
   60.0230   35.5667   45.3136 H   0  0  0  0  0  0  0  0  0  0  0  0
   56.9238   35.0013   45.0932 H   0  0  0  0  0  0  0  0  0  0  0  0
   56.0394   32.4775   44.6671 H   0  0  0  0  0  0  0  0  0  0  0  0
   60.0100   30.4320   45.8960 H   0  0  0  0  0  0  0  0  0  0  0  0
   60.1144   28.3768   47.0514 H   0  0  0  0  0  0  0  0  0  0  0  0
   58.8497   29.4902   47.7274 H   0  0  0  0  0  0  0  0  0  0  0  0
   58.2345   27.0096   47.4564 H   0  0  0  0  0  0  0  0  0  0  0  0
   57.1010   28.2803   46.7868 H   0  0  0  0  0  0  0  0  0  0  0  0
   58.2421   25.3470   43.3030 H   0  0  0  0  0  0  0  0  0  0  0  0
   56.7550   23.3924   42.9126 H   0  0  0  0  0  0  0  0  0  0  0  0
   54.8882   22.8972   44.4870 H   0  0  0  0  0  0  0  0  0  0  0  0
   54.5076   24.3616   46.4674 H   0  0  0  0  0  0  0  0  0  0  0  0
   55.9832   26.3188   46.8813 H   0  0  0  0  0  0  0  0  0  0  0  0
   59.5492   26.9074   43.8603 H   0  0  0  0  0  0  0  0  0  0  0  0
   58.1264   28.0244   43.4924 H   0  0  0  0  0  0  0  0  0  0  0  0
   60.7591   28.6120   44.7494 H   0  0  0  0  0  0  0  0  0  0  0  0
   59.6629   29.5999   43.6613 H   0  0  0  0  0  0  0  0  0  0  0  0
   60.0301   34.3218   50.2633 H   0  0  0  0  0  0  0  0  0  0  0  0
   59.2186   35.3841   49.0634 H   0  0  0  0  0  0  0  0  0  0  0  0
   58.8939   33.6175   49.0634 H   0  0  0  0  0  0  0  0  0  0  0  0
  1  2  1  0
  2  3  2  0
  3  4  1  0
  4  5  1  0
  5  6  1  0
  6  7  2  0
  7  8  1  0
  8  9  2  0
  9 10  1  0
 10 11  2  0
 10 12  1  0
 12 13  1  0
 13 14  1  0
 14 15  1  0
 15 16  1  0
 16 17  2  0
 17 18  1  0
 18 19  2  0
 19 20  1  0
 20 21  2  0
 15 22  1  0
 22 23  1  0
  9 24  1  0
  4 25  1  0
 25 26  1  0
 25 27  2  0
 27 28  1  0
 27  2  1  0
 24  6  1  0
 23 12  1  0
 21 16  1  0
  1 29  1  0
  1 30  1  0
  1 31  1  0
  5 32  1  0
  5 33  1  0
  7 34  1  0
  8 35  1  0
 12 36  1  0
 13 37  1  0
 13 38  1  0
 14 39  1  0
 14 40  1  0
 17 41  1  0
 18 42  1  0
 19 43  1  0
 20 44  1  0
 21 45  1  0
 22 46  1  0
 22 47  1  0
 23 48  1  0
 23 49  1  0
 26 50  1  0
 26 51  1  0
 26 52  1  0
M  CHG  1  12   1
M  END
>  <UniqueID>  (12) 
12

>  <SMILES>  (12) 
Cc1nn(Cc2ccc(C(=O)[NH+]3CCN(c4ccccc4)CC3)o2)c(C)c1Cl

>  <Energy>  (12) 
120.20710427291736

>  <Genealogy>  (12) 
Cc1nn(Cc2ccc(C(=O)[NH+]3CCN(c4ccccc4)CC3)o2)c(C)c1Cl (protonated)
Cc1nn(Cc2ccc(C(=O)[NH+]3CCN(c4ccccc4)CC3)o2)c(C)c1Cl (3D coordinates assigned)
Cc1nn(Cc2ccc(C(=O)[NH+]3CCN(c4ccccc4)CC3)o2)c(C)c1Cl (nonaromatic ring conformer: 120.20710427291736 kcal/mol)

>  <smiles>  (12) 
Cc1nn(Cc2ccc(C(=O)N3CCN(c4ccccc4)CC3)o2)c(C)c1Cl

>  <score_type>  (12) 
oracle

>  <origin>  (12) 
adg

>  <m_score__min__energy>  (12) 
-7.6100000000000003

>  <m_primary>  (12) 
energy

$$$$
12:0
     RDKit          3D

 51 55  0  0  0  0  0  0  0  0999 V2000
   56.3950   30.8560   43.7080 C   0  0  0  0  0  0  0  0  0  0  0  0
   56.7970   29.8280   44.4460 C   0  0  0  0  0  0  0  0  0  0  0  0
   55.9650   28.7940   44.8710 O   0  0  0  0  0  0  0  0  0  0  0  0
   56.7540   27.9170   45.6150 C   0  0  0  0  0  0  0  0  0  0  0  0
   56.3310   26.7420   46.2300 C   0  0  0  0  0  0  0  0  0  0  0  0
   55.0020   26.3360   46.1380 O   0  0  0  0  0  0  0  0  0  0  0  0
   57.2800   25.9840   46.9410 C   0  0  0  0  0  0  0  0  0  0  0  0
   58.6200   26.4120   47.0240 C   0  0  0  0  0  0  0  0  0  0  0  0
   59.0370   27.6060   46.3970 C   0  0  0  0  0  0  0  0  0  0  0  0
   60.4660   28.0730   46.5010 C   0  0  0  0  0  0  0  0  0  0  0  0
   60.6380   28.9740   47.6590 N   0  0  0  0  0  0  0  0  0  0  0  0
   60.7970   30.3960   47.2530 C   0  0  0  0  0  0  0  0  0  0  0  0
   59.5100   31.2140   47.4550 C   0  0  0  0  0  0  0  0  0  0  0  0
   59.0450   31.1970   48.8650 N   0  0  0  0  0  0  0  0  0  0  0  0
   59.4760   32.4080   49.5940 C   0  0  0  0  0  0  0  0  0  0  0  0
   60.9510   32.6520   49.4100 C   0  0  0  0  0  0  0  0  0  0  0  0
   61.4140   33.5350   48.4010 C   0  0  0  0  0  0  0  0  0  0  0  0
   62.7940   33.7420   48.2130 C   0  0  0  0  0  0  0  0  0  0  0  0
   63.6730   33.0510   49.0400 C   0  0  0  0  0  0  0  0  0  0  0  0
   63.2370   32.2000   50.0030 C   0  0  0  0  0  0  0  0  0  0  0  0
   61.8830   31.9680   50.2230 C   0  0  0  0  0  0  0  0  0  0  0  0
   64.3210   31.6570   50.6630 O   0  0  0  0  0  0  0  0  0  0  0  0
   65.5140   32.2000   50.0790 C   0  0  0  0  0  0  0  0  0  0  0  0
   65.0540   33.0840   49.0470 O   0  0  0  0  0  0  0  0  0  0  0  0
   59.4290   29.9600   49.5930 C   0  0  0  0  0  0  0  0  0  0  0  0
   59.5500   28.7630   48.6440 C   0  0  0  0  0  0  0  0  0  0  0  0
   58.0690   28.3380   45.6940 C   0  0  0  0  0  0  0  0  0  0  0  0
   58.1480   29.5830   44.9420 C   0  0  0  0  0  0  0  0  0  0  0  0
   59.1660   30.2990   44.7500 O   0  0  0  0  0  0  0  0  0  0  0  0
   57.1134   31.6345   43.4116 H   0  0  0  0  0  0  0  0  0  0  0  0
   55.3436   30.9291   43.3930 H   0  0  0  0  0  0  0  0  0  0  0  0
   54.2930   26.7080   46.7590 H   0  0  0  0  0  0  0  0  0  0  0  0
   56.9734   25.0505   47.4356 H   0  0  0  0  0  0  0  0  0  0  0  0
   59.3496   25.8086   47.5839 H   0  0  0  0  0  0  0  0  0  0  0  0
   61.1234   27.1995   46.6224 H   0  0  0  0  0  0  0  0  0  0  0  0
   60.7262   28.6221   45.5840 H   0  0  0  0  0  0  0  0  0  0  0  0
   61.5997   30.8470   47.8549 H   0  0  0  0  0  0  0  0  0  0  0  0
   61.0382   30.4121   46.1799 H   0  0  0  0  0  0  0  0  0  0  0  0
   59.7032   32.2557   47.1591 H   0  0  0  0  0  0  0  0  0  0  0  0
   58.7225   30.7592   46.8362 H   0  0  0  0  0  0  0  0  0  0  0  0
   58.9175   33.2755   49.2125 H   0  0  0  0  0  0  0  0  0  0  0  0
   59.2758   32.2620   50.6657 H   0  0  0  0  0  0  0  0  0  0  0  0
   60.6903   34.0614   47.7613 H   0  0  0  0  0  0  0  0  0  0  0  0
   63.1648   34.4280   47.4372 H   0  0  0  0  0  0  0  0  0  0  0  0
   61.5477   31.2727   51.0066 H   0  0  0  0  0  0  0  0  0  0  0  0
   66.0952   32.7534   50.8313 H   0  0  0  0  0  0  0  0  0  0  0  0
   66.1754   31.4143   49.6850 H   0  0  0  0  0  0  0  0  0  0  0  0
   60.3978   30.1229   50.0878 H   0  0  0  0  0  0  0  0  0  0  0  0
   58.6443   29.7368   50.3309 H   0  0  0  0  0  0  0  0  0  0  0  0
   59.7669   27.8586   49.2314 H   0  0  0  0  0  0  0  0  0  0  0  0
   58.6010   28.6501   48.0993 H   0  0  0  0  0  0  0  0  0  0  0  0
  1  2  2  0
  2  3  1  0
  3  4  1  0
  4  5  2  0
  5  6  1  0
  5  7  1  0
  7  8  2  0
  8  9  1  0
  9 10  1  0
 10 11  1  0
 11 12  1  0
 12 13  1  0
 13 14  1  0
 14 15  1  0
 15 16  1  0
 16 17  2  0
 17 18  1  0
 18 19  2  0
 19 20  1  0
 20 21  2  0
 20 22  1  0
 22 23  1  0
 23 24  1  0
 14 25  1  0
 25 26  1  0
  9 27  2  0
 27 28  1  0
 28 29  2  0
 28  2  1  0
 27  4  1  0
 26 11  1  0
 21 16  1  0
 24 19  1  0
  1 30  1  0
  1 31  1  0
  6 32  1  0
  7 33  1  0
  8 34  1  0
 10 35  1  0
 10 36  1  0
 12 37  1  0
 12 38  1  0
 13 39  1  0
 13 40  1  0
 15 41  1  0
 15 42  1  0
 17 43  1  0
 18 44  1  0
 21 45  1  0
 23 46  1  0
 23 47  1  0
 25 48  1  0
 25 49  1  0
 26 50  1  0
 26 51  1  0
M  END
>  <UniqueID>  (13) 
13

>  <SMILES>  (13) 
C=C1Oc2c(O)ccc(CN3CCN(Cc4ccc5c(c4)OCO5)CC3)c2C1=O

>  <Energy>  (13) 
126.44025264991326

>  <Genealogy>  (13) 
C=C1Oc2c(O)ccc(CN3CCN(Cc4ccc5c(c4)OCO5)CC3)c2C1=O (3D coordinates assigned)
C=C1Oc2c(O)ccc(CN3CCN(Cc4ccc5c(c4)OCO5)CC3)c2C1=O (nonaromatic ring conformer: 126.44025264991326 kcal/mol)

>  <smiles>  (13) 
C=C1Oc2c(O)ccc(CN3CCN(Cc4ccc5c(c4)OCO5)CC3)c2C1=O

>  <score_type>  (13) 
oracle

>  <origin>  (13) 
adg

>  <m_score__min__energy>  (13) 
-9.3399999999999999

>  <m_primary>  (13) 
energy

$$$$
13:0
     RDKit          3D

 63 65  0  0  0  0  0  0  0  0999 V2000
   53.7910   28.5820   44.1080 H   0  0  0  0  0  0  0  0  0  0  0  0
   54.3870   29.2960   43.7100 O   0  0  0  0  0  0  0  0  0  0  0  0
   55.6370   29.6050   44.2480 C   0  0  0  0  0  0  0  0  0  0  0  0
   56.2950   30.7580   43.8130 C   0  0  0  0  0  0  0  0  0  0  0  0
   55.8159   31.4110   43.0686 H   0  0  0  0  0  0  0  0  0  0  0  0
   57.5590   31.0900   44.3160 C   0  0  0  0  0  0  0  0  0  0  0  0
   58.2610   32.3340   43.8400 C   0  0  0  0  0  0  0  0  0  0  0  0
   57.7539   32.7143   42.9410 H   0  0  0  0  0  0  0  0  0  0  0  0
   59.3073   32.0857   43.6087 H   0  0  0  0  0  0  0  0  0  0  0  0
   58.2370   33.3920   44.9060 C   0  0  0  0  0  0  0  0  0  0  0  0
   59.1382   33.9982   45.0801 H   0  0  0  0  0  0  0  0  0  0  0  0
   57.1500   33.6150   45.6470 C   0  0  0  0  0  0  0  0  0  0  0  0
   57.1626   34.3970   46.4205 H   0  0  0  0  0  0  0  0  0  0  0  0
   56.2413   33.0168   45.4844 H   0  0  0  0  0  0  0  0  0  0  0  0
   58.1470   30.2740   45.2930 C   0  0  0  0  0  0  0  0  0  0  0  0
   59.1309   30.5425   45.7051 H   0  0  0  0  0  0  0  0  0  0  0  0
   57.4940   29.1170   45.7520 C   0  0  0  0  0  0  0  0  0  0  0  0
   58.1610   28.2590   46.8010 C   0  0  0  0  0  0  0  0  0  0  0  0
   57.7258   28.4899   47.7845 H   0  0  0  0  0  0  0  0  0  0  0  0
   57.9966   27.2018   46.5454 H   0  0  0  0  0  0  0  0  0  0  0  0
   59.6460   28.5170   46.8460 C   0  0  0  0  0  0  0  0  0  0  0  0
   60.2853   27.9577   46.1472 H   0  0  0  0  0  0  0  0  0  0  0  0
   60.2440   29.3890   47.6870 C   0  0  0  0  0  0  0  0  0  0  0  0
   60.5110   30.8210   47.3000 C   0  0  0  0  0  0  0  0  0  0  0  0
   60.6248   31.4311   48.2082 H   0  0  0  0  0  0  0  0  0  0  0  0
   61.4345   30.8739   46.7047 H   0  0  0  0  0  0  0  0  0  0  0  0
   59.6686   31.2031   46.7047 H   0  0  0  0  0  0  0  0  0  0  0  0
   60.7050   28.9180   49.0460 C   0  0  0  0  0  0  0  0  0  0  0  0
   61.2376   27.9618   48.9362 H   0  0  0  0  0  0  0  0  0  0  0  0
   61.3737   29.6773   49.4776 H   0  0  0  0  0  0  0  0  0  0  0  0
   59.5910   28.7370   49.9160 O   0  0  0  0  0  0  0  0  0  0  0  0
   59.5440   29.2460   51.2190 C   0  0  0  0  0  0  0  0  0  0  0  0
   59.8460   28.5120   52.2010 O   0  0  0  0  0  0  0  0  0  0  0  0
   59.1780   30.6570   51.4450 C   0  0  0  0  0  0  0  0  0  0  0  0
   57.8370   31.0490   51.2690 C   0  0  0  0  0  0  0  0  0  0  0  0
   57.1027   30.3248   50.8865 H   0  0  0  0  0  0  0  0  0  0  0  0
   57.4320   32.3490   51.5760 C   0  0  0  0  0  0  0  0  0  0  0  0
   56.3832   32.6462   51.4288 H   0  0  0  0  0  0  0  0  0  0  0  0
   58.3540   33.2720   52.0690 C   0  0  0  0  0  0  0  0  0  0  0  0
   58.0281   34.2906   52.3264 H   0  0  0  0  0  0  0  0  0  0  0  0
   59.6900   32.9040   52.2360 C   0  0  0  0  0  0  0  0  0  0  0  0
   60.4111   33.6329   52.6344 H   0  0  0  0  0  0  0  0  0  0  0  0
   60.1200   31.6130   51.9000 C   0  0  0  0  0  0  0  0  0  0  0  0
   61.5190   31.3140   52.0170 N   0  0  0  0  0  0  0  0  0  0  0  0
   62.4830   31.5530   50.9870 C   0  0  0  0  0  0  0  0  0  0  0  0
   62.7070   30.6740   50.1100 O   0  0  0  0  0  0  0  0  0  0  0  0
   63.1430   32.7850   50.9460 O   0  0  0  0  0  0  0  0  0  0  0  0
   62.5060   34.0050   50.5690 C   0  0  0  0  0  0  0  0  0  0  0  0
   61.6308   34.1701   51.2145 H   0  0  0  0  0  0  0  0  0  0  0  0
   63.2247   34.8299   50.6832 H   0  0  0  0  0  0  0  0  0  0  0  0
   62.0580   33.9480   49.1340 C   0  0  0  0  0  0  0  0  0  0  0  0
   60.7140   34.2000   48.8090 C   0  0  0  0  0  0  0  0  0  0  0  0
   59.9917   34.4326   49.6054 H   0  0  0  0  0  0  0  0  0  0  0  0
   60.2920   34.1560   47.4760 C   0  0  0  0  0  0  0  0  0  0  0  0
   59.2378   34.3475   47.2270 H   0  0  0  0  0  0  0  0  0  0  0  0
   61.2080   33.8690   46.4600 C   0  0  0  0  0  0  0  0  0  0  0  0
   60.8744   33.8351   45.4123 H   0  0  0  0  0  0  0  0  0  0  0  0
   62.5480   33.6250   46.7750 C   0  0  0  0  0  0  0  0  0  0  0  0
   63.2680   33.3996   45.9745 H   0  0  0  0  0  0  0  0  0  0  0  0
   62.9750   33.6670   48.1070 C   0  0  0  0  0  0  0  0  0  0  0  0
   64.0312   33.4796   48.3507 H   0  0  0  0  0  0  0  0  0  0  0  0
   56.2380   28.7760   45.2110 C   0  0  0  0  0  0  0  0  0  0  0  0
   55.5840   27.6180   45.6240 O   0  0  0  0  0  0  0  0  0  0  0  0
  1  2  1  0
  2  3  1  0
  3  4  2  0
  4  5  1  0
  4  6  1  0
  6  7  1  0
  7  8  1  0
  7  9  1  0
  7 10  1  0
 10 11  1  0
 10 12  2  0
 12 13  1  0
 12 14  1  0
  6 15  2  0
 15 16  1  0
 15 17  1  0
 17 18  1  0
 18 19  1  0
 18 20  1  0
 18 21  1  0
 21 22  1  0
 21 23  2  0
 23 24  1  0
 24 25  1  0
 24 26  1  0
 24 27  1  0
 23 28  1  0
 28 29  1  0
 28 30  1  0
 28 31  1  0
 31 32  1  0
 32 33  2  0
 32 34  1  0
 34 35  2  0
 35 36  1  0
 35 37  1  0
 37 38  1  0
 37 39  2  0
 39 40  1  0
 39 41  1  0
 41 42  1  0
 41 43  2  0
 43 44  1  0
 44 45  1  0
 45 46  2  0
 45 47  1  0
 47 48  1  0
 48 49  1  0
 48 50  1  0
 48 51  1  0
 51 52  2  0
 52 53  1  0
 52 54  1  0
 54 55  1  0
 54 56  2  0
 56 57  1  0
 56 58  1  0
 58 59  1  0
 58 60  2  0
 60 61  1  0
 17 62  2  0
 62 63  1  0
 62  3  1  0
 43 34  1  0
 60 51  1  0
M  CHG  2  44  -1  63  -1
M  END
>  <UniqueID>  (14) 
14

>  <SMILES>  (14) 
C=CCc1cc(O)c([O-])c(C/C=C(\C)COC(=O)c2ccccc2[N-]C(=O)OCc2ccccc2)c1

>  <Energy>  (14) 
59.93405065218629

>  <Genealogy>  (14) 
C=CCc1cc(O)c([O-])c(CC=C(C)COC(=O)c2ccccc2[N-]C(=O)OCc2ccccc2)c1 (protonated)
C=CCc1cc(O)c([O-])c(C/C=C(\C)COC(=O)c2ccccc2[N-]C(=O)OCc2ccccc2)c1 (cis-trans isomerization)
C=CCc1cc(O)c([O-])c(C/C=C(\C)COC(=O)c2ccccc2[N-]C(=O)OCc2ccccc2)c1 (3D coordinates assigned)
C=CCc1cc(O)c([O-])c(C/C=C(\C)COC(=O)c2ccccc2[N-]C(=O)OCc2ccccc2)c1 (optimized conformer: 59.93405065218629 kcal/mol)

>  <smiles>  (14) 
C=CCc1cc(O)c(O)c(CC=C(C)COC(=O)c2ccccc2NC(=O)OCc2ccccc2)c1

>  <score_type>  (14) 
oracle

>  <origin>  (14) 
adg

>  <m_score__min__energy>  (14) 
-14.029999999999999

>  <m_primary>  (14) 
energy

$$$$
14:0
     RDKit          3D

 52 55  0  0  0  0  0  0  0  0999 V2000
   65.1240   32.3410   50.1200 C   0  0  0  0  0  0  0  0  0  0  0  0
   63.8180   32.4820   49.3820 C   0  0  0  0  0  0  0  0  0  0  0  0
   62.9700   31.6160   49.5360 O   0  0  0  0  0  0  0  0  0  0  0  0
   63.5750   33.6060   48.4900 N   0  0  0  0  0  0  0  0  0  0  0  0
   63.2970   33.1610   47.1050 C   0  0  0  0  0  0  0  0  0  0  0  0
   61.8860   32.5840   46.9330 C   0  0  0  0  0  0  0  0  0  0  0  0
   60.9030   33.5150   47.4920 N   0  0  0  0  0  0  0  0  0  0  0  0
   59.6980   33.8300   46.7750 C   0  0  0  0  0  0  0  0  0  0  0  0
   59.3540   35.0350   46.6460 O   0  0  0  0  0  0  0  0  0  0  0  0
   58.8830   32.7640   46.1490 C   0  0  0  0  0  0  0  0  0  0  0  0
   58.5190   31.6240   46.8850 C   0  0  0  0  0  0  0  0  0  0  0  0
   57.7760   30.6030   46.2880 C   0  0  0  0  0  0  0  0  0  0  0  0
   57.3910   30.7000   44.9420 C   0  0  0  0  0  0  0  0  0  0  0  0
   56.6220   29.5870   44.2830 C   0  0  0  0  0  0  0  0  0  0  0  0
   56.2260   28.6060   45.2430 O   0  0  0  0  0  0  0  0  0  0  0  0
   57.0420   27.5740   45.7390 C   0  0  0  0  0  0  0  0  0  0  0  0
   58.4100   27.7600   46.0140 C   0  0  0  0  0  0  0  0  0  0  0  0
   59.1840   26.7060   46.5060 C   0  0  0  0  0  0  0  0  0  0  0  0
   58.6100   25.4540   46.7330 C   0  0  0  0  0  0  0  0  0  0  0  0
   57.2460   25.2490   46.4690 C   0  0  0  0  0  0  0  0  0  0  0  0
   56.6140   24.0130   46.6920 C   0  0  0  0  0  0  0  0  0  0  0  0
   57.2600   23.0240   47.1340 O   0  0  0  0  0  0  0  0  0  0  0  0
   55.2880   23.8780   46.4300 N   0  0  0  0  0  0  0  0  0  0  0  0
   54.5540   24.9170   45.9520 C   0  0  0  0  0  0  0  0  0  0  0  0
   55.1400   26.1190   45.7260 N   0  0  0  0  0  0  0  0  0  0  0  0
   56.4640   26.3150   45.9720 C   0  0  0  0  0  0  0  0  0  0  0  0
   57.7230   31.8540   44.2140 C   0  0  0  0  0  0  0  0  0  0  0  0
   58.4630   32.8790   44.8130 C   0  0  0  0  0  0  0  0  0  0  0  0
   61.1090   34.0150   48.8510 C   0  0  0  0  0  0  0  0  0  0  0  0
   62.5470   34.5400   49.0110 C   0  0  0  0  0  0  0  0  0  0  0  0
   64.9368   32.3612   51.2038 H   0  0  0  0  0  0  0  0  0  0  0  0
   65.5979   31.3865   49.8475 H   0  0  0  0  0  0  0  0  0  0  0  0
   65.7908   33.1724   49.8475 H   0  0  0  0  0  0  0  0  0  0  0  0
   64.4590   34.1650   48.4370 H   0  0  0  0  0  0  0  0  0  0  0  0
   63.4078   34.0231   46.4308 H   0  0  0  0  0  0  0  0  0  0  0  0
   64.0117   32.3594   46.8671 H   0  0  0  0  0  0  0  0  0  0  0  0
   61.6801   32.4331   45.8630 H   0  0  0  0  0  0  0  0  0  0  0  0
   61.8183   31.6210   47.4604 H   0  0  0  0  0  0  0  0  0  0  0  0
   58.8213   31.5349   47.9389 H   0  0  0  0  0  0  0  0  0  0  0  0
   57.4911   29.7181   46.8761 H   0  0  0  0  0  0  0  0  0  0  0  0
   55.7247   30.0040   43.8024 H   0  0  0  0  0  0  0  0  0  0  0  0
   57.2692   29.1065   43.5345 H   0  0  0  0  0  0  0  0  0  0  0  0
   58.8731   28.7425   45.8402 H   0  0  0  0  0  0  0  0  0  0  0  0
   60.2522   26.8637   46.7158 H   0  0  0  0  0  0  0  0  0  0  0  0
   59.2259   24.6282   47.1186 H   0  0  0  0  0  0  0  0  0  0  0  0
   53.4815   24.7827   45.7478 H   0  0  0  0  0  0  0  0  0  0  0  0
   57.3995   31.9525   43.1673 H   0  0  0  0  0  0  0  0  0  0  0  0
   58.7174   33.7797   44.2351 H   0  0  0  0  0  0  0  0  0  0  0  0
   60.3996   34.8320   49.0492 H   0  0  0  0  0  0  0  0  0  0  0  0
   60.9447   33.1942   49.5646 H   0  0  0  0  0  0  0  0  0  0  0  0
   62.6333   35.4924   48.4674 H   0  0  0  0  0  0  0  0  0  0  0  0
   62.7319   34.6591   50.0888 H   0  0  0  0  0  0  0  0  0  0  0  0
  1  2  1  0
  2  3  2  0
  2  4  1  0
  4  5  1  0
  5  6  1  0
  6  7  1  0
  7  8  1  0
  8  9  2  0
  8 10  1  0
 10 11  2  0
 11 12  1  0
 12 13  2  0
 13 14  1  0
 14 15  1  0
 15 16  1  0
 16 17  2  0
 17 18  1  0
 18 19  2  0
 19 20  1  0
 20 21  1  0
 21 22  2  0
 21 23  1  0
 23 24  1  0
 24 25  2  0
 25 26  1  0
 13 27  1  0
 27 28  2  0
  7 29  1  0
 29 30  1  0
 30  4  1  0
 28 10  1  0
 26 16  1  0
 26 20  2  0
  1 31  1  0
  1 32  1  0
  1 33  1  0
  4 34  1  0
  5 35  1  0
  5 36  1  0
  6 37  1  0
  6 38  1  0
 11 39  1  0
 12 40  1  0
 14 41  1  0
 14 42  1  0
 17 43  1  0
 18 44  1  0
 19 45  1  0
 24 46  1  0
 27 47  1  0
 28 48  1  0
 29 49  1  0
 29 50  1  0
 30 51  1  0
 30 52  1  0
M  CHG  2   4   1  23  -1
M  END
>  <UniqueID>  (15) 
15

>  <SMILES>  (15) 
CC(=O)[NH+]1CCN(C(=O)c2ccc(COc3cccc4c(=O)[n-]cnc34)cc2)CC1

>  <Energy>  (15) 
69.00737510273845

>  <Genealogy>  (15) 
CC(=O)[NH+]1CCN(C(=O)c2ccc(COc3cccc4c(=O)[n-]cnc34)cc2)CC1 (protonated)
CC(=O)[NH+]1CCN(C(=O)c2ccc(COc3cccc4c(=O)[n-]cnc34)cc2)CC1 (3D coordinates assigned)
CC(=O)[NH+]1CCN(C(=O)c2ccc(COc3cccc4c(=O)[n-]cnc34)cc2)CC1 (nonaromatic ring conformer: 69.00737510273845 kcal/mol)

>  <smiles>  (15) 
CC(=O)N1CCN(C(=O)c2ccc(COc3cccc4c(=O)[nH]cnc34)cc2)CC1

>  <score_type>  (15) 
oracle

>  <origin>  (15) 
adg

>  <m_score__min__energy>  (15) 
-9.8399999999999999

>  <m_primary>  (15) 
energy

$$$$
15:0
     RDKit          3D

 49 51  0  0  0  0  0  0  0  0999 V2000
   56.3040   29.4910   42.5450 C   0  0  0  0  0  0  0  0  0  0  0  0
   55.9170   30.2470   43.8490 C   0  0  0  0  0  0  0  0  0  0  0  0
   57.0720   30.6630   44.7080 N   0  0  2  0  0  0  0  0  0  0  0  0
   57.7380   31.8780   44.1450 C   0  0  0  0  0  0  0  0  0  0  0  0
   58.2740   32.7670   45.2210 C   0  0  0  0  0  0  0  0  0  0  0  0
   58.9080   33.9860   44.8860 C   0  0  0  0  0  0  0  0  0  0  0  0
   59.4070   34.8160   45.8800 C   0  0  0  0  0  0  0  0  0  0  0  0
   59.3480   34.4210   47.2180 C   0  0  0  0  0  0  0  0  0  0  0  0
   58.7750   33.1780   47.5660 C   0  0  0  0  0  0  0  0  0  0  0  0
   58.9200   32.6880   48.9380 C   0  0  0  0  0  0  0  0  0  0  0  0
   59.2740   33.5180   49.8330 O   0  0  0  0  0  0  0  0  0  0  0  0
   58.6140   31.3240   49.3090 N   0  0  0  0  0  0  0  0  0  0  0  0
   58.4720   30.9510   50.7160 C   0  0  0  0  0  0  0  0  0  0  0  0
   59.8150   30.3680   51.2110 C   0  0  0  0  0  0  0  0  0  0  0  0
   60.7500   30.2120   50.1530 O   0  0  0  0  0  0  0  0  0  0  0  0
   60.1730   29.4520   49.1010 C   0  0  0  0  0  0  0  0  0  0  0  0
   58.9950   30.2030   48.4410 C   0  0  0  0  0  0  0  0  0  0  0  0
   58.2280   32.3630   46.5660 C   0  0  0  0  0  0  0  0  0  0  0  0
   58.0490   29.6000   44.9440 C   0  0  0  0  0  0  0  0  0  0  0  0
   59.2940   29.8760   45.0960 O   0  0  0  0  0  0  0  0  0  0  0  0
   57.6190   28.2790   45.4480 C   0  0  0  0  0  0  0  0  0  0  0  0
   58.5510   27.5130   46.1510 C   0  0  0  0  0  0  0  0  0  0  0  0
   58.1390   26.3650   46.8110 C   0  0  0  0  0  0  0  0  0  0  0  0
   58.9840   25.6330   47.4160 O   0  0  0  0  0  0  0  0  0  0  0  0
   56.8330   26.0090   46.7540 N   0  0  0  0  0  0  0  0  0  0  0  0
   55.9400   26.7140   46.0170 C   0  0  0  0  0  0  0  0  0  0  0  0
   54.7530   26.3090   45.9340 O   0  0  0  0  0  0  0  0  0  0  0  0
   56.3180   27.8520   45.3700 N   0  0  0  0  0  0  0  0  0  0  0  0
   56.7912   28.5393   42.8038 H   0  0  0  0  0  0  0  0  0  0  0  0
   55.3977   29.2904   41.9548 H   0  0  0  0  0  0  0  0  0  0  0  0
   56.9967   30.1089   41.9548 H   0  0  0  0  0  0  0  0  0  0  0  0
   55.3594   31.1519   43.5658 H   0  0  0  0  0  0  0  0  0  0  0  0
   55.3268   29.5396   44.4501 H   0  0  0  0  0  0  0  0  0  0  0  0
   56.6380   30.9100   45.6570 H   0  0  0  0  0  0  0  0  0  0  0  0
   58.5694   31.5608   43.4984 H   0  0  0  0  0  0  0  0  0  0  0  0
   56.9878   32.4457   43.5750 H   0  0  0  0  0  0  0  0  0  0  0  0
   59.0063   34.2783   43.8301 H   0  0  0  0  0  0  0  0  0  0  0  0
   59.8499   35.7870   45.6133 H   0  0  0  0  0  0  0  0  0  0  0  0
   59.7487   35.0795   48.0028 H   0  0  0  0  0  0  0  0  0  0  0  0
   58.2125   31.8395   51.3103 H   0  0  0  0  0  0  0  0  0  0  0  0
   57.6742   30.2019   50.8269 H   0  0  0  0  0  0  0  0  0  0  0  0
   60.2410   31.0473   51.9640 H   0  0  0  0  0  0  0  0  0  0  0  0
   59.6168   29.3740   51.6384 H   0  0  0  0  0  0  0  0  0  0  0  0
   60.9419   29.2536   48.3398 H   0  0  0  0  0  0  0  0  0  0  0  0
   59.7896   28.5118   49.5242 H   0  0  0  0  0  0  0  0  0  0  0  0
   59.3028   30.5840   47.4561 H   0  0  0  0  0  0  0  0  0  0  0  0
   58.1413   29.5225   48.3068 H   0  0  0  0  0  0  0  0  0  0  0  0
   57.7611   31.4039   46.8348 H   0  0  0  0  0  0  0  0  0  0  0  0
   59.6072   27.8187   46.1812 H   0  0  0  0  0  0  0  0  0  0  0  0
  1  2  1  0
  2  3  1  0
  3  4  1  0
  4  5  1  0
  5  6  2  0
  6  7  1  0
  7  8  2  0
  8  9  1  0
  9 10  1  0
 10 11  2  0
 10 12  1  0
 12 13  1  0
 13 14  1  0
 14 15  1  0
 15 16  1  0
 16 17  1  0
  9 18  2  0
  3 19  1  0
 19 20  2  0
 19 21  1  0
 21 22  2  0
 22 23  1  0
 23 24  2  0
 23 25  1  0
 25 26  1  0
 26 27  2  0
 26 28  1  0
 18  5  1  0
 28 21  1  0
 17 12  1  0
  1 29  1  0
  1 30  1  0
  1 31  1  0
  2 32  1  0
  2 33  1  0
  3 34  1  1
  4 35  1  0
  4 36  1  0
  6 37  1  0
  7 38  1  0
  8 39  1  0
 13 40  1  0
 13 41  1  0
 14 42  1  0
 14 43  1  0
 16 44  1  0
 16 45  1  0
 17 46  1  0
 17 47  1  0
 18 48  1  0
 22 49  1  0
M  CHG  3   3   1  25  -1  28  -1
M  END
>  <UniqueID>  (16) 
16

>  <SMILES>  (16) 
CC[N@H+](Cc1cccc(C(=O)N2CCOCC2)c1)C(=O)c1cc(=O)[n-]c(=O)[n-]1

>  <Energy>  (16) 
84.17166537193616

>  <Genealogy>  (16) 
CC[NH+](Cc1cccc(C(=O)N2CCOCC2)c1)C(=O)c1cc(=O)[n-]c(=O)[n-]1 (protonated)
CC[N@H+](Cc1cccc(C(=O)N2CCOCC2)c1)C(=O)c1cc(=O)[n-]c(=O)[n-]1 (chirality)
CC[N@H+](Cc1cccc(C(=O)N2CCOCC2)c1)C(=O)c1cc(=O)[n-]c(=O)[n-]1 (3D coordinates assigned)
CC[N@H+](Cc1cccc(C(=O)N2CCOCC2)c1)C(=O)c1cc(=O)[n-]c(=O)[n-]1 (nonaromatic ring conformer: 84.17166537193616 kcal/mol)

>  <smiles>  (16) 
CCN(Cc1cccc(C(=O)N2CCOCC2)c1)C(=O)c1cc(=O)[nH]c(=O)[nH]1

>  <score_type>  (16) 
oracle

>  <origin>  (16) 
adg

>  <m_score__min__energy>  (16) 
-11.949999999999999

>  <m_primary>  (16) 
energy

$$$$
16:0
     RDKit          3D

 39 41  0  0  0  0  0  0  0  0999 V2000
   55.1730   26.7180   45.9930 N   0  0  0  0  0  0  0  0  0  0  0  0
   55.9980   25.5700   46.1840 C   0  0  0  0  0  0  0  0  0  0  0  0
   55.5460   24.5680   46.7990 O   0  0  0  0  0  0  0  0  0  0  0  0
   57.4100   25.5750   45.6960 C   0  0  0  0  0  0  0  0  0  0  0  0
   58.0450   26.8960   45.9890 C   0  0  0  0  0  0  0  0  0  0  0  0
   57.6350   28.0580   45.4380 N   0  0  0  0  0  0  0  0  0  0  0  0
   58.4130   29.1120   45.8080 C   0  0  0  0  0  0  0  0  0  0  0  0
   58.1610   30.4600   45.2560 C   0  0  0  0  0  0  0  0  0  0  0  0
   58.1430   31.5940   46.0880 C   0  0  0  0  0  0  0  0  0  0  0  0
   57.9170   32.8630   45.5470 C   0  0  0  0  0  0  0  0  0  0  0  0
   57.7250   33.0140   44.1710 C   0  0  0  0  0  0  0  0  0  0  0  0
   57.7640   31.8960   43.3340 C   0  0  0  0  0  0  0  0  0  0  0  0
   57.9880   30.6250   43.8710 C   0  0  0  0  0  0  0  0  0  0  0  0
   59.4680   28.7770   46.6750 C   0  0  0  0  0  0  0  0  0  0  0  0
   60.4250   29.6860   47.3410 C   0  0  0  0  0  0  0  0  0  0  0  0
   61.2730   30.4980   46.5730 C   0  0  0  0  0  0  0  0  0  0  0  0
   62.1850   31.3560   47.1950 C   0  0  0  0  0  0  0  0  0  0  0  0
   62.2720   31.3990   48.5920 C   0  0  0  0  0  0  0  0  0  0  0  0
   63.4050   32.4960   49.3760 S   0  0  0  0  0  0  0  0  0  0  0  0
   64.5160   33.1160   48.2060 N   0  0  0  0  0  0  0  0  0  0  0  0
   64.1630   31.7640   50.4480 O   0  0  0  0  0  0  0  0  0  0  0  0
   62.6550   33.6340   50.0090 O   0  0  0  0  0  0  0  0  0  0  0  0
   61.4360   30.5830   49.3630 C   0  0  0  0  0  0  0  0  0  0  0  0
   60.5240   29.7240   48.7420 C   0  0  0  0  0  0  0  0  0  0  0  0
   59.4090   27.1150   46.9430 S   0  0  0  0  0  0  0  0  0  0  0  0
   55.5180   27.5390   45.4480 H   0  0  0  0  0  0  0  0  0  0  0  0
   57.9741   24.7786   46.2035 H   0  0  0  0  0  0  0  0  0  0  0  0
   57.4183   25.4023   44.6097 H   0  0  0  0  0  0  0  0  0  0  0  0
   58.3076   31.4817   47.1698 H   0  0  0  0  0  0  0  0  0  0  0  0
   57.8903   33.7439   46.2052 H   0  0  0  0  0  0  0  0  0  0  0  0
   57.5432   34.0126   43.7471 H   0  0  0  0  0  0  0  0  0  0  0  0
   57.6182   32.0162   42.2504 H   0  0  0  0  0  0  0  0  0  0  0  0
   58.0291   29.7495   43.2063 H   0  0  0  0  0  0  0  0  0  0  0  0
   61.2200   30.4594   45.4750 H   0  0  0  0  0  0  0  0  0  0  0  0
   62.8363   31.9993   46.5851 H   0  0  0  0  0  0  0  0  0  0  0  0
   65.4640   33.0900   48.6420 H   0  0  0  0  0  0  0  0  0  0  0  0
   64.5310   32.4380   47.4110 H   0  0  0  0  0  0  0  0  0  0  0  0
   61.4966   30.6176   50.4608 H   0  0  0  0  0  0  0  0  0  0  0  0
   59.8806   29.0745   49.3537 H   0  0  0  0  0  0  0  0  0  0  0  0
  1  2  1  0
  2  3  2  0
  2  4  1  0
  4  5  1  0
  5  6  2  0
  6  7  1  0
  7  8  1  0
  8  9  2  0
  9 10  1  0
 10 11  2  0
 11 12  1  0
 12 13  2  0
  7 14  2  0
 14 15  1  0
 15 16  2  0
 16 17  1  0
 17 18  2  0
 18 19  1  0
 19 20  1  0
 19 21  2  0
 19 22  2  0
 18 23  1  0
 23 24  2  0
 14 25  1  0
 25  5  1  0
 13  8  1  0
 24 15  1  0
  1 26  1  0
  4 27  1  0
  4 28  1  0
  9 29  1  0
 10 30  1  0
 11 31  1  0
 12 32  1  0
 13 33  1  0
 16 34  1  0
 17 35  1  0
 20 36  1  0
 20 37  1  0
 23 38  1  0
 24 39  1  0
M  CHG  1   1  -1
M  END
>  <UniqueID>  (17) 
17

>  <SMILES>  (17) 
[NH-]C(=O)Cc1nc(-c2ccccc2)c(-c2ccc(S(N)(=O)=O)cc2)s1

>  <Energy>  (17) 
74.85485857145974

>  <Genealogy>  (17) 
[NH-]C(=O)Cc1nc(-c2ccccc2)c(-c2ccc(S(N)(=O)=O)cc2)s1 (protonated)
[NH-]C(=O)Cc1nc(-c2ccccc2)c(-c2ccc(S(N)(=O)=O)cc2)s1 (3D coordinates assigned)
[NH-]C(=O)Cc1nc(-c2ccccc2)c(-c2ccc(S(N)(=O)=O)cc2)s1 (optimized conformer: 74.85485857145974 kcal/mol)

>  <smiles>  (17) 
NC(=O)Cc1nc(-c2ccccc2)c(-c2ccc(S(N)(=O)=O)cc2)s1

>  <score_type>  (17) 
oracle

>  <origin>  (17) 
adg

>  <m_score__min__energy>  (17) 
-11.59

>  <m_primary>  (17) 
energy

$$$$
17:0
     RDKit          3D

 55 58  0  0  0  0  0  0  0  0999 V2000
   57.6580   24.9120   46.2980 C   0  0  0  0  0  0  0  0  0  0  0  0
   57.6960   25.9350   45.1880 C   0  0  0  0  0  0  0  0  0  0  0  0
   57.7720   25.4700   43.8640 C   0  0  0  0  0  0  0  0  0  0  0  0
   57.8050   26.3620   42.8000 C   0  0  0  0  0  0  0  0  0  0  0  0
   57.7360   27.7300   43.0310 C   0  0  0  0  0  0  0  0  0  0  0  0
   57.6600   28.2370   44.3390 C   0  0  0  0  0  0  0  0  0  0  0  0
   57.4710   29.6970   44.4870 C   0  0  0  0  0  0  0  0  0  0  0  0
   56.5290   30.1370   45.1990 O   0  0  0  0  0  0  0  0  0  0  0  0
   58.2870   30.6090   43.7360 N   0  0  0  0  0  0  0  0  0  0  0  0
   57.8670   31.9770   43.4500 C   0  0  0  0  0  0  0  0  0  0  0  0
   58.1790   32.8830   44.6080 C   0  0  0  0  0  0  0  0  0  0  0  0
   57.4670   32.7730   45.8140 C   0  0  0  0  0  0  0  0  0  0  0  0
   57.7480   33.6350   46.8790 C   0  0  0  0  0  0  0  0  0  0  0  0
   58.7430   34.6080   46.7470 C   0  0  0  0  0  0  0  0  0  0  0  0
   59.4620   34.7160   45.5540 C   0  0  0  0  0  0  0  0  0  0  0  0
   59.1870   33.8540   44.4890 C   0  0  0  0  0  0  0  0  0  0  0  0
   57.6920   27.3380   45.4450 C   0  0  0  0  0  0  0  0  0  0  0  0
   57.8260   27.8470   46.8710 C   0  0  0  0  0  0  0  0  0  0  0  0
   59.5850   28.1330   47.2800 S   0  0  0  0  0  0  0  0  0  0  0  0
   59.2950   29.5620   48.3240 C   0  0  0  0  0  0  0  0  0  0  0  0
   58.5710   29.5210   49.4600 N   0  0  0  0  0  0  0  0  0  0  0  0
   58.5120   30.7590   49.9300 N   0  0  0  0  0  0  0  0  0  0  0  0
   59.1930   31.5270   49.0620 C   0  0  0  0  0  0  0  0  0  0  0  0
   59.3140   32.7750   49.1830 O   0  0  0  0  0  0  0  0  0  0  0  0
   59.7010   30.8160   48.0400 N   0  0  0  0  0  0  0  0  0  0  0  0
   60.4580   31.3030   46.8850 C   0  0  0  0  0  0  0  0  0  0  0  0
   61.7270   31.9730   47.3360 C   0  0  0  0  0  0  0  0  0  0  0  0
   62.5040   31.4030   48.3580 C   0  0  0  0  0  0  0  0  0  0  0  0
   63.6710   32.0390   48.7940 C   0  0  0  0  0  0  0  0  0  0  0  0
   64.0760   33.2400   48.2060 C   0  0  0  0  0  0  0  0  0  0  0  0
   63.3110   33.8090   47.1840 C   0  0  0  0  0  0  0  0  0  0  0  0
   62.1340   33.1860   46.7570 C   0  0  0  0  0  0  0  0  0  0  0  0
   57.6771   25.4254   47.2706 H   0  0  0  0  0  0  0  0  0  0  0  0
   56.7371   24.3160   46.2160 H   0  0  0  0  0  0  0  0  0  0  0  0
   58.5322   24.2493   46.2160 H   0  0  0  0  0  0  0  0  0  0  0  0
   57.8057   24.3881   43.6683 H   0  0  0  0  0  0  0  0  0  0  0  0
   57.8861   25.9837   41.7703 H   0  0  0  0  0  0  0  0  0  0  0  0
   57.7409   28.4254   42.1787 H   0  0  0  0  0  0  0  0  0  0  0  0
   59.1490   30.2470   43.2670 H   0  0  0  0  0  0  0  0  0  0  0  0
   58.3973   32.3379   42.5564 H   0  0  0  0  0  0  0  0  0  0  0  0
   56.7804   31.9843   43.2788 H   0  0  0  0  0  0  0  0  0  0  0  0
   56.6857   32.0062   45.9211 H   0  0  0  0  0  0  0  0  0  0  0  0
   57.1860   33.5473   47.8205 H   0  0  0  0  0  0  0  0  0  0  0  0
   58.9600   35.2891   47.5831 H   0  0  0  0  0  0  0  0  0  0  0  0
   60.2460   35.4809   45.4528 H   0  0  0  0  0  0  0  0  0  0  0  0
   59.7617   33.9361   43.5546 H   0  0  0  0  0  0  0  0  0  0  0  0
   57.2716   28.7916   46.9727 H   0  0  0  0  0  0  0  0  0  0  0  0
   57.4164   27.0935   47.5599 H   0  0  0  0  0  0  0  0  0  0  0  0
   60.7084   30.4543   46.2315 H   0  0  0  0  0  0  0  0  0  0  0  0
   59.8438   32.0328   46.3371 H   0  0  0  0  0  0  0  0  0  0  0  0
   62.1935   30.4529   48.8172 H   0  0  0  0  0  0  0  0  0  0  0  0
   64.2708   31.5930   49.6010 H   0  0  0  0  0  0  0  0  0  0  0  0
   64.9960   33.7372   48.5471 H   0  0  0  0  0  0  0  0  0  0  0  0
   63.6355   34.7492   46.7143 H   0  0  0  0  0  0  0  0  0  0  0  0
   61.5253   33.6474   45.9654 H   0  0  0  0  0  0  0  0  0  0  0  0
  1  2  1  0
  2  3  2  0
  3  4  1  0
  4  5  2  0
  5  6  1  0
  6  7  1  0
  7  8  2  0
  7  9  1  0
  9 10  1  0
 10 11  1  0
 11 12  2  0
 12 13  1  0
 13 14  2  0
 14 15  1  0
 15 16  2  0
  6 17  2  0
 17 18  1  0
 18 19  1  0
 19 20  1  0
 20 21  2  0
 21 22  1  0
 22 23  1  0
 23 24  2  0
 23 25  1  0
 25 26  1  0
 26 27  1  0
 27 28  2  0
 28 29  1  0
 29 30  2  0
 30 31  1  0
 31 32  2  0
 17  2  1  0
 25 20  1  0
 32 27  1  0
 16 11  1  0
  1 33  1  0
  1 34  1  0
  1 35  1  0
  3 36  1  0
  4 37  1  0
  5 38  1  0
  9 39  1  0
 10 40  1  0
 10 41  1  0
 12 42  1  0
 13 43  1  0
 14 44  1  0
 15 45  1  0
 16 46  1  0
 18 47  1  0
 18 48  1  0
 26 49  1  0
 26 50  1  0
 28 51  1  0
 29 52  1  0
 30 53  1  0
 31 54  1  0
 32 55  1  0
M  CHG  1  22  -1
M  END
>  <UniqueID>  (18) 
18

>  <SMILES>  (18) 
Cc1cccc(C(=O)NCc2ccccc2)c1CSc1n[n-]c(=O)n1Cc1ccccc1

>  <Energy>  (18) 
92.72562955503487

>  <Genealogy>  (18) 
Cc1cccc(C(=O)NCc2ccccc2)c1CSc1n[n-]c(=O)n1Cc1ccccc1 (protonated)
Cc1cccc(C(=O)NCc2ccccc2)c1CSc1n[n-]c(=O)n1Cc1ccccc1 (3D coordinates assigned)
Cc1cccc(C(=O)NCc2ccccc2)c1CSc1n[n-]c(=O)n1Cc1ccccc1 (optimized conformer: 92.72562955503487 kcal/mol)

>  <smiles>  (18) 
Cc1cccc(C(=O)NCc2ccccc2)c1CSc1n[nH]c(=O)n1Cc1ccccc1

>  <score_type>  (18) 
oracle

>  <origin>  (18) 
adg

>  <m_score__min__energy>  (18) 
-10.56

>  <m_primary>  (18) 
energy

$$$$
18:0
     RDKit          3D

 53 55  0  0  0  0  0  0  0  0999 V2000
   57.7630   33.4960   52.4890 C   0  0  0  0  0  0  0  0  0  0  0  0
   58.1100   32.3880   51.5360 C   0  0  0  0  0  0  0  0  0  0  0  0
   57.4420   31.1770   51.4130 C   0  0  0  0  0  0  0  0  0  0  0  0
   56.2200   30.7510   52.1140 C   0  0  0  0  0  0  0  0  0  0  0  0
   56.2530   29.7200   52.8350 O   0  0  0  0  0  0  0  0  0  0  0  0
   54.9960   31.4870   52.0120 N   0  0  0  0  0  0  0  0  0  0  0  0
   53.7910   31.0380   51.3160 C   0  0  0  0  0  0  0  0  0  0  0  0
   52.7480   30.5710   52.3070 C   0  0  0  0  0  0  0  0  0  0  0  0
   53.0620   29.4750   53.1320 C   0  0  0  0  0  0  0  0  0  0  0  0
   52.1470   28.9950   54.0670 C   0  0  0  0  0  0  0  0  0  0  0  0
   50.8950   29.5910   54.1860 C   0  0  0  0  0  0  0  0  0  0  0  0
   50.5540   30.6720   53.3740 C   0  0  0  0  0  0  0  0  0  0  0  0
   51.4670   31.1880   52.4310 C   0  0  0  0  0  0  0  0  0  0  0  0
   51.0330   32.3450   51.6040 C   0  0  0  0  0  0  0  0  0  0  0  0
   50.6650   33.4140   52.1610 O   0  0  0  0  0  0  0  0  0  0  0  0
   51.0540   32.2960   50.2160 O   0  0  0  0  0  0  0  0  0  0  0  0
   58.0960   30.4580   50.4310 C   0  0  0  0  0  0  0  0  0  0  0  0
   59.1480   31.2460   50.0050 C   0  0  0  0  0  0  0  0  0  0  0  0
   60.0700   30.8840   48.8730 C   0  0  0  0  0  0  0  0  0  0  0  0
   59.2860   30.6330   47.6130 C   0  0  0  0  0  0  0  0  0  0  0  0
   58.9900   31.6870   46.7340 C   0  0  0  0  0  0  0  0  0  0  0  0
   58.2480   31.4500   45.5730 C   0  0  0  0  0  0  0  0  0  0  0  0
   57.7910   30.1590   45.2790 C   0  0  0  0  0  0  0  0  0  0  0  0
   56.8620   29.8460   43.8160 S   0  0  0  0  0  0  0  0  0  0  0  0
   57.0550   31.2100   42.6920 C   0  0  0  0  0  0  0  0  0  0  0  0
   55.4060   29.6840   44.1480 O   0  0  0  0  0  0  0  0  0  0  0  0
   57.3550   28.5820   43.1700 O   0  0  0  0  0  0  0  0  0  0  0  0
   58.0900   29.1050   46.1510 C   0  0  0  0  0  0  0  0  0  0  0  0
   58.8320   29.3390   47.3110 C   0  0  0  0  0  0  0  0  0  0  0  0
   59.1620   32.4170   50.6850 N   0  0  0  0  0  0  0  0  0  0  0  0
   60.0570   33.5520   50.4450 C   0  0  0  0  0  0  0  0  0  0  0  0
   57.8749   33.1386   53.5233 H   0  0  0  0  0  0  0  0  0  0  0  0
   58.4371   34.3488   52.3208 H   0  0  0  0  0  0  0  0  0  0  0  0
   56.7229   33.8120   52.3208 H   0  0  0  0  0  0  0  0  0  0  0  0
   53.3820   31.8717   50.7263 H   0  0  0  0  0  0  0  0  0  0  0  0
   54.0543   30.1987   50.6555 H   0  0  0  0  0  0  0  0  0  0  0  0
   54.0447   28.9898   53.0374 H   0  0  0  0  0  0  0  0  0  0  0  0
   52.4144   28.1446   54.7114 H   0  0  0  0  0  0  0  0  0  0  0  0
   50.1728   29.2084   54.9223 H   0  0  0  0  0  0  0  0  0  0  0  0
   49.5581   31.1291   53.4703 H   0  0  0  0  0  0  0  0  0  0  0  0
   57.8315   29.4563   50.0614 H   0  0  0  0  0  0  0  0  0  0  0  0
   60.7749   31.7110   48.7019 H   0  0  0  0  0  0  0  0  0  0  0  0
   60.6172   29.9677   49.1395 H   0  0  0  0  0  0  0  0  0  0  0  0
   59.3435   32.7039   46.9598 H   0  0  0  0  0  0  0  0  0  0  0  0
   58.0223   32.2805   44.8879 H   0  0  0  0  0  0  0  0  0  0  0  0
   57.1867   32.1405   43.2638 H   0  0  0  0  0  0  0  0  0  0  0  0
   57.9382   31.0409   42.0584 H   0  0  0  0  0  0  0  0  0  0  0  0
   56.1596   31.2925   42.0584 H   0  0  0  0  0  0  0  0  0  0  0  0
   57.7389   28.0881   45.9214 H   0  0  0  0  0  0  0  0  0  0  0  0
   59.0618   28.5056   47.9912 H   0  0  0  0  0  0  0  0  0  0  0  0
   60.3862   33.9694   51.4080 H   0  0  0  0  0  0  0  0  0  0  0  0
   60.9336   33.2132   49.8734 H   0  0  0  0  0  0  0  0  0  0  0  0
   59.5231   34.3255   49.8734 H   0  0  0  0  0  0  0  0  0  0  0  0
  1  2  1  0
  2  3  2  0
  3  4  1  0
  4  5  2  0
  4  6  1  0
  6  7  1  0
  7  8  1  0
  8  9  2  0
  9 10  1  0
 10 11  2  0
 11 12  1  0
 12 13  2  0
 13 14  1  0
 14 15  2  0
 14 16  1  0
  3 17  1  0
 17 18  2  0
 18 19  1  0
 19 20  1  0
 20 21  2  0
 21 22  1  0
 22 23  2  0
 23 24  1  0
 24 25  1  0
 24 26  2  0
 24 27  2  0
 23 28  1  0
 28 29  2  0
 18 30  1  0
 30 31  1  0
 30  2  1  0
 13  8  1  0
 29 20  1  0
  1 32  1  0
  1 33  1  0
  1 34  1  0
  7 35  1  0
  7 36  1  0
  9 37  1  0
 10 38  1  0
 11 39  1  0
 12 40  1  0
 17 41  1  0
 19 42  1  0
 19 43  1  0
 21 44  1  0
 22 45  1  0
 25 46  1  0
 25 47  1  0
 25 48  1  0
 28 49  1  0
 29 50  1  0
 31 51  1  0
 31 52  1  0
 31 53  1  0
M  CHG  2   6  -1  16  -1
M  END
>  <UniqueID>  (19) 
19

>  <SMILES>  (19) 
Cc1c(C(=O)[N-]Cc2ccccc2C(=O)[O-])cc(Cc2ccc(S(C)(=O)=O)cc2)n1C

>  <Energy>  (19) 
83.7248910388931

>  <Genealogy>  (19) 
Cc1c(C(=O)[N-]Cc2ccccc2C(=O)[O-])cc(Cc2ccc(S(C)(=O)=O)cc2)n1C (protonated)
Cc1c(C(=O)[N-]Cc2ccccc2C(=O)[O-])cc(Cc2ccc(S(C)(=O)=O)cc2)n1C (3D coordinates assigned)
Cc1c(C(=O)[N-]Cc2ccccc2C(=O)[O-])cc(Cc2ccc(S(C)(=O)=O)cc2)n1C (optimized conformer: 83.7248910388931 kcal/mol)

>  <smiles>  (19) 
Cc1c(C(=O)NCc2ccccc2C(=O)O)cc(Cc2ccc(S(C)(=O)=O)cc2)n1C

>  <score_type>  (19) 
oracle

>  <origin>  (19) 
adg

>  <m_score__min__energy>  (19) 
-13.890000000000001

>  <m_primary>  (19) 
energy

$$$$
19:0
     RDKit          3D

 33 34  0  0  0  0  0  0  0  0999 V2000
   57.3840   31.5910   42.2160 C   0  0  0  0  0  0  0  0  0  0  0  0
   58.1190   32.5140   42.8410 C   0  0  0  0  0  0  0  0  0  0  0  0
   57.6930   33.1220   44.1480 C   0  0  0  0  0  0  0  0  0  0  0  0
   58.4270   32.4990   45.2530 N   0  0  0  0  0  0  0  0  0  0  0  0
   58.1400   31.2010   45.7560 C   0  0  0  0  0  0  0  0  0  0  0  0
   57.2400   30.4740   45.2580 O   0  0  0  0  0  0  0  0  0  0  0  0
   58.9240   30.8460   46.9450 C   0  0  0  0  0  0  0  0  0  0  0  0
   58.8900   29.6870   47.6200 C   0  0  0  0  0  0  0  0  0  0  0  0
   58.8570   28.3480   47.0000 C   0  0  0  0  0  0  0  0  0  0  0  0
   60.0590   27.7190   46.6580 C   0  0  0  0  0  0  0  0  0  0  0  0
   60.0460   26.4740   46.0300 C   0  0  0  0  0  0  0  0  0  0  0  0
   58.8340   25.8540   45.7180 C   0  0  0  0  0  0  0  0  0  0  0  0
   57.6100   26.4830   46.0230 C   0  0  0  0  0  0  0  0  0  0  0  0
   56.3080   25.8460   45.6860 C   0  0  0  0  0  0  0  0  0  0  0  0
   56.2310   24.5200   44.9920 C   0  0  0  0  0  0  0  0  0  0  0  0
   55.2300   26.4280   45.9890 O   0  0  0  0  0  0  0  0  0  0  0  0
   57.6360   27.7420   46.6560 C   0  0  0  0  0  0  0  0  0  0  0  0
   59.9610   32.2050   47.4970 S   0  0  0  0  0  0  0  0  0  0  0  0
   59.3700   33.1640   46.0990 C   0  0  0  0  0  0  0  0  0  0  0  0
   59.6520   34.7740   46.0160 S   0  0  0  0  0  0  0  0  0  0  0  0
   57.7280   31.1684   41.2604 H   0  0  0  0  0  0  0  0  0  0  0  0
   56.4344   31.2531   42.6566 H   0  0  0  0  0  0  0  0  0  0  0  0
   59.0657   32.8396   42.3853 H   0  0  0  0  0  0  0  0  0  0  0  0
   57.9036   34.2015   44.1335 H   0  0  0  0  0  0  0  0  0  0  0  0
   56.6152   32.9543   44.2902 H   0  0  0  0  0  0  0  0  0  0  0  0
   58.8864   29.7386   48.7188 H   0  0  0  0  0  0  0  0  0  0  0  0
   61.0176   28.2082   46.8853 H   0  0  0  0  0  0  0  0  0  0  0  0
   60.9951   25.9777   45.7791 H   0  0  0  0  0  0  0  0  0  0  0  0
   58.8346   24.8678   45.2308 H   0  0  0  0  0  0  0  0  0  0  0  0
   56.1843   23.7161   45.7414 H   0  0  0  0  0  0  0  0  0  0  0  0
   55.3294   24.4874   44.3626 H   0  0  0  0  0  0  0  0  0  0  0  0
   57.1227   24.3832   44.3626 H   0  0  0  0  0  0  0  0  0  0  0  0
   56.6905   28.2561   46.8834 H   0  0  0  0  0  0  0  0  0  0  0  0
  1  2  2  0
  2  3  1  0
  3  4  1  0
  4  5  1  0
  5  6  2  0
  5  7  1  0
  7  8  2  3
  8  9  1  0
  9 10  2  0
 10 11  1  0
 11 12  2  0
 12 13  1  0
 13 14  1  0
 14 15  1  0
 14 16  2  0
 13 17  2  0
  7 18  1  0
 18 19  1  0
 19 20  2  0
 19  4  1  0
 17  9  1  0
  1 21  1  0
  1 22  1  0
  2 23  1  0
  3 24  1  0
  3 25  1  0
  8 26  1  0
 10 27  1  0
 11 28  1  0
 12 29  1  0
 15 30  1  0
 15 31  1  0
 15 32  1  0
 17 33  1  0
M  END
>  <UniqueID>  (20) 
20

>  <SMILES>  (20) 
C=CCN1C(=O)C(=Cc2cccc(C(C)=O)c2)SC1=S

>  <Energy>  (20) 
57.589177426514944

>  <Genealogy>  (20) 
C=CCN1C(=O)C(=Cc2cccc(C(C)=O)c2)SC1=S (3D coordinates assigned)
C=CCN1C(=O)C(=Cc2cccc(C(C)=O)c2)SC1=S (nonaromatic ring conformer: 57.589177426514944 kcal/mol)

>  <smiles>  (20) 
C=CCN1C(=O)C(=Cc2cccc(C(C)=O)c2)SC1=S

>  <score_type>  (20) 
oracle

>  <origin>  (20) 
adg

>  <m_score__min__energy>  (20) 
-7.9400000000000004

>  <m_primary>  (20) 
energy

$$$$
20:0
     RDKit          3D

 53 56  0  0  0  0  0  0  0  0999 V2000
   56.8840   33.4200   46.5250 O   0  0  0  0  0  0  0  0  0  0  0  0
   57.7080   33.3120   45.5770 C   0  0  0  0  0  0  0  0  0  0  0  0
   59.0370   34.0090   45.6750 C   0  0  0  0  0  0  0  0  0  0  0  0
   59.3310   34.4760   47.1060 C   0  0  0  0  0  0  0  0  0  0  0  0
   60.0960   33.4420   47.8870 C   0  0  0  0  0  0  0  0  0  0  0  0
   59.6090   32.5510   48.8520 C   0  0  0  0  0  0  0  0  0  0  0  0
   58.1720   32.3440   49.2370 C   0  0  0  0  0  0  0  0  0  0  0  0
   58.0410   32.2140   50.7300 C   0  0  0  0  0  0  0  0  0  0  0  0
   58.6900   33.1270   51.5780 C   0  0  0  0  0  0  0  0  0  0  0  0
   58.5900   32.9960   52.9660 C   0  0  0  0  0  0  0  0  0  0  0  0
   57.8420   31.9540   53.5190 C   0  0  0  0  0  0  0  0  0  0  0  0
   57.1900   31.0400   52.6840 C   0  0  0  0  0  0  0  0  0  0  0  0
   56.2510   29.7310   53.3810 Cl  0  0  0  0  0  0  0  0  0  0  0  0
   57.2880   31.1680   51.2940 C   0  0  0  0  0  0  0  0  0  0  0  0
   60.6210   31.8110   49.3640 N   0  0  0  0  0  0  0  0  0  0  0  0
   61.7380   32.2310   48.7520 C   0  0  0  0  0  0  0  0  0  0  0  0
   63.0370   31.7630   48.9500 C   0  0  0  0  0  0  0  0  0  0  0  0
   64.0690   32.3470   48.1950 C   0  0  0  0  0  0  0  0  0  0  0  0
   63.7850   33.3740   47.2690 C   0  0  0  0  0  0  0  0  0  0  0  0
   62.4660   33.8270   47.0880 C   0  0  0  0  0  0  0  0  0  0  0  0
   61.4610   33.2280   47.8500 C   0  0  0  0  0  0  0  0  0  0  0  0
   57.3670   32.4770   44.4140 C   0  0  0  0  0  0  0  0  0  0  0  0
   57.9890   32.6200   43.3270 O   0  0  0  0  0  0  0  0  0  0  0  0
   56.3340   31.4950   44.5270 N   0  0  0  0  0  0  0  0  0  0  0  0
   56.6570   29.7940   44.4690 S   0  0  0  0  0  0  0  0  0  0  0  0
   55.5300   29.0480   45.1280 O   0  0  0  0  0  0  0  0  0  0  0  0
   56.7440   29.3560   43.0350 O   0  0  0  0  0  0  0  0  0  0  0  0
   58.1850   29.4500   45.2740 C   0  0  0  0  0  0  0  0  0  0  0  0
   58.3780   29.7980   46.6200 C   0  0  0  0  0  0  0  0  0  0  0  0
   59.5970   29.5270   47.2470 C   0  0  0  0  0  0  0  0  0  0  0  0
   60.6300   28.9120   46.5330 C   0  0  0  0  0  0  0  0  0  0  0  0
   60.4460   28.5700   45.1900 C   0  0  0  0  0  0  0  0  0  0  0  0
   59.2260   28.8390   44.5610 C   0  0  0  0  0  0  0  0  0  0  0  0
   59.8280   33.3136   45.3578 H   0  0  0  0  0  0  0  0  0  0  0  0
   59.0066   34.8961   45.0253 H   0  0  0  0  0  0  0  0  0  0  0  0
   59.9249   35.4009   47.0634 H   0  0  0  0  0  0  0  0  0  0  0  0
   58.3700   34.6452   47.6139 H   0  0  0  0  0  0  0  0  0  0  0  0
   57.5779   33.2042   48.8948 H   0  0  0  0  0  0  0  0  0  0  0  0
   57.8066   31.4198   48.7656 H   0  0  0  0  0  0  0  0  0  0  0  0
   59.2800   33.9494   51.1473 H   0  0  0  0  0  0  0  0  0  0  0  0
   59.1011   33.7145   53.6237 H   0  0  0  0  0  0  0  0  0  0  0  0
   57.7655   31.8519   54.6116 H   0  0  0  0  0  0  0  0  0  0  0  0
   56.7744   30.4481   50.6399 H   0  0  0  0  0  0  0  0  0  0  0  0
   60.5460   31.0590   50.0870 H   0  0  0  0  0  0  0  0  0  0  0  0
   63.2472   30.9621   49.6742 H   0  0  0  0  0  0  0  0  0  0  0  0
   65.1050   32.0014   48.3267 H   0  0  0  0  0  0  0  0  0  0  0  0
   64.6015   33.8233   46.6847 H   0  0  0  0  0  0  0  0  0  0  0  0
   62.2337   34.6270   46.3697 H   0  0  0  0  0  0  0  0  0  0  0  0
   57.5679   30.2851   47.1825 H   0  0  0  0  0  0  0  0  0  0  0  0
   59.7441   29.7977   48.3030 H   0  0  0  0  0  0  0  0  0  0  0  0
   61.5883   28.6971   47.0285 H   0  0  0  0  0  0  0  0  0  0  0  0
   61.2605   28.0895   44.6281 H   0  0  0  0  0  0  0  0  0  0  0  0
   59.0830   28.5704   43.5039 H   0  0  0  0  0  0  0  0  0  0  0  0
  1  2  2  0
  2  3  1  0
  3  4  1  0
  4  5  1  0
  5  6  2  0
  6  7  1  0
  7  8  1  0
  8  9  2  0
  9 10  1  0
 10 11  2  0
 11 12  1  0
 12 13  1  0
 12 14  2  0
  6 15  1  0
 15 16  1  0
 16 17  2  0
 17 18  1  0
 18 19  2  0
 19 20  1  0
 20 21  2  0
  2 22  1  0
 22 23  2  0
 22 24  1  0
 24 25  1  0
 25 26  2  0
 25 27  2  0
 25 28  1  0
 28 29  2  0
 29 30  1  0
 30 31  2  0
 31 32  1  0
 32 33  2  0
 21  5  1  0
 33 28  1  0
 14  8  1  0
 21 16  1  0
  3 34  1  0
  3 35  1  0
  4 36  1  0
  4 37  1  0
  7 38  1  0
  7 39  1  0
  9 40  1  0
 10 41  1  0
 11 42  1  0
 14 43  1  0
 15 44  1  0
 17 45  1  0
 18 46  1  0
 19 47  1  0
 20 48  1  0
 29 49  1  0
 30 50  1  0
 31 51  1  0
 32 52  1  0
 33 53  1  0
M  CHG  1  24  -1
M  END
>  <UniqueID>  (21) 
21

>  <SMILES>  (21) 
O=C(CCc1c(Cc2cccc(Cl)c2)[nH]c2ccccc12)C(=O)[N-]S(=O)(=O)c1ccccc1

>  <Energy>  (21) 
84.09008864558605

>  <Genealogy>  (21) 
O=C(CCc1c(Cc2cccc(Cl)c2)[nH]c2ccccc12)C(=O)[N-]S(=O)(=O)c1ccccc1 (protonated)
O=C(CCc1c(Cc2cccc(Cl)c2)[nH]c2ccccc12)C(=O)[N-]S(=O)(=O)c1ccccc1 (3D coordinates assigned)
O=C(CCc1c(Cc2cccc(Cl)c2)[nH]c2ccccc12)C(=O)[N-]S(=O)(=O)c1ccccc1 (optimized conformer: 84.09008864558605 kcal/mol)

>  <smiles>  (21) 
O=C(CCc1c(Cc2cccc(Cl)c2)[nH]c2ccccc12)C(=O)NS(=O)(=O)c1ccccc1

>  <score_type>  (21) 
oracle

>  <origin>  (21) 
adg

>  <m_score__min__energy>  (21) 
-11.449999999999999

>  <m_primary>  (21) 
energy

$$$$
21:0
     RDKit          3D

 55 58  0  0  0  0  0  0  0  0999 V2000
   61.6706   27.0124   53.1894 H   0  0  0  0  0  0  0  0  0  0  0  0
   61.1720   27.5830   52.3920 C   0  0  0  0  0  0  0  0  0  0  0  0
   60.4460   28.6890   52.7030 N   0  0  0  0  0  0  0  0  0  0  0  0
   59.8020   29.4240   51.7570 C   0  0  0  0  0  0  0  0  0  0  0  0
   59.1180   30.4670   52.1350 N   0  0  0  0  0  0  0  0  0  0  0  0
   57.8780   30.9230   51.5790 C   0  0  0  0  0  0  0  0  0  0  0  0
   56.9220   30.1130   51.4710 O   0  0  0  0  0  0  0  0  0  0  0  0
   57.7790   32.2890   50.9530 C   0  0  0  0  0  0  0  0  0  0  0  0
   57.7610   33.0441   51.7526 H   0  0  0  0  0  0  0  0  0  0  0  0
   56.8580   32.3180   50.3523 H   0  0  0  0  0  0  0  0  0  0  0  0
   58.9390   32.5830   50.0340 C   0  0  0  0  0  0  0  0  0  0  0  0
   59.1270   31.8340   48.8620 C   0  0  0  0  0  0  0  0  0  0  0  0
   58.4302   31.0192   48.6158 H   0  0  0  0  0  0  0  0  0  0  0  0
   60.1950   32.1180   48.0060 C   0  0  0  0  0  0  0  0  0  0  0  0
   60.3380   31.5174   47.0956 H   0  0  0  0  0  0  0  0  0  0  0  0
   61.0840   33.1590   48.2960 C   0  0  0  0  0  0  0  0  0  0  0  0
   62.1350   33.4110   47.3990 O   0  0  0  0  0  0  0  0  0  0  0  0
   63.2810   32.5770   47.2460 C   0  0  0  0  0  0  0  0  0  0  0  0
   63.6657   32.2970   48.2377 H   0  0  0  0  0  0  0  0  0  0  0  0
   63.0023   31.6690   46.6911 H   0  0  0  0  0  0  0  0  0  0  0  0
   64.0592   33.1214   46.6911 H   0  0  0  0  0  0  0  0  0  0  0  0
   60.8920   33.9160   49.4670 C   0  0  0  0  0  0  0  0  0  0  0  0
   61.5833   34.7374   49.7067 H   0  0  0  0  0  0  0  0  0  0  0  0
   59.8280   33.6300   50.3270 C   0  0  0  0  0  0  0  0  0  0  0  0
   59.6860   34.2286   51.2389 H   0  0  0  0  0  0  0  0  0  0  0  0
   59.9230   29.0510   50.4040 C   0  0  0  0  0  0  0  0  0  0  0  0
   59.4262   29.6454   49.6231 H   0  0  0  0  0  0  0  0  0  0  0  0
   60.6740   27.9260   50.0540 C   0  0  0  0  0  0  0  0  0  0  0  0
   60.7580   27.5660   48.7020 O   0  0  0  0  0  0  0  0  0  0  0  0
   59.9310   28.0400   47.6750 C   0  0  0  0  0  0  0  0  0  0  0  0
   58.7090   27.4260   47.3500 C   0  0  0  0  0  0  0  0  0  0  0  0
   58.3586   26.5591   47.9294 H   0  0  0  0  0  0  0  0  0  0  0  0
   57.9600   27.9020   46.3210 N   0  0  0  0  0  0  0  0  0  0  0  0
   58.3570   28.9650   45.5650 C   0  0  0  0  0  0  0  0  0  0  0  0
   57.6350   29.4010   44.5720 N   0  0  0  0  0  0  0  0  0  0  0  0
   56.3660   30.0690   44.6470 C   0  0  0  0  0  0  0  0  0  0  0  0
   55.3380   29.3800   44.8710 O   0  0  0  0  0  0  0  0  0  0  0  0
   56.2730   31.4940   44.5010 N   0  0  0  0  0  0  0  0  0  0  0  0
   57.2260   32.5040   44.8690 C   0  0  0  0  0  0  0  0  0  0  0  0
   57.0930   33.1050   46.1290 C   0  0  0  0  0  0  0  0  0  0  0  0
   56.2729   32.7990   46.7952 H   0  0  0  0  0  0  0  0  0  0  0  0
   57.9940   34.0900   46.5460 C   0  0  0  0  0  0  0  0  0  0  0  0
   57.8741   34.5633   47.5317 H   0  0  0  0  0  0  0  0  0  0  0  0
   59.0470   34.4730   45.7100 C   0  0  0  0  0  0  0  0  0  0  0  0
   59.7525   35.2518   46.0352 H   0  0  0  0  0  0  0  0  0  0  0  0
   59.2030   33.8650   44.4590 C   0  0  0  0  0  0  0  0  0  0  0  0
   60.0334   34.1651   43.8029 H   0  0  0  0  0  0  0  0  0  0  0  0
   58.3060   32.8770   44.0410 C   0  0  0  0  0  0  0  0  0  0  0  0
   58.4426   32.3895   43.0645 H   0  0  0  0  0  0  0  0  0  0  0  0
   59.5760   29.5930   45.8500 C   0  0  0  0  0  0  0  0  0  0  0  0
   59.9127   30.4494   45.2473 H   0  0  0  0  0  0  0  0  0  0  0  0
   60.3610   29.1230   46.9060 C   0  0  0  0  0  0  0  0  0  0  0  0
   61.3218   29.6083   47.1324 H   0  0  0  0  0  0  0  0  0  0  0  0
   61.2870   27.1690   51.0650 C   0  0  0  0  0  0  0  0  0  0  0  0
   61.8519   26.2593   50.8134 H   0  0  0  0  0  0  0  0  0  0  0  0
  1  2  1  0
  2  3  1  0
  3  4  1  0
  4  5  2  3
  5  6  1  0
  6  7  2  0
  6  8  1  0
  8  9  1  0
  8 10  1  0
  8 11  1  0
 11 12  2  0
 12 13  1  0
 12 14  1  0
 14 15  1  0
 14 16  2  0
 16 17  1  0
 17 18  1  0
 18 19  1  0
 18 20  1  0
 18 21  1  0
 16 22  1  0
 22 23  1  0
 22 24  2  0
 24 25  1  0
  4 26  1  0
 26 27  1  0
 26 28  2  0
 28 29  1  0
 29 30  1  0
 30 31  2  0
 31 32  1  0
 31 33  1  0
 33 34  1  0
 34 35  2  0
 35 36  1  0
 36 37  2  0
 36 38  1  0
 38 39  1  0
 39 40  2  0
 40 41  1  0
 40 42  1  0
 42 43  1  0
 42 44  2  0
 44 45  1  0
 44 46  1  0
 46 47  1  0
 46 48  2  0
 48 49  1  0
 34 50  1  0
 50 51  1  0
 50 52  2  0
 52 53  1  0
 28 54  1  0
 54 55  1  0
 54  2  2  0
 24 11  1  0
 52 30  1  0
 48 39  1  0
M  CHG  3   3  -1  33  -1  38  -1
M  END
>  <UniqueID>  (22) 
22

>  <SMILES>  (22) 
COc1ccc(CC(=O)N=c2cc(Oc3cc/c(=N/C(=O)[N-]c4ccccc4)[n-]c3)cc[n-]2)cc1

>  <Energy>  (22) 
82.4922392484919

>  <Genealogy>  (22) 
COc1ccc(CC(=O)N=c2cc(Oc3ccc(=NC(=O)[N-]c4ccccc4)[n-]c3)cc[n-]2)cc1 (protonated)
COc1ccc(CC(=O)N=c2cc(Oc3cc/c(=N/C(=O)[N-]c4ccccc4)[n-]c3)cc[n-]2)cc1 (cis-trans isomerization)
COc1ccc(CC(=O)N=c2cc(Oc3cc/c(=N/C(=O)[N-]c4ccccc4)[n-]c3)cc[n-]2)cc1 (3D coordinates assigned)
COc1ccc(CC(=O)N=c2cc(Oc3cc/c(=N/C(=O)[N-]c4ccccc4)[n-]c3)cc[n-]2)cc1 (optimized conformer: 82.4922392484919 kcal/mol)

>  <smiles>  (22) 
COc1ccc(CC(=O)N=c2cc(Oc3ccc(=NC(=O)Nc4ccccc4)[nH]c3)cc[nH]2)cc1

>  <score_type>  (22) 
oracle

>  <origin>  (22) 
adg

>  <m_score__min__energy>  (22) 
-12.279999999999999

>  <m_primary>  (22) 
energy

$$$$
22:0
     RDKit          3D

 64 67  0  0  0  0  0  0  0  0999 V2000
   64.6735   32.9832   47.6718 H   0  0  0  0  0  0  0  0  0  0  0  0
   63.6070   32.8490   47.4380 C   0  0  0  0  0  0  0  0  0  0  0  0
   62.9490   31.6790   47.8260 C   0  0  0  0  0  0  0  0  0  0  0  0
   63.5029   30.8838   48.3465 H   0  0  0  0  0  0  0  0  0  0  0  0
   61.5860   31.5180   47.5530 C   0  0  0  0  0  0  0  0  0  0  0  0
   61.0681   30.6015   47.8719 H   0  0  0  0  0  0  0  0  0  0  0  0
   60.8770   32.5210   46.8740 C   0  0  0  0  0  0  0  0  0  0  0  0
   59.3790   32.4160   46.7110 C   0  0  0  0  0  0  0  0  0  0  0  0
   58.8966   32.5984   47.6826 H   0  0  0  0  0  0  0  0  0  0  0  0
   59.1333   31.4080   46.3455 H   0  0  0  0  0  0  0  0  0  0  0  0
   58.8660   33.4530   45.6880 C   0  0  1  0  0  0  0  0  0  0  0  0
   59.6282   34.2449   45.6429 H   0  0  0  0  0  0  0  0  0  0  0  0
   58.7650   32.8800   44.3390 N   0  0  0  0  0  0  0  0  0  0  0  0
   58.0560   31.8840   43.8800 C   0  0  0  0  0  0  0  0  0  0  0  0
   57.9160   30.7570   44.6960 C   0  0  0  0  0  0  0  0  0  0  0  0
   58.4663   30.6938   45.6464 H   0  0  0  0  0  0  0  0  0  0  0  0
   57.0740   29.7080   44.3020 C   0  0  0  0  0  0  0  0  0  0  0  0
   56.7890   28.6450   45.1650 O   0  0  0  0  0  0  0  0  0  0  0  0
   57.7220   28.2180   46.1130 C   0  0  0  0  0  0  0  0  0  0  0  0
   58.1570   29.1090   47.1000 C   0  0  0  0  0  0  0  0  0  0  0  0
   57.7206   30.1170   47.1592 H   0  0  0  0  0  0  0  0  0  0  0  0
   59.1440   28.7230   48.0110 C   0  0  0  0  0  0  0  0  0  0  0  0
   59.4657   29.4201   48.7987 H   0  0  0  0  0  0  0  0  0  0  0  0
   59.7280   27.4450   47.9240 C   0  0  0  0  0  0  0  0  0  0  0  0
   60.7550   27.0180   48.8370 N   0  0  0  0  0  0  0  0  0  0  0  0
   61.5130   26.4030   48.4630 H   0  0  0  0  0  0  0  0  0  0  0  0
   60.8140   27.3430   50.2360 C   0  0  0  0  0  0  0  0  0  0  0  0
   61.4790   26.5960   51.0010 O   0  0  0  0  0  0  0  0  0  0  0  0
   60.1900   28.5320   50.7540 N   0  0  0  0  0  0  0  0  0  0  0  0
   59.8770   29.2720   50.0840 H   0  0  0  0  0  0  0  0  0  0  0  0
   59.9420   28.7450   52.1530 C   0  0  0  0  0  0  0  0  0  0  0  0
   60.4070   27.9520   53.0160 O   0  0  0  0  0  0  0  0  0  0  0  0
   59.1180   29.9160   52.6090 C   0  0  0  0  0  0  0  0  0  0  0  0
   58.0603   29.6149   52.6334 H   0  0  0  0  0  0  0  0  0  0  0  0
   59.4779   30.2100   53.6060 H   0  0  0  0  0  0  0  0  0  0  0  0
   59.2600   31.1120   51.6990 C   0  0  0  0  0  0  0  0  0  0  0  0
   58.3330   31.3550   50.6670 C   0  0  0  0  0  0  0  0  0  0  0  0
   57.4690   30.6863   50.5390 H   0  0  0  0  0  0  0  0  0  0  0  0
   58.5050   32.4420   49.8040 C   0  0  0  0  0  0  0  0  0  0  0  0
   57.7649   32.6384   49.0142 H   0  0  0  0  0  0  0  0  0  0  0  0
   59.6150   33.2790   49.9430 C   0  0  0  0  0  0  0  0  0  0  0  0
   59.7770   34.3370   49.1100 F   0  0  0  0  0  0  0  0  0  0  0  0
   60.5620   33.0230   50.9390 C   0  0  0  0  0  0  0  0  0  0  0  0
   61.4448   33.6717   51.0376 H   0  0  0  0  0  0  0  0  0  0  0  0
   60.3880   31.9430   51.8100 C   0  0  0  0  0  0  0  0  0  0  0  0
   61.1395   31.7423   52.5878 H   0  0  0  0  0  0  0  0  0  0  0  0
   59.2450   26.5390   46.9660 C   0  0  0  0  0  0  0  0  0  0  0  0
   59.6587   25.5208   46.9206 H   0  0  0  0  0  0  0  0  0  0  0  0
   58.2420   26.9210   46.0690 C   0  0  0  0  0  0  0  0  0  0  0  0
   57.8624   26.2010   45.3291 H   0  0  0  0  0  0  0  0  0  0  0  0
   56.4740   29.7510   43.0440 C   0  0  0  0  0  0  0  0  0  0  0  0
   55.8758   28.9007   42.6846 H   0  0  0  0  0  0  0  0  0  0  0  0
   56.6400   30.8840   42.2450 C   0  0  0  0  0  0  0  0  0  0  0  0
   56.1597   30.9313   41.2565 H   0  0  0  0  0  0  0  0  0  0  0  0
   57.3940   31.9320   42.6830 N   0  0  0  0  0  0  0  0  0  0  0  0
   57.4430   32.7610   42.0610 H   0  0  0  0  0  0  0  0  0  0  0  0
   57.5830   34.1710   46.1330 C   0  0  0  0  0  0  0  0  0  0  0  0
   57.5389   34.1957   47.2318 H   0  0  0  0  0  0  0  0  0  0  0  0
   57.5843   35.1995   45.7429 H   0  0  0  0  0  0  0  0  0  0  0  0
   56.7070   33.6320   45.7429 H   0  0  0  0  0  0  0  0  0  0  0  0
   61.5550   33.6840   46.4630 C   0  0  0  0  0  0  0  0  0  0  0  0
   61.0142   34.4666   45.9107 H   0  0  0  0  0  0  0  0  0  0  0  0
   62.9110   33.8490   46.7530 C   0  0  0  0  0  0  0  0  0  0  0  0
   63.4318   34.7667   46.4421 H   0  0  0  0  0  0  0  0  0  0  0  0
  1  2  1  0
  2  3  2  0
  3  4  1  0
  3  5  1  0
  5  6  1  0
  5  7  2  0
  7  8  1  0
  8  9  1  0
  8 10  1  0
  8 11  1  0
 11 12  1  6
 11 13  1  0
 13 14  2  0
 14 15  1  0
 15 16  1  0
 15 17  2  0
 17 18  1  0
 18 19  1  0
 19 20  2  0
 20 21  1  0
 20 22  1  0
 22 23  1  0
 22 24  2  0
 24 25  1  0
 25 26  1  0
 25 27  1  0
 27 28  2  0
 27 29  1  0
 29 30  1  0
 29 31  1  0
 31 32  2  0
 31 33  1  0
 33 34  1  0
 33 35  1  0
 33 36  1  0
 36 37  2  0
 37 38  1  0
 37 39  1  0
 39 40  1  0
 39 41  2  0
 41 42  1  0
 41 43  1  0
 43 44  1  0
 43 45  2  0
 45 46  1  0
 24 47  1  0
 47 48  1  0
 47 49  2  0
 49 50  1  0
 17 51  1  0
 51 52  1  0
 51 53  2  0
 53 54  1  0
 53 55  1  0
 55 56  1  0
 11 57  1  0
 57 58  1  0
 57 59  1  0
 57 60  1  0
  7 61  1  0
 61 62  1  0
 61 63  2  0
 63 64  1  0
 63  2  1  0
 55 14  1  0
 49 19  1  0
 45 36  1  0
M  END
>  <UniqueID>  (23) 
23

>  <SMILES>  (23) 
C[C@@H](Cc1ccccc1)/N=c1/cc(Oc2ccc(NC(=O)NC(=O)Cc3ccc(F)cc3)cc2)cc[nH]1

>  <Energy>  (23) 
83.74399600128517

>  <Genealogy>  (23) 
C[C@@H](Cc1ccccc1)N=c1cc(Oc2ccc(NC(=O)NC(=O)Cc3ccc(F)cc3)cc2)cc[nH]1 (chirality)
C[C@@H](Cc1ccccc1)/N=c1/cc(Oc2ccc(NC(=O)NC(=O)Cc3ccc(F)cc3)cc2)cc[nH]1 (cis-trans isomerization)
C[C@@H](Cc1ccccc1)/N=c1/cc(Oc2ccc(NC(=O)NC(=O)Cc3ccc(F)cc3)cc2)cc[nH]1 (3D coordinates assigned)
C[C@@H](Cc1ccccc1)/N=c1/cc(Oc2ccc(NC(=O)NC(=O)Cc3ccc(F)cc3)cc2)cc[nH]1 (optimized conformer: 83.74399600128517 kcal/mol)

>  <smiles>  (23) 
CC(Cc1ccccc1)N=c1cc(Oc2ccc(NC(=O)NC(=O)Cc3ccc(F)cc3)cc2)cc[nH]1

>  <score_type>  (23) 
oracle

>  <origin>  (23) 
adg

>  <m_score__min__energy>  (23) 
-9.1600000000000001

>  <m_primary>  (23) 
energy

$$$$
23:0
     RDKit          3D

 51 54  0  0  1  0  0  0  0  0999 V2000
   65.1800   32.2910   49.7360 C   0  0  0  0  0  0  0  0  0  0  0  0
   64.0090   32.5190   48.8460 C   0  0  0  0  0  0  0  0  0  0  0  0
   63.9760   33.4760   47.8630 C   0  0  0  0  0  0  0  0  0  0  0  0
   62.8560   33.6430   47.0630 C   0  0  0  0  0  0  0  0  0  0  0  0
   61.7430   32.8220   47.2620 C   0  0  0  0  0  0  0  0  0  0  0  0
   60.5780   33.0510   46.3720 C   0  0  1  0  0  0  0  0  0  0  0  0
   59.3740   32.2660   46.8330 C   0  0  0  0  0  0  0  0  0  0  0  0
   58.1760   32.9050   46.3110 N   0  0  0  0  0  0  0  0  0  0  0  0
   58.0700   32.8050   44.8930 C   0  0  0  0  0  0  0  0  0  0  0  0
   57.5380   31.5360   44.3780 C   0  0  0  0  0  0  0  0  0  0  0  0
   57.1620   31.3520   43.0430 C   0  0  0  0  0  0  0  0  0  0  0  0
   56.6600   30.1530   42.5840 C   0  0  0  0  0  0  0  0  0  0  0  0
   56.5490   29.1600   43.4860 N   0  0  0  0  0  0  0  0  0  0  0  0
   56.9160   29.3550   44.7630 C   0  0  0  0  0  0  0  0  0  0  0  0
   56.7960   28.3790   45.6050 N   0  0  0  0  0  0  0  0  0  0  0  0
   57.9310   27.9050   46.3390 C   0  0  0  0  0  0  0  0  0  0  0  0
   58.3390   26.6130   46.0790 C   0  0  0  0  0  0  0  0  0  0  0  0
   59.4220   26.1210   46.7600 C   0  0  0  0  0  0  0  0  0  0  0  0
   60.0600   26.9240   47.6720 C   0  0  0  0  0  0  0  0  0  0  0  0
   61.1350   26.3850   48.3250 F   0  0  0  0  0  0  0  0  0  0  0  0
   59.6570   28.2230   47.9390 C   0  0  0  0  0  0  0  0  0  0  0  0
   58.5650   28.6990   47.2420 C   0  0  0  0  0  0  0  0  0  0  0  0
   57.4060   30.5100   45.2380 N   0  0  0  0  0  0  0  0  0  0  0  0
   58.0260   34.2160   46.8530 C   0  0  0  0  0  0  0  0  0  0  0  0
   59.3540   34.8980   47.0980 C   0  0  0  0  0  0  0  0  0  0  0  0
   60.3540   34.3990   46.2940 O   0  0  0  0  0  0  0  0  0  0  0  0
   61.7770   31.8630   48.2470 C   0  0  0  0  0  0  0  0  0  0  0  0
   62.9120   31.7040   49.0480 C   0  0  0  0  0  0  0  0  0  0  0  0
   64.8598   32.3534   50.7865 H   0  0  0  0  0  0  0  0  0  0  0  0
   65.6012   31.2940   49.5396 H   0  0  0  0  0  0  0  0  0  0  0  0
   65.9445   33.0572   49.5396 H   0  0  0  0  0  0  0  0  0  0  0  0
   64.8529   34.1215   47.7071 H   0  0  0  0  0  0  0  0  0  0  0  0
   62.8437   34.4145   46.2790 H   0  0  0  0  0  0  0  0  0  0  0  0
   60.7886   32.6799   45.3581 H   0  0  0  0  0  0  0  0  0  0  0  0
   59.4378   31.2344   46.4565 H   0  0  0  0  0  0  0  0  0  0  0  0
   59.3389   32.2425   47.9322 H   0  0  0  0  0  0  0  0  0  0  0  0
   57.4091   33.6131   44.5465 H   0  0  0  0  0  0  0  0  0  0  0  0
   59.0995   32.8733   44.5116 H   0  0  0  0  0  0  0  0  0  0  0  0
   57.2703   32.1896   42.3382 H   0  0  0  0  0  0  0  0  0  0  0  0
   56.3649   30.0146   41.5334 H   0  0  0  0  0  0  0  0  0  0  0  0
   56.1740   28.2350   43.1810 H   0  0  0  0  0  0  0  0  0  0  0  0
   57.8077   25.9923   45.3425 H   0  0  0  0  0  0  0  0  0  0  0  0
   59.7754   25.0954   46.5778 H   0  0  0  0  0  0  0  0  0  0  0  0
   60.1848   28.8476   48.6747 H   0  0  0  0  0  0  0  0  0  0  0  0
   58.2066   29.7240   47.4177 H   0  0  0  0  0  0  0  0  0  0  0  0
   57.4420   34.8247   46.1470 H   0  0  0  0  0  0  0  0  0  0  0  0
   57.5161   34.1199   47.8229 H   0  0  0  0  0  0  0  0  0  0  0  0
   59.2418   35.9736   46.8965 H   0  0  0  0  0  0  0  0  0  0  0  0
   59.6394   34.7128   48.1441 H   0  0  0  0  0  0  0  0  0  0  0  0
   60.9028   31.2147   48.4063 H   0  0  0  0  0  0  0  0  0  0  0  0
   62.9313   30.9348   49.8341 H   0  0  0  0  0  0  0  0  0  0  0  0
  1  2  1  0
  2  3  2  0
  3  4  1  0
  4  5  2  0
  5  6  1  0
  6  7  1  0
  7  8  1  0
  8  9  1  0
  9 10  1  0
 10 11  1  0
 11 12  2  0
 12 13  1  0
 13 14  1  0
 14 15  2  0
 15 16  1  0
 16 17  2  0
 17 18  1  0
 18 19  2  0
 19 20  1  0
 19 21  1  0
 21 22  2  0
 14 23  1  0
  8 24  1  0
 24 25  1  0
 25 26  1  0
  5 27  1  0
 27 28  2  0
 28  2  1  0
 26  6  1  0
 23 10  2  0
 22 16  1  0
  1 29  1  0
  1 30  1  0
  1 31  1  0
  3 32  1  0
  4 33  1  0
  6 34  1  6
  7 35  1  0
  7 36  1  0
  9 37  1  0
  9 38  1  0
 11 39  1  0
 12 40  1  0
 13 41  1  0
 17 42  1  0
 18 43  1  0
 21 44  1  0
 22 45  1  0
 24 46  1  0
 24 47  1  0
 25 48  1  0
 25 49  1  0
 27 50  1  0
 28 51  1  0
M  END
>  <smiles>  (24) 
Cc1ccc(C2CN(Cc3cc[nH]c(=Nc4ccc(F)cc4)n3)CCO2)cc1

>  <score_type>  (24) 
oracle

>  <origin>  (24) 
adg

>  <m_score__min__energy>  (24) 
-9.1699999999999999

>  <m_primary>  (24) 
energy

$$$$
24:0
     RDKit          3D

 50 52  0  0  0  0  0  0  0  0999 V2000
   59.4320   29.1550   48.6210 C   0  0  0  0  0  0  0  0  0  0  0  0
   58.9150   29.9320   47.6560 C   0  0  0  0  0  0  0  0  0  0  0  0
   58.5200   29.5180   46.3770 C   0  0  0  0  0  0  0  0  0  0  0  0
   58.5550   28.2620   45.8830 C   0  0  0  0  0  0  0  0  0  0  0  0
   57.4550   27.2780   45.9890 C   0  0  0  0  0  0  0  0  0  0  0  0
   57.5610   26.0570   46.5460 N   0  0  0  0  0  0  0  0  0  0  0  0
   56.3060   25.5680   46.4840 C   0  0  0  0  0  0  0  0  0  0  0  0
   56.0020   24.4230   46.9100 O   0  0  0  0  0  0  0  0  0  0  0  0
   55.4000   26.4030   45.9350 N   0  0  0  0  0  0  0  0  0  0  0  0
   56.1380   27.4840   45.6320 C   0  0  0  0  0  0  0  0  0  0  0  0
   55.6050   28.6240   45.0340 O   0  0  0  0  0  0  0  0  0  0  0  0
   58.0590   30.6580   45.7310 C   0  0  0  0  0  0  0  0  0  0  0  0
   58.1850   31.7030   46.6230 C   0  0  0  0  0  0  0  0  0  0  0  0
   57.8310   33.1290   46.3050 C   0  0  0  0  0  0  0  0  0  0  0  0
   58.8600   33.7210   45.3860 C   0  0  0  0  0  0  0  0  0  0  0  0
   59.8230   34.5290   45.8440 C   0  0  0  0  0  0  0  0  0  0  0  0
   60.8500   34.1180   46.8280 C   0  0  0  0  0  0  0  0  0  0  0  0
   60.7980   34.4880   48.1850 C   0  0  0  0  0  0  0  0  0  0  0  0
   61.8130   34.0730   49.0490 C   0  0  0  0  0  0  0  0  0  0  0  0
   62.8720   33.2890   48.5720 C   0  0  0  0  0  0  0  0  0  0  0  0
   63.9570   32.8620   49.4810 C   0  0  0  0  0  0  0  0  0  0  0  0
   65.0840   33.4220   49.3950 O   0  0  0  0  0  0  0  0  0  0  0  0
   63.7520   31.8280   50.4640 N   0  0  0  0  0  0  0  0  0  0  0  0
   64.8930   31.0280   50.9120 C   0  0  0  0  0  0  0  0  0  0  0  0
   62.5090   31.7980   51.2400 C   0  0  0  0  0  0  0  0  0  0  0  0
   62.9040   32.9710   47.2070 C   0  0  0  0  0  0  0  0  0  0  0  0
   61.9080   33.3870   46.3820 N   0  0  0  0  0  0  0  0  0  0  0  0
   58.7100   31.2670   47.7920 N   0  0  0  0  0  0  0  0  0  0  0  0
   59.0230   32.0770   48.9740 C   0  0  0  0  0  0  0  0  0  0  0  0
   59.7069   29.5933   49.5918 H   0  0  0  0  0  0  0  0  0  0  0  0
   59.5807   28.0801   48.4409 H   0  0  0  0  0  0  0  0  0  0  0  0
   59.4709   27.9462   45.3621 H   0  0  0  0  0  0  0  0  0  0  0  0
   54.6840   28.9700   45.2700 H   0  0  0  0  0  0  0  0  0  0  0  0
   57.6682   30.7165   44.7044 H   0  0  0  0  0  0  0  0  0  0  0  0
   56.8458   33.1595   45.8166 H   0  0  0  0  0  0  0  0  0  0  0  0
   57.8031   33.7107   47.2382 H   0  0  0  0  0  0  0  0  0  0  0  0
   58.8213   33.4852   44.3123 H   0  0  0  0  0  0  0  0  0  0  0  0
   59.8536   35.5617   45.4664 H   0  0  0  0  0  0  0  0  0  0  0  0
   59.9645   35.0991   48.5616 H   0  0  0  0  0  0  0  0  0  0  0  0
   61.7813   34.3629   50.1096 H   0  0  0  0  0  0  0  0  0  0  0  0
   64.9189   31.0098   52.0115 H   0  0  0  0  0  0  0  0  0  0  0  0
   64.7931   30.0011   50.5306 H   0  0  0  0  0  0  0  0  0  0  0  0
   65.8244   31.4719   50.5306 H   0  0  0  0  0  0  0  0  0  0  0  0
   62.7470   31.8037   52.3139 H   0  0  0  0  0  0  0  0  0  0  0  0
   61.9019   32.6818   50.9942 H   0  0  0  0  0  0  0  0  0  0  0  0
   61.9452   30.8860   50.9942 H   0  0  0  0  0  0  0  0  0  0  0  0
   63.7398   32.3817   46.8019 H   0  0  0  0  0  0  0  0  0  0  0  0
   58.8000   31.4999   49.8835 H   0  0  0  0  0  0  0  0  0  0  0  0
   60.0896   32.3456   48.9625 H   0  0  0  0  0  0  0  0  0  0  0  0
   58.4141   32.9930   48.9625 H   0  0  0  0  0  0  0  0  0  0  0  0
  1  2  2  0
  2  3  1  0
  3  4  2  3
  4  5  1  0
  5  6  1  0
  6  7  1  0
  7  8  2  0
  7  9  1  0
  9 10  1  0
 10 11  1  0
  3 12  1  0
 12 13  2  0
 13 14  1  0
 14 15  1  0
 15 16  2  3
 16 17  1  0
 17 18  2  0
 18 19  1  0
 19 20  2  0
 20 21  1  0
 21 22  2  0
 21 23  1  0
 23 24  1  0
 23 25  1  0
 20 26  1  0
 26 27  2  0
 13 28  1  0
 28 29  1  0
 28  2  1  0
 10  5  2  0
 27 17  1  0
  1 30  1  0
  1 31  1  0
  4 32  1  0
 11 33  1  0
 12 34  1  0
 14 35  1  0
 14 36  1  0
 15 37  1  0
 16 38  1  0
 18 39  1  0
 19 40  1  0
 24 41  1  0
 24 42  1  0
 24 43  1  0
 25 44  1  0
 25 45  1  0
 25 46  1  0
 26 47  1  0
 29 48  1  0
 29 49  1  0
 29 50  1  0
M  CHG  2   6  -1   9  -1
M  END
>  <UniqueID>  (25) 
24

>  <SMILES>  (25) 
C=c1c(=Cc2[n-]c(=O)[n-]c2O)cc(CC=Cc2ccc(C(=O)N(C)C)cn2)n1C

>  <Energy>  (25) 
118.00772332691531

>  <Genealogy>  (25) 
C=c1c(=Cc2[n-]c(=O)[n-]c2O)cc(CC=Cc2ccc(C(=O)N(C)C)cn2)n1C (protonated)
C=c1c(=Cc2[n-]c(=O)[n-]c2O)cc(CC=Cc2ccc(C(=O)N(C)C)cn2)n1C (3D coordinates assigned)
C=c1c(=Cc2[n-]c(=O)[n-]c2O)cc(CC=Cc2ccc(C(=O)N(C)C)cn2)n1C (optimized conformer: 118.00772332691531 kcal/mol)

>  <smiles>  (25) 
C=c1c(=Cc2[nH]c(=O)[nH]c2O)cc(CC=Cc2ccc(C(=O)N(C)C)cn2)n1C

>  <score_type>  (25) 
oracle

>  <origin>  (25) 
adg

>  <m_score__min__energy>  (25) 
-13.550000000000001

>  <m_primary>  (25) 
energy

$$$$
25:0
     RDKit          3D

 61 64  0  0  0  0  0  0  0  0999 V2000
   63.6290   30.8100   50.8970 C   0  0  0  0  0  0  0  0  0  0  0  0
   62.2310   31.4000   51.0630 C   0  0  0  0  0  0  0  0  0  0  0  0
   61.1820   30.4820   50.4790 C   0  0  0  0  0  0  0  0  0  0  0  0
   60.8180   29.5380   51.1680 O   0  0  0  0  0  0  0  0  0  0  0  0
   60.5430   30.6950   49.1850 N   0  0  0  0  0  0  0  0  0  0  0  0
   59.0630   30.5890   49.2130 C   0  0  0  0  0  0  0  0  0  0  0  0
   58.5230   29.1650   49.0200 C   0  0  0  0  0  0  0  0  0  0  0  0
   59.2190   28.4960   47.9220 N   0  0  0  0  0  0  0  0  0  0  0  0
   58.4860   27.6600   47.0110 C   0  0  0  0  0  0  0  0  0  0  0  0
   58.0500   26.3940   47.4360 C   0  0  0  0  0  0  0  0  0  0  0  0
   57.2920   25.5860   46.5880 C   0  0  0  0  0  0  0  0  0  0  0  0
   56.9610   26.0320   45.3080 C   0  0  0  0  0  0  0  0  0  0  0  0
   57.3940   27.2840   44.8700 C   0  0  0  0  0  0  0  0  0  0  0  0
   58.1460   28.1140   45.7200 C   0  0  0  0  0  0  0  0  0  0  0  0
   58.6250   29.3860   45.2600 N   0  0  0  0  0  0  0  0  0  0  0  0
   57.9690   30.6440   45.4580 C   0  0  0  0  0  0  0  0  0  0  0  0
   56.7400   30.7290   45.2090 O   0  0  0  0  0  0  0  0  0  0  0  0
   58.7290   31.8490   45.8520 C   0  0  0  0  0  0  0  0  0  0  0  0
   59.8020   31.8050   46.6070 O   0  0  0  0  0  0  0  0  0  0  0  0
   60.2790   33.0180   46.7610 C   0  0  0  0  0  0  0  0  0  0  0  0
   61.4940   33.3010   47.5490 C   0  0  0  0  0  0  0  0  0  0  0  0
   61.3890   34.0270   48.7460 C   0  0  0  0  0  0  0  0  0  0  0  0
   62.5270   34.2950   49.5110 C   0  0  0  0  0  0  0  0  0  0  0  0
   63.7770   33.8270   49.0950 C   0  0  0  0  0  0  0  0  0  0  0  0
   63.8870   33.0820   47.9180 C   0  0  0  0  0  0  0  0  0  0  0  0
   62.7510   32.8140   47.1490 C   0  0  0  0  0  0  0  0  0  0  0  0
   59.4690   33.9240   46.0860 C   0  0  0  0  0  0  0  0  0  0  0  0
   59.6370   35.4160   46.0170 C   0  0  0  0  0  0  0  0  0  0  0  0
   58.4720   33.1650   45.4880 C   0  0  0  0  0  0  0  0  0  0  0  0
   57.3810   33.6460   44.5740 C   0  0  0  0  0  0  0  0  0  0  0  0
   60.6810   28.5290   47.8840 C   0  0  0  0  0  0  0  0  0  0  0  0
   61.1910   29.9610   48.0710 C   0  0  0  0  0  0  0  0  0  0  0  0
   64.0687   30.6244   51.8881 H   0  0  0  0  0  0  0  0  0  0  0  0
   63.5636   29.8627   50.3417 H   0  0  0  0  0  0  0  0  0  0  0  0
   64.2621   31.5177   50.3417 H   0  0  0  0  0  0  0  0  0  0  0  0
   62.0265   31.5443   52.1341 H   0  0  0  0  0  0  0  0  0  0  0  0
   62.1911   32.3613   50.5297 H   0  0  0  0  0  0  0  0  0  0  0  0
   60.7190   31.7060   48.9640 H   0  0  0  0  0  0  0  0  0  0  0  0
   58.7102   30.9613   50.1861 H   0  0  0  0  0  0  0  0  0  0  0  0
   58.6908   31.1824   48.3649 H   0  0  0  0  0  0  0  0  0  0  0  0
   58.6745   28.5921   49.9467 H   0  0  0  0  0  0  0  0  0  0  0  0
   57.4512   29.2214   48.7789 H   0  0  0  0  0  0  0  0  0  0  0  0
   58.3079   26.0374   48.4441 H   0  0  0  0  0  0  0  0  0  0  0  0
   56.9549   24.5960   46.9290 H   0  0  0  0  0  0  0  0  0  0  0  0
   56.3580   25.3958   44.6434 H   0  0  0  0  0  0  0  0  0  0  0  0
   57.1456   27.6237   43.8537 H   0  0  0  0  0  0  0  0  0  0  0  0
   60.4057   34.3867   49.0833 H   0  0  0  0  0  0  0  0  0  0  0  0
   62.4394   34.8749   50.4416 H   0  0  0  0  0  0  0  0  0  0  0  0
   64.6735   34.0452   49.6940 H   0  0  0  0  0  0  0  0  0  0  0  0
   64.8693   32.7058   47.5961 H   0  0  0  0  0  0  0  0  0  0  0  0
   62.8406   32.2200   46.2275 H   0  0  0  0  0  0  0  0  0  0  0  0
   59.6833   35.8273   47.0362 H   0  0  0  0  0  0  0  0  0  0  0  0
   60.5678   35.6558   45.4822 H   0  0  0  0  0  0  0  0  0  0  0  0
   58.7828   35.8568   45.4822 H   0  0  0  0  0  0  0  0  0  0  0  0
   56.5374   34.0179   45.1740 H   0  0  0  0  0  0  0  0  0  0  0  0
   57.7657   34.4579   43.9394 H   0  0  0  0  0  0  0  0  0  0  0  0
   57.0411   32.8143   43.9394 H   0  0  0  0  0  0  0  0  0  0  0  0
   61.0783   27.8952   48.6905 H   0  0  0  0  0  0  0  0  0  0  0  0
   61.0197   28.1559   46.9062 H   0  0  0  0  0  0  0  0  0  0  0  0
   62.2724   29.9194   48.2678 H   0  0  0  0  0  0  0  0  0  0  0  0
   60.9474   30.5071   47.1477 H   0  0  0  0  0  0  0  0  0  0  0  0
  1  2  1  0
  2  3  1  0
  3  4  2  0
  3  5  1  0
  5  6  1  0
  6  7  1  0
  7  8  1  0
  8  9  1  0
  9 10  2  0
 10 11  1  0
 11 12  2  0
 12 13  1  0
 13 14  2  0
 14 15  1  0
 15 16  1  0
 16 17  2  0
 16 18  1  0
 18 19  1  0
 19 20  1  0
 20 21  1  0
 21 22  2  0
 22 23  1  0
 23 24  2  0
 24 25  1  0
 25 26  2  0
 20 27  2  0
 27 28  1  0
 27 29  1  0
 29 30  1  0
  8 31  1  0
 31 32  1  0
 32  5  1  0
 14  9  1  0
 29 18  2  0
 26 21  1  0
  1 33  1  0
  1 34  1  0
  1 35  1  0
  2 36  1  0
  2 37  1  0
  5 38  1  0
  6 39  1  0
  6 40  1  0
  7 41  1  0
  7 42  1  0
 10 43  1  0
 11 44  1  0
 12 45  1  0
 13 46  1  0
 22 47  1  0
 23 48  1  0
 24 49  1  0
 25 50  1  0
 26 51  1  0
 28 52  1  0
 28 53  1  0
 28 54  1  0
 30 55  1  0
 30 56  1  0
 30 57  1  0
 31 58  1  0
 31 59  1  0
 32 60  1  0
 32 61  1  0
M  CHG  2   5   1  15  -1
M  END
>  <UniqueID>  (26) 
25

>  <SMILES>  (26) 
CCC(=O)[NH+]1CCN(c2ccccc2[N-]C(=O)c2oc(-c3ccccc3)c(C)c2C)CC1

>  <Energy>  (26) 
109.47869197233517

>  <Genealogy>  (26) 
CCC(=O)[NH+]1CCN(c2ccccc2[N-]C(=O)c2oc(-c3ccccc3)c(C)c2C)CC1 (protonated)
CCC(=O)[NH+]1CCN(c2ccccc2[N-]C(=O)c2oc(-c3ccccc3)c(C)c2C)CC1 (3D coordinates assigned)
CCC(=O)[NH+]1CCN(c2ccccc2[N-]C(=O)c2oc(-c3ccccc3)c(C)c2C)CC1 (nonaromatic ring conformer: 109.47869197233517 kcal/mol)

>  <smiles>  (26) 
CCC(=O)N1CCN(c2ccccc2NC(=O)c2oc(-c3ccccc3)c(C)c2C)CC1

>  <score_type>  (26) 
oracle

>  <origin>  (26) 
adg

>  <m_score__min__energy>  (26) 
-8.5399999999999991

>  <m_primary>  (26) 
energy

$$$$
26:0
     RDKit          3D

 22 23  0  0  0  0  0  0  0  0999 V2000
   58.1380   30.8530   43.7390 C   0  0  0  0  0  0  0  0  0  0  0  0
   57.4560   29.8700   44.3170 C   0  0  0  0  0  0  0  0  0  0  0  0
   57.9750   28.5930   44.7950 C   0  0  0  0  0  0  0  0  0  0  0  0
   56.9500   27.8990   45.3150 C   0  0  0  0  0  0  0  0  0  0  0  0
   57.0410   26.5440   45.9190 C   0  0  0  0  0  0  0  0  0  0  0  0
   58.2940   25.9620   46.2020 C   0  0  0  0  0  0  0  0  0  0  0  0
   58.3750   24.6830   46.7610 C   0  0  0  0  0  0  0  0  0  0  0  0
   57.2130   23.9630   47.0440 C   0  0  0  0  0  0  0  0  0  0  0  0
   57.3110   22.6900   47.6010 O   0  0  0  0  0  0  0  0  0  0  0  0
   55.9630   24.5270   46.7650 C   0  0  0  0  0  0  0  0  0  0  0  0
   55.8720   25.8060   46.2060 C   0  0  0  0  0  0  0  0  0  0  0  0
   54.6110   26.3380   45.9540 O   0  0  0  0  0  0  0  0  0  0  0  0
   55.7530   28.6160   45.2290 O   0  0  0  0  0  0  0  0  0  0  0  0
   56.0420   29.8230   44.6200 C   0  0  0  0  0  0  0  0  0  0  0  0
   55.1940   30.7230   44.3810 O   0  0  0  0  0  0  0  0  0  0  0  0
   57.6198   31.7706   43.4237 H   0  0  0  0  0  0  0  0  0  0  0  0
   59.2209   30.7492   43.5757 H   0  0  0  0  0  0  0  0  0  0  0  0
   59.0212   28.2580   44.7392 H   0  0  0  0  0  0  0  0  0  0  0  0
   59.2162   26.5194   45.9809 H   0  0  0  0  0  0  0  0  0  0  0  0
   59.3589   24.2421   46.9788 H   0  0  0  0  0  0  0  0  0  0  0  0
   57.7600   22.5370   48.4970 H   0  0  0  0  0  0  0  0  0  0  0  0
   55.0462   23.9609   46.9867 H   0  0  0  0  0  0  0  0  0  0  0  0
  1  2  2  0
  2  3  1  0
  3  4  2  0
  4  5  1  0
  5  6  2  0
  6  7  1  0
  7  8  2  0
  8  9  1  0
  8 10  1  0
 10 11  2  0
 11 12  1  0
  4 13  1  0
 13 14  1  0
 14 15  2  0
 14  2  1  0
 11  5  1  0
  1 16  1  0
  1 17  1  0
  3 18  1  0
  6 19  1  0
  7 20  1  0
  9 21  1  0
 10 22  1  0
M  CHG  1  12  -1
M  END
>  <UniqueID>  (27) 
26

>  <SMILES>  (27) 
C=C1C=C(c2ccc(O)cc2[O-])OC1=O

>  <Energy>  (27) 
50.67578690412301

>  <Genealogy>  (27) 
C=C1C=C(c2ccc(O)cc2[O-])OC1=O (protonated)
C=C1C=C(c2ccc(O)cc2[O-])OC1=O (3D coordinates assigned)
C=C1C=C(c2ccc(O)cc2[O-])OC1=O (nonaromatic ring conformer: 50.67578690412301 kcal/mol)

>  <smiles>  (27) 
C=C1C=C(c2ccc(O)cc2O)OC1=O

>  <score_type>  (27) 
oracle

>  <origin>  (27) 
adg

>  <m_score__min__energy>  (27) 
-10.92

>  <m_primary>  (27) 
energy

$$$$
27:0
     RDKit          3D

 55 58  0  0  0  0  0  0  0  0999 V2000
   59.3200   28.4770   48.5400 O   0  0  0  0  0  0  0  0  0  0  0  0
   58.7850   28.6570   47.4090 C   0  0  0  0  0  0  0  0  0  0  0  0
   58.1560   29.9100   47.1190 N   0  0  0  0  0  0  0  0  0  0  0  0
   58.2510   30.6690   45.5640 S   0  0  0  0  0  0  0  0  0  0  0  0
   59.1630   29.8460   44.6930 O   0  0  0  0  0  0  0  0  0  0  0  0
   56.8750   30.6910   44.9570 O   0  0  0  0  0  0  0  0  0  0  0  0
   58.8600   32.3310   45.6970 C   0  0  0  0  0  0  0  0  0  0  0  0
   58.1510   33.3570   45.0460 C   0  0  0  0  0  0  0  0  0  0  0  0
   58.5410   34.6890   45.1780 C   0  0  0  0  0  0  0  0  0  0  0  0
   59.6450   35.0200   45.9620 C   0  0  0  0  0  0  0  0  0  0  0  0
   60.3770   34.0160   46.5970 C   0  0  0  0  0  0  0  0  0  0  0  0
   60.0250   32.6570   46.4480 C   0  0  0  0  0  0  0  0  0  0  0  0
   60.8550   31.6000   47.1580 C   0  0  0  0  0  0  0  0  0  0  0  0
   61.8410   32.2050   48.0740 N   0  0  0  0  0  0  0  0  0  0  0  0
   61.3900   32.8050   49.2190 C   0  0  0  0  0  0  0  0  0  0  0  0
   62.2840   33.3930   50.1100 C   0  0  0  0  0  0  0  0  0  0  0  0
   63.6420   33.3570   49.8110 C   0  0  0  0  0  0  0  0  0  0  0  0
   64.4740   33.8800   50.5980 O   0  0  0  0  0  0  0  0  0  0  0  0
   64.0700   32.7540   48.6680 N   0  0  0  0  0  0  0  0  0  0  0  0
   63.1880   32.1790   47.8040 C   0  0  0  0  0  0  0  0  0  0  0  0
   63.6260   31.6170   46.7590 O   0  0  0  0  0  0  0  0  0  0  0  0
   58.7320   27.5220   46.4030 C   0  0  0  0  0  0  0  0  0  0  0  0
   57.2790   27.2580   45.8960 C   0  0  0  0  0  0  0  0  0  0  0  0
   56.8440   25.7910   45.9990 C   0  0  0  0  0  0  0  0  0  0  0  0
   57.9040   24.9080   45.4970 N   0  0  0  0  0  0  0  0  0  0  0  0
   57.5880   23.7670   44.6750 C   0  0  0  0  0  0  0  0  0  0  0  0
   56.5710   23.8300   43.7050 C   0  0  0  0  0  0  0  0  0  0  0  0
   56.2940   22.7010   42.9210 C   0  0  0  0  0  0  0  0  0  0  0  0
   57.0340   21.5280   43.0970 C   0  0  0  0  0  0  0  0  0  0  0  0
   58.0500   21.5050   44.0560 C   0  0  0  0  0  0  0  0  0  0  0  0
   58.3060   22.6130   44.8100 N   0  0  0  0  0  0  0  0  0  0  0  0
   59.2800   25.0730   45.9860 C   0  0  0  0  0  0  0  0  0  0  0  0
   59.3980   26.2450   46.9680 C   0  0  0  0  0  0  0  0  0  0  0  0
   57.2784   33.1053   44.4254 H   0  0  0  0  0  0  0  0  0  0  0  0
   57.9766   35.4801   44.6626 H   0  0  0  0  0  0  0  0  0  0  0  0
   59.9393   36.0733   46.0802 H   0  0  0  0  0  0  0  0  0  0  0  0
   61.2403   34.2872   47.2224 H   0  0  0  0  0  0  0  0  0  0  0  0
   60.1835   30.9487   47.7367 H   0  0  0  0  0  0  0  0  0  0  0  0
   61.4021   31.0249   46.3965 H   0  0  0  0  0  0  0  0  0  0  0  0
   60.3120   32.8227   49.4370 H   0  0  0  0  0  0  0  0  0  0  0  0
   61.9241   33.8756   51.0306 H   0  0  0  0  0  0  0  0  0  0  0  0
   65.0920   32.7290   48.4500 H   0  0  0  0  0  0  0  0  0  0  0  0
   59.3144   27.8307   45.5224 H   0  0  0  0  0  0  0  0  0  0  0  0
   56.5866   27.8678   46.4949 H   0  0  0  0  0  0  0  0  0  0  0  0
   57.2591   27.5237   44.8288 H   0  0  0  0  0  0  0  0  0  0  0  0
   56.6369   25.5471   47.0514 H   0  0  0  0  0  0  0  0  0  0  0  0
   55.9384   25.6432   45.3923 H   0  0  0  0  0  0  0  0  0  0  0  0
   55.9975   24.7578   43.5627 H   0  0  0  0  0  0  0  0  0  0  0  0
   55.4939   22.7382   42.1670 H   0  0  0  0  0  0  0  0  0  0  0  0
   56.8196   20.6364   42.4895 H   0  0  0  0  0  0  0  0  0  0  0  0
   58.6448   20.5915   44.2034 H   0  0  0  0  0  0  0  0  0  0  0  0
   59.5902   24.1488   46.4955 H   0  0  0  0  0  0  0  0  0  0  0  0
   59.9272   25.2840   45.1220 H   0  0  0  0  0  0  0  0  0  0  0  0
   58.9049   25.9719   47.9126 H   0  0  0  0  0  0  0  0  0  0  0  0
   60.4654   26.4540   47.1320 H   0  0  0  0  0  0  0  0  0  0  0  0
  1  2  2  0
  2  3  1  0
  3  4  1  0
  4  5  2  0
  4  6  2  0
  4  7  1  0
  7  8  2  0
  8  9  1  0
  9 10  2  0
 10 11  1  0
 11 12  2  0
 12 13  1  0
 13 14  1  0
 14 15  1  0
 15 16  2  0
 16 17  1  0
 17 18  2  0
 17 19  1  0
 19 20  1  0
 20 21  2  0
  2 22  1  0
 22 23  1  0
 23 24  1  0
 24 25  1  0
 25 26  1  0
 26 27  2  0
 27 28  1  0
 28 29  2  0
 29 30  1  0
 30 31  2  0
 25 32  1  0
 32 33  1  0
 12  7  1  0
 20 14  1  0
 33 22  1  0
 31 26  1  0
  8 34  1  0
  9 35  1  0
 10 36  1  0
 11 37  1  0
 13 38  1  0
 13 39  1  0
 15 40  1  0
 16 41  1  0
 19 42  1  0
 22 43  1  0
 23 44  1  0
 23 45  1  0
 24 46  1  0
 24 47  1  0
 27 48  1  0
 28 49  1  0
 29 50  1  0
 30 51  1  0
 32 52  1  0
 32 53  1  0
 33 54  1  0
 33 55  1  0
M  CHG  1   3  -1
M  END
>  <UniqueID>  (28) 
27

>  <SMILES>  (28) 
O=C([N-]S(=O)(=O)c1ccccc1Cn1ccc(=O)[nH]c1=O)C1CCN(c2ccccn2)CC1

>  <Energy>  (28) 
75.58046535025231

>  <Genealogy>  (28) 
O=C([N-]S(=O)(=O)c1ccccc1Cn1ccc(=O)[nH]c1=O)C1CCN(c2ccccn2)CC1 (protonated)
O=C([N-]S(=O)(=O)c1ccccc1Cn1ccc(=O)[nH]c1=O)C1CCN(c2ccccn2)CC1 (3D coordinates assigned)
O=C([N-]S(=O)(=O)c1ccccc1Cn1ccc(=O)[nH]c1=O)C1CCN(c2ccccn2)CC1 (nonaromatic ring conformer: 75.58046535025231 kcal/mol)

>  <smiles>  (28) 
O=C(NS(=O)(=O)c1ccccc1Cn1ccc(=O)[nH]c1=O)C1CCN(c2ccccn2)CC1

>  <score_type>  (28) 
oracle

>  <origin>  (28) 
adg

>  <m_score__min__energy>  (28) 
-11.75

>  <m_primary>  (28) 
energy

$$$$
28:0
     RDKit          3D

 36 38  0  0  0  0  0  0  0  0999 V2000
   52.8680   22.3510   45.2530 O   0  0  0  0  0  0  0  0  0  0  0  0
   53.9880   23.1730   45.2680 C   0  0  0  0  0  0  0  0  0  0  0  0
   55.2400   22.6560   44.9250 C   0  0  0  0  0  0  0  0  0  0  0  0
   56.3680   23.4820   44.9390 C   0  0  0  0  0  0  0  0  0  0  0  0
   56.2530   24.8350   45.3000 C   0  0  0  0  0  0  0  0  0  0  0  0
   57.4710   25.7250   45.2910 C   0  0  0  0  0  0  0  0  0  0  0  0
   57.5680   26.4840   44.0340 N   0  0  0  0  0  0  0  0  0  0  0  0
   58.6240   27.5100   44.0560 C   0  0  0  0  0  0  0  0  0  0  0  0
   58.1040   28.8530   44.4800 C   0  0  0  0  0  0  0  0  0  0  0  0
   56.7980   29.1640   44.7790 C   0  0  0  0  0  0  0  0  0  0  0  0
   56.7710   30.4190   45.1520 O   0  0  0  0  0  0  0  0  0  0  0  0
   58.0050   30.8730   45.0980 C   0  0  0  0  0  0  0  0  0  0  0  0
   58.3990   32.2570   45.4520 C   0  0  0  0  0  0  0  0  0  0  0  0
   58.9210   32.5280   46.7310 C   0  0  0  0  0  0  0  0  0  0  0  0
   59.2950   33.8280   47.0860 C   0  0  0  0  0  0  0  0  0  0  0  0
   60.0010   34.1770   48.8260 Br  0  0  0  0  0  0  0  0  0  0  0  0
   59.1520   34.8710   46.1680 C   0  0  0  0  0  0  0  0  0  0  0  0
   58.6360   34.6170   44.8960 C   0  0  0  0  0  0  0  0  0  0  0  0
   58.2590   33.3190   44.5330 C   0  0  0  0  0  0  0  0  0  0  0  0
   57.7480   33.1030   43.2570 O   0  0  0  0  0  0  0  0  0  0  0  0
   58.8830   29.9320   44.6850 N   0  0  0  0  0  0  0  0  0  0  0  0
   54.9870   25.3520   45.6410 C   0  0  0  0  0  0  0  0  0  0  0  0
   54.8410   26.6900   45.9940 O   0  0  0  0  0  0  0  0  0  0  0  0
   53.8620   24.5200   45.6250 C   0  0  0  0  0  0  0  0  0  0  0  0
   55.3383   21.5972   44.6434 H   0  0  0  0  0  0  0  0  0  0  0  0
   57.3508   23.0704   44.6659 H   0  0  0  0  0  0  0  0  0  0  0  0
   57.4054   26.4310   46.1320 H   0  0  0  0  0  0  0  0  0  0  0  0
   58.3653   25.0914   45.3844 H   0  0  0  0  0  0  0  0  0  0  0  0
   56.6480   26.9520   43.8590 H   0  0  0  0  0  0  0  0  0  0  0  0
   59.4082   27.1957   44.7605 H   0  0  0  0  0  0  0  0  0  0  0  0
   59.0187   27.6090   43.0340 H   0  0  0  0  0  0  0  0  0  0  0  0
   55.9355   28.4841   44.7164 H   0  0  0  0  0  0  0  0  0  0  0  0
   59.0357   31.7101   47.4575 H   0  0  0  0  0  0  0  0  0  0  0  0
   59.4462   35.8934   46.4476 H   0  0  0  0  0  0  0  0  0  0  0  0
   58.5252   35.4409   44.1756 H   0  0  0  0  0  0  0  0  0  0  0  0
   52.8757   24.9261   45.8939 H   0  0  0  0  0  0  0  0  0  0  0  0
  1  2  1  0
  2  3  2  0
  3  4  1  0
  4  5  2  0
  5  6  1  0
  6  7  1  0
  7  8  1  0
  8  9  1  0
  9 10  2  0
 10 11  1  0
 11 12  1  0
 12 13  1  0
 13 14  2  0
 14 15  1  0
 15 16  1  0
 15 17  2  0
 17 18  1  0
 18 19  2  0
 19 20  1  0
 12 21  2  0
  5 22  1  0
 22 23  1  0
 22 24  2  0
 24  2  1  0
 21  9  1  0
 19 13  1  0
  3 25  1  0
  4 26  1  0
  6 27  1  0
  6 28  1  0
  7 29  1  0
  8 30  1  0
  8 31  1  0
 10 32  1  0
 14 33  1  0
 17 34  1  0
 18 35  1  0
 24 36  1  0
M  CHG  3   1  -1  20  -1  23  -1
M  END
>  <UniqueID>  (29) 
28

>  <SMILES>  (29) 
[O-]c1ccc(CNCc2coc(-c3cc(Br)ccc3[O-])n2)c([O-])c1

>  <Energy>  (29) 
69.18517238037221

>  <Genealogy>  (29) 
[O-]c1ccc(CNCc2coc(-c3cc(Br)ccc3[O-])n2)c([O-])c1 (protonated)
[O-]c1ccc(CNCc2coc(-c3cc(Br)ccc3[O-])n2)c([O-])c1 (3D coordinates assigned)
[O-]c1ccc(CNCc2coc(-c3cc(Br)ccc3[O-])n2)c([O-])c1 (optimized conformer: 69.18517238037221 kcal/mol)

>  <smiles>  (29) 
Oc1ccc(CNCc2coc(-c3cc(Br)ccc3O)n2)c(O)c1

>  <score_type>  (29) 
oracle

>  <origin>  (29) 
adg

>  <m_score__min__energy>  (29) 
-15.07

>  <m_primary>  (29) 
energy

$$$$
29:0
     RDKit          3D

 71 76  0  0  0  0  0  0  0  0999 V2000
   58.1109   28.0962   43.4515 H   0  0  0  0  0  0  0  0  0  0  0  0
   57.7720   28.4750   44.4270 C   0  0  0  0  0  0  0  0  0  0  0  0
   56.7200   29.5150   44.4310 C   0  0  0  0  0  0  0  0  0  0  0  0
   55.6570   29.3240   45.0870 O   0  0  0  0  0  0  0  0  0  0  0  0
   56.9000   30.7420   43.6920 N   0  0  0  0  0  0  0  0  0  0  0  0
   57.5250   31.8920   44.3170 C   0  0  0  0  0  0  0  0  0  0  0  0
   57.3940   32.1360   45.7000 C   0  0  0  0  0  0  0  0  0  0  0  0
   56.7838   31.4612   46.3183 H   0  0  0  0  0  0  0  0  0  0  0  0
   58.0340   33.2290   46.2900 C   0  0  0  0  0  0  0  0  0  0  0  0
   57.9363   33.4018   47.3720 H   0  0  0  0  0  0  0  0  0  0  0  0
   58.7960   34.1020   45.5140 C   0  0  0  0  0  0  0  0  0  0  0  0
   59.3147   34.9490   45.9869 H   0  0  0  0  0  0  0  0  0  0  0  0
   58.9000   33.9000   44.1360 C   0  0  0  0  0  0  0  0  0  0  0  0
   59.4959   34.5927   43.5236 H   0  0  0  0  0  0  0  0  0  0  0  0
   58.2460   32.8150   43.5300 C   0  0  0  0  0  0  0  0  0  0  0  0
   58.3260   32.6140   42.0450 C   0  0  0  0  0  0  0  0  0  0  0  0
   59.1539   31.9281   41.8123 H   0  0  0  0  0  0  0  0  0  0  0  0
   58.5016   33.5825   41.5538 H   0  0  0  0  0  0  0  0  0  0  0  0
   57.0140   32.0180   41.5380 C   0  0  0  0  0  0  0  0  0  0  0  0
   57.0845   31.8593   40.4518 H   0  0  0  0  0  0  0  0  0  0  0  0
   56.1948   32.7153   41.7673 H   0  0  0  0  0  0  0  0  0  0  0  0
   56.7310   30.6780   42.2260 C   0  0  0  0  0  0  0  0  0  0  0  0
   57.4235   29.9234   41.8247 H   0  0  0  0  0  0  0  0  0  0  0  0
   55.6819   30.4163   42.0240 H   0  0  0  0  0  0  0  0  0  0  0  0
   58.3430   27.9600   45.5270 C   0  0  0  0  0  0  0  0  0  0  0  0
   58.3888   26.8640   45.6094 H   0  0  0  0  0  0  0  0  0  0  0  0
   58.9160   28.7530   46.6380 C   0  0  0  0  0  0  0  0  0  0  0  0
   59.5590   29.9650   46.3570 C   0  0  0  0  0  0  0  0  0  0  0  0
   59.6523   30.3048   45.3150 H   0  0  0  0  0  0  0  0  0  0  0  0
   60.0830   30.7460   47.3910 C   0  0  0  0  0  0  0  0  0  0  0  0
   60.6014   31.6873   47.1560 H   0  0  0  0  0  0  0  0  0  0  0  0
   59.9520   30.3370   48.7270 C   0  0  0  0  0  0  0  0  0  0  0  0
   60.5290   31.1440   49.8240 C   0  0  0  0  0  0  0  0  0  0  0  0
   59.7770   31.5390   50.7570 O   0  0  0  0  0  0  0  0  0  0  0  0
   61.9250   31.4910   49.8450 N   0  0  0  0  0  0  0  0  0  0  0  0
   62.5560   31.9940   48.6140 C   0  0  0  0  0  0  0  0  0  0  0  0
   62.8164   31.1401   47.9713 H   0  0  0  0  0  0  0  0  0  0  0  0
   61.8426   32.6616   48.1087 H   0  0  0  0  0  0  0  0  0  0  0  0
   63.8280   32.7930   48.9200 C   0  0  0  0  0  0  0  0  0  0  0  0
   64.3237   33.0614   47.9754 H   0  0  0  0  0  0  0  0  0  0  0  0
   63.5539   33.7028   49.4741 H   0  0  0  0  0  0  0  0  0  0  0  0
   64.8000   31.9490   49.7860 C   0  0  0  0  0  0  0  0  0  0  0  0
   65.1317   31.1236   49.1389 H   0  0  0  0  0  0  0  0  0  0  0  0
   66.0460   32.6940   50.1700 N   0  0  2  0  0  0  0  0  0  0  0  0
   66.4040   33.1470   49.2970 H   0  0  0  0  0  0  0  0  0  0  0  0
   67.1200   31.8210   50.6410 C   0  0  0  0  0  0  0  0  0  0  0  0
   67.1260   30.5840   50.4060 O   0  0  0  0  0  0  0  0  0  0  0  0
   68.2160   32.3650   51.3130 O   0  0  0  0  0  0  0  0  0  0  0  0
   68.3420   33.7660   51.4940 C   0  0  0  0  0  0  0  0  0  0  0  0
   69.0119   33.9675   52.3429 H   0  0  0  0  0  0  0  0  0  0  0  0
   68.7602   34.2178   50.5824 H   0  0  0  0  0  0  0  0  0  0  0  0
   66.9930   34.3560   51.7710 C   0  0  0  0  0  0  0  0  0  0  0  0
   66.8780   35.4710   52.6130 C   0  0  0  0  0  0  0  0  0  0  0  0
   67.7729   35.8842   53.1013 H   0  0  0  0  0  0  0  0  0  0  0  0
   65.6340   36.0570   52.8330 C   0  0  0  0  0  0  0  0  0  0  0  0
   65.5430   36.9172   53.5126 H   0  0  0  0  0  0  0  0  0  0  0  0
   64.5060   35.5530   52.1920 C   0  0  0  0  0  0  0  0  0  0  0  0
   63.5255   36.0213   52.3629 H   0  0  0  0  0  0  0  0  0  0  0  0
   64.6110   34.4550   51.3320 C   0  0  0  0  0  0  0  0  0  0  0  0
   63.7153   34.0915   50.8071 H   0  0  0  0  0  0  0  0  0  0  0  0
   65.8560   33.8010   51.1250 C   0  0  0  0  0  0  0  0  0  0  0  0
   64.0940   31.2850   51.0160 C   0  0  0  0  0  0  0  0  0  0  0  0
   64.1840   30.1929   50.9202 H   0  0  0  0  0  0  0  0  0  0  0  0
   64.5916   31.6697   51.9185 H   0  0  0  0  0  0  0  0  0  0  0  0
   62.6040   31.6400   51.1390 C   0  0  0  0  0  0  0  0  0  0  0  0
   62.1328   30.9699   51.8731 H   0  0  0  0  0  0  0  0  0  0  0  0
   62.5162   32.6868   51.4654 H   0  0  0  0  0  0  0  0  0  0  0  0
   59.2900   29.1320   49.0110 C   0  0  0  0  0  0  0  0  0  0  0  0
   59.1888   28.7967   50.0538 H   0  0  0  0  0  0  0  0  0  0  0  0
   58.7590   28.3560   47.9780 C   0  0  0  0  0  0  0  0  0  0  0  0
   58.2151   27.4294   48.2139 H   0  0  0  0  0  0  0  0  0  0  0  0
  1  2  1  0
  2  3  1  0
  3  4  2  0
  3  5  1  0
  5  6  1  0
  6  7  2  0
  7  8  1  0
  7  9  1  0
  9 10  1  0
  9 11  2  0
 11 12  1  0
 11 13  1  0
 13 14  1  0
 13 15  2  0
 15 16  1  0
 16 17  1  0
 16 18  1  0
 16 19  1  0
 19 20  1  0
 19 21  1  0
 19 22  1  0
 22 23  1  0
 22 24  1  0
  2 25  2  0
 25 26  1  0
 25 27  1  0
 27 28  2  0
 28 29  1  0
 28 30  1  0
 30 31  1  0
 30 32  2  0
 32 33  1  0
 33 34  2  0
 33 35  1  0
 35 36  1  0
 36 37  1  0
 36 38  1  0
 36 39  1  0
 39 40  1  0
 39 41  1  0
 39 42  1  0
 42 43  1  0
 42 44  1  0
 44 45  1  6
 44 46  1  0
 46 47  2  0
 46 48  1  0
 48 49  1  0
 49 50  1  0
 49 51  1  0
 49 52  1  0
 52 53  2  0
 53 54  1  0
 53 55  1  0
 55 56  1  0
 55 57  2  0
 57 58  1  0
 57 59  1  0
 59 60  1  0
 59 61  2  0
 42 62  1  0
 62 63  1  0
 62 64  1  0
 62 65  1  0
 65 66  1  0
 65 67  1  0
 32 68  1  0
 68 69  1  0
 68 70  2  0
 70 71  1  0
 22  5  1  0
 70 27  1  0
 15  6  1  0
 65 35  1  0
 61 44  1  0
 61 52  1  0
M  CHG  1  44   1
M  END
>  <UniqueID>  (30) 
29

>  <SMILES>  (30) 
O=C(c1ccc(/C=C\C(=O)N2CCCc3ccccc32)cc1)N1CCC([N@@H+]2C(=O)OCc3ccccc32)CC1

>  <Energy>  (30) 
120.69077606247805

>  <Genealogy>  (30) 
O=C(c1ccc(C=CC(=O)N2CCCc3ccccc32)cc1)N1CCC([NH+]2C(=O)OCc3ccccc32)CC1 (protonated)
O=C(c1ccc(C=CC(=O)N2CCCc3ccccc32)cc1)N1CCC([N@@H+]2C(=O)OCc3ccccc32)CC1 (chirality)
O=C(c1ccc(/C=C\C(=O)N2CCCc3ccccc32)cc1)N1CCC([N@@H+]2C(=O)OCc3ccccc32)CC1 (cis-trans isomerization)
O=C(c1ccc(/C=C\C(=O)N2CCCc3ccccc32)cc1)N1CCC([N@@H+]2C(=O)OCc3ccccc32)CC1 (3D coordinates assigned)
O=C(c1ccc(/C=C\C(=O)N2CCCc3ccccc32)cc1)N1CCC([N@@H+]2C(=O)OCc3ccccc32)CC1 (nonaromatic ring conformer: 120.69077606247805 kcal/mol)

>  <smiles>  (30) 
O=C(c1ccc(C=CC(=O)N2CCCc3ccccc32)cc1)N1CCC(N2C(=O)OCc3ccccc32)CC1

>  <score_type>  (30) 
oracle

>  <origin>  (30) 
adg

>  <m_score__min__energy>  (30) 
-9.4900000000000002

>  <m_primary>  (30) 
energy

$$$$
30:0
     RDKit          3D

 49 52  0  0  0  0  0  0  0  0999 V2000
   56.8736   31.1205   41.3253 H   0  0  0  0  0  0  0  0  0  0  0  0
   57.0110   31.0810   42.4160 C   0  0  0  0  0  0  0  0  0  0  0  0
   56.4440   30.0790   43.1350 N   0  0  0  0  0  0  0  0  0  0  0  0
   56.5890   29.9910   44.4870 C   0  0  0  0  0  0  0  0  0  0  0  0
   56.0320   29.0250   45.1570 N   0  0  0  0  0  0  0  0  0  0  0  0
   56.6500   27.7250   45.4210 C   0  0  0  0  0  0  0  0  0  0  0  0
   56.7451   27.1709   44.4755 H   0  0  0  0  0  0  0  0  0  0  0  0
   56.0164   27.1670   46.1261 H   0  0  0  0  0  0  0  0  0  0  0  0
   58.0150   27.9030   46.0300 C   0  0  0  0  0  0  0  0  0  0  0  0
   58.1890   27.8600   47.4230 C   0  0  0  0  0  0  0  0  0  0  0  0
   57.3188   27.7117   48.0794 H   0  0  0  0  0  0  0  0  0  0  0  0
   59.4640   28.0050   47.9790 C   0  0  0  0  0  0  0  0  0  0  0  0
   59.5944   27.9735   49.0708 H   0  0  0  0  0  0  0  0  0  0  0  0
   60.5730   28.1900   47.1480 C   0  0  0  0  0  0  0  0  0  0  0  0
   61.5754   28.3041   47.5864 H   0  0  0  0  0  0  0  0  0  0  0  0
   60.4090   28.2300   45.7620 C   0  0  0  0  0  0  0  0  0  0  0  0
   61.2828   28.3750   45.1098 H   0  0  0  0  0  0  0  0  0  0  0  0
   59.1350   28.0860   45.2010 C   0  0  0  0  0  0  0  0  0  0  0  0
   59.0099   28.1161   44.1085 H   0  0  0  0  0  0  0  0  0  0  0  0
   57.3410   30.9560   45.1670 C   0  0  0  0  0  0  0  0  0  0  0  0
   57.4557   30.8960   46.2594 H   0  0  0  0  0  0  0  0  0  0  0  0
   57.9500   32.0030   44.4510 C   0  0  0  0  0  0  0  0  0  0  0  0
   58.7510   33.0510   45.1360 C   0  0  0  0  0  0  0  0  0  0  0  0
   59.6820   32.6790   46.0600 N   0  0  0  0  0  0  0  0  0  0  0  0
   60.4570   33.5720   46.7380 C   0  0  0  0  0  0  0  0  0  0  0  0
   61.4240   33.0940   47.7040 N   0  0  0  0  0  0  0  0  0  0  0  0
   62.2350   31.9030   47.4010 C   0  0  0  0  0  0  0  0  0  0  0  0
   61.7304   31.0147   47.8088 H   0  0  0  0  0  0  0  0  0  0  0  0
   62.3412   31.8289   46.3086 H   0  0  0  0  0  0  0  0  0  0  0  0
   63.6460   32.0030   48.0160 C   0  0  0  0  0  0  0  0  0  0  0  0
   64.0245   30.9824   48.1743 H   0  0  0  0  0  0  0  0  0  0  0  0
   64.2548   32.5836   47.3073 H   0  0  0  0  0  0  0  0  0  0  0  0
   63.7050   32.7230   49.3080 N   0  0  0  0  0  0  0  0  0  0  0  0
   64.3570   32.2170   49.9530 H   0  0  0  0  0  0  0  0  0  0  0  0
   64.0980   33.6810   49.1540 H   0  0  0  0  0  0  0  0  0  0  0  0
   62.4000   32.8480   49.9680 C   0  0  0  0  0  0  0  0  0  0  0  0
   61.9903   31.8450   50.1580 H   0  0  0  0  0  0  0  0  0  0  0  0
   62.5265   33.3857   50.9193 H   0  0  0  0  0  0  0  0  0  0  0  0
   61.4340   33.6290   49.0740 C   0  0  0  0  0  0  0  0  0  0  0  0
   60.4198   33.5579   49.4940 H   0  0  0  0  0  0  0  0  0  0  0  0
   61.7662   34.6769   49.0355 H   0  0  0  0  0  0  0  0  0  0  0  0
   60.2920   34.9450   46.4780 C   0  0  0  0  0  0  0  0  0  0  0  0
   60.9103   35.6864   47.0053 H   0  0  0  0  0  0  0  0  0  0  0  0
   59.3390   35.3600   45.5470 C   0  0  0  0  0  0  0  0  0  0  0  0
   59.2010   36.4322   45.3434 H   0  0  0  0  0  0  0  0  0  0  0  0
   58.5610   34.4180   44.8740 C   0  0  0  0  0  0  0  0  0  0  0  0
   57.8049   34.7429   44.1441 H   0  0  0  0  0  0  0  0  0  0  0  0
   57.7680   32.0610   43.0590 C   0  0  0  0  0  0  0  0  0  0  0  0
   58.2213   32.8772   42.4774 H   0  0  0  0  0  0  0  0  0  0  0  0
  1  2  1  0
  2  3  1  0
  3  4  1  0
  4  5  2  0
  5  6  1  0
  6  7  1  0
  6  8  1  0
  6  9  1  0
  9 10  2  0
 10 11  1  0
 10 12  1  0
 12 13  1  0
 12 14  2  0
 14 15  1  0
 14 16  1  0
 16 17  1  0
 16 18  2  0
 18 19  1  0
  4 20  1  0
 20 21  1  0
 20 22  2  0
 22 23  1  0
 23 24  2  0
 24 25  1  0
 25 26  1  0
 26 27  1  0
 27 28  1  0
 27 29  1  0
 27 30  1  0
 30 31  1  0
 30 32  1  0
 30 33  1  0
 33 34  1  0
 33 35  1  0
 33 36  1  0
 36 37  1  0
 36 38  1  0
 36 39  1  0
 39 40  1  0
 39 41  1  0
 25 42  2  0
 42 43  1  0
 42 44  1  0
 44 45  1  0
 44 46  2  0
 46 47  1  0
 22 48  1  0
 48 49  1  0
 48  2  2  0
 18  9  1  0
 46 23  1  0
 39 26  1  0
M  CHG  2   3  -1  33   1
M  END
>  <UniqueID>  (31) 
30

>  <SMILES>  (31) 
c1ccc(C/N=c2/cc(-c3cccc(N4CC[NH2+]CC4)n3)cc[n-]2)cc1

>  <Energy>  (31) 
62.91926729230897

>  <Genealogy>  (31) 
c1ccc(CN=c2cc(-c3cccc(N4CC[NH2+]CC4)n3)cc[n-]2)cc1 (protonated)
c1ccc(C/N=c2/cc(-c3cccc(N4CC[NH2+]CC4)n3)cc[n-]2)cc1 (cis-trans isomerization)
c1ccc(C/N=c2/cc(-c3cccc(N4CC[NH2+]CC4)n3)cc[n-]2)cc1 (3D coordinates assigned)
c1ccc(C/N=c2/cc(-c3cccc(N4CC[NH2+]CC4)n3)cc[n-]2)cc1 (nonaromatic ring conformer: 62.91926729230897 kcal/mol)

>  <smiles>  (31) 
c1ccc(CN=c2cc(-c3cccc(N4CCNCC4)n3)cc[nH]2)cc1

>  <score_type>  (31) 
oracle

>  <origin>  (31) 
adg

>  <m_score__min__energy>  (31) 
-9.1099999999999994

>  <m_primary>  (31) 
energy

$$$$
31:0
     RDKit          3D

 44 46  0  0  0  0  0  0  0  0999 V2000
   55.9080   29.3750   51.6220 H   0  0  0  0  0  0  0  0  0  0  0  0
   56.7250   29.3250   52.2690 N   0  0  0  0  0  0  0  0  0  0  0  0
   57.5090   30.3310   52.4940 C   0  0  0  0  0  0  0  0  0  0  0  0
   58.4750   30.1496   52.9879 H   0  0  0  0  0  0  0  0  0  0  0  0
   57.1540   31.7130   52.1120 C   0  0  0  0  0  0  0  0  0  0  0  0
   55.9730   32.1040   52.3170 O   0  0  0  0  0  0  0  0  0  0  0  0
   58.1130   32.6190   51.5270 N   0  0  0  0  0  0  0  0  0  0  0  0
   59.0020   32.1710   50.4840 C   0  0  0  0  0  0  0  0  0  0  0  0
   60.3630   32.5150   50.5130 C   0  0  0  0  0  0  0  0  0  0  0  0
   60.7595   33.1087   51.3499 H   0  0  0  0  0  0  0  0  0  0  0  0
   61.2170   32.1070   49.4840 C   0  0  0  0  0  0  0  0  0  0  0  0
   62.2815   32.3825   49.5146 H   0  0  0  0  0  0  0  0  0  0  0  0
   60.7250   31.3510   48.4170 C   0  0  0  0  0  0  0  0  0  0  0  0
   61.8150   30.9030   47.1130 Cl  0  0  0  0  0  0  0  0  0  0  0  0
   59.3660   30.9930   48.3830 C   0  0  0  0  0  0  0  0  0  0  0  0
   58.8320   30.2320   47.2870 N   0  0  0  0  0  0  0  0  0  0  0  0
   58.3160   30.7450   46.1490 C   0  0  0  0  0  0  0  0  0  0  0  0
   58.2160   32.2070   45.8390 C   0  0  0  0  0  0  0  0  0  0  0  0
   58.1769   32.7790   46.7778 H   0  0  0  0  0  0  0  0  0  0  0  0
   59.0949   32.5191   45.2558 H   0  0  0  0  0  0  0  0  0  0  0  0
   57.3028   32.3965   45.2558 H   0  0  0  0  0  0  0  0  0  0  0  0
   57.8600   29.7300   45.3320 C   0  0  0  0  0  0  0  0  0  0  0  0
   57.3588   29.8462   44.3598 H   0  0  0  0  0  0  0  0  0  0  0  0
   58.1550   28.5360   45.9720 C   0  0  0  0  0  0  0  0  0  0  0  0
   57.9160   27.3330   45.4160 C   0  0  0  0  0  0  0  0  0  0  0  0
   58.1471   27.2169   44.3468 H   0  0  0  0  0  0  0  0  0  0  0  0
   57.3710   26.1600   46.1200 C   0  0  0  0  0  0  0  0  0  0  0  0
   56.0390   25.8760   46.3190 C   0  0  0  0  0  0  0  0  0  0  0  0
   54.9770   26.7100   45.9980 O   0  0  0  0  0  0  0  0  0  0  0  0
   55.8920   24.6550   46.8680 N   0  0  0  0  0  0  0  0  0  0  0  0
   57.1650   24.2160   46.9660 C   0  0  0  0  0  0  0  0  0  0  0  0
   57.4650   23.0850   47.4280 O   0  0  0  0  0  0  0  0  0  0  0  0
   58.0850   25.0900   46.5110 N   0  0  0  0  0  0  0  0  0  0  0  0
   59.1180   24.9490   46.4430 H   0  0  0  0  0  0  0  0  0  0  0  0
   58.7230   28.8830   47.2090 C   0  0  0  0  0  0  0  0  0  0  0  0
   58.9950   28.0670   48.2400 C   0  0  0  0  0  0  0  0  0  0  0  0
   59.4438   28.4725   49.1588 H   0  0  0  0  0  0  0  0  0  0  0  0
   58.7690   26.9930   48.1659 H   0  0  0  0  0  0  0  0  0  0  0  0
   58.5120   31.4050   49.4140 C   0  0  0  0  0  0  0  0  0  0  0  0
   57.4483   31.1261   49.3852 H   0  0  0  0  0  0  0  0  0  0  0  0
   58.4060   33.8750   52.2230 C   0  0  0  0  0  0  0  0  0  0  0  0
   58.3674   33.7096   53.3098 H   0  0  0  0  0  0  0  0  0  0  0  0
   59.4099   34.2250   51.9408 H   0  0  0  0  0  0  0  0  0  0  0  0
   57.6606   34.6331   51.9408 H   0  0  0  0  0  0  0  0  0  0  0  0
  1  2  1  0
  2  3  2  0
  3  4  1  0
  3  5  1  0
  5  6  2  0
  5  7  1  0
  7  8  1  0
  8  9  2  0
  9 10  1  0
  9 11  1  0
 11 12  1  0
 11 13  2  0
 13 14  1  0
 13 15  1  0
 15 16  1  0
 16 17  1  0
 17 18  1  0
 18 19  1  0
 18 20  1  0
 18 21  1  0
 17 22  2  0
 22 23  1  0
 22 24  1  0
 24 25  2  3
 25 26  1  0
 25 27  1  0
 27 28  2  0
 28 29  1  0
 28 30  1  0
 30 31  1  0
 31 32  2  0
 31 33  1  0
 33 34  1  0
 24 35  1  0
 35 36  2  0
 36 37  1  0
 36 38  1  0
 15 39  2  0
 39 40  1  0
  7 41  1  0
 41 42  1  0
 41 43  1  0
 41 44  1  0
 39  8  1  0
 35 16  1  0
 33 27  1  0
M  CHG  2  29  -1  30  -1
M  END
>  <UniqueID>  (32) 
31

>  <SMILES>  (32) 
[H]/N=C\C(=O)N(C)c1ccc(Cl)c(-n2c(C)cc(=Cc3[nH]c(=O)[n-]c3[O-])c2=C)c1

>  <Energy>  (32) 
129.43909614566027

>  <Genealogy>  (32) 
C=c1c(=Cc2[nH]c(=O)[n-]c2[O-])cc(C)n1-c1cc(N(C)C(=O)C=N)ccc1Cl (protonated)
[H]/N=C\C(=O)N(C)c1ccc(Cl)c(-n2c(C)cc(=Cc3[nH]c(=O)[n-]c3[O-])c2=C)c1 (cis-trans isomerization)
[H]/N=C\C(=O)N(C)c1ccc(Cl)c(-n2c(C)cc(=Cc3[nH]c(=O)[n-]c3[O-])c2=C)c1 (3D coordinates assigned)
[H]/N=C\C(=O)N(C)c1ccc(Cl)c(-n2c(C)cc(=Cc3[nH]c(=O)[n-]c3[O-])c2=C)c1 (optimized conformer: 129.43909614566027 kcal/mol)

>  <smiles>  (32) 
C=c1c(=Cc2[nH]c(=O)[nH]c2O)cc(C)n1-c1cc(N(C)C(=O)C=N)ccc1Cl

>  <score_type>  (32) 
oracle

>  <origin>  (32) 
adg

>  <m_score__min__energy>  (32) 
-14.25

>  <m_primary>  (32) 
energy

$$$$
32:0
     RDKit          3D

 65 69  0  0  0  0  0  0  0  0999 V2000
   64.6910   33.0700   54.1220 H   0  0  0  0  0  0  0  0  0  0  0  0
   65.3910   32.9020   53.4080 O   0  0  0  0  0  0  0  0  0  0  0  0
   65.0630   32.8940   52.0550 C   0  0  0  0  0  0  0  0  0  0  0  0
   65.9910   32.3760   51.1210 C   0  0  0  0  0  0  0  0  0  0  0  0
   66.9527   31.9741   51.4726 H   0  0  0  0  0  0  0  0  0  0  0  0
   65.6930   32.3710   49.7450 C   0  0  0  0  0  0  0  0  0  0  0  0
   66.4111   31.9788   49.0098 H   0  0  0  0  0  0  0  0  0  0  0  0
   64.4590   32.8790   49.3450 C   0  0  0  0  0  0  0  0  0  0  0  0
   63.5550   33.3720   50.2500 C   0  0  0  0  0  0  0  0  0  0  0  0
   63.8200   33.4000   51.6180 C   0  0  0  0  0  0  0  0  0  0  0  0
   63.0862   33.8023   52.3320 H   0  0  0  0  0  0  0  0  0  0  0  0
   62.4590   33.8150   49.5420 C   0  0  0  0  0  0  0  0  0  0  0  0
   61.5415   34.2703   49.9431 H   0  0  0  0  0  0  0  0  0  0  0  0
   62.7670   33.5600   48.2050 C   0  0  0  0  0  0  0  0  0  0  0  0
   61.9310   33.9200   47.0440 C   0  0  0  0  0  0  0  0  0  0  0  0
   62.4130   33.7890   45.8830 O   0  0  0  0  0  0  0  0  0  0  0  0
   60.5890   34.4220   47.2050 N   0  0  0  0  0  0  0  0  0  0  0  0
   59.6660   33.7870   48.1600 C   0  0  0  0  0  0  0  0  0  0  0  0
   59.4990   34.4664   49.0088 H   0  0  0  0  0  0  0  0  0  0  0  0
   60.1101   32.8441   48.5117 H   0  0  0  0  0  0  0  0  0  0  0  0
   58.3170   33.4810   47.4820 C   0  0  0  0  0  0  0  0  0  0  0  0
   57.6220   34.3169   47.6500 H   0  0  0  0  0  0  0  0  0  0  0  0
   57.8872   32.5624   47.9081 H   0  0  0  0  0  0  0  0  0  0  0  0
   58.5360   33.3030   46.0320 N   0  0  0  0  0  0  0  0  0  0  0  0
   57.3840   32.6730   45.3510 C   0  0  0  0  0  0  0  0  0  0  0  0
   57.1402   33.2368   44.4385 H   0  0  0  0  0  0  0  0  0  0  0  0
   56.5089   32.6744   46.0175 H   0  0  0  0  0  0  0  0  0  0  0  0
   57.7490   31.2610   44.9900 C   0  0  0  0  0  0  0  0  0  0  0  0
   56.8300   30.4700   44.2840 C   0  0  0  0  0  0  0  0  0  0  0  0
   55.8740   30.9042   43.9560 H   0  0  0  0  0  0  0  0  0  0  0  0
   57.1210   29.1350   43.9950 C   0  0  0  0  0  0  0  0  0  0  0  0
   56.3957   28.5264   43.4350 H   0  0  0  0  0  0  0  0  0  0  0  0
   58.3370   28.5630   44.4160 C   0  0  0  0  0  0  0  0  0  0  0  0
   58.6890   27.1580   44.1050 C   0  0  0  0  0  0  0  0  0  0  0  0
   59.7507   26.8704   44.0968 H   0  0  0  0  0  0  0  0  0  0  0  0
   57.7680   26.2220   43.8330 C   0  0  0  0  0  0  0  0  0  0  0  0
   57.4811   26.0521   42.7848 H   0  0  0  0  0  0  0  0  0  0  0  0
   57.1250   25.4120   44.8830 C   0  0  0  0  0  0  0  0  0  0  0  0
   56.7760   25.9820   45.9500 O   0  0  0  0  0  0  0  0  0  0  0  0
   56.8750   24.0060   44.7190 N   0  0  0  0  0  0  0  0  0  0  0  0
   57.9920   23.0920   44.4410 C   0  0  0  0  0  0  0  0  0  0  0  0
   58.7344   23.6143   43.8197 H   0  0  0  0  0  0  0  0  0  0  0  0
   58.4308   22.7830   45.4012 H   0  0  0  0  0  0  0  0  0  0  0  0
   57.5170   21.8220   43.6950 C   0  0  0  0  0  0  0  0  0  0  0  0
   57.9236   21.8500   42.6733 H   0  0  0  0  0  0  0  0  0  0  0  0
   57.8798   20.9609   44.2754 H   0  0  0  0  0  0  0  0  0  0  0  0
   56.1080   21.6900   43.6090 O   0  0  0  0  0  0  0  0  0  0  0  0
   55.5120   21.9620   44.8580 C   0  0  0  0  0  0  0  0  0  0  0  0
   54.4626   21.6324   44.8451 H   0  0  0  0  0  0  0  0  0  0  0  0
   56.0509   21.4231   45.6512 H   0  0  0  0  0  0  0  0  0  0  0  0
   55.5730   23.4670   45.1240 C   0  0  0  0  0  0  0  0  0  0  0  0
   54.7791   23.9686   44.5512 H   0  0  0  0  0  0  0  0  0  0  0  0
   55.4328   23.6447   46.2005 H   0  0  0  0  0  0  0  0  0  0  0  0
   59.2580   29.3610   45.1110 C   0  0  0  0  0  0  0  0  0  0  0  0
   60.2213   28.9330   45.4254 H   0  0  0  0  0  0  0  0  0  0  0  0
   58.9630   30.6960   45.4080 C   0  0  0  0  0  0  0  0  0  0  0  0
   59.6856   31.3047   45.9713 H   0  0  0  0  0  0  0  0  0  0  0  0
   58.9110   34.5890   45.3950 C   0  0  0  0  0  0  0  0  0  0  0  0
   58.0205   35.2321   45.3370 H   0  0  0  0  0  0  0  0  0  0  0  0
   59.3055   34.3743   44.3909 H   0  0  0  0  0  0  0  0  0  0  0  0
   60.0080   35.3220   46.2000 C   0  0  0  0  0  0  0  0  0  0  0  0
   59.5663   36.1936   46.7053 H   0  0  0  0  0  0  0  0  0  0  0  0
   60.8006   35.6483   45.5105 H   0  0  0  0  0  0  0  0  0  0  0  0
   63.9920   32.9930   48.0900 N   0  0  0  0  0  0  0  0  0  0  0  0
   64.4840   32.7200   47.2100 H   0  0  0  0  0  0  0  0  0  0  0  0
  1  2  1  0
  2  3  1  0
  3  4  2  0
  4  5  1  0
  4  6  1  0
  6  7  1  0
  6  8  2  0
  8  9  1  0
  9 10  2  0
 10 11  1  0
  9 12  1  0
 12 13  1  0
 12 14  2  0
 14 15  1  0
 15 16  2  0
 15 17  1  0
 17 18  1  0
 18 19  1  0
 18 20  1  0
 18 21  1  0
 21 22  1  0
 21 23  1  0
 21 24  1  0
 24 25  1  0
 25 26  1  0
 25 27  1  0
 25 28  1  0
 28 29  2  0
 29 30  1  0
 29 31  1  0
 31 32  1  0
 31 33  2  0
 33 34  1  0
 34 35  1  0
 34 36  2  0
 36 37  1  0
 36 38  1  0
 38 39  2  0
 38 40  1  0
 40 41  1  0
 41 42  1  0
 41 43  1  0
 41 44  1  0
 44 45  1  0
 44 46  1  0
 44 47  1  0
 47 48  1  0
 48 49  1  0
 48 50  1  0
 48 51  1  0
 51 52  1  0
 51 53  1  0
 33 54  1  0
 54 55  1  0
 54 56  2  0
 56 57  1  0
 24 58  1  0
 58 59  1  0
 58 60  1  0
 58 61  1  0
 61 62  1  0
 61 63  1  0
 14 64  1  0
 64 65  1  0
 10  3  1  0
 61 17  1  0
 64  8  1  0
 56 28  1  0
 51 40  1  0
M  END
>  <UniqueID>  (33) 
32

>  <SMILES>  (33) 
O=C(/C=C/c1ccc(CN2CCN(C(=O)c3cc4cc(O)ccc4[nH]3)CC2)cc1)N1CCOCC1

>  <Energy>  (33) 
124.63830139497807

>  <Genealogy>  (33) 
O=C(/C=C/c1ccc(CN2CCN(C(=O)c3cc4cc(O)ccc4[nH]3)CC2)cc1)N1CCOCC1 (cis-trans isomerization)
O=C(/C=C/c1ccc(CN2CCN(C(=O)c3cc4cc(O)ccc4[nH]3)CC2)cc1)N1CCOCC1 (3D coordinates assigned)
O=C(/C=C/c1ccc(CN2CCN(C(=O)c3cc4cc(O)ccc4[nH]3)CC2)cc1)N1CCOCC1 (nonaromatic ring conformer: 124.63830139497807 kcal/mol)

>  <smiles>  (33) 
O=C(C=Cc1ccc(CN2CCN(C(=O)c3cc4cc(O)ccc4[nH]3)CC2)cc1)N1CCOCC1

>  <score_type>  (33) 
oracle

>  <origin>  (33) 
adg

>  <m_score__min__energy>  (33) 
-10.130000000000001

>  <m_primary>  (33) 
energy

$$$$
33:0
     RDKit          3D

 38 40  0  0  0  0  0  0  0  0999 V2000
   56.6940   30.3920   42.6270 C   0  0  0  0  0  0  0  0  0  0  0  0
   57.4170   31.2710   43.6110 C   0  0  0  0  0  0  0  0  0  0  0  0
   57.7670   32.5760   43.2340 C   0  0  0  0  0  0  0  0  0  0  0  0
   58.4240   33.4230   44.1280 C   0  0  0  0  0  0  0  0  0  0  0  0
   58.7590   32.9780   45.4180 C   0  0  0  0  0  0  0  0  0  0  0  0
   59.4470   33.8700   46.3820 C   0  0  0  0  0  0  0  0  0  0  0  0
   59.7690   35.0360   46.0240 O   0  0  0  0  0  0  0  0  0  0  0  0
   59.7360   33.4360   47.7210 N   0  0  0  0  0  0  0  0  0  0  0  0
   60.5450   34.2540   48.6230 C   0  0  0  0  0  0  0  0  0  0  0  0
   61.9760   33.8160   48.5930 C   0  0  0  0  0  0  0  0  0  0  0  0
   62.6680   33.3980   47.4740 C   0  0  0  0  0  0  0  0  0  0  0  0
   63.9470   33.1300   47.9100 C   0  0  0  0  0  0  0  0  0  0  0  0
   63.9570   33.4050   49.2630 C   0  0  0  0  0  0  0  0  0  0  0  0
   62.7680   33.8150   49.6400 O   0  0  0  0  0  0  0  0  0  0  0  0
   58.4150   31.6690   45.7950 C   0  0  0  0  0  0  0  0  0  0  0  0
   57.7660   30.8060   44.8980 C   0  0  0  0  0  0  0  0  0  0  0  0
   57.4600   29.4650   45.3090 N   0  0  0  0  0  0  0  0  0  0  0  0
   58.4380   28.4400   45.6430 C   0  0  0  0  0  0  0  0  0  0  0  0
   57.6130   27.1540   45.9000 C   0  0  0  0  0  0  0  0  0  0  0  0
   56.2260   27.4800   45.5840 N   0  0  0  0  0  0  0  0  0  0  0  0
   56.1930   28.8470   45.2440 C   0  0  0  0  0  0  0  0  0  0  0  0
   55.1440   29.4400   44.8790 O   0  0  0  0  0  0  0  0  0  0  0  0
   56.0869   29.6539   43.1717 H   0  0  0  0  0  0  0  0  0  0  0  0
   56.0396   31.0102   41.9949 H   0  0  0  0  0  0  0  0  0  0  0  0
   57.4269   29.8692   41.9949 H   0  0  0  0  0  0  0  0  0  0  0  0
   57.5213   32.9354   42.2238 H   0  0  0  0  0  0  0  0  0  0  0  0
   58.6816   34.4471   43.8202 H   0  0  0  0  0  0  0  0  0  0  0  0
   59.3140   32.5490   48.0740 H   0  0  0  0  0  0  0  0  0  0  0  0
   60.4828   35.3066   48.3097 H   0  0  0  0  0  0  0  0  0  0  0  0
   60.1606   34.1376   49.6471 H   0  0  0  0  0  0  0  0  0  0  0  0
   62.2797   33.2996   46.4495 H   0  0  0  0  0  0  0  0  0  0  0  0
   64.7903   32.7696   47.3026 H   0  0  0  0  0  0  0  0  0  0  0  0
   64.8290   33.2970   49.9248 H   0  0  0  0  0  0  0  0  0  0  0  0
   58.6578   31.3152   46.8079 H   0  0  0  0  0  0  0  0  0  0  0  0
   59.1374   28.2883   44.8076 H   0  0  0  0  0  0  0  0  0  0  0  0
   59.0426   28.7204   46.5181 H   0  0  0  0  0  0  0  0  0  0  0  0
   57.9686   26.3389   45.2525 H   0  0  0  0  0  0  0  0  0  0  0  0
   57.7146   26.8185   46.9427 H   0  0  0  0  0  0  0  0  0  0  0  0
  1  2  1  0
  2  3  2  0
  3  4  1  0
  4  5  2  0
  5  6  1  0
  6  7  2  0
  6  8  1  0
  8  9  1  0
  9 10  1  0
 10 11  2  0
 11 12  1  0
 12 13  2  0
 13 14  1  0
  5 15  1  0
 15 16  2  0
 16 17  1  0
 17 18  1  0
 18 19  1  0
 19 20  1  0
 20 21  1  0
 21 22  2  0
 16  2  1  0
 21 17  1  0
 14 10  1  0
  1 23  1  0
  1 24  1  0
  1 25  1  0
  3 26  1  0
  4 27  1  0
  8 28  1  0
  9 29  1  0
  9 30  1  0
 11 31  1  0
 12 32  1  0
 13 33  1  0
 15 34  1  0
 18 35  1  0
 18 36  1  0
 19 37  1  0
 19 38  1  0
M  CHG  1  20  -1
M  END
>  <UniqueID>  (34) 
33

>  <SMILES>  (34) 
Cc1ccc(C(=O)NCc2ccco2)cc1N1CC[N-]C1=O

>  <Energy>  (34) 
84.74472448143614

>  <Genealogy>  (34) 
Cc1ccc(C(=O)NCc2ccco2)cc1N1CC[N-]C1=O (protonated)
Cc1ccc(C(=O)NCc2ccco2)cc1N1CC[N-]C1=O (3D coordinates assigned)
Cc1ccc(C(=O)NCc2ccco2)cc1N1CC[N-]C1=O (nonaromatic ring conformer: 84.74472448143614 kcal/mol)

>  <smiles>  (34) 
Cc1ccc(C(=O)NCc2ccco2)cc1N1CCNC1=O

>  <score_type>  (34) 
oracle

>  <origin>  (34) 
adg

>  <m_score__min__energy>  (34) 
-9.1899999999999995

>  <m_primary>  (34) 
energy

$$$$
34:0
     RDKit          3D

 49 51  0  0  0  0  0  0  0  0999 V2000
   63.0070   31.6670   47.4890 C   0  0  0  0  0  0  0  0  0  0  0  0
   61.8890   32.5540   47.9600 C   0  0  0  0  0  0  0  0  0  0  0  0
   61.3060   33.4800   47.0830 C   0  0  0  0  0  0  0  0  0  0  0  0
   60.2880   34.3320   47.5390 C   0  0  0  0  0  0  0  0  0  0  0  0
   59.6340   35.3220   46.5920 C   0  0  0  0  0  0  0  0  0  0  0  0
   58.5080   34.7540   45.8150 N   0  0  0  0  0  0  0  0  0  0  0  0
   57.5730   33.9410   46.6250 C   0  0  0  0  0  0  0  0  0  0  0  0
   56.6540   33.0900   45.7460 C   0  0  0  0  0  0  0  0  0  0  0  0
   57.4670   32.1960   44.9130 N   0  0  0  0  0  0  0  0  0  0  0  0
   56.9380   30.9200   44.5080 C   0  0  0  0  0  0  0  0  0  0  0  0
   55.6890   30.7360   44.5010 O   0  0  0  0  0  0  0  0  0  0  0  0
   57.8310   29.7560   44.1840 C   0  0  0  0  0  0  0  0  0  0  0  0
   58.6790   29.4250   45.3730 C   0  0  0  0  0  0  0  0  0  0  0  0
   59.7150   28.4900   45.3310 C   0  0  0  0  0  0  0  0  0  0  0  0
   60.3630   28.3760   46.8810 S   0  0  0  0  0  0  0  0  0  0  0  0
   59.2830   29.4920   47.5380 C   0  0  0  0  0  0  0  0  0  0  0  0
   59.3080   29.9710   48.9560 C   0  0  0  0  0  0  0  0  0  0  0  0
   58.4430   29.9800   46.5990 N   0  0  0  0  0  0  0  0  0  0  0  0
   58.7940   32.6490   44.4620 C   0  0  0  0  0  0  0  0  0  0  0  0
   58.8890   34.1820   44.5000 C   0  0  0  0  0  0  0  0  0  0  0  0
   59.8620   34.2230   48.8710 C   0  0  0  0  0  0  0  0  0  0  0  0
   60.4970   33.3200   49.7350 C   0  0  0  0  0  0  0  0  0  0  0  0
   60.0490   33.1980   51.1630 C   0  0  0  0  0  0  0  0  0  0  0  0
   61.4890   32.5100   49.2630 N   0  0  0  0  0  0  0  0  0  0  0  0
   63.5344   31.2486   48.3589 H   0  0  0  0  0  0  0  0  0  0  0  0
   62.5942   30.8480   46.8817 H   0  0  0  0  0  0  0  0  0  0  0  0
   63.7107   32.2552   46.8817 H   0  0  0  0  0  0  0  0  0  0  0  0
   61.6462   33.5386   46.0386 H   0  0  0  0  0  0  0  0  0  0  0  0
   59.2548   36.1685   47.1833 H   0  0  0  0  0  0  0  0  0  0  0  0
   60.4026   35.6253   45.8659 H   0  0  0  0  0  0  0  0  0  0  0  0
   58.1548   33.2763   47.2806 H   0  0  0  0  0  0  0  0  0  0  0  0
   56.9455   34.6260   47.2141 H   0  0  0  0  0  0  0  0  0  0  0  0
   55.9870   32.4915   46.3839 H   0  0  0  0  0  0  0  0  0  0  0  0
   56.0514   33.7463   45.1009 H   0  0  0  0  0  0  0  0  0  0  0  0
   57.2143   28.8841   43.9205 H   0  0  0  0  0  0  0  0  0  0  0  0
   58.4797   30.0193   43.3355 H   0  0  0  0  0  0  0  0  0  0  0  0
   60.0478   27.9291   44.4452 H   0  0  0  0  0  0  0  0  0  0  0  0
   59.2629   29.1073   49.6356 H   0  0  0  0  0  0  0  0  0  0  0  0
   60.2366   30.5321   49.1372 H   0  0  0  0  0  0  0  0  0  0  0  0
   58.4428   30.6257   49.1372 H   0  0  0  0  0  0  0  0  0  0  0  0
   59.5640   32.2235   45.1223 H   0  0  0  0  0  0  0  0  0  0  0  0
   58.9487   32.3116   43.4265 H   0  0  0  0  0  0  0  0  0  0  0  0
   59.9258   34.4746   44.2776 H   0  0  0  0  0  0  0  0  0  0  0  0
   58.1826   34.5741   43.7535 H   0  0  0  0  0  0  0  0  0  0  0  0
   59.0315   34.8447   49.2368 H   0  0  0  0  0  0  0  0  0  0  0  0
   60.8912   33.4274   51.8324 H   0  0  0  0  0  0  0  0  0  0  0  0
   59.2278   33.9052   51.3514 H   0  0  0  0  0  0  0  0  0  0  0  0
   59.6998   32.1721   51.3514 H   0  0  0  0  0  0  0  0  0  0  0  0
   61.9440   31.8260   49.9120 H   0  0  0  0  0  0  0  0  0  0  0  0
  1  2  1  0
  2  3  2  0
  3  4  1  0
  4  5  1  0
  5  6  1  0
  6  7  1  0
  7  8  1  0
  8  9  1  0
  9 10  1  0
 10 11  2  0
 10 12  1  0
 12 13  1  0
 13 14  2  0
 14 15  1  0
 15 16  1  0
 16 17  1  0
 16 18  2  0
  9 19  1  0
 19 20  1  0
  4 21  2  0
 21 22  1  0
 22 23  1  0
 22 24  2  0
 24  2  1  0
 20  6  1  0
 18 13  1  0
  1 25  1  0
  1 26  1  0
  1 27  1  0
  3 28  1  0
  5 29  1  0
  5 30  1  0
  7 31  1  0
  7 32  1  0
  8 33  1  0
  8 34  1  0
 12 35  1  0
 12 36  1  0
 14 37  1  0
 17 38  1  0
 17 39  1  0
 17 40  1  0
 19 41  1  0
 19 42  1  0
 20 43  1  0
 20 44  1  0
 21 45  1  0
 23 46  1  0
 23 47  1  0
 23 48  1  0
 24 49  1  0
M  CHG  1  24   1
M  END
>  <UniqueID>  (35) 
34

>  <SMILES>  (35) 
Cc1cc(CN2CCN(C(=O)Cc3csc(C)n3)CC2)cc(C)[nH+]1

>  <Energy>  (35) 
83.8780496396922

>  <Genealogy>  (35) 
Cc1cc(CN2CCN(C(=O)Cc3csc(C)n3)CC2)cc(C)[nH+]1 (protonated)
Cc1cc(CN2CCN(C(=O)Cc3csc(C)n3)CC2)cc(C)[nH+]1 (3D coordinates assigned)
Cc1cc(CN2CCN(C(=O)Cc3csc(C)n3)CC2)cc(C)[nH+]1 (nonaromatic ring conformer: 83.8780496396922 kcal/mol)

>  <smiles>  (35) 
Cc1cc(CN2CCN(C(=O)Cc3csc(C)n3)CC2)cc(C)n1

>  <score_type>  (35) 
oracle

>  <origin>  (35) 
adg

>  <m_score__min__energy>  (35) 
-6.5

>  <m_primary>  (35) 
energy

$$$$
35:0
     RDKit          3D

 49 52  0  0  0  0  0  0  0  0999 V2000
   55.8501   31.7583   43.7731 H   0  0  0  0  0  0  0  0  0  0  0  0
   56.9030   31.5410   44.0060 C   0  0  0  0  0  0  0  0  0  0  0  0
   57.7290   32.5510   43.9840 N   0  0  0  0  0  0  0  0  0  0  0  0
   58.3330   33.1850   45.1110 C   0  0  0  0  0  0  0  0  0  0  0  0
   58.8800   34.4680   44.9870 C   0  0  0  0  0  0  0  0  0  0  0  0
   58.7801   35.0206   44.0411 H   0  0  0  0  0  0  0  0  0  0  0  0
   59.5530   35.0450   46.0670 C   0  0  0  0  0  0  0  0  0  0  0  0
   60.0008   36.0444   45.9636 H   0  0  0  0  0  0  0  0  0  0  0  0
   59.6590   34.3550   47.2800 C   0  0  0  0  0  0  0  0  0  0  0  0
   60.2127   34.8030   48.1183 H   0  0  0  0  0  0  0  0  0  0  0  0
   59.0600   33.0900   47.4320 C   0  0  0  0  0  0  0  0  0  0  0  0
   59.1410   32.3440   48.7100 C   0  0  0  0  0  0  0  0  0  0  0  0
   58.1220   32.3470   49.4620 O   0  0  0  0  0  0  0  0  0  0  0  0
   60.3340   31.5870   49.0660 N   0  0  0  0  0  0  0  0  0  0  0  0
   60.9190   32.1940   49.6820 H   0  0  0  0  0  0  0  0  0  0  0  0
   61.1380   31.2640   47.8660 C   0  0  0  0  0  0  0  0  0  0  0  0
   61.2011   32.1561   47.2255 H   0  0  0  0  0  0  0  0  0  0  0  0
   62.1403   30.9494   48.1923 H   0  0  0  0  0  0  0  0  0  0  0  0
   60.5050   30.1180   47.0670 C   0  0  0  0  0  0  0  0  0  0  0  0
   59.5034   30.4219   46.7286 H   0  0  0  0  0  0  0  0  0  0  0  0
   61.1438   29.8914   46.2006 H   0  0  0  0  0  0  0  0  0  0  0  0
   60.3940   28.9610   47.8700 O   0  0  0  0  0  0  0  0  0  0  0  0
   59.5150   29.2160   48.9480 C   0  0  0  0  0  0  0  0  0  0  0  0
   58.5305   29.5009   48.5484 H   0  0  0  0  0  0  0  0  0  0  0  0
   59.4373   28.3034   49.5572 H   0  0  0  0  0  0  0  0  0  0  0  0
   60.0440   30.3560   49.8420 C   0  0  0  0  0  0  0  0  0  0  0  0
   59.2867   30.5883   50.6053 H   0  0  0  0  0  0  0  0  0  0  0  0
   60.9840   30.0168   50.3016 H   0  0  0  0  0  0  0  0  0  0  0  0
   58.3900   32.5150   46.3400 C   0  0  0  0  0  0  0  0  0  0  0  0
   57.9071   31.5328   46.4503 H   0  0  0  0  0  0  0  0  0  0  0  0
   57.2420   30.1220   44.3150 C   0  0  0  0  0  0  0  0  0  0  0  0
   57.3710   29.6510   45.6100 C   0  0  0  0  0  0  0  0  0  0  0  0
   57.2360   30.2317   46.5344 H   0  0  0  0  0  0  0  0  0  0  0  0
   57.7040   28.3030   45.5200 C   0  0  0  0  0  0  0  0  0  0  0  0
   57.9650   27.4590   46.5370 C   0  0  0  0  0  0  0  0  0  0  0  0
   58.7713   27.7371   47.2317 H   0  0  0  0  0  0  0  0  0  0  0  0
   57.2550   26.1910   46.7930 C   0  0  0  0  0  0  0  0  0  0  0  0
   57.8870   25.0840   47.2230 N   0  0  0  0  0  0  0  0  0  0  0  0
   56.9120   24.1500   47.2470 C   0  0  0  0  0  0  0  0  0  0  0  0
   57.1250   22.9610   47.6030 O   0  0  0  0  0  0  0  0  0  0  0  0
   55.7000   24.5830   46.8340 N   0  0  0  0  0  0  0  0  0  0  0  0
   55.9350   25.8730   46.5360 C   0  0  0  0  0  0  0  0  0  0  0  0
   54.9740   26.7140   45.9850 O   0  0  0  0  0  0  0  0  0  0  0  0
   57.7850   28.0230   44.1570 C   0  0  0  0  0  0  0  0  0  0  0  0
   58.1160   26.8570   43.5870 C   0  0  0  0  0  0  0  0  0  0  0  0
   58.3461   25.9836   44.2149 H   0  0  0  0  0  0  0  0  0  0  0  0
   58.1577   26.7728   42.4910 H   0  0  0  0  0  0  0  0  0  0  0  0
   57.4940   29.1230   43.4370 N   0  0  0  0  0  0  0  0  0  0  0  0
   57.4900   29.1550   42.3980 H   0  0  0  0  0  0  0  0  0  0  0  0
  1  2  1  0
  2  3  2  3
  3  4  1  0
  4  5  2  0
  5  6  1  0
  5  7  1  0
  7  8  1  0
  7  9  2  0
  9 10  1  0
  9 11  1  0
 11 12  1  0
 12 13  2  0
 12 14  1  0
 14 15  1  0
 14 16  1  0
 16 17  1  0
 16 18  1  0
 16 19  1  0
 19 20  1  0
 19 21  1  0
 19 22  1  0
 22 23  1  0
 23 24  1  0
 23 25  1  0
 23 26  1  0
 26 27  1  0
 26 28  1  0
 11 29  2  0
 29 30  1  0
  2 31  1  0
 31 32  2  0
 32 33  1  0
 32 34  1  0
 34 35  2  0
 35 36  1  0
 35 37  1  0
 37 38  1  0
 38 39  1  0
 39 40  2  0
 39 41  1  0
 41 42  1  0
 42 43  1  0
 34 44  1  0
 44 45  2  0
 45 46  1  0
 45 47  1  0
 44 48  1  0
 48 49  1  0
 29  4  1  0
 48 31  1  0
 26 14  1  0
 42 37  2  0
M  CHG  4  14   1  38  -1  41  -1  43  -1
M  END
>  <UniqueID>  (36) 
35

>  <SMILES>  (36) 
C=c1[nH]c(C=Nc2cccc(C(=O)[NH+]3CCOCC3)c2)c/c1=C\c1[n-]c(=O)[n-]c1[O-]

>  <Energy>  (36) 
140.82733867610722

>  <Genealogy>  (36) 
C=c1[nH]c(C=Nc2cccc(C(=O)[NH+]3CCOCC3)c2)cc1=Cc1[n-]c(=O)[n-]c1[O-] (protonated)
C=c1[nH]c(C=Nc2cccc(C(=O)[NH+]3CCOCC3)c2)c/c1=C\c1[n-]c(=O)[n-]c1[O-] (cis-trans isomerization)
C=c1[nH]c(C=Nc2cccc(C(=O)[NH+]3CCOCC3)c2)c/c1=C\c1[n-]c(=O)[n-]c1[O-] (3D coordinates assigned)
C=c1[nH]c(C=Nc2cccc(C(=O)[NH+]3CCOCC3)c2)c/c1=C\c1[n-]c(=O)[n-]c1[O-] (nonaromatic ring conformer: 140.82733867610722 kcal/mol)

>  <smiles>  (36) 
C=c1[nH]c(C=Nc2cccc(C(=O)N3CCOCC3)c2)cc1=Cc1[nH]c(=O)[nH]c1O

>  <score_type>  (36) 
oracle

>  <origin>  (36) 
adg

>  <m_score__min__energy>  (36) 
-16.140000000000001

>  <m_primary>  (36) 
energy

$$$$
36:0
     RDKit          3D

 50 53  0  0  0  0  0  0  0  0999 V2000
   56.9180   21.0830   42.8940 C   0  0  0  0  0  0  0  0  0  0  0  0
   57.4440   21.9850   43.9710 C   0  0  0  0  0  0  0  0  0  0  0  0
   58.8220   22.0490   44.2270 C   0  0  0  0  0  0  0  0  0  0  0  0
   59.3130   22.9020   45.2190 C   0  0  0  0  0  0  0  0  0  0  0  0
   58.4370   23.7110   45.9450 C   0  0  0  0  0  0  0  0  0  0  0  0
   57.0630   23.6930   45.6720 C   0  0  0  0  0  0  0  0  0  0  0  0
   56.1970   24.5330   46.4480 N   0  0  0  0  0  0  0  0  0  0  0  0
   55.9450   25.9290   46.2360 C   0  0  0  0  0  0  0  0  0  0  0  0
   54.7730   26.3300   45.9950 O   0  0  0  0  0  0  0  0  0  0  0  0
   57.0390   26.8660   46.2470 N   0  0  0  0  0  0  0  0  0  0  0  0
   57.8000   27.0920   47.4900 C   0  0  0  0  0  0  0  0  0  0  0  0
   58.4180   28.4600   47.4970 C   0  0  0  0  0  0  0  0  0  0  0  0
   58.9230   28.9770   46.3720 C   0  0  0  0  0  0  0  0  0  0  0  0
   59.4450   30.3520   46.3550 C   0  0  0  0  0  0  0  0  0  0  0  0
   60.6310   30.7500   46.9330 C   0  0  0  0  0  0  0  0  0  0  0  0
   60.7780   32.0690   46.7190 N   0  0  0  0  0  0  0  0  0  0  0  0
   61.9300   32.8720   47.1080 C   0  0  0  0  0  0  0  0  0  0  0  0
   59.7570   32.5360   46.0180 N   0  0  0  0  0  0  0  0  0  0  0  0
   58.9130   31.5100   45.7820 C   0  0  0  0  0  0  0  0  0  0  0  0
   57.6190   31.7100   45.0230 C   0  0  0  0  0  0  0  0  0  0  0  0
   57.7650   32.0800   43.5580 C   0  0  0  0  0  0  0  0  0  0  0  0
   57.1480   30.8330   43.1010 N   0  0  0  0  0  0  0  0  0  0  0  0
   56.9700   30.4410   44.5010 C   0  0  0  0  0  0  0  0  0  0  0  0
   58.8070   28.1950   45.0920 C   0  0  0  0  0  0  0  0  0  0  0  0
   57.4270   27.5320   44.9880 C   0  0  0  0  0  0  0  0  0  0  0  0
   56.5670   22.8150   44.6890 C   0  0  0  0  0  0  0  0  0  0  0  0
   56.4143   20.2193   43.3526 H   0  0  0  0  0  0  0  0  0  0  0  0
   56.2011   21.6366   42.2698 H   0  0  0  0  0  0  0  0  0  0  0  0
   57.7528   20.7317   42.2698 H   0  0  0  0  0  0  0  0  0  0  0  0
   59.5176   21.4262   43.6454 H   0  0  0  0  0  0  0  0  0  0  0  0
   60.3924   22.9361   45.4283 H   0  0  0  0  0  0  0  0  0  0  0  0
   58.8282   24.3669   46.7367 H   0  0  0  0  0  0  0  0  0  0  0  0
   57.1209   26.9989   48.3503 H   0  0  0  0  0  0  0  0  0  0  0  0
   58.6029   26.3427   47.5523 H   0  0  0  0  0  0  0  0  0  0  0  0
   58.4556   29.0394   48.4313 H   0  0  0  0  0  0  0  0  0  0  0  0
   61.3348   30.1013   47.4751 H   0  0  0  0  0  0  0  0  0  0  0  0
   61.9928   32.9157   48.2053 H   0  0  0  0  0  0  0  0  0  0  0  0
   62.8470   32.4164   46.7062 H   0  0  0  0  0  0  0  0  0  0  0  0
   61.8199   33.8900   46.7062 H   0  0  0  0  0  0  0  0  0  0  0  0
   57.1408   32.3716   45.7604 H   0  0  0  0  0  0  0  0  0  0  0  0
   57.1963   32.9782   43.2754 H   0  0  0  0  0  0  0  0  0  0  0  0
   58.7612   32.3484   43.1766 H   0  0  0  0  0  0  0  0  0  0  0  0
   57.8920   30.2300   42.6770 H   0  0  0  0  0  0  0  0  0  0  0  0
   55.9151   30.3369   44.7949 H   0  0  0  0  0  0  0  0  0  0  0  0
   57.3647   29.4694   44.8330 H   0  0  0  0  0  0  0  0  0  0  0  0
   58.9467   28.8751   44.2388 H   0  0  0  0  0  0  0  0  0  0  0  0
   59.5788   27.4112   45.0838 H   0  0  0  0  0  0  0  0  0  0  0  0
   56.6795   28.3027   44.7486 H   0  0  0  0  0  0  0  0  0  0  0  0
   57.4753   26.7671   44.1990 H   0  0  0  0  0  0  0  0  0  0  0  0
   55.4872   22.7789   44.4823 H   0  0  0  0  0  0  0  0  0  0  0  0
  1  2  1  0
  2  3  2  0
  3  4  1  0
  4  5  2  0
  5  6  1  0
  6  7  1  0
  7  8  1  0
  8  9  2  0
  8 10  1  0
 10 11  1  0
 11 12  1  0
 12 13  2  0
 13 14  1  0
 14 15  2  0
 15 16  1  0
 16 17  1  0
 16 18  1  0
 18 19  2  0
 19 20  1  0
 20 21  1  0
 21 22  1  0
 22 23  1  0
 13 24  1  0
 24 25  1  0
  6 26  2  0
 26  2  1  0
 25 10  1  0
 19 14  1  0
 23 20  1  0
  1 27  1  0
  1 28  1  0
  1 29  1  0
  3 30  1  0
  4 31  1  0
  5 32  1  0
 11 33  1  0
 11 34  1  0
 12 35  1  0
 15 36  1  0
 17 37  1  0
 17 38  1  0
 17 39  1  0
 20 40  1  0
 21 41  1  0
 21 42  1  0
 22 43  1  0
 23 44  1  0
 23 45  1  0
 24 46  1  0
 24 47  1  0
 25 48  1  0
 25 49  1  0
 26 50  1  0
M  CHG  1   7  -1
M  END
>  <UniqueID>  (37) 
36

>  <SMILES>  (37) 
Cc1cccc([N-]C(=O)N2CC=C(c3cn(C)nc3C3CNC3)CC2)c1

>  <Energy>  (37) 
159.28748015413024

>  <Genealogy>  (37) 
Cc1cccc([N-]C(=O)N2CC=C(c3cn(C)nc3C3CNC3)CC2)c1 (protonated)
Cc1cccc([N-]C(=O)N2CC=C(c3cn(C)nc3C3CNC3)CC2)c1 (3D coordinates assigned)
Cc1cccc([N-]C(=O)N2CC=C(c3cn(C)nc3C3CNC3)CC2)c1 (nonaromatic ring conformer: 159.28748015413024 kcal/mol)

>  <smiles>  (37) 
Cc1cccc(NC(=O)N2CC=C(c3cn(C)nc3C3CNC3)CC2)c1

>  <score_type>  (37) 
oracle

>  <origin>  (37) 
adg

>  <m_score__min__energy>  (37) 
-9.9900000000000002

>  <m_primary>  (37) 
energy

$$$$
37:0
     RDKit          3D

 31 32  0  0  0  0  0  0  0  0999 V2000
   58.6280   27.0470   47.3650 C   0  0  0  0  0  0  0  0  0  0  0  0
   57.8980   26.5190   46.3760 C   0  0  0  0  0  0  0  0  0  0  0  0
   58.4400   25.3520   45.6020 C   0  0  0  0  0  0  0  0  0  0  0  0
   56.6440   27.1670   45.9260 C   0  0  0  0  0  0  0  0  0  0  0  0
   55.5510   26.5620   46.1010 O   0  0  0  0  0  0  0  0  0  0  0  0
   56.6230   28.5040   45.2950 C   0  0  0  0  0  0  0  0  0  0  0  0
   57.6970   29.3730   45.2420 C   0  0  0  0  0  0  0  0  0  0  0  0
   57.2630   30.4770   44.5300 C   0  0  0  0  0  0  0  0  0  0  0  0
   58.0520   31.6920   44.2500 C   0  0  0  0  0  0  0  0  0  0  0  0
   58.2830   32.0090   43.0520 O   0  0  0  0  0  0  0  0  0  0  0  0
   58.6090   32.5330   45.3320 C   0  0  0  0  0  0  0  0  0  0  0  0
   58.1820   33.8660   45.4620 C   0  0  0  0  0  0  0  0  0  0  0  0
   58.6900   34.6750   46.4820 C   0  0  0  0  0  0  0  0  0  0  0  0
   59.6210   34.1590   47.3870 C   0  0  0  0  0  0  0  0  0  0  0  0
   60.0370   32.8290   47.2800 C   0  0  0  0  0  0  0  0  0  0  0  0
   59.5320   32.0140   46.2620 C   0  0  0  0  0  0  0  0  0  0  0  0
   59.9120   30.7120   46.2130 F   0  0  0  0  0  0  0  0  0  0  0  0
   55.9450   30.2350   44.1820 C   0  0  0  0  0  0  0  0  0  0  0  0
   55.5660   29.0290   44.6430 N   0  0  0  0  0  0  0  0  0  0  0  0
   58.2406   27.9020   47.9385 H   0  0  0  0  0  0  0  0  0  0  0  0
   59.6156   26.6261   47.6047 H   0  0  0  0  0  0  0  0  0  0  0  0
   58.7975   24.5822   46.3017 H   0  0  0  0  0  0  0  0  0  0  0  0
   57.6452   24.9311   44.9686 H   0  0  0  0  0  0  0  0  0  0  0  0
   59.2743   25.6878   44.9686 H   0  0  0  0  0  0  0  0  0  0  0  0
   58.6950   29.2180   45.6779 H   0  0  0  0  0  0  0  0  0  0  0  0
   57.4435   34.2748   44.7566 H   0  0  0  0  0  0  0  0  0  0  0  0
   58.3565   35.7193   46.5725 H   0  0  0  0  0  0  0  0  0  0  0  0
   60.0267   34.7996   48.1839 H   0  0  0  0  0  0  0  0  0  0  0  0
   60.7637   32.4222   47.9986 H   0  0  0  0  0  0  0  0  0  0  0  0
   55.3039   30.9251   43.6139 H   0  0  0  0  0  0  0  0  0  0  0  0
   54.6320   28.5880   44.4940 H   0  0  0  0  0  0  0  0  0  0  0  0
  1  2  2  0
  2  3  1  0
  2  4  1  0
  4  5  2  0
  4  6  1  0
  6  7  2  0
  7  8  1  0
  8  9  1  0
  9 10  2  0
  9 11  1  0
 11 12  2  0
 12 13  1  0
 13 14  2  0
 14 15  1  0
 15 16  2  0
 16 17  1  0
  8 18  2  0
 18 19  1  0
 19  6  1  0
 16 11  1  0
  1 20  1  0
  1 21  1  0
  3 22  1  0
  3 23  1  0
  3 24  1  0
  7 25  1  0
 12 26  1  0
 13 27  1  0
 14 28  1  0
 15 29  1  0
 18 30  1  0
 19 31  1  0
M  END
>  <UniqueID>  (38) 
37

>  <SMILES>  (38) 
C=C(C)C(=O)c1cc(C(=O)c2ccccc2F)c[nH]1

>  <Energy>  (38) 
64.12792486213318

>  <Genealogy>  (38) 
C=C(C)C(=O)c1cc(C(=O)c2ccccc2F)c[nH]1 (3D coordinates assigned)
C=C(C)C(=O)c1cc(C(=O)c2ccccc2F)c[nH]1 (optimized conformer: 64.12792486213318 kcal/mol)

>  <smiles>  (38) 
C=C(C)C(=O)c1cc(C(=O)c2ccccc2F)c[nH]1

>  <score_type>  (38) 
oracle

>  <origin>  (38) 
adg

>  <m_score__min__energy>  (38) 
-7.8700000000000001

>  <m_primary>  (38) 
energy

$$$$
38:0
     RDKit          3D

 41 43  0  0  0  0  0  0  0  0999 V2000
   55.1460   26.3670   45.9960 N   0  0  0  0  0  0  0  0  0  0  0  0
   56.8580   26.5790   45.8700 S   0  0  0  0  0  0  0  0  0  0  0  0
   57.4910   26.2900   47.1970 O   0  0  0  0  0  0  0  0  0  0  0  0
   57.4090   25.6250   44.8560 O   0  0  0  0  0  0  0  0  0  0  0  0
   57.2120   28.2350   45.3840 C   0  0  0  0  0  0  0  0  0  0  0  0
   58.5230   28.7180   45.4590 C   0  0  0  0  0  0  0  0  0  0  0  0
   58.8230   30.0190   45.0370 C   0  0  0  0  0  0  0  0  0  0  0  0
   57.8090   30.8490   44.5280 C   0  0  0  0  0  0  0  0  0  0  0  0
   58.1300   32.2210   43.9940 C   0  0  0  0  0  0  0  0  0  0  0  0
   57.4350   33.3330   44.8020 C   0  0  0  0  0  0  0  0  0  0  0  0
   57.7890   33.2570   46.2250 N   0  0  0  0  0  0  0  0  0  0  0  0
   58.9150   32.8230   46.7050 C   0  0  0  0  0  0  0  0  0  0  0  0
   60.0710   33.4390   46.3480 N   0  0  0  0  0  0  0  0  0  0  0  0
   61.2710   33.0540   46.8530 C   0  0  0  0  0  0  0  0  0  0  0  0
   61.3190   32.0220   47.8120 C   0  0  0  0  0  0  0  0  0  0  0  0
   60.1180   31.3590   48.1230 C   0  0  0  0  0  0  0  0  0  0  0  0
   60.1080   30.3840   48.9180 O   0  0  0  0  0  0  0  0  0  0  0  0
   58.9530   31.7740   47.5690 N   0  0  0  0  0  0  0  0  0  0  0  0
   62.6250   31.5850   48.4370 C   0  0  0  0  0  0  0  0  0  0  0  0
   63.7150   32.6470   48.3110 C   0  0  0  0  0  0  0  0  0  0  0  0
   63.8040   33.1390   46.8750 C   0  0  0  0  0  0  0  0  0  0  0  0
   62.5010   33.8270   46.4450 C   0  0  0  0  0  0  0  0  0  0  0  0
   56.4950   30.3650   44.4650 C   0  0  0  0  0  0  0  0  0  0  0  0
   56.1980   29.0650   44.8870 C   0  0  0  0  0  0  0  0  0  0  0  0
   54.7890   27.0830   46.6570 H   0  0  0  0  0  0  0  0  0  0  0  0
   59.3223   28.0722   45.8516 H   0  0  0  0  0  0  0  0  0  0  0  0
   59.8554   30.3927   45.1040 H   0  0  0  0  0  0  0  0  0  0  0  0
   59.2182   32.3748   44.0417 H   0  0  0  0  0  0  0  0  0  0  0  0
   57.7649   32.2758   42.9578 H   0  0  0  0  0  0  0  0  0  0  0  0
   57.7460   34.3113   44.4068 H   0  0  0  0  0  0  0  0  0  0  0  0
   56.3468   33.2039   44.7068 H   0  0  0  0  0  0  0  0  0  0  0  0
   62.4544   31.3788   49.5039 H   0  0  0  0  0  0  0  0  0  0  0  0
   62.9685   30.6869   47.9027 H   0  0  0  0  0  0  0  0  0  0  0  0
   63.4756   33.4937   48.9712 H   0  0  0  0  0  0  0  0  0  0  0  0
   64.6806   32.2069   48.6005 H   0  0  0  0  0  0  0  0  0  0  0  0
   64.6336   33.8566   46.7918 H   0  0  0  0  0  0  0  0  0  0  0  0
   63.9749   32.2728   46.2188 H   0  0  0  0  0  0  0  0  0  0  0  0
   62.4599   34.8237   46.9087 H   0  0  0  0  0  0  0  0  0  0  0  0
   62.5051   33.8885   45.3467 H   0  0  0  0  0  0  0  0  0  0  0  0
   55.6922   31.0117   44.0812 H   0  0  0  0  0  0  0  0  0  0  0  0
   55.1646   28.6926   44.8286 H   0  0  0  0  0  0  0  0  0  0  0  0
  1  2  1  0
  2  3  2  0
  2  4  2  0
  2  5  1  0
  5  6  2  0
  6  7  1  0
  7  8  2  0
  8  9  1  0
  9 10  1  0
 10 11  1  0
 11 12  2  3
 12 13  1  0
 13 14  1  0
 14 15  2  0
 15 16  1  0
 16 17  2  0
 16 18  1  0
 15 19  1  0
 19 20  1  0
 20 21  1  0
 21 22  1  0
  8 23  1  0
 23 24  2  0
 24  5  1  0
 18 12  1  0
 22 14  1  0
  1 25  1  0
  6 26  1  0
  7 27  1  0
  9 28  1  0
  9 29  1  0
 10 30  1  0
 10 31  1  0
 19 32  1  0
 19 33  1  0
 20 34  1  0
 20 35  1  0
 21 36  1  0
 21 37  1  0
 22 38  1  0
 22 39  1  0
 23 40  1  0
 24 41  1  0
M  CHG  3   1  -1  13  -1  18  -1
M  END
>  <UniqueID>  (39) 
38

>  <SMILES>  (39) 
[NH-]S(=O)(=O)c1ccc(CCN=c2[n-]c3c(c(=O)[n-]2)CCCC3)cc1

>  <Energy>  (39) 
39.715902698604

>  <Genealogy>  (39) 
[NH-]S(=O)(=O)c1ccc(CCN=c2[n-]c3c(c(=O)[n-]2)CCCC3)cc1 (protonated)
[NH-]S(=O)(=O)c1ccc(CCN=c2[n-]c3c(c(=O)[n-]2)CCCC3)cc1 (3D coordinates assigned)
[NH-]S(=O)(=O)c1ccc(CCN=c2[n-]c3c(c(=O)[n-]2)CCCC3)cc1 (nonaromatic ring conformer: 39.715902698604 kcal/mol)

>  <smiles>  (39) 
NS(=O)(=O)c1ccc(CCN=c2[nH]c3c(c(=O)[nH]2)CCCC3)cc1

>  <score_type>  (39) 
oracle

>  <origin>  (39) 
adg

>  <m_score__min__energy>  (39) 
-13.68

>  <m_primary>  (39) 
energy

$$$$
39:0
     RDKit          3D

 53 55  0  0  0  0  0  0  0  0999 V2000
   61.9450   32.1380   47.1040 C   0  0  0  0  0  0  0  0  0  0  0  0
   60.9470   31.0330   47.3080 C   0  0  0  0  0  0  0  0  0  0  0  0
   60.8920   29.9610   46.4000 C   0  0  0  0  0  0  0  0  0  0  0  0
   59.9570   28.9380   46.5710 C   0  0  0  0  0  0  0  0  0  0  0  0
   59.0670   28.9790   47.6440 C   0  0  0  0  0  0  0  0  0  0  0  0
   59.1100   30.0390   48.5540 C   0  0  0  0  0  0  0  0  0  0  0  0
   60.0540   31.0760   48.3970 C   0  0  0  0  0  0  0  0  0  0  0  0
   60.1370   32.1540   49.2980 O   0  0  0  0  0  0  0  0  0  0  0  0
   59.2750   33.2930   49.3100 C   0  0  0  0  0  0  0  0  0  0  0  0
   59.6710   34.2550   48.2360 C   0  0  0  0  0  0  0  0  0  0  0  0
   60.8280   34.7550   48.2350 O   0  0  0  0  0  0  0  0  0  0  0  0
   58.7500   34.5480   47.1790 N   0  0  0  0  0  0  0  0  0  0  0  0
   58.3580   33.6550   46.1280 C   0  0  0  0  0  0  0  0  0  0  0  0
   58.6660   33.9980   44.8060 C   0  0  0  0  0  0  0  0  0  0  0  0
   58.4050   33.1040   43.7650 C   0  0  0  0  0  0  0  0  0  0  0  0
   57.8440   31.8550   44.0390 C   0  0  0  0  0  0  0  0  0  0  0  0
   57.5150   31.5020   45.3500 C   0  0  0  0  0  0  0  0  0  0  0  0
   57.0280   30.1800   45.6140 N   0  0  0  0  0  0  0  0  0  0  0  0
   56.4790   29.2930   44.6310 C   0  0  0  0  0  0  0  0  0  0  0  0
   55.2370   29.0870   44.5800 O   0  0  0  0  0  0  0  0  0  0  0  0
   57.3600   28.6870   43.6230 C   0  0  0  0  0  0  0  0  0  0  0  0
   58.1500   27.6300   43.8700 C   0  0  0  0  0  0  0  0  0  0  0  0
   57.7790   26.5050   44.7490 C   0  0  0  0  0  0  0  0  0  0  0  0
   57.7340   26.6630   45.9990 O   0  0  0  0  0  0  0  0  0  0  0  0
   57.3560   25.2670   44.1680 N   0  0  0  0  0  0  0  0  0  0  0  0
   56.3810   24.3780   44.7370 C   0  0  0  0  0  0  0  0  0  0  0  0
   56.4790   22.9830   44.5660 C   0  0  0  0  0  0  0  0  0  0  0  0
   55.5250   22.1340   45.1330 C   0  0  0  0  0  0  0  0  0  0  0  0
   54.4590   22.6650   45.8600 C   0  0  0  0  0  0  0  0  0  0  0  0
   54.3370   24.0480   46.0120 C   0  0  0  0  0  0  0  0  0  0  0  0
   55.2870   24.9090   45.4490 C   0  0  0  0  0  0  0  0  0  0  0  0
   55.1320   26.2860   45.6200 O   0  0  0  0  0  0  0  0  0  0  0  0
   57.7790   32.4020   46.3970 C   0  0  0  0  0  0  0  0  0  0  0  0
   62.2828   32.5121   48.0817 H   0  0  0  0  0  0  0  0  0  0  0  0
   62.8078   31.7534   46.5405 H   0  0  0  0  0  0  0  0  0  0  0  0
   61.4748   32.9574   46.5405 H   0  0  0  0  0  0  0  0  0  0  0  0
   61.5895   29.9279   45.5500 H   0  0  0  0  0  0  0  0  0  0  0  0
   59.9224   28.0999   45.8594 H   0  0  0  0  0  0  0  0  0  0  0  0
   58.3286   28.1742   47.7746 H   0  0  0  0  0  0  0  0  0  0  0  0
   58.4041   30.0650   49.3972 H   0  0  0  0  0  0  0  0  0  0  0  0
   58.2387   32.9656   49.1398 H   0  0  0  0  0  0  0  0  0  0  0  0
   59.3567   33.7932   50.2863 H   0  0  0  0  0  0  0  0  0  0  0  0
   59.1162   34.9772   44.5859 H   0  0  0  0  0  0  0  0  0  0  0  0
   58.6417   33.3843   42.7280 H   0  0  0  0  0  0  0  0  0  0  0  0
   57.6602   31.1456   43.2186 H   0  0  0  0  0  0  0  0  0  0  0  0
   57.3729   29.1224   42.6129 H   0  0  0  0  0  0  0  0  0  0  0  0
   59.1373   27.6010   43.3858 H   0  0  0  0  0  0  0  0  0  0  0  0
   57.3106   22.5601   43.9833 H   0  0  0  0  0  0  0  0  0  0  0  0
   55.6145   21.0450   45.0060 H   0  0  0  0  0  0  0  0  0  0  0  0
   53.7145   21.9942   46.3136 H   0  0  0  0  0  0  0  0  0  0  0  0
   53.4897   24.4633   46.5773 H   0  0  0  0  0  0  0  0  0  0  0  0
   55.7340   26.9610   45.1630 H   0  0  0  0  0  0  0  0  0  0  0  0
   57.5314   32.1247   47.4323 H   0  0  0  0  0  0  0  0  0  0  0  0
  1  2  1  0
  2  3  2  0
  3  4  1  0
  4  5  2  0
  5  6  1  0
  6  7  2  0
  7  8  1  0
  8  9  1  0
  9 10  1  0
 10 11  2  0
 10 12  1  0
 12 13  1  0
 13 14  2  0
 14 15  1  0
 15 16  2  0
 16 17  1  0
 17 18  1  0
 18 19  1  0
 19 20  2  0
 19 21  1  0
 21 22  2  3
 22 23  1  0
 23 24  2  0
 23 25  1  0
 25 26  1  0
 26 27  2  0
 27 28  1  0
 28 29  2  0
 29 30  1  0
 30 31  2  0
 31 32  1  0
 17 33  2  0
  7  2  1  0
 33 13  1  0
 31 26  1  0
  1 34  1  0
  1 35  1  0
  1 36  1  0
  3 37  1  0
  4 38  1  0
  5 39  1  0
  6 40  1  0
  9 41  1  0
  9 42  1  0
 14 43  1  0
 15 44  1  0
 16 45  1  0
 21 46  1  0
 22 47  1  0
 27 48  1  0
 28 49  1  0
 29 50  1  0
 30 51  1  0
 32 52  1  0
 33 53  1  0
M  CHG  3  12  -1  18  -1  25  -1
M  END
>  <UniqueID>  (40) 
39

>  <SMILES>  (40) 
Cc1ccccc1OCC(=O)[N-]c1cccc([N-]C(=O)C=CC(=O)[N-]c2ccccc2O)c1

>  <Energy>  (40) 
66.14585088530602

>  <Genealogy>  (40) 
Cc1ccccc1OCC(=O)[N-]c1cccc([N-]C(=O)C=CC(=O)[N-]c2ccccc2O)c1 (protonated)
Cc1ccccc1OCC(=O)[N-]c1cccc([N-]C(=O)C=CC(=O)[N-]c2ccccc2O)c1 (3D coordinates assigned)
Cc1ccccc1OCC(=O)[N-]c1cccc([N-]C(=O)C=CC(=O)[N-]c2ccccc2O)c1 (optimized conformer: 66.14585088530602 kcal/mol)

>  <smiles>  (40) 
Cc1ccccc1OCC(=O)Nc1cccc(NC(=O)C=CC(=O)Nc2ccccc2O)c1

>  <score_type>  (40) 
oracle

>  <origin>  (40) 
adg

>  <m_score__min__energy>  (40) 
-13.789999999999999

>  <m_primary>  (40) 
energy

$$$$
40:0
     RDKit          3D

 54 57  0  0  0  0  0  0  0  0999 V2000
   57.3400   31.6750   41.6210 C   0  0  0  0  0  0  0  0  0  0  0  0
   57.4090   31.7380   43.1110 C   0  0  0  0  0  0  0  0  0  0  0  0
   58.1480   32.5800   43.7880 O   0  0  0  0  0  0  0  0  0  0  0  0
   57.9380   32.3360   45.0640 C   0  0  0  0  0  0  0  0  0  0  0  0
   58.5890   33.0850   46.1580 C   0  0  0  0  0  0  0  0  0  0  0  0
   59.2840   34.2770   45.8960 C   0  0  0  0  0  0  0  0  0  0  0  0
   59.9020   34.9760   46.9360 C   0  0  0  0  0  0  0  0  0  0  0  0
   59.8330   34.4940   48.2450 C   0  0  0  0  0  0  0  0  0  0  0  0
   59.1410   33.3060   48.5210 C   0  0  0  0  0  0  0  0  0  0  0  0
   59.0660   32.6680   50.1620 S   0  0  0  0  0  0  0  0  0  0  0  0
   59.2030   33.7820   51.1620 O   0  0  0  0  0  0  0  0  0  0  0  0
   57.7280   32.0130   50.3610 O   0  0  0  0  0  0  0  0  0  0  0  0
   60.3190   31.4890   50.4330 N   0  0  0  0  0  0  0  0  0  0  0  0
   61.6190   32.1270   50.6570 C   0  0  0  0  0  0  0  0  0  0  0  0
   62.3280   32.3930   49.3560 C   0  0  0  0  0  0  0  0  0  0  0  0
   62.3080   31.4310   48.3330 C   0  0  0  0  0  0  0  0  0  0  0  0
   62.9780   31.6690   47.1290 C   0  0  0  0  0  0  0  0  0  0  0  0
   63.6720   32.8680   46.9390 C   0  0  0  0  0  0  0  0  0  0  0  0
   63.6950   33.8300   47.9520 C   0  0  0  0  0  0  0  0  0  0  0  0
   63.0250   33.5960   49.1570 C   0  0  0  0  0  0  0  0  0  0  0  0
   58.5210   32.6060   47.4780 C   0  0  0  0  0  0  0  0  0  0  0  0
   57.0560   31.3290   45.2650 N   0  0  0  0  0  0  0  0  0  0  0  0
   56.7340   30.9460   44.0150 C   0  0  0  0  0  0  0  0  0  0  0  0
   55.7300   29.8840   43.7010 C   0  0  0  0  0  0  0  0  0  0  0  0
   55.5450   29.0360   44.8720 N   0  0  0  0  0  0  0  0  0  0  0  0
   56.5230   28.1220   45.3820 C   0  0  0  0  0  0  0  0  0  0  0  0
   56.1470   26.9790   45.7550 O   0  0  0  0  0  0  0  0  0  0  0  0
   57.9460   28.4880   45.5210 C   0  0  0  0  0  0  0  0  0  0  0  0
   58.8470   28.2860   44.4620 C   0  0  0  0  0  0  0  0  0  0  0  0
   60.1960   28.6240   44.6120 C   0  0  0  0  0  0  0  0  0  0  0  0
   60.6560   29.1500   45.8210 C   0  0  0  0  0  0  0  0  0  0  0  0
   59.7710   29.3330   46.8860 C   0  0  0  0  0  0  0  0  0  0  0  0
   58.4210   28.9970   46.7410 C   0  0  0  0  0  0  0  0  0  0  0  0
   56.5587   30.9616   41.3200 H   0  0  0  0  0  0  0  0  0  0  0  0
   57.0996   32.6717   41.2226 H   0  0  0  0  0  0  0  0  0  0  0  0
   58.3108   31.3452   41.2226 H   0  0  0  0  0  0  0  0  0  0  0  0
   59.3421   34.6621   44.8672 H   0  0  0  0  0  0  0  0  0  0  0  0
   60.4446   35.9089   46.7231 H   0  0  0  0  0  0  0  0  0  0  0  0
   60.3221   35.0470   49.0605 H   0  0  0  0  0  0  0  0  0  0  0  0
   61.4644   33.0809   51.1826 H   0  0  0  0  0  0  0  0  0  0  0  0
   62.2405   31.4478   51.2590 H   0  0  0  0  0  0  0  0  0  0  0  0
   61.7632   30.4867   48.4795 H   0  0  0  0  0  0  0  0  0  0  0  0
   62.9591   30.9125   46.3307 H   0  0  0  0  0  0  0  0  0  0  0  0
   64.1998   33.0538   45.9920 H   0  0  0  0  0  0  0  0  0  0  0  0
   64.2410   34.7730   47.8015 H   0  0  0  0  0  0  0  0  0  0  0  0
   63.0439   34.3565   49.9515 H   0  0  0  0  0  0  0  0  0  0  0  0
   57.9769   31.6746   47.6934 H   0  0  0  0  0  0  0  0  0  0  0  0
   54.7719   30.3521   43.4310 H   0  0  0  0  0  0  0  0  0  0  0  0
   56.0883   29.2754   42.8577 H   0  0  0  0  0  0  0  0  0  0  0  0
   58.4905   27.8608   43.5122 H   0  0  0  0  0  0  0  0  0  0  0  0
   60.8956   28.4752   43.7763 H   0  0  0  0  0  0  0  0  0  0  0  0
   61.7162   29.4204   45.9347 H   0  0  0  0  0  0  0  0  0  0  0  0
   60.1361   29.7418   47.8397 H   0  0  0  0  0  0  0  0  0  0  0  0
   57.7289   29.1318   47.5853 H   0  0  0  0  0  0  0  0  0  0  0  0
  1  2  1  0
  2  3  1  0
  3  4  1  0
  4  5  1  0
  5  6  2  0
  6  7  1  0
  7  8  2  0
  8  9  1  0
  9 10  1  0
 10 11  2  0
 10 12  2  0
 10 13  1  0
 13 14  1  0
 14 15  1  0
 15 16  2  0
 16 17  1  0
 17 18  2  0
 18 19  1  0
 19 20  2  0
  9 21  2  0
  4 22  2  0
 22 23  1  0
 23 24  1  0
 24 25  1  0
 25 26  1  0
 26 27  2  0
 26 28  1  0
 28 29  2  0
 29 30  1  0
 30 31  2  0
 31 32  1  0
 32 33  2  0
 23  2  2  0
 33 28  1  0
 21  5  1  0
 20 15  1  0
  1 34  1  0
  1 35  1  0
  1 36  1  0
  6 37  1  0
  7 38  1  0
  8 39  1  0
 14 40  1  0
 14 41  1  0
 16 42  1  0
 17 43  1  0
 18 44  1  0
 19 45  1  0
 20 46  1  0
 21 47  1  0
 24 48  1  0
 24 49  1  0
 29 50  1  0
 30 51  1  0
 31 52  1  0
 32 53  1  0
 33 54  1  0
M  CHG  2  13  -1  25  -1
M  END
>  <UniqueID>  (41) 
40

>  <SMILES>  (41) 
Cc1oc(-c2cccc(S(=O)(=O)[N-]Cc3ccccc3)c2)nc1C[N-]C(=O)c1ccccc1

>  <Energy>  (41) 
88.05918801137146

>  <Genealogy>  (41) 
Cc1oc(-c2cccc(S(=O)(=O)[N-]Cc3ccccc3)c2)nc1C[N-]C(=O)c1ccccc1 (protonated)
Cc1oc(-c2cccc(S(=O)(=O)[N-]Cc3ccccc3)c2)nc1C[N-]C(=O)c1ccccc1 (3D coordinates assigned)
Cc1oc(-c2cccc(S(=O)(=O)[N-]Cc3ccccc3)c2)nc1C[N-]C(=O)c1ccccc1 (optimized conformer: 88.05918801137146 kcal/mol)

>  <smiles>  (41) 
Cc1oc(-c2cccc(S(=O)(=O)NCc3ccccc3)c2)nc1CNC(=O)c1ccccc1

>  <score_type>  (41) 
oracle

>  <origin>  (41) 
adg

>  <m_score__min__energy>  (41) 
-13.529999999999999

>  <m_primary>  (41) 
energy

$$$$
41:0
     RDKit          3D

 60 63  0  0  0  0  0  0  0  0999 V2000
   59.0960   29.9340   48.8860 O   0  0  0  0  0  0  0  0  0  0  0  0
   59.3910   29.9840   50.1100 C   0  0  0  0  0  0  0  0  0  0  0  0
   58.4410   30.6550   51.0620 C   0  0  0  0  0  0  0  0  0  0  0  0
   59.1480   32.2010   51.7230 S   0  0  0  0  0  0  0  0  0  0  0  0
   59.3220   32.9900   50.1180 C   0  0  0  0  0  0  0  0  0  0  0  0
   60.3430   33.9170   49.9000 C   0  0  0  0  0  0  0  0  0  0  0  0
   60.5210   34.4800   48.6330 C   0  0  0  0  0  0  0  0  0  0  0  0
   59.6710   34.1290   47.5820 C   0  0  0  0  0  0  0  0  0  0  0  0
   58.6180   33.2190   47.7990 C   0  0  0  0  0  0  0  0  0  0  0  0
   57.7060   32.8480   46.6940 C   0  0  0  0  0  0  0  0  0  0  0  0
   56.6670   33.5280   46.4910 O   0  0  0  0  0  0  0  0  0  0  0  0
   57.9920   31.7470   45.8210 N   0  0  0  0  0  0  0  0  0  0  0  0
   57.6790   31.7040   44.4160 C   0  0  0  0  0  0  0  0  0  0  0  0
   58.1250   32.7280   43.5580 C   0  0  0  0  0  0  0  0  0  0  0  0
   57.8660   32.6710   42.1870 C   0  0  0  0  0  0  0  0  0  0  0  0
   57.1730   31.5850   41.6550 C   0  0  0  0  0  0  0  0  0  0  0  0
   56.7360   30.5530   42.4900 C   0  0  0  0  0  0  0  0  0  0  0  0
   56.9920   30.5920   43.8740 C   0  0  0  0  0  0  0  0  0  0  0  0
   56.4790   29.4940   44.7350 C   0  0  0  0  0  0  0  0  0  0  0  0
   55.2360   29.3460   44.8860 O   0  0  0  0  0  0  0  0  0  0  0  0
   57.3780   28.5500   45.3410 N   0  0  0  0  0  0  0  0  0  0  0  0
   58.5300   29.0100   46.1220 C   0  0  0  0  0  0  0  0  0  0  0  0
   59.6600   27.9830   46.0080 C   0  0  0  0  0  0  0  0  0  0  0  0
   59.2040   26.6920   46.3580 O   0  0  0  0  0  0  0  0  0  0  0  0
   58.2300   26.2560   45.4290 C   0  0  0  0  0  0  0  0  0  0  0  0
   56.9820   27.1490   45.4880 C   0  0  0  0  0  0  0  0  0  0  0  0
   58.4450   32.6620   49.0760 C   0  0  0  0  0  0  0  0  0  0  0  0
   60.6050   29.3620   50.5510 N   0  0  0  0  0  0  0  0  0  0  0  0
   61.8530   30.0560   50.8640 C   0  0  0  0  0  0  0  0  0  0  0  0
   62.2530   30.9830   49.7460 C   0  0  0  0  0  0  0  0  0  0  0  0
   61.7510   30.7820   48.4460 C   0  0  0  0  0  0  0  0  0  0  0  0
   62.1130   31.6470   47.4110 C   0  0  0  0  0  0  0  0  0  0  0  0
   62.9600   32.7290   47.6620 C   0  0  0  0  0  0  0  0  0  0  0  0
   63.4160   33.8100   46.3580 Cl  0  0  0  0  0  0  0  0  0  0  0  0
   63.4440   32.9480   48.9560 C   0  0  0  0  0  0  0  0  0  0  0  0
   63.0850   32.0860   49.9980 C   0  0  0  0  0  0  0  0  0  0  0  0
   57.5058   30.8867   50.5313 H   0  0  0  0  0  0  0  0  0  0  0  0
   58.2518   29.9719   51.9032 H   0  0  0  0  0  0  0  0  0  0  0  0
   61.0087   34.2049   50.7270 H   0  0  0  0  0  0  0  0  0  0  0  0
   61.3334   35.2020   48.4632 H   0  0  0  0  0  0  0  0  0  0  0  0
   59.8240   34.5638   46.5832 H   0  0  0  0  0  0  0  0  0  0  0  0
   58.6828   33.5810   43.9719 H   0  0  0  0  0  0  0  0  0  0  0  0
   58.2085   33.4822   41.5277 H   0  0  0  0  0  0  0  0  0  0  0  0
   56.9695   31.5401   40.5749 H   0  0  0  0  0  0  0  0  0  0  0  0
   56.1865   29.7017   42.0617 H   0  0  0  0  0  0  0  0  0  0  0  0
   58.8740   29.9798   45.7333 H   0  0  0  0  0  0  0  0  0  0  0  0
   58.2392   29.1230   47.1768 H   0  0  0  0  0  0  0  0  0  0  0  0
   60.0286   27.9663   44.9717 H   0  0  0  0  0  0  0  0  0  0  0  0
   60.4673   28.2701   46.6978 H   0  0  0  0  0  0  0  0  0  0  0  0
   58.6549   26.2966   44.4152 H   0  0  0  0  0  0  0  0  0  0  0  0
   57.9386   25.2257   45.6810 H   0  0  0  0  0  0  0  0  0  0  0  0
   56.2957   26.8744   44.6734 H   0  0  0  0  0  0  0  0  0  0  0  0
   56.4768   27.0101   46.4552 H   0  0  0  0  0  0  0  0  0  0  0  0
   57.6154   31.9634   49.2596 H   0  0  0  0  0  0  0  0  0  0  0  0
   61.7171   30.6417   51.7851 H   0  0  0  0  0  0  0  0  0  0  0  0
   62.6464   29.3056   50.9965 H   0  0  0  0  0  0  0  0  0  0  0  0
   61.0714   29.9408   48.2449 H   0  0  0  0  0  0  0  0  0  0  0  0
   61.7297   31.4756   46.3943 H   0  0  0  0  0  0  0  0  0  0  0  0
   64.1093   33.8011   49.1551 H   0  0  0  0  0  0  0  0  0  0  0  0
   63.4553   32.2727   51.0169 H   0  0  0  0  0  0  0  0  0  0  0  0
  1  2  2  0
  2  3  1  0
  3  4  1  0
  4  5  1  0
  5  6  2  0
  6  7  1  0
  7  8  2  0
  8  9  1  0
  9 10  1  0
 10 11  2  0
 10 12  1  0
 12 13  1  0
 13 14  2  0
 14 15  1  0
 15 16  2  0
 16 17  1  0
 17 18  2  0
 18 19  1  0
 19 20  2  0
 19 21  1  0
 21 22  1  0
 22 23  1  0
 23 24  1  0
 24 25  1  0
 25 26  1  0
  9 27  2  0
  2 28  1  0
 28 29  1  0
 29 30  1  0
 30 31  2  0
 31 32  1  0
 32 33  2  0
 33 34  1  0
 33 35  1  0
 35 36  2  0
 27  5  1  0
 36 30  1  0
 18 13  1  0
 26 21  1  0
  3 37  1  0
  3 38  1  0
  6 39  1  0
  7 40  1  0
  8 41  1  0
 14 42  1  0
 15 43  1  0
 16 44  1  0
 17 45  1  0
 22 46  1  0
 22 47  1  0
 23 48  1  0
 23 49  1  0
 25 50  1  0
 25 51  1  0
 26 52  1  0
 26 53  1  0
 27 54  1  0
 29 55  1  0
 29 56  1  0
 31 57  1  0
 32 58  1  0
 35 59  1  0
 36 60  1  0
M  CHG  2  12  -1  28  -1
M  END
>  <UniqueID>  (42) 
41

>  <SMILES>  (42) 
O=C(CSc1cccc(C(=O)[N-]c2ccccc2C(=O)N2CCOCC2)c1)[N-]Cc1ccc(Cl)cc1

>  <Energy>  (42) 
70.99811655033737

>  <Genealogy>  (42) 
O=C(CSc1cccc(C(=O)[N-]c2ccccc2C(=O)N2CCOCC2)c1)[N-]Cc1ccc(Cl)cc1 (protonated)
O=C(CSc1cccc(C(=O)[N-]c2ccccc2C(=O)N2CCOCC2)c1)[N-]Cc1ccc(Cl)cc1 (3D coordinates assigned)
O=C(CSc1cccc(C(=O)[N-]c2ccccc2C(=O)N2CCOCC2)c1)[N-]Cc1ccc(Cl)cc1 (nonaromatic ring conformer: 70.99811655033737 kcal/mol)

>  <smiles>  (42) 
O=C(CSc1cccc(C(=O)Nc2ccccc2C(=O)N2CCOCC2)c1)NCc1ccc(Cl)cc1

>  <score_type>  (42) 
oracle

>  <origin>  (42) 
adg

>  <m_score__min__energy>  (42) 
-12.9

>  <m_primary>  (42) 
energy

$$$$
42:0
     RDKit          3D

 37 40  0  0  0  0  0  0  0  0999 V2000
   59.1150   27.1350   44.2110 H   0  0  0  0  0  0  0  0  0  0  0  0
   58.8320   26.3300   44.7560 O   0  0  0  0  0  0  0  0  0  0  0  0
   57.5160   26.1860   45.1850 C   0  0  0  0  0  0  0  0  0  0  0  0
   56.7270   27.1680   45.7530 C   0  0  0  0  0  0  0  0  0  0  0  0
   57.0960   28.5790   45.9700 C   0  0  0  0  0  0  0  0  0  0  0  0
   57.3910   28.8621   46.9912 H   0  0  0  0  0  0  0  0  0  0  0  0
   57.1080   29.5600   45.0390 C   0  0  0  0  0  0  0  0  0  0  0  0
   56.5730   29.2390   43.8340 N   0  0  0  0  0  0  0  0  0  0  0  0
   56.6400   30.0440   42.7510 C   0  0  0  0  0  0  0  0  0  0  0  0
   56.1649   29.7283   41.8105 H   0  0  0  0  0  0  0  0  0  0  0  0
   57.3060   31.2750   42.8090 C   0  0  0  0  0  0  0  0  0  0  0  0
   57.3970   31.9910   41.6720 C   0  0  0  0  0  0  0  0  0  0  0  0
   57.9118   32.9631   41.6739 H   0  0  0  0  0  0  0  0  0  0  0  0
   56.9565   31.6037   40.7414 H   0  0  0  0  0  0  0  0  0  0  0  0
   57.8180   31.7100   44.0700 C   0  0  0  0  0  0  0  0  0  0  0  0
   58.4450   32.9700   44.2410 C   0  0  0  0  0  0  0  0  0  0  0  0
   58.6428   33.5997   43.3610 H   0  0  0  0  0  0  0  0  0  0  0  0
   58.8150   33.4240   45.5060 C   0  0  0  0  0  0  0  0  0  0  0  0
   59.6400   35.1360   45.7050 Br  0  0  0  0  0  0  0  0  0  0  0  0
   58.5390   32.6550   46.6290 C   0  0  0  0  0  0  0  0  0  0  0  0
   58.7894   33.0365   47.6299 H   0  0  0  0  0  0  0  0  0  0  0  0
   57.9470   31.4040   46.4920 C   0  0  0  0  0  0  0  0  0  0  0  0
   57.6991   30.8219   47.3918 H   0  0  0  0  0  0  0  0  0  0  0  0
   57.6580   30.8670   45.2150 C   0  0  0  0  0  0  0  0  0  0  0  0
   55.4870   26.6930   45.9790 N   0  0  0  0  0  0  0  0  0  0  0  0
   55.5110   25.4000   45.5900 C   0  0  0  0  0  0  0  0  0  0  0  0
   54.3420   24.5090   45.6800 C   0  0  0  0  0  0  0  0  0  0  0  0
   54.3620   23.2120   46.1580 C   0  0  0  0  0  0  0  0  0  0  0  0
   55.2358   22.6609   46.5358 H   0  0  0  0  0  0  0  0  0  0  0  0
   53.0650   22.7470   46.0660 C   0  0  0  0  0  0  0  0  0  0  0  0
   52.7021   21.7503   46.3573 H   0  0  0  0  0  0  0  0  0  0  0  0
   52.3120   23.7770   45.5370 C   0  0  0  0  0  0  0  0  0  0  0  0
   51.2317   23.7286   45.3355 H   0  0  0  0  0  0  0  0  0  0  0  0
   53.0920   24.8480   45.3040 N   0  0  0  0  0  0  0  0  0  0  0  0
   52.7770   25.7600   44.9060 H   0  0  0  0  0  0  0  0  0  0  0  0
   56.7550   25.0460   45.0920 C   0  0  0  0  0  0  0  0  0  0  0  0
   57.0659   24.0641   44.7057 H   0  0  0  0  0  0  0  0  0  0  0  0
  1  2  1  0
  2  3  1  0
  3  4  2  0
  4  5  1  0
  5  6  1  0
  5  7  2  0
  7  8  1  0
  8  9  2  0
  9 10  1  0
  9 11  1  0
 11 12  2  0
 12 13  1  0
 12 14  1  0
 11 15  1  0
 15 16  2  0
 16 17  1  0
 16 18  1  0
 18 19  1  0
 18 20  2  0
 20 21  1  0
 20 22  1  0
 22 23  1  0
 22 24  2  0
  4 25  1  0
 25 26  1  0
 26 27  1  0
 27 28  2  0
 28 29  1  0
 28 30  1  0
 30 31  1  0
 30 32  2  0
 32 33  1  0
 32 34  1  0
 34 35  1  0
 26 36  2  0
 36 37  1  0
 36  3  1  0
 24  7  1  0
 34 27  1  0
 24 15  1  0
M  CHG  1  25  -1
M  END
>  <UniqueID>  (43) 
42

>  <SMILES>  (43) 
C=c1cn/c(=C/c2[n-]c(-c3ccc[nH]3)cc2O)c2ccc(Br)cc12

>  <Energy>  (43) 
120.28156871561963

>  <Genealogy>  (43) 
C=c1cnc(=Cc2[n-]c(-c3ccc[nH]3)cc2O)c2ccc(Br)cc12 (protonated)
C=c1cn/c(=C/c2[n-]c(-c3ccc[nH]3)cc2O)c2ccc(Br)cc12 (cis-trans isomerization)
C=c1cn/c(=C/c2[n-]c(-c3ccc[nH]3)cc2O)c2ccc(Br)cc12 (3D coordinates assigned)
C=c1cn/c(=C/c2[n-]c(-c3ccc[nH]3)cc2O)c2ccc(Br)cc12 (optimized conformer: 120.28156871561963 kcal/mol)

>  <smiles>  (43) 
C=c1cnc(=Cc2[nH]c(-c3ccc[nH]3)cc2O)c2ccc(Br)cc12

>  <score_type>  (43) 
oracle

>  <origin>  (43) 
adg

>  <m_score__min__energy>  (43) 
-10.65

>  <m_primary>  (43) 
energy

$$$$
43:0
     RDKit          3D

 47 50  0  0  0  0  0  0  0  0999 V2000
   50.0580   32.3470   51.2430 H   0  0  0  0  0  0  0  0  0  0  0  0
   51.0190   32.3440   50.8330 N   0  0  0  0  0  0  0  0  0  0  0  0
   51.7730   31.1360   50.7400 C   0  0  0  0  0  0  0  0  0  0  0  0
   51.6360   30.4050   49.7220 O   0  0  0  0  0  0  0  0  0  0  0  0
   52.7050   30.7430   51.8240 C   0  0  0  0  0  0  0  0  0  0  0  0
   52.2140   30.4220   53.1010 C   0  0  0  0  0  0  0  0  0  0  0  0
   51.1323   30.4626   53.2966 H   0  0  0  0  0  0  0  0  0  0  0  0
   53.0900   30.0520   54.1230 C   0  0  0  0  0  0  0  0  0  0  0  0
   52.6952   29.8019   55.1188 H   0  0  0  0  0  0  0  0  0  0  0  0
   54.4640   29.9980   53.8870 C   0  0  0  0  0  0  0  0  0  0  0  0
   55.1464   29.7056   54.6986 H   0  0  0  0  0  0  0  0  0  0  0  0
   54.9830   30.3150   52.6180 C   0  0  0  0  0  0  0  0  0  0  0  0
   56.4410   30.2640   52.3460 C   0  0  0  0  0  0  0  0  0  0  0  0
   56.9880   30.5840   51.1590 N   0  0  0  0  0  0  0  0  0  0  0  0
   58.3090   30.3970   51.3480 C   0  0  0  0  0  0  0  0  0  0  0  0
   59.2160   30.6100   50.4390 N   0  0  0  0  0  0  0  0  0  0  0  0
   59.7260   31.8710   49.9690 C   0  0  0  0  0  0  0  0  0  0  0  0
   60.9700   32.0630   50.0220 O   0  0  0  0  0  0  0  0  0  0  0  0
   58.8270   32.9580   49.4230 C   0  0  0  0  0  0  0  0  0  0  0  0
   57.8028   32.7847   49.7850 H   0  0  0  0  0  0  0  0  0  0  0  0
   59.2189   33.9248   49.7719 H   0  0  0  0  0  0  0  0  0  0  0  0
   58.8100   32.9850   47.9150 C   0  0  0  0  0  0  0  0  0  0  0  0
   58.8280   34.2100   47.2270 C   0  0  0  0  0  0  0  0  0  0  0  0
   58.8192   35.1550   47.7900 H   0  0  0  0  0  0  0  0  0  0  0  0
   58.8570   34.2320   45.8310 C   0  0  0  0  0  0  0  0  0  0  0  0
   58.8665   35.1939   45.2976 H   0  0  0  0  0  0  0  0  0  0  0  0
   58.8740   33.0350   45.1100 C   0  0  0  0  0  0  0  0  0  0  0  0
   58.9032   33.0585   44.0106 H   0  0  0  0  0  0  0  0  0  0  0  0
   58.8540   31.8030   45.7820 C   0  0  0  0  0  0  0  0  0  0  0  0
   58.9300   30.5150   45.0120 C   0  0  0  0  0  0  0  0  0  0  0  0
   59.1669   30.7327   43.9601 H   0  0  0  0  0  0  0  0  0  0  0  0
   59.7155   29.8796   45.4470 H   0  0  0  0  0  0  0  0  0  0  0  0
   57.6500   29.8140   45.0850 N   0  0  0  0  0  0  0  0  0  0  0  0
   57.4450   28.5600   45.5220 C   0  0  0  0  0  0  0  0  0  0  0  0
   58.2022   27.8863   45.9496 H   0  0  0  0  0  0  0  0  0  0  0  0
   56.1110   28.2750   45.3350 C   0  0  0  0  0  0  0  0  0  0  0  0
   55.4940   27.0750   45.6620 O   0  0  0  0  0  0  0  0  0  0  0  0
   55.4670   29.3200   44.7770 N   0  0  0  0  0  0  0  0  0  0  0  0
   56.4490   30.2350   44.6360 C   0  0  0  0  0  0  0  0  0  0  0  0
   56.2560   31.3710   44.1260 O   0  0  0  0  0  0  0  0  0  0  0  0
   58.8380   31.7850   47.1860 C   0  0  0  0  0  0  0  0  0  0  0  0
   58.8475   30.8230   47.7193 H   0  0  0  0  0  0  0  0  0  0  0  0
   58.6320   29.9810   52.5890 N   0  0  0  0  0  0  0  0  0  0  0  0
   57.4460   29.8950   53.2190 C   0  0  0  0  0  0  0  0  0  0  0  0
   57.3000   29.5809   54.2630 H   0  0  0  0  0  0  0  0  0  0  0  0
   54.0920   30.6870   51.5930 C   0  0  0  0  0  0  0  0  0  0  0  0
   54.4860   30.9375   50.5970 H   0  0  0  0  0  0  0  0  0  0  0  0
  1  2  1  0
  2  3  1  0
  3  4  2  0
  3  5  1  0
  5  6  2  0
  6  7  1  0
  6  8  1  0
  8  9  1  0
  8 10  2  0
 10 11  1  0
 10 12  1  0
 12 13  1  0
 13 14  1  0
 14 15  1  0
 15 16  2  0
 16 17  1  0
 17 18  2  0
 17 19  1  0
 19 20  1  0
 19 21  1  0
 19 22  1  0
 22 23  2  0
 23 24  1  0
 23 25  1  0
 25 26  1  0
 25 27  2  0
 27 28  1  0
 27 29  1  0
 29 30  1  0
 30 31  1  0
 30 32  1  0
 30 33  1  0
 33 34  1  0
 34 35  1  0
 34 36  2  0
 36 37  1  0
 36 38  1  0
 38 39  1  0
 39 40  2  0
 29 41  2  0
 41 42  1  0
 15 43  1  0
 43 44  1  0
 44 45  1  0
 12 46  2  0
 46 47  1  0
 46  5  1  0
 44 13  2  0
 41 22  1  0
 39 33  1  0
M  CHG  5   2  -1  14  -1  37  -1  38  -1  43  -1
M  END
>  <UniqueID>  (44) 
43

>  <SMILES>  (44) 
[NH-]C(=O)c1cccc(-c2c[n-]/c(=N/C(=O)Cc3cccc(Cn4cc([O-])[n-]c4=O)c3)[n-]2)c1

>  <Energy>  (44) 
114.27091398803316

>  <Genealogy>  (44) 
[NH-]C(=O)c1cccc(-c2c[n-]c(=NC(=O)Cc3cccc(Cn4cc([O-])[n-]c4=O)c3)[n-]2)c1 (protonated)
[NH-]C(=O)c1cccc(-c2c[n-]/c(=N/C(=O)Cc3cccc(Cn4cc([O-])[n-]c4=O)c3)[n-]2)c1 (cis-trans isomerization)
[NH-]C(=O)c1cccc(-c2c[n-]/c(=N/C(=O)Cc3cccc(Cn4cc([O-])[n-]c4=O)c3)[n-]2)c1 (3D coordinates assigned)
[NH-]C(=O)c1cccc(-c2c[n-]/c(=N/C(=O)Cc3cccc(Cn4cc([O-])[n-]c4=O)c3)[n-]2)c1 (optimized conformer: 114.27091398803316 kcal/mol)

>  <smiles>  (44) 
NC(=O)c1cccc(-c2c[nH]c(=NC(=O)Cc3cccc(Cn4cc(O)[nH]c4=O)c3)[nH]2)c1

>  <score_type>  (44) 
oracle

>  <origin>  (44) 
adg

>  <m_score__min__energy>  (44) 
-20.43

>  <m_primary>  (44) 
energy

$$$$
44:0
     RDKit          3D

 58 61  0  0  0  0  0  0  0  0999 V2000
   63.6280   31.4030   50.9500 H   0  0  0  0  0  0  0  0  0  0  0  0
   63.2390   31.9020   50.1850 O   0  0  0  0  0  0  0  0  0  0  0  0
   64.3070   32.5620   49.5650 C   0  0  0  0  0  0  0  0  0  0  0  0
   65.0811   31.8284   49.2955 H   0  0  0  0  0  0  0  0  0  0  0  0
   64.7231   33.3063   50.2599 H   0  0  0  0  0  0  0  0  0  0  0  0
   63.8180   33.2780   48.2920 C   0  0  1  0  0  0  0  0  0  0  0  0
   64.5875   34.0060   47.9956 H   0  0  0  0  0  0  0  0  0  0  0  0
   63.6680   32.2860   47.1150 C   0  0  0  0  0  0  0  0  0  0  0  0
   64.5340   31.6077   47.1130 H   0  0  0  0  0  0  0  0  0  0  0  0
   63.6125   32.8746   46.1874 H   0  0  0  0  0  0  0  0  0  0  0  0
   62.3830   31.4450   47.2120 C   0  0  0  0  0  0  0  0  0  0  0  0
   62.5162   30.7079   48.0176 H   0  0  0  0  0  0  0  0  0  0  0  0
   62.2379   30.9851   46.2234 H   0  0  0  0  0  0  0  0  0  0  0  0
   61.0800   32.2680   47.5130 C   0  0  1  0  0  0  0  0  0  0  0  0
   60.3557   32.1365   46.6956 H   0  0  0  0  0  0  0  0  0  0  0  0
   60.3940   31.7440   48.7450 N   0  0  2  0  0  0  0  0  0  0  0  0
   61.1170   31.7790   49.4960 H   0  0  0  0  0  0  0  0  0  0  0  0
   60.0030   30.3540   48.5420 C   0  0  0  0  0  0  0  0  0  0  0  0
   60.3650   29.4720   49.3690 O   0  0  0  0  0  0  0  0  0  0  0  0
   59.1920   29.9250   47.3810 C   0  0  0  0  0  0  0  0  0  0  0  0
   58.4890   30.9760   46.2770 S   0  0  0  0  0  0  0  0  0  0  0  0
   57.7960   29.7970   45.2970 C   0  0  0  0  0  0  0  0  0  0  0  0
   57.0680   30.0860   44.2150 C   0  0  0  0  0  0  0  0  0  0  0  0
   56.6376   29.2751   43.6090 H   0  0  0  0  0  0  0  0  0  0  0  0
   56.8989   31.1349   43.9299 H   0  0  0  0  0  0  0  0  0  0  0  0
   58.1080   28.5290   45.8240 C   0  0  0  0  0  0  0  0  0  0  0  0
   57.7410   27.3570   45.2630 C   0  0  0  0  0  0  0  0  0  0  0  0
   57.8412   27.2554   44.1723 H   0  0  0  0  0  0  0  0  0  0  0  0
   57.2140   26.2030   46.0180 C   0  0  0  0  0  0  0  0  0  0  0  0
   57.9770   25.1740   46.4260 N   0  0  0  0  0  0  0  0  0  0  0  0
   57.0910   24.3340   47.0010 C   0  0  0  0  0  0  0  0  0  0  0  0
   57.4340   23.2420   47.5240 O   0  0  0  0  0  0  0  0  0  0  0  0
   55.8080   24.7500   46.9630 N   0  0  0  0  0  0  0  0  0  0  0  0
   55.8990   25.9290   46.3280 C   0  0  0  0  0  0  0  0  0  0  0  0
   54.8000   26.7150   46.0050 O   0  0  0  0  0  0  0  0  0  0  0  0
   58.9040   28.6200   46.9870 C   0  0  0  0  0  0  0  0  0  0  0  0
   59.2654   27.7370   47.5344 H   0  0  0  0  0  0  0  0  0  0  0  0
   59.2500   32.5620   49.2740 C   0  0  0  0  0  0  0  0  0  0  0  0
   58.7599   32.9461   48.3672 H   0  0  0  0  0  0  0  0  0  0  0  0
   58.1490   31.7520   50.0140 C   0  0  0  0  0  0  0  0  0  0  0  0
   57.1889   32.2714   49.8780 H   0  0  0  0  0  0  0  0  0  0  0  0
   58.1538   30.7421   49.5780 H   0  0  0  0  0  0  0  0  0  0  0  0
   58.3970   31.5810   51.5320 C   0  0  0  0  0  0  0  0  0  0  0  0
   57.5192   31.9633   52.0735 H   0  0  0  0  0  0  0  0  0  0  0  0
   58.5649   30.5092   51.7139 H   0  0  0  0  0  0  0  0  0  0  0  0
   59.5440   32.2670   51.9970 O   0  0  0  0  0  0  0  0  0  0  0  0
   59.4710   33.6230   51.6200 C   0  0  0  0  0  0  0  0  0  0  0  0
   58.4696   34.0102   51.8592 H   0  0  0  0  0  0  0  0  0  0  0  0
   60.2405   34.1836   52.1710 H   0  0  0  0  0  0  0  0  0  0  0  0
   59.7270   33.7860   50.1160 C   0  0  0  0  0  0  0  0  0  0  0  0
   59.1921   34.6810   49.7655 H   0  0  0  0  0  0  0  0  0  0  0  0
   60.8148   33.8734   49.9776 H   0  0  0  0  0  0  0  0  0  0  0  0
   61.4020   33.7880   47.5570 C   0  0  0  0  0  0  0  0  0  0  0  0
   60.4959   34.3364   47.8540 H   0  0  0  0  0  0  0  0  0  0  0  0
   61.7384   34.0975   46.5565 H   0  0  0  0  0  0  0  0  0  0  0  0
   62.5220   34.0990   48.5570 C   0  0  0  0  0  0  0  0  0  0  0  0
   62.1616   33.8680   49.5703 H   0  0  0  0  0  0  0  0  0  0  0  0
   62.7774   35.1631   48.4452 H   0  0  0  0  0  0  0  0  0  0  0  0
  1  2  1  0
  2  3  1  0
  3  4  1  0
  3  5  1  0
  3  6  1  0
  6  7  1  6
  6  8  1  0
  8  9  1  0
  8 10  1  0
  8 11  1  0
 11 12  1  0
 11 13  1  0
 11 14  1  0
 14 15  1  6
 14 16  1  0
 16 17  1  1
 16 18  1  0
 18 19  2  0
 18 20  1  0
 20 21  1  0
 21 22  1  0
 22 23  2  0
 23 24  1  0
 23 25  1  0
 22 26  1  0
 26 27  2  0
 27 28  1  0
 27 29  1  0
 29 30  1  0
 30 31  1  0
 31 32  2  0
 31 33  1  0
 33 34  1  0
 34 35  1  0
 26 36  1  0
 36 37  1  0
 16 38  1  0
 38 39  1  0
 38 40  1  0
 40 41  1  0
 40 42  1  0
 40 43  1  0
 43 44  1  0
 43 45  1  0
 43 46  1  0
 46 47  1  0
 47 48  1  0
 47 49  1  0
 47 50  1  0
 50 51  1  0
 50 52  1  0
 14 53  1  0
 53 54  1  0
 53 55  1  0
 53 56  1  0
 56 57  1  0
 56 58  1  0
 56  6  1  0
 36 20  2  0
 50 38  1  0
 34 29  2  0
M  CHG  4  16   1  30  -1  33  -1  35  -1
M  END
>  <UniqueID>  (45) 
44

>  <SMILES>  (45) 
C=c1sc(C(=O)[N@H+](C2CCOCC2)C2CCC(CO)CC2)c/c1=C\c1[n-]c(=O)[n-]c1[O-]

>  <Energy>  (45) 
151.94616830081702

>  <Genealogy>  (45) 
C=c1sc(C(=O)[NH+](C2CCOCC2)C2CCC(CO)CC2)cc1=Cc1[n-]c(=O)[n-]c1[O-] (protonated)
C=c1sc(C(=O)[N@H+](C2CCOCC2)C2CCC(CO)CC2)cc1=Cc1[n-]c(=O)[n-]c1[O-] (chirality)
C=c1sc(C(=O)[N@H+](C2CCOCC2)C2CCC(CO)CC2)c/c1=C\c1[n-]c(=O)[n-]c1[O-] (cis-trans isomerization)
C=c1sc(C(=O)[N@H+](C2CCOCC2)C2CCC(CO)CC2)c/c1=C\c1[n-]c(=O)[n-]c1[O-] (3D coordinates assigned)
C=c1sc(C(=O)[N@H+](C2CCOCC2)C2CCC(CO)CC2)c/c1=C\c1[n-]c(=O)[n-]c1[O-] (nonaromatic ring conformer: 151.94616830081702 kcal/mol)

>  <smiles>  (45) 
C=c1sc(C(=O)N(C2CCOCC2)C2CCC(CO)CC2)cc1=Cc1[nH]c(=O)[nH]c1O

>  <score_type>  (45) 
oracle

>  <origin>  (45) 
adg

>  <m_score__min__energy>  (45) 
-16.140000000000001

>  <m_primary>  (45) 
energy

$$$$
45:0
     RDKit          3D

 53 57  0  0  0  0  0  0  0  0999 V2000
   65.1140   32.9190   49.7040 C   0  0  0  0  0  0  0  0  0  0  0  0
   63.8160   33.3550   49.0900 C   0  0  0  0  0  0  0  0  0  0  0  0
   63.6500   33.3640   47.6960 C   0  0  0  0  0  0  0  0  0  0  0  0
   62.4370   33.7680   47.1300 C   0  0  0  0  0  0  0  0  0  0  0  0
   61.3710   34.1790   47.9570 C   0  0  0  0  0  0  0  0  0  0  0  0
   60.1250   34.5640   47.4380 O   0  0  0  0  0  0  0  0  0  0  0  0
   59.3600   33.8360   46.5180 C   0  0  0  0  0  0  0  0  0  0  0  0
   58.3410   34.4410   45.7650 C   0  0  0  0  0  0  0  0  0  0  0  0
   57.6140   33.6880   44.8410 C   0  0  0  0  0  0  0  0  0  0  0  0
   57.8850   32.3220   44.6700 C   0  0  0  0  0  0  0  0  0  0  0  0
   58.8780   31.6950   45.4480 C   0  0  0  0  0  0  0  0  0  0  0  0
   59.2540   30.3200   45.2400 N   0  0  0  0  0  0  0  0  0  0  0  0
   60.1930   29.5880   46.0430 C   0  0  0  0  0  0  0  0  0  0  0  0
   60.9840   30.1910   46.8150 O   0  0  0  0  0  0  0  0  0  0  0  0
   60.1870   28.1540   45.9790 N   0  0  0  0  0  0  0  0  0  0  0  0
   59.0510   27.2790   46.0440 C   0  0  0  0  0  0  0  0  0  0  0  0
   59.1280   25.9190   45.6980 C   0  0  0  0  0  0  0  0  0  0  0  0
   57.9810   25.1200   45.7110 C   0  0  0  0  0  0  0  0  0  0  0  0
   56.7350   25.6680   46.0490 C   0  0  0  0  0  0  0  0  0  0  0  0
   55.5110   24.8360   46.0380 C   0  0  0  0  0  0  0  0  0  0  0  0
   55.4570   23.5910   46.5930 N   0  0  0  0  0  0  0  0  0  0  0  0
   54.2000   23.2120   46.3420 C   0  0  0  0  0  0  0  0  0  0  0  0
   53.5840   22.0140   46.6960 C   0  0  0  0  0  0  0  0  0  0  0  0
   52.2400   21.8370   46.3130 C   0  0  0  0  0  0  0  0  0  0  0  0
   51.5600   22.8480   45.5930 C   0  0  0  0  0  0  0  0  0  0  0  0
   52.2170   24.0460   45.2590 C   0  0  0  0  0  0  0  0  0  0  0  0
   53.5420   24.1890   45.6600 C   0  0  0  0  0  0  0  0  0  0  0  0
   54.3510   25.2380   45.4540 N   0  0  0  0  0  0  0  0  0  0  0  0
   56.6600   27.0310   46.3800 C   0  0  0  0  0  0  0  0  0  0  0  0
   57.8070   27.8250   46.3760 C   0  0  0  0  0  0  0  0  0  0  0  0
   59.6090   32.4680   46.3720 C   0  0  0  0  0  0  0  0  0  0  0  0
   61.5330   34.1460   49.3460 C   0  0  0  0  0  0  0  0  0  0  0  0
   62.7480   33.7430   49.9140 C   0  0  0  0  0  0  0  0  0  0  0  0
   65.0289   32.9476   50.8003 H   0  0  0  0  0  0  0  0  0  0  0  0
   65.3463   31.8935   49.3809 H   0  0  0  0  0  0  0  0  0  0  0  0
   65.9183   33.5963   49.3809 H   0  0  0  0  0  0  0  0  0  0  0  0
   64.4796   33.0512   47.0449 H   0  0  0  0  0  0  0  0  0  0  0  0
   62.3138   33.7653   46.0369 H   0  0  0  0  0  0  0  0  0  0  0  0
   58.1154   35.5087   45.9031 H   0  0  0  0  0  0  0  0  0  0  0  0
   56.8247   34.1681   44.2440 H   0  0  0  0  0  0  0  0  0  0  0  0
   57.3208   31.7394   43.9268 H   0  0  0  0  0  0  0  0  0  0  0  0
   58.8160   29.8090   44.4420 H   0  0  0  0  0  0  0  0  0  0  0  0
   60.0965   25.4807   45.4153 H   0  0  0  0  0  0  0  0  0  0  0  0
   58.0563   24.0531   45.4541 H   0  0  0  0  0  0  0  0  0  0  0  0
   54.1262   21.2359   47.2533 H   0  0  0  0  0  0  0  0  0  0  0  0
   51.7154   20.9065   46.5754 H   0  0  0  0  0  0  0  0  0  0  0  0
   50.5126   22.6962   45.2931 H   0  0  0  0  0  0  0  0  0  0  0  0
   51.7019   24.8416   44.7007 H   0  0  0  0  0  0  0  0  0  0  0  0
   55.6893   27.4758   46.6444 H   0  0  0  0  0  0  0  0  0  0  0  0
   57.7322   28.8911   46.6366 H   0  0  0  0  0  0  0  0  0  0  0  0
   60.3856   31.9889   46.9864 H   0  0  0  0  0  0  0  0  0  0  0  0
   60.6977   34.4395   49.9987 H   0  0  0  0  0  0  0  0  0  0  0  0
   62.8655   33.7305   51.0076 H   0  0  0  0  0  0  0  0  0  0  0  0
  1  2  1  0
  2  3  2  0
  3  4  1  0
  4  5  2  0
  5  6  1  0
  6  7  1  0
  7  8  2  0
  8  9  1  0
  9 10  2  0
 10 11  1  0
 11 12  1  0
 12 13  1  0
 13 14  2  0
 13 15  1  0
 15 16  1  0
 16 17  2  0
 17 18  1  0
 18 19  2  0
 19 20  1  0
 20 21  2  0
 21 22  1  0
 22 23  2  0
 23 24  1  0
 24 25  2  0
 25 26  1  0
 26 27  2  0
 27 28  1  0
 19 29  1  0
 29 30  2  0
 11 31  2  0
  5 32  1  0
 32 33  2  0
 33  2  1  0
 31  7  1  0
 30 16  1  0
 28 20  1  0
 27 22  1  0
  1 34  1  0
  1 35  1  0
  1 36  1  0
  3 37  1  0
  4 38  1  0
  8 39  1  0
  9 40  1  0
 10 41  1  0
 12 42  1  0
 17 43  1  0
 18 44  1  0
 23 45  1  0
 24 46  1  0
 25 47  1  0
 26 48  1  0
 29 49  1  0
 30 50  1  0
 31 51  1  0
 32 52  1  0
 33 53  1  0
M  CHG  2  15  -1  28  -1
M  END
>  <UniqueID>  (46) 
45

>  <SMILES>  (46) 
Cc1ccc(Oc2cccc(NC(=O)[N-]c3ccc(-c4nc5ccccc5[n-]4)cc3)c2)cc1

>  <Energy>  (46) 
108.9903871998125

>  <Genealogy>  (46) 
Cc1ccc(Oc2cccc(NC(=O)[N-]c3ccc(-c4nc5ccccc5[n-]4)cc3)c2)cc1 (protonated)
Cc1ccc(Oc2cccc(NC(=O)[N-]c3ccc(-c4nc5ccccc5[n-]4)cc3)c2)cc1 (3D coordinates assigned)
Cc1ccc(Oc2cccc(NC(=O)[N-]c3ccc(-c4nc5ccccc5[n-]4)cc3)c2)cc1 (optimized conformer: 108.9903871998125 kcal/mol)

>  <smiles>  (46) 
Cc1ccc(Oc2cccc(NC(=O)Nc3ccc(-c4nc5ccccc5[nH]4)cc3)c2)cc1

>  <score_type>  (46) 
oracle

>  <origin>  (46) 
adg

>  <m_score__min__energy>  (46) 
-11.41

>  <m_primary>  (46) 
energy

$$$$
46:0
     RDKit          3D

 37 38  0  0  0  0  0  0  0  0999 V2000
   56.9365   34.0511   47.0892 H   0  0  0  0  0  0  0  0  0  0  0  0
   57.7770   33.4220   46.7610 C   0  0  0  0  0  0  0  0  0  0  0  0
   58.1032   33.4441   45.7107 H   0  0  0  0  0  0  0  0  0  0  0  0
   58.4010   32.6320   47.6370 C   0  0  0  0  0  0  0  0  0  0  0  0
   58.0676   32.6167   48.6852 H   0  0  0  0  0  0  0  0  0  0  0  0
   59.5530   31.7620   47.2140 C   0  0  0  0  0  0  0  0  0  0  0  0
   59.6575   31.8142   46.1202 H   0  0  0  0  0  0  0  0  0  0  0  0
   60.4628   32.1279   47.7123 H   0  0  0  0  0  0  0  0  0  0  0  0
   59.3420   30.3520   47.6100 N   0  0  0  0  0  0  0  0  0  0  0  0
   60.2530   29.8220   48.4870 C   0  0  0  0  0  0  0  0  0  0  0  0
   61.1240   30.6450   49.1990 O   0  0  0  0  0  0  0  0  0  0  0  0
   60.3540   28.4530   48.6600 C   0  0  0  0  0  0  0  0  0  0  0  0
   61.0658   28.0344   49.3867 H   0  0  0  0  0  0  0  0  0  0  0  0
   59.5480   27.6170   47.9070 C   0  0  0  0  0  0  0  0  0  0  0  0
   59.7060   26.3690   48.0120 O   0  0  0  0  0  0  0  0  0  0  0  0
   58.5920   28.1420   47.0770 N   0  0  0  0  0  0  0  0  0  0  0  0
   57.7190   27.2350   46.2950 C   0  0  0  0  0  0  0  0  0  0  0  0
   57.4091   26.3932   46.9316 H   0  0  0  0  0  0  0  0  0  0  0  0
   56.8375   27.7974   45.9535 H   0  0  0  0  0  0  0  0  0  0  0  0
   58.4520   26.7030   45.0930 C   0  0  0  0  0  0  0  0  0  0  0  0
   58.9540   25.7264   45.1586 H   0  0  0  0  0  0  0  0  0  0  0  0
   58.5070   27.3890   43.9490 C   0  0  0  0  0  0  0  0  0  0  0  0
   59.0499   26.9764   43.0858 H   0  0  0  0  0  0  0  0  0  0  0  0
   58.0095   28.3668   43.8696 H   0  0  0  0  0  0  0  0  0  0  0  0
   58.4270   29.5110   46.9900 C   0  0  0  0  0  0  0  0  0  0  0  0
   57.3860   29.9560   46.3250 N   0  0  0  0  0  0  0  0  0  0  0  0
   57.2250   30.2450   44.9320 C   0  0  0  0  0  0  0  0  0  0  0  0
   58.1180   31.1130   44.2850 C   0  0  0  0  0  0  0  0  0  0  0  0
   58.9761   31.5269   44.8349 H   0  0  0  0  0  0  0  0  0  0  0  0
   57.9200   31.4530   42.9440 C   0  0  0  0  0  0  0  0  0  0  0  0
   58.6349   32.1146   42.4329 H   0  0  0  0  0  0  0  0  0  0  0  0
   56.8130   30.9520   42.2520 C   0  0  0  0  0  0  0  0  0  0  0  0
   56.6639   31.2098   41.1931 H   0  0  0  0  0  0  0  0  0  0  0  0
   55.8960   30.1240   42.9050 C   0  0  0  0  0  0  0  0  0  0  0  0
   55.0191   29.7405   42.3628 H   0  0  0  0  0  0  0  0  0  0  0  0
   56.0920   29.7820   44.2480 C   0  0  0  0  0  0  0  0  0  0  0  0
   55.1640   28.9730   44.8950 O   0  0  0  0  0  0  0  0  0  0  0  0
  1  2  1  0
  2  3  1  0
  2  4  2  0
  4  5  1  0
  4  6  1  0
  6  7  1  0
  6  8  1  0
  6  9  1  0
  9 10  1  0
 10 11  1  0
 10 12  2  0
 12 13  1  0
 12 14  1  0
 14 15  2  0
 14 16  1  0
 16 17  1  0
 17 18  1  0
 17 19  1  0
 17 20  1  0
 20 21  1  0
 20 22  2  0
 22 23  1  0
 22 24  1  0
 16 25  1  0
 25 26  2  0
 26 27  1  0
 27 28  2  0
 28 29  1  0
 28 30  1  0
 30 31  1  0
 30 32  2  0
 32 33  1  0
 32 34  1  0
 34 35  1  0
 34 36  2  0
 36 37  1  0
 25  9  1  0
 36 27  1  0
M  CHG  2  11  -1  37  -1
M  END
>  <UniqueID>  (47) 
46

>  <SMILES>  (47) 
C=CCn1c([O-])cc(=O)n(CC=C)/c1=N/c1ccccc1[O-]

>  <Energy>  (47) 
61.0152522489868

>  <Genealogy>  (47) 
C=CCn1c([O-])cc(=O)n(CC=C)c1=Nc1ccccc1[O-] (protonated)
C=CCn1c([O-])cc(=O)n(CC=C)/c1=N/c1ccccc1[O-] (cis-trans isomerization)
C=CCn1c([O-])cc(=O)n(CC=C)/c1=N/c1ccccc1[O-] (3D coordinates assigned)
C=CCn1c([O-])cc(=O)n(CC=C)/c1=N/c1ccccc1[O-] (optimized conformer: 61.0152522489868 kcal/mol)

>  <smiles>  (47) 
C=CCn1c(O)cc(=O)n(CC=C)c1=Nc1ccccc1O

>  <score_type>  (47) 
oracle

>  <origin>  (47) 
adg

>  <m_score__min__energy>  (47) 
-10.460000000000001

>  <m_primary>  (47) 
energy

$$$$
47:0
     RDKit          3D

 24 25  0  0  0  0  0  0  0  0999 V2000
   58.2852   25.8942   44.4194 H   0  0  0  0  0  0  0  0  0  0  0  0
   58.1520   26.7600   43.7540 C   0  0  0  0  0  0  0  0  0  0  0  0
   58.2550   26.6382   42.6656 H   0  0  0  0  0  0  0  0  0  0  0  0
   57.8650   27.9600   44.2680 C   0  0  0  0  0  0  0  0  0  0  0  0
   57.7030   28.2870   45.6170 C   0  0  0  0  0  0  0  0  0  0  0  0
   57.7590   27.4500   46.6690 C   0  0  0  0  0  0  0  0  0  0  0  0
   58.2891   27.7907   47.5706 H   0  0  0  0  0  0  0  0  0  0  0  0
   57.1540   26.1030   46.6900 C   0  0  0  0  0  0  0  0  0  0  0  0
   55.8560   25.7960   46.3520 C   0  0  0  0  0  0  0  0  0  0  0  0
   54.8670   26.7120   46.0170 O   0  0  0  0  0  0  0  0  0  0  0  0
   55.6600   24.4630   46.3830 N   0  0  0  0  0  0  0  0  0  0  0  0
   56.8780   23.9910   46.7280 C   0  0  0  0  0  0  0  0  0  0  0  0
   57.1250   22.7630   46.8480 O   0  0  0  0  0  0  0  0  0  0  0  0
   57.8080   24.9490   46.9130 N   0  0  0  0  0  0  0  0  0  0  0  0
   58.8220   24.8090   47.1180 H   0  0  0  0  0  0  0  0  0  0  0  0
   57.4040   29.6450   45.6470 C   0  0  0  0  0  0  0  0  0  0  0  0
   57.1940   30.2540   46.5386 H   0  0  0  0  0  0  0  0  0  0  0  0
   57.4230   30.0770   44.3360 C   0  0  0  0  0  0  0  0  0  0  0  0
   57.0730   31.4550   43.8770 C   0  0  0  0  0  0  0  0  0  0  0  0
   56.9087   32.1020   44.7513 H   0  0  0  0  0  0  0  0  0  0  0  0
   57.8968   31.8599   43.2709 H   0  0  0  0  0  0  0  0  0  0  0  0
   56.1558   31.4177   43.2709 H   0  0  0  0  0  0  0  0  0  0  0  0
   57.6910   29.0560   43.5020 N   0  0  0  0  0  0  0  0  0  0  0  0
   57.7370   29.1050   42.4600 H   0  0  0  0  0  0  0  0  0  0  0  0
  1  2  1  0
  2  3  1  0
  2  4  2  0
  4  5  1  0
  5  6  2  0
  6  7  1  0
  6  8  1  0
  8  9  2  0
  9 10  1  0
  9 11  1  0
 11 12  1  0
 12 13  2  0
 12 14  1  0
 14 15  1  0
  5 16  1  0
 16 17  1  0
 16 18  2  0
 18 19  1  0
 19 20  1  0
 19 21  1  0
 19 22  1  0
 18 23  1  0
 23 24  1  0
 23  4  1  0
 14  8  1  0
M  CHG  2  10  -1  11  -1
M  END
>  <UniqueID>  (48) 
47

>  <SMILES>  (48) 
C=c1[nH]c(C)c/c1=C\c1[nH]c(=O)[n-]c1[O-]

>  <Energy>  (48) 
86.06155760903877

>  <Genealogy>  (48) 
C=c1[nH]c(C)cc1=Cc1[nH]c(=O)[n-]c1[O-] (protonated)
C=c1[nH]c(C)c/c1=C\c1[nH]c(=O)[n-]c1[O-] (cis-trans isomerization)
C=c1[nH]c(C)c/c1=C\c1[nH]c(=O)[n-]c1[O-] (3D coordinates assigned)
C=c1[nH]c(C)c/c1=C\c1[nH]c(=O)[n-]c1[O-] (optimized conformer: 86.06155760903877 kcal/mol)

>  <smiles>  (48) 
C=c1[nH]c(C)cc1=Cc1[nH]c(=O)[nH]c1O

>  <score_type>  (48) 
oracle

>  <origin>  (48) 
adg

>  <m_score__min__energy>  (48) 
-12.76

>  <m_primary>  (48) 
energy

$$$$
48:0
     RDKit          3D

 39 41  0  0  0  0  0  0  0  0999 V2000
   59.9610   26.7410   48.5250 C   0  0  0  0  0  0  0  0  0  0  0  0
   59.3010   26.7910   47.2180 N   0  0  0  0  0  0  0  0  0  0  0  0
   59.9950   27.3580   46.0540 C   0  0  0  0  0  0  0  0  0  0  0  0
   59.7380   28.7940   45.9740 N   0  0  0  0  0  0  0  0  0  0  0  0
   60.6080   29.8110   46.2120 C   0  0  0  0  0  0  0  0  0  0  0  0
   60.0500   31.0310   45.9990 N   0  0  0  0  0  0  0  0  0  0  0  0
   58.7930   30.7520   45.6110 C   0  0  0  0  0  0  0  0  0  0  0  0
   57.7600   31.6000   45.2410 C   0  0  0  0  0  0  0  0  0  0  0  0
   57.9010   32.8500   45.2430 O   0  0  0  0  0  0  0  0  0  0  0  0
   56.5740   31.0320   44.8690 N   0  0  0  0  0  0  0  0  0  0  0  0
   56.4060   29.6680   44.8580 C   0  0  0  0  0  0  0  0  0  0  0  0
   55.2700   29.1680   44.4970 N   0  0  0  0  0  0  0  0  0  0  0  0
   57.4360   28.8420   45.2240 N   0  0  0  0  0  0  0  0  0  0  0  0
   58.6080   29.4120   45.5960 C   0  0  0  0  0  0  0  0  0  0  0  0
   57.9560   26.3000   47.0940 C   0  0  0  0  0  0  0  0  0  0  0  0
   56.9870   27.1090   47.0890 O   0  0  0  0  0  0  0  0  0  0  0  0
   57.7250   24.9180   47.0350 O   0  0  0  0  0  0  0  0  0  0  0  0
   57.5060   24.1790   45.8630 C   0  0  0  0  0  0  0  0  0  0  0  0
   58.5440   23.4230   45.2830 C   0  0  0  0  0  0  0  0  0  0  0  0
   58.3190   22.6770   44.1270 C   0  0  0  0  0  0  0  0  0  0  0  0
   57.0560   22.6650   43.5390 C   0  0  0  0  0  0  0  0  0  0  0  0
   56.0100   23.3910   44.1090 C   0  0  0  0  0  0  0  0  0  0  0  0
   56.2140   24.1520   45.2770 C   0  0  0  0  0  0  0  0  0  0  0  0
   55.0750   24.9150   45.8590 C   0  0  0  0  0  0  0  0  0  0  0  0
   54.9940   26.3300   45.6930 N   0  0  0  0  0  0  0  0  0  0  0  0
   54.1670   24.3280   46.5090 O   0  0  0  0  0  0  0  0  0  0  0  0
   59.2036   26.7984   49.3207 H   0  0  0  0  0  0  0  0  0  0  0  0
   60.5196   25.7980   48.6178 H   0  0  0  0  0  0  0  0  0  0  0  0
   60.6553   27.5891   48.6178 H   0  0  0  0  0  0  0  0  0  0  0  0
   61.0768   27.1859   46.1546 H   0  0  0  0  0  0  0  0  0  0  0  0
   59.6252   26.8719   45.1391 H   0  0  0  0  0  0  0  0  0  0  0  0
   61.6473   29.6626   46.5403 H   0  0  0  0  0  0  0  0  0  0  0  0
   60.5000   31.9670   46.1020 H   0  0  0  0  0  0  0  0  0  0  0  0
   55.0810   28.1430   44.5650 H   0  0  0  0  0  0  0  0  0  0  0  0
   59.5414   23.4214   45.7468 H   0  0  0  0  0  0  0  0  0  0  0  0
   59.1394   22.0973   43.6787 H   0  0  0  0  0  0  0  0  0  0  0  0
   56.8831   22.0814   42.6227 H   0  0  0  0  0  0  0  0  0  0  0  0
   55.0147   23.3691   43.6412 H   0  0  0  0  0  0  0  0  0  0  0  0
   55.7920   26.8710   45.2940 H   0  0  0  0  0  0  0  0  0  0  0  0
  1  2  1  0
  2  3  1  0
  3  4  1  0
  4  5  1  0
  5  6  2  0
  6  7  1  0
  7  8  1  0
  8  9  2  0
  8 10  1  0
 10 11  1  0
 11 12  2  3
 11 13  1  0
 13 14  1  0
  2 15  1  0
 15 16  2  0
 15 17  1  0
 17 18  1  0
 18 19  2  0
 19 20  1  0
 20 21  2  0
 21 22  1  0
 22 23  2  0
 23 24  1  0
 24 25  1  0
 24 26  2  0
 14  4  1  0
 23 18  1  0
 14  7  2  0
  1 27  1  0
  1 28  1  0
  1 29  1  0
  3 30  1  0
  3 31  1  0
  5 32  1  0
  6 33  1  0
 12 34  1  0
 19 35  1  0
 20 36  1  0
 21 37  1  0
 22 38  1  0
 25 39  1  0
M  CHG  4   6   1  10  -1  13  -1  25  -1
M  END
>  <UniqueID>  (49) 
48

>  <SMILES>  (49) 
CN(Cn1c[nH+]c2c(=O)[n-]c(=N)[n-]c21)C(=O)Oc1ccccc1C([NH-])=O

>  <Energy>  (49) 
86.11971577727856

>  <Genealogy>  (49) 
CN(Cn1c[nH+]c2c(=O)[n-]c(=N)[n-]c21)C(=O)Oc1ccccc1C([NH-])=O (protonated)
CN(Cn1c[nH+]c2c(=O)[n-]c(=N)[n-]c21)C(=O)Oc1ccccc1C([NH-])=O (3D coordinates assigned)
CN(Cn1c[nH+]c2c(=O)[n-]c(=N)[n-]c21)C(=O)Oc1ccccc1C([NH-])=O (optimized conformer: 86.11971577727856 kcal/mol)

>  <smiles>  (49) 
CN(Cn1cnc2c(=O)[nH]c(=N)[nH]c21)C(=O)Oc1ccccc1C(N)=O

>  <score_type>  (49) 
oracle

>  <origin>  (49) 
adg

>  <m_score__min__energy>  (49) 
-12.140000000000001

>  <m_primary>  (49) 
energy

$$$$
50:0
     RDKit          3D

 51 54  0  0  0  0  0  0  0  0999 V2000
   57.7660   32.6830   43.3460 C   0  0  0  0  0  0  0  0  0  0  0  0
   57.7810   31.3340   43.9330 N   0  0  0  0  0  0  0  0  0  0  0  0
   58.3560   31.1070   45.1600 C   0  0  0  0  0  0  0  0  0  0  0  0
   58.9100   32.1780   45.9390 N   0  0  0  0  0  0  0  0  0  0  0  0
   58.0010   33.1900   46.5000 C   0  0  0  0  0  0  0  0  0  0  0  0
   58.6230   33.8780   47.7210 C   0  0  0  0  0  0  0  0  0  0  0  0
   59.2630   32.8700   48.5800 N   0  0  0  0  0  0  0  0  0  0  0  0
   58.8800   32.7280   49.9610 C   0  0  0  0  0  0  0  0  0  0  0  0
   59.5130   33.4890   50.9560 C   0  0  0  0  0  0  0  0  0  0  0  0
   59.1300   33.3610   52.2920 C   0  0  0  0  0  0  0  0  0  0  0  0
   58.1050   32.4830   52.6490 C   0  0  0  0  0  0  0  0  0  0  0  0
   57.4410   31.7250   51.6680 C   0  0  0  0  0  0  0  0  0  0  0  0
   56.3480   30.7890   52.0280 C   0  0  0  0  0  0  0  0  0  0  0  0
   54.9770   31.1990   52.0170 N   0  0  0  0  0  0  0  0  0  0  0  0
   56.6210   29.5970   52.3360 O   0  0  0  0  0  0  0  0  0  0  0  0
   57.8430   31.8510   50.3250 C   0  0  0  0  0  0  0  0  0  0  0  0
   60.2270   31.9230   47.9950 C   0  0  0  0  0  0  0  0  0  0  0  0
   60.2730   32.0470   46.4670 C   0  0  0  0  0  0  0  0  0  0  0  0
   58.3920   29.8490   45.6730 N   0  0  0  0  0  0  0  0  0  0  0  0
   57.8530   28.7870   45.0240 C   0  0  0  0  0  0  0  0  0  0  0  0
   57.9240   27.4380   45.6400 C   0  0  0  0  0  0  0  0  0  0  0  0
   59.1640   26.8610   45.9700 C   0  0  0  0  0  0  0  0  0  0  0  0
   59.2060   25.5960   46.5590 C   0  0  0  0  0  0  0  0  0  0  0  0
   58.0550   24.9230   46.8150 N   0  0  0  0  0  0  0  0  0  0  0  0
   56.8390   25.4520   46.5140 C   0  0  0  0  0  0  0  0  0  0  0  0
   56.7480   26.7170   45.9280 C   0  0  0  0  0  0  0  0  0  0  0  0
   55.5240   27.2160   45.6210 F   0  0  0  0  0  0  0  0  0  0  0  0
   57.2190   29.0020   43.7960 C   0  0  0  0  0  0  0  0  0  0  0  0
   57.1880   30.2920   43.2650 C   0  0  0  0  0  0  0  0  0  0  0  0
   56.6000   30.4830   42.1640 O   0  0  0  0  0  0  0  0  0  0  0  0
   57.7577   33.4329   44.1507 H   0  0  0  0  0  0  0  0  0  0  0  0
   58.6627   32.8223   42.7242 H   0  0  0  0  0  0  0  0  0  0  0  0
   56.8665   32.8023   42.7242 H   0  0  0  0  0  0  0  0  0  0  0  0
   57.7886   33.9472   45.7309 H   0  0  0  0  0  0  0  0  0  0  0  0
   57.0746   32.6887   46.8170 H   0  0  0  0  0  0  0  0  0  0  0  0
   59.3765   34.6065   47.3869 H   0  0  0  0  0  0  0  0  0  0  0  0
   57.8368   34.3971   48.2888 H   0  0  0  0  0  0  0  0  0  0  0  0
   60.3151   34.1899   50.6815 H   0  0  0  0  0  0  0  0  0  0  0  0
   59.6378   33.9543   53.0667 H   0  0  0  0  0  0  0  0  0  0  0  0
   57.8146   32.3834   53.7053 H   0  0  0  0  0  0  0  0  0  0  0  0
   54.2320   30.5330   52.3220 H   0  0  0  0  0  0  0  0  0  0  0  0
   54.6810   32.1210   51.6320 H   0  0  0  0  0  0  0  0  0  0  0  0
   57.3390   31.2553   49.5497 H   0  0  0  0  0  0  0  0  0  0  0  0
   61.2273   32.1328   48.4018 H   0  0  0  0  0  0  0  0  0  0  0  0
   59.9091   30.9015   48.2510 H   0  0  0  0  0  0  0  0  0  0  0  0
   60.8592   32.9356   46.1900 H   0  0  0  0  0  0  0  0  0  0  0  0
   60.7425   31.1471   46.0430 H   0  0  0  0  0  0  0  0  0  0  0  0
   60.0977   27.4051   45.7645 H   0  0  0  0  0  0  0  0  0  0  0  0
   60.1748   25.1431   46.8165 H   0  0  0  0  0  0  0  0  0  0  0  0
   55.9239   24.8820   46.7326 H   0  0  0  0  0  0  0  0  0  0  0  0
   56.7512   28.1655   43.2561 H   0  0  0  0  0  0  0  0  0  0  0  0
  1  2  1  0
  2  3  1  0
  3  4  1  0
  4  5  1  0
  5  6  1  0
  6  7  1  0
  7  8  1  0
  8  9  2  0
  9 10  1  0
 10 11  2  0
 11 12  1  0
 12 13  1  0
 13 14  1  0
 13 15  2  0
 12 16  2  0
  7 17  1  0
 17 18  1  0
  3 19  2  0
 19 20  1  0
 20 21  1  0
 21 22  2  0
 22 23  1  0
 23 24  2  0
 24 25  1  0
 25 26  2  0
 26 27  1  0
 20 28  2  0
 28 29  1  0
 29 30  2  0
 29  2  1  0
 18  4  1  0
 26 21  1  0
 16  8  1  0
  1 31  1  0
  1 32  1  0
  1 33  1  0
  5 34  1  0
  5 35  1  0
  6 36  1  0
  6 37  1  0
  9 38  1  0
 10 39  1  0
 11 40  1  0
 14 41  1  0
 14 42  1  0
 16 43  1  0
 17 44  1  0
 17 45  1  0
 18 46  1  0
 18 47  1  0
 22 48  1  0
 23 49  1  0
 25 50  1  0
 28 51  1  0
M  END
>  <UniqueID>  (50) 
49

>  <SMILES>  (50) 
Cn1c(N2CCN(c3cccc(C(N)=O)c3)CC2)nc(-c2ccncc2F)cc1=O

>  <Energy>  (50) 
75.25862009405982

>  <Genealogy>  (50) 
Cn1c(N2CCN(c3cccc(C(N)=O)c3)CC2)nc(-c2ccncc2F)cc1=O (3D coordinates assigned)
Cn1c(N2CCN(c3cccc(C(N)=O)c3)CC2)nc(-c2ccncc2F)cc1=O (nonaromatic ring conformer: 75.25862009405982 kcal/mol)

>  <smiles>  (50) 
Cn1c(N2CCN(c3cccc(C(N)=O)c3)CC2)nc(-c2ccncc2F)cc1=O

>  <score_type>  (50) 
oracle

>  <origin>  (50) 
adg

>  <m_score__min__energy>  (50) 
-8.4900000000000002

>  <m_primary>  (50) 
energy

$$$$
51:0
     RDKit          3D

 29 31  0  0  0  0  0  0  0  0999 V2000
   60.1472   26.3287   46.3405 H   0  0  0  0  0  0  0  0  0  0  0  0
   60.3970   27.3880   46.5000 C   0  0  0  0  0  0  0  0  0  0  0  0
   61.3238   27.6615   47.0256 H   0  0  0  0  0  0  0  0  0  0  0  0
   59.5760   28.3410   46.0560 C   0  0  0  0  0  0  0  0  0  0  0  0
   59.8430   29.6150   46.2290 O   0  0  0  0  0  0  0  0  0  0  0  0
   58.8270   30.3350   45.8130 C   0  0  0  0  0  0  0  0  0  0  0  0
   58.7980   31.8150   45.8680 C   0  0  0  0  0  0  0  0  0  0  0  0
   59.8640   32.5070   46.4730 C   0  0  0  0  0  0  0  0  0  0  0  0
   60.7082   31.9447   46.8986 H   0  0  0  0  0  0  0  0  0  0  0  0
   59.8580   33.9030   46.5370 C   0  0  0  0  0  0  0  0  0  0  0  0
   60.6964   34.4340   47.0115 H   0  0  0  0  0  0  0  0  0  0  0  0
   58.7900   34.6260   46.0000 C   0  0  0  0  0  0  0  0  0  0  0  0
   58.7878   35.7248   46.0512 H   0  0  0  0  0  0  0  0  0  0  0  0
   57.7250   33.9520   45.3980 C   0  0  0  0  0  0  0  0  0  0  0  0
   56.6620   34.6720   44.8660 O   0  0  0  0  0  0  0  0  0  0  0  0
   57.7250   32.5540   45.3310 C   0  0  0  0  0  0  0  0  0  0  0  0
   56.8827   32.0292   44.8565 H   0  0  0  0  0  0  0  0  0  0  0  0
   57.8310   29.4970   45.3350 C   0  0  0  0  0  0  0  0  0  0  0  0
   56.8476   29.7971   44.9440 H   0  0  0  0  0  0  0  0  0  0  0  0
   58.3210   28.2080   45.4480 C   0  0  0  0  0  0  0  0  0  0  0  0
   57.6520   27.1240   45.0170 C   0  0  0  0  0  0  0  0  0  0  0  0
   57.4595   27.0491   43.9366 H   0  0  0  0  0  0  0  0  0  0  0  0
   57.1550   26.0290   45.8660 C   0  0  0  0  0  0  0  0  0  0  0  0
   57.8770   24.9530   46.2290 N   0  0  0  0  0  0  0  0  0  0  0  0
   56.9750   24.1700   46.8600 C   0  0  0  0  0  0  0  0  0  0  0  0
   57.2780   23.0590   47.3660 O   0  0  0  0  0  0  0  0  0  0  0  0
   55.7200   24.6680   46.8950 N   0  0  0  0  0  0  0  0  0  0  0  0
   55.8500   25.8370   46.2480 C   0  0  0  0  0  0  0  0  0  0  0  0
   54.7950   26.7080   46.0060 O   0  0  0  0  0  0  0  0  0  0  0  0
  1  2  1  0
  2  3  1  0
  2  4  2  0
  4  5  1  0
  5  6  1  0
  6  7  1  0
  7  8  2  0
  8  9  1  0
  8 10  1  0
 10 11  1  0
 10 12  2  0
 12 13  1  0
 12 14  1  0
 14 15  1  0
 14 16  2  0
 16 17  1  0
  6 18  2  0
 18 19  1  0
 18 20  1  0
 20 21  2  0
 21 22  1  0
 21 23  1  0
 23 24  1  0
 24 25  1  0
 25 26  2  0
 25 27  1  0
 27 28  1  0
 28 29  1  0
 20  4  1  0
 28 23  2  0
 16  7  1  0
M  CHG  4  15  -1  24  -1  27  -1  29  -1
M  END
>  <UniqueID>  (51) 
50

>  <SMILES>  (51) 
C=c1oc(-c2cccc([O-])c2)c/c1=C/c1[n-]c(=O)[n-]c1[O-]

>  <Energy>  (51) 
100.45004306052329

>  <Genealogy>  (51) 
C=c1oc(-c2cccc([O-])c2)cc1=Cc1[n-]c(=O)[n-]c1[O-] (protonated)
C=c1oc(-c2cccc([O-])c2)c/c1=C/c1[n-]c(=O)[n-]c1[O-] (cis-trans isomerization)
C=c1oc(-c2cccc([O-])c2)c/c1=C/c1[n-]c(=O)[n-]c1[O-] (3D coordinates assigned)
C=c1oc(-c2cccc([O-])c2)c/c1=C/c1[n-]c(=O)[n-]c1[O-] (optimized conformer: 100.45004306052329 kcal/mol)

>  <smiles>  (51) 
C=c1oc(-c2cccc(O)c2)cc1=Cc1[nH]c(=O)[nH]c1O

>  <score_type>  (51) 
oracle

>  <origin>  (51) 
adg

>  <m_score__min__energy>  (51) 
-17

>  <m_primary>  (51) 
energy

$$$$
52:0
     RDKit          3D

 42 44  0  0  0  0  0  0  0  0999 V2000
   57.4335   31.5244   51.8995 H   0  0  0  0  0  0  0  0  0  0  0  0
   56.3370   31.5910   51.9560 C   0  0  0  0  0  0  0  0  0  0  0  0
   55.8236   32.5049   51.6225 H   0  0  0  0  0  0  0  0  0  0  0  0
   55.6240   30.5550   52.4330 C   0  0  0  0  0  0  0  0  0  0  0  0
   54.2260   30.5200   52.5540 C   0  0  0  0  0  0  0  0  0  0  0  0
   53.3520   31.4880   52.1940 C   0  0  0  0  0  0  0  0  0  0  0  0
   53.3360   32.4027   52.8048 H   0  0  0  0  0  0  0  0  0  0  0  0
   52.4150   31.4230   51.0490 C   0  0  0  0  0  0  0  0  0  0  0  0
   52.4090   30.4830   50.0860 N   0  0  0  0  0  0  0  0  0  0  0  0
   51.3530   30.8260   49.3170 C   0  0  0  0  0  0  0  0  0  0  0  0
   51.0210   30.1750   48.2930 O   0  0  0  0  0  0  0  0  0  0  0  0
   50.6800   31.9180   49.7350 N   0  0  0  0  0  0  0  0  0  0  0  0
   51.3610   32.2790   50.8340 C   0  0  0  0  0  0  0  0  0  0  0  0
   51.0250   33.3710   51.6240 O   0  0  0  0  0  0  0  0  0  0  0  0
   53.9170   29.2800   53.0890 C   0  0  0  0  0  0  0  0  0  0  0  0
   52.9116   28.8981   53.3197 H   0  0  0  0  0  0  0  0  0  0  0  0
   55.1110   28.6160   53.2770 C   0  0  0  0  0  0  0  0  0  0  0  0
   55.2090   27.2210   53.8220 C   0  0  0  0  0  0  0  0  0  0  0  0
   55.2066   27.2559   54.9214 H   0  0  0  0  0  0  0  0  0  0  0  0
   54.3502   26.6294   53.4720 H   0  0  0  0  0  0  0  0  0  0  0  0
   56.1421   26.7553   53.4720 H   0  0  0  0  0  0  0  0  0  0  0  0
   56.1590   29.3810   52.8840 N   0  0  0  0  0  0  0  0  0  0  0  0
   57.5770   28.9500   52.9130 C   0  0  2  0  0  0  0  0  0  0  0  0
   57.5927   27.8534   52.8283 H   0  0  0  0  0  0  0  0  0  0  0  0
   58.2560   29.2710   54.2660 C   0  0  0  0  0  0  0  0  0  0  0  0
   57.7610   30.1460   54.7125 H   0  0  0  0  0  0  0  0  0  0  0  0
   58.1601   28.3856   54.9117 H   0  0  0  0  0  0  0  0  0  0  0  0
   59.7530   29.5780   54.1030 C   0  0  0  0  0  0  0  0  0  0  0  0
   59.8761   30.6315   53.8113 H   0  0  0  0  0  0  0  0  0  0  0  0
   60.2601   29.3857   55.0600 H   0  0  0  0  0  0  0  0  0  0  0  0
   60.3530   28.7130   53.0640 N   0  0  2  0  0  0  0  0  0  0  0  0
   60.1180   27.7150   53.2860 H   0  0  0  0  0  0  0  0  0  0  0  0
   61.8210   28.8260   53.0910 C   0  0  0  0  0  0  0  0  0  0  0  0
   62.1676   28.8527   54.1346 H   0  0  0  0  0  0  0  0  0  0  0  0
   62.2649   27.9594   52.5793 H   0  0  0  0  0  0  0  0  0  0  0  0
   62.1271   29.7504   52.5793 H   0  0  0  0  0  0  0  0  0  0  0  0
   59.8340   29.0330   51.7080 C   0  0  0  0  0  0  0  0  0  0  0  0
   60.4477   29.8412   51.2835 H   0  0  0  0  0  0  0  0  0  0  0  0
   59.8899   28.1072   51.1166 H   0  0  0  0  0  0  0  0  0  0  0  0
   58.3560   29.4860   51.6970 C   0  0  0  0  0  0  0  0  0  0  0  0
   58.3218   30.5854   51.7103 H   0  0  0  0  0  0  0  0  0  0  0  0
   57.8848   29.0832   50.7883 H   0  0  0  0  0  0  0  0  0  0  0  0
  1  2  1  0
  2  3  1  0
  2  4  2  0
  4  5  1  0
  5  6  2  0
  6  7  1  0
  6  8  1  0
  8  9  1  0
  9 10  1  0
 10 11  2  0
 10 12  1  0
 12 13  1  0
 13 14  1  0
  5 15  1  0
 15 16  1  0
 15 17  2  0
 17 18  1  0
 18 19  1  0
 18 20  1  0
 18 21  1  0
 17 22  1  0
 22 23  1  0
 23 24  1  1
 23 25  1  0
 25 26  1  0
 25 27  1  0
 25 28  1  0
 28 29  1  0
 28 30  1  0
 28 31  1  0
 31 32  1  6
 31 33  1  0
 33 34  1  0
 33 35  1  0
 33 36  1  0
 31 37  1  0
 37 38  1  0
 37 39  1  0
 37 40  1  0
 40 41  1  0
 40 42  1  0
 22  4  1  0
 40 23  1  0
 13  8  2  0
M  CHG  4   9  -1  12  -1  14  -1  31   1
M  END
>  <UniqueID>  (52) 
51

>  <SMILES>  (52) 
C=c1/c(=C/c2[n-]c(=O)[n-]c2[O-])cc(C)n1C1CC[NH+](C)CC1

>  <Energy>  (52) 
114.64586244767693

>  <Genealogy>  (52) 
C=c1c(=Cc2[n-]c(=O)[n-]c2[O-])cc(C)n1C1CC[NH+](C)CC1 (protonated)
C=c1/c(=C/c2[n-]c(=O)[n-]c2[O-])cc(C)n1C1CC[NH+](C)CC1 (cis-trans isomerization)
C=c1/c(=C/c2[n-]c(=O)[n-]c2[O-])cc(C)n1C1CC[NH+](C)CC1 (3D coordinates assigned)
C=c1/c(=C/c2[n-]c(=O)[n-]c2[O-])cc(C)n1C1CC[NH+](C)CC1 (nonaromatic ring conformer: 114.64586244767693 kcal/mol)

>  <smiles>  (52) 
C=c1c(=Cc2[nH]c(=O)[nH]c2O)cc(C)n1C1CCN(C)CC1

>  <score_type>  (52) 
oracle

>  <origin>  (52) 
adg

>  <m_score__min__energy>  (52) 
-14.539999999999999

>  <m_primary>  (52) 
energy

$$$$
53:0
     RDKit          3D

 59 61  0  0  0  0  0  0  0  0999 V2000
   55.6670   22.9760   43.1440 C   0  0  0  0  0  0  0  0  0  0  0  0
   55.0240   23.4940   44.3400 N   0  0  0  0  0  0  0  0  0  0  0  0
   55.5500   24.5600   45.1420 C   0  0  0  0  0  0  0  0  0  0  0  0
   54.7520   25.2820   45.8000 O   0  0  0  0  0  0  0  0  0  0  0  0
   57.0240   24.8610   45.1920 C   0  0  0  0  0  0  0  0  0  0  0  0
   57.2890   26.0180   46.0390 N   0  0  0  0  0  0  0  0  0  0  0  0
   58.6260   26.3710   46.4230 C   0  0  0  0  0  0  0  0  0  0  0  0
   59.5650   25.5520   46.2290 O   0  0  0  0  0  0  0  0  0  0  0  0
   58.9220   27.6820   47.0500 C   0  0  0  0  0  0  0  0  0  0  0  0
   59.8770   27.7960   48.0780 C   0  0  0  0  0  0  0  0  0  0  0  0
   60.1530   29.0370   48.6570 C   0  0  0  0  0  0  0  0  0  0  0  0
   59.4740   30.1840   48.2290 C   0  0  0  0  0  0  0  0  0  0  0  0
   59.8080   31.5040   48.7990 C   0  0  0  0  0  0  0  0  0  0  0  0
   60.4680   32.4400   47.9890 C   0  0  0  0  0  0  0  0  0  0  0  0
   60.8100   33.6940   48.4960 C   0  0  0  0  0  0  0  0  0  0  0  0
   60.5030   34.0260   49.8180 C   0  0  0  0  0  0  0  0  0  0  0  0
   59.8580   33.1000   50.6400 C   0  0  0  0  0  0  0  0  0  0  0  0
   59.5050   31.8310   50.1480 C   0  0  0  0  0  0  0  0  0  0  0  0
   58.8550   30.8320   51.0770 C   0  0  0  0  0  0  0  0  0  0  0  0
   57.4210   30.8220   50.8330 N   0  0  0  0  0  0  0  0  0  0  0  0
   56.4310   31.1320   51.8070 C   0  0  0  0  0  0  0  0  0  0  0  0
   56.1870   32.3310   52.1000 O   0  0  0  0  0  0  0  0  0  0  0  0
   55.6560   30.0840   52.4110 N   0  0  0  0  0  0  0  0  0  0  0  0
   54.2280   29.9740   52.3360 C   0  0  0  0  0  0  0  0  0  0  0  0
   53.5030   31.0720   51.8650 C   0  0  0  0  0  0  0  0  0  0  0  0
   52.1070   31.0080   51.7310 C   0  0  0  0  0  0  0  0  0  0  0  0
   51.3470   32.1770   51.2380 C   0  0  0  0  0  0  0  0  0  0  0  0
   50.2770   32.7130   52.0100 N   0  0  0  0  0  0  0  0  0  0  0  0
   51.6520   32.7180   50.1390 O   0  0  0  0  0  0  0  0  0  0  0  0
   51.4440   29.8230   52.0680 C   0  0  0  0  0  0  0  0  0  0  0  0
   52.1560   28.7320   52.5730 C   0  0  0  0  0  0  0  0  0  0  0  0
   53.5500   28.8040   52.7390 C   0  0  0  0  0  0  0  0  0  0  0  0
   54.2750   27.7500   53.3230 O   0  0  0  0  0  0  0  0  0  0  0  0
   55.1380   27.8900   54.4460 C   0  0  0  0  0  0  0  0  0  0  0  0
   58.4970   30.0750   47.2300 C   0  0  0  0  0  0  0  0  0  0  0  0
   58.2230   28.8340   46.6460 C   0  0  0  0  0  0  0  0  0  0  0  0
   56.4938   22.3099   43.4315 H   0  0  0  0  0  0  0  0  0  0  0  0
   54.9335   22.4136   42.5477 H   0  0  0  0  0  0  0  0  0  0  0  0
   56.0604   23.8124   42.5477 H   0  0  0  0  0  0  0  0  0  0  0  0
   57.5566   23.9880   45.5974 H   0  0  0  0  0  0  0  0  0  0  0  0
   57.3726   25.0836   44.1727 H   0  0  0  0  0  0  0  0  0  0  0  0
   56.4850   26.5840   46.3980 H   0  0  0  0  0  0  0  0  0  0  0  0
   60.4105   26.9001   48.4284 H   0  0  0  0  0  0  0  0  0  0  0  0
   60.9079   29.1133   49.4535 H   0  0  0  0  0  0  0  0  0  0  0  0
   60.7172   32.1839   46.9486 H   0  0  0  0  0  0  0  0  0  0  0  0
   61.3232   34.4239   47.8526 H   0  0  0  0  0  0  0  0  0  0  0  0
   60.7697   35.0180   50.2115 H   0  0  0  0  0  0  0  0  0  0  0  0
   59.6240   33.3655   51.6815 H   0  0  0  0  0  0  0  0  0  0  0  0
   59.2682   29.8301   50.8886 H   0  0  0  0  0  0  0  0  0  0  0  0
   59.0523   31.1132   52.1220 H   0  0  0  0  0  0  0  0  0  0  0  0
   54.0327   31.9978   51.5960 H   0  0  0  0  0  0  0  0  0  0  0  0
   50.0620   33.7350   51.9880 H   0  0  0  0  0  0  0  0  0  0  0  0
   50.3546   29.7497   51.9345 H   0  0  0  0  0  0  0  0  0  0  0  0
   51.6214   27.8093   52.8429 H   0  0  0  0  0  0  0  0  0  0  0  0
   54.5526   27.7950   55.3724 H   0  0  0  0  0  0  0  0  0  0  0  0
   55.9080   27.1050   54.4168 H   0  0  0  0  0  0  0  0  0  0  0  0
   55.6204   28.8781   54.4168 H   0  0  0  0  0  0  0  0  0  0  0  0
   57.9440   30.9683   46.9042 H   0  0  0  0  0  0  0  0  0  0  0  0
   57.4537   28.7581   45.8634 H   0  0  0  0  0  0  0  0  0  0  0  0
  1  2  1  0
  2  3  1  0
  3  4  2  0
  3  5  1  0
  5  6  1  0
  6  7  1  0
  7  8  2  0
  7  9  1  0
  9 10  2  0
 10 11  1  0
 11 12  2  0
 12 13  1  0
 13 14  2  0
 14 15  1  0
 15 16  2  0
 16 17  1  0
 17 18  2  0
 18 19  1  0
 19 20  1  0
 20 21  1  0
 21 22  2  0
 21 23  1  0
 23 24  1  0
 24 25  2  0
 25 26  1  0
 26 27  1  0
 27 28  1  0
 27 29  2  0
 26 30  2  0
 30 31  1  0
 31 32  2  0
 32 33  1  0
 33 34  1  0
 12 35  1  0
 35 36  2  0
 36  9  1  0
 18 13  1  0
 32 24  1  0
  1 37  1  0
  1 38  1  0
  1 39  1  0
  5 40  1  0
  5 41  1  0
  6 42  1  0
 10 43  1  0
 11 44  1  0
 14 45  1  0
 15 46  1  0
 16 47  1  0
 17 48  1  0
 19 49  1  0
 19 50  1  0
 25 51  1  0
 28 52  1  0
 30 53  1  0
 31 54  1  0
 34 55  1  0
 34 56  1  0
 34 57  1  0
 35 58  1  0
 36 59  1  0
M  CHG  4   2  -1  20  -1  23  -1  28  -1
M  END
>  <UniqueID>  (53) 
52

>  <SMILES>  (53) 
C[N-]C(=O)CNC(=O)c1ccc(-c2ccccc2C[N-]C(=O)[N-]c2cc(C([NH-])=O)ccc2OC)cc1

>  <Energy>  (53) 
64.39242325515504

>  <Genealogy>  (53) 
C[N-]C(=O)CNC(=O)c1ccc(-c2ccccc2C[N-]C(=O)[N-]c2cc(C([NH-])=O)ccc2OC)cc1 (protonated)
C[N-]C(=O)CNC(=O)c1ccc(-c2ccccc2C[N-]C(=O)[N-]c2cc(C([NH-])=O)ccc2OC)cc1 (3D coordinates assigned)
C[N-]C(=O)CNC(=O)c1ccc(-c2ccccc2C[N-]C(=O)[N-]c2cc(C([NH-])=O)ccc2OC)cc1 (optimized conformer: 64.39242325515504 kcal/mol)

>  <smiles>  (53) 
CNC(=O)CNC(=O)c1ccc(-c2ccccc2CNC(=O)Nc2cc(C(N)=O)ccc2OC)cc1

>  <score_type>  (53) 
oracle

>  <origin>  (53) 
adg

>  <m_score__min__energy>  (53) 
-16.920000000000002

>  <m_primary>  (53) 
energy

$$$$
54:0
     RDKit          3D

 52 55  0  0  0  0  0  0  0  0999 V2000
   52.5620   28.2300   53.4210 C   0  0  0  0  0  0  0  0  0  0  0  0
   53.7130   28.8810   53.1910 C   0  0  0  0  0  0  0  0  0  0  0  0
   53.8660   30.2410   52.8680 C   0  0  0  0  0  0  0  0  0  0  0  0
   52.9600   31.1820   52.5430 C   0  0  0  0  0  0  0  0  0  0  0  0
   52.2510   31.2870   51.2590 C   0  0  0  0  0  0  0  0  0  0  0  0
   52.2520   30.3180   50.3280 N   0  0  0  0  0  0  0  0  0  0  0  0
   51.3840   30.7770   49.4000 C   0  0  0  0  0  0  0  0  0  0  0  0
   51.1250   30.1440   48.3430 O   0  0  0  0  0  0  0  0  0  0  0  0
   50.8080   31.9610   49.6970 N   0  0  0  0  0  0  0  0  0  0  0  0
   51.3540   32.2630   50.8850 C   0  0  0  0  0  0  0  0  0  0  0  0
   51.0210   33.3930   51.6240 O   0  0  0  0  0  0  0  0  0  0  0  0
   55.2250   30.4980   52.9180 C   0  0  0  0  0  0  0  0  0  0  0  0
   55.8520   29.3000   53.1870 C   0  0  0  0  0  0  0  0  0  0  0  0
   57.3200   29.1380   53.2420 C   0  0  0  0  0  0  0  0  0  0  0  0
   57.8180   28.4040   54.1370 O   0  0  0  0  0  0  0  0  0  0  0  0
   58.1840   29.8170   52.3130 N   0  0  0  0  0  0  0  0  0  0  0  0
   57.9280   31.2130   51.9320 C   0  0  0  0  0  0  0  0  0  0  0  0
   58.2250   31.4490   50.4360 C   0  0  0  0  0  0  0  0  0  0  0  0
   58.9090   30.2940   49.8080 N   0  0  0  0  0  0  0  0  0  0  0  0
   59.3810   30.6270   48.4500 C   0  0  0  0  0  0  0  0  0  0  0  0
   59.5700   29.3730   47.6380 C   0  0  0  0  0  0  0  0  0  0  0  0
   60.0930   29.4560   46.3380 C   0  0  0  0  0  0  0  0  0  0  0  0
   60.3060   28.2860   45.6080 C   0  0  0  0  0  0  0  0  0  0  0  0
   60.0020   27.0490   46.1760 C   0  0  0  0  0  0  0  0  0  0  0  0
   59.4900   27.0010   47.4740 C   0  0  0  0  0  0  0  0  0  0  0  0
   59.2880   28.1500   48.1760 N   0  0  0  0  0  0  0  0  0  0  0  0
   60.0220   29.8410   50.6590 C   0  0  0  0  0  0  0  0  0  0  0  0
   59.4500   29.1850   51.9210 C   0  0  0  0  0  0  0  0  0  0  0  0
   54.9360   28.3170   53.3690 N   0  0  0  0  0  0  0  0  0  0  0  0
   55.2010   26.9430   53.8160 C   0  0  0  0  0  0  0  0  0  0  0  0
   52.5761   27.1578   53.6662 H   0  0  0  0  0  0  0  0  0  0  0  0
   51.6046   28.7687   53.3643 H   0  0  0  0  0  0  0  0  0  0  0  0
   52.7294   31.9401   53.3060 H   0  0  0  0  0  0  0  0  0  0  0  0
   55.7124   31.4731   52.7710 H   0  0  0  0  0  0  0  0  0  0  0  0
   56.8723   31.4506   52.1296 H   0  0  0  0  0  0  0  0  0  0  0  0
   58.5902   31.8617   52.5242 H   0  0  0  0  0  0  0  0  0  0  0  0
   57.2749   31.6256   49.9106 H   0  0  0  0  0  0  0  0  0  0  0  0
   58.8948   32.3182   50.3595 H   0  0  0  0  0  0  0  0  0  0  0  0
   58.6383   31.2704   47.9557 H   0  0  0  0  0  0  0  0  0  0  0  0
   60.3448   31.1518   48.5258 H   0  0  0  0  0  0  0  0  0  0  0  0
   60.3330   30.4353   45.8983 H   0  0  0  0  0  0  0  0  0  0  0  0
   60.7126   28.3392   44.5873 H   0  0  0  0  0  0  0  0  0  0  0  0
   60.1639   26.1213   45.6075 H   0  0  0  0  0  0  0  0  0  0  0  0
   59.2487   26.0303   47.9317 H   0  0  0  0  0  0  0  0  0  0  0  0
   58.9150   28.0800   49.1500 H   0  0  0  0  0  0  0  0  0  0  0  0
   60.6336   29.1109   50.1086 H   0  0  0  0  0  0  0  0  0  0  0  0
   60.6498   30.7000   50.9384 H   0  0  0  0  0  0  0  0  0  0  0  0
   59.2734   28.1174   51.7233 H   0  0  0  0  0  0  0  0  0  0  0  0
   60.1733   29.3099   52.7403 H   0  0  0  0  0  0  0  0  0  0  0  0
   55.2074   26.9099   54.9155 H   0  0  0  0  0  0  0  0  0  0  0  0
   54.4151   26.2750   53.4336 H   0  0  0  0  0  0  0  0  0  0  0  0
   56.1789   26.6152   53.4336 H   0  0  0  0  0  0  0  0  0  0  0  0
  1  2  2  0
  2  3  1  0
  3  4  2  3
  4  5  1  0
  5  6  1  0
  6  7  1  0
  7  8  2  0
  7  9  1  0
  9 10  1  0
 10 11  1  0
  3 12  1  0
 12 13  2  0
 13 14  1  0
 14 15  2  0
 14 16  1  0
 16 17  1  0
 17 18  1  0
 18 19  1  0
 19 20  1  0
 20 21  1  0
 21 22  2  0
 22 23  1  0
 23 24  2  0
 24 25  1  0
 25 26  2  0
 19 27  1  0
 27 28  1  0
 13 29  1  0
 29 30  1  0
 29  2  1  0
 10  5  2  0
 28 16  1  0
 26 21  1  0
  1 31  1  0
  1 32  1  0
  4 33  1  0
 12 34  1  0
 17 35  1  0
 17 36  1  0
 18 37  1  0
 18 38  1  0
 20 39  1  0
 20 40  1  0
 22 41  1  0
 23 42  1  0
 24 43  1  0
 25 44  1  0
 26 45  1  0
 27 46  1  0
 27 47  1  0
 28 48  1  0
 28 49  1  0
 30 50  1  0
 30 51  1  0
 30 52  1  0
M  CHG  4   6  -1   9  -1  11  -1  26   1
M  END
>  <UniqueID>  (54) 
53

>  <SMILES>  (54) 
C=c1c(=Cc2[n-]c(=O)[n-]c2[O-])cc(C(=O)N2CCN(Cc3cccc[nH+]3)CC2)n1C

>  <Energy>  (54) 
135.08044528440044

>  <Genealogy>  (54) 
C=c1c(=Cc2[n-]c(=O)[n-]c2[O-])cc(C(=O)N2CCN(Cc3cccc[nH+]3)CC2)n1C (protonated)
C=c1c(=Cc2[n-]c(=O)[n-]c2[O-])cc(C(=O)N2CCN(Cc3cccc[nH+]3)CC2)n1C (3D coordinates assigned)
C=c1c(=Cc2[n-]c(=O)[n-]c2[O-])cc(C(=O)N2CCN(Cc3cccc[nH+]3)CC2)n1C (nonaromatic ring conformer: 135.08044528440044 kcal/mol)

>  <smiles>  (54) 
C=c1c(=Cc2[nH]c(=O)[nH]c2O)cc(C(=O)N2CCN(Cc3ccccn3)CC2)n1C

>  <score_type>  (54) 
oracle

>  <origin>  (54) 
adg

>  <m_score__min__energy>  (54) 
-16.199999999999999

>  <m_primary>  (54) 
energy

$$$$
55:0
     RDKit          3D

 60 63  0  0  0  0  0  0  0  0999 V2000
   65.8130   32.0910   50.4250 C   0  0  0  0  0  0  0  0  0  0  0  0
   64.5360   32.2440   49.6490 C   0  0  0  0  0  0  0  0  0  0  0  0
   64.4730   33.1410   48.5710 C   0  0  0  0  0  0  0  0  0  0  0  0
   63.2990   33.2630   47.8230 C   0  0  0  0  0  0  0  0  0  0  0  0
   62.1760   32.4810   48.1370 C   0  0  0  0  0  0  0  0  0  0  0  0
   60.8990   32.6370   47.3490 C   0  0  0  0  0  0  0  0  0  0  0  0
   60.3910   34.0310   47.3880 N   0  0  0  0  0  0  0  0  0  0  0  0
   59.0650   34.1600   48.0400 C   0  0  0  0  0  0  0  0  0  0  0  0
   57.9710   33.4160   47.2550 C   0  0  0  0  0  0  0  0  0  0  0  0
   58.2450   33.4710   45.8120 N   0  0  0  0  0  0  0  0  0  0  0  0
   57.7990   32.3850   44.9670 C   0  0  0  0  0  0  0  0  0  0  0  0
   57.6150   32.5300   43.5880 C   0  0  0  0  0  0  0  0  0  0  0  0
   57.2350   31.4180   42.8340 C   0  0  0  0  0  0  0  0  0  0  0  0
   57.0640   31.5640   41.5920 O   0  0  0  0  0  0  0  0  0  0  0  0
   57.0650   30.1900   43.4290 N   0  0  0  0  0  0  0  0  0  0  0  0
   56.6460   29.0280   42.6250 C   0  0  0  0  0  0  0  0  0  0  0  0
   57.3300   30.0560   44.7740 C   0  0  0  0  0  0  0  0  0  0  0  0
   57.3350   28.7280   45.4960 C   0  0  0  0  0  0  0  0  0  0  0  0
   58.4200   28.7180   46.4780 N   0  0  0  0  0  0  0  0  0  0  0  0
   58.2270   28.9330   47.7720 N   0  0  0  0  0  0  0  0  0  0  0  0
   59.4400   29.0540   48.3460 C   0  0  0  0  0  0  0  0  0  0  0  0
   59.6510   29.2910   49.8040 C   0  0  0  0  0  0  0  0  0  0  0  0
   60.4330   28.9130   47.3960 C   0  0  0  0  0  0  0  0  0  0  0  0
   59.7460   28.7110   46.2160 C   0  0  0  0  0  0  0  0  0  0  0  0
   60.3580   28.6240   44.8540 C   0  0  0  0  0  0  0  0  0  0  0  0
   57.6590   31.1490   45.5070 N   0  0  0  0  0  0  0  0  0  0  0  0
   59.0270   34.6140   45.3280 C   0  0  0  0  0  0  0  0  0  0  0  0
   60.4000   34.6500   46.0330 C   0  0  0  0  0  0  0  0  0  0  0  0
   62.2450   31.5700   49.2060 C   0  0  0  0  0  0  0  0  0  0  0  0
   63.4200   31.4490   49.9520 C   0  0  0  0  0  0  0  0  0  0  0  0
   65.5928   32.1174   51.5024 H   0  0  0  0  0  0  0  0  0  0  0  0
   66.2839   31.1300   50.1704 H   0  0  0  0  0  0  0  0  0  0  0  0
   66.4976   32.9136   50.1704 H   0  0  0  0  0  0  0  0  0  0  0  0
   65.3518   33.7506   48.3139 H   0  0  0  0  0  0  0  0  0  0  0  0
   63.2545   33.9743   46.9851 H   0  0  0  0  0  0  0  0  0  0  0  0
   61.0906   32.3575   46.3025 H   0  0  0  0  0  0  0  0  0  0  0  0
   60.1378   31.9841   47.8010 H   0  0  0  0  0  0  0  0  0  0  0  0
   59.1242   33.7396   49.0548 H   0  0  0  0  0  0  0  0  0  0  0  0
   58.7999   35.2271   48.0706 H   0  0  0  0  0  0  0  0  0  0  0  0
   57.9445   32.3650   47.5786 H   0  0  0  0  0  0  0  0  0  0  0  0
   57.0019   33.8979   47.4517 H   0  0  0  0  0  0  0  0  0  0  0  0
   57.7675   33.5062   43.1045 H   0  0  0  0  0  0  0  0  0  0  0  0
   56.3499   28.2067   43.2942 H   0  0  0  0  0  0  0  0  0  0  0  0
   55.7928   29.3097   41.9904 H   0  0  0  0  0  0  0  0  0  0  0  0
   57.4826   28.7004   41.9904 H   0  0  0  0  0  0  0  0  0  0  0  0
   56.3728   28.5848   46.0095 H   0  0  0  0  0  0  0  0  0  0  0  0
   57.4850   27.9141   44.7714 H   0  0  0  0  0  0  0  0  0  0  0  0
   59.0290   28.5924   50.3828 H   0  0  0  0  0  0  0  0  0  0  0  0
   60.7106   29.1304   50.0520 H   0  0  0  0  0  0  0  0  0  0  0  0
   59.3690   30.3249   50.0520 H   0  0  0  0  0  0  0  0  0  0  0  0
   61.5220   28.9526   47.5457 H   0  0  0  0  0  0  0  0  0  0  0  0
   61.4430   28.4698   44.9487 H   0  0  0  0  0  0  0  0  0  0  0  0
   59.9141   27.7799   44.3058 H   0  0  0  0  0  0  0  0  0  0  0  0
   60.1669   29.5583   44.3058 H   0  0  0  0  0  0  0  0  0  0  0  0
   59.1772   34.5193   44.2424 H   0  0  0  0  0  0  0  0  0  0  0  0
   58.4827   35.5439   45.5493 H   0  0  0  0  0  0  0  0  0  0  0  0
   61.1260   34.1090   45.4083 H   0  0  0  0  0  0  0  0  0  0  0  0
   60.6678   35.7089   46.1638 H   0  0  0  0  0  0  0  0  0  0  0  0
   61.3709   30.9506   49.4557 H   0  0  0  0  0  0  0  0  0  0  0  0
   63.4706   30.7273   50.7806 H   0  0  0  0  0  0  0  0  0  0  0  0
  1  2  1  0
  2  3  2  0
  3  4  1  0
  4  5  2  0
  5  6  1  0
  6  7  1  0
  7  8  1  0
  8  9  1  0
  9 10  1  0
 10 11  1  0
 11 12  2  0
 12 13  1  0
 13 14  2  0
 13 15  1  0
 15 16  1  0
 15 17  1  0
 17 18  1  0
 18 19  1  0
 19 20  1  0
 20 21  2  0
 21 22  1  0
 21 23  1  0
 23 24  2  0
 24 25  1  0
 17 26  2  0
 10 27  1  0
 27 28  1  0
  5 29  1  0
 29 30  2  0
 30  2  1  0
 28  7  1  0
 26 11  1  0
 24 19  1  0
  1 31  1  0
  1 32  1  0
  1 33  1  0
  3 34  1  0
  4 35  1  0
  6 36  1  0
  6 37  1  0
  8 38  1  0
  8 39  1  0
  9 40  1  0
  9 41  1  0
 12 42  1  0
 16 43  1  0
 16 44  1  0
 16 45  1  0
 18 46  1  0
 18 47  1  0
 22 48  1  0
 22 49  1  0
 22 50  1  0
 23 51  1  0
 25 52  1  0
 25 53  1  0
 25 54  1  0
 27 55  1  0
 27 56  1  0
 28 57  1  0
 28 58  1  0
 29 59  1  0
 30 60  1  0
M  END
>  <UniqueID>  (55) 
54

>  <SMILES>  (55) 
Cc1ccc(CN2CCN(c3cc(=O)n(C)c(Cn4nc(C)cc4C)n3)CC2)cc1

>  <Energy>  (55) 
103.48905303802974

>  <Genealogy>  (55) 
Cc1ccc(CN2CCN(c3cc(=O)n(C)c(Cn4nc(C)cc4C)n3)CC2)cc1 (3D coordinates assigned)
Cc1ccc(CN2CCN(c3cc(=O)n(C)c(Cn4nc(C)cc4C)n3)CC2)cc1 (nonaromatic ring conformer: 103.48905303802974 kcal/mol)

>  <smiles>  (55) 
Cc1ccc(CN2CCN(c3cc(=O)n(C)c(Cn4nc(C)cc4C)n3)CC2)cc1

>  <score_type>  (55) 
oracle

>  <origin>  (55) 
adg

>  <m_score__min__energy>  (55) 
-8.8000000000000007

>  <m_primary>  (55) 
energy

$$$$
56:0
     RDKit          3D

 33 35  0  0  0  0  0  0  0  0999 V2000
   59.7000   33.4190   50.3130 C   0  0  0  0  0  0  0  0  0  0  0  0
   59.7260   34.4510   49.3340 O   0  0  0  0  0  0  0  0  0  0  0  0
   59.3540   34.2400   48.0030 C   0  0  0  0  0  0  0  0  0  0  0  0
   58.3730   33.2930   47.7060 C   0  0  0  0  0  0  0  0  0  0  0  0
   58.0000   33.0830   46.3760 C   0  0  0  0  0  0  0  0  0  0  0  0
   58.6000   33.8350   45.3530 C   0  0  0  0  0  0  0  0  0  0  0  0
   58.2620   33.6450   43.9720 N   0  0  0  0  0  0  0  0  0  0  0  0
   58.2440   32.3950   43.2690 C   0  0  0  0  0  0  0  0  0  0  0  0
   58.3890   32.4060   42.0180 O   0  0  0  0  0  0  0  0  0  0  0  0
   58.0050   31.1060   43.9610 C   0  0  0  0  0  0  0  0  0  0  0  0
   59.0730   30.3580   44.4800 C   0  0  0  0  0  0  0  0  0  0  0  0
   58.8410   29.1450   45.1310 C   0  0  0  0  0  0  0  0  0  0  0  0
   57.5320   28.6530   45.2890 C   0  0  0  0  0  0  0  0  0  0  0  0
   57.2970   27.3650   45.9930 C   0  0  0  0  0  0  0  0  0  0  0  0
   58.2990   26.6550   46.6660 C   0  0  0  0  0  0  0  0  0  0  0  0
   57.5250   25.3090   47.2700 S   0  0  0  0  0  0  0  0  0  0  0  0
   56.0030   25.6270   46.6990 N   0  0  0  0  0  0  0  0  0  0  0  0
   56.0600   26.7750   46.0320 N   0  0  0  0  0  0  0  0  0  0  0  0
   56.4560   29.4150   44.7830 C   0  0  0  0  0  0  0  0  0  0  0  0
   55.1440   28.9700   44.9010 O   0  0  0  0  0  0  0  0  0  0  0  0
   56.6960   30.6300   44.1320 C   0  0  0  0  0  0  0  0  0  0  0  0
   59.5940   34.7590   45.6920 C   0  0  0  0  0  0  0  0  0  0  0  0
   59.9410   34.9450   46.9950 N   0  0  0  0  0  0  0  0  0  0  0  0
   59.7113   33.8664   51.3178 H   0  0  0  0  0  0  0  0  0  0  0  0
   58.7865   32.8189   50.1891 H   0  0  0  0  0  0  0  0  0  0  0  0
   60.5822   32.7737   50.1891 H   0  0  0  0  0  0  0  0  0  0  0  0
   57.8971   32.7163   48.5128 H   0  0  0  0  0  0  0  0  0  0  0  0
   57.2372   32.3294   46.1305 H   0  0  0  0  0  0  0  0  0  0  0  0
   60.1023   30.7309   44.3729 H   0  0  0  0  0  0  0  0  0  0  0  0
   59.6905   28.5676   45.5247 H   0  0  0  0  0  0  0  0  0  0  0  0
   59.3599   26.9255   46.7721 H   0  0  0  0  0  0  0  0  0  0  0  0
   55.8490   31.2188   43.7499 H   0  0  0  0  0  0  0  0  0  0  0  0
   60.0969   35.3373   44.9029 H   0  0  0  0  0  0  0  0  0  0  0  0
  1  2  1  0
  2  3  1  0
  3  4  2  0
  4  5  1  0
  5  6  2  0
  6  7  1  0
  7  8  1  0
  8  9  2  0
  8 10  1  0
 10 11  2  0
 11 12  1  0
 12 13  2  0
 13 14  1  0
 14 15  2  0
 15 16  1  0
 16 17  1  0
 17 18  2  0
 13 19  1  0
 19 20  1  0
 19 21  2  0
  6 22  1  0
 22 23  2  0
 23  3  1  0
 21 10  1  0
 18 14  1  0
  1 24  1  0
  1 25  1  0
  1 26  1  0
  4 27  1  0
  5 28  1  0
 11 29  1  0
 12 30  1  0
 15 31  1  0
 21 32  1  0
 22 33  1  0
M  CHG  2   7  -1  20  -1
M  END
>  <UniqueID>  (56) 
55

>  <SMILES>  (56) 
COc1ccc([N-]C(=O)c2ccc(-c3csnn3)c([O-])c2)cn1

>  <Energy>  (56) 
81.98313719011439

>  <Genealogy>  (56) 
COc1ccc([N-]C(=O)c2ccc(-c3csnn3)c([O-])c2)cn1 (protonated)
COc1ccc([N-]C(=O)c2ccc(-c3csnn3)c([O-])c2)cn1 (3D coordinates assigned)
COc1ccc([N-]C(=O)c2ccc(-c3csnn3)c([O-])c2)cn1 (optimized conformer: 81.98313719011439 kcal/mol)

>  <smiles>  (56) 
COc1ccc(NC(=O)c2ccc(-c3csnn3)c(O)c2)cn1

>  <score_type>  (56) 
oracle

>  <origin>  (56) 
adg

>  <m_score__min__energy>  (56) 
-12.460000000000001

>  <m_primary>  (56) 
energy

$$$$
57:0
     RDKit          3D

 49 51  0  0  0  0  0  0  0  0999 V2000
   58.6140   25.9680   47.8730 C   0  0  0  0  0  0  0  0  0  0  0  0
   58.3650   27.0450   46.8310 C   0  0  0  0  0  0  0  0  0  0  0  0
   57.1720   26.9950   46.0600 C   0  0  0  0  0  0  0  0  0  0  0  0
   56.0800   26.0180   46.3010 C   0  0  0  0  0  0  0  0  0  0  0  0
   56.3170   24.9010   46.8350 O   0  0  0  0  0  0  0  0  0  0  0  0
   54.7660   26.3510   45.9950 O   0  0  0  0  0  0  0  0  0  0  0  0
   56.9910   27.9240   45.0350 C   0  0  0  0  0  0  0  0  0  0  0  0
   57.9310   28.9220   44.8030 C   0  0  0  0  0  0  0  0  0  0  0  0
   57.6800   29.9410   43.7120 C   0  0  0  0  0  0  0  0  0  0  0  0
   56.9810   31.1770   44.2240 C   0  0  0  0  0  0  0  0  0  0  0  0
   55.9000   31.0770   44.8650 O   0  0  0  0  0  0  0  0  0  0  0  0
   57.5350   32.4830   44.0180 N   0  0  0  0  0  0  0  0  0  0  0  0
   57.3370   33.6340   44.8960 C   0  0  0  0  0  0  0  0  0  0  0  0
   58.4150   33.6960   45.9460 C   0  0  0  0  0  0  0  0  0  0  0  0
   59.7150   34.1130   45.6110 C   0  0  0  0  0  0  0  0  0  0  0  0
   60.7080   34.1830   46.5930 C   0  0  0  0  0  0  0  0  0  0  0  0
   60.4150   33.8250   47.9110 C   0  0  0  0  0  0  0  0  0  0  0  0
   59.1300   33.3900   48.2500 C   0  0  0  0  0  0  0  0  0  0  0  0
   58.1340   33.3210   47.2710 C   0  0  0  0  0  0  0  0  0  0  0  0
   59.0500   29.0130   45.6440 C   0  0  0  0  0  0  0  0  0  0  0  0
   59.8580   29.9700   45.4730 O   0  0  0  0  0  0  0  0  0  0  0  0
   59.2630   28.0860   46.6430 N   0  0  0  0  0  0  0  0  0  0  0  0
   60.4390   28.2510   47.5330 C   0  0  0  0  0  0  0  0  0  0  0  0
   60.1690   29.2710   48.6110 C   0  0  0  0  0  0  0  0  0  0  0  0
   58.8920   29.3670   49.1890 C   0  0  0  0  0  0  0  0  0  0  0  0
   58.6370   30.3170   50.1830 C   0  0  0  0  0  0  0  0  0  0  0  0
   59.6510   31.1860   50.5980 C   0  0  0  0  0  0  0  0  0  0  0  0
   59.4040   32.1050   51.5630 F   0  0  0  0  0  0  0  0  0  0  0  0
   60.9190   31.1070   50.0170 C   0  0  0  0  0  0  0  0  0  0  0  0
   61.1790   30.1570   49.0240 C   0  0  0  0  0  0  0  0  0  0  0  0
   58.5139   26.4011   48.8792 H   0  0  0  0  0  0  0  0  0  0  0  0
   57.8792   25.1592   47.7472 H   0  0  0  0  0  0  0  0  0  0  0  0
   59.6293   25.5638   47.7472 H   0  0  0  0  0  0  0  0  0  0  0  0
   56.0931   27.8662   44.4022 H   0  0  0  0  0  0  0  0  0  0  0  0
   58.6460   30.2369   43.2769 H   0  0  0  0  0  0  0  0  0  0  0  0
   57.0247   29.4731   42.9625 H   0  0  0  0  0  0  0  0  0  0  0  0
   57.3650   34.5551   44.2953 H   0  0  0  0  0  0  0  0  0  0  0  0
   56.3624   33.5331   45.3961 H   0  0  0  0  0  0  0  0  0  0  0  0
   59.9521   34.3854   44.5720 H   0  0  0  0  0  0  0  0  0  0  0  0
   61.7208   34.5203   46.3274 H   0  0  0  0  0  0  0  0  0  0  0  0
   61.1961   33.8853   48.6832 H   0  0  0  0  0  0  0  0  0  0  0  0
   58.9027   33.1020   49.2870 H   0  0  0  0  0  0  0  0  0  0  0  0
   57.1260   32.9716   47.5391 H   0  0  0  0  0  0  0  0  0  0  0  0
   60.6710   27.2843   48.0038 H   0  0  0  0  0  0  0  0  0  0  0  0
   61.2877   28.6012   46.9271 H   0  0  0  0  0  0  0  0  0  0  0  0
   58.0891   28.6918   48.8581 H   0  0  0  0  0  0  0  0  0  0  0  0
   57.6379   30.3808   50.6388 H   0  0  0  0  0  0  0  0  0  0  0  0
   61.7149   31.7936   50.3413 H   0  0  0  0  0  0  0  0  0  0  0  0
   62.1771   30.1030   48.5648 H   0  0  0  0  0  0  0  0  0  0  0  0
  1  2  1  0
  2  3  2  0
  3  4  1  0
  4  5  2  0
  4  6  1  0
  3  7  1  0
  7  8  2  0
  8  9  1  0
  9 10  1  0
 10 11  2  0
 10 12  1  0
 12 13  1  0
 13 14  1  0
 14 15  2  0
 15 16  1  0
 16 17  2  0
 17 18  1  0
 18 19  2  0
  8 20  1  0
 20 21  2  0
 20 22  1  0
 22 23  1  0
 23 24  1  0
 24 25  2  0
 25 26  1  0
 26 27  2  0
 27 28  1  0
 27 29  1  0
 29 30  2  0
 22  2  1  0
 30 24  1  0
 19 14  1  0
  1 31  1  0
  1 32  1  0
  1 33  1  0
  7 34  1  0
  9 35  1  0
  9 36  1  0
 13 37  1  0
 13 38  1  0
 15 39  1  0
 16 40  1  0
 17 41  1  0
 18 42  1  0
 19 43  1  0
 23 44  1  0
 23 45  1  0
 25 46  1  0
 26 47  1  0
 29 48  1  0
 30 49  1  0
M  CHG  2   6  -1  12  -1
M  END
>  <UniqueID>  (57) 
56

>  <SMILES>  (57) 
Cc1c(C(=O)[O-])cc(CC(=O)[N-]Cc2ccccc2)c(=O)n1Cc1ccc(F)cc1

>  <Energy>  (57) 
63.200464699703566

>  <Genealogy>  (57) 
Cc1c(C(=O)[O-])cc(CC(=O)[N-]Cc2ccccc2)c(=O)n1Cc1ccc(F)cc1 (protonated)
Cc1c(C(=O)[O-])cc(CC(=O)[N-]Cc2ccccc2)c(=O)n1Cc1ccc(F)cc1 (3D coordinates assigned)
Cc1c(C(=O)[O-])cc(CC(=O)[N-]Cc2ccccc2)c(=O)n1Cc1ccc(F)cc1 (optimized conformer: 63.200464699703566 kcal/mol)

>  <smiles>  (57) 
Cc1c(C(=O)O)cc(CC(=O)NCc2ccccc2)c(=O)n1Cc1ccc(F)cc1

>  <score_type>  (57) 
oracle

>  <origin>  (57) 
adg

>  <m_score__min__energy>  (57) 
-12.52

>  <m_primary>  (57) 
energy

$$$$
58:0
     RDKit          3D

 51 54  0  0  0  0  0  0  0  0999 V2000
   52.0140   29.6150   51.3980 O   0  0  0  0  0  0  0  0  0  0  0  0
   52.3730   30.3240   52.3760 C   0  0  0  0  0  0  0  0  0  0  0  0
   53.5870   30.0080   53.0750 N   0  0  0  0  0  0  0  0  0  0  0  0
   54.5960   29.1050   52.5300 C   0  0  0  0  0  0  0  0  0  0  0  0
   55.8900   29.8340   52.3530 C   0  0  0  0  0  0  0  0  0  0  0  0
   55.9800   31.2240   52.3100 C   0  0  0  0  0  0  0  0  0  0  0  0
   57.6030   31.6310   52.1320 S   0  0  0  0  0  0  0  0  0  0  0  0
   58.1150   30.0210   52.1110 C   0  0  0  0  0  0  0  0  0  0  0  0
   59.3440   29.5920   51.9940 N   0  0  0  0  0  0  0  0  0  0  0  0
   60.1460   29.5960   50.8010 C   0  0  0  0  0  0  0  0  0  0  0  0
   60.8390   28.5730   50.5540 O   0  0  0  0  0  0  0  0  0  0  0  0
   60.1710   30.7750   49.8400 C   0  0  0  0  0  0  0  0  0  0  0  0
   60.3860   32.1100   50.5720 C   0  0  0  0  0  0  0  0  0  0  0  0
   60.6650   33.2120   49.5430 C   0  0  0  0  0  0  0  0  0  0  0  0
   59.7690   33.1170   48.3820 N   0  0  0  0  0  0  0  0  0  0  0  0
   60.0020   33.9960   47.2650 C   0  0  0  0  0  0  0  0  0  0  0  0
   61.1820   34.2390   46.9000 O   0  0  0  0  0  0  0  0  0  0  0  0
   58.8570   34.6270   46.5210 C   0  0  0  0  0  0  0  0  0  0  0  0
   59.1460   34.8790   45.0500 C   0  0  0  0  0  0  0  0  0  0  0  0
   58.2210   33.7420   45.4620 C   0  0  0  0  0  0  0  0  0  0  0  0
   58.5690   32.2680   48.4350 C   0  0  0  0  0  0  0  0  0  0  0  0
   58.8790   30.8540   48.9810 C   0  0  0  0  0  0  0  0  0  0  0  0
   57.0770   29.1700   52.2570 N   0  0  0  0  0  0  0  0  0  0  0  0
   51.5050   31.4390   52.8190 C   0  0  0  0  0  0  0  0  0  0  0  0
   51.1730   31.5680   54.1760 C   0  0  0  0  0  0  0  0  0  0  0  0
   50.3910   32.6360   54.6150 C   0  0  0  0  0  0  0  0  0  0  0  0
   49.9370   33.5800   53.6900 C   0  0  0  0  0  0  0  0  0  0  0  0
   50.2500   33.4410   52.3770 N   0  0  0  0  0  0  0  0  0  0  0  0
   51.0100   32.4080   51.9180 C   0  0  0  0  0  0  0  0  0  0  0  0
   51.2470   32.3260   50.6820 O   0  0  0  0  0  0  0  0  0  0  0  0
   53.7650   30.4300   53.9980 H   0  0  0  0  0  0  0  0  0  0  0  0
   54.7436   28.2628   53.2221 H   0  0  0  0  0  0  0  0  0  0  0  0
   54.2559   28.7291   51.5538 H   0  0  0  0  0  0  0  0  0  0  0  0
   55.1393   31.9299   52.3800 H   0  0  0  0  0  0  0  0  0  0  0  0
   61.0260   30.6011   49.1702 H   0  0  0  0  0  0  0  0  0  0  0  0
   59.4830   32.3637   51.1466 H   0  0  0  0  0  0  0  0  0  0  0  0
   61.2412   32.0209   51.2581 H   0  0  0  0  0  0  0  0  0  0  0  0
   60.5223   34.1913   50.0232 H   0  0  0  0  0  0  0  0  0  0  0  0
   61.6987   33.0920   49.1867 H   0  0  0  0  0  0  0  0  0  0  0  0
   58.4748   35.2267   47.3602 H   0  0  0  0  0  0  0  0  0  0  0  0
   58.7349   35.7702   44.5533 H   0  0  0  0  0  0  0  0  0  0  0  0
   60.0568   34.9586   44.4383 H   0  0  0  0  0  0  0  0  0  0  0  0
   57.1414   33.8115   45.2629 H   0  0  0  0  0  0  0  0  0  0  0  0
   58.1863   32.6592   45.2712 H   0  0  0  0  0  0  0  0  0  0  0  0
   57.8254   32.7457   49.0898 H   0  0  0  0  0  0  0  0  0  0  0  0
   58.1866   32.1584   47.4095 H   0  0  0  0  0  0  0  0  0  0  0  0
   58.0309   30.5299   49.6020 H   0  0  0  0  0  0  0  0  0  0  0  0
   59.0386   30.2046   48.1076 H   0  0  0  0  0  0  0  0  0  0  0  0
   51.5322   30.8211   54.8992 H   0  0  0  0  0  0  0  0  0  0  0  0
   50.1338   32.7345   55.6800 H   0  0  0  0  0  0  0  0  0  0  0  0
   49.3281   34.4326   54.0251 H   0  0  0  0  0  0  0  0  0  0  0  0
  1  2  2  0
  2  3  1  0
  3  4  1  0
  4  5  1  0
  5  6  2  0
  6  7  1  0
  7  8  1  0
  8  9  2  3
  9 10  1  0
 10 11  2  0
 10 12  1  0
 12 13  1  0
 13 14  1  0
 14 15  1  0
 15 16  1  0
 16 17  2  0
 16 18  1  0
 18 19  1  0
 19 20  1  0
 15 21  1  0
 21 22  1  0
  8 23  1  0
  2 24  1  0
 24 25  2  0
 25 26  1  0
 26 27  2  0
 27 28  1  0
 28 29  1  0
 29 30  2  0
 23  5  1  0
 29 24  1  0
 22 12  1  0
 20 18  1  0
  3 31  1  0
  4 32  1  0
  4 33  1  0
  6 34  1  0
 12 35  1  0
 13 36  1  0
 13 37  1  0
 14 38  1  0
 14 39  1  0
 18 40  1  0
 19 41  1  0
 19 42  1  0
 20 43  1  0
 20 44  1  0
 21 45  1  0
 21 46  1  0
 22 47  1  0
 22 48  1  0
 25 49  1  0
 26 50  1  0
 27 51  1  0
M  CHG  2  23  -1  28  -1
M  END
>  <UniqueID>  (58) 
57

>  <SMILES>  (58) 
O=C(NCc1csc(=NC(=O)C2CCN(C(=O)C3CC3)CC2)[n-]1)c1ccc[n-]c1=O

>  <Energy>  (58) 
362.7558279612871

>  <Genealogy>  (58) 
O=C(NCc1csc(=NC(=O)C2CCN(C(=O)C3CC3)CC2)[n-]1)c1ccc[n-]c1=O (protonated)
O=C(NCc1csc(=NC(=O)C2CCN(C(=O)C3CC3)CC2)[n-]1)c1ccc[n-]c1=O (3D coordinates assigned)
O=C(NCc1csc(=NC(=O)C2CCN(C(=O)C3CC3)CC2)[n-]1)c1ccc[n-]c1=O (nonaromatic ring conformer: 362.7558279612871 kcal/mol)

>  <smiles>  (58) 
O=C(NCc1csc(=NC(=O)C2CCN(C(=O)C3CC3)CC2)[nH]1)c1ccc[nH]c1=O

>  <score_type>  (58) 
oracle

>  <origin>  (58) 
adg

>  <m_score__min__energy>  (58) 
-13.76

>  <m_primary>  (58) 
energy

$$$$
59:0
     RDKit          3D

 49 52  0  0  1  0  0  0  0  0999 V2000
   63.1620   33.8180   46.6310 N   0  0  0  0  0  0  0  0  0  0  0  0
   62.4780   32.9860   47.0360 C   0  0  0  0  0  0  0  0  0  0  0  0
   61.6430   31.9440   47.5550 C   0  0  0  0  0  0  0  0  0  0  0  0
   60.7360   31.2620   46.7640 C   0  0  0  0  0  0  0  0  0  0  0  0
   59.9360   30.2600   47.2720 C   0  0  0  0  0  0  0  0  0  0  0  0
   58.9690   29.5210   46.4720 C   0  0  0  0  0  0  0  0  0  0  0  0
   58.6080   29.9040   45.1980 C   0  0  0  0  0  0  0  0  0  0  0  0
   57.6820   29.1880   44.4400 C   0  0  0  0  0  0  0  0  0  0  0  0
   57.1240   28.0870   44.9720 N   0  0  0  0  0  0  0  0  0  0  0  0
   57.4870   27.7270   46.2160 C   0  0  0  0  0  0  0  0  0  0  0  0
   56.9810   26.6640   46.7920 N   0  0  0  0  0  0  0  0  0  0  0  0
   57.0160   25.4570   46.0770 C   0  0  0  0  0  0  0  0  0  0  0  0
   58.2250   24.7580   46.0580 C   0  0  0  0  0  0  0  0  0  0  0  0
   58.3510   23.5570   45.3770 C   0  0  0  0  0  0  0  0  0  0  0  0
   57.2630   23.0390   44.7040 C   0  0  0  0  0  0  0  0  0  0  0  0
   57.4160   21.5120   43.8360 S   0  0  0  0  0  0  0  0  0  0  0  0
   57.2870   20.2400   44.9650 N   0  0  0  0  0  0  0  0  0  0  0  0
   58.6590   21.4680   43.0230 O   0  0  0  0  0  0  0  0  0  0  0  0
   56.2550   21.4600   42.8680 O   0  0  0  0  0  0  0  0  0  0  0  0
   56.0580   23.7240   44.7160 C   0  0  0  0  0  0  0  0  0  0  0  0
   55.9410   24.9210   45.3980 C   0  0  0  0  0  0  0  0  0  0  0  0
   58.3790   28.4090   46.9560 N   0  0  0  0  0  0  0  0  0  0  0  0
   60.0690   29.9550   48.6100 C   0  0  0  0  0  0  0  0  0  0  0  0
   60.9610   30.6280   49.3770 N   0  0  0  0  0  0  0  0  0  0  0  0
   61.7390   31.6000   48.8880 C   0  0  0  0  0  0  0  0  0  0  0  0
   62.6360   32.2330   49.7940 N   0  0  0  0  0  0  0  0  0  0  0  0
   62.5260   33.5440   50.4010 C   0  0  0  0  0  0  0  0  0  0  0  0
   63.9240   33.8470   50.9040 C   0  0  0  0  0  0  0  0  0  0  0  0
   64.8100   32.7480   50.3470 C   0  0  2  0  0  0  0  0  0  0  0  0
   65.3580   33.0860   49.1270 F   0  0  0  0  0  0  0  0  0  0  0  0
   63.8640   31.5740   50.2430 C   0  0  0  0  0  0  0  0  0  0  0  0
   60.6504   31.5263   45.6997 H   0  0  0  0  0  0  0  0  0  0  0  0
   59.0660   30.8052   44.7644 H   0  0  0  0  0  0  0  0  0  0  0  0
   57.4133   29.5181   43.4257 H   0  0  0  0  0  0  0  0  0  0  0  0
   56.4190   27.5180   44.4310 H   0  0  0  0  0  0  0  0  0  0  0  0
   59.0938   25.1682   46.5936 H   0  0  0  0  0  0  0  0  0  0  0  0
   59.3114   23.0207   45.3731 H   0  0  0  0  0  0  0  0  0  0  0  0
   56.9410   19.3550   44.5440 H   0  0  0  0  0  0  0  0  0  0  0  0
   58.1600   20.0450   45.4850 H   0  0  0  0  0  0  0  0  0  0  0  0
   55.1899   23.3129   44.1799 H   0  0  0  0  0  0  0  0  0  0  0  0
   54.9782   25.4530   45.3993 H   0  0  0  0  0  0  0  0  0  0  0  0
   59.4494   29.1632   49.0562 H   0  0  0  0  0  0  0  0  0  0  0  0
   62.2094   34.2912   49.6584 H   0  0  0  0  0  0  0  0  0  0  0  0
   61.7765   33.5712   51.2057 H   0  0  0  0  0  0  0  0  0  0  0  0
   64.2577   34.8298   50.5397 H   0  0  0  0  0  0  0  0  0  0  0  0
   63.9611   33.8796   52.0029 H   0  0  0  0  0  0  0  0  0  0  0  0
   65.6861   32.5406   50.9790 H   0  0  0  0  0  0  0  0  0  0  0  0
   64.2171   30.8364   49.5073 H   0  0  0  0  0  0  0  0  0  0  0  0
   63.7526   31.0016   51.1757 H   0  0  0  0  0  0  0  0  0  0  0  0
  1  2  3  0
  2  3  1  0
  3  4  2  0
  4  5  1  0
  5  6  1  0
  6  7  1  0
  7  8  2  0
  8  9  1  0
  9 10  1  0
 10 11  2  0
 11 12  1  0
 12 13  2  0
 13 14  1  0
 14 15  2  0
 15 16  1  0
 16 17  1  0
 16 18  2  0
 16 19  2  0
 15 20  1  0
 20 21  2  0
 10 22  1  0
  5 23  2  0
 23 24  1  0
 24 25  2  0
 25 26  1  0
 26 27  1  0
 27 28  1  0
 28 29  1  0
 29 30  1  0
 29 31  1  0
 25  3  1  0
 31 26  1  0
 22  6  2  0
 21 12  1  0
  4 32  1  0
  7 33  1  0
  8 34  1  0
  9 35  1  0
 13 36  1  0
 14 37  1  0
 17 38  1  0
 17 39  1  0
 20 40  1  0
 21 41  1  0
 23 42  1  0
 27 43  1  0
 27 44  1  0
 28 45  1  0
 28 46  1  0
 29 47  1  1
 31 48  1  0
 31 49  1  0
M  END
>  <smiles>  (59) 
N#Cc1cc(-c2cc[nH]c(=Nc3ccc(S(N)(=O)=O)cc3)n2)cnc1N1CCC(F)C1

>  <score_type>  (59) 
oracle

>  <origin>  (59) 
adg

>  <m_score__min__energy>  (59) 
-8.7200000000000006

>  <m_primary>  (59) 
energy

$$$$
60:0
     RDKit          3D

 59 62  0  0  0  0  0  0  0  0999 V2000
   52.1370   22.4800   47.0960 N   0  0  0  0  0  0  0  0  0  0  0  0
   53.3240   22.7640   46.3520 C   0  0  0  0  0  0  0  0  0  0  0  0
   53.2270   22.9800   45.1140 O   0  0  0  0  0  0  0  0  0  0  0  0
   54.6610   22.7780   46.9970 C   0  0  0  0  0  0  0  0  0  0  0  0
   55.0370   21.7850   47.9190 C   0  0  0  0  0  0  0  0  0  0  0  0
   56.3080   21.8170   48.4890 C   0  0  0  0  0  0  0  0  0  0  0  0
   57.1700   22.8220   48.1910 N   0  0  0  0  0  0  0  0  0  0  0  0
   56.8440   23.8200   47.3270 C   0  0  0  0  0  0  0  0  0  0  0  0
   57.7310   24.7400   47.0790 N   0  0  0  0  0  0  0  0  0  0  0  0
   58.1100   25.2220   45.7820 C   0  0  0  0  0  0  0  0  0  0  0  0
   58.5530   24.4020   44.9330 O   0  0  0  0  0  0  0  0  0  0  0  0
   58.0100   26.6660   45.4400 C   0  0  0  0  0  0  0  0  0  0  0  0
   56.8860   27.4140   45.8330 C   0  0  0  0  0  0  0  0  0  0  0  0
   56.7780   28.7640   45.4860 C   0  0  0  0  0  0  0  0  0  0  0  0
   57.7860   29.3860   44.7430 C   0  0  0  0  0  0  0  0  0  0  0  0
   57.6270   31.0860   44.3300 S   0  0  0  0  0  0  0  0  0  0  0  0
   57.9470   31.3070   42.8770 O   0  0  0  0  0  0  0  0  0  0  0  0
   56.2040   31.5060   44.5750 O   0  0  0  0  0  0  0  0  0  0  0  0
   58.7230   31.9830   45.3510 N   0  0  0  0  0  0  0  0  0  0  0  0
   58.2560   32.0100   46.7430 C   0  0  0  0  0  0  0  0  0  0  0  0
   59.2980   32.7130   47.6420 C   0  0  0  0  0  0  0  0  0  0  0  0
   60.3700   33.3320   46.8270 N   0  0  0  0  0  0  0  0  0  0  0  0
   61.4240   34.0740   47.5770 C   0  0  0  0  0  0  0  0  0  0  0  0
   61.5790   33.6890   49.0740 C   0  0  0  0  0  0  0  0  0  0  0  0
   62.2920   32.3310   49.2530 C   0  0  0  0  0  0  0  0  0  0  0  0
   62.3990   31.6260   48.0360 O   0  0  0  0  0  0  0  0  0  0  0  0
   63.2330   32.3300   47.1310 C   0  0  0  0  0  0  0  0  0  0  0  0
   62.7880   33.8000   46.9110 C   0  0  0  0  0  0  0  0  0  0  0  0
   59.7530   34.1930   45.7950 C   0  0  0  0  0  0  0  0  0  0  0  0
   58.8860   33.3540   44.8380 C   0  0  0  0  0  0  0  0  0  0  0  0
   58.9150   28.6530   44.3620 C   0  0  0  0  0  0  0  0  0  0  0  0
   59.0240   27.3000   44.6990 C   0  0  0  0  0  0  0  0  0  0  0  0
   55.5690   23.8150   46.7190 C   0  0  0  0  0  0  0  0  0  0  0  0
   52.1740   22.0940   48.0650 H   0  0  0  0  0  0  0  0  0  0  0  0
   51.2050   22.5510   46.6290 H   0  0  0  0  0  0  0  0  0  0  0  0
   54.3306   20.9862   48.1891 H   0  0  0  0  0  0  0  0  0  0  0  0
   56.6148   21.0225   49.1851 H   0  0  0  0  0  0  0  0  0  0  0  0
   56.0869   26.9340   46.4170 H   0  0  0  0  0  0  0  0  0  0  0  0
   55.8949   29.3402   45.7993 H   0  0  0  0  0  0  0  0  0  0  0  0
   57.3028   32.5564   46.7959 H   0  0  0  0  0  0  0  0  0  0  0  0
   58.1169   30.9772   47.0950 H   0  0  0  0  0  0  0  0  0  0  0  0
   58.7962   33.4952   48.2305 H   0  0  0  0  0  0  0  0  0  0  0  0
   59.7514   31.9626   48.3064 H   0  0  0  0  0  0  0  0  0  0  0  0
   61.1076   35.1270   47.5440 H   0  0  0  0  0  0  0  0  0  0  0  0
   62.1667   34.4680   49.5817 H   0  0  0  0  0  0  0  0  0  0  0  0
   60.5719   33.6029   49.5080 H   0  0  0  0  0  0  0  0  0  0  0  0
   63.3022   32.5099   49.6498 H   0  0  0  0  0  0  0  0  0  0  0  0
   61.6940   31.7221   49.9470 H   0  0  0  0  0  0  0  0  0  0  0  0
   64.2588   32.3305   47.5282 H   0  0  0  0  0  0  0  0  0  0  0  0
   63.1679   31.8186   46.1593 H   0  0  0  0  0  0  0  0  0  0  0  0
   63.5418   34.4724   47.3466 H   0  0  0  0  0  0  0  0  0  0  0  0
   62.6901   33.9768   45.8297 H   0  0  0  0  0  0  0  0  0  0  0  0
   59.1225   34.9496   46.2849 H   0  0  0  0  0  0  0  0  0  0  0  0
   60.5511   34.6805   45.2159 H   0  0  0  0  0  0  0  0  0  0  0  0
   57.8960   33.8238   44.7418 H   0  0  0  0  0  0  0  0  0  0  0  0
   59.3833   33.3084   43.8579 H   0  0  0  0  0  0  0  0  0  0  0  0
   59.7204   29.1428   43.7950 H   0  0  0  0  0  0  0  0  0  0  0  0
   59.9085   26.7277   44.3825 H   0  0  0  0  0  0  0  0  0  0  0  0
   55.2863   24.6227   46.0278 H   0  0  0  0  0  0  0  0  0  0  0  0
  1  2  1  0
  2  3  2  0
  2  4  1  0
  4  5  1  0
  5  6  2  0
  6  7  1  0
  7  8  1  0
  8  9  2  3
  9 10  1  0
 10 11  2  0
 10 12  1  0
 12 13  2  0
 13 14  1  0
 14 15  2  0
 15 16  1  0
 16 17  2  0
 16 18  2  0
 16 19  1  0
 19 20  1  0
 20 21  1  0
 21 22  1  0
 22 23  1  0
 23 24  1  0
 24 25  1  0
 25 26  1  0
 26 27  1  0
 27 28  1  0
 22 29  1  0
 29 30  1  0
 15 31  1  0
 31 32  2  0
  8 33  1  0
 33  4  2  0
 32 12  1  0
 30 19  1  0
 28 23  1  0
  1 34  1  0
  1 35  1  0
  5 36  1  0
  6 37  1  0
 13 38  1  0
 14 39  1  0
 20 40  1  0
 20 41  1  0
 21 42  1  0
 21 43  1  0
 23 44  1  0
 24 45  1  0
 24 46  1  0
 25 47  1  0
 25 48  1  0
 27 49  1  0
 27 50  1  0
 28 51  1  0
 28 52  1  0
 29 53  1  0
 29 54  1  0
 30 55  1  0
 30 56  1  0
 31 57  1  0
 32 58  1  0
 33 59  1  0
M  CHG  1   7  -1
M  END
>  <UniqueID>  (60) 
58

>  <SMILES>  (60) 
NC(=O)c1cc[n-]c(=NC(=O)c2ccc(S(=O)(=O)N3CCN(C4CCOCC4)CC3)cc2)c1

>  <Energy>  (60) 
97.78348981458372

>  <Genealogy>  (60) 
NC(=O)c1cc[n-]c(=NC(=O)c2ccc(S(=O)(=O)N3CCN(C4CCOCC4)CC3)cc2)c1 (protonated)
NC(=O)c1cc[n-]c(=NC(=O)c2ccc(S(=O)(=O)N3CCN(C4CCOCC4)CC3)cc2)c1 (3D coordinates assigned)
NC(=O)c1cc[n-]c(=NC(=O)c2ccc(S(=O)(=O)N3CCN(C4CCOCC4)CC3)cc2)c1 (nonaromatic ring conformer: 97.78348981458372 kcal/mol)

>  <smiles>  (60) 
NC(=O)c1cc[nH]c(=NC(=O)c2ccc(S(=O)(=O)N3CCN(C4CCOCC4)CC3)cc2)c1

>  <score_type>  (60) 
oracle

>  <origin>  (60) 
adg

>  <m_score__min__energy>  (60) 
-11.390000000000001

>  <m_primary>  (60) 
energy

$$$$
61:0
     RDKit          3D

 42 44  0  0  0  0  0  0  0  0999 V2000
   54.3870   29.4870   51.5000 O   0  0  0  0  0  0  0  0  0  0  0  0
   54.3950   30.6170   52.0590 C   0  0  0  0  0  0  0  0  0  0  0  0
   53.1010   31.2800   52.4060 C   0  0  0  0  0  0  0  0  0  0  0  0
   52.2070   31.3070   51.2060 C   0  0  0  0  0  0  0  0  0  0  0  0
   52.2270   30.3820   50.2300 N   0  0  0  0  0  0  0  0  0  0  0  0
   51.3170   30.8480   49.3460 C   0  0  0  0  0  0  0  0  0  0  0  0
   51.0400   30.2440   48.2770 O   0  0  0  0  0  0  0  0  0  0  0  0
   50.7320   32.0150   49.6930 N   0  0  0  0  0  0  0  0  0  0  0  0
   51.3120   32.2940   50.8710 C   0  0  0  0  0  0  0  0  0  0  0  0
   51.0350   33.4300   51.6210 O   0  0  0  0  0  0  0  0  0  0  0  0
   55.6290   31.2750   52.3690 N   0  0  0  0  0  0  0  0  0  0  0  0
   56.8750   31.1160   51.6720 C   0  0  0  0  0  0  0  0  0  0  0  0
   57.4910   32.1910   51.0060 C   0  0  0  0  0  0  0  0  0  0  0  0
   58.7170   32.0100   50.3500 C   0  0  0  0  0  0  0  0  0  0  0  0
   59.4780   33.3440   49.4860 S   0  0  0  0  0  0  0  0  0  0  0  0
   60.9040   32.9690   49.1870 O   0  0  0  0  0  0  0  0  0  0  0  0
   59.4760   34.5770   50.3450 O   0  0  0  0  0  0  0  0  0  0  0  0
   58.6030   33.6320   47.9970 N   0  0  0  0  0  0  0  0  0  0  0  0
   58.7290   32.4990   47.0590 C   0  0  0  0  0  0  0  0  0  0  0  0
   60.1120   32.4320   46.3820 C   0  0  0  0  0  0  0  0  0  0  0  0
   60.6670   33.8160   45.9990 C   0  0  0  0  0  0  0  0  0  0  0  0
   59.5830   34.8920   46.0240 C   0  0  0  0  0  0  0  0  0  0  0  0
   58.9220   34.9600   47.4120 C   0  0  0  0  0  0  0  0  0  0  0  0
   59.3340   30.7540   50.3680 C   0  0  0  0  0  0  0  0  0  0  0  0
   58.7410   29.6900   51.0530 C   0  0  0  0  0  0  0  0  0  0  0  0
   57.5200   29.8710   51.7100 C   0  0  0  0  0  0  0  0  0  0  0  0
   56.9450   28.8050   52.3930 O   0  0  0  0  0  0  0  0  0  0  0  0
   52.6093   30.7200   53.2151 H   0  0  0  0  0  0  0  0  0  0  0  0
   53.2981   32.3109   52.7351 H   0  0  0  0  0  0  0  0  0  0  0  0
   57.0082   33.1793   50.9998 H   0  0  0  0  0  0  0  0  0  0  0  0
   58.5642   31.5637   47.6141 H   0  0  0  0  0  0  0  0  0  0  0  0
   57.9799   32.6418   46.2662 H   0  0  0  0  0  0  0  0  0  0  0  0
   60.8180   31.9519   47.0756 H   0  0  0  0  0  0  0  0  0  0  0  0
   59.9930   31.8583   45.4510 H   0  0  0  0  0  0  0  0  0  0  0  0
   61.4580   34.0916   46.7120 H   0  0  0  0  0  0  0  0  0  0  0  0
   61.0610   33.7532   44.9739 H   0  0  0  0  0  0  0  0  0  0  0  0
   60.0355   35.8670   45.7905 H   0  0  0  0  0  0  0  0  0  0  0  0
   58.8157   34.6410   45.2768 H   0  0  0  0  0  0  0  0  0  0  0  0
   59.6068   35.4833   48.0956 H   0  0  0  0  0  0  0  0  0  0  0  0
   57.9657   35.4880   47.2827 H   0  0  0  0  0  0  0  0  0  0  0  0
   60.2882   30.6039   49.8416 H   0  0  0  0  0  0  0  0  0  0  0  0
   59.2359   28.7079   51.0754 H   0  0  0  0  0  0  0  0  0  0  0  0
  1  2  2  0
  2  3  1  0
  3  4  1  0
  4  5  1  0
  5  6  1  0
  6  7  2  0
  6  8  1  0
  8  9  1  0
  9 10  1  0
  2 11  1  0
 11 12  1  0
 12 13  2  0
 13 14  1  0
 14 15  1  0
 15 16  2  0
 15 17  2  0
 15 18  1  0
 18 19  1  0
 19 20  1  0
 20 21  1  0
 21 22  1  0
 22 23  1  0
 14 24  2  0
 24 25  1  0
 25 26  2  0
 26 27  1  0
  9  4  2  0
 26 12  1  0
 23 18  1  0
  3 28  1  0
  3 29  1  0
 13 30  1  0
 19 31  1  0
 19 32  1  0
 20 33  1  0
 20 34  1  0
 21 35  1  0
 21 36  1  0
 22 37  1  0
 22 38  1  0
 23 39  1  0
 23 40  1  0
 24 41  1  0
 25 42  1  0
M  CHG  5   5  -1   8  -1  10  -1  11  -1  27  -1
M  END
>  <UniqueID>  (61) 
59

>  <SMILES>  (61) 
O=C(Cc1[n-]c(=O)[n-]c1[O-])[N-]c1cc(S(=O)(=O)N2CCCCC2)ccc1[O-]

>  <Energy>  (61) 
80.73812267061732

>  <Genealogy>  (61) 
O=C(Cc1[n-]c(=O)[n-]c1[O-])[N-]c1cc(S(=O)(=O)N2CCCCC2)ccc1[O-] (protonated)
O=C(Cc1[n-]c(=O)[n-]c1[O-])[N-]c1cc(S(=O)(=O)N2CCCCC2)ccc1[O-] (3D coordinates assigned)
O=C(Cc1[n-]c(=O)[n-]c1[O-])[N-]c1cc(S(=O)(=O)N2CCCCC2)ccc1[O-] (nonaromatic ring conformer: 80.73812267061732 kcal/mol)

>  <smiles>  (61) 
O=C(Cc1[nH]c(=O)[nH]c1O)Nc1cc(S(=O)(=O)N2CCCCC2)ccc1O

>  <score_type>  (61) 
oracle

>  <origin>  (61) 
adg

>  <m_score__min__energy>  (61) 
-19.359999999999999

>  <m_primary>  (61) 
energy

$$$$
62:0
     RDKit          3D

 54 57  0  0  0  0  0  0  0  0999 V2000
   58.7970   28.2570   48.7070 O   0  0  0  0  0  0  0  0  0  0  0  0
   59.9940   28.2320   48.3260 C   0  0  0  0  0  0  0  0  0  0  0  0
   60.4220   27.0690   47.5940 N   0  0  0  0  0  0  0  0  0  0  0  0
   59.9050   26.4700   46.3680 C   0  0  0  0  0  0  0  0  0  0  0  0
   58.6660   27.1550   45.8470 C   0  0  0  0  0  0  0  0  0  0  0  0
   58.7310   28.4290   45.2520 C   0  0  0  0  0  0  0  0  0  0  0  0
   57.5550   29.1000   44.8930 C   0  0  0  0  0  0  0  0  0  0  0  0
   56.3080   28.5220   45.1550 C   0  0  0  0  0  0  0  0  0  0  0  0
   55.1440   29.2180   44.8470 O   0  0  0  0  0  0  0  0  0  0  0  0
   56.2340   27.2530   45.7450 C   0  0  0  0  0  0  0  0  0  0  0  0
   54.9980   26.6730   46.0110 O   0  0  0  0  0  0  0  0  0  0  0  0
   57.4080   26.5730   46.0890 C   0  0  0  0  0  0  0  0  0  0  0  0
   60.8480   29.4170   48.6290 C   0  0  0  0  0  0  0  0  0  0  0  0
   61.2620   29.7420   49.9340 C   0  0  0  0  0  0  0  0  0  0  0  0
   62.0350   30.8820   50.1720 C   0  0  0  0  0  0  0  0  0  0  0  0
   62.3500   31.7540   49.1220 C   0  0  0  0  0  0  0  0  0  0  0  0
   63.0870   32.9500   49.3760 N   0  0  0  0  0  0  0  0  0  0  0  0
   62.7550   33.8420   50.4430 C   0  0  0  0  0  0  0  0  0  0  0  0
   63.6010   34.6940   50.8250 O   0  0  0  0  0  0  0  0  0  0  0  0
   61.4840   33.6920   51.1800 C   0  0  0  0  0  0  0  0  0  0  0  0
   61.5730   33.4180   52.5550 C   0  0  0  0  0  0  0  0  0  0  0  0
   60.4270   33.3370   53.3410 C   0  0  0  0  0  0  0  0  0  0  0  0
   59.1750   33.5240   52.7650 C   0  0  0  0  0  0  0  0  0  0  0  0
   59.0610   33.7620   51.3940 C   0  0  0  0  0  0  0  0  0  0  0  0
   60.2050   33.8400   50.5720 C   0  0  0  0  0  0  0  0  0  0  0  0
   60.0160   34.0090   49.1010 C   0  0  0  0  0  0  0  0  0  0  0  0
   60.8380   34.6690   48.4120 O   0  0  0  0  0  0  0  0  0  0  0  0
   58.8640   33.4450   48.4630 N   0  0  0  0  0  0  0  0  0  0  0  0
   58.6140   33.4150   47.0510 C   0  0  0  0  0  0  0  0  0  0  0  0
   58.0540   32.2870   46.4200 C   0  0  0  0  0  0  0  0  0  0  0  0
   57.7860   32.3110   45.0480 C   0  0  0  0  0  0  0  0  0  0  0  0
   58.0620   33.4600   44.3000 C   0  0  0  0  0  0  0  0  0  0  0  0
   58.5970   34.5890   44.9250 C   0  0  0  0  0  0  0  0  0  0  0  0
   58.8630   34.5680   46.2960 C   0  0  0  0  0  0  0  0  0  0  0  0
   61.9000   31.4720   47.8320 C   0  0  0  0  0  0  0  0  0  0  0  0
   61.1740   30.3050   47.5820 C   0  0  0  0  0  0  0  0  0  0  0  0
   60.6861   26.5259   45.5955 H   0  0  0  0  0  0  0  0  0  0  0  0
   59.6292   25.4315   46.6033 H   0  0  0  0  0  0  0  0  0  0  0  0
   59.7084   28.8991   45.0684 H   0  0  0  0  0  0  0  0  0  0  0  0
   57.6120   30.0837   44.4040 H   0  0  0  0  0  0  0  0  0  0  0  0
   57.3468   25.5769   46.5517 H   0  0  0  0  0  0  0  0  0  0  0  0
   60.9747   29.0931   50.7744 H   0  0  0  0  0  0  0  0  0  0  0  0
   62.3976   31.0953   51.1884 H   0  0  0  0  0  0  0  0  0  0  0  0
   62.5601   33.2656   53.0160 H   0  0  0  0  0  0  0  0  0  0  0  0
   60.5116   33.1252   54.4171 H   0  0  0  0  0  0  0  0  0  0  0  0
   58.2718   33.4843   53.3916 H   0  0  0  0  0  0  0  0  0  0  0  0
   58.0638   33.8907   50.9478 H   0  0  0  0  0  0  0  0  0  0  0  0
   57.8271   31.3854   47.0079 H   0  0  0  0  0  0  0  0  0  0  0  0
   57.3576   31.4252   44.5563 H   0  0  0  0  0  0  0  0  0  0  0  0
   57.8578   33.4747   43.2192 H   0  0  0  0  0  0  0  0  0  0  0  0
   58.8088   35.4945   44.3374 H   0  0  0  0  0  0  0  0  0  0  0  0
   59.2712   35.4640   46.7865 H   0  0  0  0  0  0  0  0  0  0  0  0
   62.1173   32.1700   47.0100 H   0  0  0  0  0  0  0  0  0  0  0  0
   60.8522   30.0753   46.5555 H   0  0  0  0  0  0  0  0  0  0  0  0
  1  2  2  0
  2  3  1  0
  3  4  1  0
  4  5  1  0
  5  6  2  0
  6  7  1  0
  7  8  2  0
  8  9  1  0
  8 10  1  0
 10 11  1  0
 10 12  2  0
  2 13  1  0
 13 14  2  0
 14 15  1  0
 15 16  2  0
 16 17  1  0
 17 18  1  0
 18 19  2  0
 18 20  1  0
 20 21  2  0
 21 22  1  0
 22 23  2  0
 23 24  1  0
 24 25  2  0
 25 26  1  0
 26 27  2  0
 26 28  1  0
 28 29  1  0
 29 30  2  0
 30 31  1  0
 31 32  2  0
 32 33  1  0
 33 34  2  0
 16 35  1  0
 35 36  2  0
 12  5  1  0
 36 13  1  0
 25 20  1  0
 34 29  1  0
  4 37  1  0
  4 38  1  0
  6 39  1  0
  7 40  1  0
 12 41  1  0
 14 42  1  0
 15 43  1  0
 21 44  1  0
 22 45  1  0
 23 46  1  0
 24 47  1  0
 30 48  1  0
 31 49  1  0
 32 50  1  0
 33 51  1  0
 34 52  1  0
 35 53  1  0
 36 54  1  0
M  CHG  5   3  -1   9  -1  11  -1  17  -1  28  -1
M  END
>  <UniqueID>  (62) 
60

>  <SMILES>  (62) 
O=C([N-]Cc1ccc([O-])c([O-])c1)c1ccc([N-]C(=O)c2ccccc2C(=O)[N-]c2ccccc2)cc1

>  <Energy>  (62) 
83.07598501927009

>  <Genealogy>  (62) 
O=C([N-]Cc1ccc([O-])c([O-])c1)c1ccc([N-]C(=O)c2ccccc2C(=O)[N-]c2ccccc2)cc1 (protonated)
O=C([N-]Cc1ccc([O-])c([O-])c1)c1ccc([N-]C(=O)c2ccccc2C(=O)[N-]c2ccccc2)cc1 (3D coordinates assigned)
O=C([N-]Cc1ccc([O-])c([O-])c1)c1ccc([N-]C(=O)c2ccccc2C(=O)[N-]c2ccccc2)cc1 (optimized conformer: 83.07598501927009 kcal/mol)

>  <smiles>  (62) 
O=C(NCc1ccc(O)c(O)c1)c1ccc(NC(=O)c2ccccc2C(=O)Nc2ccccc2)cc1

>  <score_type>  (62) 
oracle

>  <origin>  (62) 
adg

>  <m_score__min__energy>  (62) 
-21.879999999999999

>  <m_primary>  (62) 
energy

$$$$
63:0
     RDKit          3D

 58 62  0  0  0  0  0  0  0  0999 V2000
   57.7790   26.9550   47.1460 O   0  0  0  0  0  0  0  0  0  0  0  0
   57.8990   27.0790   45.8960 C   0  0  0  0  0  0  0  0  0  0  0  0
   57.1960   26.1920   45.0130 N   0  0  0  0  0  0  0  0  0  0  0  0
   56.4690   25.0440   45.4760 C   0  0  0  0  0  0  0  0  0  0  0  0
   57.1490   23.8320   45.6600 C   0  0  0  0  0  0  0  0  0  0  0  0
   56.4670   22.6910   46.1040 C   0  0  0  0  0  0  0  0  0  0  0  0
   57.3270   21.1610   46.2950 S   0  0  0  0  0  0  0  0  0  0  0  0
   58.6520   21.2460   45.5910 O   0  0  0  0  0  0  0  0  0  0  0  0
   56.5260   20.0640   45.6490 O   0  0  0  0  0  0  0  0  0  0  0  0
   57.5890   20.7690   47.9760 N   0  0  0  0  0  0  0  0  0  0  0  0
   56.6050   21.4580   48.8280 C   0  0  0  0  0  0  0  0  0  0  0  0
   56.6770   20.9360   50.2770 C   0  0  0  0  0  0  0  0  0  0  0  0
   57.8360   20.1490   50.4780 O   0  0  0  0  0  0  0  0  0  0  0  0
   57.7720   18.9850   49.6710 C   0  0  0  0  0  0  0  0  0  0  0  0
   57.5120   19.3160   48.1850 C   0  0  0  0  0  0  0  0  0  0  0  0
   55.0970   22.7720   46.3890 C   0  0  0  0  0  0  0  0  0  0  0  0
   54.4180   23.9830   46.2360 C   0  0  0  0  0  0  0  0  0  0  0  0
   55.0980   25.1210   45.7910 C   0  0  0  0  0  0  0  0  0  0  0  0
   54.4130   26.3270   45.6920 O   0  0  0  0  0  0  0  0  0  0  0  0
   58.7580   28.1450   45.3480 C   0  0  0  0  0  0  0  0  0  0  0  0
   59.5960   27.8650   44.4480 O   0  0  0  0  0  0  0  0  0  0  0  0
   58.6820   29.5300   45.8510 C   0  0  0  0  0  0  0  0  0  0  0  0
   59.1130   30.0080   47.0960 C   0  0  0  0  0  0  0  0  0  0  0  0
   59.6120   29.1990   48.2300 C   0  0  0  0  0  0  0  0  0  0  0  0
   60.3190   28.0040   48.0090 C   0  0  0  0  0  0  0  0  0  0  0  0
   60.7740   27.2420   49.0890 C   0  0  0  0  0  0  0  0  0  0  0  0
   60.5200   27.6610   50.3980 C   0  0  0  0  0  0  0  0  0  0  0  0
   59.8060   28.8390   50.6290 C   0  0  0  0  0  0  0  0  0  0  0  0
   59.3480   29.6040   49.5510 C   0  0  0  0  0  0  0  0  0  0  0  0
   58.9910   31.3570   47.1510 N   0  0  0  0  0  0  0  0  0  0  0  0
   58.4950   31.7360   45.9600 C   0  0  0  0  0  0  0  0  0  0  0  0
   58.2300   33.0380   45.5380 C   0  0  0  0  0  0  0  0  0  0  0  0
   57.7600   33.2220   44.2260 C   0  0  0  0  0  0  0  0  0  0  0  0
   57.5800   32.1130   43.3690 C   0  0  0  0  0  0  0  0  0  0  0  0
   57.8600   30.8110   43.8210 C   0  0  0  0  0  0  0  0  0  0  0  0
   58.3000   30.6550   45.1390 C   0  0  0  0  0  0  0  0  0  0  0  0
   57.0630   26.4860   44.0190 H   0  0  0  0  0  0  0  0  0  0  0  0
   58.2281   23.7760   45.4539 H   0  0  0  0  0  0  0  0  0  0  0  0
   56.8159   22.5376   48.8224 H   0  0  0  0  0  0  0  0  0  0  0  0
   55.5973   21.2635   48.4321 H   0  0  0  0  0  0  0  0  0  0  0  0
   56.7003   21.7926   50.9667 H   0  0  0  0  0  0  0  0  0  0  0  0
   55.7925   20.3104   50.4674 H   0  0  0  0  0  0  0  0  0  0  0  0
   58.7274   18.4457   49.7515 H   0  0  0  0  0  0  0  0  0  0  0  0
   56.9330   18.3714   50.0310 H   0  0  0  0  0  0  0  0  0  0  0  0
   58.2691   18.8171   47.5622 H   0  0  0  0  0  0  0  0  0  0  0  0
   56.5088   18.9622   47.9049 H   0  0  0  0  0  0  0  0  0  0  0  0
   54.5550   21.8792   46.7342 H   0  0  0  0  0  0  0  0  0  0  0  0
   53.3440   24.0418   46.4665 H   0  0  0  0  0  0  0  0  0  0  0  0
   60.5152   27.6668   46.9805 H   0  0  0  0  0  0  0  0  0  0  0  0
   61.3325   26.3117   48.9085 H   0  0  0  0  0  0  0  0  0  0  0  0
   60.8826   27.0626   51.2468 H   0  0  0  0  0  0  0  0  0  0  0  0
   59.6036   29.1656   51.6597 H   0  0  0  0  0  0  0  0  0  0  0  0
   58.7787   30.5266   49.7372 H   0  0  0  0  0  0  0  0  0  0  0  0
   59.2260   31.9810   47.9540 H   0  0  0  0  0  0  0  0  0  0  0  0
   58.3839   33.8946   46.2107 H   0  0  0  0  0  0  0  0  0  0  0  0
   57.5310   34.2353   43.8643 H   0  0  0  0  0  0  0  0  0  0  0  0
   57.2186   32.2690   42.3418 H   0  0  0  0  0  0  0  0  0  0  0  0
   57.7366   29.9420   43.1580 H   0  0  0  0  0  0  0  0  0  0  0  0
  1  2  2  0
  2  3  1  0
  3  4  1  0
  4  5  2  0
  5  6  1  0
  6  7  1  0
  7  8  2  0
  7  9  2  0
  7 10  1  0
 10 11  1  0
 11 12  1  0
 12 13  1  0
 13 14  1  0
 14 15  1  0
  6 16  2  0
 16 17  1  0
 17 18  2  0
 18 19  1  0
  2 20  1  0
 20 21  2  0
 20 22  1  0
 22 23  2  0
 23 24  1  0
 24 25  2  0
 25 26  1  0
 26 27  2  0
 27 28  1  0
 28 29  2  0
 23 30  1  0
 30 31  1  0
 31 32  2  0
 32 33  1  0
 33 34  2  0
 34 35  1  0
 35 36  2  0
 18  4  1  0
 36 22  1  0
 15 10  1  0
 29 24  1  0
 36 31  1  0
  3 37  1  0
  5 38  1  0
 11 39  1  0
 11 40  1  0
 12 41  1  0
 12 42  1  0
 14 43  1  0
 14 44  1  0
 15 45  1  0
 15 46  1  0
 16 47  1  0
 17 48  1  0
 25 49  1  0
 26 50  1  0
 27 51  1  0
 28 52  1  0
 29 53  1  0
 30 54  1  0
 32 55  1  0
 33 56  1  0
 34 57  1  0
 35 58  1  0
M  CHG  1  19  -1
M  END
>  <UniqueID>  (63) 
61

>  <SMILES>  (63) 
O=C(Nc1cc(S(=O)(=O)N2CCOCC2)ccc1[O-])C(=O)c1c(-c2ccccc2)[nH]c2ccccc12

>  <Energy>  (63) 
117.0306730072582

>  <Genealogy>  (63) 
O=C(Nc1cc(S(=O)(=O)N2CCOCC2)ccc1[O-])C(=O)c1c(-c2ccccc2)[nH]c2ccccc12 (protonated)
O=C(Nc1cc(S(=O)(=O)N2CCOCC2)ccc1[O-])C(=O)c1c(-c2ccccc2)[nH]c2ccccc12 (3D coordinates assigned)
O=C(Nc1cc(S(=O)(=O)N2CCOCC2)ccc1[O-])C(=O)c1c(-c2ccccc2)[nH]c2ccccc12 (nonaromatic ring conformer: 117.0306730072582 kcal/mol)

>  <smiles>  (63) 
O=C(Nc1cc(S(=O)(=O)N2CCOCC2)ccc1O)C(=O)c1c(-c2ccccc2)[nH]c2ccccc12

>  <score_type>  (63) 
oracle

>  <origin>  (63) 
adg

>  <m_score__min__energy>  (63) 
-11.869999999999999

>  <m_primary>  (63) 
energy

$$$$
64:0
     RDKit          3D

 40 42  0  0  0  0  0  0  0  0999 V2000
   59.2730   35.7240   46.7470 N   0  0  0  0  0  0  0  0  0  0  0  0
   59.2600   34.5680   46.7130 C   0  0  0  0  0  0  0  0  0  0  0  0
   59.2440   33.1310   46.6720 C   0  0  0  0  0  0  0  0  0  0  0  0
   58.7470   32.3570   45.6510 C   0  0  0  0  0  0  0  0  0  0  0  0
   58.9420   31.0570   45.9720 N   0  0  0  0  0  0  0  0  0  0  0  0
   58.6890   29.8870   45.1100 C   0  0  0  0  0  0  0  0  0  0  0  0
   58.0660   28.7070   45.9040 C   0  0  0  0  0  0  0  0  0  0  0  0
   56.7550   28.2100   45.2800 C   0  0  0  0  0  0  0  0  0  0  0  0
   55.8170   29.3180   45.0640 N   0  0  0  0  0  0  0  0  0  0  0  0
   56.3460   30.4010   44.2060 C   0  0  0  0  0  0  0  0  0  0  0  0
   57.8480   30.2910   43.8850 C   0  0  0  0  0  0  0  0  0  0  0  0
   59.5650   31.0770   47.1790 C   0  0  0  0  0  0  0  0  0  0  0  0
   60.0720   29.8540   47.9010 C   0  0  0  0  0  0  0  0  0  0  0  0
   61.2480   30.1420   48.6570 O   0  0  0  0  0  0  0  0  0  0  0  0
   62.0970   31.2410   48.4440 C   0  0  0  0  0  0  0  0  0  0  0  0
   62.7520   31.4680   47.2180 C   0  0  0  0  0  0  0  0  0  0  0  0
   63.5930   32.5760   47.0630 C   0  0  0  0  0  0  0  0  0  0  0  0
   63.7850   33.4630   48.1250 C   0  0  0  0  0  0  0  0  0  0  0  0
   63.1390   33.2440   49.3450 C   0  0  0  0  0  0  0  0  0  0  0  0
   63.3270   34.1050   50.3750 F   0  0  0  0  0  0  0  0  0  0  0  0
   62.2980   32.1370   49.5020 C   0  0  0  0  0  0  0  0  0  0  0  0
   59.7640   32.3380   47.6220 N   0  0  0  0  0  0  0  0  0  0  0  0
   58.2725   32.7299   44.7314 H   0  0  0  0  0  0  0  0  0  0  0  0
   59.6557   29.5187   44.7360 H   0  0  0  0  0  0  0  0  0  0  0  0
   58.7856   27.8753   45.9235 H   0  0  0  0  0  0  0  0  0  0  0  0
   57.8394   29.0675   46.9182 H   0  0  0  0  0  0  0  0  0  0  0  0
   56.9757   27.7330   44.3137 H   0  0  0  0  0  0  0  0  0  0  0  0
   56.2912   27.4903   45.9706 H   0  0  0  0  0  0  0  0  0  0  0  0
   55.5560   29.7160   45.9980 H   0  0  0  0  0  0  0  0  0  0  0  0
   55.7907   30.3883   43.2565 H   0  0  0  0  0  0  0  0  0  0  0  0
   56.2162   31.3363   44.7703 H   0  0  0  0  0  0  0  0  0  0  0  0
   57.9854   29.5342   43.0986 H   0  0  0  0  0  0  0  0  0  0  0  0
   58.1917   31.2836   43.5585 H   0  0  0  0  0  0  0  0  0  0  0  0
   59.2888   29.4913   48.5829 H   0  0  0  0  0  0  0  0  0  0  0  0
   60.3230   29.0899   47.1506 H   0  0  0  0  0  0  0  0  0  0  0  0
   62.6021   30.7721   46.3794 H   0  0  0  0  0  0  0  0  0  0  0  0
   64.1033   32.7485   46.1039 H   0  0  0  0  0  0  0  0  0  0  0  0
   64.4449   34.3343   48.0011 H   0  0  0  0  0  0  0  0  0  0  0  0
   61.7907   31.9689   50.4635 H   0  0  0  0  0  0  0  0  0  0  0  0
   60.2440   32.6420   48.4990 H   0  0  0  0  0  0  0  0  0  0  0  0
  1  2  3  0
  2  3  1  0
  3  4  2  0
  4  5  1  0
  5  6  1  0
  6  7  1  0
  7  8  1  0
  8  9  1  0
  9 10  1  0
 10 11  1  0
  5 12  1  0
 12 13  1  0
 13 14  1  0
 14 15  1  0
 15 16  2  0
 16 17  1  0
 17 18  2  0
 18 19  1  0
 19 20  1  0
 19 21  2  0
 12 22  2  0
 22  3  1  0
 11  6  1  0
 21 15  1  0
  4 23  1  0
  6 24  1  0
  7 25  1  0
  7 26  1  0
  8 27  1  0
  8 28  1  0
  9 29  1  0
 10 30  1  0
 10 31  1  0
 11 32  1  0
 11 33  1  0
 13 34  1  0
 13 35  1  0
 16 36  1  0
 17 37  1  0
 18 38  1  0
 21 39  1  0
 22 40  1  0
M  CHG  1  22   1
M  END
>  <UniqueID>  (64) 
62

>  <SMILES>  (64) 
N#Cc1cn(C2CCNCC2)c(COc2cccc(F)c2)[nH+]1

>  <Energy>  (64) 
78.46659008518002

>  <Genealogy>  (64) 
N#Cc1cn(C2CCNCC2)c(COc2cccc(F)c2)[nH+]1 (protonated)
N#Cc1cn(C2CCNCC2)c(COc2cccc(F)c2)[nH+]1 (3D coordinates assigned)
N#Cc1cn(C2CCNCC2)c(COc2cccc(F)c2)[nH+]1 (nonaromatic ring conformer: 78.46659008518002 kcal/mol)

>  <smiles>  (64) 
N#Cc1cn(C2CCNCC2)c(COc2cccc(F)c2)n1

>  <score_type>  (64) 
oracle

>  <origin>  (64) 
adg

>  <m_score__min__energy>  (64) 
-5.2199999999999998

>  <m_primary>  (64) 
energy

$$$$
65:0
     RDKit          3D

 26 28  0  0  0  0  0  0  0  0999 V2000
   55.1470   28.0300   44.8980 H   0  0  0  0  0  0  0  0  0  0  0  0
   55.2000   28.9840   44.5590 O   0  0  0  0  0  0  0  0  0  0  0  0
   56.2790   29.7950   44.8920 C   0  0  0  0  0  0  0  0  0  0  0  0
   56.3860   31.0870   44.4980 N   0  0  0  0  0  0  0  0  0  0  0  0
   57.5410   31.5040   45.0520 C   0  0  0  0  0  0  0  0  0  0  0  0
   58.0870   32.7830   44.9700 C   0  0  0  0  0  0  0  0  0  0  0  0
   57.5944   33.5722   44.3830 H   0  0  0  0  0  0  0  0  0  0  0  0
   59.2870   33.0360   45.6600 C   0  0  0  0  0  0  0  0  0  0  0  0
   59.7476   34.0335   45.6068 H   0  0  0  0  0  0  0  0  0  0  0  0
   59.9040   32.0190   46.4200 C   0  0  0  0  0  0  0  0  0  0  0  0
   61.0830   32.2860   47.1040 O   0  0  0  0  0  0  0  0  0  0  0  0
   59.3300   30.7360   46.4900 C   0  0  0  0  0  0  0  0  0  0  0  0
   59.7959   29.9376   47.0862 H   0  0  0  0  0  0  0  0  0  0  0  0
   58.1510   30.5090   45.7790 C   0  0  0  0  0  0  0  0  0  0  0  0
   57.3600   29.3870   45.6600 C   0  0  0  0  0  0  0  0  0  0  0  0
   57.5020   28.0980   46.3560 C   0  0  0  0  0  0  0  0  0  0  0  0
   58.1926   28.0626   47.2115 H   0  0  0  0  0  0  0  0  0  0  0  0
   56.8610   26.9600   46.0370 C   0  0  0  0  0  0  0  0  0  0  0  0
   55.5150   26.9050   46.0070 N   0  0  0  0  0  0  0  0  0  0  0  0
   55.2440   25.6230   45.6990 C   0  0  0  0  0  0  0  0  0  0  0  0
   54.0700   25.1820   45.5910 O   0  0  0  0  0  0  0  0  0  0  0  0
   56.3310   24.8510   45.5080 N   0  0  0  0  0  0  0  0  0  0  0  0
   57.3610   25.6950   45.7050 C   0  0  0  0  0  0  0  0  0  0  0  0
   58.6250   25.3190   45.4870 C   0  0  0  0  0  0  0  0  0  0  0  0
   59.4472   26.0298   45.6563 H   0  0  0  0  0  0  0  0  0  0  0  0
   58.8430   24.2988   45.1383 H   0  0  0  0  0  0  0  0  0  0  0  0
  1  2  1  0
  2  3  1  0
  3  4  1  0
  4  5  1  0
  5  6  2  0
  6  7  1  0
  6  8  1  0
  8  9  1  0
  8 10  2  0
 10 11  1  0
 10 12  1  0
 12 13  1  0
 12 14  2  0
 14 15  1  0
 15 16  1  0
 16 17  1  0
 16 18  2  0
 18 19  1  0
 19 20  1  0
 20 21  2  0
 20 22  1  0
 22 23  1  0
 23 24  2  0
 24 25  1  0
 24 26  1  0
 15  3  2  0
 23 18  1  0
 14  5  1  0
M  CHG  4   4  -1  11  -1  19  -1  22  -1
M  END
>  <UniqueID>  (65) 
63

>  <SMILES>  (65) 
C=c1[n-]c(=O)[n-]/c1=C/c1c(O)[n-]c2ccc([O-])cc12

>  <Energy>  (65) 
101.25915667392982

>  <Genealogy>  (65) 
C=c1[n-]c(=O)[n-]c1=Cc1c(O)[n-]c2ccc([O-])cc12 (protonated)
C=c1[n-]c(=O)[n-]/c1=C/c1c(O)[n-]c2ccc([O-])cc12 (cis-trans isomerization)
C=c1[n-]c(=O)[n-]/c1=C/c1c(O)[n-]c2ccc([O-])cc12 (3D coordinates assigned)
C=c1[n-]c(=O)[n-]/c1=C/c1c(O)[n-]c2ccc([O-])cc12 (optimized conformer: 101.25915667392982 kcal/mol)

>  <smiles>  (65) 
C=c1[nH]c(=O)[nH]c1=Cc1c(O)[nH]c2ccc(O)cc12

>  <score_type>  (65) 
oracle

>  <origin>  (65) 
adg

>  <m_score__min__energy>  (65) 
-13.789999999999999

>  <m_primary>  (65) 
energy

$$$$
66:0
     RDKit          3D

 51 53  0  0  0  0  0  0  0  0999 V2000
   60.3510   33.7890   50.6020 C   0  0  0  0  0  0  0  0  0  0  0  0
   60.9160   32.7250   51.5300 C   0  0  0  0  0  0  0  0  0  0  0  0
   62.0080   32.0680   50.8950 O   0  0  0  0  0  0  0  0  0  0  0  0
   62.5100   32.4040   49.6280 C   0  0  0  0  0  0  0  0  0  0  0  0
   63.6370   33.2420   49.4760 C   0  0  0  0  0  0  0  0  0  0  0  0
   64.1460   33.5200   48.2030 C   0  0  0  0  0  0  0  0  0  0  0  0
   63.5460   32.9670   47.0720 C   0  0  0  0  0  0  0  0  0  0  0  0
   62.4270   32.1420   47.2080 C   0  0  0  0  0  0  0  0  0  0  0  0
   61.8870   31.8790   48.4760 C   0  0  0  0  0  0  0  0  0  0  0  0
   60.7160   31.0490   48.5530 N   0  0  0  0  0  0  0  0  0  0  0  0
   59.3530   31.4730   48.4120 C   0  0  0  0  0  0  0  0  0  0  0  0
   58.5040   31.0300   49.2280 O   0  0  0  0  0  0  0  0  0  0  0  0
   58.9060   32.3730   47.3190 C   0  0  0  0  0  0  0  0  0  0  0  0
   59.0460   33.7720   47.4250 C   0  0  0  0  0  0  0  0  0  0  0  0
   58.6170   34.6060   46.3910 C   0  0  0  0  0  0  0  0  0  0  0  0
   58.0620   34.0590   45.2310 C   0  0  0  0  0  0  0  0  0  0  0  0
   57.9360   32.6650   45.0960 C   0  0  0  0  0  0  0  0  0  0  0  0
   57.4150   32.0730   43.8150 C   0  0  0  0  0  0  0  0  0  0  0  0
   56.9300   30.6760   44.0590 C   0  0  0  0  0  0  0  0  0  0  0  0
   55.8030   30.4940   44.5980 O   0  0  0  0  0  0  0  0  0  0  0  0
   57.7780   29.5600   43.7460 N   0  0  0  0  0  0  0  0  0  0  0  0
   57.4240   28.1820   44.0900 C   0  0  0  0  0  0  0  0  0  0  0  0
   57.1920   28.0230   45.6000 C   0  0  0  0  0  0  0  0  0  0  0  0
   56.7680   26.6260   45.9430 C   0  0  0  0  0  0  0  0  0  0  0  0
   57.6480   25.6210   46.1530 N   0  0  0  0  0  0  0  0  0  0  0  0
   56.8640   24.5540   46.3790 C   0  0  0  0  0  0  0  0  0  0  0  0
   55.5450   24.9330   46.2910 C   0  0  0  0  0  0  0  0  0  0  0  0
   55.4760   26.2460   46.0080 N   0  0  0  0  0  0  0  0  0  0  0  0
   58.3700   31.8290   46.1400 C   0  0  0  0  0  0  0  0  0  0  0  0
   59.9180   34.6045   51.1998 H   0  0  0  0  0  0  0  0  0  0  0  0
   61.1564   34.1873   49.9674 H   0  0  0  0  0  0  0  0  0  0  0  0
   59.5699   33.3448   49.9674 H   0  0  0  0  0  0  0  0  0  0  0  0
   61.2641   33.1980   52.4601 H   0  0  0  0  0  0  0  0  0  0  0  0
   60.1320   31.9891   51.7620 H   0  0  0  0  0  0  0  0  0  0  0  0
   64.1173   33.6786   50.3641 H   0  0  0  0  0  0  0  0  0  0  0  0
   65.0218   34.1765   48.0938 H   0  0  0  0  0  0  0  0  0  0  0  0
   63.9539   33.1805   46.0730 H   0  0  0  0  0  0  0  0  0  0  0  0
   61.9659   31.6954   46.3147 H   0  0  0  0  0  0  0  0  0  0  0  0
   59.4962   34.2091   48.3284 H   0  0  0  0  0  0  0  0  0  0  0  0
   58.7161   35.6971   46.4896 H   0  0  0  0  0  0  0  0  0  0  0  0
   57.7226   34.7211   44.4208 H   0  0  0  0  0  0  0  0  0  0  0  0
   56.5831   32.6878   43.4409 H   0  0  0  0  0  0  0  0  0  0  0  0
   58.2247   32.0505   43.0707 H   0  0  0  0  0  0  0  0  0  0  0  0
   58.7270   29.7390   43.3420 H   0  0  0  0  0  0  0  0  0  0  0  0
   56.5035   27.9049   43.5554 H   0  0  0  0  0  0  0  0  0  0  0  0
   58.2578   27.5271   43.7971 H   0  0  0  0  0  0  0  0  0  0  0  0
   58.1264   28.2545   46.1322 H   0  0  0  0  0  0  0  0  0  0  0  0
   56.3902   28.7128   45.9022 H   0  0  0  0  0  0  0  0  0  0  0  0
   57.2208   23.5372   46.5997 H   0  0  0  0  0  0  0  0  0  0  0  0
   54.6812   24.2663   46.4303 H   0  0  0  0  0  0  0  0  0  0  0  0
   58.2889   30.7373   46.0323 H   0  0  0  0  0  0  0  0  0  0  0  0
  1  2  1  0
  2  3  1  0
  3  4  1  0
  4  5  2  0
  5  6  1  0
  6  7  2  0
  7  8  1  0
  8  9  2  0
  9 10  1  0
 10 11  1  0
 11 12  2  0
 11 13  1  0
 13 14  2  0
 14 15  1  0
 15 16  2  0
 16 17  1  0
 17 18  1  0
 18 19  1  0
 19 20  2  0
 19 21  1  0
 21 22  1  0
 22 23  1  0
 23 24  1  0
 24 25  2  0
 25 26  1  0
 26 27  2  0
 27 28  1  0
 17 29  2  0
  9  4  1  0
 29 13  1  0
 28 24  1  0
  1 30  1  0
  1 31  1  0
  1 32  1  0
  2 33  1  0
  2 34  1  0
  5 35  1  0
  6 36  1  0
  7 37  1  0
  8 38  1  0
 14 39  1  0
 15 40  1  0
 16 41  1  0
 18 42  1  0
 18 43  1  0
 21 44  1  0
 22 45  1  0
 22 46  1  0
 23 47  1  0
 23 48  1  0
 26 49  1  0
 27 50  1  0
 29 51  1  0
M  CHG  2  10  -1  28  -1
M  END
>  <UniqueID>  (66) 
64

>  <SMILES>  (66) 
CCOc1ccccc1[N-]C(=O)c1cccc(CC(=O)NCCc2ncc[n-]2)c1

>  <Energy>  (66) 
76.08941636719676

>  <Genealogy>  (66) 
CCOc1ccccc1[N-]C(=O)c1cccc(CC(=O)NCCc2ncc[n-]2)c1 (protonated)
CCOc1ccccc1[N-]C(=O)c1cccc(CC(=O)NCCc2ncc[n-]2)c1 (3D coordinates assigned)
CCOc1ccccc1[N-]C(=O)c1cccc(CC(=O)NCCc2ncc[n-]2)c1 (optimized conformer: 76.08941636719676 kcal/mol)

>  <smiles>  (66) 
CCOc1ccccc1NC(=O)c1cccc(CC(=O)NCCc2ncc[nH]2)c1

>  <score_type>  (66) 
oracle

>  <origin>  (66) 
adg

>  <m_score__min__energy>  (66) 
-12.140000000000001

>  <m_primary>  (66) 
energy

$$$$
67:0
     RDKit          3D

 53 56  0  0  0  0  0  0  0  0999 V2000
   57.6460   25.6160   45.4770 C   0  0  0  0  0  0  0  0  0  0  0  0
   56.3360   26.1650   45.9590 C   0  0  0  0  0  0  0  0  0  0  0  0
   55.6160   25.4560   46.7100 O   0  0  0  0  0  0  0  0  0  0  0  0
   55.8930   27.4850   45.6190 N   0  0  0  0  0  0  0  0  0  0  0  0
   56.7130   28.6520   45.4550 C   0  0  0  0  0  0  0  0  0  0  0  0
   56.3970   29.5610   44.4380 C   0  0  0  0  0  0  0  0  0  0  0  0
   57.1850   30.6970   44.2390 C   0  0  0  0  0  0  0  0  0  0  0  0
   58.3070   30.9220   45.0410 C   0  0  0  0  0  0  0  0  0  0  0  0
   58.6640   29.9970   46.0340 C   0  0  0  0  0  0  0  0  0  0  0  0
   59.8510   30.2180   46.8900 C   0  0  0  0  0  0  0  0  0  0  0  0
   61.0890   30.4270   46.4050 N   0  0  0  0  0  0  0  0  0  0  0  0
   61.9170   30.5720   47.4260 N   0  0  0  0  0  0  0  0  0  0  0  0
   61.1630   30.4620   48.5370 C   0  0  0  0  0  0  0  0  0  0  0  0
   61.8360   30.5630   50.2010 S   0  0  0  0  0  0  0  0  0  0  0  0
   60.7810   31.9800   50.6820 C   0  0  0  0  0  0  0  0  0  0  0  0
   61.5420   33.2830   50.7210 C   0  0  0  0  0  0  0  0  0  0  0  0
   61.8240   33.7820   51.8450 O   0  0  0  0  0  0  0  0  0  0  0  0
   61.9610   33.9600   49.5050 N   0  0  0  0  0  0  0  0  0  0  0  0
   63.3760   34.2020   49.2050 C   0  0  0  0  0  0  0  0  0  0  0  0
   63.8150   33.2040   48.1350 C   0  0  0  0  0  0  0  0  0  0  0  0
   63.0040   33.4070   46.8430 C   0  0  0  0  0  0  0  0  0  0  0  0
   61.5420   33.7320   47.0830 C   0  0  0  0  0  0  0  0  0  0  0  0
   60.6720   33.8070   45.9850 C   0  0  0  0  0  0  0  0  0  0  0  0
   59.3480   34.2140   46.1570 C   0  0  0  0  0  0  0  0  0  0  0  0
   58.8870   34.5770   47.4230 C   0  0  0  0  0  0  0  0  0  0  0  0
   59.7410   34.5140   48.5270 C   0  0  0  0  0  0  0  0  0  0  0  0
   61.0660   34.0630   48.3760 C   0  0  0  0  0  0  0  0  0  0  0  0
   59.8620   30.2600   48.2420 N   0  0  0  0  0  0  0  0  0  0  0  0
   58.7500   30.1200   49.1800 C   0  0  0  0  0  0  0  0  0  0  0  0
   57.8600   28.8640   46.2390 C   0  0  0  0  0  0  0  0  0  0  0  0
   58.2736   25.3530   46.3413 H   0  0  0  0  0  0  0  0  0  0  0  0
   57.4654   24.7179   44.8681 H   0  0  0  0  0  0  0  0  0  0  0  0
   58.1597   26.3745   44.8681 H   0  0  0  0  0  0  0  0  0  0  0  0
   55.5245   29.3798   43.7930 H   0  0  0  0  0  0  0  0  0  0  0  0
   56.9218   31.4161   43.4493 H   0  0  0  0  0  0  0  0  0  0  0  0
   58.9130   31.8281   44.8933 H   0  0  0  0  0  0  0  0  0  0  0  0
   61.3780   30.4520   45.4020 H   0  0  0  0  0  0  0  0  0  0  0  0
   59.9615   32.0722   49.9541 H   0  0  0  0  0  0  0  0  0  0  0  0
   60.4025   31.7846   51.6962 H   0  0  0  0  0  0  0  0  0  0  0  0
   63.5073   35.2287   48.8327 H   0  0  0  0  0  0  0  0  0  0  0  0
   63.9836   34.0767   50.1134 H   0  0  0  0  0  0  0  0  0  0  0  0
   64.8833   33.3518   47.9187 H   0  0  0  0  0  0  0  0  0  0  0  0
   63.6410   32.1837   48.5075 H   0  0  0  0  0  0  0  0  0  0  0  0
   63.4551   34.2353   46.2769 H   0  0  0  0  0  0  0  0  0  0  0  0
   63.0346   32.4552   46.2925 H   0  0  0  0  0  0  0  0  0  0  0  0
   61.0360   33.5431   44.9811 H   0  0  0  0  0  0  0  0  0  0  0  0
   58.6673   34.2486   45.2936 H   0  0  0  0  0  0  0  0  0  0  0  0
   57.8479   34.9139   47.5523 H   0  0  0  0  0  0  0  0  0  0  0  0
   59.3762   34.8183   49.5191 H   0  0  0  0  0  0  0  0  0  0  0  0
   59.1314   30.1680   50.2106 H   0  0  0  0  0  0  0  0  0  0  0  0
   58.0286   30.9344   49.0177 H   0  0  0  0  0  0  0  0  0  0  0  0
   58.2530   29.1522   49.0177 H   0  0  0  0  0  0  0  0  0  0  0  0
   58.1300   28.1370   47.0191 H   0  0  0  0  0  0  0  0  0  0  0  0
  1  2  1  0
  2  3  2  0
  2  4  1  0
  4  5  1  0
  5  6  2  0
  6  7  1  0
  7  8  2  0
  8  9  1  0
  9 10  1  0
 10 11  2  0
 11 12  1  0
 12 13  2  0
 13 14  1  0
 14 15  1  0
 15 16  1  0
 16 17  2  0
 16 18  1  0
 18 19  1  0
 19 20  1  0
 20 21  1  0
 21 22  1  0
 22 23  2  0
 23 24  1  0
 24 25  2  0
 25 26  1  0
 26 27  2  0
 13 28  1  0
 28 29  1  0
  9 30  2  0
 30  5  1  0
 28 10  1  0
 27 18  1  0
 27 22  1  0
  1 31  1  0
  1 32  1  0
  1 33  1  0
  6 34  1  0
  7 35  1  0
  8 36  1  0
 11 37  1  0
 15 38  1  0
 15 39  1  0
 19 40  1  0
 19 41  1  0
 20 42  1  0
 20 43  1  0
 21 44  1  0
 21 45  1  0
 23 46  1  0
 24 47  1  0
 25 48  1  0
 26 49  1  0
 29 50  1  0
 29 51  1  0
 29 52  1  0
 30 53  1  0
M  CHG  2   4  -1  11   1
M  END
>  <UniqueID>  (67) 
65

>  <SMILES>  (67) 
CC(=O)[N-]c1cccc(-c2[nH+]nc(SCC(=O)N3CCCc4ccccc43)n2C)c1

>  <Energy>  (67) 
104.64463600240423

>  <Genealogy>  (67) 
CC(=O)[N-]c1cccc(-c2[nH+]nc(SCC(=O)N3CCCc4ccccc43)n2C)c1 (protonated)
CC(=O)[N-]c1cccc(-c2[nH+]nc(SCC(=O)N3CCCc4ccccc43)n2C)c1 (3D coordinates assigned)
CC(=O)[N-]c1cccc(-c2[nH+]nc(SCC(=O)N3CCCc4ccccc43)n2C)c1 (nonaromatic ring conformer: 104.64463600240423 kcal/mol)

>  <smiles>  (67) 
CC(=O)Nc1cccc(-c2nnc(SCC(=O)N3CCCc4ccccc43)n2C)c1

>  <score_type>  (67) 
oracle

>  <origin>  (67) 
adg

>  <m_score__min__energy>  (67) 
-10.83

>  <m_primary>  (67) 
energy

$$$$
68:0
     RDKit          3D

 52 55  0  0  0  0  0  0  0  0999 V2000
   55.6010   29.7130   43.8290 C   0  0  0  0  0  0  0  0  0  0  0  0
   56.6140   30.8080   43.7300 C   0  0  0  0  0  0  0  0  0  0  0  0
   57.0160   31.2930   42.4790 C   0  0  0  0  0  0  0  0  0  0  0  0
   57.9510   32.3240   42.4160 C   0  0  0  0  0  0  0  0  0  0  0  0
   58.4690   32.8700   43.5910 C   0  0  0  0  0  0  0  0  0  0  0  0
   58.0310   32.3810   44.8350 C   0  0  0  0  0  0  0  0  0  0  0  0
   58.5430   32.9100   46.0750 N   0  0  0  0  0  0  0  0  0  0  0  0
   57.6670   33.0990   47.2440 C   0  0  0  0  0  0  0  0  0  0  0  0
   58.4110   32.7710   48.5470 C   0  0  0  0  0  0  0  0  0  0  0  0
   59.7710   33.3270   48.5650 N   0  0  0  0  0  0  0  0  0  0  0  0
   60.5590   33.2100   49.7650 C   0  0  0  0  0  0  0  0  0  0  0  0
   59.9850   33.2100   50.8880 O   0  0  0  0  0  0  0  0  0  0  0  0
   62.0290   33.0450   49.7100 C   0  0  0  0  0  0  0  0  0  0  0  0
   62.8520   33.9530   50.3940 C   0  0  0  0  0  0  0  0  0  0  0  0
   64.2370   33.8500   50.3020 C   0  0  0  0  0  0  0  0  0  0  0  0
   64.7980   32.8430   49.5190 C   0  0  0  0  0  0  0  0  0  0  0  0
   63.9980   31.9660   48.8560 N   0  0  0  0  0  0  0  0  0  0  0  0
   62.6370   32.0350   48.9320 C   0  0  0  0  0  0  0  0  0  0  0  0
   61.8440   31.0510   48.2530 N   0  0  0  0  0  0  0  0  0  0  0  0
   61.7240   30.9930   46.8090 C   0  0  0  0  0  0  0  0  0  0  0  0
   60.8010   29.8150   46.5290 C   0  0  0  0  0  0  0  0  0  0  0  0
   60.0810   29.5250   47.8470 C   0  0  0  0  0  0  0  0  0  0  0  0
   60.9310   30.1580   48.9410 C   0  0  0  0  0  0  0  0  0  0  0  0
   60.2550   34.1030   47.4170 C   0  0  0  0  0  0  0  0  0  0  0  0
   59.9450   33.3540   46.1220 C   0  0  0  0  0  0  0  0  0  0  0  0
   57.1240   31.3640   44.8630 N   0  0  0  0  0  0  0  0  0  0  0  0
   55.3992   29.4949   44.8881 H   0  0  0  0  0  0  0  0  0  0  0  0
   54.6699   30.0291   43.3359 H   0  0  0  0  0  0  0  0  0  0  0  0
   55.9885   28.8093   43.3359 H   0  0  0  0  0  0  0  0  0  0  0  0
   56.5980   30.8645   41.5562 H   0  0  0  0  0  0  0  0  0  0  0  0
   58.2810   32.7078   41.4394 H   0  0  0  0  0  0  0  0  0  0  0  0
   59.2148   33.6773   43.5447 H   0  0  0  0  0  0  0  0  0  0  0  0
   57.3300   34.1456   47.2757 H   0  0  0  0  0  0  0  0  0  0  0  0
   56.8065   32.4202   47.1510 H   0  0  0  0  0  0  0  0  0  0  0  0
   57.8459   33.1899   49.3926 H   0  0  0  0  0  0  0  0  0  0  0  0
   58.4927   31.6767   48.6228 H   0  0  0  0  0  0  0  0  0  0  0  0
   62.4009   34.7488   51.0049 H   0  0  0  0  0  0  0  0  0  0  0  0
   64.8831   34.5573   50.8426 H   0  0  0  0  0  0  0  0  0  0  0  0
   65.8916   32.7573   49.4370 H   0  0  0  0  0  0  0  0  0  0  0  0
   64.4470   31.2100   48.2910 H   0  0  0  0  0  0  0  0  0  0  0  0
   61.2874   31.9251   46.4210 H   0  0  0  0  0  0  0  0  0  0  0  0
   62.7024   30.8722   46.3209 H   0  0  0  0  0  0  0  0  0  0  0  0
   60.0745   30.0758   45.7453 H   0  0  0  0  0  0  0  0  0  0  0  0
   61.3616   28.9380   46.1732 H   0  0  0  0  0  0  0  0  0  0  0  0
   59.0754   29.9709   47.8388 H   0  0  0  0  0  0  0  0  0  0  0  0
   59.9584   28.4438   48.0084 H   0  0  0  0  0  0  0  0  0  0  0  0
   60.2979   30.7210   49.6426 H   0  0  0  0  0  0  0  0  0  0  0  0
   61.4675   29.4005   49.5313 H   0  0  0  0  0  0  0  0  0  0  0  0
   59.7555   35.0829   47.4012 H   0  0  0  0  0  0  0  0  0  0  0  0
   61.3424   34.2442   47.5050 H   0  0  0  0  0  0  0  0  0  0  0  0
   60.1368   34.0215   45.2690 H   0  0  0  0  0  0  0  0  0  0  0  0
   60.5894   32.4636   46.0770 H   0  0  0  0  0  0  0  0  0  0  0  0
  1  2  1  0
  2  3  2  0
  3  4  1  0
  4  5  2  0
  5  6  1  0
  6  7  1  0
  7  8  1  0
  8  9  1  0
  9 10  1  0
 10 11  1  0
 11 12  2  0
 11 13  1  0
 13 14  2  0
 14 15  1  0
 15 16  2  0
 16 17  1  0
 17 18  2  0
 18 19  1  0
 19 20  1  0
 20 21  1  0
 21 22  1  0
 22 23  1  0
 10 24  1  0
 24 25  1  0
  6 26  2  0
 26  2  1  0
 25  7  1  0
 18 13  1  0
 23 19  1  0
  1 27  1  0
  1 28  1  0
  1 29  1  0
  3 30  1  0
  4 31  1  0
  5 32  1  0
  8 33  1  0
  8 34  1  0
  9 35  1  0
  9 36  1  0
 14 37  1  0
 15 38  1  0
 16 39  1  0
 17 40  1  0
 20 41  1  0
 20 42  1  0
 21 43  1  0
 21 44  1  0
 22 45  1  0
 22 46  1  0
 23 47  1  0
 23 48  1  0
 24 49  1  0
 24 50  1  0
 25 51  1  0
 25 52  1  0
M  CHG  1  17   1
M  END
>  <UniqueID>  (68) 
66

>  <SMILES>  (68) 
Cc1cccc(N2CCN(C(=O)c3ccc[nH+]c3N3CCCC3)CC2)n1

>  <Energy>  (68) 
66.47172460607514

>  <Genealogy>  (68) 
Cc1cccc(N2CCN(C(=O)c3ccc[nH+]c3N3CCCC3)CC2)n1 (protonated)
Cc1cccc(N2CCN(C(=O)c3ccc[nH+]c3N3CCCC3)CC2)n1 (3D coordinates assigned)
Cc1cccc(N2CCN(C(=O)c3ccc[nH+]c3N3CCCC3)CC2)n1 (nonaromatic ring conformer: 66.47172460607514 kcal/mol)

>  <smiles>  (68) 
Cc1cccc(N2CCN(C(=O)c3cccnc3N3CCCC3)CC2)n1

>  <score_type>  (68) 
oracle

>  <origin>  (68) 
adg

>  <m_score__min__energy>  (68) 
-6.5

>  <m_primary>  (68) 
energy

$$$$
69:0
     RDKit          3D

 64 66  0  0  0  0  0  0  0  0999 V2000
   56.4560   23.4480   43.2520 C   0  0  0  0  0  0  0  0  0  0  0  0
   57.1320   24.7360   43.7110 C   0  0  0  0  0  0  0  0  0  0  0  0
   57.1700   24.8250   45.2430 C   0  0  0  0  0  0  0  0  0  0  0  0
   58.5930   25.0640   45.7670 C   0  0  0  0  0  0  0  0  0  0  0  0
   58.6580   26.2650   46.5970 N   0  0  0  0  0  0  0  0  0  0  0  0
   59.8600   26.6990   47.2410 C   0  0  0  0  0  0  0  0  0  0  0  0
   60.9200   26.0200   47.1380 O   0  0  0  0  0  0  0  0  0  0  0  0
   59.8450   27.8770   47.9910 O   0  0  0  0  0  0  0  0  0  0  0  0
   58.6600   28.6400   48.1980 C   0  0  0  0  0  0  0  0  0  0  0  0
   58.8580   30.0420   47.6930 C   0  0  0  0  0  0  0  0  0  0  0  0
   58.9410   30.4390   46.3580 C   0  0  0  0  0  0  0  0  0  0  0  0
   58.8840   29.5730   45.1310 C   0  0  0  0  0  0  0  0  0  0  0  0
   58.0660   28.4260   45.3590 O   0  0  0  0  0  0  0  0  0  0  0  0
   56.6690   28.4660   45.3480 C   0  0  0  0  0  0  0  0  0  0  0  0
   55.9990   27.4400   45.6470 O   0  0  0  0  0  0  0  0  0  0  0  0
   56.0130   29.6850   44.9820 N   0  0  0  0  0  0  0  0  0  0  0  0
   56.0950   30.3530   43.6810 C   0  0  0  0  0  0  0  0  0  0  0  0
   56.5410   29.3800   42.5870 C   0  0  0  0  0  0  0  0  0  0  0  0
   57.0000   31.5860   43.7520 C   0  0  0  0  0  0  0  0  0  0  0  0
   59.1100   31.8070   46.3880 C   0  0  0  0  0  0  0  0  0  0  0  0
   59.1040   32.2700   47.6450 N   0  0  0  0  0  0  0  0  0  0  0  0
   58.9570   31.2040   48.4610 C   0  0  0  0  0  0  0  0  0  0  0  0
   58.8860   31.2860   49.9350 C   0  0  0  0  0  0  0  0  0  0  0  0
   59.8840   30.6940   50.7260 C   0  0  0  0  0  0  0  0  0  0  0  0
   59.8130   30.7680   52.1210 C   0  0  0  0  0  0  0  0  0  0  0  0
   58.7460   31.4300   52.7340 C   0  0  0  0  0  0  0  0  0  0  0  0
   57.7470   32.0190   51.9520 C   0  0  0  0  0  0  0  0  0  0  0  0
   57.8150   31.9480   50.5570 C   0  0  0  0  0  0  0  0  0  0  0  0
   59.3280   33.6800   47.9680 C   0  0  0  0  0  0  0  0  0  0  0  0
   58.8700   34.5750   46.7950 C   0  0  1  0  0  0  0  0  0  0  0  0
   59.4540   35.8440   46.9220 O   0  0  0  0  0  0  0  0  0  0  0  0
   59.2270   33.9690   45.4460 C   0  0  0  0  0  0  0  0  0  0  0  0
   59.2610   32.6800   45.2690 N   0  0  0  0  0  0  0  0  0  0  0  0
   56.1485   22.8621   44.1307 H   0  0  0  0  0  0  0  0  0  0  0  0
   55.5707   23.6939   42.6472 H   0  0  0  0  0  0  0  0  0  0  0  0
   57.1613   22.8592   42.6472 H   0  0  0  0  0  0  0  0  0  0  0  0
   58.1615   24.7589   43.3242 H   0  0  0  0  0  0  0  0  0  0  0  0
   56.5550   25.5897   43.3258 H   0  0  0  0  0  0  0  0  0  0  0  0
   56.5273   25.6568   45.5670 H   0  0  0  0  0  0  0  0  0  0  0  0
   56.8133   23.8670   45.6493 H   0  0  0  0  0  0  0  0  0  0  0  0
   58.9044   24.1963   46.3671 H   0  0  0  0  0  0  0  0  0  0  0  0
   59.2622   25.2009   44.9048 H   0  0  0  0  0  0  0  0  0  0  0  0
   57.7790   26.8040   46.7690 H   0  0  0  0  0  0  0  0  0  0  0  0
   57.8255   28.1716   47.6556 H   0  0  0  0  0  0  0  0  0  0  0  0
   58.4337   28.6718   49.2740 H   0  0  0  0  0  0  0  0  0  0  0  0
   58.4645   30.1554   44.2975 H   0  0  0  0  0  0  0  0  0  0  0  0
   59.9030   29.2373   44.8882 H   0  0  0  0  0  0  0  0  0  0  0  0
   55.0870   30.7024   43.4130 H   0  0  0  0  0  0  0  0  0  0  0  0
   56.9567   28.4730   43.0502 H   0  0  0  0  0  0  0  0  0  0  0  0
   55.6769   29.1096   41.9623 H   0  0  0  0  0  0  0  0  0  0  0  0
   57.3099   29.8581   41.9623 H   0  0  0  0  0  0  0  0  0  0  0  0
   57.1883   31.8425   44.8050 H   0  0  0  0  0  0  0  0  0  0  0  0
   57.9550   31.3692   43.2510 H   0  0  0  0  0  0  0  0  0  0  0  0
   56.5069   32.4321   43.2510 H   0  0  0  0  0  0  0  0  0  0  0  0
   60.7244   30.1703   50.2469 H   0  0  0  0  0  0  0  0  0  0  0  0
   60.5982   30.3044   52.7363 H   0  0  0  0  0  0  0  0  0  0  0  0
   58.6917   31.4879   53.8311 H   0  0  0  0  0  0  0  0  0  0  0  0
   56.9065   32.5389   52.4351 H   0  0  0  0  0  0  0  0  0  0  0  0
   57.0274   32.4120   49.9452 H   0  0  0  0  0  0  0  0  0  0  0  0
   58.7552   33.9417   48.8699 H   0  0  0  0  0  0  0  0  0  0  0  0
   60.4016   33.8416   48.1451 H   0  0  0  0  0  0  0  0  0  0  0  0
   57.7741   34.6594   46.8377 H   0  0  0  0  0  0  0  0  0  0  0  0
   58.8890   36.3570   47.5590 H   0  0  0  0  0  0  0  0  0  0  0  0
   59.4614   34.6345   44.6021 H   0  0  0  0  0  0  0  0  0  0  0  0
  1  2  1  0
  2  3  1  0
  3  4  1  0
  4  5  1  0
  5  6  1  0
  6  7  2  0
  6  8  1  0
  8  9  1  0
  9 10  1  0
 10 11  1  0
 11 12  1  0
 12 13  1  0
 13 14  1  0
 14 15  2  0
 14 16  1  0
 16 17  1  0
 17 18  1  0
 17 19  1  0
 11 20  2  0
 20 21  1  0
 21 22  1  0
 22 23  1  0
 23 24  2  0
 24 25  1  0
 25 26  2  0
 26 27  1  0
 27 28  2  0
 21 29  1  0
 29 30  1  0
 30 31  1  0
 30 32  1  0
 32 33  2  0
 22 10  2  0
 28 23  1  0
 33 20  1  0
  1 34  1  0
  1 35  1  0
  1 36  1  0
  2 37  1  0
  2 38  1  0
  3 39  1  0
  3 40  1  0
  4 41  1  0
  4 42  1  0
  5 43  1  0
  9 44  1  0
  9 45  1  0
 12 46  1  0
 12 47  1  0
 17 48  1  0
 18 49  1  0
 18 50  1  0
 18 51  1  0
 19 52  1  0
 19 53  1  0
 19 54  1  0
 24 55  1  0
 25 56  1  0
 26 57  1  0
 27 58  1  0
 28 59  1  0
 29 60  1  0
 29 61  1  0
 30 62  1  6
 31 63  1  0
 32 64  1  0
M  CHG  1  16  -1
M  END
>  <UniqueID>  (69) 
67

>  <SMILES>  (69) 
CCCCNC(=O)OCc1c(COC(=O)[N-]C(C)C)c2n(c1-c1ccccc1)C[C@@H](O)C=N2

>  <Energy>  (69) 
81.49099303473675

>  <Genealogy>  (69) 
CCCCNC(=O)OCc1c(COC(=O)[N-]C(C)C)c2n(c1-c1ccccc1)CC(O)C=N2 (protonated)
CCCCNC(=O)OCc1c(COC(=O)[N-]C(C)C)c2n(c1-c1ccccc1)C[C@@H](O)C=N2 (chirality)
CCCCNC(=O)OCc1c(COC(=O)[N-]C(C)C)c2n(c1-c1ccccc1)C[C@@H](O)C=N2 (3D coordinates assigned)
CCCCNC(=O)OCc1c(COC(=O)[N-]C(C)C)c2n(c1-c1ccccc1)C[C@@H](O)C=N2 (nonaromatic ring conformer: 81.49099303473675 kcal/mol)

>  <smiles>  (69) 
CCCCNC(=O)OCc1c(COC(=O)NC(C)C)c2n(c1-c1ccccc1)CC(O)C=N2

>  <score_type>  (69) 
oracle

>  <origin>  (69) 
adg

>  <m_score__min__energy>  (69) 
-9.2899999999999991

>  <m_primary>  (69) 
energy

$$$$
70:0
     RDKit          3D

 38 40  0  0  0  0  0  0  0  0999 V2000
   62.1442   29.5443   50.1954 H   0  0  0  0  0  0  0  0  0  0  0  0
   61.5120   30.0690   49.4640 C   0  0  0  0  0  0  0  0  0  0  0  0
   61.9700   31.2400   48.8590 C   0  0  0  0  0  0  0  0  0  0  0  0
   62.9644   31.6361   49.1124 H   0  0  0  0  0  0  0  0  0  0  0  0
   61.1670   31.9110   47.9310 C   0  0  0  0  0  0  0  0  0  0  0  0
   61.5341   32.8322   47.4550 H   0  0  0  0  0  0  0  0  0  0  0  0
   59.8920   31.4140   47.6030 C   0  0  0  0  0  0  0  0  0  0  0  0
   59.0410   32.1350   46.6240 C   0  0  0  0  0  0  0  0  0  0  0  0
   59.2700   33.4920   46.3560 C   0  0  0  0  0  0  0  0  0  0  0  0
   60.0849   34.0273   46.8653 H   0  0  0  0  0  0  0  0  0  0  0  0
   58.4590   34.1570   45.4410 C   0  0  0  0  0  0  0  0  0  0  0  0
   58.6294   35.2228   45.2289 H   0  0  0  0  0  0  0  0  0  0  0  0
   57.4310   33.4740   44.7930 C   0  0  0  0  0  0  0  0  0  0  0  0
   56.7851   33.9991   44.0739 H   0  0  0  0  0  0  0  0  0  0  0  0
   57.2240   32.1050   45.0650 C   0  0  0  0  0  0  0  0  0  0  0  0
   56.2700   31.4130   44.5060 N   0  0  0  0  0  0  0  0  0  0  0  0
   56.1550   29.9880   44.3600 C   0  0  0  0  0  0  0  0  0  0  0  0
   55.1690   29.3600   44.8320 O   0  0  0  0  0  0  0  0  0  0  0  0
   57.1990   29.2470   43.5860 C   0  0  0  0  0  0  0  0  0  0  0  0
   56.7178   28.4681   42.9763 H   0  0  0  0  0  0  0  0  0  0  0  0
   57.7347   29.9507   42.9319 H   0  0  0  0  0  0  0  0  0  0  0  0
   58.1760   28.6070   44.5340 C   0  0  0  0  0  0  0  0  0  0  0  0
   59.5300   28.9770   44.5120 C   0  0  0  0  0  0  0  0  0  0  0  0
   59.8724   29.7612   43.8207 H   0  0  0  0  0  0  0  0  0  0  0  0
   60.4450   28.3530   45.3650 C   0  0  0  0  0  0  0  0  0  0  0  0
   61.5035   28.6519   45.3483 H   0  0  0  0  0  0  0  0  0  0  0  0
   60.0170   27.3500   46.2390 C   0  0  0  0  0  0  0  0  0  0  0  0
   60.7380   26.8623   46.9115 H   0  0  0  0  0  0  0  0  0  0  0  0
   58.6720   26.9660   46.2590 C   0  0  0  0  0  0  0  0  0  0  0  0
   58.1380   25.6970   47.3450 Cl  0  0  0  0  0  0  0  0  0  0  0  0
   57.7530   27.5890   45.4060 C   0  0  0  0  0  0  0  0  0  0  0  0
   56.6971   27.2809   45.4183 H   0  0  0  0  0  0  0  0  0  0  0  0
   58.0240   31.4850   45.9830 N   0  0  0  0  0  0  0  0  0  0  0  0
   57.8370   30.4810   46.2100 H   0  0  0  0  0  0  0  0  0  0  0  0
   59.4410   30.2270   48.2150 C   0  0  0  0  0  0  0  0  0  0  0  0
   58.2360   29.6930   47.8910 F   0  0  0  0  0  0  0  0  0  0  0  0
   60.2510   29.5630   49.1410 C   0  0  0  0  0  0  0  0  0  0  0  0
   59.8936   28.6381   49.6172 H   0  0  0  0  0  0  0  0  0  0  0  0
  1  2  1  0
  2  3  2  0
  3  4  1  0
  3  5  1  0
  5  6  1  0
  5  7  2  0
  7  8  1  0
  8  9  2  0
  9 10  1  0
  9 11  1  0
 11 12  1  0
 11 13  2  0
 13 14  1  0
 13 15  1  0
 15 16  2  0
 16 17  1  0
 17 18  2  0
 17 19  1  0
 19 20  1  0
 19 21  1  0
 19 22  1  0
 22 23  2  0
 23 24  1  0
 23 25  1  0
 25 26  1  0
 25 27  2  0
 27 28  1  0
 27 29  1  0
 29 30  1  0
 29 31  2  0
 31 32  1  0
 15 33  1  0
 33 34  1  0
  7 35  1  0
 35 36  1  0
 35 37  2  0
 37 38  1  0
 37  2  1  0
 33  8  1  0
 31 22  1  0
M  END
>  <UniqueID>  (70) 
68

>  <SMILES>  (70) 
O=C(Cc1cccc(Cl)c1)/N=c1\cccc(-c2ccccc2F)[nH]1

>  <Energy>  (70) 
52.459913370141514

>  <Genealogy>  (70) 
O=C(Cc1cccc(Cl)c1)/N=c1\cccc(-c2ccccc2F)[nH]1 (cis-trans isomerization)
O=C(Cc1cccc(Cl)c1)/N=c1\cccc(-c2ccccc2F)[nH]1 (3D coordinates assigned)
O=C(Cc1cccc(Cl)c1)/N=c1\cccc(-c2ccccc2F)[nH]1 (optimized conformer: 52.459913370141514 kcal/mol)

>  <smiles>  (70) 
O=C(Cc1cccc(Cl)c1)N=c1cccc(-c2ccccc2F)[nH]1

>  <score_type>  (70) 
oracle

>  <origin>  (70) 
adg

>  <m_score__min__energy>  (70) 
-8.7799999999999994

>  <m_primary>  (70) 
energy

$$$$
71:0
     RDKit          3D

 54 57  0  0  0  0  0  0  0  0999 V2000
   61.8900   30.9200   50.3860 C   0  0  0  0  0  0  0  0  0  0  0  0
   60.9700   31.6630   49.4340 C   0  0  0  0  0  0  0  0  0  0  0  0
   61.1630   33.0540   49.2330 C   0  0  0  0  0  0  0  0  0  0  0  0
   62.3400   33.7990   49.7490 C   0  0  0  0  0  0  0  0  0  0  0  0
   62.2200   34.5020   50.7900 O   0  0  0  0  0  0  0  0  0  0  0  0
   63.6660   33.7840   49.0390 C   0  0  0  0  0  0  0  0  0  0  0  0
   63.5380   33.8120   47.5220 C   0  0  0  0  0  0  0  0  0  0  0  0
   63.9760   32.5370   48.2200 C   0  0  0  0  0  0  0  0  0  0  0  0
   60.2270   33.7660   48.4840 C   0  0  0  0  0  0  0  0  0  0  0  0
   59.1520   33.1170   47.8860 C   0  0  0  0  0  0  0  0  0  0  0  0
   58.1340   33.9250   47.1090 C   0  0  0  0  0  0  0  0  0  0  0  0
   57.8940   33.3560   45.7390 C   0  0  0  0  0  0  0  0  0  0  0  0
   57.0620   33.8980   44.9630 O   0  0  0  0  0  0  0  0  0  0  0  0
   58.6790   32.2410   45.2860 N   0  0  0  0  0  0  0  0  0  0  0  0
   58.5090   31.6460   43.9630 C   0  0  0  0  0  0  0  0  0  0  0  0
   57.2640   30.8170   43.9200 C   0  0  0  0  0  0  0  0  0  0  0  0
   56.6210   30.3830   42.7760 C   0  0  0  0  0  0  0  0  0  0  0  0
   55.5220   29.6770   43.2170 C   0  0  0  0  0  0  0  0  0  0  0  0
   55.5640   29.7240   44.5980 C   0  0  0  0  0  0  0  0  0  0  0  0
   56.6130   30.4110   44.9860 O   0  0  0  0  0  0  0  0  0  0  0  0
   59.0270   31.7270   48.0330 C   0  0  0  0  0  0  0  0  0  0  0  0
   58.0500   31.1450   47.4840 O   0  0  0  0  0  0  0  0  0  0  0  0
   59.9510   31.0060   48.7610 N   0  0  0  0  0  0  0  0  0  0  0  0
   59.8460   29.5260   48.7940 C   0  0  0  0  0  0  0  0  0  0  0  0
   59.4510   28.9650   47.4460 C   0  0  0  0  0  0  0  0  0  0  0  0
   58.3170   28.1410   47.3330 C   0  0  0  0  0  0  0  0  0  0  0  0
   57.9500   27.6100   46.0950 C   0  0  0  0  0  0  0  0  0  0  0  0
   58.6970   27.9080   44.9530 C   0  0  0  0  0  0  0  0  0  0  0  0
   58.1900   27.1840   43.2600 Br  0  0  0  0  0  0  0  0  0  0  0  0
   59.8140   28.7440   45.0500 C   0  0  0  0  0  0  0  0  0  0  0  0
   60.1890   29.2760   46.2880 C   0  0  0  0  0  0  0  0  0  0  0  0
   61.2680   30.0950   46.3520 F   0  0  0  0  0  0  0  0  0  0  0  0
   61.6062   31.1492   51.4238 H   0  0  0  0  0  0  0  0  0  0  0  0
   61.8009   29.8375   50.2120 H   0  0  0  0  0  0  0  0  0  0  0  0
   62.9295   31.2350   50.2120 H   0  0  0  0  0  0  0  0  0  0  0  0
   64.2150   34.3530   49.8038 H   0  0  0  0  0  0  0  0  0  0  0  0
   62.5435   33.8693   47.0553 H   0  0  0  0  0  0  0  0  0  0  0  0
   63.9517   34.4395   46.7188 H   0  0  0  0  0  0  0  0  0  0  0  0
   63.2987   31.6711   48.2591 H   0  0  0  0  0  0  0  0  0  0  0  0
   64.8379   31.8592   48.1319 H   0  0  0  0  0  0  0  0  0  0  0  0
   60.3401   34.8536   48.3647 H   0  0  0  0  0  0  0  0  0  0  0  0
   57.1843   33.9284   47.6640 H   0  0  0  0  0  0  0  0  0  0  0  0
   58.5277   34.9452   46.9901 H   0  0  0  0  0  0  0  0  0  0  0  0
   59.3870   31.8230   45.9320 H   0  0  0  0  0  0  0  0  0  0  0  0
   58.4375   32.4466   43.2120 H   0  0  0  0  0  0  0  0  0  0  0  0
   59.3742   31.0018   43.7476 H   0  0  0  0  0  0  0  0  0  0  0  0
   56.9226   30.5630   41.7336 H   0  0  0  0  0  0  0  0  0  0  0  0
   54.7645   29.1771   42.5954 H   0  0  0  0  0  0  0  0  0  0  0  0
   54.8294   29.2564   45.2701 H   0  0  0  0  0  0  0  0  0  0  0  0
   60.8202   29.1055   49.0839 H   0  0  0  0  0  0  0  0  0  0  0  0
   59.0676   29.2527   49.5216 H   0  0  0  0  0  0  0  0  0  0  0  0
   57.7155   27.9135   48.2254 H   0  0  0  0  0  0  0  0  0  0  0  0
   57.0697   26.9548   46.0187 H   0  0  0  0  0  0  0  0  0  0  0  0
   60.3993   28.9838   44.1501 H   0  0  0  0  0  0  0  0  0  0  0  0
  1  2  1  0
  2  3  2  0
  3  4  1  0
  4  5  2  0
  4  6  1  0
  6  7  1  0
  7  8  1  0
  3  9  1  0
  9 10  2  0
 10 11  1  0
 11 12  1  0
 12 13  2  0
 12 14  1  0
 14 15  1  0
 15 16  1  0
 16 17  2  0
 17 18  1  0
 18 19  2  0
 19 20  1  0
 10 21  1  0
 21 22  2  0
 21 23  1  0
 23 24  1  0
 24 25  1  0
 25 26  2  0
 26 27  1  0
 27 28  2  0
 28 29  1  0
 28 30  1  0
 30 31  2  0
 31 32  1  0
 23  2  1  0
 31 25  1  0
  8  6  1  0
 20 16  1  0
  1 33  1  0
  1 34  1  0
  1 35  1  0
  6 36  1  0
  7 37  1  0
  7 38  1  0
  8 39  1  0
  8 40  1  0
  9 41  1  0
 11 42  1  0
 11 43  1  0
 14 44  1  0
 15 45  1  0
 15 46  1  0
 17 47  1  0
 18 48  1  0
 19 49  1  0
 24 50  1  0
 24 51  1  0
 26 52  1  0
 27 53  1  0
 30 54  1  0
M  END
>  <UniqueID>  (71) 
69

>  <SMILES>  (71) 
Cc1c(C(=O)C2CC2)cc(CC(=O)NCc2ccco2)c(=O)n1Cc1ccc(Br)cc1F

>  <Energy>  (71) 
356.52776249301365

>  <Genealogy>  (71) 
Cc1c(C(=O)C2CC2)cc(CC(=O)NCc2ccco2)c(=O)n1Cc1ccc(Br)cc1F (3D coordinates assigned)
Cc1c(C(=O)C2CC2)cc(CC(=O)NCc2ccco2)c(=O)n1Cc1ccc(Br)cc1F (nonaromatic ring conformer: 356.52776249301365 kcal/mol)

>  <smiles>  (71) 
Cc1c(C(=O)C2CC2)cc(CC(=O)NCc2ccco2)c(=O)n1Cc1ccc(Br)cc1F

>  <score_type>  (71) 
oracle

>  <origin>  (71) 
adg

>  <m_score__min__energy>  (71) 
-9.0299999999999994

>  <m_primary>  (71) 
energy

$$$$
72:0
     RDKit          3D

 57 56  0  0  0  0  0  0  0  0999 V2000
   54.6161   29.3933   44.2652 H   0  0  0  0  0  0  0  0  0  0  0  0
   55.5650   29.8980   44.0310 C   0  0  0  0  0  0  0  0  0  0  0  0
   55.5848   30.7209   43.3013 H   0  0  0  0  0  0  0  0  0  0  0  0
   56.6920   29.5120   44.6320 C   0  0  0  0  0  0  0  0  0  0  0  0
   56.6553   28.6875   45.3592 H   0  0  0  0  0  0  0  0  0  0  0  0
   58.0120   30.1740   44.3420 C   0  0  0  0  0  0  0  0  0  0  0  0
   58.4644   30.5094   45.2869 H   0  0  0  0  0  0  0  0  0  0  0  0
   58.6719   29.4494   43.8426 H   0  0  0  0  0  0  0  0  0  0  0  0
   57.7810   32.6100   43.9220 C   0  0  0  0  0  0  0  0  0  0  0  0
   58.2173   33.4269   43.3285 H   0  0  0  0  0  0  0  0  0  0  0  0
   57.7090   34.2070   45.8060 C   0  0  0  0  0  0  0  0  0  0  0  0
   57.0786   34.8172   46.4696 H   0  0  0  0  0  0  0  0  0  0  0  0
   57.1590   32.9230   45.2520 C   0  0  0  0  0  0  0  0  0  0  0  0
   56.0704   33.0202   45.1277 H   0  0  0  0  0  0  0  0  0  0  0  0
   57.3916   32.1071   45.9522 H   0  0  0  0  0  0  0  0  0  0  0  0
   54.5890   30.4210   52.8500 C   0  0  0  0  0  0  0  0  0  0  0  0
   53.8214   30.6061   53.6159 H   0  0  0  0  0  0  0  0  0  0  0  0
   54.2090   30.0460   51.6190 C   0  0  0  0  0  0  0  0  0  0  0  0
   54.8199   29.3165   51.0671 H   0  0  0  0  0  0  0  0  0  0  0  0
   60.1420   33.7470   45.7410 C   0  0  0  0  0  0  0  0  0  0  0  0
   59.8018   32.7155   45.9150 H   0  0  0  0  0  0  0  0  0  0  0  0
   60.7892   33.7889   44.8525 H   0  0  0  0  0  0  0  0  0  0  0  0
   60.9270   34.2180   46.9370 C   0  0  0  0  0  0  0  0  0  0  0  0
   61.5948   35.0811   46.7991 H   0  0  0  0  0  0  0  0  0  0  0  0
   56.6430   31.7470   52.4590 C   0  0  0  0  0  0  0  0  0  0  0  0
   56.6404   32.7492   52.9124 H   0  0  0  0  0  0  0  0  0  0  0  0
   56.0380   30.5940   53.2070 C   0  0  0  0  0  0  0  0  0  0  0  0
   56.5837   29.6736   52.9517 H   0  0  0  0  0  0  0  0  0  0  0  0
   56.1110   30.7990   54.2853 H   0  0  0  0  0  0  0  0  0  0  0  0
   58.9480   34.6290   45.5130 C   0  0  0  0  0  0  0  0  0  0  0  0
   59.0920   35.6378   45.0988 H   0  0  0  0  0  0  0  0  0  0  0  0
   57.8180   31.3580   43.4390 C   0  0  0  0  0  0  0  0  0  0  0  0
   57.7036   31.1957   42.3571 H   0  0  0  0  0  0  0  0  0  0  0  0
   57.1840   31.5720   51.2510 C   0  0  0  0  0  0  0  0  0  0  0  0
   56.7577   32.0959   50.3828 H   0  0  0  0  0  0  0  0  0  0  0  0
   58.8780   31.3870   48.7130 C   0  0  0  0  0  0  0  0  0  0  0  0
   58.8880   30.8204   47.7702 H   0  0  0  0  0  0  0  0  0  0  0  0
   58.6430   32.7020   48.6630 C   0  0  0  0  0  0  0  0  0  0  0  0
   57.6644   33.0572   48.3077 H   0  0  0  0  0  0  0  0  0  0  0  0
   60.8730   33.6620   48.1630 C   0  0  0  0  0  0  0  0  0  0  0  0
   61.7694   33.1357   48.5229 H   0  0  0  0  0  0  0  0  0  0  0  0
   59.6770   33.7070   49.0780 C   0  0  0  0  0  0  0  0  0  0  0  0
   60.0018   33.4854   50.1053 H   0  0  0  0  0  0  0  0  0  0  0  0
   59.2313   34.7111   49.0223 H   0  0  0  0  0  0  0  0  0  0  0  0
   58.3480   30.6830   51.0680 C   0  0  0  0  0  0  0  0  0  0  0  0
   58.5960   29.9914   51.8867 H   0  0  0  0  0  0  0  0  0  0  0  0
   59.1250   30.6580   49.9750 C   0  0  0  0  0  0  0  0  0  0  0  0
   60.0314   30.0365   50.0222 H   0  0  0  0  0  0  0  0  0  0  0  0
   52.9670   30.6000   50.9760 C   0  0  0  0  0  0  0  0  0  0  0  0
   53.2562   31.3205   50.1968 H   0  0  0  0  0  0  0  0  0  0  0  0
   52.3975   29.7668   50.5384 H   0  0  0  0  0  0  0  0  0  0  0  0
   52.0820   31.3070   52.0090 C   0  0  0  0  0  0  0  0  0  0  0  0
   51.4384   30.5642   52.5030 H   0  0  0  0  0  0  0  0  0  0  0  0
   52.7269   31.8029   52.7494 H   0  0  0  0  0  0  0  0  0  0  0  0
   51.2240   32.3390   51.3470 C   0  0  0  0  0  0  0  0  0  0  0  0
   50.6740   33.2410   52.0330 O   0  0  0  0  0  0  0  0  0  0  0  0
   51.0620   32.3290   49.9670 O   0  0  0  0  0  0  0  0  0  0  0  0
  1  2  1  0
  2  3  1  0
  2  4  2  0
  4  5  1  0
  4  6  1  0
  6  7  1  0
  6  8  1  0
  6  9  1  0
  9 10  1  0
  9 11  2  3
 11 12  1  0
 11 13  1  0
 13 14  1  0
 13 15  1  0
 13 16  1  0
 16 17  1  0
 16 18  2  3
 18 19  1  0
 18 20  1  0
 20 21  1  0
 20 22  1  0
 20 23  1  0
 23 24  1  0
 23 25  2  0
 25 26  1  0
 25 27  1  0
 27 28  1  0
 27 29  1  0
 27 30  1  0
 30 31  1  0
 30 32  2  3
 32 33  1  0
 32 34  1  0
 34 35  1  0
 34 36  2  0
 36 37  1  0
 36 38  1  0
 38 39  1  0
 38 40  2  0
 40 41  1  0
 40 42  1  0
 42 43  1  0
 42 44  1  0
 42 45  1  0
 45 46  1  0
 45 47  2  3
 47 48  1  0
 47 49  1  0
 49 50  1  0
 49 51  1  0
 49 52  1  0
 52 53  1  0
 52 54  1  0
 52 55  1  0
 55 56  2  0
 55 57  1  0
M  CHG  1  57  -1
M  END
>  <UniqueID>  (72) 
70

>  <SMILES>  (72) 
C=CCC=CCC=CC/C=C\CC=CC=C/C=C/CC=CCCC(=O)[O-]

>  <Energy>  (72) 
28.76605051396949

>  <Genealogy>  (72) 
C=CCC=CCC=CC/C=C\CC=CC=C/C=C/CC=CCCC(=O)[O-] (cis-trans isomerization)
C=CCC=CCC=CC/C=C\CC=CC=C/C=C/CC=CCCC(=O)[O-] (3D coordinates assigned)
C=CCC=CCC=CC/C=C\CC=CC=C/C=C/CC=CCCC(=O)[O-] (optimized conformer: 28.76605051396949 kcal/mol)

>  <smiles>  (72) 
C=CCC=CCC=CCC=CCC=CC=CC=CCC=CCCC(=O)[O-]

>  <score_type>  (72) 
oracle

>  <origin>  (72) 
adg

>  <m_score__min__energy>  (72) 
-10.75

>  <m_primary>  (72) 
energy

$$$$
73:0
     RDKit          3D

 59 62  0  0  0  0  0  0  0  0999 V2000
   58.9160   28.6820   47.3330 C   0  0  0  0  0  0  0  0  0  0  0  0
   58.4970   28.4920   45.9090 C   0  0  0  0  0  0  0  0  0  0  0  0
   58.4210   27.2810   45.2490 C   0  0  0  0  0  0  0  0  0  0  0  0
   58.0210   27.4870   43.9790 N   0  0  0  0  0  0  0  0  0  0  0  0
   57.7700   26.4560   42.9800 C   0  0  0  0  0  0  0  0  0  0  0  0
   57.8190   28.8080   43.8180 C   0  0  0  0  0  0  0  0  0  0  0  0
   58.1120   29.4730   44.9990 C   0  0  0  0  0  0  0  0  0  0  0  0
   58.0670   30.9350   45.2350 C   0  0  0  0  0  0  0  0  0  0  0  0
   59.0740   31.5180   45.9410 N   0  0  0  0  0  0  0  0  0  0  0  0
   59.1120   32.8520   46.2070 C   0  0  0  0  0  0  0  0  0  0  0  0
   60.2330   33.4010   46.9960 C   0  0  0  0  0  0  0  0  0  0  0  0
   60.1640   34.5730   47.4610 O   0  0  0  0  0  0  0  0  0  0  0  0
   61.4040   32.6060   47.2340 N   0  0  0  0  0  0  0  0  0  0  0  0
   62.3320   32.8950   48.2880 C   0  0  0  0  0  0  0  0  0  0  0  0
   63.6980   32.9840   47.9920 C   0  0  0  0  0  0  0  0  0  0  0  0
   64.5950   33.2930   48.9660 N   0  0  0  0  0  0  0  0  0  0  0  0
   64.2060   33.5120   50.2490 C   0  0  0  0  0  0  0  0  0  0  0  0
   62.8600   33.4080   50.6010 C   0  0  0  0  0  0  0  0  0  0  0  0
   61.9100   33.0830   49.6220 C   0  0  0  0  0  0  0  0  0  0  0  0
   60.5400   32.8750   50.0090 N   0  0  0  0  0  0  0  0  0  0  0  0
   59.9800   31.5170   49.9800 C   0  0  0  0  0  0  0  0  0  0  0  0
   58.6180   31.4560   50.6980 C   0  0  1  0  0  0  0  0  0  0  0  0
   58.1530   29.9990   50.8300 C   0  0  0  0  0  0  0  0  0  0  0  0
   58.7210   32.1480   52.0790 C   0  0  2  0  0  0  0  0  0  0  0  0
   57.4670   32.0930   52.7190 O   0  0  0  0  0  0  0  0  0  0  0  0
   59.2440   33.6250   51.9800 C   0  0  2  0  0  0  0  0  0  0  0  0
   58.2150   34.5910   52.3830 N   0  0  0  0  0  0  0  0  0  0  0  0
   59.7580   33.9820   50.5700 C   0  0  0  0  0  0  0  0  0  0  0  0
   58.0730   33.6730   45.7470 C   0  0  0  0  0  0  0  0  0  0  0  0
   57.0250   33.1080   45.0210 C   0  0  0  0  0  0  0  0  0  0  0  0
   57.0130   31.7360   44.7590 C   0  0  0  0  0  0  0  0  0  0  0  0
   55.9610   31.2020   44.0890 F   0  0  0  0  0  0  0  0  0  0  0  0
   58.1199   28.3210   48.0007 H   0  0  0  0  0  0  0  0  0  0  0  0
   59.8390   28.1144   47.5225 H   0  0  0  0  0  0  0  0  0  0  0  0
   59.0971   29.7503   47.5225 H   0  0  0  0  0  0  0  0  0  0  0  0
   58.6513   26.3006   45.6915 H   0  0  0  0  0  0  0  0  0  0  0  0
   57.5387   25.5059   43.4838 H   0  0  0  0  0  0  0  0  0  0  0  0
   56.9183   26.7544   42.3511 H   0  0  0  0  0  0  0  0  0  0  0  0
   58.6636   26.3295   42.3511 H   0  0  0  0  0  0  0  0  0  0  0  0
   57.4738   29.2874   42.8901 H   0  0  0  0  0  0  0  0  0  0  0  0
   61.6540   31.8600   46.5470 H   0  0  0  0  0  0  0  0  0  0  0  0
   64.0475   32.8027   46.9649 H   0  0  0  0  0  0  0  0  0  0  0  0
   64.9542   33.7720   51.0123 H   0  0  0  0  0  0  0  0  0  0  0  0
   62.5456   33.5800   51.6410 H   0  0  0  0  0  0  0  0  0  0  0  0
   59.8470   31.2068   48.9330 H   0  0  0  0  0  0  0  0  0  0  0  0
   60.6767   30.8436   50.5007 H   0  0  0  0  0  0  0  0  0  0  0  0
   57.8653   31.9937   50.1027 H   0  0  0  0  0  0  0  0  0  0  0  0
   58.0690   29.7359   51.8948 H   0  0  0  0  0  0  0  0  0  0  0  0
   57.1727   29.8816   50.3449 H   0  0  0  0  0  0  0  0  0  0  0  0
   58.8840   29.3354   50.3449 H   0  0  0  0  0  0  0  0  0  0  0  0
   59.4664   31.6043   52.6779 H   0  0  0  0  0  0  0  0  0  0  0  0
   57.4420   32.8410   53.3720 H   0  0  0  0  0  0  0  0  0  0  0  0
   60.0923   33.6870   52.6775 H   0  0  0  0  0  0  0  0  0  0  0  0
   58.2240   35.3830   51.7000 H   0  0  0  0  0  0  0  0  0  0  0  0
   57.2730   34.1480   52.2760 H   0  0  0  0  0  0  0  0  0  0  0  0
   58.8995   34.1870   49.9136 H   0  0  0  0  0  0  0  0  0  0  0  0
   60.4028   34.8702   50.6424 H   0  0  0  0  0  0  0  0  0  0  0  0
   58.0843   34.7528   45.9568 H   0  0  0  0  0  0  0  0  0  0  0  0
   56.2061   33.7441   44.6539 H   0  0  0  0  0  0  0  0  0  0  0  0
  1  2  1  0
  2  3  2  0
  3  4  1  0
  4  5  1  0
  4  6  1  0
  6  7  2  0
  7  8  1  0
  8  9  2  0
  9 10  1  0
 10 11  1  0
 11 12  2  0
 11 13  1  0
 13 14  1  0
 14 15  2  0
 15 16  1  0
 16 17  2  0
 17 18  1  0
 18 19  2  0
 19 20  1  0
 20 21  1  0
 21 22  1  0
 22 23  1  0
 22 24  1  0
 24 25  1  0
 24 26  1  0
 26 27  1  0
 26 28  1  0
 10 29  2  0
 29 30  1  0
 30 31  2  0
 31 32  1  0
  7  2  1  0
 31  8  1  0
 19 14  1  0
 28 20  1  0
  1 33  1  0
  1 34  1  0
  1 35  1  0
  3 36  1  0
  5 37  1  0
  5 38  1  0
  5 39  1  0
  6 40  1  0
 13 41  1  0
 15 42  1  0
 17 43  1  0
 18 44  1  0
 21 45  1  0
 21 46  1  0
 22 47  1  6
 23 48  1  0
 23 49  1  0
 23 50  1  0
 24 51  1  1
 25 52  1  0
 26 53  1  1
 27 54  1  0
 27 55  1  0
 28 56  1  0
 28 57  1  0
 29 58  1  0
 30 59  1  0
M  END
>  <UniqueID>  (73) 
71

>  <SMILES>  (73) 
Cc1cn(C)cc1-c1nc(C(=O)Nc2cnccc2N2CC(N)[C@@H](O)[C@H](C)C2)ccc1F

>  <Energy>  (73) 
101.2748615766387

>  <Genealogy>  (73) 
Cc1cn(C)cc1-c1nc(C(=O)Nc2cnccc2N2CC(N)[C@@H](O)[C@H](C)C2)ccc1F (chirality)
Cc1cn(C)cc1-c1nc(C(=O)Nc2cnccc2N2CC(N)[C@@H](O)[C@H](C)C2)ccc1F (3D coordinates assigned)
Cc1cn(C)cc1-c1nc(C(=O)Nc2cnccc2N2CC(N)[C@@H](O)[C@H](C)C2)ccc1F (nonaromatic ring conformer: 101.2748615766387 kcal/mol)

>  <smiles>  (73) 
Cc1cn(C)cc1-c1nc(C(=O)Nc2cnccc2N2CC(C)C(O)C(N)C2)ccc1F

>  <score_type>  (73) 
oracle

>  <origin>  (73) 
adg

>  <m_score__min__energy>  (73) 
-8.2400000000000002

>  <m_primary>  (73) 
energy

$$$$
74:0
     RDKit          3D

 62 66  0  0  0  0  0  0  0  0999 V2000
   58.7710   28.3950   48.6930 O   0  0  0  0  0  0  0  0  0  0  0  0
   59.2960   29.2130   47.8890 C   0  0  0  0  0  0  0  0  0  0  0  0
   59.8770   30.4830   48.4200 C   0  0  0  0  0  0  0  0  0  0  0  0
   58.5440   31.7030   48.6480 S   0  0  0  0  0  0  0  0  0  0  0  0
   58.4210   32.0700   46.8890 C   0  0  0  0  0  0  0  0  0  0  0  0
   57.7660   31.1730   46.1090 N   0  0  0  0  0  0  0  0  0  0  0  0
   57.6150   31.3620   44.7780 C   0  0  0  0  0  0  0  0  0  0  0  0
   56.9380   30.4100   44.0080 C   0  0  0  0  0  0  0  0  0  0  0  0
   56.7780   30.6060   42.6330 C   0  0  0  0  0  0  0  0  0  0  0  0
   57.2960   31.7540   42.0260 C   0  0  0  0  0  0  0  0  0  0  0  0
   57.9730   32.7100   42.7900 C   0  0  0  0  0  0  0  0  0  0  0  0
   58.1380   32.5190   44.1740 C   0  0  0  0  0  0  0  0  0  0  0  0
   58.8080   33.4490   44.9890 C   0  0  0  0  0  0  0  0  0  0  0  0
   59.2720   34.5040   44.4720 O   0  0  0  0  0  0  0  0  0  0  0  0
   58.9540   33.2140   46.3360 N   0  0  0  0  0  0  0  0  0  0  0  0
   59.6340   34.2160   47.1870 C   0  0  0  0  0  0  0  0  0  0  0  0
   61.1590   34.0350   47.1300 C   0  0  1  0  0  0  0  0  0  0  0  0
   61.7770   34.0310   48.5170 C   0  0  0  0  0  0  0  0  0  0  0  0
   62.9780   33.1580   48.3330 C   0  0  0  0  0  0  0  0  0  0  0  0
   62.5800   32.2600   47.1770 C   0  0  0  0  0  0  0  0  0  0  0  0
   61.4840   32.8210   46.4910 O   0  0  0  0  0  0  0  0  0  0  0  0
   59.2550   28.9790   46.4730 N   0  0  0  0  0  0  0  0  0  0  0  0
   58.8510   27.7350   45.8760 C   0  0  0  0  0  0  0  0  0  0  0  0
   58.2380   27.6930   44.6120 C   0  0  0  0  0  0  0  0  0  0  0  0
   57.8370   26.4720   44.0610 C   0  0  0  0  0  0  0  0  0  0  0  0
   58.0250   25.2750   44.7700 C   0  0  0  0  0  0  0  0  0  0  0  0
   57.6220   24.0180   44.1940 N   0  0  0  0  0  0  0  0  0  0  0  0
   58.1810   22.7570   44.6990 C   0  0  0  0  0  0  0  0  0  0  0  0
   57.1380   21.6170   44.6470 C   0  0  0  0  0  0  0  0  0  0  0  0
   55.9330   21.9760   43.9920 O   0  0  0  0  0  0  0  0  0  0  0  0
   56.2200   22.5940   42.7560 C   0  0  0  0  0  0  0  0  0  0  0  0
   56.7610   24.0030   43.0050 C   0  0  0  0  0  0  0  0  0  0  0  0
   58.6230   25.3200   46.0400 C   0  0  0  0  0  0  0  0  0  0  0  0
   59.0210   26.5410   46.5920 C   0  0  0  0  0  0  0  0  0  0  0  0
   60.3663   30.2881   49.3857 H   0  0  0  0  0  0  0  0  0  0  0  0
   60.6190   30.8753   47.7090 H   0  0  0  0  0  0  0  0  0  0  0  0
   56.5311   29.5062   44.4850 H   0  0  0  0  0  0  0  0  0  0  0  0
   56.2447   29.8572   42.0289 H   0  0  0  0  0  0  0  0  0  0  0  0
   57.1706   31.9058   40.9438 H   0  0  0  0  0  0  0  0  0  0  0  0
   58.3770   33.6125   42.3081 H   0  0  0  0  0  0  0  0  0  0  0  0
   59.3770   35.2249   46.8318 H   0  0  0  0  0  0  0  0  0  0  0  0
   59.3012   34.0799   48.2266 H   0  0  0  0  0  0  0  0  0  0  0  0
   61.5638   34.8860   46.5627 H   0  0  0  0  0  0  0  0  0  0  0  0
   62.0669   35.0461   48.8261 H   0  0  0  0  0  0  0  0  0  0  0  0
   61.0924   33.6759   49.3014 H   0  0  0  0  0  0  0  0  0  0  0  0
   63.8656   33.7565   48.0801 H   0  0  0  0  0  0  0  0  0  0  0  0
   63.2477   32.5985   49.2408 H   0  0  0  0  0  0  0  0  0  0  0  0
   63.4294   32.1569   46.4857 H   0  0  0  0  0  0  0  0  0  0  0  0
   62.2966   31.2711   47.5666 H   0  0  0  0  0  0  0  0  0  0  0  0
   59.4410   29.7900   45.8420 H   0  0  0  0  0  0  0  0  0  0  0  0
   58.0727   28.6259   44.0530 H   0  0  0  0  0  0  0  0  0  0  0  0
   57.3709   26.4492   43.0649 H   0  0  0  0  0  0  0  0  0  0  0  0
   59.0479   22.4774   44.0823 H   0  0  0  0  0  0  0  0  0  0  0  0
   58.4795   22.9057   45.7472 H   0  0  0  0  0  0  0  0  0  0  0  0
   57.5824   20.7639   44.1134 H   0  0  0  0  0  0  0  0  0  0  0  0
   56.8776   21.3721   45.6873 H   0  0  0  0  0  0  0  0  0  0  0  0
   56.9735   22.0019   42.2160 H   0  0  0  0  0  0  0  0  0  0  0  0
   55.3015   22.6546   42.1538 H   0  0  0  0  0  0  0  0  0  0  0  0
   57.3447   24.3268   42.1307 H   0  0  0  0  0  0  0  0  0  0  0  0
   55.9147   24.6864   43.1687 H   0  0  0  0  0  0  0  0  0  0  0  0
   58.7792   24.3885   46.6039 H   0  0  0  0  0  0  0  0  0  0  0  0
   59.4709   26.5656   47.5955 H   0  0  0  0  0  0  0  0  0  0  0  0
  1  2  2  0
  2  3  1  0
  3  4  1  0
  4  5  1  0
  5  6  2  0
  6  7  1  0
  7  8  2  0
  8  9  1  0
  9 10  2  0
 10 11  1  0
 11 12  2  0
 12 13  1  0
 13 14  2  0
 13 15  1  0
 15 16  1  0
 16 17  1  0
 17 18  1  0
 18 19  1  0
 19 20  1  0
 20 21  1  0
  2 22  1  0
 22 23  1  0
 23 24  2  0
 24 25  1  0
 25 26  2  0
 26 27  1  0
 27 28  1  0
 28 29  1  0
 29 30  1  0
 30 31  1  0
 31 32  1  0
 26 33  1  0
 33 34  2  0
 15  5  1  0
 21 17  1  0
 34 23  1  0
 12  7  1  0
 32 27  1  0
  3 35  1  0
  3 36  1  0
  8 37  1  0
  9 38  1  0
 10 39  1  0
 11 40  1  0
 16 41  1  0
 16 42  1  0
 17 43  1  6
 18 44  1  0
 18 45  1  0
 19 46  1  0
 19 47  1  0
 20 48  1  0
 20 49  1  0
 22 50  1  0
 24 51  1  0
 25 52  1  0
 28 53  1  0
 28 54  1  0
 29 55  1  0
 29 56  1  0
 31 57  1  0
 31 58  1  0
 32 59  1  0
 32 60  1  0
 33 61  1  0
 34 62  1  0
M  END
>  <UniqueID>  (74) 
72

>  <SMILES>  (74) 
O=C(CSc1nc2ccccc2c(=O)n1C[C@H]1CCCO1)Nc1ccc(N2CCOCC2)cc1

>  <Energy>  (74) 
81.21116782556687

>  <Genealogy>  (74) 
O=C(CSc1nc2ccccc2c(=O)n1C[C@H]1CCCO1)Nc1ccc(N2CCOCC2)cc1 (chirality)
O=C(CSc1nc2ccccc2c(=O)n1C[C@H]1CCCO1)Nc1ccc(N2CCOCC2)cc1 (3D coordinates assigned)
O=C(CSc1nc2ccccc2c(=O)n1C[C@H]1CCCO1)Nc1ccc(N2CCOCC2)cc1 (nonaromatic ring conformer: 81.21116782556687 kcal/mol)

>  <smiles>  (74) 
O=C(CSc1nc2ccccc2c(=O)n1CC1CCCO1)Nc1ccc(N2CCOCC2)cc1

>  <score_type>  (74) 
oracle

>  <origin>  (74) 
adg

>  <m_score__min__energy>  (74) 
-9.6099999999999994

>  <m_primary>  (74) 
energy

$$$$
75:0
     RDKit          3D

 44 46  0  0  0  0  0  0  0  0999 V2000
   55.5270   29.5820   43.0060 O   0  0  0  0  0  0  0  0  0  0  0  0
   56.3280   29.5050   43.9750 C   0  0  0  0  0  0  0  0  0  0  0  0
   57.7260   30.0450   43.8230 C   0  0  0  0  0  0  0  0  0  0  0  0
   57.9350   31.2030   44.7140 N   0  0  0  0  0  0  0  0  0  0  0  0
   56.9860   32.1930   44.6930 C   0  0  0  0  0  0  0  0  0  0  0  0
   57.0990   33.3140   45.5130 C   0  0  0  0  0  0  0  0  0  0  0  0
   58.1840   33.4270   46.3730 C   0  0  0  0  0  0  0  0  0  0  0  0
   59.1430   32.4180   46.4150 C   0  0  0  0  0  0  0  0  0  0  0  0
   60.2190   32.5390   47.2900 O   0  0  0  0  0  0  0  0  0  0  0  0
   59.0100   31.2940   45.5770 C   0  0  0  0  0  0  0  0  0  0  0  0
   60.1510   30.1070   45.6720 S   0  0  0  0  0  0  0  0  0  0  0  0
   55.8890   28.8650   45.1810 N   0  0  0  0  0  0  0  0  0  0  0  0
   56.6090   27.8740   45.9310 C   0  0  0  0  0  0  0  0  0  0  0  0
   57.8580   28.1590   46.5080 C   0  0  0  0  0  0  0  0  0  0  0  0
   58.5310   27.1860   47.2610 C   0  0  0  0  0  0  0  0  0  0  0  0
   60.1040   27.5480   47.9760 S   0  0  0  0  0  0  0  0  0  0  0  0
   61.0920   27.8290   46.8770 O   0  0  0  0  0  0  0  0  0  0  0  0
   60.5870   26.3430   48.7370 O   0  0  0  0  0  0  0  0  0  0  0  0
   60.0310   28.9190   49.0550 N   0  0  0  0  0  0  0  0  0  0  0  0
   58.9000   29.7900   48.7060 C   0  0  0  0  0  0  0  0  0  0  0  0
   58.8410   30.9890   49.6770 C   0  0  0  0  0  0  0  0  0  0  0  0
   59.9610   31.0320   50.5450 O   0  0  0  0  0  0  0  0  0  0  0  0
   61.1550   31.0040   49.7870 C   0  0  0  0  0  0  0  0  0  0  0  0
   61.2900   29.6800   49.0070 C   0  0  0  0  0  0  0  0  0  0  0  0
   57.9420   25.9300   47.4520 C   0  0  0  0  0  0  0  0  0  0  0  0
   56.6860   25.6530   46.9060 C   0  0  0  0  0  0  0  0  0  0  0  0
   56.0170   26.6230   46.1540 C   0  0  0  0  0  0  0  0  0  0  0  0
   54.7640   26.3350   45.6230 O   0  0  0  0  0  0  0  0  0  0  0  0
   58.4482   29.2561   44.0799 H   0  0  0  0  0  0  0  0  0  0  0  0
   57.8702   30.3682   42.7815 H   0  0  0  0  0  0  0  0  0  0  0  0
   56.1222   32.1006   44.0183 H   0  0  0  0  0  0  0  0  0  0  0  0
   56.3343   34.1040   45.4795 H   0  0  0  0  0  0  0  0  0  0  0  0
   58.2855   34.3113   47.0193 H   0  0  0  0  0  0  0  0  0  0  0  0
   58.3108   29.1517   46.3682 H   0  0  0  0  0  0  0  0  0  0  0  0
   59.0278   30.1593   47.6778 H   0  0  0  0  0  0  0  0  0  0  0  0
   57.9644   29.2164   48.7815 H   0  0  0  0  0  0  0  0  0  0  0  0
   58.8121   31.9189   49.0900 H   0  0  0  0  0  0  0  0  0  0  0  0
   57.9386   30.8775   50.2961 H   0  0  0  0  0  0  0  0  0  0  0  0
   61.1468   31.8414   49.0737 H   0  0  0  0  0  0  0  0  0  0  0  0
   62.0075   31.0902   50.4768 H   0  0  0  0  0  0  0  0  0  0  0  0
   61.5384   29.9019   47.9586 H   0  0  0  0  0  0  0  0  0  0  0  0
   62.0863   29.0770   49.4677 H   0  0  0  0  0  0  0  0  0  0  0  0
   58.4695   25.1594   48.0334 H   0  0  0  0  0  0  0  0  0  0  0  0
   56.2223   24.6688   47.0684 H   0  0  0  0  0  0  0  0  0  0  0  0
  1  2  2  0
  2  3  1  0
  3  4  1  0
  4  5  1  0
  5  6  2  0
  6  7  1  0
  7  8  2  0
  8  9  1  0
  8 10  1  0
 10 11  2  0
  2 12  1  0
 12 13  1  0
 13 14  2  0
 14 15  1  0
 15 16  1  0
 16 17  2  0
 16 18  2  0
 16 19  1  0
 19 20  1  0
 20 21  1  0
 21 22  1  0
 22 23  1  0
 23 24  1  0
 15 25  2  0
 25 26  1  0
 26 27  2  0
 27 28  1  0
 10  4  1  0
 27 13  1  0
 24 19  1  0
  3 29  1  0
  3 30  1  0
  5 31  1  0
  6 32  1  0
  7 33  1  0
 14 34  1  0
 20 35  1  0
 20 36  1  0
 21 37  1  0
 21 38  1  0
 23 39  1  0
 23 40  1  0
 24 41  1  0
 24 42  1  0
 25 43  1  0
 26 44  1  0
M  CHG  3   9  -1  12  -1  28  -1
M  END
>  <UniqueID>  (75) 
73

>  <SMILES>  (75) 
O=C(Cn1cccc([O-])c1=S)[N-]c1cc(S(=O)(=O)N2CCOCC2)ccc1[O-]

>  <Energy>  (75) 
62.79652075957358

>  <Genealogy>  (75) 
O=C(Cn1cccc([O-])c1=S)[N-]c1cc(S(=O)(=O)N2CCOCC2)ccc1[O-] (protonated)
O=C(Cn1cccc([O-])c1=S)[N-]c1cc(S(=O)(=O)N2CCOCC2)ccc1[O-] (3D coordinates assigned)
O=C(Cn1cccc([O-])c1=S)[N-]c1cc(S(=O)(=O)N2CCOCC2)ccc1[O-] (nonaromatic ring conformer: 62.79652075957358 kcal/mol)

>  <smiles>  (75) 
O=C(Cn1cccc(O)c1=S)Nc1cc(S(=O)(=O)N2CCOCC2)ccc1O

>  <score_type>  (75) 
oracle

>  <origin>  (75) 
adg

>  <m_score__min__energy>  (75) 
-14.24

>  <m_primary>  (75) 
energy

$$$$
76:0
     RDKit          3D

 35 36  0  0  0  0  0  0  0  0999 V2000
   55.7329   29.6731   43.6892 H   0  0  0  0  0  0  0  0  0  0  0  0
   56.5080   29.9220   44.4290 C   0  0  0  0  0  0  0  0  0  0  0  0
   56.6220   31.1500   44.8380 N   0  0  0  0  0  0  0  0  0  0  0  0
   57.3740   32.1910   44.1920 C   0  0  0  0  0  0  0  0  0  0  0  0
   57.3880   33.7350   44.7550 S   0  0  0  0  0  0  0  0  0  0  0  0
   58.1310   31.8710   43.0260 N   0  0  0  0  0  0  0  0  0  0  0  0
   58.6880   32.6030   42.5320 H   0  0  0  0  0  0  0  0  0  0  0  0
   58.1340   30.8960   42.6540 H   0  0  0  0  0  0  0  0  0  0  0  0
   57.4010   28.8420   44.9370 C   0  0  0  0  0  0  0  0  0  0  0  0
   56.9020   27.6590   45.5150 C   0  0  0  0  0  0  0  0  0  0  0  0
   55.5260   27.4670   45.6200 O   0  0  0  0  0  0  0  0  0  0  0  0
   57.7600   26.6990   45.9820 N   0  0  0  0  0  0  0  0  0  0  0  0
   57.2240   25.4520   46.5700 C   0  0  0  0  0  0  0  0  0  0  0  0
   58.0406   24.9032   47.0620 H   0  0  0  0  0  0  0  0  0  0  0  0
   56.4456   25.7095   47.3033 H   0  0  0  0  0  0  0  0  0  0  0  0
   56.6170   24.5830   45.4980 C   0  0  0  0  0  0  0  0  0  0  0  0
   57.4290   24.0180   44.4990 C   0  0  0  0  0  0  0  0  0  0  0  0
   58.5083   24.2302   44.4862 H   0  0  0  0  0  0  0  0  0  0  0  0
   56.8720   23.1880   43.5220 C   0  0  0  0  0  0  0  0  0  0  0  0
   57.5128   22.7508   42.7421 H   0  0  0  0  0  0  0  0  0  0  0  0
   55.5020   22.9130   43.5350 C   0  0  0  0  0  0  0  0  0  0  0  0
   55.0649   22.2603   42.7650 H   0  0  0  0  0  0  0  0  0  0  0  0
   54.6870   23.4670   44.5260 C   0  0  0  0  0  0  0  0  0  0  0  0
   53.6088   23.2492   44.5360 H   0  0  0  0  0  0  0  0  0  0  0  0
   55.2410   24.2980   45.5050 C   0  0  0  0  0  0  0  0  0  0  0  0
   54.5964   24.7306   46.2843 H   0  0  0  0  0  0  0  0  0  0  0  0
   59.1170   26.8770   45.8760 C   0  0  0  0  0  0  0  0  0  0  0  0
   59.9000   25.9940   46.3280 O   0  0  0  0  0  0  0  0  0  0  0  0
   59.6300   28.0020   45.2880 N   0  0  0  0  0  0  0  0  0  0  0  0
   61.0920   28.1840   45.2030 C   0  0  0  0  0  0  0  0  0  0  0  0
   61.5145   28.2366   46.2172 H   0  0  0  0  0  0  0  0  0  0  0  0
   61.5366   27.3343   44.6642 H   0  0  0  0  0  0  0  0  0  0  0  0
   61.3147   29.1168   44.6642 H   0  0  0  0  0  0  0  0  0  0  0  0
   58.7940   28.9920   44.8460 C   0  0  0  0  0  0  0  0  0  0  0  0
   59.2750   30.0530   44.3550 O   0  0  0  0  0  0  0  0  0  0  0  0
  1  2  1  0
  2  3  2  0
  3  4  1  0
  4  5  2  0
  4  6  1  0
  6  7  1  0
  6  8  1  0
  2  9  1  0
  9 10  2  0
 10 11  1  0
 10 12  1  0
 12 13  1  0
 13 14  1  0
 13 15  1  0
 13 16  1  0
 16 17  2  0
 17 18  1  0
 17 19  1  0
 19 20  1  0
 19 21  2  0
 21 22  1  0
 21 23  1  0
 23 24  1  0
 23 25  2  0
 25 26  1  0
 12 27  1  0
 27 28  2  0
 27 29  1  0
 29 30  1  0
 30 31  1  0
 30 32  1  0
 30 33  1  0
 29 34  1  0
 34 35  2  0
 34  9  1  0
 25 16  1  0
M  CHG  1  11  -1
M  END
>  <UniqueID>  (76) 
74

>  <SMILES>  (76) 
Cn1c(=O)c(/C=N/C(N)=S)c([O-])n(Cc2ccccc2)c1=O

>  <Energy>  (76) 
45.58634531758932

>  <Genealogy>  (76) 
Cn1c(=O)c(C=NC(N)=S)c([O-])n(Cc2ccccc2)c1=O (protonated)
Cn1c(=O)c(/C=N/C(N)=S)c([O-])n(Cc2ccccc2)c1=O (cis-trans isomerization)
Cn1c(=O)c(/C=N/C(N)=S)c([O-])n(Cc2ccccc2)c1=O (3D coordinates assigned)
Cn1c(=O)c(/C=N/C(N)=S)c([O-])n(Cc2ccccc2)c1=O (optimized conformer: 45.58634531758932 kcal/mol)

>  <smiles>  (76) 
Cn1c(=O)c(C=NC(N)=S)c(O)n(Cc2ccccc2)c1=O

>  <score_type>  (76) 
oracle

>  <origin>  (76) 
adg

>  <m_score__min__energy>  (76) 
-10.43

>  <m_primary>  (76) 
energy

$$$$
77:0
     RDKit          3D

 46 48  0  0  0  0  0  0  0  0999 V2000
   60.2140   27.0980   45.6410 H   0  0  0  0  0  0  0  0  0  0  0  0
   59.7010   26.3060   45.2730 O   0  0  0  0  0  0  0  0  0  0  0  0
   58.4970   25.8600   45.8220 C   0  0  0  0  0  0  0  0  0  0  0  0
   58.5190   24.7100   46.6200 C   0  0  0  0  0  0  0  0  0  0  0  0
   59.4715   24.1918   46.8050 H   0  0  0  0  0  0  0  0  0  0  0  0
   57.3400   24.2160   47.1830 C   0  0  0  0  0  0  0  0  0  0  0  0
   57.3720   23.0700   47.9690 O   0  0  0  0  0  0  0  0  0  0  0  0
   56.1300   24.8760   46.9600 C   0  0  0  0  0  0  0  0  0  0  0  0
   55.2029   24.4853   47.4047 H   0  0  0  0  0  0  0  0  0  0  0  0
   56.0920   26.0310   46.1740 C   0  0  0  0  0  0  0  0  0  0  0  0
   54.8810   26.6920   46.0030 O   0  0  0  0  0  0  0  0  0  0  0  0
   57.2740   26.5240   45.5810 C   0  0  0  0  0  0  0  0  0  0  0  0
   57.2410   27.7610   44.7670 C   0  0  0  0  0  0  0  0  0  0  0  0
   56.6823   27.7408   43.8196 H   0  0  0  0  0  0  0  0  0  0  0  0
   57.8540   28.9110   45.1160 C   0  0  0  0  0  0  0  0  0  0  0  0
   57.0590   30.1610   45.2420 C   0  0  0  0  0  0  0  0  0  0  0  0
   56.0700   30.3340   44.4800 O   0  0  0  0  0  0  0  0  0  0  0  0
   57.4120   31.2190   46.1470 N   0  0  0  0  0  0  0  0  0  0  0  0
   58.0230   32.4750   45.8190 C   0  0  0  0  0  0  0  0  0  0  0  0
   58.1980   33.4270   46.8320 C   0  0  0  0  0  0  0  0  0  0  0  0
   57.8589   33.2055   47.8547 H   0  0  0  0  0  0  0  0  0  0  0  0
   58.8010   34.6570   46.5510 C   0  0  0  0  0  0  0  0  0  0  0  0
   58.9247   35.4038   47.3491 H   0  0  0  0  0  0  0  0  0  0  0  0
   59.2470   34.9380   45.2550 C   0  0  0  0  0  0  0  0  0  0  0  0
   59.7138   35.9087   45.0318 H   0  0  0  0  0  0  0  0  0  0  0  0
   59.0990   33.9850   44.2450 C   0  0  0  0  0  0  0  0  0  0  0  0
   59.4567   34.2031   43.2279 H   0  0  0  0  0  0  0  0  0  0  0  0
   58.4970   32.7540   44.5240 C   0  0  0  0  0  0  0  0  0  0  0  0
   58.3937   32.0014   43.7284 H   0  0  0  0  0  0  0  0  0  0  0  0
   59.2630   28.9150   45.5890 C   0  0  0  0  0  0  0  0  0  0  0  0
   60.1910   29.0970   44.7570 O   0  0  0  0  0  0  0  0  0  0  0  0
   59.6100   28.6890   46.9610 N   0  0  0  0  0  0  0  0  0  0  0  0
   59.2780   29.5770   48.0670 C   0  0  0  0  0  0  0  0  0  0  0  0
   58.2340   29.9097   47.9705 H   0  0  0  0  0  0  0  0  0  0  0  0
   59.4033   29.0419   49.0199 H   0  0  0  0  0  0  0  0  0  0  0  0
   60.1890   30.7690   48.0360 C   0  0  0  0  0  0  0  0  0  0  0  0
   61.2640   30.8150   47.1330 C   0  0  0  0  0  0  0  0  0  0  0  0
   61.4241   29.9856   46.4284 H   0  0  0  0  0  0  0  0  0  0  0  0
   62.1320   31.9130   47.1270 C   0  0  0  0  0  0  0  0  0  0  0  0
   62.9672   31.9496   46.4121 H   0  0  0  0  0  0  0  0  0  0  0  0
   61.9380   32.9630   48.0290 C   0  0  0  0  0  0  0  0  0  0  0  0
   62.6178   33.8278   48.0202 H   0  0  0  0  0  0  0  0  0  0  0  0
   60.8810   32.9150   48.9420 C   0  0  0  0  0  0  0  0  0  0  0  0
   60.7326   33.7399   49.6544 H   0  0  0  0  0  0  0  0  0  0  0  0
   60.0120   31.8200   48.9510 C   0  0  0  0  0  0  0  0  0  0  0  0
   59.1867   31.7813   49.6772 H   0  0  0  0  0  0  0  0  0  0  0  0
  1  2  1  0
  2  3  1  0
  3  4  2  0
  4  5  1  0
  4  6  1  0
  6  7  1  0
  6  8  2  0
  8  9  1  0
  8 10  1  0
 10 11  1  0
 10 12  2  0
 12 13  1  0
 13 14  1  0
 13 15  2  0
 15 16  1  0
 16 17  2  0
 16 18  1  0
 18 19  1  0
 19 20  2  0
 20 21  1  0
 20 22  1  0
 22 23  1  0
 22 24  2  0
 24 25  1  0
 24 26  1  0
 26 27  1  0
 26 28  2  0
 28 29  1  0
 15 30  1  0
 30 31  2  0
 30 32  1  0
 32 33  1  0
 33 34  1  0
 33 35  1  0
 33 36  1  0
 36 37  2  0
 37 38  1  0
 37 39  1  0
 39 40  1  0
 39 41  2  0
 41 42  1  0
 41 43  1  0
 43 44  1  0
 43 45  2  0
 45 46  1  0
 12  3  1  0
 28 19  1  0
 45 36  1  0
M  CHG  4   7  -1  11  -1  18  -1  32  -1
M  END
>  <UniqueID>  (77) 
75

>  <SMILES>  (77) 
O=C([N-]Cc1ccccc1)/C(=C\c1c([O-])cc([O-])cc1O)C(=O)[N-]c1ccccc1

>  <Energy>  (77) 
65.84400216672213

>  <Genealogy>  (77) 
O=C([N-]Cc1ccccc1)C(=Cc1c([O-])cc([O-])cc1O)C(=O)[N-]c1ccccc1 (protonated)
O=C([N-]Cc1ccccc1)/C(=C\c1c([O-])cc([O-])cc1O)C(=O)[N-]c1ccccc1 (cis-trans isomerization)
O=C([N-]Cc1ccccc1)/C(=C\c1c([O-])cc([O-])cc1O)C(=O)[N-]c1ccccc1 (3D coordinates assigned)
O=C([N-]Cc1ccccc1)/C(=C\c1c([O-])cc([O-])cc1O)C(=O)[N-]c1ccccc1 (optimized conformer: 65.84400216672213 kcal/mol)

>  <smiles>  (77) 
O=C(NCc1ccccc1)C(=Cc1c(O)cc(O)cc1O)C(=O)Nc1ccccc1

>  <score_type>  (77) 
oracle

>  <origin>  (77) 
adg

>  <m_score__min__energy>  (77) 
-16.140000000000001

>  <m_primary>  (77) 
energy

$$$$
78:0
     RDKit          3D

 51 54  0  0  0  0  0  0  0  0999 V2000
   55.8820   29.2180   44.9590 O   0  0  0  0  0  0  0  0  0  0  0  0
   56.9020   29.1640   44.2240 C   0  0  0  0  0  0  0  0  0  0  0  0
   57.1470   30.2580   43.2220 C   0  0  0  0  0  0  0  0  0  0  0  0
   57.5970   31.4700   43.9030 N   0  0  0  0  0  0  0  0  0  0  0  0
   57.6790   31.6870   45.2270 C   0  0  0  0  0  0  0  0  0  0  0  0
   57.3980   30.7280   46.2020 O   0  0  0  0  0  0  0  0  0  0  0  0
   58.0910   32.9870   45.4420 C   0  0  0  0  0  0  0  0  0  0  0  0
   58.3460   33.6250   46.7780 C   0  0  0  0  0  0  0  0  0  0  0  0
   59.8160   33.6550   47.1070 C   0  0  0  0  0  0  0  0  0  0  0  0
   60.7690   33.8060   46.0840 C   0  0  0  0  0  0  0  0  0  0  0  0
   62.1310   33.8810   46.3950 C   0  0  0  0  0  0  0  0  0  0  0  0
   62.5500   33.8140   47.7280 C   0  0  0  0  0  0  0  0  0  0  0  0
   61.6070   33.6770   48.7510 C   0  0  0  0  0  0  0  0  0  0  0  0
   60.2440   33.6010   48.4450 C   0  0  0  0  0  0  0  0  0  0  0  0
   58.2940   33.5930   44.2480 N   0  0  0  0  0  0  0  0  0  0  0  0
   57.9760   32.6400   43.3460 C   0  0  0  0  0  0  0  0  0  0  0  0
   58.0290   32.8320   42.1020 O   0  0  0  0  0  0  0  0  0  0  0  0
   57.8530   28.1130   44.4340 N   0  0  0  0  0  0  0  0  0  0  0  0
   57.7530   27.1340   45.4740 C   0  0  0  0  0  0  0  0  0  0  0  0
   56.9620   25.9980   45.2540 C   0  0  0  0  0  0  0  0  0  0  0  0
   56.7960   25.0470   46.2640 C   0  0  0  0  0  0  0  0  0  0  0  0
   57.4360   25.2150   47.4930 C   0  0  0  0  0  0  0  0  0  0  0  0
   58.2570   26.3250   47.7120 C   0  0  0  0  0  0  0  0  0  0  0  0
   58.4350   27.2890   46.7040 C   0  0  0  0  0  0  0  0  0  0  0  0
   59.3570   28.3770   46.9120 N   0  0  0  0  0  0  0  0  0  0  0  0
   60.2760   28.8660   45.8940 C   0  0  0  0  0  0  0  0  0  0  0  0
   60.7800   30.2100   46.4040 C   0  0  0  0  0  0  0  0  0  0  0  0
   60.4240   30.2550   47.8880 C   0  0  0  0  0  0  0  0  0  0  0  0
   59.2950   29.2510   48.0730 C   0  0  0  0  0  0  0  0  0  0  0  0
   57.9194   29.9327   42.5095 H   0  0  0  0  0  0  0  0  0  0  0  0
   56.2105   30.4723   42.6862 H   0  0  0  0  0  0  0  0  0  0  0  0
   56.5950   30.1180   46.1260 H   0  0  0  0  0  0  0  0  0  0  0  0
   57.9631   34.6561   46.7601 H   0  0  0  0  0  0  0  0  0  0  0  0
   57.8334   33.0288   47.5473 H   0  0  0  0  0  0  0  0  0  0  0  0
   60.4424   33.8654   45.0353 H   0  0  0  0  0  0  0  0  0  0  0  0
   62.8730   33.9927   45.5907 H   0  0  0  0  0  0  0  0  0  0  0  0
   63.6213   33.8691   47.9713 H   0  0  0  0  0  0  0  0  0  0  0  0
   61.9375   33.6288   49.7991 H   0  0  0  0  0  0  0  0  0  0  0  0
   59.5052   33.4987   49.2535 H   0  0  0  0  0  0  0  0  0  0  0  0
   56.4693   25.8544   44.2810 H   0  0  0  0  0  0  0  0  0  0  0  0
   56.1609   24.1658   46.0906 H   0  0  0  0  0  0  0  0  0  0  0  0
   57.2939   24.4718   48.2915 H   0  0  0  0  0  0  0  0  0  0  0  0
   58.7671   26.4451   48.6792 H   0  0  0  0  0  0  0  0  0  0  0  0
   61.1145   28.1656   45.7661 H   0  0  0  0  0  0  0  0  0  0  0  0
   59.7833   28.9623   44.9152 H   0  0  0  0  0  0  0  0  0  0  0  0
   61.8691   30.2863   46.2694 H   0  0  0  0  0  0  0  0  0  0  0  0
   60.3249   31.0469   45.8541 H   0  0  0  0  0  0  0  0  0  0  0  0
   61.2933   29.9712   48.4994 H   0  0  0  0  0  0  0  0  0  0  0  0
   60.1235   31.2654   48.2023 H   0  0  0  0  0  0  0  0  0  0  0  0
   59.4422   28.6731   48.9973 H   0  0  0  0  0  0  0  0  0  0  0  0
   58.3173   29.7479   48.1576 H   0  0  0  0  0  0  0  0  0  0  0  0
  1  2  2  0
  2  3  1  0
  3  4  1  0
  4  5  1  0
  5  6  1  0
  5  7  2  0
  7  8  1  0
  8  9  1  0
  9 10  2  0
 10 11  1  0
 11 12  2  0
 12 13  1  0
 13 14  2  0
  7 15  1  0
 15 16  1  0
 16 17  2  0
  2 18  1  0
 18 19  1  0
 19 20  2  0
 20 21  1  0
 21 22  2  0
 22 23  1  0
 23 24  2  0
 24 25  1  0
 25 26  1  0
 26 27  1  0
 27 28  1  0
 28 29  1  0
 16  4  1  0
 24 19  1  0
 29 25  1  0
 14  9  1  0
  3 30  1  0
  3 31  1  0
  6 32  1  0
  8 33  1  0
  8 34  1  0
 10 35  1  0
 11 36  1  0
 12 37  1  0
 13 38  1  0
 14 39  1  0
 20 40  1  0
 21 41  1  0
 22 42  1  0
 23 43  1  0
 26 44  1  0
 26 45  1  0
 27 46  1  0
 27 47  1  0
 28 48  1  0
 28 49  1  0
 29 50  1  0
 29 51  1  0
M  CHG  2  15  -1  18  -1
M  END
>  <UniqueID>  (78) 
76

>  <SMILES>  (78) 
O=C(Cn1c(O)c(Cc2ccccc2)[n-]c1=O)[N-]c1ccccc1N1CCCC1

>  <Energy>  (78) 
93.79928035710725

>  <Genealogy>  (78) 
O=C(Cn1c(O)c(Cc2ccccc2)[n-]c1=O)[N-]c1ccccc1N1CCCC1 (protonated)
O=C(Cn1c(O)c(Cc2ccccc2)[n-]c1=O)[N-]c1ccccc1N1CCCC1 (3D coordinates assigned)
O=C(Cn1c(O)c(Cc2ccccc2)[n-]c1=O)[N-]c1ccccc1N1CCCC1 (nonaromatic ring conformer: 93.79928035710725 kcal/mol)

>  <smiles>  (78) 
O=C(Cn1c(O)c(Cc2ccccc2)[nH]c1=O)Nc1ccccc1N1CCCC1

>  <score_type>  (78) 
oracle

>  <origin>  (78) 
adg

>  <m_score__min__energy>  (78) 
-11.43

>  <m_primary>  (78) 
energy

$$$$
79:0
     RDKit          3D

 29 30  0  0  0  0  0  0  0  0999 V2000
   58.3060   23.8270   46.3860 N   0  0  0  0  0  0  0  0  0  0  0  0
   58.4000   25.1090   46.2090 C   0  0  0  0  0  0  0  0  0  0  0  0
   59.6400   25.6450   46.0540 N   0  0  0  0  0  0  0  0  0  0  0  0
   59.8490   26.9800   45.9340 C   0  0  0  0  0  0  0  0  0  0  0  0
   58.7740   27.8750   45.9930 C   0  0  0  0  0  0  0  0  0  0  0  0
   59.0160   29.3330   45.8750 C   0  0  0  0  0  0  0  0  0  0  0  0
   60.2030   29.7460   45.7680 O   0  0  0  0  0  0  0  0  0  0  0  0
   57.9250   30.2740   45.8750 N   0  0  0  0  0  0  0  0  0  0  0  0
   58.0980   31.7010   45.8550 C   0  0  0  0  0  0  0  0  0  0  0  0
   57.6020   32.4870   44.7980 C   0  0  0  0  0  0  0  0  0  0  0  0
   57.8080   33.8700   44.7920 C   0  0  0  0  0  0  0  0  0  0  0  0
   58.5200   34.4780   45.8290 C   0  0  0  0  0  0  0  0  0  0  0  0
   59.0370   33.7020   46.8710 C   0  0  0  0  0  0  0  0  0  0  0  0
   60.0240   34.5320   48.2790 Br  0  0  0  0  0  0  0  0  0  0  0  0
   58.8340   32.3180   46.8800 C   0  0  0  0  0  0  0  0  0  0  0  0
   57.4790   27.3500   46.1290 C   0  0  0  0  0  0  0  0  0  0  0  0
   57.2690   25.9650   46.2200 C   0  0  0  0  0  0  0  0  0  0  0  0
   55.8750   25.4690   46.2840 C   0  0  0  0  0  0  0  0  0  0  0  0
   54.7790   26.3440   46.0200 N   0  0  0  0  0  0  0  0  0  0  0  0
   55.6470   24.2820   46.6370 O   0  0  0  0  0  0  0  0  0  0  0  0
   57.4250   23.3220   46.6250 H   0  0  0  0  0  0  0  0  0  0  0  0
   60.8703   27.3620   45.7893 H   0  0  0  0  0  0  0  0  0  0  0  0
   56.9460   29.9180   45.8370 H   0  0  0  0  0  0  0  0  0  0  0  0
   57.0503   32.0116   43.9736 H   0  0  0  0  0  0  0  0  0  0  0  0
   57.4085   34.4807   43.9689 H   0  0  0  0  0  0  0  0  0  0  0  0
   58.6739   35.5672   45.8257 H   0  0  0  0  0  0  0  0  0  0  0  0
   59.2532   31.7092   47.6946 H   0  0  0  0  0  0  0  0  0  0  0  0
   56.6175   28.0330   46.1647 H   0  0  0  0  0  0  0  0  0  0  0  0
   54.1230   26.1590   45.2300 H   0  0  0  0  0  0  0  0  0  0  0  0
  1  2  2  3
  2  3  1  0
  3  4  1  0
  4  5  2  0
  5  6  1  0
  6  7  2  0
  6  8  1  0
  8  9  1  0
  9 10  2  0
 10 11  1  0
 11 12  2  0
 12 13  1  0
 13 14  1  0
 13 15  2  0
  5 16  1  0
 16 17  2  0
 17 18  1  0
 18 19  1  0
 18 20  2  0
 17  2  1  0
 15  9  1  0
  1 21  1  0
  4 22  1  0
  8 23  1  0
 10 24  1  0
 11 25  1  0
 12 26  1  0
 15 27  1  0
 16 28  1  0
 19 29  1  0
M  CHG  2   3  -1  19  -1
M  END
>  <UniqueID>  (79) 
77

>  <SMILES>  (79) 
N=c1[n-]cc(C(=O)Nc2cccc(Br)c2)cc1C([NH-])=O

>  <Energy>  (79) 
44.31341283296253

>  <Genealogy>  (79) 
N=c1[n-]cc(C(=O)Nc2cccc(Br)c2)cc1C([NH-])=O (protonated)
N=c1[n-]cc(C(=O)Nc2cccc(Br)c2)cc1C([NH-])=O (3D coordinates assigned)
N=c1[n-]cc(C(=O)Nc2cccc(Br)c2)cc1C([NH-])=O (optimized conformer: 44.31341283296253 kcal/mol)

>  <smiles>  (79) 
N=c1[nH]cc(C(=O)Nc2cccc(Br)c2)cc1C(N)=O

>  <score_type>  (79) 
oracle

>  <origin>  (79) 
adg

>  <m_score__min__energy>  (79) 
-12.359999999999999

>  <m_primary>  (79) 
energy

$$$$
80:0
     RDKit          3D

 47 49  0  0  0  0  0  0  0  0999 V2000
   58.8613   34.7614   52.1069 H   0  0  0  0  0  0  0  0  0  0  0  0
   59.2020   33.7200   52.2040 C   0  0  0  0  0  0  0  0  0  0  0  0
   59.0292   33.0062   51.3851 H   0  0  0  0  0  0  0  0  0  0  0  0
   59.8260   33.3220   53.3170 C   0  0  0  0  0  0  0  0  0  0  0  0
   59.9907   34.0486   54.1262 H   0  0  0  0  0  0  0  0  0  0  0  0
   60.3110   31.9040   53.4950 C   0  0  0  0  0  0  0  0  0  0  0  0
   59.6942   31.2384   52.8732 H   0  0  0  0  0  0  0  0  0  0  0  0
   61.3683   31.8694   53.1935 H   0  0  0  0  0  0  0  0  0  0  0  0
   60.2260   31.4530   54.9070 N   0  0  0  0  0  0  0  0  0  0  0  0
   61.0070   31.9260   55.4220 H   0  0  0  0  0  0  0  0  0  0  0  0
   58.9670   31.8500   55.5770 C   0  0  0  0  0  0  0  0  0  0  0  0
   59.0045   31.5256   56.6274 H   0  0  0  0  0  0  0  0  0  0  0  0
   58.8704   32.9434   55.5053 H   0  0  0  0  0  0  0  0  0  0  0  0
   57.7430   31.2170   54.9050 C   0  0  0  0  0  0  0  0  0  0  0  0
   56.8922   31.2539   55.6013 H   0  0  0  0  0  0  0  0  0  0  0  0
   57.5184   31.7813   53.9879 H   0  0  0  0  0  0  0  0  0  0  0  0
   58.0020   29.8190   54.5390 N   0  0  0  0  0  0  0  0  0  0  0  0
   56.9640   29.0670   53.8790 C   0  0  0  0  0  0  0  0  0  0  0  0
   56.9730   27.8070   53.9090 O   0  0  0  0  0  0  0  0  0  0  0  0
   55.8980   29.7410   53.1920 N   0  0  0  0  0  0  0  0  0  0  0  0
   56.0560   30.6060   52.1680 C   0  0  0  0  0  0  0  0  0  0  0  0
   57.3790   31.0350   51.6100 C   0  0  0  0  0  0  0  0  0  0  0  0
   58.0700   31.2591   52.4360 H   0  0  0  0  0  0  0  0  0  0  0  0
   57.7961   30.2261   50.9922 H   0  0  0  0  0  0  0  0  0  0  0  0
   57.2420   31.9348   50.9922 H   0  0  0  0  0  0  0  0  0  0  0  0
   54.8290   30.9570   51.6460 C   0  0  0  0  0  0  0  0  0  0  0  0
   54.6484   31.6167   50.7845 H   0  0  0  0  0  0  0  0  0  0  0  0
   53.8660   30.3200   52.4140 C   0  0  0  0  0  0  0  0  0  0  0  0
   52.5460   30.5010   52.2210 C   0  0  0  0  0  0  0  0  0  0  0  0
   51.8848   30.3363   53.0846 H   0  0  0  0  0  0  0  0  0  0  0  0
   51.9110   30.9000   50.9550 C   0  0  0  0  0  0  0  0  0  0  0  0
   51.8010   30.1130   49.8700 N   0  0  0  0  0  0  0  0  0  0  0  0
   51.0390   30.8460   49.0290 C   0  0  0  0  0  0  0  0  0  0  0  0
   50.7230   30.4460   47.8780 O   0  0  0  0  0  0  0  0  0  0  0  0
   50.6330   32.0360   49.5220 N   0  0  0  0  0  0  0  0  0  0  0  0
   51.1820   32.0460   50.7480 C   0  0  0  0  0  0  0  0  0  0  0  0
   51.0180   33.0810   51.6600 O   0  0  0  0  0  0  0  0  0  0  0  0
   54.5660   29.5370   53.3470 C   0  0  0  0  0  0  0  0  0  0  0  0
   54.0600   28.6240   54.1910 C   0  0  0  0  0  0  0  0  0  0  0  0
   54.7266   28.0779   54.8746 H   0  0  0  0  0  0  0  0  0  0  0  0
   52.9787   28.4220   54.1990 H   0  0  0  0  0  0  0  0  0  0  0  0
   59.1710   29.1300   55.1010 C   0  0  0  0  0  0  0  0  0  0  0  0
   58.9712   28.8997   56.1579 H   0  0  0  0  0  0  0  0  0  0  0  0
   59.3357   28.2146   54.5138 H   0  0  0  0  0  0  0  0  0  0  0  0
   60.4580   29.9860   55.0130 C   0  0  0  0  0  0  0  0  0  0  0  0
   61.0562   29.7986   55.9169 H   0  0  0  0  0  0  0  0  0  0  0  0
   60.9672   29.6852   54.0856 H   0  0  0  0  0  0  0  0  0  0  0  0
  1  2  1  0
  2  3  1  0
  2  4  2  0
  4  5  1  0
  4  6  1  0
  6  7  1  0
  6  8  1  0
  6  9  1  0
  9 10  1  0
  9 11  1  0
 11 12  1  0
 11 13  1  0
 11 14  1  0
 14 15  1  0
 14 16  1  0
 14 17  1  0
 17 18  1  0
 18 19  2  0
 18 20  1  0
 20 21  1  0
 21 22  1  0
 22 23  1  0
 22 24  1  0
 22 25  1  0
 21 26  2  0
 26 27  1  0
 26 28  1  0
 28 29  2  0
 29 30  1  0
 29 31  1  0
 31 32  1  0
 32 33  1  0
 33 34  2  0
 33 35  1  0
 35 36  1  0
 36 37  1  0
 28 38  1  0
 38 39  2  0
 39 40  1  0
 39 41  1  0
 17 42  1  0
 42 43  1  0
 42 44  1  0
 42 45  1  0
 45 46  1  0
 45 47  1  0
 45  9  1  0
 38 20  1  0
 36 31  2  0
M  CHG  4   9   1  32  -1  35  -1  37  -1
M  END
>  <UniqueID>  (80) 
78

>  <SMILES>  (80) 
C=CC[NH+]1CCN(C(=O)n2c(C)c/c(=C/c3[n-]c(=O)[n-]c3[O-])c2=C)CC1

>  <Energy>  (80) 
128.89387623185684

>  <Genealogy>  (80) 
C=CC[NH+]1CCN(C(=O)n2c(C)cc(=Cc3[n-]c(=O)[n-]c3[O-])c2=C)CC1 (protonated)
C=CC[NH+]1CCN(C(=O)n2c(C)c/c(=C/c3[n-]c(=O)[n-]c3[O-])c2=C)CC1 (cis-trans isomerization)
C=CC[NH+]1CCN(C(=O)n2c(C)c/c(=C/c3[n-]c(=O)[n-]c3[O-])c2=C)CC1 (3D coordinates assigned)
C=CC[NH+]1CCN(C(=O)n2c(C)c/c(=C/c3[n-]c(=O)[n-]c3[O-])c2=C)CC1 (nonaromatic ring conformer: 128.89387623185684 kcal/mol)

>  <smiles>  (80) 
C=CCN1CCN(C(=O)n2c(C)cc(=Cc3[nH]c(=O)[nH]c3O)c2=C)CC1

>  <score_type>  (80) 
oracle

>  <origin>  (80) 
adg

>  <m_score__min__energy>  (80) 
-14.640000000000001

>  <m_primary>  (80) 
energy

$$$$
81:0
     RDKit          3D

 58 62  0  0  0  0  0  0  0  0999 V2000
   60.9720   27.4000   45.3070 O   0  0  0  0  0  0  0  0  0  0  0  0
   60.7300   28.3620   46.0830 C   0  0  0  0  0  0  0  0  0  0  0  0
   60.8380   29.7680   45.5810 C   0  0  0  0  0  0  0  0  0  0  0  0
   60.0340   30.6800   46.4560 C   0  0  0  0  0  0  0  0  0  0  0  0
   58.6630   30.8680   46.2950 C   0  0  0  0  0  0  0  0  0  0  0  0
   58.1660   32.0360   47.3960 S   0  0  0  0  0  0  0  0  0  0  0  0
   59.7040   32.2370   48.0310 C   0  0  0  0  0  0  0  0  0  0  0  0
   59.9880   33.1320   48.9270 N   0  0  0  0  0  0  0  0  0  0  0  0
   59.6860   33.0810   50.3270 C   0  0  0  0  0  0  0  0  0  0  0  0
   59.8680   34.1150   51.0220 O   0  0  0  0  0  0  0  0  0  0  0  0
   59.0690   31.9070   50.9640 C   0  0  0  0  0  0  0  0  0  0  0  0
   59.7130   30.6650   50.8840 C   0  0  0  0  0  0  0  0  0  0  0  0
   59.0800   29.5140   51.3610 C   0  0  0  0  0  0  0  0  0  0  0  0
   57.8060   29.5960   51.9310 C   0  0  0  0  0  0  0  0  0  0  0  0
   57.1670   30.8410   52.0590 C   0  0  0  0  0  0  0  0  0  0  0  0
   55.7930   30.9460   52.6730 C   0  0  0  0  0  0  0  0  0  0  0  0
   55.2300   29.6330   52.9810 N   0  0  0  0  0  0  0  0  0  0  0  0
   53.8260   29.3520   53.0610 C   0  0  0  0  0  0  0  0  0  0  0  0
   53.3980   28.2140   52.7360 O   0  0  0  0  0  0  0  0  0  0  0  0
   52.8830   30.3990   53.5070 C   0  0  0  0  0  0  0  0  0  0  0  0
   52.6610   30.6460   54.8840 C   0  0  0  0  0  0  0  0  0  0  0  0
   51.7340   31.6230   55.3020 C   0  0  0  0  0  0  0  0  0  0  0  0
   51.0070   32.3690   54.3570 C   0  0  0  0  0  0  0  0  0  0  0  0
   51.2470   32.1180   53.0120 C   0  0  0  0  0  0  0  0  0  0  0  0
   50.6720   32.7130   51.9570 N   0  0  0  0  0  0  0  0  0  0  0  0
   51.2730   32.0880   50.9160 C   0  0  0  0  0  0  0  0  0  0  0  0
   51.0060   32.3650   49.7180 O   0  0  0  0  0  0  0  0  0  0  0  0
   52.1810   31.1410   51.2580 N   0  0  0  0  0  0  0  0  0  0  0  0
   52.1450   31.1760   52.5990 C   0  0  0  0  0  0  0  0  0  0  0  0
   57.7970   31.9920   51.5490 C   0  0  0  0  0  0  0  0  0  0  0  0
   60.6110   31.4420   47.4250 N   0  0  0  0  0  0  0  0  0  0  0  0
   60.2970   28.1120   47.4260 N   0  0  0  0  0  0  0  0  0  0  0  0
   59.7420   26.8250   47.8330 C   0  0  0  0  0  0  0  0  0  0  0  0
   58.3690   26.6500   47.2500 C   0  0  0  0  0  0  0  0  0  0  0  0
   57.6070   25.5050   47.5240 C   0  0  0  0  0  0  0  0  0  0  0  0
   56.3270   25.3880   46.9780 C   0  0  0  0  0  0  0  0  0  0  0  0
   55.6350   24.3640   47.2130 O   0  0  0  0  0  0  0  0  0  0  0  0
   55.8210   26.4090   46.1690 C   0  0  0  0  0  0  0  0  0  0  0  0
   54.5480   26.3140   45.6190 O   0  0  0  0  0  0  0  0  0  0  0  0
   56.6100   27.5310   45.9160 C   0  0  0  0  0  0  0  0  0  0  0  0
   57.8510   27.6270   46.4580 N   0  0  0  0  0  0  0  0  0  0  0  0
   61.8922   30.0818   45.5967 H   0  0  0  0  0  0  0  0  0  0  0  0
   60.4529   29.8178   44.5518 H   0  0  0  0  0  0  0  0  0  0  0  0
   58.0189   30.3438   45.5737 H   0  0  0  0  0  0  0  0  0  0  0  0
   60.7191   30.5959   50.4447 H   0  0  0  0  0  0  0  0  0  0  0  0
   59.5859   28.5400   51.2877 H   0  0  0  0  0  0  0  0  0  0  0  0
   57.3021   28.6828   52.2805 H   0  0  0  0  0  0  0  0  0  0  0  0
   55.8630   31.5295   53.6028 H   0  0  0  0  0  0  0  0  0  0  0  0
   55.1315   31.4373   51.9443 H   0  0  0  0  0  0  0  0  0  0  0  0
   53.2184   30.0687   55.6364 H   0  0  0  0  0  0  0  0  0  0  0  0
   51.5782   31.8031   56.3759 H   0  0  0  0  0  0  0  0  0  0  0  0
   50.2733   33.1255   54.6723 H   0  0  0  0  0  0  0  0  0  0  0  0
   57.2880   32.9652   51.6097 H   0  0  0  0  0  0  0  0  0  0  0  0
   60.2470   28.9110   48.0990 H   0  0  0  0  0  0  0  0  0  0  0  0
   60.3959   26.0165   47.4741 H   0  0  0  0  0  0  0  0  0  0  0  0
   59.6751   26.7915   48.9305 H   0  0  0  0  0  0  0  0  0  0  0  0
   58.0135   24.7070   48.1627 H   0  0  0  0  0  0  0  0  0  0  0  0
   56.2261   28.3394   45.2763 H   0  0  0  0  0  0  0  0  0  0  0  0
  1  2  2  0
  2  3  1  0
  3  4  1  0
  4  5  2  0
  5  6  1  0
  6  7  1  0
  7  8  2  3
  8  9  1  0
  9 10  2  0
  9 11  1  0
 11 12  2  0
 12 13  1  0
 13 14  2  0
 14 15  1  0
 15 16  1  0
 16 17  1  0
 17 18  1  0
 18 19  2  0
 18 20  1  0
 20 21  2  0
 21 22  1  0
 22 23  2  0
 23 24  1  0
 24 25  1  0
 25 26  1  0
 26 27  2  0
 26 28  1  0
 28 29  1  0
 15 30  2  0
  7 31  1  0
  2 32  1  0
 32 33  1  0
 33 34  1  0
 34 35  2  0
 35 36  1  0
 36 37  2  0
 36 38  1  0
 38 39  1  0
 38 40  2  0
 40 41  1  0
 31  4  1  0
 41 34  1  0
 30 11  1  0
 29 20  1  0
 29 24  2  0
  3 42  1  0
  3 43  1  0
  5 44  1  0
 12 45  1  0
 13 46  1  0
 14 47  1  0
 16 48  1  0
 16 49  1  0
 21 50  1  0
 22 51  1  0
 23 52  1  0
 30 53  1  0
 32 54  1  0
 33 55  1  0
 33 56  1  0
 35 57  1  0
 40 58  1  0
M  CHG  6  17  -1  25  -1  28  -1  31  -1  39  -1  41  -1
M  END
>  <UniqueID>  (81) 
79

>  <SMILES>  (81) 
O=C(Cc1csc(=NC(=O)c2cccc(C[N-]C(=O)c3cccc4[n-]c(=O)[n-]c34)c2)[n-]1)NCc1cc(=O)c([O-])c[n-]1

>  <Energy>  (81) 
132.05274395134415

>  <Genealogy>  (81) 
O=C(Cc1csc(=NC(=O)c2cccc(C[N-]C(=O)c3cccc4[n-]c(=O)[n-]c34)c2)[n-]1)NCc1cc(=O)c([O-])c[n-]1 (protonated)
O=C(Cc1csc(=NC(=O)c2cccc(C[N-]C(=O)c3cccc4[n-]c(=O)[n-]c34)c2)[n-]1)NCc1cc(=O)c([O-])c[n-]1 (3D coordinates assigned)
O=C(Cc1csc(=NC(=O)c2cccc(C[N-]C(=O)c3cccc4[n-]c(=O)[n-]c34)c2)[n-]1)NCc1cc(=O)c([O-])c[n-]1 (optimized conformer: 132.05274395134415 kcal/mol)

>  <smiles>  (81) 
O=C(Cc1csc(=NC(=O)c2cccc(CNC(=O)c3cccc4[nH]c(=O)[nH]c34)c2)[nH]1)NCc1cc(=O)c(O)c[nH]1

>  <score_type>  (81) 
oracle

>  <origin>  (81) 
adg

>  <m_score__min__energy>  (81) 
-23.059999999999999

>  <m_primary>  (81) 
energy

$$$$
82:0
     RDKit          3D

 45 48  0  0  0  0  0  0  0  0999 V2000
   55.4320   25.5450   46.0020 O   0  0  0  0  0  0  0  0  0  0  0  0
   56.5510   26.0890   45.8010 C   0  0  0  0  0  0  0  0  0  0  0  0
   57.6520   25.3040   45.1270 C   0  0  0  0  0  0  0  0  0  0  0  0
   57.1490   24.0190   44.5170 C   0  0  0  0  0  0  0  0  0  0  0  0
   57.5030   22.7810   45.0760 C   0  0  0  0  0  0  0  0  0  0  0  0
   57.0490   21.6030   44.4770 C   0  0  0  0  0  0  0  0  0  0  0  0
   56.2820   21.6580   43.3570 N   0  0  0  0  0  0  0  0  0  0  0  0
   55.9330   22.8430   42.7890 C   0  0  0  0  0  0  0  0  0  0  0  0
   56.3640   24.0450   43.3550 C   0  0  0  0  0  0  0  0  0  0  0  0
   56.7250   27.4510   46.2280 N   0  0  0  0  0  0  0  0  0  0  0  0
   56.6770   28.5320   45.5060 C   0  0  0  0  0  0  0  0  0  0  0  0
   55.5680   28.9890   44.8780 N   0  0  0  0  0  0  0  0  0  0  0  0
   55.8110   30.1500   44.2170 C   0  0  0  0  0  0  0  0  0  0  0  0
   57.1160   30.6120   44.3250 C   0  0  0  0  0  0  0  0  0  0  0  0
   57.7620   32.1120   43.5880 S   0  0  0  0  0  0  0  0  0  0  0  0
   57.0520   33.2230   44.8500 C   0  0  0  0  0  0  0  0  0  0  0  0
   58.1180   33.7260   45.7710 C   0  0  0  0  0  0  0  0  0  0  0  0
   59.1720   34.5460   45.4160 C   0  0  0  0  0  0  0  0  0  0  0  0
   59.9020   34.7340   46.5700 C   0  0  0  0  0  0  0  0  0  0  0  0
   59.2450   34.0150   47.5530 C   0  0  0  0  0  0  0  0  0  0  0  0
   59.6530   33.9060   48.9610 C   0  0  0  0  0  0  0  0  0  0  0  0
   60.6760   34.5260   49.3650 O   0  0  0  0  0  0  0  0  0  0  0  0
   58.8960   33.0990   49.8700 N   0  0  0  0  0  0  0  0  0  0  0  0
   59.3070   32.9300   51.2620 C   0  0  0  0  0  0  0  0  0  0  0  0
   58.1510   32.7390   52.2270 C   0  0  0  0  0  0  0  0  0  0  0  0
   58.8720   34.0760   52.1590 C   0  0  0  0  0  0  0  0  0  0  0  0
   58.1860   33.4280   47.0480 O   0  0  0  0  0  0  0  0  0  0  0  0
   57.9980   29.5480   45.2830 S   0  0  0  0  0  0  0  0  0  0  0  0
   58.0928   25.9239   44.3324 H   0  0  0  0  0  0  0  0  0  0  0  0
   58.3968   25.0434   45.8934 H   0  0  0  0  0  0  0  0  0  0  0  0
   58.1321   22.7386   45.9774 H   0  0  0  0  0  0  0  0  0  0  0  0
   57.3133   20.6285   44.9135 H   0  0  0  0  0  0  0  0  0  0  0  0
   55.3103   22.8551   41.8823 H   0  0  0  0  0  0  0  0  0  0  0  0
   56.0898   25.0048   42.8929 H   0  0  0  0  0  0  0  0  0  0  0  0
   55.0374   30.6810   43.6430 H   0  0  0  0  0  0  0  0  0  0  0  0
   56.5734   34.0781   44.3503 H   0  0  0  0  0  0  0  0  0  0  0  0
   56.3114   32.6620   45.4389 H   0  0  0  0  0  0  0  0  0  0  0  0
   59.3843   34.9620   44.4201 H   0  0  0  0  0  0  0  0  0  0  0  0
   60.8179   35.3322   46.6857 H   0  0  0  0  0  0  0  0  0  0  0  0
   58.0900   32.5380   49.5120 H   0  0  0  0  0  0  0  0  0  0  0  0
   60.2517   32.4010   51.0675 H   0  0  0  0  0  0  0  0  0  0  0  0
   57.1239   32.6478   51.8438 H   0  0  0  0  0  0  0  0  0  0  0  0
   57.9161   32.0217   53.0272 H   0  0  0  0  0  0  0  0  0  0  0  0
   58.3669   34.9522   51.7264 H   0  0  0  0  0  0  0  0  0  0  0  0
   59.3751   34.7270   52.8892 H   0  0  0  0  0  0  0  0  0  0  0  0
  1  2  2  0
  2  3  1  0
  3  4  1  0
  4  5  2  0
  5  6  1  0
  6  7  2  0
  7  8  1  0
  8  9  2  0
  2 10  1  0
 10 11  2  3
 11 12  1  0
 12 13  1  0
 13 14  2  0
 14 15  1  0
 15 16  1  0
 16 17  1  0
 17 18  2  0
 18 19  1  0
 19 20  2  0
 20 21  1  0
 21 22  2  0
 21 23  1  0
 23 24  1  0
 24 25  1  0
 25 26  1  0
 20 27  1  0
 14 28  1  0
  9  4  1  0
 28 11  1  0
 27 17  1  0
 26 24  1  0
  3 29  1  0
  3 30  1  0
  5 31  1  0
  6 32  1  0
  8 33  1  0
  9 34  1  0
 13 35  1  0
 16 36  1  0
 16 37  1  0
 18 38  1  0
 19 39  1  0
 23 40  1  0
 24 41  1  0
 25 42  1  0
 25 43  1  0
 26 44  1  0
 26 45  1  0
M  CHG  1  12  -1
M  END
>  <UniqueID>  (82) 
80

>  <SMILES>  (82) 
O=C(Cc1ccncc1)N=c1[n-]cc(SCc2ccc(C(=O)NC3CC3)o2)s1

>  <Energy>  (82) 
365.330709877279

>  <Genealogy>  (82) 
O=C(Cc1ccncc1)N=c1[n-]cc(SCc2ccc(C(=O)NC3CC3)o2)s1 (protonated)
O=C(Cc1ccncc1)N=c1[n-]cc(SCc2ccc(C(=O)NC3CC3)o2)s1 (3D coordinates assigned)
O=C(Cc1ccncc1)N=c1[n-]cc(SCc2ccc(C(=O)NC3CC3)o2)s1 (nonaromatic ring conformer: 365.330709877279 kcal/mol)

>  <smiles>  (82) 
O=C(Cc1ccncc1)N=c1[nH]cc(SCc2ccc(C(=O)NC3CC3)o2)s1

>  <score_type>  (82) 
oracle

>  <origin>  (82) 
adg

>  <m_score__min__energy>  (82) 
-11.039999999999999

>  <m_primary>  (82) 
energy

$$$$
83:0
     RDKit          3D

 41 43  0  0  0  0  0  0  0  0999 V2000
   60.0540   27.4410   46.0000 C   0  0  0  0  0  0  0  0  0  0  0  0
   58.6270   27.3350   45.5830 C   0  0  0  0  0  0  0  0  0  0  0  0
   58.0220   28.6310   45.2140 C   0  0  0  0  0  0  0  0  0  0  0  0
   58.6050   29.8260   45.5020 N   0  0  0  0  0  0  0  0  0  0  0  0
   58.0320   30.9920   45.1530 C   0  0  0  0  0  0  0  0  0  0  0  0
   58.7240   32.2300   45.5000 C   0  0  0  0  0  0  0  0  0  0  0  0
   58.1850   33.4110   45.0320 C   0  0  0  0  0  0  0  0  0  0  0  0
   58.7600   34.6500   45.3000 C   0  0  0  0  0  0  0  0  0  0  0  0
   59.9180   34.6540   46.0700 C   0  0  0  0  0  0  0  0  0  0  0  0
   60.4750   33.4860   46.5490 C   0  0  0  0  0  0  0  0  0  0  0  0
   61.6910   33.5850   47.3480 C   0  0  0  0  0  0  0  0  0  0  0  0
   62.6910   34.1310   46.8140 O   0  0  0  0  0  0  0  0  0  0  0  0
   61.8140   33.1130   48.6680 N   0  0  0  0  0  0  0  0  0  0  0  0
   63.0350   33.2420   49.3980 C   0  0  0  0  0  0  0  0  0  0  0  0
   63.0560   34.0750   50.5100 C   0  0  0  0  0  0  0  0  0  0  0  0
   64.2130   34.2240   51.2380 C   0  0  0  0  0  0  0  0  0  0  0  0
   65.3450   33.5370   50.8480 C   0  0  0  0  0  0  0  0  0  0  0  0
   65.3240   32.7120   49.7460 C   0  0  0  0  0  0  0  0  0  0  0  0
   64.1710   32.5440   48.9970 C   0  0  0  0  0  0  0  0  0  0  0  0
   59.8630   32.2860   46.2520 C   0  0  0  0  0  0  0  0  0  0  0  0
   56.8230   30.9640   44.4890 C   0  0  0  0  0  0  0  0  0  0  0  0
   56.2350   29.7550   44.2000 C   0  0  0  0  0  0  0  0  0  0  0  0
   55.1170   29.7030   43.5850 O   0  0  0  0  0  0  0  0  0  0  0  0
   56.8420   28.6010   44.5650 N   0  0  0  0  0  0  0  0  0  0  0  0
   60.1157   27.4456   47.0983 H   0  0  0  0  0  0  0  0  0  0  0  0
   60.6163   26.5821   45.6047 H   0  0  0  0  0  0  0  0  0  0  0  0
   60.4832   28.3735   45.6047 H   0  0  0  0  0  0  0  0  0  0  0  0
   58.5674   26.6632   44.7140 H   0  0  0  0  0  0  0  0  0  0  0  0
   58.0655   26.9508   46.4474 H   0  0  0  0  0  0  0  0  0  0  0  0
   57.2682   33.3719   44.4255 H   0  0  0  0  0  0  0  0  0  0  0  0
   58.3186   35.5832   44.9201 H   0  0  0  0  0  0  0  0  0  0  0  0
   60.4027   35.6135   46.3033 H   0  0  0  0  0  0  0  0  0  0  0  0
   60.9950   32.6580   49.1280 H   0  0  0  0  0  0  0  0  0  0  0  0
   62.1458   34.6160   50.8083 H   0  0  0  0  0  0  0  0  0  0  0  0
   64.2362   34.8818   52.1193 H   0  0  0  0  0  0  0  0  0  0  0  0
   66.2749   33.6501   51.4246 H   0  0  0  0  0  0  0  0  0  0  0  0
   66.2397   32.1764   49.4550 H   0  0  0  0  0  0  0  0  0  0  0  0
   64.1535   31.8834   48.1177 H   0  0  0  0  0  0  0  0  0  0  0  0
   60.3029   31.3513   46.6300 H   0  0  0  0  0  0  0  0  0  0  0  0
   56.3325   31.9029   44.1926 H   0  0  0  0  0  0  0  0  0  0  0  0
   56.3470   27.7140   44.3190 H   0  0  0  0  0  0  0  0  0  0  0  0
  1  2  1  0
  2  3  1  0
  3  4  2  0
  4  5  1  0
  5  6  1  0
  6  7  2  0
  7  8  1  0
  8  9  2  0
  9 10  1  0
 10 11  1  0
 11 12  2  0
 11 13  1  0
 13 14  1  0
 14 15  2  0
 15 16  1  0
 16 17  2  0
 17 18  1  0
 18 19  2  0
 10 20  2  0
  5 21  2  0
 21 22  1  0
 22 23  2  0
 22 24  1  0
 24  3  1  0
 20  6  1  0
 19 14  1  0
  1 25  1  0
  1 26  1  0
  1 27  1  0
  2 28  1  0
  2 29  1  0
  7 30  1  0
  8 31  1  0
  9 32  1  0
 13 33  1  0
 15 34  1  0
 16 35  1  0
 17 36  1  0
 18 37  1  0
 19 38  1  0
 20 39  1  0
 21 40  1  0
 24 41  1  0
M  END
>  <smiles>  (83) 
CCc1nc(-c2cccc(C(=O)Nc3ccccc3)c2)cc(=O)[nH]1

>  <score_type>  (83) 
oracle

>  <origin>  (83) 
adg

>  <m_score__min__energy>  (83) 
-8.0899999999999999

>  <m_primary>  (83) 
energy

$$$$
84:0
     RDKit          3D

 49 52  0  0  0  0  0  0  0  0999 V2000
   59.5480   35.0400   46.0710 C   0  0  0  0  0  0  0  0  0  0  0  0
   58.5100   34.2070   46.0900 C   0  0  0  0  0  0  0  0  0  0  0  0
   58.2100   33.3040   44.9730 C   0  0  0  0  0  0  0  0  0  0  0  0
   57.4530   32.1520   45.0420 C   0  0  0  0  0  0  0  0  0  0  0  0
   57.4360   31.6410   43.8010 N   0  0  0  0  0  0  0  0  0  0  0  0
   56.7190   30.4510   43.3570 C   0  0  0  0  0  0  0  0  0  0  0  0
   56.6380   29.4540   44.4790 C   0  0  0  0  0  0  0  0  0  0  0  0
   55.5000   29.0730   44.8670 O   0  0  0  0  0  0  0  0  0  0  0  0
   57.8170   28.8780   45.0680 N   0  0  0  0  0  0  0  0  0  0  0  0
   59.1380   28.8950   44.4600 C   0  0  0  0  0  0  0  0  0  0  0  0
   60.0830   28.3330   45.5140 C   0  0  0  0  0  0  0  0  0  0  0  0
   59.1880   27.5980   46.5270 C   0  0  1  0  0  0  0  0  0  0  0  0
   59.6510   27.7300   47.9210 N   0  0  0  0  0  0  0  0  0  0  0  0
   59.0150   28.8410   48.6470 C   0  0  0  0  0  0  0  0  0  0  0  0
   59.7740   30.1270   48.4900 C   0  0  0  0  0  0  0  0  0  0  0  0
   59.4000   31.3510   49.0390 C   0  0  0  0  0  0  0  0  0  0  0  0
   60.3970   32.2250   48.6630 C   0  0  0  0  0  0  0  0  0  0  0  0
   60.5640   33.5800   48.9360 C   0  0  0  0  0  0  0  0  0  0  0  0
   61.7060   34.2180   48.4190 C   0  0  0  0  0  0  0  0  0  0  0  0
   62.6450   33.4920   47.6520 C   0  0  0  0  0  0  0  0  0  0  0  0
   63.7410   34.1190   47.1580 F   0  0  0  0  0  0  0  0  0  0  0  0
   62.4500   32.1220   47.3950 C   0  0  0  0  0  0  0  0  0  0  0  0
   61.3070   31.5190   47.9190 C   0  0  0  0  0  0  0  0  0  0  0  0
   60.9350   30.2350   47.8000 N   0  0  0  0  0  0  0  0  0  0  0  0
   57.8040   28.2240   46.3650 C   0  0  0  0  0  0  0  0  0  0  0  0
   58.1360   32.4480   43.0200 N   0  0  0  0  0  0  0  0  0  0  0  0
   58.6260   33.4710   43.7000 N   0  0  0  0  0  0  0  0  0  0  0  0
   59.7384   35.7012   46.9292 H   0  0  0  0  0  0  0  0  0  0  0  0
   60.2154   35.0672   45.1971 H   0  0  0  0  0  0  0  0  0  0  0  0
   57.8546   34.1951   46.9734 H   0  0  0  0  0  0  0  0  0  0  0  0
   56.9624   31.7363   45.9344 H   0  0  0  0  0  0  0  0  0  0  0  0
   55.7024   30.7328   43.0454 H   0  0  0  0  0  0  0  0  0  0  0  0
   57.2560   29.9997   42.5097 H   0  0  0  0  0  0  0  0  0  0  0  0
   59.1530   28.2668   43.5572 H   0  0  0  0  0  0  0  0  0  0  0  0
   59.4304   29.9096   44.1516 H   0  0  0  0  0  0  0  0  0  0  0  0
   60.7970   27.6334   45.0549 H   0  0  0  0  0  0  0  0  0  0  0  0
   60.6728   29.1272   45.9950 H   0  0  0  0  0  0  0  0  0  0  0  0
   59.1995   26.5164   46.3269 H   0  0  0  0  0  0  0  0  0  0  0  0
   59.5380   26.8320   48.4480 H   0  0  0  0  0  0  0  0  0  0  0  0
   57.9956   28.9812   48.2582 H   0  0  0  0  0  0  0  0  0  0  0  0
   59.0027   28.5836   49.7164 H   0  0  0  0  0  0  0  0  0  0  0  0
   58.5057   31.5716   49.6403 H   0  0  0  0  0  0  0  0  0  0  0  0
   59.8270   34.1335   49.5364 H   0  0  0  0  0  0  0  0  0  0  0  0
   61.8692   35.2884   48.6129 H   0  0  0  0  0  0  0  0  0  0  0  0
   63.1749   31.5463   46.8008 H   0  0  0  0  0  0  0  0  0  0  0  0
   61.4440   29.4750   47.2940 H   0  0  0  0  0  0  0  0  0  0  0  0
   57.0259   27.4470   46.3948 H   0  0  0  0  0  0  0  0  0  0  0  0
   57.5826   28.9342   47.1753 H   0  0  0  0  0  0  0  0  0  0  0  0
   58.2930   32.2990   41.9980 H   0  0  0  0  0  0  0  0  0  0  0  0
  1  2  2  0
  2  3  1  0
  3  4  2  0
  4  5  1  0
  5  6  1  0
  6  7  1  0
  7  8  2  0
  7  9  1  0
  9 10  1  0
 10 11  1  0
 11 12  1  0
 12 13  1  0
 13 14  1  0
 14 15  1  0
 15 16  2  0
 16 17  1  0
 17 18  2  0
 18 19  1  0
 19 20  2  0
 20 21  1  0
 20 22  1  0
 22 23  2  0
 23 24  1  0
 12 25  1  0
  5 26  1  0
 26 27  2  0
 27  3  1  0
 25  9  1  0
 24 15  1  0
 23 17  1  0
  1 28  1  0
  1 29  1  0
  2 30  1  0
  4 31  1  0
  6 32  1  0
  6 33  1  0
 10 34  1  0
 10 35  1  0
 11 36  1  0
 11 37  1  0
 12 38  1  6
 13 39  1  0
 14 40  1  0
 14 41  1  0
 16 42  1  0
 18 43  1  0
 19 44  1  0
 22 45  1  0
 24 46  1  0
 25 47  1  0
 25 48  1  0
 26 49  1  0
M  CHG  1  26   1
M  END
>  <UniqueID>  (84) 
81

>  <SMILES>  (84) 
C=Cc1cn(CC(=O)N2CC[C@@H](NCc3cc4ccc(F)cc4[nH]3)C2)[nH+]n1

>  <Energy>  (84) 
116.06933024856704

>  <Genealogy>  (84) 
C=Cc1cn(CC(=O)N2CCC(NCc3cc4ccc(F)cc4[nH]3)C2)[nH+]n1 (protonated)
C=Cc1cn(CC(=O)N2CC[C@@H](NCc3cc4ccc(F)cc4[nH]3)C2)[nH+]n1 (chirality)
C=Cc1cn(CC(=O)N2CC[C@@H](NCc3cc4ccc(F)cc4[nH]3)C2)[nH+]n1 (3D coordinates assigned)
C=Cc1cn(CC(=O)N2CC[C@@H](NCc3cc4ccc(F)cc4[nH]3)C2)[nH+]n1 (nonaromatic ring conformer: 116.06933024856704 kcal/mol)

>  <smiles>  (84) 
C=Cc1cn(CC(=O)N2CCC(NCc3cc4ccc(F)cc4[nH]3)C2)nn1

>  <score_type>  (84) 
oracle

>  <origin>  (84) 
adg

>  <m_score__min__energy>  (84) 
-7.29

>  <m_primary>  (84) 
energy

$$$$
85:0
     RDKit          3D

 49 52  0  0  0  0  0  0  0  0999 V2000
   56.3460   31.2200   43.3360 O   0  0  0  0  0  0  0  0  0  0  0  0
   56.8690   31.2730   44.4820 C   0  0  0  0  0  0  0  0  0  0  0  0
   56.8020   32.4820   45.2500 N   0  0  0  0  0  0  0  0  0  0  0  0
   57.8810   33.3870   45.5270 C   0  0  0  0  0  0  0  0  0  0  0  0
   58.2140   34.4410   44.6570 C   0  0  0  0  0  0  0  0  0  0  0  0
   59.2570   35.3130   44.9790 C   0  0  0  0  0  0  0  0  0  0  0  0
   59.9690   35.1490   46.1690 C   0  0  0  0  0  0  0  0  0  0  0  0
   59.6430   34.1080   47.0520 C   0  0  0  0  0  0  0  0  0  0  0  0
   60.3760   33.9420   48.3280 C   0  0  0  0  0  0  0  0  0  0  0  0
   59.7220   33.8920   49.4060 O   0  0  0  0  0  0  0  0  0  0  0  0
   61.8120   33.8260   48.3670 N   0  0  0  0  0  0  0  0  0  0  0  0
   62.5820   34.4790   49.4290 C   0  0  0  0  0  0  0  0  0  0  0  0
   63.7310   33.5640   49.8660 C   0  0  0  0  0  0  0  0  0  0  0  0
   64.4940   33.1430   48.7500 O   0  0  0  0  0  0  0  0  0  0  0  0
   63.6980   32.3390   47.8990 C   0  0  0  0  0  0  0  0  0  0  0  0
   62.5530   33.1580   47.2940 C   0  0  0  0  0  0  0  0  0  0  0  0
   58.5810   33.2450   46.7320 C   0  0  0  0  0  0  0  0  0  0  0  0
   57.6040   30.0990   45.0110 C   0  0  0  0  0  0  0  0  0  0  0  0
   58.5670   30.2580   46.0250 C   0  0  0  0  0  0  0  0  0  0  0  0
   59.2540   29.1520   46.5290 C   0  0  0  0  0  0  0  0  0  0  0  0
   58.9920   27.8760   46.0300 C   0  0  0  0  0  0  0  0  0  0  0  0
   58.0480   27.6960   45.0090 C   0  0  0  0  0  0  0  0  0  0  0  0
   57.7370   26.3170   44.4960 C   0  0  0  0  0  0  0  0  0  0  0  0
   57.1940   25.4650   45.6010 C   0  0  0  0  0  0  0  0  0  0  0  0
   57.9140   24.0560   46.1810 S   0  0  0  0  0  0  0  0  0  0  0  0
   56.6500   23.7540   47.2480 C   0  0  0  0  0  0  0  0  0  0  0  0
   56.6010   22.7690   48.0280 O   0  0  0  0  0  0  0  0  0  0  0  0
   55.6750   24.6850   47.1790 N   0  0  0  0  0  0  0  0  0  0  0  0
   55.9750   25.6350   46.2540 C   0  0  0  0  0  0  0  0  0  0  0  0
   55.1140   26.6920   45.9880 O   0  0  0  0  0  0  0  0  0  0  0  0
   57.3500   28.8090   44.5110 C   0  0  0  0  0  0  0  0  0  0  0  0
   57.6522   34.5789   43.7214 H   0  0  0  0  0  0  0  0  0  0  0  0
   59.5183   36.1318   44.2925 H   0  0  0  0  0  0  0  0  0  0  0  0
   60.7894   35.8391   46.4155 H   0  0  0  0  0  0  0  0  0  0  0  0
   62.9921   35.4281   49.0535 H   0  0  0  0  0  0  0  0  0  0  0  0
   61.9248   34.6770   50.2886 H   0  0  0  0  0  0  0  0  0  0  0  0
   64.3831   34.1121   50.5620 H   0  0  0  0  0  0  0  0  0  0  0  0
   63.3060   32.6758   50.3564 H   0  0  0  0  0  0  0  0  0  0  0  0
   64.3252   31.9412   47.0876 H   0  0  0  0  0  0  0  0  0  0  0  0
   63.2699   31.5156   48.4896 H   0  0  0  0  0  0  0  0  0  0  0  0
   62.9645   33.9125   46.6074 H   0  0  0  0  0  0  0  0  0  0  0  0
   61.8762   32.4902   46.7409 H   0  0  0  0  0  0  0  0  0  0  0  0
   58.2962   32.4490   47.4358 H   0  0  0  0  0  0  0  0  0  0  0  0
   58.7799   31.2610   46.4233 H   0  0  0  0  0  0  0  0  0  0  0  0
   60.0042   29.2872   47.3220 H   0  0  0  0  0  0  0  0  0  0  0  0
   59.5283   27.0072   46.4393 H   0  0  0  0  0  0  0  0  0  0  0  0
   56.9901   26.3884   43.6916 H   0  0  0  0  0  0  0  0  0  0  0  0
   58.6607   25.8602   44.1111 H   0  0  0  0  0  0  0  0  0  0  0  0
   56.5967   28.6701   43.7215 H   0  0  0  0  0  0  0  0  0  0  0  0
  1  2  2  0
  2  3  1  0
  3  4  1  0
  4  5  2  0
  5  6  1  0
  6  7  2  0
  7  8  1  0
  8  9  1  0
  9 10  2  0
  9 11  1  0
 11 12  1  0
 12 13  1  0
 13 14  1  0
 14 15  1  0
 15 16  1  0
  8 17  2  0
  2 18  1  0
 18 19  2  0
 19 20  1  0
 20 21  2  0
 21 22  1  0
 22 23  1  0
 23 24  1  0
 24 25  1  0
 25 26  1  0
 26 27  2  0
 26 28  1  0
 28 29  1  0
 29 30  1  0
 22 31  2  0
 17  4  1  0
 31 18  1  0
 16 11  1  0
 29 24  2  0
  5 32  1  0
  6 33  1  0
  7 34  1  0
 12 35  1  0
 12 36  1  0
 13 37  1  0
 13 38  1  0
 15 39  1  0
 15 40  1  0
 16 41  1  0
 16 42  1  0
 17 43  1  0
 19 44  1  0
 20 45  1  0
 21 46  1  0
 23 47  1  0
 23 48  1  0
 31 49  1  0
M  CHG  3   3  -1  28  -1  30  -1
M  END
>  <UniqueID>  (85) 
82

>  <SMILES>  (85) 
O=C([N-]c1cccc(C(=O)N2CCOCC2)c1)c1cccc(Cc2sc(=O)[n-]c2[O-])c1

>  <Energy>  (85) 
92.73974177179488

>  <Genealogy>  (85) 
O=C([N-]c1cccc(C(=O)N2CCOCC2)c1)c1cccc(Cc2sc(=O)[n-]c2[O-])c1 (protonated)
O=C([N-]c1cccc(C(=O)N2CCOCC2)c1)c1cccc(Cc2sc(=O)[n-]c2[O-])c1 (3D coordinates assigned)
O=C([N-]c1cccc(C(=O)N2CCOCC2)c1)c1cccc(Cc2sc(=O)[n-]c2[O-])c1 (nonaromatic ring conformer: 92.73974177179488 kcal/mol)

>  <smiles>  (85) 
O=C(Nc1cccc(C(=O)N2CCOCC2)c1)c1cccc(Cc2sc(=O)[nH]c2O)c1

>  <score_type>  (85) 
oracle

>  <origin>  (85) 
adg

>  <m_score__min__energy>  (85) 
-17.489999999999998

>  <m_primary>  (85) 
energy

$$$$
86:0
     RDKit          3D

 66 69  0  0  0  0  0  0  0  0999 V2000
   57.3135   34.3905   44.9326 H   0  0  0  0  0  0  0  0  0  0  0  0
   58.1970   33.7410   44.8450 C   0  0  0  0  0  0  0  0  0  0  0  0
   59.3460   34.0410   45.7260 C   0  0  0  0  0  0  0  0  0  0  0  0
   59.7730   35.2230   45.8490 O   0  0  0  0  0  0  0  0  0  0  0  0
   59.9480   32.9800   46.4820 N   0  0  0  0  0  0  0  0  0  0  0  0
   59.7250   31.9930   46.2150 H   0  0  0  0  0  0  0  0  0  0  0  0
   61.0600   33.2020   47.3600 C   0  0  0  0  0  0  0  0  0  0  0  0
   62.2260   32.4450   47.1800 C   0  0  0  0  0  0  0  0  0  0  0  0
   62.2641   31.6806   46.3899 H   0  0  0  0  0  0  0  0  0  0  0  0
   63.3390   32.6540   47.9960 C   0  0  0  0  0  0  0  0  0  0  0  0
   64.2532   32.0623   47.8405 H   0  0  0  0  0  0  0  0  0  0  0  0
   63.2930   33.6130   49.0090 C   0  0  0  0  0  0  0  0  0  0  0  0
   64.1746   33.7841   49.6442 H   0  0  0  0  0  0  0  0  0  0  0  0
   62.1280   34.3560   49.2170 C   0  0  0  0  0  0  0  0  0  0  0  0
   62.0940   35.1049   50.0220 H   0  0  0  0  0  0  0  0  0  0  0  0
   61.0000   34.1530   48.4050 C   0  0  0  0  0  0  0  0  0  0  0  0
   59.7950   34.8760   48.6880 N   0  0  0  0  0  0  0  0  0  0  0  0
   59.2380   35.3020   47.9130 H   0  0  0  0  0  0  0  0  0  0  0  0
   59.4910   35.0740   49.6660 H   0  0  0  0  0  0  0  0  0  0  0  0
   58.1390   32.7450   43.9480 C   0  0  0  0  0  0  0  0  0  0  0  0
   58.2662   33.0108   42.8882 H   0  0  0  0  0  0  0  0  0  0  0  0
   57.9180   31.3200   44.2690 C   0  0  0  0  0  0  0  0  0  0  0  0
   59.0090   30.4440   44.2920 C   0  0  0  0  0  0  0  0  0  0  0  0
   60.0224   30.8287   44.1049 H   0  0  0  0  0  0  0  0  0  0  0  0
   58.8200   29.0840   44.5510 C   0  0  0  0  0  0  0  0  0  0  0  0
   59.6871   28.4080   44.5848 H   0  0  0  0  0  0  0  0  0  0  0  0
   57.5260   28.5740   44.7690 C   0  0  0  0  0  0  0  0  0  0  0  0
   57.2880   27.2150   45.0280 O   0  0  0  0  0  0  0  0  0  0  0  0
   57.4210   26.6080   46.3120 C   0  0  0  0  0  0  0  0  0  0  0  0
   57.7362   25.5612   46.1899 H   0  0  0  0  0  0  0  0  0  0  0  0
   56.4530   26.6460   46.8331 H   0  0  0  0  0  0  0  0  0  0  0  0
   58.4490   27.3470   47.1220 C   0  0  0  0  0  0  0  0  0  0  0  0
   59.6980   26.7610   47.3680 C   0  0  0  0  0  0  0  0  0  0  0  0
   59.9141   25.7514   46.9884 H   0  0  0  0  0  0  0  0  0  0  0  0
   60.6700   27.4550   48.0940 C   0  0  0  0  0  0  0  0  0  0  0  0
   61.6418   26.9827   48.3004 H   0  0  0  0  0  0  0  0  0  0  0  0
   60.4110   28.7460   48.5580 C   0  0  0  0  0  0  0  0  0  0  0  0
   61.1783   29.2846   49.1335 H   0  0  0  0  0  0  0  0  0  0  0  0
   59.1760   29.3610   48.2940 C   0  0  0  0  0  0  0  0  0  0  0  0
   58.9040   30.7380   48.7670 C   0  0  0  0  0  0  0  0  0  0  0  0
   58.4380   31.5880   47.9580 O   0  0  0  0  0  0  0  0  0  0  0  0
   59.1520   31.1220   50.1320 N   0  0  0  0  0  0  0  0  0  0  0  0
   59.1580   30.0760   51.1650 C   0  0  0  0  0  0  0  0  0  0  0  0
   59.4721   29.1273   50.7054 H   0  0  0  0  0  0  0  0  0  0  0  0
   58.1408   30.0061   51.5779 H   0  0  0  0  0  0  0  0  0  0  0  0
   60.1150   30.4040   52.3260 C   0  0  0  0  0  0  0  0  0  0  0  0
   61.0411   29.8280   52.1830 H   0  0  0  0  0  0  0  0  0  0  0  0
   59.5880   30.1396   53.2546 H   0  0  0  0  0  0  0  0  0  0  0  0
   60.4850   31.8930   52.4360 C   0  0  0  0  0  0  0  0  0  0  0  0
   61.3728   32.0809   51.8143 H   0  0  0  0  0  0  0  0  0  0  0  0
   60.6757   32.1082   53.4978 H   0  0  0  0  0  0  0  0  0  0  0  0
   59.3550   32.8260   51.9720 C   0  0  2  0  0  0  0  0  0  0  0  0
   59.7218   33.8609   52.0391 H   0  0  0  0  0  0  0  0  0  0  0  0
   58.1260   32.7630   52.8950 C   0  0  0  0  0  0  0  0  0  0  0  0
   58.4545   32.7798   53.9447 H   0  0  0  0  0  0  0  0  0  0  0  0
   57.4763   33.6290   52.7002 H   0  0  0  0  0  0  0  0  0  0  0  0
   57.5683   31.8351   52.7002 H   0  0  0  0  0  0  0  0  0  0  0  0
   58.9990   32.5440   50.4970 C   0  0  0  0  0  0  0  0  0  0  0  0
   59.6604   33.1445   49.8551 H   0  0  0  0  0  0  0  0  0  0  0  0
   57.9409   32.8095   50.3557 H   0  0  0  0  0  0  0  0  0  0  0  0
   58.1910   28.6470   47.5890 C   0  0  0  0  0  0  0  0  0  0  0  0
   57.2108   29.1097   47.4016 H   0  0  0  0  0  0  0  0  0  0  0  0
   56.4300   29.4490   44.7200 C   0  0  0  0  0  0  0  0  0  0  0  0
   55.1430   28.9650   44.9270 O   0  0  0  0  0  0  0  0  0  0  0  0
   56.6220   30.8100   44.4620 C   0  0  0  0  0  0  0  0  0  0  0  0
   55.7549   31.4848   44.4098 H   0  0  0  0  0  0  0  0  0  0  0  0
  1  2  1  0
  2  3  1  0
  3  4  2  0
  3  5  1  0
  5  6  1  0
  5  7  1  0
  7  8  2  0
  8  9  1  0
  8 10  1  0
 10 11  1  0
 10 12  2  0
 12 13  1  0
 12 14  1  0
 14 15  1  0
 14 16  2  0
 16 17  1  0
 17 18  1  0
 17 19  1  0
  2 20  2  0
 20 21  1  0
 20 22  1  0
 22 23  2  0
 23 24  1  0
 23 25  1  0
 25 26  1  0
 25 27  2  0
 27 28  1  0
 28 29  1  0
 29 30  1  0
 29 31  1  0
 29 32  1  0
 32 33  2  0
 33 34  1  0
 33 35  1  0
 35 36  1  0
 35 37  2  0
 37 38  1  0
 37 39  1  0
 39 40  1  0
 40 41  2  0
 40 42  1  0
 42 43  1  0
 43 44  1  0
 43 45  1  0
 43 46  1  0
 46 47  1  0
 46 48  1  0
 46 49  1  0
 49 50  1  0
 49 51  1  0
 49 52  1  0
 52 53  1  6
 52 54  1  0
 54 55  1  0
 54 56  1  0
 54 57  1  0
 52 58  1  0
 58 59  1  0
 58 60  1  0
 39 61  2  0
 61 62  1  0
 27 63  1  0
 63 64  1  0
 63 65  2  0
 65 66  1  0
 16  7  1  0
 65 22  1  0
 61 32  1  0
 58 42  1  0
M  CHG  1  64  -1
M  END
>  <UniqueID>  (86) 
83

>  <SMILES>  (86) 
C[C@H]1CCCN(C(=O)c2cccc(COc3ccc(/C=C\C(=O)Nc4ccccc4N)cc3[O-])c2)C1

>  <Energy>  (86) 
89.12201341681504

>  <Genealogy>  (86) 
CC1CCCN(C(=O)c2cccc(COc3ccc(C=CC(=O)Nc4ccccc4N)cc3[O-])c2)C1 (protonated)
C[C@H]1CCCN(C(=O)c2cccc(COc3ccc(C=CC(=O)Nc4ccccc4N)cc3[O-])c2)C1 (chirality)
C[C@H]1CCCN(C(=O)c2cccc(COc3ccc(/C=C\C(=O)Nc4ccccc4N)cc3[O-])c2)C1 (cis-trans isomerization)
C[C@H]1CCCN(C(=O)c2cccc(COc3ccc(/C=C\C(=O)Nc4ccccc4N)cc3[O-])c2)C1 (3D coordinates assigned)
C[C@H]1CCCN(C(=O)c2cccc(COc3ccc(/C=C\C(=O)Nc4ccccc4N)cc3[O-])c2)C1 (nonaromatic ring conformer: 89.12201341681504 kcal/mol)

>  <smiles>  (86) 
CC1CCCN(C(=O)c2cccc(COc3ccc(C=CC(=O)Nc4ccccc4N)cc3O)c2)C1

>  <score_type>  (86) 
oracle

>  <origin>  (86) 
adg

>  <m_score__min__energy>  (86) 
-13.57

>  <m_primary>  (86) 
energy

$$$$
87:0
     RDKit          3D

 69 72  0  0  0  0  0  0  0  0999 V2000
   60.8500   26.3450   46.4210 C   0  0  0  0  0  0  0  0  0  0  0  0
   59.5450   25.5650   46.2720 C   0  0  0  0  0  0  0  0  0  0  0  0
   58.3850   26.4100   46.6360 N   0  0  0  0  0  0  0  0  0  0  0  0
   58.6420   27.2160   47.8570 C   0  0  0  0  0  0  0  0  0  0  0  0
   58.9110   28.7110   47.5810 C   0  0  0  0  0  0  0  0  0  0  0  0
   59.4720   29.3810   48.8060 C   0  0  0  0  0  0  0  0  0  0  0  0
   58.6330   30.1190   49.6580 C   0  0  0  0  0  0  0  0  0  0  0  0
   59.1590   30.7350   50.7980 C   0  0  0  0  0  0  0  0  0  0  0  0
   60.5240   30.6360   51.0880 C   0  0  0  0  0  0  0  0  0  0  0  0
   61.3670   29.9180   50.2340 C   0  0  0  0  0  0  0  0  0  0  0  0
   60.8470   29.3000   49.0930 C   0  0  0  0  0  0  0  0  0  0  0  0
   57.9060   27.2070   45.4820 C   0  0  0  0  0  0  0  0  0  0  0  0
   56.4330   27.5140   45.5760 C   0  0  0  0  0  0  0  0  0  0  0  0
   55.6660   26.6740   46.1200 O   0  0  0  0  0  0  0  0  0  0  0  0
   55.8820   28.7410   45.0830 N   0  0  0  0  0  0  0  0  0  0  0  0
   56.6550   29.8410   44.5910 C   0  0  0  0  0  0  0  0  0  0  0  0
   57.4270   30.6080   45.4750 C   0  0  0  0  0  0  0  0  0  0  0  0
   58.1990   31.6860   45.0050 C   0  0  0  0  0  0  0  0  0  0  0  0
   59.0360   32.4730   45.9510 C   0  0  0  0  0  0  0  0  0  0  0  0
   59.3160   33.8360   45.7560 C   0  0  0  0  0  0  0  0  0  0  0  0
   60.0770   34.4990   46.6610 N   0  0  0  0  0  0  0  0  0  0  0  0
   60.5740   33.8610   47.7500 C   0  0  0  0  0  0  0  0  0  0  0  0
   61.3420   34.5770   48.6750 O   0  0  0  0  0  0  0  0  0  0  0  0
   62.5460   34.0810   49.2640 C   0  0  0  0  0  0  0  0  0  0  0  0
   63.2610   33.1600   48.2550 C   0  0  0  0  0  0  0  0  0  0  0  0
   64.0050   31.9850   48.9240 C   0  0  0  0  0  0  0  0  0  0  0  0
   64.5530   32.3310   50.2510 N   0  0  0  0  0  0  0  0  0  0  0  0
   65.7080   33.2410   50.1520 C   0  0  0  0  0  0  0  0  0  0  0  0
   63.5260   32.8020   51.2170 C   0  0  0  0  0  0  0  0  0  0  0  0
   62.2350   33.3270   50.5590 C   0  0  0  0  0  0  0  0  0  0  0  0
   60.3140   32.5390   47.9230 N   0  0  0  0  0  0  0  0  0  0  0  0
   59.5700   31.8660   47.0450 N   0  0  0  0  0  0  0  0  0  0  0  0
   58.1660   31.9930   43.6260 C   0  0  0  0  0  0  0  0  0  0  0  0
   57.3970   31.2270   42.7480 C   0  0  0  0  0  0  0  0  0  0  0  0
   56.6450   30.1490   43.2210 C   0  0  0  0  0  0  0  0  0  0  0  0
   55.8950   29.4020   42.3130 O   0  0  0  0  0  0  0  0  0  0  0  0
   61.0764   26.4803   47.4889 H   0  0  0  0  0  0  0  0  0  0  0  0
   61.6674   25.7872   45.9407 H   0  0  0  0  0  0  0  0  0  0  0  0
   60.7459   27.3291   45.9407 H   0  0  0  0  0  0  0  0  0  0  0  0
   59.4384   25.2359   45.2278 H   0  0  0  0  0  0  0  0  0  0  0  0
   59.5741   24.6957   46.9454 H   0  0  0  0  0  0  0  0  0  0  0  0
   57.7626   27.1388   48.5132 H   0  0  0  0  0  0  0  0  0  0  0  0
   59.5540   26.8098   48.3188 H   0  0  0  0  0  0  0  0  0  0  0  0
   59.6327   28.8025   46.7559 H   0  0  0  0  0  0  0  0  0  0  0  0
   57.9627   29.1990   47.3116 H   0  0  0  0  0  0  0  0  0  0  0  0
   57.5614   30.2123   49.4280 H   0  0  0  0  0  0  0  0  0  0  0  0
   58.4963   31.3001   51.4699 H   0  0  0  0  0  0  0  0  0  0  0  0
   60.9333   31.1219   51.9859 H   0  0  0  0  0  0  0  0  0  0  0  0
   62.4406   29.8394   50.4603 H   0  0  0  0  0  0  0  0  0  0  0  0
   61.5159   28.7479   48.4165 H   0  0  0  0  0  0  0  0  0  0  0  0
   58.4642   28.1543   45.4492 H   0  0  0  0  0  0  0  0  0  0  0  0
   58.0706   26.6145   44.5699 H   0  0  0  0  0  0  0  0  0  0  0  0
   57.4290   30.3642   46.5476 H   0  0  0  0  0  0  0  0  0  0  0  0
   58.9202   34.3618   44.8746 H   0  0  0  0  0  0  0  0  0  0  0  0
   63.2066   34.9243   49.5141 H   0  0  0  0  0  0  0  0  0  0  0  0
   62.5103   32.7498   47.5635 H   0  0  0  0  0  0  0  0  0  0  0  0
   64.0144   33.7691   47.7341 H   0  0  0  0  0  0  0  0  0  0  0  0
   63.3025   31.1469   49.0423 H   0  0  0  0  0  0  0  0  0  0  0  0
   64.8535   31.7205   48.2759 H   0  0  0  0  0  0  0  0  0  0  0  0
   66.0501   33.5105   51.1621 H   0  0  0  0  0  0  0  0  0  0  0  0
   66.5238   32.7404   49.6100 H   0  0  0  0  0  0  0  0  0  0  0  0
   65.4122   34.1513   49.6100 H   0  0  0  0  0  0  0  0  0  0  0  0
   63.2607   31.9619   51.8757 H   0  0  0  0  0  0  0  0  0  0  0  0
   63.9694   33.6476   51.7632 H   0  0  0  0  0  0  0  0  0  0  0  0
   61.5763   32.4762   50.3304 H   0  0  0  0  0  0  0  0  0  0  0  0
   61.7425   34.0194   51.2576 H   0  0  0  0  0  0  0  0  0  0  0  0
   58.7506   32.8418   43.2415 H   0  0  0  0  0  0  0  0  0  0  0  0
   57.3832   31.4741   41.6762 H   0  0  0  0  0  0  0  0  0  0  0  0
   55.3100   28.6280   42.6030 H   0  0  0  0  0  0  0  0  0  0  0  0
  1  2  1  0
  2  3  1  0
  3  4  1  0
  4  5  1  0
  5  6  1  0
  6  7  2  0
  7  8  1  0
  8  9  2  0
  9 10  1  0
 10 11  2  0
  3 12  1  0
 12 13  1  0
 13 14  2  0
 13 15  1  0
 15 16  1  0
 16 17  2  0
 17 18  1  0
 18 19  1  0
 19 20  2  0
 20 21  1  0
 21 22  2  0
 22 23  1  0
 23 24  1  0
 24 25  1  0
 25 26  1  0
 26 27  1  0
 27 28  1  0
 27 29  1  0
 29 30  1  0
 22 31  1  0
 31 32  2  0
 18 33  2  0
 33 34  1  0
 34 35  2  0
 35 36  1  0
 11  6  1  0
 35 16  1  0
 32 19  1  0
 30 24  1  0
  1 37  1  0
  1 38  1  0
  1 39  1  0
  2 40  1  0
  2 41  1  0
  4 42  1  0
  4 43  1  0
  5 44  1  0
  5 45  1  0
  7 46  1  0
  8 47  1  0
  9 48  1  0
 10 49  1  0
 11 50  1  0
 12 51  1  0
 12 52  1  0
 17 53  1  0
 20 54  1  0
 24 55  1  0
 25 56  1  0
 25 57  1  0
 26 58  1  0
 26 59  1  0
 28 60  1  0
 28 61  1  0
 28 62  1  0
 29 63  1  0
 29 64  1  0
 30 65  1  0
 30 66  1  0
 33 67  1  0
 34 68  1  0
 36 69  1  0
M  CHG  1  15  -1
M  END
>  <UniqueID>  (87) 
84

>  <SMILES>  (87) 
CCN(CCc1ccccc1)CC(=O)[N-]c1cc(-c2cnc(OC3CCN(C)CC3)nn2)ccc1O

>  <Energy>  (87) 
90.0266566530715

>  <Genealogy>  (87) 
CCN(CCc1ccccc1)CC(=O)[N-]c1cc(-c2cnc(OC3CCN(C)CC3)nn2)ccc1O (protonated)
CCN(CCc1ccccc1)CC(=O)[N-]c1cc(-c2cnc(OC3CCN(C)CC3)nn2)ccc1O (3D coordinates assigned)
CCN(CCc1ccccc1)CC(=O)[N-]c1cc(-c2cnc(OC3CCN(C)CC3)nn2)ccc1O (nonaromatic ring conformer: 90.0266566530715 kcal/mol)

>  <smiles>  (87) 
CCN(CCc1ccccc1)CC(=O)Nc1cc(-c2cnc(OC3CCN(C)CC3)nn2)ccc1O

>  <score_type>  (87) 
oracle

>  <origin>  (87) 
adg

>  <m_score__min__energy>  (87) 
-10.960000000000001

>  <m_primary>  (87) 
energy

$$$$
88:0
     RDKit          3D

 52 55  0  0  0  0  0  0  0  0999 V2000
   54.7130   28.5870   44.4940 H   0  0  0  0  0  0  0  0  0  0  0  0
   55.5210   28.5970   45.1050 O   0  0  0  0  0  0  0  0  0  0  0  0
   56.0290   27.4130   45.6300 C   0  0  0  0  0  0  0  0  0  0  0  0
   55.2660   26.4160   46.1080 N   0  0  0  0  0  0  0  0  0  0  0  0
   56.1780   25.4810   46.4460 C   0  0  0  0  0  0  0  0  0  0  0  0
   55.8580   24.3680   46.9370 O   0  0  0  0  0  0  0  0  0  0  0  0
   57.4620   25.8280   46.2060 N   0  0  0  0  0  0  0  0  0  0  0  0
   57.3610   27.0740   45.7130 C   0  0  0  0  0  0  0  0  0  0  0  0
   58.5010   27.8340   45.1820 C   0  0  0  0  0  0  0  0  0  0  0  0
   59.1225   27.3379   44.4220 H   0  0  0  0  0  0  0  0  0  0  0  0
   58.8540   29.0840   45.5420 C   0  0  0  0  0  0  0  0  0  0  0  0
   59.7980   29.3390   46.5190 C   0  0  0  0  0  0  0  0  0  0  0  0
   60.3107   28.5923   47.1431 H   0  0  0  0  0  0  0  0  0  0  0  0
   59.9760   30.7050   46.5640 C   0  0  0  0  0  0  0  0  0  0  0  0
   60.9820   31.3790   47.4130 C   0  0  0  0  0  0  0  0  0  0  0  0
   62.2030   31.2780   47.1160 O   0  0  0  0  0  0  0  0  0  0  0  0
   60.5920   32.1200   48.5850 N   0  0  0  0  0  0  0  0  0  0  0  0
   61.5610   32.3110   49.6740 C   0  0  0  0  0  0  0  0  0  0  0  0
   62.2630   31.4642   49.6859 H   0  0  0  0  0  0  0  0  0  0  0  0
   62.1037   33.2528   49.5048 H   0  0  0  0  0  0  0  0  0  0  0  0
   60.8430   32.3900   51.0280 C   0  0  0  0  0  0  0  0  0  0  0  0
   60.5109   31.3814   51.3150 H   0  0  0  0  0  0  0  0  0  0  0  0
   61.5482   32.7975   51.7673 H   0  0  0  0  0  0  0  0  0  0  0  0
   59.6730   33.2790   50.9710 N   0  0  0  0  0  0  0  0  0  0  0  0
   58.7800   33.3430   52.0940 C   0  0  0  0  0  0  0  0  0  0  0  0
   57.5610   33.0660   51.9370 O   0  0  0  0  0  0  0  0  0  0  0  0
   59.2570   33.7280   53.4310 C   0  0  0  0  0  0  0  0  0  0  0  0
   59.3750   34.9740   53.8290 O   0  0  0  0  0  0  0  0  0  0  0  0
   59.8440   34.9820   55.0560 C   0  0  0  0  0  0  0  0  0  0  0  0
   60.0437   35.8846   55.6523 H   0  0  0  0  0  0  0  0  0  0  0  0
   60.0480   33.6860   55.4830 C   0  0  0  0  0  0  0  0  0  0  0  0
   60.4311   33.3656   56.4631 H   0  0  0  0  0  0  0  0  0  0  0  0
   59.6750   32.8740   54.4340 C   0  0  0  0  0  0  0  0  0  0  0  0
   59.7039   31.7749   54.4017 H   0  0  0  0  0  0  0  0  0  0  0  0
   59.2960   33.9170   49.7050 C   0  0  0  0  0  0  0  0  0  0  0  0
   58.2790   34.3272   49.7913 H   0  0  0  0  0  0  0  0  0  0  0  0
   60.0047   34.7280   49.4815 H   0  0  0  0  0  0  0  0  0  0  0  0
   59.3340   32.8870   48.5750 C   0  0  0  0  0  0  0  0  0  0  0  0
   58.4905   32.1916   48.6968 H   0  0  0  0  0  0  0  0  0  0  0  0
   59.2645   33.4232   47.6170 H   0  0  0  0  0  0  0  0  0  0  0  0
   59.1500   31.3180   45.6810 N   0  0  0  0  0  0  0  0  0  0  0  0
   59.0250   32.7710   45.4790 C   0  0  0  0  0  0  0  0  0  0  0  0
   59.7679   33.2886   46.1036 H   0  0  0  0  0  0  0  0  0  0  0  0
   59.1981   32.9989   44.4169 H   0  0  0  0  0  0  0  0  0  0  0  0
   57.6280   33.2450   45.8640 C   0  0  0  0  0  0  0  0  0  0  0  0
   57.5400   33.2748   46.9601 H   0  0  0  0  0  0  0  0  0  0  0  0
   57.4566   34.2516   45.4548 H   0  0  0  0  0  0  0  0  0  0  0  0
   56.8794   32.5505   45.4548 H   0  0  0  0  0  0  0  0  0  0  0  0
   58.4370   30.3370   45.0630 C   0  0  0  0  0  0  0  0  0  0  0  0
   57.4210   30.5780   44.2170 C   0  0  0  0  0  0  0  0  0  0  0  0
   57.1908   31.6100   43.9137 H   0  0  0  0  0  0  0  0  0  0  0  0
   56.8196   29.7433   43.8278 H   0  0  0  0  0  0  0  0  0  0  0  0
  1  2  1  0
  2  3  1  0
  3  4  1  0
  4  5  1  0
  5  6  2  0
  5  7  1  0
  7  8  1  0
  8  9  1  0
  9 10  1  0
  9 11  2  0
 11 12  1  0
 12 13  1  0
 12 14  2  0
 14 15  1  0
 15 16  2  0
 15 17  1  0
 17 18  1  0
 18 19  1  0
 18 20  1  0
 18 21  1  0
 21 22  1  0
 21 23  1  0
 21 24  1  0
 24 25  1  0
 25 26  2  0
 25 27  1  0
 27 28  1  0
 28 29  1  0
 29 30  1  0
 29 31  2  0
 31 32  1  0
 31 33  1  0
 33 34  1  0
 24 35  1  0
 35 36  1  0
 35 37  1  0
 35 38  1  0
 38 39  1  0
 38 40  1  0
 14 41  1  0
 41 42  1  0
 42 43  1  0
 42 44  1  0
 42 45  1  0
 45 46  1  0
 45 47  1  0
 45 48  1  0
 41 49  1  0
 49 50  2  0
 50 51  1  0
 50 52  1  0
  8  3  2  0
 49 11  1  0
 38 17  1  0
 33 27  2  0
M  CHG  2   4  -1   7  -1
M  END
>  <UniqueID>  (88) 
85

>  <SMILES>  (88) 
C=c1/c(=C\c2[n-]c(=O)[n-]c2O)cc(C(=O)N2CCN(C(=O)c3ccco3)CC2)n1CC

>  <Energy>  (88) 
156.60579482658522

>  <Genealogy>  (88) 
C=c1c(=Cc2[n-]c(=O)[n-]c2O)cc(C(=O)N2CCN(C(=O)c3ccco3)CC2)n1CC (protonated)
C=c1/c(=C\c2[n-]c(=O)[n-]c2O)cc(C(=O)N2CCN(C(=O)c3ccco3)CC2)n1CC (cis-trans isomerization)
C=c1/c(=C\c2[n-]c(=O)[n-]c2O)cc(C(=O)N2CCN(C(=O)c3ccco3)CC2)n1CC (3D coordinates assigned)
C=c1/c(=C\c2[n-]c(=O)[n-]c2O)cc(C(=O)N2CCN(C(=O)c3ccco3)CC2)n1CC (nonaromatic ring conformer: 156.60579482658522 kcal/mol)

>  <smiles>  (88) 
C=c1c(=Cc2[nH]c(=O)[nH]c2O)cc(C(=O)N2CCN(C(=O)c3ccco3)CC2)n1CC

>  <score_type>  (88) 
oracle

>  <origin>  (88) 
adg

>  <m_score__min__energy>  (88) 
-12.890000000000001

>  <m_primary>  (88) 
energy

$$$$
89:0
     RDKit          3D

 54 57  0  0  0  0  0  0  0  0999 V2000
   59.0610   28.9390   46.4710 C   0  0  0  0  0  0  0  0  0  0  0  0
   58.4090   28.8910   45.2920 C   0  0  0  0  0  0  0  0  0  0  0  0
   58.0490   27.7370   44.5770 C   0  0  0  0  0  0  0  0  0  0  0  0
   58.2470   26.4620   44.9840 C   0  0  0  0  0  0  0  0  0  0  0  0
   57.3390   25.5970   45.7890 C   0  0  0  0  0  0  0  0  0  0  0  0
   57.8440   24.5020   46.3940 N   0  0  0  0  0  0  0  0  0  0  0  0
   56.8630   24.0840   47.2160 C   0  0  0  0  0  0  0  0  0  0  0  0
   57.0120   23.1210   48.0120 O   0  0  0  0  0  0  0  0  0  0  0  0
   55.7380   24.8210   47.1660 N   0  0  0  0  0  0  0  0  0  0  0  0
   56.0460   25.7770   46.2730 C   0  0  0  0  0  0  0  0  0  0  0  0
   55.1480   26.7750   45.9410 O   0  0  0  0  0  0  0  0  0  0  0  0
   57.3990   28.1930   43.4410 C   0  0  0  0  0  0  0  0  0  0  0  0
   57.3420   29.5760   43.5250 C   0  0  0  0  0  0  0  0  0  0  0  0
   56.5770   30.4330   42.5740 C   0  0  0  0  0  0  0  0  0  0  0  0
   57.9310   29.9980   44.6730 N   0  0  0  0  0  0  0  0  0  0  0  0
   57.7960   31.2990   45.2850 C   0  0  0  0  0  0  0  0  0  0  0  0
   56.6640   31.8610   45.2480 O   0  0  0  0  0  0  0  0  0  0  0  0
   58.8770   31.9190   46.0220 N   0  0  0  0  0  0  0  0  0  0  0  0
   58.5910   31.9230   47.4810 C   0  0  0  0  0  0  0  0  0  0  0  0
   59.2700   33.0910   48.2070 C   0  0  0  0  0  0  0  0  0  0  0  0
   60.5930   33.3280   47.5960 N   0  0  0  0  0  0  0  0  0  0  0  0
   61.5500   34.1280   48.3970 C   0  0  2  0  0  0  0  0  0  0  0  0
   63.0130   33.9280   47.9140 C   0  0  0  0  0  0  0  0  0  0  0  0
   63.8700   33.1770   48.9420 C   0  0  0  0  0  0  0  0  0  0  0  0
   63.7120   33.7710   50.3630 C   0  0  0  0  0  0  0  0  0  0  0  0
   62.5260   34.5310   50.5620 O   0  0  0  0  0  0  0  0  0  0  0  0
   61.4260   33.9100   49.9220 C   0  0  0  0  0  0  0  0  0  0  0  0
   60.4870   33.8050   46.1970 C   0  0  0  0  0  0  0  0  0  0  0  0
   59.2350   33.2530   45.4890 C   0  0  0  0  0  0  0  0  0  0  0  0
   59.2876   29.9102   46.9350 H   0  0  0  0  0  0  0  0  0  0  0  0
   59.3664   28.0069   46.9690 H   0  0  0  0  0  0  0  0  0  0  0  0
   59.2009   26.0051   44.6818 H   0  0  0  0  0  0  0  0  0  0  0  0
   57.0018   27.5727   42.6240 H   0  0  0  0  0  0  0  0  0  0  0  0
   55.9485   31.1371   43.1391 H   0  0  0  0  0  0  0  0  0  0  0  0
   57.2791   30.9951   41.9407 H   0  0  0  0  0  0  0  0  0  0  0  0
   55.9391   29.7989   41.9407 H   0  0  0  0  0  0  0  0  0  0  0  0
   59.7150   31.3150   45.8680 H   0  0  0  0  0  0  0  0  0  0  0  0
   57.5035   32.0003   47.6275 H   0  0  0  0  0  0  0  0  0  0  0  0
   58.9894   30.9887   47.9033 H   0  0  0  0  0  0  0  0  0  0  0  0
   58.6513   33.9955   48.1111 H   0  0  0  0  0  0  0  0  0  0  0  0
   59.3893   32.8489   49.2734 H   0  0  0  0  0  0  0  0  0  0  0  0
   61.2702   35.1772   48.2214 H   0  0  0  0  0  0  0  0  0  0  0  0
   63.0002   33.3525   46.9766 H   0  0  0  0  0  0  0  0  0  0  0  0
   63.4579   34.9236   47.7692 H   0  0  0  0  0  0  0  0  0  0  0  0
   63.5610   32.1214   48.9605 H   0  0  0  0  0  0  0  0  0  0  0  0
   64.9248   33.2740   48.6453 H   0  0  0  0  0  0  0  0  0  0  0  0
   63.7110   32.9398   51.0835 H   0  0  0  0  0  0  0  0  0  0  0  0
   64.5531   34.4657   50.5042 H   0  0  0  0  0  0  0  0  0  0  0  0
   61.4296   32.8324   50.1431 H   0  0  0  0  0  0  0  0  0  0  0  0
   60.4851   34.3475   50.2871 H   0  0  0  0  0  0  0  0  0  0  0  0
   60.4372   34.9039   46.1999 H   0  0  0  0  0  0  0  0  0  0  0  0
   61.3711   33.4466   45.6494 H   0  0  0  0  0  0  0  0  0  0  0  0
   58.3945   33.9439   45.6511 H   0  0  0  0  0  0  0  0  0  0  0  0
   59.4497   33.1581   44.4143 H   0  0  0  0  0  0  0  0  0  0  0  0
  1  2  2  0
  2  3  1  0
  3  4  2  3
  4  5  1  0
  5  6  1  0
  6  7  1  0
  7  8  2  0
  7  9  1  0
  9 10  1  0
 10 11  1  0
  3 12  1  0
 12 13  2  0
 13 14  1  0
 13 15  1  0
 15 16  1  0
 16 17  2  0
 16 18  1  0
 18 19  1  0
 19 20  1  0
 20 21  1  0
 21 22  1  0
 22 23  1  0
 23 24  1  0
 24 25  1  0
 25 26  1  0
 26 27  1  0
 21 28  1  0
 28 29  1  0
 15  2  1  0
 29 18  1  0
 10  5  2  0
 27 22  1  0
  1 30  1  0
  1 31  1  0
  4 32  1  0
 12 33  1  0
 14 34  1  0
 14 35  1  0
 14 36  1  0
 18 37  1  0
 19 38  1  0
 19 39  1  0
 20 40  1  0
 20 41  1  0
 22 42  1  1
 23 43  1  0
 23 44  1  0
 24 45  1  0
 24 46  1  0
 25 47  1  0
 25 48  1  0
 27 49  1  0
 27 50  1  0
 28 51  1  0
 28 52  1  0
 29 53  1  0
 29 54  1  0
M  CHG  4   6  -1   9  -1  11  -1  18   1
M  END
>  <UniqueID>  (89) 
86

>  <SMILES>  (89) 
C=c1c(=Cc2[n-]c(=O)[n-]c2[O-])cc(C)n1C(=O)[NH+]1CCN([C@@H]2CCCOC2)CC1

>  <Energy>  (89) 
170.14839677988263

>  <Genealogy>  (89) 
C=c1c(=Cc2[n-]c(=O)[n-]c2[O-])cc(C)n1C(=O)[NH+]1CCN(C2CCCOC2)CC1 (protonated)
C=c1c(=Cc2[n-]c(=O)[n-]c2[O-])cc(C)n1C(=O)[NH+]1CCN([C@@H]2CCCOC2)CC1 (chirality)
C=c1c(=Cc2[n-]c(=O)[n-]c2[O-])cc(C)n1C(=O)[NH+]1CCN([C@@H]2CCCOC2)CC1 (3D coordinates assigned)
C=c1c(=Cc2[n-]c(=O)[n-]c2[O-])cc(C)n1C(=O)[NH+]1CCN([C@@H]2CCCOC2)CC1 (nonaromatic ring conformer: 170.14839677988263 kcal/mol)

>  <smiles>  (89) 
C=c1c(=Cc2[nH]c(=O)[nH]c2O)cc(C)n1C(=O)N1CCN(C2CCCOC2)CC1

>  <score_type>  (89) 
oracle

>  <origin>  (89) 
adg

>  <m_score__min__energy>  (89) 
-15.800000000000001

>  <m_primary>  (89) 
energy

$$$$
