0:0
     RDKit          3D

 62 65  0  0  0  0  0  0  0  0999 V2000
   54.7080   27.8060   53.0430 O   0  0  0  0  0  0  0  0  0  0  0  0
   54.7480   29.0100   53.4220 C   0  0  0  0  0  0  0  0  0  0  0  0
   53.7810   29.9750   52.8200 C   0  0  0  0  0  0  0  0  0  0  0  0
   52.6960   30.4430   53.5890 C   0  0  0  0  0  0  0  0  0  0  0  0
   51.7780   31.3490   53.0510 C   0  0  0  0  0  0  0  0  0  0  0  0
   51.9300   31.8060   51.7410 C   0  0  0  0  0  0  0  0  0  0  0  0
   51.0160   32.7070   51.2070 O   0  0  0  0  0  0  0  0  0  0  0  0
   53.0020   31.3560   50.9670 C   0  0  0  0  0  0  0  0  0  0  0  0
   53.9230   30.4490   51.4990 C   0  0  0  0  0  0  0  0  0  0  0  0
   55.7020   29.4160   54.4430 N   0  0  0  0  0  0  0  0  0  0  0  0
   56.8850   28.5460   54.4850 C   0  0  0  0  0  0  0  0  0  0  0  0
   57.7010   28.6090   53.1940 C   0  0  0  0  0  0  0  0  0  0  0  0
   57.8760   29.9740   52.6600 N   0  0  0  0  0  0  0  0  0  0  0  0
   58.7730   30.1740   51.5230 C   0  0  0  0  0  0  0  0  0  0  0  0
   59.1910   31.4680   51.1370 C   0  0  0  0  0  0  0  0  0  0  0  0
   60.0490   31.6560   50.0500 C   0  0  0  0  0  0  0  0  0  0  0  0
   60.5220   30.5690   49.3170 C   0  0  0  0  0  0  0  0  0  0  0  0
   61.3810   30.8210   48.2340 O   0  0  0  0  0  0  0  0  0  0  0  0
   61.0760   30.5760   46.8610 C   0  0  0  0  0  0  0  0  0  0  0  0
   59.5580   30.5600   46.6410 C   0  0  0  0  0  0  0  0  0  0  0  0
   58.9940   31.9740   46.4600 C   0  0  0  0  0  0  0  0  0  0  0  0
   57.6750   31.9310   45.7860 N   0  0  0  0  0  0  0  0  0  0  0  0
   57.7450   31.3250   44.4350 C   0  0  0  0  0  0  0  0  0  0  0  0
   57.9500   32.3790   43.3270 C   0  0  0  0  0  0  0  0  0  0  0  0
   58.6000   33.5210   43.8410 O   0  0  0  0  0  0  0  0  0  0  0  0
   57.7460   34.2030   44.7420 C   0  0  0  0  0  0  0  0  0  0  0  0
   57.0320   33.2570   45.7370 C   0  0  0  0  0  0  0  0  0  0  0  0
   60.1200   29.2730   49.6840 C   0  0  0  0  0  0  0  0  0  0  0  0
   59.2620   29.0790   50.7710 C   0  0  0  0  0  0  0  0  0  0  0  0
   57.0710   31.1170   53.1460 C   0  0  0  0  0  0  0  0  0  0  0  0
   56.1210   30.8230   54.3270 C   0  0  0  0  0  0  0  0  0  0  0  0
   52.5707   30.0912   54.6237 H   0  0  0  0  0  0  0  0  0  0  0  0
   50.9339   31.7027   53.6612 H   0  0  0  0  0  0  0  0  0  0  0  0
   53.1220   31.7167   49.9348 H   0  0  0  0  0  0  0  0  0  0  0  0
   54.7654   30.1020   50.8825 H   0  0  0  0  0  0  0  0  0  0  0  0
   55.2300   29.3490   55.3750 H   0  0  0  0  0  0  0  0  0  0  0  0
   57.5248   28.8600   55.3229 H   0  0  0  0  0  0  0  0  0  0  0  0
   56.5355   27.5106   54.6106 H   0  0  0  0  0  0  0  0  0  0  0  0
   58.6964   28.1852   53.3930 H   0  0  0  0  0  0  0  0  0  0  0  0
   57.1421   28.0402   52.4363 H   0  0  0  0  0  0  0  0  0  0  0  0
   58.8348   32.3420   51.7019 H   0  0  0  0  0  0  0  0  0  0  0  0
   60.3549   32.6747   49.7694 H   0  0  0  0  0  0  0  0  0  0  0  0
   61.5226   31.3697   46.2440 H   0  0  0  0  0  0  0  0  0  0  0  0
   61.4866   29.5963   46.5753 H   0  0  0  0  0  0  0  0  0  0  0  0
   59.3350   29.9697   45.7400 H   0  0  0  0  0  0  0  0  0  0  0  0
   59.0882   30.1158   47.5310 H   0  0  0  0  0  0  0  0  0  0  0  0
   58.8796   32.4459   47.4470 H   0  0  0  0  0  0  0  0  0  0  0  0
   59.6901   32.5547   45.8369 H   0  0  0  0  0  0  0  0  0  0  0  0
   58.5863   30.6168   44.4088 H   0  0  0  0  0  0  0  0  0  0  0  0
   56.7866   30.8200   44.2441 H   0  0  0  0  0  0  0  0  0  0  0  0
   58.5637   31.9446   42.5241 H   0  0  0  0  0  0  0  0  0  0  0  0
   56.9663   32.6774   42.9355 H   0  0  0  0  0  0  0  0  0  0  0  0
   58.3466   34.9248   45.3150 H   0  0  0  0  0  0  0  0  0  0  0  0
   56.9667   34.6979   44.1438 H   0  0  0  0  0  0  0  0  0  0  0  0
   57.0636   33.7058   46.7408 H   0  0  0  0  0  0  0  0  0  0  0  0
   55.9943   33.1225   45.3978 H   0  0  0  0  0  0  0  0  0  0  0  0
   60.4827   28.4059   49.1125 H   0  0  0  0  0  0  0  0  0  0  0  0
   58.9617   28.0573   51.0466 H   0  0  0  0  0  0  0  0  0  0  0  0
   57.7667   31.9080   53.4628 H   0  0  0  0  0  0  0  0  0  0  0  0
   56.4201   31.3996   52.3055 H   0  0  0  0  0  0  0  0  0  0  0  0
   56.6339   31.1058   55.2581 H   0  0  0  0  0  0  0  0  0  0  0  0
   55.2064   31.4058   54.1430 H   0  0  0  0  0  0  0  0  0  0  0  0
  1  2  2  0
  2  3  1  0
  3  4  2  0
  4  5  1  0
  5  6  2  0
  6  7  1  0
  6  8  1  0
  8  9  2  0
  2 10  1  0
 10 11  1  0
 11 12  1  0
 12 13  1  0
 13 14  1  0
 14 15  2  0
 15 16  1  0
 16 17  2  0
 17 18  1  0
 18 19  1  0
 19 20  1  0
 20 21  1  0
 21 22  1  0
 22 23  1  0
 23 24  1  0
 24 25  1  0
 25 26  1  0
 26 27  1  0
 17 28  1  0
 28 29  2  0
 13 30  1  0
 30 31  1  0
  9  3  1  0
 31 10  1  0
 29 14  1  0
 27 22  1  0
  4 32  1  0
  5 33  1  0
  8 34  1  0
  9 35  1  0
 10 36  1  0
 11 37  1  0
 11 38  1  0
 12 39  1  0
 12 40  1  0
 15 41  1  0
 16 42  1  0
 19 43  1  0
 19 44  1  0
 20 45  1  0
 20 46  1  0
 21 47  1  0
 21 48  1  0
 23 49  1  0
 23 50  1  0
 24 51  1  0
 24 52  1  0
 26 53  1  0
 26 54  1  0
 27 55  1  0
 27 56  1  0
 28 57  1  0
 29 58  1  0
 30 59  1  0
 30 60  1  0
 31 61  1  0
 31 62  1  0
M  CHG  2   7  -1  10   1
M  END
>  <UniqueID>  (1) 
1

>  <SMILES>  (1) 
O=C(c1ccc([O-])cc1)[NH+]1CCN(c2ccc(OCCCN3CCOCC3)cc2)CC1

>  <Energy>  (1) 
90.0666055559147

>  <Genealogy>  (1) 
O=C(c1ccc([O-])cc1)[NH+]1CCN(c2ccc(OCCCN3CCOCC3)cc2)CC1 (protonated)
O=C(c1ccc([O-])cc1)[NH+]1CCN(c2ccc(OCCCN3CCOCC3)cc2)CC1 (3D coordinates assigned)
O=C(c1ccc([O-])cc1)[NH+]1CCN(c2ccc(OCCCN3CCOCC3)cc2)CC1 (nonaromatic ring conformer: 90.0666055559147 kcal/mol)

>  <smiles>  (1) 
O=C(c1ccc(O)cc1)N1CCN(c2ccc(OCCCN3CCOCC3)cc2)CC1

>  <score_type>  (1) 
oracle

>  <origin>  (1) 
adg

>  <m_score__min__energy>  (1) 
-11.15

>  <m_primary>  (1) 
energy

$$$$
1:0
     RDKit          3D

 24 25  0  0  0  0  0  0  0  0999 V2000
   56.2100   29.4060   42.6440 C   0  0  0  0  0  0  0  0  0  0  0  0
   56.9370   30.6420   42.9050 N   0  0  0  0  0  0  0  0  0  0  0  0
   57.3920   31.5910   41.8980 C   0  0  0  0  0  0  0  0  0  0  0  0
   58.1340   32.7040   42.6810 C   0  0  0  0  0  0  0  0  0  0  0  0
   57.9910   32.3670   44.0980 N   0  0  0  0  0  0  0  0  0  0  0  0
   58.4230   33.1950   45.1970 C   0  0  0  0  0  0  0  0  0  0  0  0
   59.3010   34.2710   44.9770 C   0  0  0  0  0  0  0  0  0  0  0  0
   59.7080   35.0740   46.0430 C   0  0  0  0  0  0  0  0  0  0  0  0
   59.2260   34.8060   47.3250 C   0  0  0  0  0  0  0  0  0  0  0  0
   58.3650   33.7750   47.5250 N   0  0  0  0  0  0  0  0  0  0  0  0
   57.9550   32.9740   46.5050 C   0  0  0  0  0  0  0  0  0  0  0  0
   57.3090   31.1280   44.1750 C   0  0  0  0  0  0  0  0  0  0  0  0
   57.1090   30.4950   45.2450 O   0  0  0  0  0  0  0  0  0  0  0  0
   55.9330   28.9350   43.5987 H   0  0  0  0  0  0  0  0  0  0  0  0
   55.3000   29.6304   42.0682 H   0  0  0  0  0  0  0  0  0  0  0  0
   56.8483   28.7197   42.0682 H   0  0  0  0  0  0  0  0  0  0  0  0
   58.0743   31.1004   41.1883 H   0  0  0  0  0  0  0  0  0  0  0  0
   56.5542   31.9951   41.3109 H   0  0  0  0  0  0  0  0  0  0  0  0
   59.1970   32.7255   42.3990 H   0  0  0  0  0  0  0  0  0  0  0  0
   57.7169   33.6975   42.4599 H   0  0  0  0  0  0  0  0  0  0  0  0
   59.6681   34.4803   43.9614 H   0  0  0  0  0  0  0  0  0  0  0  0
   60.4023   35.9104   45.8745 H   0  0  0  0  0  0  0  0  0  0  0  0
   59.5435   35.4299   48.1735 H   0  0  0  0  0  0  0  0  0  0  0  0
   57.2543   32.1497   46.7038 H   0  0  0  0  0  0  0  0  0  0  0  0
  1  2  1  0
  2  3  1  0
  3  4  1  0
  4  5  1  0
  5  6  1  0
  6  7  2  0
  7  8  1  0
  8  9  2  0
  9 10  1  0
 10 11  2  0
  5 12  1  0
 12 13  2  0
 12  2  1  0
 11  6  1  0
  1 14  1  0
  1 15  1  0
  1 16  1  0
  3 17  1  0
  3 18  1  0
  4 19  1  0
  4 20  1  0
  7 21  1  0
  8 22  1  0
  9 23  1  0
 11 24  1  0
M  END
>  <UniqueID>  (2) 
2

>  <SMILES>  (2) 
CN1CCN(c2cccnc2)C1=O

>  <Energy>  (2) 
39.3262210245881

>  <Genealogy>  (2) 
CN1CCN(c2cccnc2)C1=O (3D coordinates assigned)
CN1CCN(c2cccnc2)C1=O (nonaromatic ring conformer: 39.3262210245881 kcal/mol)

>  <smiles>  (2) 
CN1CCN(c2cccnc2)C1=O

>  <score_type>  (2) 
oracle

>  <origin>  (2) 
adg

>  <m_score__min__energy>  (2) 
-5.4000000000000004

>  <m_primary>  (2) 
energy

$$$$
2:0
     RDKit          3D

 40 41  0  0  0  0  0  0  0  0999 V2000
   59.6990   28.8300   44.9780 C   0  0  0  0  0  0  0  0  0  0  0  0
   58.4500   28.1580   44.4320 C   0  0  0  0  0  0  0  0  0  0  0  0
   57.3130   28.5980   45.1660 O   0  0  0  0  0  0  0  0  0  0  0  0
   56.3800   29.4970   44.6410 C   0  0  0  0  0  0  0  0  0  0  0  0
   55.1450   29.3250   44.8250 O   0  0  0  0  0  0  0  0  0  0  0  0
   56.8500   30.6540   43.8160 C   0  0  0  0  0  0  0  0  0  0  0  0
   56.6540   31.8870   44.5100 O   0  0  0  0  0  0  0  0  0  0  0  0
   57.5920   32.4960   45.3610 C   0  0  0  0  0  0  0  0  0  0  0  0
   58.1610   31.8310   46.4640 C   0  0  0  0  0  0  0  0  0  0  0  0
   59.0930   32.4860   47.2750 C   0  0  0  0  0  0  0  0  0  0  0  0
   59.4700   33.8040   47.0050 C   0  0  0  0  0  0  0  0  0  0  0  0
   60.4090   34.4150   47.8490 O   0  0  0  0  0  0  0  0  0  0  0  0
   60.4710   34.2230   49.2610 C   0  0  0  0  0  0  0  0  0  0  0  0
   61.9220   34.0320   49.6920 C   0  0  0  0  0  0  0  0  0  0  0  0
   62.6530   33.2490   48.7000 N   0  0  0  0  0  0  0  0  0  0  0  0
   62.3520   32.0090   48.2680 C   0  0  0  0  0  0  0  0  0  0  0  0
   63.2480   31.6720   47.2740 C   0  0  0  0  0  0  0  0  0  0  0  0
   64.0910   32.7050   47.0880 N   0  0  0  0  0  0  0  0  0  0  0  0
   63.7050   33.6540   47.9620 C   0  0  0  0  0  0  0  0  0  0  0  0
   58.8990   34.4710   45.9050 C   0  0  0  0  0  0  0  0  0  0  0  0
   57.9670   33.8170   45.0940 C   0  0  0  0  0  0  0  0  0  0  0  0
   59.6722   28.8156   46.0776 H   0  0  0  0  0  0  0  0  0  0  0  0
   60.5899   28.2895   44.6258 H   0  0  0  0  0  0  0  0  0  0  0  0
   59.7389   29.8713   44.6258 H   0  0  0  0  0  0  0  0  0  0  0  0
   58.3259   28.4219   43.3714 H   0  0  0  0  0  0  0  0  0  0  0  0
   58.5490   27.0669   44.5301 H   0  0  0  0  0  0  0  0  0  0  0  0
   57.9210   30.5296   43.5980 H   0  0  0  0  0  0  0  0  0  0  0  0
   56.2687   30.6795   42.8825 H   0  0  0  0  0  0  0  0  0  0  0  0
   57.8717   30.7937   46.6883 H   0  0  0  0  0  0  0  0  0  0  0  0
   59.5336   31.9585   48.1338 H   0  0  0  0  0  0  0  0  0  0  0  0
   60.0521   35.1045   49.7684 H   0  0  0  0  0  0  0  0  0  0  0  0
   59.8902   33.3291   49.5324 H   0  0  0  0  0  0  0  0  0  0  0  0
   62.4001   35.0169   49.7992 H   0  0  0  0  0  0  0  0  0  0  0  0
   61.9395   33.4945   50.6516 H   0  0  0  0  0  0  0  0  0  0  0  0
   61.5344   31.3754   48.6424 H   0  0  0  0  0  0  0  0  0  0  0  0
   63.2697   30.7188   46.7254 H   0  0  0  0  0  0  0  0  0  0  0  0
   64.8740   32.7640   46.4000 H   0  0  0  0  0  0  0  0  0  0  0  0
   64.1883   34.6372   48.0611 H   0  0  0  0  0  0  0  0  0  0  0  0
   59.1868   35.5092   45.6830 H   0  0  0  0  0  0  0  0  0  0  0  0
   57.5241   34.3463   44.2374 H   0  0  0  0  0  0  0  0  0  0  0  0
  1  2  1  0
  2  3  1  0
  3  4  1  0
  4  5  2  0
  4  6  1  0
  6  7  1  0
  7  8  1  0
  8  9  2  0
  9 10  1  0
 10 11  2  0
 11 12  1  0
 12 13  1  0
 13 14  1  0
 14 15  1  0
 15 16  1  0
 16 17  2  0
 17 18  1  0
 18 19  2  0
 11 20  1  0
 20 21  2  0
 21  8  1  0
 19 15  1  0
  1 22  1  0
  1 23  1  0
  1 24  1  0
  2 25  1  0
  2 26  1  0
  6 27  1  0
  6 28  1  0
  9 29  1  0
 10 30  1  0
 13 31  1  0
 13 32  1  0
 14 33  1  0
 14 34  1  0
 16 35  1  0
 17 36  1  0
 18 37  1  0
 19 38  1  0
 20 39  1  0
 21 40  1  0
M  CHG  1  18   1
M  END
>  <UniqueID>  (3) 
3

>  <SMILES>  (3) 
CCOC(=O)COc1ccc(OCCn2cc[nH+]c2)cc1

>  <Energy>  (3) 
59.849760306035236

>  <Genealogy>  (3) 
CCOC(=O)COc1ccc(OCCn2cc[nH+]c2)cc1 (protonated)
CCOC(=O)COc1ccc(OCCn2cc[nH+]c2)cc1 (3D coordinates assigned)
CCOC(=O)COc1ccc(OCCn2cc[nH+]c2)cc1 (optimized conformer: 59.849760306035236 kcal/mol)

>  <smiles>  (3) 
CCOC(=O)COc1ccc(OCCn2ccnc2)cc1

>  <score_type>  (3) 
oracle

>  <origin>  (3) 
adg

>  <m_score__min__energy>  (3) 
-4.9900000000000002

>  <m_primary>  (3) 
energy

$$$$
3:0
     RDKit          3D

 28 29  0  0  0  0  0  0  0  0999 V2000
   56.9860   34.2760   45.0000 O   0  0  0  0  0  0  0  0  0  0  0  0
   58.1910   33.9740   44.7900 C   0  0  0  0  0  0  0  0  0  0  0  0
   59.2750   34.9230   45.2350 C   0  0  0  0  0  0  0  0  0  0  0  0
   59.9940   34.4300   46.4660 C   0  0  0  0  0  0  0  0  0  0  0  0
   59.4180   34.5900   47.7390 C   0  0  0  0  0  0  0  0  0  0  0  0
   60.0930   34.1470   48.8810 C   0  0  0  0  0  0  0  0  0  0  0  0
   61.3520   33.5560   48.7650 C   0  0  0  0  0  0  0  0  0  0  0  0
   61.9430   33.4120   47.5070 C   0  0  0  0  0  0  0  0  0  0  0  0
   61.2720   33.8520   46.3620 C   0  0  0  0  0  0  0  0  0  0  0  0
   58.4920   32.6850   44.2400 N   0  0  0  0  0  0  0  0  0  0  0  0
   57.7460   31.4860   44.4750 C   0  0  0  0  0  0  0  0  0  0  0  0
   56.6320   31.1640   43.6830 C   0  0  0  0  0  0  0  0  0  0  0  0
   55.9010   30.0000   43.9390 C   0  0  0  0  0  0  0  0  0  0  0  0
   56.2630   29.1640   45.0000 C   0  0  0  0  0  0  0  0  0  0  0  0
   55.5370   28.0070   45.2520 O   0  0  0  0  0  0  0  0  0  0  0  0
   57.3520   29.4980   45.8110 C   0  0  0  0  0  0  0  0  0  0  0  0
   58.0850   30.6620   45.5560 C   0  0  0  0  0  0  0  0  0  0  0  0
   59.1380   30.9790   46.3520 F   0  0  0  0  0  0  0  0  0  0  0  0
   60.0047   35.0347   44.4195 H   0  0  0  0  0  0  0  0  0  0  0  0
   58.8013   35.8843   45.4829 H   0  0  0  0  0  0  0  0  0  0  0  0
   58.4312   35.0661   47.8370 H   0  0  0  0  0  0  0  0  0  0  0  0
   59.6308   34.2646   49.8723 H   0  0  0  0  0  0  0  0  0  0  0  0
   61.8791   33.2036   49.6639 H   0  0  0  0  0  0  0  0  0  0  0  0
   62.9380   32.9516   47.4174 H   0  0  0  0  0  0  0  0  0  0  0  0
   61.7459   33.7456   45.3750 H   0  0  0  0  0  0  0  0  0  0  0  0
   56.3338   31.8292   42.8592 H   0  0  0  0  0  0  0  0  0  0  0  0
   55.0400   29.7415   43.3050 H   0  0  0  0  0  0  0  0  0  0  0  0
   57.6327   28.8448   46.6504 H   0  0  0  0  0  0  0  0  0  0  0  0
  1  2  2  0
  2  3  1  0
  3  4  1  0
  4  5  2  0
  5  6  1  0
  6  7  2  0
  7  8  1  0
  8  9  2  0
  2 10  1  0
 10 11  1  0
 11 12  2  0
 12 13  1  0
 13 14  2  0
 14 15  1  0
 14 16  1  0
 16 17  2  0
 17 18  1  0
  9  4  1  0
 17 11  1  0
  3 19  1  0
  3 20  1  0
  5 21  1  0
  6 22  1  0
  7 23  1  0
  8 24  1  0
  9 25  1  0
 12 26  1  0
 13 27  1  0
 16 28  1  0
M  CHG  2  10  -1  15  -1
M  END
>  <UniqueID>  (4) 
4

>  <SMILES>  (4) 
O=C(Cc1ccccc1)[N-]c1ccc([O-])cc1F

>  <Energy>  (4) 
33.571093323303224

>  <Genealogy>  (4) 
O=C(Cc1ccccc1)[N-]c1ccc([O-])cc1F (protonated)
O=C(Cc1ccccc1)[N-]c1ccc([O-])cc1F (3D coordinates assigned)
O=C(Cc1ccccc1)[N-]c1ccc([O-])cc1F (optimized conformer: 33.571093323303224 kcal/mol)

>  <smiles>  (4) 
O=C(Cc1ccccc1)Nc1ccc(O)cc1F

>  <score_type>  (4) 
oracle

>  <origin>  (4) 
adg

>  <m_score__min__energy>  (4) 
-11.119999999999999

>  <m_primary>  (4) 
energy

$$$$
4:0
     RDKit          3D

 39 42  0  0  0  0  0  0  0  0999 V2000
   59.4800   36.0280   44.8670 C   0  0  0  0  0  0  0  0  0  0  0  0
   59.1940   34.9110   45.8160 C   0  0  0  0  0  0  0  0  0  0  0  0
   59.2640   34.9480   47.2030 C   0  0  0  0  0  0  0  0  0  0  0  0
   58.9350   33.7700   47.7000 O   0  0  0  0  0  0  0  0  0  0  0  0
   58.6560   32.9730   46.6990 C   0  0  0  0  0  0  0  0  0  0  0  0
   58.2650   31.6380   46.7570 C   0  0  0  0  0  0  0  0  0  0  0  0
   58.0310   30.9600   45.5420 C   0  0  0  0  0  0  0  0  0  0  0  0
   57.6160   29.5400   45.5540 C   0  0  0  0  0  0  0  0  0  0  0  0
   58.5110   28.4900   45.8850 C   0  0  0  0  0  0  0  0  0  0  0  0
   59.9130   28.7170   46.1400 N   0  0  0  0  0  0  0  0  0  0  0  0
   60.0770   29.3460   47.4250 C   0  0  0  0  0  0  0  0  0  0  0  0
   59.2780   28.9550   48.5170 C   0  0  0  0  0  0  0  0  0  0  0  0
   59.4520   29.5540   49.7680 C   0  0  0  0  0  0  0  0  0  0  0  0
   60.4290   30.5370   49.9460 C   0  0  0  0  0  0  0  0  0  0  0  0
   60.6500   31.2830   51.5170 Cl  0  0  0  0  0  0  0  0  0  0  0  0
   61.2350   30.9220   48.8700 C   0  0  0  0  0  0  0  0  0  0  0  0
   61.0610   30.3330   47.6170 C   0  0  0  0  0  0  0  0  0  0  0  0
   58.0470   27.2110   45.9060 N   0  0  0  0  0  0  0  0  0  0  0  0
   56.7550   26.9150   45.6160 C   0  0  0  0  0  0  0  0  0  0  0  0
   56.3630   25.7210   45.6540 O   0  0  0  0  0  0  0  0  0  0  0  0
   55.8900   27.9040   45.2860 N   0  0  0  0  0  0  0  0  0  0  0  0
   56.2860   29.1990   45.2460 C   0  0  0  0  0  0  0  0  0  0  0  0
   55.4480   30.0910   44.9390 O   0  0  0  0  0  0  0  0  0  0  0  0
   58.1580   31.6540   44.3130 C   0  0  0  0  0  0  0  0  0  0  0  0
   58.5540   33.0030   44.2880 C   0  0  0  0  0  0  0  0  0  0  0  0
   58.7990   33.6290   45.5060 C   0  0  0  0  0  0  0  0  0  0  0  0
   59.7137   36.9407   45.4347 H   0  0  0  0  0  0  0  0  0  0  0  0
   60.3386   35.7603   44.2336 H   0  0  0  0  0  0  0  0  0  0  0  0
   58.5984   36.2058   44.2336 H   0  0  0  0  0  0  0  0  0  0  0  0
   59.5507   35.8275   47.7982 H   0  0  0  0  0  0  0  0  0  0  0  0
   58.1420   31.1263   47.7229 H   0  0  0  0  0  0  0  0  0  0  0  0
   60.2900   29.3390   45.3880 H   0  0  0  0  0  0  0  0  0  0  0  0
   60.4770   27.8430   46.1060 H   0  0  0  0  0  0  0  0  0  0  0  0
   58.5138   28.1749   48.3849 H   0  0  0  0  0  0  0  0  0  0  0  0
   58.8182   29.2508   50.6144 H   0  0  0  0  0  0  0  0  0  0  0  0
   62.0083   31.6913   49.0118 H   0  0  0  0  0  0  0  0  0  0  0  0
   61.6970   30.6422   46.7744 H   0  0  0  0  0  0  0  0  0  0  0  0
   57.9446   31.1319   43.3686 H   0  0  0  0  0  0  0  0  0  0  0  0
   58.6663   33.5450   43.3374 H   0  0  0  0  0  0  0  0  0  0  0  0
  1  2  1  0
  2  3  2  0
  3  4  1  0
  4  5  1  0
  5  6  2  0
  6  7  1  0
  7  8  1  0
  8  9  2  0
  9 10  1  0
 10 11  1  0
 11 12  2  0
 12 13  1  0
 13 14  2  0
 14 15  1  0
 14 16  1  0
 16 17  2  0
  9 18  1  0
 18 19  1  0
 19 20  2  0
 19 21  1  0
 21 22  1  0
 22 23  2  0
  7 24  2  0
 24 25  1  0
 25 26  2  0
 26  2  1  0
 26  5  1  0
 22  8  1  0
 17 11  1  0
  1 27  1  0
  1 28  1  0
  1 29  1  0
  3 30  1  0
  6 31  1  0
 10 32  1  0
 10 33  1  0
 12 34  1  0
 13 35  1  0
 16 36  1  0
 17 37  1  0
 24 38  1  0
 25 39  1  0
M  CHG  3  10   1  18  -1  21  -1
M  END
>  <UniqueID>  (5) 
5

>  <SMILES>  (5) 
Cc1coc2cc(-c3c([NH2+]c4ccc(Cl)cc4)[n-]c(=O)[n-]c3=O)ccc12

>  <Energy>  (5) 
88.65234389437968

>  <Genealogy>  (5) 
Cc1coc2cc(-c3c([NH2+]c4ccc(Cl)cc4)[n-]c(=O)[n-]c3=O)ccc12 (protonated)
Cc1coc2cc(-c3c([NH2+]c4ccc(Cl)cc4)[n-]c(=O)[n-]c3=O)ccc12 (3D coordinates assigned)
Cc1coc2cc(-c3c([NH2+]c4ccc(Cl)cc4)[n-]c(=O)[n-]c3=O)ccc12 (optimized conformer: 88.65234389437968 kcal/mol)

>  <smiles>  (5) 
Cc1coc2cc(-c3c(Nc4ccc(Cl)cc4)[nH]c(=O)[nH]c3=O)ccc12

>  <score_type>  (5) 
oracle

>  <origin>  (5) 
adg

>  <m_score__min__energy>  (5) 
-9.9800000000000004

>  <m_primary>  (5) 
energy

$$$$
5:0
     RDKit          3D

 41 42  0  0  0  0  0  0  0  0999 V2000
   63.7680   30.5800   50.9420 O   0  0  0  0  0  0  0  0  0  0  0  0
   63.6190   31.7290   50.4480 C   0  0  0  0  0  0  0  0  0  0  0  0
   64.6140   32.2680   49.5690 N   0  0  0  0  0  0  0  0  0  0  0  0
   64.3320   33.2580   48.5340 C   0  0  0  0  0  0  0  0  0  0  0  0
   63.6210   32.6170   47.3440 C   0  0  0  0  0  0  0  0  0  0  0  0
   62.6990   33.8340   46.4230 Cl  0  0  0  0  0  0  0  0  0  0  0  0
   62.4240   32.4610   50.7370 N   0  0  0  0  0  0  0  0  0  0  0  0
   61.3380   32.7050   49.8320 C   0  0  0  0  0  0  0  0  0  0  0  0
   60.6320   33.9200   49.8270 C   0  0  0  0  0  0  0  0  0  0  0  0
   59.5650   34.1110   48.9440 C   0  0  0  0  0  0  0  0  0  0  0  0
   59.1750   33.0930   48.0660 C   0  0  0  0  0  0  0  0  0  0  0  0
   58.1020   33.3430   47.1990 O   0  0  0  0  0  0  0  0  0  0  0  0
   58.2040   33.3260   45.4910 S   0  0  0  0  0  0  0  0  0  0  0  0
   56.8850   33.7530   44.9100 O   0  0  0  0  0  0  0  0  0  0  0  0
   59.2910   34.2620   45.0450 O   0  0  0  0  0  0  0  0  0  0  0  0
   58.5770   31.6840   44.9740 C   0  0  0  0  0  0  0  0  0  0  0  0
   57.6490   30.8060   44.5830 C   0  0  0  0  0  0  0  0  0  0  0  0
   57.6030   29.4140   45.0620 C   0  0  0  0  0  0  0  0  0  0  0  0
   58.8000   28.7540   45.3760 C   0  0  0  0  0  0  0  0  0  0  0  0
   58.7750   27.4340   45.8290 C   0  0  0  0  0  0  0  0  0  0  0  0
   57.5590   26.7610   45.9620 C   0  0  0  0  0  0  0  0  0  0  0  0
   56.3610   27.4020   45.6330 C   0  0  0  0  0  0  0  0  0  0  0  0
   55.1590   26.7140   45.7610 O   0  0  0  0  0  0  0  0  0  0  0  0
   56.3770   28.7330   45.1760 C   0  0  0  0  0  0  0  0  0  0  0  0
   55.1890   29.3820   44.8310 O   0  0  0  0  0  0  0  0  0  0  0  0
   59.8650   31.8670   48.0920 C   0  0  0  0  0  0  0  0  0  0  0  0
   60.9310   31.6760   48.9750 C   0  0  0  0  0  0  0  0  0  0  0  0
   63.6902   34.0459   48.9550 H   0  0  0  0  0  0  0  0  0  0  0  0
   65.2850   33.6829   48.1860 H   0  0  0  0  0  0  0  0  0  0  0  0
   64.3695   32.1560   46.6828 H   0  0  0  0  0  0  0  0  0  0  0  0
   62.9210   31.8567   47.7207 H   0  0  0  0  0  0  0  0  0  0  0  0
   60.9199   34.7239   50.5205 H   0  0  0  0  0  0  0  0  0  0  0  0
   59.0269   35.0704   48.9392 H   0  0  0  0  0  0  0  0  0  0  0  0
   59.6296   31.3646   44.9730 H   0  0  0  0  0  0  0  0  0  0  0  0
   56.8818   31.1390   43.8684 H   0  0  0  0  0  0  0  0  0  0  0  0
   59.7608   29.2779   45.2650 H   0  0  0  0  0  0  0  0  0  0  0  0
   59.7156   26.9228   46.0818 H   0  0  0  0  0  0  0  0  0  0  0  0
   57.5435   25.7233   46.3267 H   0  0  0  0  0  0  0  0  0  0  0  0
   54.3810   28.8790   44.4860 H   0  0  0  0  0  0  0  0  0  0  0  0
   59.5638   31.0549   47.4139 H   0  0  0  0  0  0  0  0  0  0  0  0
   61.4547   30.7089   48.9968 H   0  0  0  0  0  0  0  0  0  0  0  0
  1  2  2  0
  2  3  1  0
  3  4  1  0
  4  5  1  0
  5  6  1  0
  2  7  1  0
  7  8  1  0
  8  9  2  0
  9 10  1  0
 10 11  2  0
 11 12  1  0
 12 13  1  0
 13 14  2  0
 13 15  2  0
 13 16  1  0
 16 17  2  3
 17 18  1  0
 18 19  2  0
 19 20  1  0
 20 21  2  0
 21 22  1  0
 22 23  1  0
 22 24  2  0
 24 25  1  0
 11 26  1  0
 26 27  2  0
 27  8  1  0
 24 18  1  0
  4 28  1  0
  4 29  1  0
  5 30  1  0
  5 31  1  0
  9 32  1  0
 10 33  1  0
 16 34  1  0
 17 35  1  0
 19 36  1  0
 20 37  1  0
 21 38  1  0
 25 39  1  0
 26 40  1  0
 27 41  1  0
M  CHG  3   3  -1   7  -1  23  -1
M  END
>  <UniqueID>  (6) 
6

>  <SMILES>  (6) 
O=C([N-]CCCl)[N-]c1ccc(OS(=O)(=O)C=Cc2cccc([O-])c2O)cc1

>  <Energy>  (6) 
49.09378022105699

>  <Genealogy>  (6) 
O=C([N-]CCCl)[N-]c1ccc(OS(=O)(=O)C=Cc2cccc([O-])c2O)cc1 (protonated)
O=C([N-]CCCl)[N-]c1ccc(OS(=O)(=O)C=Cc2cccc([O-])c2O)cc1 (3D coordinates assigned)
O=C([N-]CCCl)[N-]c1ccc(OS(=O)(=O)C=Cc2cccc([O-])c2O)cc1 (optimized conformer: 49.09378022105699 kcal/mol)

>  <smiles>  (6) 
O=C(NCCCl)Nc1ccc(OS(=O)(=O)C=Cc2cccc(O)c2O)cc1

>  <score_type>  (6) 
oracle

>  <origin>  (6) 
adg

>  <m_score__min__energy>  (6) 
-14.359999999999999

>  <m_primary>  (6) 
energy

$$$$
6:0
     RDKit          3D

 35 36  0  0  0  0  0  0  0  0999 V2000
   54.7400   25.2500   45.6350 C   0  0  0  0  0  0  0  0  0  0  0  0
   55.1700   26.5960   45.9910 N   0  0  0  0  0  0  0  0  0  0  0  0
   56.5280   27.0520   45.9770 C   0  0  0  0  0  0  0  0  0  0  0  0
   57.4330   26.2720   46.3760 O   0  0  0  0  0  0  0  0  0  0  0  0
   56.8980   28.4160   45.5470 C   0  0  0  0  0  0  0  0  0  0  0  0
   56.0380   29.1390   44.7070 C   0  0  0  0  0  0  0  0  0  0  0  0
   56.3640   30.4400   44.3130 C   0  0  0  0  0  0  0  0  0  0  0  0
   57.5370   31.0470   44.7780 C   0  0  0  0  0  0  0  0  0  0  0  0
   57.8270   32.3940   44.3790 N   0  0  0  0  0  0  0  0  0  0  0  0
   57.8470   33.5400   45.2410 C   0  0  0  0  0  0  0  0  0  0  0  0
   57.6820   34.6820   44.7400 O   0  0  0  0  0  0  0  0  0  0  0  0
   58.0480   33.4250   46.6570 N   0  0  0  0  0  0  0  0  0  0  0  0
   59.2980   33.5770   47.3460 C   0  0  0  0  0  0  0  0  0  0  0  0
   59.2930   33.6880   48.7400 C   0  0  0  0  0  0  0  0  0  0  0  0
   60.4890   33.8660   49.4380 C   0  0  0  0  0  0  0  0  0  0  0  0
   61.7130   33.9240   48.7510 C   0  0  0  0  0  0  0  0  0  0  0  0
   62.9920   34.1290   49.5140 C   0  0  0  0  0  0  0  0  0  0  0  0
   61.7230   33.7810   47.3490 C   0  0  0  0  0  0  0  0  0  0  0  0
   63.2230   33.8330   46.4310 Cl  0  0  0  0  0  0  0  0  0  0  0  0
   60.5210   33.5950   46.6570 C   0  0  0  0  0  0  0  0  0  0  0  0
   58.4030   30.3220   45.6130 C   0  0  0  0  0  0  0  0  0  0  0  0
   58.0780   29.0210   46.0080 C   0  0  0  0  0  0  0  0  0  0  0  0
   54.5547   24.6700   46.5511 H   0  0  0  0  0  0  0  0  0  0  0  0
   53.8148   25.3053   45.0426 H   0  0  0  0  0  0  0  0  0  0  0  0
   55.5259   24.7587   45.0426 H   0  0  0  0  0  0  0  0  0  0  0  0
   55.1020   28.6797   44.3564 H   0  0  0  0  0  0  0  0  0  0  0  0
   55.6955   30.9898   43.6341 H   0  0  0  0  0  0  0  0  0  0  0  0
   58.3416   33.6348   49.2896 H   0  0  0  0  0  0  0  0  0  0  0  0
   60.4728   33.9615   50.5337 H   0  0  0  0  0  0  0  0  0  0  0  0
   62.7842   34.0957   50.5937 H   0  0  0  0  0  0  0  0  0  0  0  0
   63.7060   33.3338   49.2533 H   0  0  0  0  0  0  0  0  0  0  0  0
   63.4217   35.1075   49.2533 H   0  0  0  0  0  0  0  0  0  0  0  0
   60.5345   33.4619   45.5652 H   0  0  0  0  0  0  0  0  0  0  0  0
   59.3417   30.7802   45.9579 H   0  0  0  0  0  0  0  0  0  0  0  0
   58.7493   28.4693   46.6825 H   0  0  0  0  0  0  0  0  0  0  0  0
  1  2  1  0
  2  3  1  0
  3  4  2  0
  3  5  1  0
  5  6  2  0
  6  7  1  0
  7  8  2  0
  8  9  1  0
  9 10  1  0
 10 11  2  0
 10 12  1  0
 12 13  1  0
 13 14  2  0
 14 15  1  0
 15 16  2  0
 16 17  1  0
 16 18  1  0
 18 19  1  0
 18 20  2  0
  8 21  1  0
 21 22  2  0
 22  5  1  0
 20 13  1  0
  1 23  1  0
  1 24  1  0
  1 25  1  0
  6 26  1  0
  7 27  1  0
 14 28  1  0
 15 29  1  0
 17 30  1  0
 17 31  1  0
 17 32  1  0
 20 33  1  0
 21 34  1  0
 22 35  1  0
M  CHG  3   2  -1   9  -1  12  -1
M  END
>  <UniqueID>  (7) 
7

>  <SMILES>  (7) 
C[N-]C(=O)c1ccc([N-]C(=O)[N-]c2ccc(C)c(Cl)c2)cc1

>  <Energy>  (7) 
45.955893634258935

>  <Genealogy>  (7) 
C[N-]C(=O)c1ccc([N-]C(=O)[N-]c2ccc(C)c(Cl)c2)cc1 (protonated)
C[N-]C(=O)c1ccc([N-]C(=O)[N-]c2ccc(C)c(Cl)c2)cc1 (3D coordinates assigned)
C[N-]C(=O)c1ccc([N-]C(=O)[N-]c2ccc(C)c(Cl)c2)cc1 (optimized conformer: 45.955893634258935 kcal/mol)

>  <smiles>  (7) 
CNC(=O)c1ccc(NC(=O)Nc2ccc(C)c(Cl)c2)cc1

>  <score_type>  (7) 
oracle

>  <origin>  (7) 
adg

>  <m_score__min__energy>  (7) 
-11.609999999999999

>  <m_primary>  (7) 
energy

$$$$
7:0
     RDKit          3D

 36 37  0  0  0  0  0  0  0  0999 V2000
   57.2230   33.7360   45.9440 C   0  0  0  0  0  0  0  0  0  0  0  0
   58.5060   33.3800   46.6360 C   0  0  0  0  0  0  0  0  0  0  0  0
   59.7380   33.6340   46.0210 C   0  0  0  0  0  0  0  0  0  0  0  0
   60.9220   33.2780   46.6650 C   0  0  0  0  0  0  0  0  0  0  0  0
   60.8640   32.6520   47.9110 C   0  0  0  0  0  0  0  0  0  0  0  0
   59.6590   32.3760   48.4960 N   0  0  0  0  0  0  0  0  0  0  0  0
   59.6220   31.7470   49.8210 C   0  0  0  0  0  0  0  0  0  0  0  0
   58.8190   30.4860   49.7650 C   0  0  0  0  0  0  0  0  0  0  0  0
   57.7640   30.3880   50.4470 O   0  0  0  0  0  0  0  0  0  0  0  0
   59.2690   29.4030   48.9420 N   0  0  0  0  0  0  0  0  0  0  0  0
   59.3240   29.3820   47.5080 C   0  0  0  0  0  0  0  0  0  0  0  0
   60.5160   29.1120   46.8100 C   0  0  0  0  0  0  0  0  0  0  0  0
   60.5190   29.0750   45.4130 C   0  0  0  0  0  0  0  0  0  0  0  0
   59.3360   29.2910   44.7030 C   0  0  0  0  0  0  0  0  0  0  0  0
   58.1390   29.5390   45.3870 C   0  0  0  0  0  0  0  0  0  0  0  0
   56.6410   29.7680   44.4910 S   0  0  0  0  0  0  0  0  0  0  0  0
   56.8560   29.2330   42.8600 N   0  0  0  0  0  0  0  0  0  0  0  0
   56.2640   31.2230   44.4960 O   0  0  0  0  0  0  0  0  0  0  0  0
   55.5330   28.9810   45.1340 O   0  0  0  0  0  0  0  0  0  0  0  0
   58.1370   29.5710   46.7890 C   0  0  0  0  0  0  0  0  0  0  0  0
   58.4900   32.7340   47.8810 C   0  0  0  0  0  0  0  0  0  0  0  0
   56.4486   33.9509   46.6951 H   0  0  0  0  0  0  0  0  0  0  0  0
   57.3801   34.6245   45.3148 H   0  0  0  0  0  0  0  0  0  0  0  0
   56.8998   32.8936   45.3148 H   0  0  0  0  0  0  0  0  0  0  0  0
   59.7715   34.1135   45.0316 H   0  0  0  0  0  0  0  0  0  0  0  0
   61.8939   33.4887   46.1950 H   0  0  0  0  0  0  0  0  0  0  0  0
   61.7959   32.3781   48.4272 H   0  0  0  0  0  0  0  0  0  0  0  0
   60.6476   31.5121   50.1418 H   0  0  0  0  0  0  0  0  0  0  0  0
   59.1573   32.4402   50.5376 H   0  0  0  0  0  0  0  0  0  0  0  0
   61.4477   28.9296   47.3656 H   0  0  0  0  0  0  0  0  0  0  0  0
   61.4554   28.8753   44.8714 H   0  0  0  0  0  0  0  0  0  0  0  0
   59.3442   29.2663   43.6033 H   0  0  0  0  0  0  0  0  0  0  0  0
   56.6180   28.2160   42.8400 H   0  0  0  0  0  0  0  0  0  0  0  0
   57.8770   29.3080   42.6480 H   0  0  0  0  0  0  0  0  0  0  0  0
   57.1947   29.7461   47.3289 H   0  0  0  0  0  0  0  0  0  0  0  0
   57.5286   32.5130   48.3677 H   0  0  0  0  0  0  0  0  0  0  0  0
  1  2  1  0
  2  3  2  0
  3  4  1  0
  4  5  2  0
  5  6  1  0
  6  7  1  0
  7  8  1  0
  8  9  2  0
  8 10  1  0
 10 11  1  0
 11 12  2  0
 12 13  1  0
 13 14  2  0
 14 15  1  0
 15 16  1  0
 16 17  1  0
 16 18  2  0
 16 19  2  0
 15 20  2  0
  6 21  2  0
 21  2  1  0
 20 11  1  0
  1 22  1  0
  1 23  1  0
  1 24  1  0
  3 25  1  0
  4 26  1  0
  5 27  1  0
  7 28  1  0
  7 29  1  0
 12 30  1  0
 13 31  1  0
 14 32  1  0
 17 33  1  0
 17 34  1  0
 20 35  1  0
 21 36  1  0
M  CHG  2   6   1  10  -1
M  END
>  <UniqueID>  (8) 
8

>  <SMILES>  (8) 
Cc1ccc[n+](CC(=O)[N-]c2cccc(S(N)(=O)=O)c2)c1

>  <Energy>  (8) 
36.44432429332815

>  <Genealogy>  (8) 
Cc1ccc[n+](CC(=O)[N-]c2cccc(S(N)(=O)=O)c2)c1 (protonated)
Cc1ccc[n+](CC(=O)[N-]c2cccc(S(N)(=O)=O)c2)c1 (3D coordinates assigned)
Cc1ccc[n+](CC(=O)[N-]c2cccc(S(N)(=O)=O)c2)c1 (optimized conformer: 36.44432429332815 kcal/mol)

>  <smiles>  (8) 
Cc1ccc[n+](CC(=O)Nc2cccc(S(N)(=O)=O)c2)c1

>  <score_type>  (8) 
oracle

>  <origin>  (8) 
adg

>  <m_score__min__energy>  (8) 
-7.7699999999999996

>  <m_primary>  (8) 
energy

$$$$
8:0
     RDKit          3D

 47 50  0  0  0  0  0  0  0  0999 V2000
   64.9180   28.8340   53.8370 C   0  0  0  0  0  0  0  0  0  0  0  0
   64.7780   28.2760   52.5330 O   0  0  0  0  0  0  0  0  0  0  0  0
   65.8480   27.9290   51.6950 C   0  0  0  0  0  0  0  0  0  0  0  0
   66.0710   26.5960   51.2930 C   0  0  0  0  0  0  0  0  0  0  0  0
   67.1740   26.2720   50.5000 C   0  0  0  0  0  0  0  0  0  0  0  0
   68.0700   27.2660   50.1050 C   0  0  0  0  0  0  0  0  0  0  0  0
   67.8550   28.5910   50.4890 C   0  0  0  0  0  0  0  0  0  0  0  0
   66.7360   28.9380   51.2550 C   0  0  0  0  0  0  0  0  0  0  0  0
   66.5500   30.3170   51.6070 N   0  0  0  0  0  0  0  0  0  0  0  0
   66.3180   31.4060   50.7020 C   0  0  0  0  0  0  0  0  0  0  0  0
   67.3030   32.0900   50.3180 O   0  0  0  0  0  0  0  0  0  0  0  0
   64.9680   31.7060   50.1700 C   0  0  0  0  0  0  0  0  0  0  0  0
   63.8150   31.2580   50.8350 C   0  0  0  0  0  0  0  0  0  0  0  0
   62.5560   31.5370   50.3000 C   0  0  0  0  0  0  0  0  0  0  0  0
   62.4490   32.2630   49.1080 C   0  0  0  0  0  0  0  0  0  0  0  0
   61.2000   32.5510   48.5380 C   0  0  0  0  0  0  0  0  0  0  0  0
   61.1240   33.2720   47.3310 C   0  0  0  0  0  0  0  0  0  0  0  0
   59.8940   33.5890   46.7360 O   0  0  0  0  0  0  0  0  0  0  0  0
   59.0250   32.6740   46.1250 C   0  0  0  0  0  0  0  0  0  0  0  0
   59.2850   31.2940   46.1200 C   0  0  0  0  0  0  0  0  0  0  0  0
   58.3960   30.4290   45.4820 C   0  0  0  0  0  0  0  0  0  0  0  0
   57.2550   30.9350   44.8380 C   0  0  0  0  0  0  0  0  0  0  0  0
   56.3020   30.0300   44.1560 C   0  0  0  0  0  0  0  0  0  0  0  0
   55.4940   29.1250   44.9090 N   0  0  0  0  0  0  0  0  0  0  0  0
   56.1930   30.0490   42.9000 O   0  0  0  0  0  0  0  0  0  0  0  0
   57.0450   32.3240   44.8520 C   0  0  0  0  0  0  0  0  0  0  0  0
   57.9250   33.1460   45.4810 N   0  0  0  0  0  0  0  0  0  0  0  0
   62.3010   33.7260   46.7230 C   0  0  0  0  0  0  0  0  0  0  0  0
   63.5480   33.4410   47.2860 C   0  0  0  0  0  0  0  0  0  0  0  0
   63.6270   32.7090   48.4740 C   0  0  0  0  0  0  0  0  0  0  0  0
   64.8390   32.4250   49.0200 N   0  0  0  0  0  0  0  0  0  0  0  0
   64.7231   28.0572   54.5911 H   0  0  0  0  0  0  0  0  0  0  0  0
   65.9406   29.2192   53.9632 H   0  0  0  0  0  0  0  0  0  0  0  0
   64.1983   29.6563   53.9632 H   0  0  0  0  0  0  0  0  0  0  0  0
   65.3719   25.8065   51.6059 H   0  0  0  0  0  0  0  0  0  0  0  0
   67.3368   25.2304   50.1860 H   0  0  0  0  0  0  0  0  0  0  0  0
   68.9452   27.0059   49.4915 H   0  0  0  0  0  0  0  0  0  0  0  0
   68.5714   29.3692   50.1869 H   0  0  0  0  0  0  0  0  0  0  0  0
   63.9034   30.6900   51.7729 H   0  0  0  0  0  0  0  0  0  0  0  0
   61.6491   31.1867   50.8146 H   0  0  0  0  0  0  0  0  0  0  0  0
   60.2786   32.2130   49.0348 H   0  0  0  0  0  0  0  0  0  0  0  0
   60.1835   30.8979   46.6158 H   0  0  0  0  0  0  0  0  0  0  0  0
   58.5893   29.3461   45.4832 H   0  0  0  0  0  0  0  0  0  0  0  0
   54.4940   29.3420   45.1150 H   0  0  0  0  0  0  0  0  0  0  0  0
   56.1627   32.7486   44.3507 H   0  0  0  0  0  0  0  0  0  0  0  0
   62.2435   34.3122   45.7940 H   0  0  0  0  0  0  0  0  0  0  0  0
   64.4670   33.7927   46.7943 H   0  0  0  0  0  0  0  0  0  0  0  0
  1  2  1  0
  2  3  1  0
  3  4  2  0
  4  5  1  0
  5  6  2  0
  6  7  1  0
  7  8  2  0
  8  9  1  0
  9 10  1  0
 10 11  2  0
 10 12  1  0
 12 13  2  0
 13 14  1  0
 14 15  2  0
 15 16  1  0
 16 17  2  0
 17 18  1  0
 18 19  1  0
 19 20  2  0
 20 21  1  0
 21 22  2  0
 22 23  1  0
 23 24  1  0
 23 25  2  0
 22 26  1  0
 26 27  2  0
 17 28  1  0
 28 29  2  0
 29 30  1  0
 30 31  2  0
  8  3  1  0
 31 12  1  0
 30 15  1  0
 27 19  1  0
  1 32  1  0
  1 33  1  0
  1 34  1  0
  4 35  1  0
  5 36  1  0
  6 37  1  0
  7 38  1  0
 13 39  1  0
 14 40  1  0
 16 41  1  0
 20 42  1  0
 21 43  1  0
 24 44  1  0
 26 45  1  0
 28 46  1  0
 29 47  1  0
M  CHG  2   9  -1  24  -1
M  END
>  <UniqueID>  (9) 
9

>  <SMILES>  (9) 
COc1ccccc1[N-]C(=O)c1ccc2cc(Oc3ccc(C([NH-])=O)cn3)ccc2n1

>  <Energy>  (9) 
67.72336282111121

>  <Genealogy>  (9) 
COc1ccccc1[N-]C(=O)c1ccc2cc(Oc3ccc(C([NH-])=O)cn3)ccc2n1 (protonated)
COc1ccccc1[N-]C(=O)c1ccc2cc(Oc3ccc(C([NH-])=O)cn3)ccc2n1 (3D coordinates assigned)
COc1ccccc1[N-]C(=O)c1ccc2cc(Oc3ccc(C([NH-])=O)cn3)ccc2n1 (optimized conformer: 67.72336282111121 kcal/mol)

>  <smiles>  (9) 
COc1ccccc1NC(=O)c1ccc2cc(Oc3ccc(C(N)=O)cn3)ccc2n1

>  <score_type>  (9) 
oracle

>  <origin>  (9) 
adg

>  <m_score__min__energy>  (9) 
-11.85

>  <m_primary>  (9) 
energy

$$$$
9:0
     RDKit          3D

 40 42  0  0  0  0  0  0  0  0999 V2000
   59.2940   35.1460   47.0130 C   0  0  0  0  0  0  0  0  0  0  0  0
   58.6860   33.9680   46.3110 C   0  0  0  0  0  0  0  0  0  0  0  0
   57.9320   34.1530   45.1420 C   0  0  0  0  0  0  0  0  0  0  0  0
   57.3980   33.0520   44.4670 C   0  0  0  0  0  0  0  0  0  0  0  0
   57.6250   31.7540   44.9430 C   0  0  0  0  0  0  0  0  0  0  0  0
   56.9620   30.3720   44.0770 S   0  0  0  0  0  0  0  0  0  0  0  0
   55.8750   29.7110   44.8770 O   0  0  0  0  0  0  0  0  0  0  0  0
   56.3880   30.8500   42.7730 O   0  0  0  0  0  0  0  0  0  0  0  0
   58.2160   29.2140   43.7580 N   0  0  0  0  0  0  0  0  0  0  0  0
   58.0500   27.7920   43.9030 C   0  0  0  0  0  0  0  0  0  0  0  0
   57.8780   26.9400   42.7770 C   0  0  0  0  0  0  0  0  0  0  0  0
   57.7020   25.5540   42.9420 C   0  0  0  0  0  0  0  0  0  0  0  0
   57.7180   25.0450   44.2390 C   0  0  0  0  0  0  0  0  0  0  0  0
   57.8910   25.8560   45.3280 C   0  0  0  0  0  0  0  0  0  0  0  0
   58.0570   27.2340   45.2020 C   0  0  0  0  0  0  0  0  0  0  0  0
   57.8270   25.1120   46.4510 N   0  0  0  0  0  0  0  0  0  0  0  0
   57.8550   25.5780   47.8360 C   0  0  0  0  0  0  0  0  0  0  0  0
   57.5880   23.8540   46.0030 C   0  0  0  0  0  0  0  0  0  0  0  0
   57.4110   22.8650   46.7660 O   0  0  0  0  0  0  0  0  0  0  0  0
   57.5410   23.7730   44.6500 N   0  0  0  0  0  0  0  0  0  0  0  0
   57.2280   22.6040   43.8330 C   0  0  0  0  0  0  0  0  0  0  0  0
   58.3870   31.5650   46.1040 C   0  0  0  0  0  0  0  0  0  0  0  0
   58.9220   32.6670   46.7800 C   0  0  0  0  0  0  0  0  0  0  0  0
   59.2200   35.0027   48.1011 H   0  0  0  0  0  0  0  0  0  0  0  0
   60.3520   35.2377   46.7263 H   0  0  0  0  0  0  0  0  0  0  0  0
   58.7558   36.0615   46.7263 H   0  0  0  0  0  0  0  0  0  0  0  0
   57.7606   35.1685   44.7555 H   0  0  0  0  0  0  0  0  0  0  0  0
   56.7971   33.2051   43.5584 H   0  0  0  0  0  0  0  0  0  0  0  0
   59.1610   29.5930   43.5280 H   0  0  0  0  0  0  0  0  0  0  0  0
   57.8827   27.3702   41.7646 H   0  0  0  0  0  0  0  0  0  0  0  0
   57.5564   24.8932   42.0748 H   0  0  0  0  0  0  0  0  0  0  0  0
   58.1899   27.8704   46.0894 H   0  0  0  0  0  0  0  0  0  0  0  0
   57.8031   24.7139   48.5147 H   0  0  0  0  0  0  0  0  0  0  0  0
   58.7880   26.1315   48.0178 H   0  0  0  0  0  0  0  0  0  0  0  0
   56.9950   26.2393   48.0178 H   0  0  0  0  0  0  0  0  0  0  0  0
   56.9993   21.7499   44.4874 H   0  0  0  0  0  0  0  0  0  0  0  0
   56.3569   22.8230   43.1981 H   0  0  0  0  0  0  0  0  0  0  0  0
   58.0920   22.3584   43.1981 H   0  0  0  0  0  0  0  0  0  0  0  0
   58.5648   30.5483   46.4845 H   0  0  0  0  0  0  0  0  0  0  0  0
   59.5304   32.5126   47.6833 H   0  0  0  0  0  0  0  0  0  0  0  0
  1  2  1  0
  2  3  2  0
  3  4  1  0
  4  5  2  0
  5  6  1  0
  6  7  2  0
  6  8  2  0
  6  9  1  0
  9 10  1  0
 10 11  2  0
 11 12  1  0
 12 13  2  0
 13 14  1  0
 14 15  2  0
 14 16  1  0
 16 17  1  0
 16 18  1  0
 18 19  2  0
 18 20  1  0
 20 21  1  0
  5 22  1  0
 22 23  2  0
 23  2  1  0
 15 10  1  0
 20 13  1  0
  1 24  1  0
  1 25  1  0
  1 26  1  0
  3 27  1  0
  4 28  1  0
  9 29  1  0
 11 30  1  0
 12 31  1  0
 15 32  1  0
 17 33  1  0
 17 34  1  0
 17 35  1  0
 21 36  1  0
 21 37  1  0
 21 38  1  0
 22 39  1  0
 23 40  1  0
M  END
>  <UniqueID>  (10) 
10

>  <SMILES>  (10) 
Cc1ccc(S(=O)(=O)Nc2ccc3c(c2)n(C)c(=O)n3C)cc1

>  <Energy>  (10) 
84.26751774480232

>  <Genealogy>  (10) 
Cc1ccc(S(=O)(=O)Nc2ccc3c(c2)n(C)c(=O)n3C)cc1 (3D coordinates assigned)
Cc1ccc(S(=O)(=O)Nc2ccc3c(c2)n(C)c(=O)n3C)cc1 (optimized conformer: 84.26751774480232 kcal/mol)

>  <smiles>  (10) 
Cc1ccc(S(=O)(=O)Nc2ccc3c(c2)n(C)c(=O)n3C)cc1

>  <score_type>  (10) 
oracle

>  <origin>  (10) 
adg

>  <m_score__min__energy>  (10) 
-7.9100000000000001

>  <m_primary>  (10) 
energy

$$$$
10:0
     RDKit          3D

 46 48  0  0  0  0  0  0  0  0999 V2000
   55.2160   21.3760   47.5820 C   0  0  0  0  0  0  0  0  0  0  0  0
   56.6440   21.7100   47.8490 C   0  0  0  0  0  0  0  0  0  0  0  0
   57.1320   21.4800   48.9890 O   0  0  0  0  0  0  0  0  0  0  0  0
   57.3850   22.3810   46.8690 O   0  0  0  0  0  0  0  0  0  0  0  0
   57.0460   22.4680   45.5080 C   0  0  0  0  0  0  0  0  0  0  0  0
   57.5350   21.5450   44.5640 C   0  0  0  0  0  0  0  0  0  0  0  0
   57.1580   21.6370   43.2230 C   0  0  0  0  0  0  0  0  0  0  0  0
   56.2780   22.6360   42.8100 C   0  0  0  0  0  0  0  0  0  0  0  0
   55.7710   23.5480   43.7380 C   0  0  0  0  0  0  0  0  0  0  0  0
   56.1550   23.4790   45.0880 C   0  0  0  0  0  0  0  0  0  0  0  0
   55.5670   24.4510   46.0780 C   0  0  0  0  0  0  0  0  0  0  0  0
   56.4530   25.6490   46.2050 C   0  0  0  0  0  0  0  0  0  0  0  0
   57.5870   25.5820   46.9490 N   0  0  0  0  0  0  0  0  0  0  0  0
   58.3830   26.6690   47.1120 C   0  0  0  0  0  0  0  0  0  0  0  0
   59.4300   26.5690   47.8050 O   0  0  0  0  0  0  0  0  0  0  0  0
   58.0360   27.8900   46.5130 C   0  0  0  0  0  0  0  0  0  0  0  0
   58.8450   29.0180   46.6680 O   0  0  0  0  0  0  0  0  0  0  0  0
   56.8490   27.9470   45.7550 C   0  0  0  0  0  0  0  0  0  0  0  0
   56.3860   29.1840   45.0910 C   0  0  0  0  0  0  0  0  0  0  0  0
   55.1600   29.3870   44.8820 O   0  0  0  0  0  0  0  0  0  0  0  0
   57.3520   30.1580   44.6770 N   0  0  0  0  0  0  0  0  0  0  0  0
   57.0050   31.5010   44.2240 C   0  0  0  0  0  0  0  0  0  0  0  0
   57.6890   32.5330   45.0780 C   0  0  0  0  0  0  0  0  0  0  0  0
   57.7910   32.3580   46.4680 C   0  0  0  0  0  0  0  0  0  0  0  0
   58.4490   33.3120   47.2520 C   0  0  0  0  0  0  0  0  0  0  0  0
   59.0120   34.4420   46.6530 C   0  0  0  0  0  0  0  0  0  0  0  0
   59.6510   35.3660   47.4150 F   0  0  0  0  0  0  0  0  0  0  0  0
   58.9210   34.6190   45.2700 C   0  0  0  0  0  0  0  0  0  0  0  0
   58.2630   33.6680   44.4830 C   0  0  0  0  0  0  0  0  0  0  0  0
   56.0920   26.8250   45.6270 N   0  0  0  0  0  0  0  0  0  0  0  0
   54.6839   21.2515   48.5366 H   0  0  0  0  0  0  0  0  0  0  0  0
   54.7506   22.1895   47.0062 H   0  0  0  0  0  0  0  0  0  0  0  0
   55.1597   20.4405   47.0062 H   0  0  0  0  0  0  0  0  0  0  0  0
   58.2190   20.7457   44.8854 H   0  0  0  0  0  0  0  0  0  0  0  0
   57.5563   20.9195   42.4906 H   0  0  0  0  0  0  0  0  0  0  0  0
   55.9828   22.7060   41.7527 H   0  0  0  0  0  0  0  0  0  0  0  0
   55.0660   24.3260   43.4099 H   0  0  0  0  0  0  0  0  0  0  0  0
   54.5727   24.7683   45.7307 H   0  0  0  0  0  0  0  0  0  0  0  0
   55.4800   23.9601   47.0585 H   0  0  0  0  0  0  0  0  0  0  0  0
   58.7730   29.8220   46.0550 H   0  0  0  0  0  0  0  0  0  0  0  0
   57.3246   31.6253   43.1788 H   0  0  0  0  0  0  0  0  0  0  0  0
   55.9161   31.6353   44.3037 H   0  0  0  0  0  0  0  0  0  0  0  0
   57.3520   31.4677   46.9419 H   0  0  0  0  0  0  0  0  0  0  0  0
   58.5232   33.1724   48.3406 H   0  0  0  0  0  0  0  0  0  0  0  0
   59.3674   35.5074   44.7994 H   0  0  0  0  0  0  0  0  0  0  0  0
   58.1950   33.8098   43.3943 H   0  0  0  0  0  0  0  0  0  0  0  0
  1  2  1  0
  2  3  2  0
  2  4  1  0
  4  5  1  0
  5  6  2  0
  6  7  1  0
  7  8  2  0
  8  9  1  0
  9 10  2  0
 10 11  1  0
 11 12  1  0
 12 13  2  0
 13 14  1  0
 14 15  2  0
 14 16  1  0
 16 17  1  0
 16 18  2  0
 18 19  1  0
 19 20  2  0
 19 21  1  0
 21 22  1  0
 22 23  1  0
 23 24  2  0
 24 25  1  0
 25 26  2  0
 26 27  1  0
 26 28  1  0
 28 29  2  0
 18 30  1  0
 10  5  1  0
 30 12  1  0
 29 23  1  0
  1 31  1  0
  1 32  1  0
  1 33  1  0
  6 34  1  0
  7 35  1  0
  8 36  1  0
  9 37  1  0
 11 38  1  0
 11 39  1  0
 17 40  1  0
 22 41  1  0
 22 42  1  0
 24 43  1  0
 25 44  1  0
 28 45  1  0
 29 46  1  0
M  CHG  2  21  -1  30  -1
M  END
>  <UniqueID>  (11) 
11

>  <SMILES>  (11) 
CC(=O)Oc1ccccc1Cc1nc(=O)c(O)c(C(=O)[N-]Cc2ccc(F)cc2)[n-]1

>  <Energy>  (11) 
49.62733252964239

>  <Genealogy>  (11) 
CC(=O)Oc1ccccc1Cc1nc(=O)c(O)c(C(=O)[N-]Cc2ccc(F)cc2)[n-]1 (protonated)
CC(=O)Oc1ccccc1Cc1nc(=O)c(O)c(C(=O)[N-]Cc2ccc(F)cc2)[n-]1 (3D coordinates assigned)
CC(=O)Oc1ccccc1Cc1nc(=O)c(O)c(C(=O)[N-]Cc2ccc(F)cc2)[n-]1 (optimized conformer: 49.62733252964239 kcal/mol)

>  <smiles>  (11) 
CC(=O)Oc1ccccc1Cc1nc(=O)c(O)c(C(=O)NCc2ccc(F)cc2)[nH]1

>  <score_type>  (11) 
oracle

>  <origin>  (11) 
adg

>  <m_score__min__energy>  (11) 
-11.44

>  <m_primary>  (11) 
energy

$$$$
11:0
     RDKit          3D

 36 37  0  0  0  0  0  0  0  0999 V2000
   55.9800   27.6840   44.7270 H   0  0  0  0  0  0  0  0  0  0  0  0
   55.5850   28.6370   44.8950 N   0  0  0  0  0  0  0  0  0  0  0  0
   56.3440   29.6830   44.9070 C   0  0  0  0  0  0  0  0  0  0  0  0
   57.0720   30.0600   45.9800 N   0  0  0  0  0  0  0  0  0  0  0  0
   57.7840   31.1620   45.7550 N   0  0  0  0  0  0  0  0  0  0  0  0
   57.6240   31.6500   44.5040 C   0  0  0  0  0  0  0  0  0  0  0  0
   58.4610   33.1120   43.8980 S   0  0  0  0  0  0  0  0  0  0  0  0
   58.4210   33.9810   45.5010 C   0  0  0  0  0  0  0  0  0  0  0  0
   57.4374   34.4563   45.6301 H   0  0  0  0  0  0  0  0  0  0  0  0
   58.5994   33.2513   46.3045 H   0  0  0  0  0  0  0  0  0  0  0  0
   59.4920   35.0370   45.5580 C   0  0  0  0  0  0  0  0  0  0  0  0
   59.3370   36.0890   44.8830 O   0  0  0  0  0  0  0  0  0  0  0  0
   60.7360   34.8440   46.2490 N   0  0  0  0  0  0  0  0  0  0  0  0
   61.2500   33.6100   46.7670 C   0  0  0  0  0  0  0  0  0  0  0  0
   62.6350   33.4130   46.8030 C   0  0  0  0  0  0  0  0  0  0  0  0
   63.3104   34.2095   46.4574 H   0  0  0  0  0  0  0  0  0  0  0  0
   63.1640   32.2090   47.2760 C   0  0  0  0  0  0  0  0  0  0  0  0
   64.2531   32.0554   47.2901 H   0  0  0  0  0  0  0  0  0  0  0  0
   62.3110   31.2000   47.7310 C   0  0  0  0  0  0  0  0  0  0  0  0
   62.7280   30.2441   48.0808 H   0  0  0  0  0  0  0  0  0  0  0  0
   60.9240   31.4050   47.7420 C   0  0  0  0  0  0  0  0  0  0  0  0
   59.8250   30.1280   48.2580 S   0  0  0  0  0  0  0  0  0  0  0  0
   60.4540   29.3070   49.3510 O   0  0  0  0  0  0  0  0  0  0  0  0
   58.5650   30.7520   48.7880 O   0  0  0  0  0  0  0  0  0  0  0  0
   59.4360   29.0900   46.9180 N   0  0  0  0  0  0  0  0  0  0  0  0
   58.4730   29.3500   46.6010 H   0  0  0  0  0  0  0  0  0  0  0  0
   60.3650   29.3390   45.8120 C   0  0  0  0  0  0  0  0  0  0  0  0
   60.3351   30.4056   45.5447 H   0  0  0  0  0  0  0  0  0  0  0  0
   61.3818   29.0606   46.1259 H   0  0  0  0  0  0  0  0  0  0  0  0
   59.9710   28.5050   44.6010 C   0  0  0  0  0  0  0  0  0  0  0  0
   59.5237   27.5581   44.9377 H   0  0  0  0  0  0  0  0  0  0  0  0
   59.2402   29.0607   43.9951 H   0  0  0  0  0  0  0  0  0  0  0  0
   60.8644   28.2935   43.9951 H   0  0  0  0  0  0  0  0  0  0  0  0
   60.4000   32.6230   47.2900 C   0  0  0  0  0  0  0  0  0  0  0  0
   59.3169   32.8069   47.3452 H   0  0  0  0  0  0  0  0  0  0  0  0
   56.5490   30.7180   43.5970 S   0  0  0  0  0  0  0  0  0  0  0  0
  1  2  1  0
  2  3  2  0
  3  4  1  0
  4  5  1  0
  5  6  2  0
  6  7  1  0
  7  8  1  0
  8  9  1  0
  8 10  1  0
  8 11  1  0
 11 12  2  0
 11 13  1  0
 13 14  1  0
 14 15  2  0
 15 16  1  0
 15 17  1  0
 17 18  1  0
 17 19  2  0
 19 20  1  0
 19 21  1  0
 21 22  1  0
 22 23  2  0
 22 24  2  0
 22 25  1  0
 25 26  1  0
 25 27  1  0
 27 28  1  0
 27 29  1  0
 27 30  1  0
 30 31  1  0
 30 32  1  0
 30 33  1  0
 21 34  2  0
 34 35  1  0
  6 36  1  0
 36  3  1  0
 34 14  1  0
M  CHG  2   4  -1  13  -1
M  END
>  <UniqueID>  (12) 
12

>  <SMILES>  (12) 
[H]/N=c1\[n-]nc(SCC(=O)[N-]c2cccc(S(=O)(=O)NCC)c2)s1

>  <Energy>  (12) 
62.74130216287106

>  <Genealogy>  (12) 
CCNS(=O)(=O)c1cccc([N-]C(=O)CSc2n[n-]c(=N)s2)c1 (protonated)
[H]/N=c1\[n-]nc(SCC(=O)[N-]c2cccc(S(=O)(=O)NCC)c2)s1 (cis-trans isomerization)
[H]/N=c1\[n-]nc(SCC(=O)[N-]c2cccc(S(=O)(=O)NCC)c2)s1 (3D coordinates assigned)
[H]/N=c1\[n-]nc(SCC(=O)[N-]c2cccc(S(=O)(=O)NCC)c2)s1 (optimized conformer: 62.74130216287106 kcal/mol)

>  <smiles>  (12) 
CCNS(=O)(=O)c1cccc(NC(=O)CSc2n[nH]c(=N)s2)c1

>  <score_type>  (12) 
oracle

>  <origin>  (12) 
adg

>  <m_score__min__energy>  (12) 
-11.050000000000001

>  <m_primary>  (12) 
energy

$$$$
12:0
     RDKit          3D

 38 39  0  0  0  0  0  0  0  0999 V2000
   54.7970   26.3150   46.0120 N   0  0  0  0  0  0  0  0  0  0  0  0
   56.3940   25.7070   46.2710 S   0  0  0  0  0  0  0  0  0  0  0  0
   56.7740   24.7930   45.1390 O   0  0  0  0  0  0  0  0  0  0  0  0
   56.4330   24.9270   47.5560 O   0  0  0  0  0  0  0  0  0  0  0  0
   57.5230   27.0540   46.3600 C   0  0  0  0  0  0  0  0  0  0  0  0
   58.6170   27.0050   47.2340 C   0  0  0  0  0  0  0  0  0  0  0  0
   59.5240   28.0670   47.2820 C   0  0  0  0  0  0  0  0  0  0  0  0
   59.3370   29.1870   46.4650 C   0  0  0  0  0  0  0  0  0  0  0  0
   58.2350   29.2580   45.6060 C   0  0  0  0  0  0  0  0  0  0  0  0
   58.0770   30.4100   44.7680 N   0  0  0  0  0  0  0  0  0  0  0  0
   57.0350   31.3920   44.8590 C   0  0  0  0  0  0  0  0  0  0  0  0
   55.8650   31.0700   44.5270 O   0  0  0  0  0  0  0  0  0  0  0  0
   57.3070   32.8070   45.2780 C   0  0  0  0  0  0  0  0  0  0  0  0
   58.7440   33.0260   45.3600 N   0  0  0  0  0  0  0  0  0  0  0  0
   59.3160   34.2850   45.7220 C   0  0  0  0  0  0  0  0  0  0  0  0
   59.2770   35.2590   44.9210 O   0  0  0  0  0  0  0  0  0  0  0  0
   59.9300   34.4560   47.0740 C   0  0  0  0  0  0  0  0  0  0  0  0
   61.0640   33.4850   47.2510 C   0  0  0  0  0  0  0  0  0  0  0  0
   62.3770   33.8590   46.9190 C   0  0  0  0  0  0  0  0  0  0  0  0
   63.4260   32.9440   47.0540 C   0  0  0  0  0  0  0  0  0  0  0  0
   63.1700   31.6480   47.5110 C   0  0  0  0  0  0  0  0  0  0  0  0
   61.8650   31.2640   47.8310 C   0  0  0  0  0  0  0  0  0  0  0  0
   60.8130   32.1760   47.6980 C   0  0  0  0  0  0  0  0  0  0  0  0
   57.3460   28.1710   45.5330 C   0  0  0  0  0  0  0  0  0  0  0  0
   54.6390   27.0700   46.7170 H   0  0  0  0  0  0  0  0  0  0  0  0
   58.7622   26.1291   47.8834 H   0  0  0  0  0  0  0  0  0  0  0  0
   60.3864   28.0222   47.9633 H   0  0  0  0  0  0  0  0  0  0  0  0
   60.0597   30.0156   46.4981 H   0  0  0  0  0  0  0  0  0  0  0  0
   56.8734   33.4970   44.5392 H   0  0  0  0  0  0  0  0  0  0  0  0
   56.8536   32.9890   46.2635 H   0  0  0  0  0  0  0  0  0  0  0  0
   60.3111   35.4831   47.1736 H   0  0  0  0  0  0  0  0  0  0  0  0
   59.1675   34.2644   47.8434 H   0  0  0  0  0  0  0  0  0  0  0  0
   62.5807   34.8756   46.5514 H   0  0  0  0  0  0  0  0  0  0  0  0
   64.4533   33.2444   46.8004 H   0  0  0  0  0  0  0  0  0  0  0  0
   63.9963   30.9300   47.6188 H   0  0  0  0  0  0  0  0  0  0  0  0
   61.6649   30.2430   48.1880 H   0  0  0  0  0  0  0  0  0  0  0  0
   59.7860   31.8681   47.9439 H   0  0  0  0  0  0  0  0  0  0  0  0
   56.5067   28.1978   44.8225 H   0  0  0  0  0  0  0  0  0  0  0  0
  1  2  1  0
  2  3  2  0
  2  4  2  0
  2  5  1  0
  5  6  2  0
  6  7  1  0
  7  8  2  0
  8  9  1  0
  9 10  1  0
 10 11  1  0
 11 12  2  0
 11 13  1  0
 13 14  1  0
 14 15  1  0
 15 16  2  0
 15 17  1  0
 17 18  1  0
 18 19  2  0
 19 20  1  0
 20 21  2  0
 21 22  1  0
 22 23  2  0
  9 24  2  0
 24  5  1  0
 23 18  1  0
  1 25  1  0
  6 26  1  0
  7 27  1  0
  8 28  1  0
 13 29  1  0
 13 30  1  0
 17 31  1  0
 17 32  1  0
 19 33  1  0
 20 34  1  0
 21 35  1  0
 22 36  1  0
 23 37  1  0
 24 38  1  0
M  CHG  3   1  -1  10  -1  14  -1
M  END
>  <UniqueID>  (13) 
13

>  <SMILES>  (13) 
[NH-]S(=O)(=O)c1cccc([N-]C(=O)C[N-]C(=O)Cc2ccccc2)c1

>  <Energy>  (13) 
36.80285920380489

>  <Genealogy>  (13) 
[NH-]S(=O)(=O)c1cccc([N-]C(=O)C[N-]C(=O)Cc2ccccc2)c1 (protonated)
[NH-]S(=O)(=O)c1cccc([N-]C(=O)C[N-]C(=O)Cc2ccccc2)c1 (3D coordinates assigned)
[NH-]S(=O)(=O)c1cccc([N-]C(=O)C[N-]C(=O)Cc2ccccc2)c1 (optimized conformer: 36.80285920380489 kcal/mol)

>  <smiles>  (13) 
NS(=O)(=O)c1cccc(NC(=O)CNC(=O)Cc2ccccc2)c1

>  <score_type>  (13) 
oracle

>  <origin>  (13) 
adg

>  <m_score__min__energy>  (13) 
-13.15

>  <m_primary>  (13) 
energy

$$$$
13:0
     RDKit          3D

 47 49  0  0  1  0  0  0  0  0999 V2000
   63.4060   34.1560   46.5140 C   0  0  0  0  0  0  0  0  0  0  0  0
   62.6100   33.2510   47.3200 N   0  0  0  0  0  0  0  0  0  0  0  0
   61.2760   33.2480   47.0310 C   0  0  0  0  0  0  0  0  0  0  0  0
   60.3840   32.4240   47.7310 C   0  0  0  0  0  0  0  0  0  0  0  0
   58.9820   32.6270   47.4250 C   0  0  0  0  0  0  0  0  0  0  0  0
   58.0820   32.9650   48.2270 O   0  0  0  0  0  0  0  0  0  0  0  0
   58.5450   32.4260   46.0230 C   0  0  0  0  0  0  0  0  0  0  0  0
   58.8430   33.3590   45.0400 C   0  0  0  0  0  0  0  0  0  0  0  0
   58.4180   33.1760   43.7170 C   0  0  0  0  0  0  0  0  0  0  0  0
   57.6810   32.0250   43.4060 C   0  0  0  0  0  0  0  0  0  0  0  0
   57.3810   31.0870   44.3960 C   0  0  0  0  0  0  0  0  0  0  0  0
   56.6050   29.8880   44.1250 C   0  0  0  0  0  0  0  0  0  0  0  0
   55.4750   29.6820   44.7290 N   0  0  0  0  0  0  0  0  0  0  0  0
   57.0290   28.8790   43.1990 N   0  0  0  0  0  0  0  0  0  0  0  0
   57.8200   31.3020   45.6990 C   0  0  0  0  0  0  0  0  0  0  0  0
   60.9130   31.6370   48.6910 C   0  0  0  0  0  0  0  0  0  0  0  0
   60.2260   30.7750   49.2890 N   0  0  0  0  0  0  0  0  0  0  0  0
   60.2620   29.3920   49.0670 C   0  0  0  0  0  0  0  0  0  0  0  0
   59.9430   28.9680   47.6760 C   0  0  0  0  0  0  0  0  0  0  0  0
   60.7530   29.3280   46.5880 C   0  0  0  0  0  0  0  0  0  0  0  0
   60.4600   28.9160   45.2980 C   0  0  0  0  0  0  0  0  0  0  0  0
   59.3450   28.1230   45.0100 C   0  0  0  0  0  0  0  0  0  0  0  0
   58.5560   27.7730   46.0720 C   0  0  0  0  0  0  0  0  0  0  0  0
   58.8610   28.1900   47.3480 C   0  0  0  0  0  0  0  0  0  0  0  0
   62.2550   31.6560   48.9690 N   0  0  0  0  0  0  0  0  0  0  0  0
   63.0970   32.4670   48.2780 C   0  0  0  0  0  0  0  0  0  0  0  0
   64.3320   32.4070   48.6260 N   0  0  0  0  0  0  0  0  0  0  0  0
   63.9880   34.8177   47.1723 H   0  0  0  0  0  0  0  0  0  0  0  0
   64.0913   33.5752   45.8791 H   0  0  0  0  0  0  0  0  0  0  0  0
   62.7425   34.7616   45.8791 H   0  0  0  0  0  0  0  0  0  0  0  0
   60.8942   33.9038   46.2347 H   0  0  0  0  0  0  0  0  0  0  0  0
   59.4220   34.2565   45.3033 H   0  0  0  0  0  0  0  0  0  0  0  0
   58.6572   33.9181   42.9411 H   0  0  0  0  0  0  0  0  0  0  0  0
   57.3364   31.8594   42.3746 H   0  0  0  0  0  0  0  0  0  0  0  0
   54.7170   30.4000   44.7420 H   0  0  0  0  0  0  0  0  0  0  0  0
   57.3690   29.1020   42.2380 H   0  0  0  0  0  0  0  0  0  0  0  0
   56.9790   27.8820   43.5370 H   0  0  0  0  0  0  0  0  0  0  0  0
   57.5845   30.5640   46.4800 H   0  0  0  0  0  0  0  0  0  0  0  0
   61.2736   29.0341   49.3090 H   0  0  0  0  0  0  0  0  0  0  0  0
   59.4795   28.9582   49.7070 H   0  0  0  0  0  0  0  0  0  0  0  0
   61.6416   29.9521   46.7635 H   0  0  0  0  0  0  0  0  0  0  0  0
   61.1242   29.2218   44.4762 H   0  0  0  0  0  0  0  0  0  0  0  0
   59.1144   27.7979   43.9848 H   0  0  0  0  0  0  0  0  0  0  0  0
   57.6655   27.1496   45.9036 H   0  0  0  0  0  0  0  0  0  0  0  0
   58.1903   27.8777   48.1620 H   0  0  0  0  0  0  0  0  0  0  0  0
   62.6420   31.0320   49.7420 H   0  0  0  0  0  0  0  0  0  0  0  0
   65.0740   32.6870   47.9700 H   0  0  0  0  0  0  0  0  0  0  0  0
  1  2  1  0
  2  3  1  0
  3  4  2  0
  4  5  1  0
  5  6  2  0
  5  7  1  0
  7  8  2  0
  8  9  1  0
  9 10  2  0
 10 11  1  0
 11 12  1  0
 12 13  2  3
 12 14  1  0
 11 15  2  0
  4 16  1  0
 16 17  2  0
 17 18  1  0
 18 19  1  0
 19 20  2  0
 20 21  1  0
 21 22  2  0
 22 23  1  0
 23 24  2  0
 16 25  1  0
 25 26  1  0
 26 27  2  3
 26  2  1  0
 15  7  1  0
 24 19  1  0
  1 28  1  0
  1 29  1  0
  1 30  1  0
  3 31  1  0
  8 32  1  0
  9 33  1  0
 10 34  1  0
 13 35  1  0
 14 36  1  0
 14 37  1  0
 15 38  1  0
 18 39  1  0
 18 40  1  0
 20 41  1  0
 21 42  1  0
 22 43  1  0
 23 44  1  0
 24 45  1  0
 25 46  1  0
 27 47  1  0
M  END
>  <smiles>  (14) 
Cn1cc(C(=O)c2cccc(C(=N)N)c2)c(=NCc2ccccc2)[nH]c1=N

>  <score_type>  (14) 
oracle

>  <origin>  (14) 
adg

>  <m_score__min__energy>  (14) 
-8.7899999999999991

>  <m_primary>  (14) 
energy

$$$$
14:0
     RDKit          3D

 46 49  0  0  0  0  0  0  0  0999 V2000
   55.6910   30.0040   44.6310 O   0  0  0  0  0  0  0  0  0  0  0  0
   56.9350   30.3740   43.8740 S   0  0  0  0  0  0  0  0  0  0  0  0
   56.5600   30.7420   42.4650 O   0  0  0  0  0  0  0  0  0  0  0  0
   58.0230   29.0270   43.8500 N   0  0  0  0  0  0  0  0  0  0  0  0
   58.5860   28.5230   45.0690 C   0  0  0  0  0  0  0  0  0  0  0  0
   59.6120   29.2470   45.6950 C   0  0  0  0  0  0  0  0  0  0  0  0
   60.1450   28.8380   46.9170 C   0  0  0  0  0  0  0  0  0  0  0  0
   61.1410   29.6370   47.5010 O   0  0  0  0  0  0  0  0  0  0  0  0
   60.9000   30.7700   48.3360 C   0  0  0  0  0  0  0  0  0  0  0  0
   61.9090   31.8450   48.0590 C   0  0  0  0  0  0  0  0  0  0  0  0
   61.7450   32.7080   46.9640 C   0  0  0  0  0  0  0  0  0  0  0  0
   62.6840   33.7150   46.7400 C   0  0  0  0  0  0  0  0  0  0  0  0
   63.7680   33.8600   47.6080 C   0  0  0  0  0  0  0  0  0  0  0  0
   63.8980   32.9860   48.6890 C   0  0  0  0  0  0  0  0  0  0  0  0
   62.9760   32.0070   48.8900 N   0  0  0  0  0  0  0  0  0  0  0  0
   59.6720   27.6590   47.5170 C   0  0  0  0  0  0  0  0  0  0  0  0
   58.6570   26.9110   46.9060 C   0  0  0  0  0  0  0  0  0  0  0  0
   58.1790   25.7430   47.5220 C   0  0  0  0  0  0  0  0  0  0  0  0
   57.1450   25.0110   46.9360 C   0  0  0  0  0  0  0  0  0  0  0  0
   56.5760   25.4390   45.7370 C   0  0  0  0  0  0  0  0  0  0  0  0
   57.0410   26.5970   45.1090 C   0  0  0  0  0  0  0  0  0  0  0  0
   58.0980   27.3410   45.6740 C   0  0  0  0  0  0  0  0  0  0  0  0
   57.7170   31.7290   44.6850 C   0  0  0  0  0  0  0  0  0  0  0  0
   58.2030   32.8010   43.9240 C   0  0  0  0  0  0  0  0  0  0  0  0
   58.7740   33.9090   44.5560 C   0  0  0  0  0  0  0  0  0  0  0  0
   58.8570   33.9550   45.9520 C   0  0  0  0  0  0  0  0  0  0  0  0
   59.5790   35.3450   46.7410 Cl  0  0  0  0  0  0  0  0  0  0  0  0
   58.3660   32.8910   46.7160 C   0  0  0  0  0  0  0  0  0  0  0  0
   57.7940   31.7800   46.0850 C   0  0  0  0  0  0  0  0  0  0  0  0
   58.1370   28.4990   42.9580 H   0  0  0  0  0  0  0  0  0  0  0  0
   60.0035   30.1547   45.2125 H   0  0  0  0  0  0  0  0  0  0  0  0
   59.8908   31.1595   48.1367 H   0  0  0  0  0  0  0  0  0  0  0  0
   60.9843   30.4629   49.3889 H   0  0  0  0  0  0  0  0  0  0  0  0
   60.8843   32.5913   46.2891 H   0  0  0  0  0  0  0  0  0  0  0  0
   62.5707   34.3933   45.8815 H   0  0  0  0  0  0  0  0  0  0  0  0
   64.5112   34.6538   47.4420 H   0  0  0  0  0  0  0  0  0  0  0  0
   64.7480   33.0896   49.3795 H   0  0  0  0  0  0  0  0  0  0  0  0
   60.1010   27.3212   48.4719 H   0  0  0  0  0  0  0  0  0  0  0  0
   58.6213   25.4036   48.4702 H   0  0  0  0  0  0  0  0  0  0  0  0
   56.7782   24.0944   47.4211 H   0  0  0  0  0  0  0  0  0  0  0  0
   55.7568   24.8618   45.2834 H   0  0  0  0  0  0  0  0  0  0  0  0
   56.5799   26.9309   44.1678 H   0  0  0  0  0  0  0  0  0  0  0  0
   58.1348   32.7701   42.8265 H   0  0  0  0  0  0  0  0  0  0  0  0
   59.1587   34.7462   43.9551 H   0  0  0  0  0  0  0  0  0  0  0  0
   58.4294   32.9274   47.8136 H   0  0  0  0  0  0  0  0  0  0  0  0
   57.4045   30.9461   46.6874 H   0  0  0  0  0  0  0  0  0  0  0  0
  1  2  2  0
  2  3  2  0
  2  4  1  0
  4  5  1  0
  5  6  2  0
  6  7  1  0
  7  8  1  0
  8  9  1  0
  9 10  1  0
 10 11  2  0
 11 12  1  0
 12 13  2  0
 13 14  1  0
 14 15  2  0
  7 16  2  0
 16 17  1  0
 17 18  2  0
 18 19  1  0
 19 20  2  0
 20 21  1  0
 21 22  2  0
  2 23  1  0
 23 24  2  0
 24 25  1  0
 25 26  2  0
 26 27  1  0
 26 28  1  0
 28 29  2  0
 22  5  1  0
 29 23  1  0
 15 10  1  0
 22 17  1  0
  4 30  1  0
  6 31  1  0
  9 32  1  0
  9 33  1  0
 11 34  1  0
 12 35  1  0
 13 36  1  0
 14 37  1  0
 16 38  1  0
 18 39  1  0
 19 40  1  0
 20 41  1  0
 21 42  1  0
 24 43  1  0
 25 44  1  0
 28 45  1  0
 29 46  1  0
M  END
>  <UniqueID>  (15) 
14

>  <SMILES>  (15) 
O=S(=O)(Nc1cc(OCc2ccccn2)cc2ccccc12)c1ccc(Cl)cc1

>  <Energy>  (15) 
57.38432316994376

>  <Genealogy>  (15) 
O=S(=O)(Nc1cc(OCc2ccccn2)cc2ccccc12)c1ccc(Cl)cc1 (3D coordinates assigned)
O=S(=O)(Nc1cc(OCc2ccccn2)cc2ccccc12)c1ccc(Cl)cc1 (optimized conformer: 57.38432316994376 kcal/mol)

>  <smiles>  (15) 
O=S(=O)(Nc1cc(OCc2ccccn2)cc2ccccc12)c1ccc(Cl)cc1

>  <score_type>  (15) 
oracle

>  <origin>  (15) 
adg

>  <m_score__min__energy>  (15) 
-10.029999999999999

>  <m_primary>  (15) 
energy

$$$$
15:0
     RDKit          3D

 48 51  0  0  0  0  0  0  0  0999 V2000
   59.2610   34.2190   44.1230 O   0  0  0  0  0  0  0  0  0  0  0  0
   58.3910   33.5360   44.7240 C   0  0  0  0  0  0  0  0  0  0  0  0
   57.9900   33.9410   46.0410 N   0  0  0  0  0  0  0  0  0  0  0  0
   58.7180   33.7050   47.2540 C   0  0  0  0  0  0  0  0  0  0  0  0
   58.2210   32.7720   48.1740 C   0  0  0  0  0  0  0  0  0  0  0  0
   58.9000   32.5300   49.3720 C   0  0  0  0  0  0  0  0  0  0  0  0
   60.0720   33.2320   49.6670 C   0  0  0  0  0  0  0  0  0  0  0  0
   60.5630   34.1820   48.7670 C   0  0  0  0  0  0  0  0  0  0  0  0
   61.6920   34.8740   49.0610 F   0  0  0  0  0  0  0  0  0  0  0  0
   59.8870   34.4250   47.5660 C   0  0  0  0  0  0  0  0  0  0  0  0
   57.7750   32.3750   44.0380 C   0  0  0  0  0  0  0  0  0  0  0  0
   57.5890   32.3810   42.6460 C   0  0  0  0  0  0  0  0  0  0  0  0
   57.0170   31.2800   42.0080 C   0  0  0  0  0  0  0  0  0  0  0  0
   56.6390   30.1590   42.7470 C   0  0  0  0  0  0  0  0  0  0  0  0
   56.8320   30.1210   44.1340 C   0  0  0  0  0  0  0  0  0  0  0  0
   56.4350   28.9350   44.8380 N   0  0  0  0  0  0  0  0  0  0  0  0
   57.4420   27.8460   45.7420 S   0  0  0  0  0  0  0  0  0  0  0  0
   56.6440   27.0890   46.7650 O   0  0  0  0  0  0  0  0  0  0  0  0
   58.0160   26.8470   44.7750 O   0  0  0  0  0  0  0  0  0  0  0  0
   58.7580   28.7310   46.5200 C   0  0  0  0  0  0  0  0  0  0  0  0
   58.7450   28.9450   47.9040 C   0  0  0  0  0  0  0  0  0  0  0  0
   59.7860   29.6440   48.5220 C   0  0  0  0  0  0  0  0  0  0  0  0
   60.8630   30.1310   47.7660 C   0  0  0  0  0  0  0  0  0  0  0  0
   61.9230   30.8650   48.4130 N   0  0  0  0  0  0  0  0  0  0  0  0
   62.5610   31.8040   47.7060 N   0  0  0  0  0  0  0  0  0  0  0  0
   63.5700   32.5430   48.2310 C   0  0  0  0  0  0  0  0  0  0  0  0
   63.9650   32.3290   49.5470 C   0  0  0  0  0  0  0  0  0  0  0  0
   63.3040   31.3660   50.3020 C   0  0  0  0  0  0  0  0  0  0  0  0
   62.2660   30.6350   49.7220 C   0  0  0  0  0  0  0  0  0  0  0  0
   61.6430   29.7890   50.4200 O   0  0  0  0  0  0  0  0  0  0  0  0
   60.8660   29.9320   46.3740 C   0  0  0  0  0  0  0  0  0  0  0  0
   59.8250   29.2300   45.7580 C   0  0  0  0  0  0  0  0  0  0  0  0
   57.4030   31.2360   44.7760 C   0  0  0  0  0  0  0  0  0  0  0  0
   57.2915   32.2270   47.9524 H   0  0  0  0  0  0  0  0  0  0  0  0
   58.5114   31.7862   50.0832 H   0  0  0  0  0  0  0  0  0  0  0  0
   60.6080   33.0368   50.6075 H   0  0  0  0  0  0  0  0  0  0  0  0
   60.2699   35.1804   46.8640 H   0  0  0  0  0  0  0  0  0  0  0  0
   57.8956   33.2575   42.0563 H   0  0  0  0  0  0  0  0  0  0  0  0
   56.8636   31.2960   40.9189 H   0  0  0  0  0  0  0  0  0  0  0  0
   56.1852   29.2970   42.2361 H   0  0  0  0  0  0  0  0  0  0  0  0
   57.9103   28.5606   48.5086 H   0  0  0  0  0  0  0  0  0  0  0  0
   59.7606   29.8134   49.6086 H   0  0  0  0  0  0  0  0  0  0  0  0
   64.0727   33.3068   47.6195 H   0  0  0  0  0  0  0  0  0  0  0  0
   64.7882   32.9128   49.9845 H   0  0  0  0  0  0  0  0  0  0  0  0
   63.5965   31.1822   51.3463 H   0  0  0  0  0  0  0  0  0  0  0  0
   61.6917   30.3307   45.7662 H   0  0  0  0  0  0  0  0  0  0  0  0
   59.8429   29.0682   44.6701 H   0  0  0  0  0  0  0  0  0  0  0  0
   57.5599   31.2168   45.8646 H   0  0  0  0  0  0  0  0  0  0  0  0
  1  2  2  0
  2  3  1  0
  3  4  1  0
  4  5  2  0
  5  6  1  0
  6  7  2  0
  7  8  1  0
  8  9  1  0
  8 10  2  0
  2 11  1  0
 11 12  2  0
 12 13  1  0
 13 14  2  0
 14 15  1  0
 15 16  1  0
 16 17  1  0
 17 18  2  0
 17 19  2  0
 17 20  1  0
 20 21  2  0
 21 22  1  0
 22 23  2  0
 23 24  1  0
 24 25  1  0
 25 26  2  0
 26 27  1  0
 27 28  2  0
 28 29  1  0
 29 30  2  0
 23 31  1  0
 31 32  2  0
 15 33  2  0
 10  4  1  0
 33 11  1  0
 32 20  1  0
 29 24  1  0
  5 34  1  0
  6 35  1  0
  7 36  1  0
 10 37  1  0
 12 38  1  0
 13 39  1  0
 14 40  1  0
 21 41  1  0
 22 42  1  0
 26 43  1  0
 27 44  1  0
 28 45  1  0
 31 46  1  0
 32 47  1  0
 33 48  1  0
M  CHG  2   3  -1  16  -1
M  END
>  <UniqueID>  (16) 
15

>  <SMILES>  (16) 
O=C([N-]c1cccc(F)c1)c1cccc([N-]S(=O)(=O)c2ccc(-n3ncccc3=O)cc2)c1

>  <Energy>  (16) 
73.76902540429202

>  <Genealogy>  (16) 
O=C([N-]c1cccc(F)c1)c1cccc([N-]S(=O)(=O)c2ccc(-n3ncccc3=O)cc2)c1 (protonated)
O=C([N-]c1cccc(F)c1)c1cccc([N-]S(=O)(=O)c2ccc(-n3ncccc3=O)cc2)c1 (3D coordinates assigned)
O=C([N-]c1cccc(F)c1)c1cccc([N-]S(=O)(=O)c2ccc(-n3ncccc3=O)cc2)c1 (optimized conformer: 73.76902540429202 kcal/mol)

>  <smiles>  (16) 
O=C(Nc1cccc(F)c1)c1cccc(NS(=O)(=O)c2ccc(-n3ncccc3=O)cc2)c1

>  <score_type>  (16) 
oracle

>  <origin>  (16) 
adg

>  <m_score__min__energy>  (16) 
-13.15

>  <m_primary>  (16) 
energy

$$$$
16:0
     RDKit          3D

 27 29  0  0  0  0  0  0  0  0999 V2000
   58.6140   31.7700   48.0130 N   0  0  0  0  0  0  0  0  0  0  0  0
   58.7680   32.6830   46.9180 C   0  0  0  0  0  0  0  0  0  0  0  0
   59.5270   33.8480   47.1170 C   0  0  0  0  0  0  0  0  0  0  0  0
   59.6300   34.8110   46.1130 C   0  0  0  0  0  0  0  0  0  0  0  0
   58.9740   34.6250   44.8980 C   0  0  0  0  0  0  0  0  0  0  0  0
   58.2270   33.4660   44.6750 C   0  0  0  0  0  0  0  0  0  0  0  0
   58.1280   32.4730   45.6680 C   0  0  0  0  0  0  0  0  0  0  0  0
   57.3960   31.2270   45.3450 C   0  0  0  0  0  0  0  0  0  0  0  0
   57.6670   30.0330   45.9170 N   0  0  0  0  0  0  0  0  0  0  0  0
   56.8230   29.1860   45.3010 C   0  0  0  0  0  0  0  0  0  0  0  0
   56.7370   27.7510   45.5910 C   0  0  0  0  0  0  0  0  0  0  0  0
   57.8080   26.8960   45.7640 C   0  0  0  0  0  0  0  0  0  0  0  0
   57.2540   25.6580   46.0150 C   0  0  0  0  0  0  0  0  0  0  0  0
   55.8850   25.8350   45.9780 C   0  0  0  0  0  0  0  0  0  0  0  0
   55.6090   27.0930   45.7230 O   0  0  0  0  0  0  0  0  0  0  0  0
   56.0780   29.8690   44.3720 C   0  0  0  0  0  0  0  0  0  0  0  0
   56.4430   31.1630   44.3880 N   0  0  0  0  0  0  0  0  0  0  0  0
   58.2170   30.8170   47.8530 H   0  0  0  0  0  0  0  0  0  0  0  0
   59.0190   31.9630   48.9540 H   0  0  0  0  0  0  0  0  0  0  0  0
   60.0457   34.0026   48.0746 H   0  0  0  0  0  0  0  0  0  0  0  0
   60.2296   35.7179   46.2807 H   0  0  0  0  0  0  0  0  0  0  0  0
   59.0445   35.3923   44.1129 H   0  0  0  0  0  0  0  0  0  0  0  0
   57.7107   33.3277   43.7136 H   0  0  0  0  0  0  0  0  0  0  0  0
   58.8773   27.1491   45.7125 H   0  0  0  0  0  0  0  0  0  0  0  0
   57.7940   24.7189   46.2061 H   0  0  0  0  0  0  0  0  0  0  0  0
   55.1391   25.0425   46.1379 H   0  0  0  0  0  0  0  0  0  0  0  0
   55.3081   29.4294   43.7208 H   0  0  0  0  0  0  0  0  0  0  0  0
  1  2  1  0
  2  3  2  0
  3  4  1  0
  4  5  2  0
  5  6  1  0
  6  7  2  0
  7  8  1  0
  8  9  2  0
  9 10  1  0
 10 11  1  0
 11 12  2  0
 12 13  1  0
 13 14  2  0
 14 15  1  0
 10 16  2  0
 16 17  1  0
  7  2  1  0
 17  8  1  0
 15 11  1  0
  1 18  1  0
  1 19  1  0
  3 20  1  0
  4 21  1  0
  5 22  1  0
  6 23  1  0
 12 24  1  0
 13 25  1  0
 14 26  1  0
 16 27  1  0
M  CHG  1  17  -1
M  END
>  <UniqueID>  (17) 
16

>  <SMILES>  (17) 
Nc1ccccc1-c1nc(-c2ccco2)c[n-]1

>  <Energy>  (17) 
87.22474964173195

>  <Genealogy>  (17) 
Nc1ccccc1-c1nc(-c2ccco2)c[n-]1 (protonated)
Nc1ccccc1-c1nc(-c2ccco2)c[n-]1 (3D coordinates assigned)
Nc1ccccc1-c1nc(-c2ccco2)c[n-]1 (optimized conformer: 87.22474964173195 kcal/mol)

>  <smiles>  (17) 
Nc1ccccc1-c1nc(-c2ccco2)c[nH]1

>  <score_type>  (17) 
oracle

>  <origin>  (17) 
adg

>  <m_score__min__energy>  (17) 
-8.0600000000000005

>  <m_primary>  (17) 
energy

$$$$
17:0
     RDKit          3D

 47 49  0  0  0  0  0  0  0  0999 V2000
   58.7700   33.4910   45.1660 C   0  0  0  0  0  0  0  0  0  0  0  0
   58.4630   34.1360   46.4550 N   0  0  0  0  0  0  0  0  0  0  0  0
   58.1590   33.1010   47.4570 C   0  0  0  0  0  0  0  0  0  0  0  0
   59.5970   34.9670   46.9200 C   0  0  0  0  0  0  0  0  0  0  0  0
   60.6400   34.1320   47.6680 C   0  0  0  0  0  0  0  0  0  0  0  0
   61.5360   33.4850   46.7180 N   0  0  0  0  0  0  0  0  0  0  0  0
   62.7340   32.8140   47.1180 C   0  0  0  0  0  0  0  0  0  0  0  0
   63.7700   32.8840   46.4000 O   0  0  0  0  0  0  0  0  0  0  0  0
   62.7690   32.0530   48.3860 C   0  0  0  0  0  0  0  0  0  0  0  0
   63.8270   32.3230   49.2710 C   0  0  0  0  0  0  0  0  0  0  0  0
   64.9290   33.0700   48.8480 O   0  0  0  0  0  0  0  0  0  0  0  0
   63.7660   31.8780   50.5860 C   0  0  0  0  0  0  0  0  0  0  0  0
   62.6280   31.2440   51.0630 C   0  0  0  0  0  0  0  0  0  0  0  0
   61.5440   30.9400   50.2060 C   0  0  0  0  0  0  0  0  0  0  0  0
   61.6740   31.2330   48.8150 C   0  0  0  0  0  0  0  0  0  0  0  0
   60.7000   30.6920   47.9270 C   0  0  0  0  0  0  0  0  0  0  0  0
   60.9190   30.5560   46.5370 C   0  0  0  0  0  0  0  0  0  0  0  0
   59.9170   30.0880   45.6890 C   0  0  0  0  0  0  0  0  0  0  0  0
   58.6780   29.6900   46.2010 C   0  0  0  0  0  0  0  0  0  0  0  0
   57.6450   29.2070   45.3210 N   0  0  0  0  0  0  0  0  0  0  0  0
   57.6580   28.0310   44.9060 O   0  0  0  0  0  0  0  0  0  0  0  0
   56.6240   30.0380   44.9230 O   0  0  0  0  0  0  0  0  0  0  0  0
   58.4830   29.7190   47.5900 C   0  0  0  0  0  0  0  0  0  0  0  0
   59.4980   30.1730   48.4600 C   0  0  0  0  0  0  0  0  0  0  0  0
   59.3460   30.0670   49.8520 C   0  0  0  0  0  0  0  0  0  0  0  0
   58.2520   29.6390   50.3180 O   0  0  0  0  0  0  0  0  0  0  0  0
   60.3800   30.3830   50.6990 N   0  0  0  0  0  0  0  0  0  0  0  0
   60.2230   30.1390   52.1510 C   0  0  0  0  0  0  0  0  0  0  0  0
   59.2362   32.5115   45.3480 H   0  0  0  0  0  0  0  0  0  0  0  0
   57.8405   33.3541   44.5939 H   0  0  0  0  0  0  0  0  0  0  0  0
   59.4624   34.1260   44.5939 H   0  0  0  0  0  0  0  0  0  0  0  0
   58.2822   33.5204   48.4664 H   0  0  0  0  0  0  0  0  0  0  0  0
   57.1221   32.7577   47.3266 H   0  0  0  0  0  0  0  0  0  0  0  0
   58.8456   32.2515   47.3266 H   0  0  0  0  0  0  0  0  0  0  0  0
   60.0752   35.4377   46.0484 H   0  0  0  0  0  0  0  0  0  0  0  0
   59.2049   35.7269   47.6119 H   0  0  0  0  0  0  0  0  0  0  0  0
   61.2239   34.7874   48.3309 H   0  0  0  0  0  0  0  0  0  0  0  0
   60.1268   33.3616   48.2622 H   0  0  0  0  0  0  0  0  0  0  0  0
   65.2390   33.0640   47.8840 H   0  0  0  0  0  0  0  0  0  0  0  0
   64.6267   32.0296   51.2539 H   0  0  0  0  0  0  0  0  0  0  0  0
   62.5673   30.9726   52.1273 H   0  0  0  0  0  0  0  0  0  0  0  0
   61.8993   30.8248   46.1166 H   0  0  0  0  0  0  0  0  0  0  0  0
   60.1025   30.0311   44.6062 H   0  0  0  0  0  0  0  0  0  0  0  0
   57.5230   29.3823   48.0083 H   0  0  0  0  0  0  0  0  0  0  0  0
   60.7344   30.9338   52.7138 H   0  0  0  0  0  0  0  0  0  0  0  0
   59.1537   30.1370   52.4090 H   0  0  0  0  0  0  0  0  0  0  0  0
   60.6643   29.1650   52.4090 H   0  0  0  0  0  0  0  0  0  0  0  0
  1  2  1  0
  2  3  1  0
  2  4  1  0
  4  5  1  0
  5  6  1  0
  6  7  1  0
  7  8  2  0
  7  9  1  0
  9 10  2  0
 10 11  1  0
 10 12  1  0
 12 13  2  0
 13 14  1  0
 14 15  2  0
 15 16  1  0
 16 17  2  0
 17 18  1  0
 18 19  2  0
 19 20  1  0
 20 21  2  0
 20 22  1  0
 19 23  1  0
 23 24  2  0
 24 25  1  0
 25 26  2  0
 25 27  1  0
 27 28  1  0
 15  9  1  0
 24 16  1  0
 27 14  1  0
  1 29  1  0
  1 30  1  0
  1 31  1  0
  3 32  1  0
  3 33  1  0
  3 34  1  0
  4 35  1  0
  4 36  1  0
  5 37  1  0
  5 38  1  0
 11 39  1  0
 12 40  1  0
 13 41  1  0
 17 42  1  0
 18 43  1  0
 23 44  1  0
 28 45  1  0
 28 46  1  0
 28 47  1  0
M  CHG  3   6  -1  20   1  22  -1
M  END
>  <UniqueID>  (18) 
17

>  <SMILES>  (18) 
CN(C)CC[N-]C(=O)c1c(O)ccc2c1c1ccc([N+](=O)[O-])cc1c(=O)n2C

>  <Energy>  (18) 
82.65320669107335

>  <Genealogy>  (18) 
CN(C)CC[N-]C(=O)c1c(O)ccc2c1c1ccc([N+](=O)[O-])cc1c(=O)n2C (protonated)
CN(C)CC[N-]C(=O)c1c(O)ccc2c1c1ccc([N+](=O)[O-])cc1c(=O)n2C (3D coordinates assigned)
CN(C)CC[N-]C(=O)c1c(O)ccc2c1c1ccc([N+](=O)[O-])cc1c(=O)n2C (optimized conformer: 82.65320669107335 kcal/mol)

>  <smiles>  (18) 
CN(C)CCNC(=O)c1c(O)ccc2c1c1ccc([N+](=O)[O-])cc1c(=O)n2C

>  <score_type>  (18) 
oracle

>  <origin>  (18) 
adg

>  <m_score__min__energy>  (18) 
-9

>  <m_primary>  (18) 
energy

$$$$
18:0
     RDKit          3D

 42 44  0  0  0  0  0  0  0  0999 V2000
   59.3880   34.7350   48.8570 O   0  0  0  0  0  0  0  0  0  0  0  0
   59.5060   33.6630   48.2050 C   0  0  0  0  0  0  0  0  0  0  0  0
   60.1810   32.5380   48.7940 N   0  0  0  0  0  0  0  0  0  0  0  0
   60.7910   32.5940   50.1200 C   0  0  0  0  0  0  0  0  0  0  0  0
   62.2880   32.5940   49.9880 C   0  0  0  0  0  0  0  0  0  0  0  0
   62.9120   33.1800   48.8760 C   0  0  0  0  0  0  0  0  0  0  0  0
   64.3010   33.1310   48.7480 C   0  0  0  0  0  0  0  0  0  0  0  0
   65.0550   32.4870   49.7310 C   0  0  0  0  0  0  0  0  0  0  0  0
   64.4380   31.9090   50.7960 N   0  0  0  0  0  0  0  0  0  0  0  0
   63.0860   31.9440   50.9430 C   0  0  0  0  0  0  0  0  0  0  0  0
   58.9720   33.5890   46.8240 C   0  0  0  0  0  0  0  0  0  0  0  0
   59.5930   34.3040   45.7860 C   0  0  0  0  0  0  0  0  0  0  0  0
   59.1230   34.1970   44.4750 C   0  0  0  0  0  0  0  0  0  0  0  0
   58.0380   33.3660   44.1830 C   0  0  0  0  0  0  0  0  0  0  0  0
   57.4030   32.6500   45.2030 C   0  0  0  0  0  0  0  0  0  0  0  0
   56.3230   31.7700   44.8580 N   0  0  0  0  0  0  0  0  0  0  0  0
   56.5000   30.1010   44.4160 S   0  0  0  0  0  0  0  0  0  0  0  0
   56.6120   29.9930   42.9220 O   0  0  0  0  0  0  0  0  0  0  0  0
   55.2850   29.3440   44.8730 O   0  0  0  0  0  0  0  0  0  0  0  0
   57.9600   29.4300   45.1440 C   0  0  0  0  0  0  0  0  0  0  0  0
   58.9470   28.8580   44.3290 C   0  0  0  0  0  0  0  0  0  0  0  0
   60.1380   28.3890   44.8920 C   0  0  0  0  0  0  0  0  0  0  0  0
   60.3460   28.4870   46.2700 C   0  0  0  0  0  0  0  0  0  0  0  0
   59.3620   29.0490   47.0900 C   0  0  0  0  0  0  0  0  0  0  0  0
   59.6530   29.1950   48.9720 Br  0  0  0  0  0  0  0  0  0  0  0  0
   58.1700   29.5180   46.5290 C   0  0  0  0  0  0  0  0  0  0  0  0
   57.8510   32.7950   46.5280 C   0  0  0  0  0  0  0  0  0  0  0  0
   60.4240   31.7160   48.1980 H   0  0  0  0  0  0  0  0  0  0  0  0
   60.4689   33.5125   50.6324 H   0  0  0  0  0  0  0  0  0  0  0  0
   60.4763   31.7164   50.7037 H   0  0  0  0  0  0  0  0  0  0  0  0
   62.3061   33.6782   48.1048 H   0  0  0  0  0  0  0  0  0  0  0  0
   64.7963   33.5947   47.8821 H   0  0  0  0  0  0  0  0  0  0  0  0
   66.1508   32.4471   49.6437 H   0  0  0  0  0  0  0  0  0  0  0  0
   62.6165   31.4615   51.8129 H   0  0  0  0  0  0  0  0  0  0  0  0
   60.4542   34.9517   46.0071 H   0  0  0  0  0  0  0  0  0  0  0  0
   59.6083   34.7685   43.6701 H   0  0  0  0  0  0  0  0  0  0  0  0
   57.6818   33.2746   43.1463 H   0  0  0  0  0  0  0  0  0  0  0  0
   58.7841   28.7779   43.2441 H   0  0  0  0  0  0  0  0  0  0  0  0
   60.9114   27.9427   44.2496 H   0  0  0  0  0  0  0  0  0  0  0  0
   61.2852   28.1216   46.7109 H   0  0  0  0  0  0  0  0  0  0  0  0
   57.3951   29.9569   47.1747 H   0  0  0  0  0  0  0  0  0  0  0  0
   57.3181   32.2813   47.3417 H   0  0  0  0  0  0  0  0  0  0  0  0
  1  2  2  0
  2  3  1  0
  3  4  1  0
  4  5  1  0
  5  6  2  0
  6  7  1  0
  7  8  2  0
  8  9  1  0
  9 10  2  0
  2 11  1  0
 11 12  2  0
 12 13  1  0
 13 14  2  0
 14 15  1  0
 15 16  1  0
 16 17  1  0
 17 18  2  0
 17 19  2  0
 17 20  1  0
 20 21  2  0
 21 22  1  0
 22 23  2  0
 23 24  1  0
 24 25  1  0
 24 26  2  0
 15 27  2  0
 10  5  1  0
 27 11  1  0
 26 20  1  0
  3 28  1  0
  4 29  1  0
  4 30  1  0
  6 31  1  0
  7 32  1  0
  8 33  1  0
 10 34  1  0
 12 35  1  0
 13 36  1  0
 14 37  1  0
 21 38  1  0
 22 39  1  0
 23 40  1  0
 26 41  1  0
 27 42  1  0
M  CHG  1  16  -1
M  END
>  <UniqueID>  (19) 
18

>  <SMILES>  (19) 
O=C(NCc1cccnc1)c1cccc([N-]S(=O)(=O)c2cccc(Br)c2)c1

>  <Energy>  (19) 
46.36893739987487

>  <Genealogy>  (19) 
O=C(NCc1cccnc1)c1cccc([N-]S(=O)(=O)c2cccc(Br)c2)c1 (protonated)
O=C(NCc1cccnc1)c1cccc([N-]S(=O)(=O)c2cccc(Br)c2)c1 (3D coordinates assigned)
O=C(NCc1cccnc1)c1cccc([N-]S(=O)(=O)c2cccc(Br)c2)c1 (optimized conformer: 46.36893739987487 kcal/mol)

>  <smiles>  (19) 
O=C(NCc1cccnc1)c1cccc(NS(=O)(=O)c2cccc(Br)c2)c1

>  <score_type>  (19) 
oracle

>  <origin>  (19) 
adg

>  <m_score__min__energy>  (19) 
-10.75

>  <m_primary>  (19) 
energy

$$$$
19:0
     RDKit          3D

 27 28  0  0  0  0  0  0  0  0999 V2000
   55.9743   28.5759   44.8807 H   0  0  0  0  0  0  0  0  0  0  0  0
   57.0010   28.2160   45.0430 C   0  0  0  0  0  0  0  0  0  0  0  0
   57.9840   28.9850   44.6640 N   0  0  0  0  0  0  0  0  0  0  0  0
   58.1740   30.3750   44.9700 C   0  0  0  0  0  0  0  0  0  0  0  0
   57.5730   31.3870   44.2020 C   0  0  0  0  0  0  0  0  0  0  0  0
   56.9186   31.1192   43.3594 H   0  0  0  0  0  0  0  0  0  0  0  0
   57.8030   32.7320   44.5040 C   0  0  0  0  0  0  0  0  0  0  0  0
   57.3139   33.5166   43.9080 H   0  0  0  0  0  0  0  0  0  0  0  0
   58.6550   33.0900   45.5640 C   0  0  0  0  0  0  0  0  0  0  0  0
   58.9000   34.5120   45.8890 C   0  0  0  0  0  0  0  0  0  0  0  0
   58.7950   34.9260   47.0740 O   0  0  0  0  0  0  0  0  0  0  0  0
   59.2510   35.4130   44.8900 O   0  0  0  0  0  0  0  0  0  0  0  0
   59.2810   32.0730   46.3060 C   0  0  0  0  0  0  0  0  0  0  0  0
   59.9576   32.3374   47.1320 H   0  0  0  0  0  0  0  0  0  0  0  0
   59.0500   30.7290   46.0020 C   0  0  0  0  0  0  0  0  0  0  0  0
   59.5606   29.9434   46.5783 H   0  0  0  0  0  0  0  0  0  0  0  0
   57.1780   26.8890   45.6780 C   0  0  0  0  0  0  0  0  0  0  0  0
   58.4520   26.3020   45.7780 C   0  0  0  0  0  0  0  0  0  0  0  0
   59.3338   26.8413   45.4017 H   0  0  0  0  0  0  0  0  0  0  0  0
   58.6040   25.0370   46.3530 C   0  0  0  0  0  0  0  0  0  0  0  0
   59.6056   24.5911   46.4428 H   0  0  0  0  0  0  0  0  0  0  0  0
   57.4850   24.3380   46.8140 C   0  0  0  0  0  0  0  0  0  0  0  0
   57.6380   23.0810   47.3850 O   0  0  0  0  0  0  0  0  0  0  0  0
   56.2120   24.9020   46.6930 C   0  0  0  0  0  0  0  0  0  0  0  0
   55.3312   24.3473   47.0487 H   0  0  0  0  0  0  0  0  0  0  0  0
   56.0530   26.1700   46.1210 C   0  0  0  0  0  0  0  0  0  0  0  0
   54.7770   26.7100   46.0070 O   0  0  0  0  0  0  0  0  0  0  0  0
  1  2  1  0
  2  3  2  0
  3  4  1  0
  4  5  2  0
  5  6  1  0
  5  7  1  0
  7  8  1  0
  7  9  2  0
  9 10  1  0
 10 11  2  0
 10 12  1  0
  9 13  1  0
 13 14  1  0
 13 15  2  0
 15 16  1  0
  2 17  1  0
 17 18  2  0
 18 19  1  0
 18 20  1  0
 20 21  1  0
 20 22  2  0
 22 23  1  0
 22 24  1  0
 24 25  1  0
 24 26  2  0
 26 27  1  0
 15  4  1  0
 26 17  1  0
M  CHG  3  12  -1  23  -1  27  -1
M  END
>  <UniqueID>  (20) 
19

>  <SMILES>  (20) 
O=C([O-])c1ccc(/N=C\c2ccc([O-])cc2[O-])cc1

>  <Energy>  (20) 
40.490176506500475

>  <Genealogy>  (20) 
O=C([O-])c1ccc(N=Cc2ccc([O-])cc2[O-])cc1 (protonated)
O=C([O-])c1ccc(/N=C\c2ccc([O-])cc2[O-])cc1 (cis-trans isomerization)
O=C([O-])c1ccc(/N=C\c2ccc([O-])cc2[O-])cc1 (3D coordinates assigned)
O=C([O-])c1ccc(/N=C\c2ccc([O-])cc2[O-])cc1 (optimized conformer: 40.490176506500475 kcal/mol)

>  <smiles>  (20) 
O=C(O)c1ccc(N=Cc2ccc(O)cc2O)cc1

>  <score_type>  (20) 
oracle

>  <origin>  (20) 
adg

>  <m_score__min__energy>  (20) 
-12.85

>  <m_primary>  (20) 
energy

$$$$
20:0
     RDKit          3D

 32 33  0  0  0  0  0  0  0  0999 V2000
   57.7900   34.1610   44.9890 C   0  0  0  0  0  0  0  0  0  0  0  0
   57.8060   32.7670   44.3720 C   0  0  0  0  0  0  0  0  0  0  0  0
   57.2790   31.8040   45.2850 O   0  0  0  0  0  0  0  0  0  0  0  0
   58.0340   30.9700   46.1290 C   0  0  0  0  0  0  0  0  0  0  0  0
   58.9960   31.4800   47.0250 C   0  0  0  0  0  0  0  0  0  0  0  0
   59.7230   30.6180   47.8480 C   0  0  0  0  0  0  0  0  0  0  0  0
   59.5010   29.2410   47.7920 C   0  0  0  0  0  0  0  0  0  0  0  0
   60.4980   28.0670   48.9220 Br  0  0  0  0  0  0  0  0  0  0  0  0
   58.5490   28.7230   46.9120 C   0  0  0  0  0  0  0  0  0  0  0  0
   57.8120   29.5790   46.0790 C   0  0  0  0  0  0  0  0  0  0  0  0
   56.6140   28.9130   44.9670 S   0  0  0  0  0  0  0  0  0  0  0  0
   57.2870   28.5860   43.6630 O   0  0  0  0  0  0  0  0  0  0  0  0
   55.5310   29.9320   44.7490 O   0  0  0  0  0  0  0  0  0  0  0  0
   55.9180   27.4690   45.6300 N   0  0  0  0  0  0  0  0  0  0  0  0
   56.6290   26.2510   45.8810 C   0  0  0  0  0  0  0  0  0  0  0  0
   57.6960   25.9060   45.0450 C   0  0  0  0  0  0  0  0  0  0  0  0
   58.4080   24.7250   45.2660 C   0  0  0  0  0  0  0  0  0  0  0  0
   58.0410   23.8960   46.3270 C   0  0  0  0  0  0  0  0  0  0  0  0
   57.0030   24.2420   47.1340 N   0  0  0  0  0  0  0  0  0  0  0  0
   56.2950   25.3860   46.9380 C   0  0  0  0  0  0  0  0  0  0  0  0
   57.7910   34.0766   46.0858 H   0  0  0  0  0  0  0  0  0  0  0  0
   58.6818   34.7164   44.6632 H   0  0  0  0  0  0  0  0  0  0  0  0
   56.8857   34.6958   44.6632 H   0  0  0  0  0  0  0  0  0  0  0  0
   57.1945   32.7699   43.4577 H   0  0  0  0  0  0  0  0  0  0  0  0
   58.8458   32.4973   44.1353 H   0  0  0  0  0  0  0  0  0  0  0  0
   59.1748   32.5642   47.0758 H   0  0  0  0  0  0  0  0  0  0  0  0
   60.4728   31.0250   48.5424 H   0  0  0  0  0  0  0  0  0  0  0  0
   58.3755   27.6375   46.8713 H   0  0  0  0  0  0  0  0  0  0  0  0
   57.9751   26.5668   44.2111 H   0  0  0  0  0  0  0  0  0  0  0  0
   59.2485   24.4514   44.6112 H   0  0  0  0  0  0  0  0  0  0  0  0
   58.5920   22.9618   46.5105 H   0  0  0  0  0  0  0  0  0  0  0  0
   55.4589   25.6355   47.6079 H   0  0  0  0  0  0  0  0  0  0  0  0
  1  2  1  0
  2  3  1  0
  3  4  1  0
  4  5  2  0
  5  6  1  0
  6  7  2  0
  7  8  1  0
  7  9  1  0
  9 10  2  0
 10 11  1  0
 11 12  2  0
 11 13  2  0
 11 14  1  0
 14 15  1  0
 15 16  2  0
 16 17  1  0
 17 18  2  0
 18 19  1  0
 19 20  2  0
 10  4  1  0
 20 15  1  0
  1 21  1  0
  1 22  1  0
  1 23  1  0
  2 24  1  0
  2 25  1  0
  5 26  1  0
  6 27  1  0
  9 28  1  0
 16 29  1  0
 17 30  1  0
 18 31  1  0
 20 32  1  0
M  CHG  1  14  -1
M  END
>  <UniqueID>  (21) 
20

>  <SMILES>  (21) 
CCOc1ccc(Br)cc1S(=O)(=O)[N-]c1cccnc1

>  <Energy>  (21) 
35.74864767885763

>  <Genealogy>  (21) 
CCOc1ccc(Br)cc1S(=O)(=O)[N-]c1cccnc1 (protonated)
CCOc1ccc(Br)cc1S(=O)(=O)[N-]c1cccnc1 (3D coordinates assigned)
CCOc1ccc(Br)cc1S(=O)(=O)[N-]c1cccnc1 (optimized conformer: 35.74864767885763 kcal/mol)

>  <smiles>  (21) 
CCOc1ccc(Br)cc1S(=O)(=O)Nc1cccnc1

>  <score_type>  (21) 
oracle

>  <origin>  (21) 
adg

>  <m_score__min__energy>  (21) 
-8.4900000000000002

>  <m_primary>  (21) 
energy

$$$$
21:0
     RDKit          3D

 58 60  0  0  0  0  0  0  0  0999 V2000
   54.9758   24.2123   46.3767 H   0  0  0  0  0  0  0  0  0  0  0  0
   55.6970   24.9940   46.0960 C   0  0  0  0  0  0  0  0  0  0  0  0
   55.3450   26.3030   45.9840 N   0  0  0  0  0  0  0  0  0  0  0  0
   56.3920   27.0750   45.6230 C   0  0  0  0  0  0  0  0  0  0  0  0
   56.2740   28.3610   45.4620 N   0  0  0  0  0  0  0  0  0  0  0  0
   57.2900   29.3620   45.6380 C   0  0  0  0  0  0  0  0  0  0  0  0
   57.2420   30.4630   45.0260 O   0  0  0  0  0  0  0  0  0  0  0  0
   58.4110   29.1010   46.5960 C   0  0  0  0  0  0  0  0  0  0  0  0
   58.7261   28.0510   46.5056 H   0  0  0  0  0  0  0  0  0  0  0  0
   58.0584   29.3073   47.6173 H   0  0  0  0  0  0  0  0  0  0  0  0
   59.6050   30.0120   46.2940 C   0  0  0  0  0  0  0  0  0  0  0  0
   59.3472   30.6847   45.4627 H   0  0  0  0  0  0  0  0  0  0  0  0
   60.4700   29.3899   46.0206 H   0  0  0  0  0  0  0  0  0  0  0  0
   59.9550   30.8320   47.5060 C   0  0  0  0  0  0  0  0  0  0  0  0
   60.9600   30.4930   48.1900 O   0  0  0  0  0  0  0  0  0  0  0  0
   59.2210   32.0290   47.8490 N   0  0  0  0  0  0  0  0  0  0  0  0
   58.9580   33.0420   46.8640 C   0  0  0  0  0  0  0  0  0  0  0  0
   57.7190   33.0680   46.2080 C   0  0  0  0  0  0  0  0  0  0  0  0
   56.9458   32.3305   46.4694 H   0  0  0  0  0  0  0  0  0  0  0  0
   57.4620   34.0240   45.2260 C   0  0  0  0  0  0  0  0  0  0  0  0
   56.4843   34.0463   44.7224 H   0  0  0  0  0  0  0  0  0  0  0  0
   58.4460   34.9530   44.8820 C   0  0  0  0  0  0  0  0  0  0  0  0
   58.2438   35.7019   44.1020 H   0  0  0  0  0  0  0  0  0  0  0  0
   59.6870   34.9350   45.5250 C   0  0  0  0  0  0  0  0  0  0  0  0
   60.4577   35.6697   45.2489 H   0  0  0  0  0  0  0  0  0  0  0  0
   59.9550   33.9790   46.5260 C   0  0  0  0  0  0  0  0  0  0  0  0
   61.1820   33.9250   47.2120 O   0  0  0  0  0  0  0  0  0  0  0  0
   62.4730   33.8370   46.6090 C   0  0  0  0  0  0  0  0  0  0  0  0
   63.0458   34.7457   46.8460 H   0  0  0  0  0  0  0  0  0  0  0  0
   62.3508   33.7385   45.5203 H   0  0  0  0  0  0  0  0  0  0  0  0
   63.2250   32.6200   47.1320 C   0  0  0  0  0  0  0  0  0  0  0  0
   63.2188   32.6300   48.2319 H   0  0  0  0  0  0  0  0  0  0  0  0
   62.7356   31.7035   46.7709 H   0  0  0  0  0  0  0  0  0  0  0  0
   64.2637   32.6477   46.7709 H   0  0  0  0  0  0  0  0  0  0  0  0
   58.5860   32.1640   49.1680 C   0  0  0  0  0  0  0  0  0  0  0  0
   57.7007   32.8108   49.0791 H   0  0  0  0  0  0  0  0  0  0  0  0
   58.2920   31.1660   49.5253 H   0  0  0  0  0  0  0  0  0  0  0  0
   59.5440   32.7700   50.1530 C   0  0  0  0  0  0  0  0  0  0  0  0
   59.1260   33.1340   51.2870 O   0  0  0  0  0  0  0  0  0  0  0  0
   60.9350   32.8940   49.8230 N   0  0  0  0  0  0  0  0  0  0  0  0
   61.2730   32.5320   48.9030 H   0  0  0  0  0  0  0  0  0  0  0  0
   61.8970   33.5580   50.7030 C   0  0  0  0  0  0  0  0  0  0  0  0
   62.0158   34.6042   50.3846 H   0  0  0  0  0  0  0  0  0  0  0  0
   61.5211   33.5147   51.7359 H   0  0  0  0  0  0  0  0  0  0  0  0
   63.2340   32.8680   50.6440 C   0  0  0  0  0  0  0  0  0  0  0  0
   64.3630   33.5370   50.1390 C   0  0  0  0  0  0  0  0  0  0  0  0
   64.2692   34.5701   49.7730 H   0  0  0  0  0  0  0  0  0  0  0  0
   65.6040   32.8950   50.1000 C   0  0  0  0  0  0  0  0  0  0  0  0
   66.4831   33.4231   49.7022 H   0  0  0  0  0  0  0  0  0  0  0  0
   65.7300   31.5820   50.5660 C   0  0  0  0  0  0  0  0  0  0  0  0
   66.9340   30.9600   50.5270 F   0  0  0  0  0  0  0  0  0  0  0  0
   64.6120   30.9090   51.0700 C   0  0  0  0  0  0  0  0  0  0  0  0
   64.7107   29.8761   51.4351 H   0  0  0  0  0  0  0  0  0  0  0  0
   63.3680   31.5490   51.1100 C   0  0  0  0  0  0  0  0  0  0  0  0
   62.4912   31.0172   51.5080 H   0  0  0  0  0  0  0  0  0  0  0  0
   57.7960   26.1590   45.4390 S   0  0  0  0  0  0  0  0  0  0  0  0
   57.0310   24.7140   45.8310 C   0  0  0  0  0  0  0  0  0  0  0  0
   57.5039   23.7216   45.8706 H   0  0  0  0  0  0  0  0  0  0  0  0
  1  2  1  0
  2  3  1  0
  3  4  1  0
  4  5  2  0
  5  6  1  0
  6  7  2  0
  6  8  1  0
  8  9  1  0
  8 10  1  0
  8 11  1  0
 11 12  1  0
 11 13  1  0
 11 14  1  0
 14 15  2  0
 14 16  1  0
 16 17  1  0
 17 18  2  0
 18 19  1  0
 18 20  1  0
 20 21  1  0
 20 22  2  0
 22 23  1  0
 22 24  1  0
 24 25  1  0
 24 26  2  0
 26 27  1  0
 27 28  1  0
 28 29  1  0
 28 30  1  0
 28 31  1  0
 31 32  1  0
 31 33  1  0
 31 34  1  0
 16 35  1  0
 35 36  1  0
 35 37  1  0
 35 38  1  0
 38 39  2  0
 38 40  1  0
 40 41  1  0
 40 42  1  0
 42 43  1  0
 42 44  1  0
 42 45  1  0
 45 46  2  0
 46 47  1  0
 46 48  1  0
 48 49  1  0
 48 50  2  0
 50 51  1  0
 50 52  1  0
 52 53  1  0
 52 54  2  0
 54 55  1  0
  4 56  1  0
 56 57  1  0
 57 58  1  0
 57  2  2  0
 26 17  1  0
 54 45  1  0
M  CHG  1   3  -1
M  END
>  <UniqueID>  (22) 
21

>  <SMILES>  (22) 
CCOc1ccccc1N(CC(=O)NCc1ccc(F)cc1)C(=O)CCC(=O)/N=c1/[n-]ccs1

>  <Energy>  (22) 
88.55192028994583

>  <Genealogy>  (22) 
CCOc1ccccc1N(CC(=O)NCc1ccc(F)cc1)C(=O)CCC(=O)N=c1[n-]ccs1 (protonated)
CCOc1ccccc1N(CC(=O)NCc1ccc(F)cc1)C(=O)CCC(=O)/N=c1/[n-]ccs1 (cis-trans isomerization)
CCOc1ccccc1N(CC(=O)NCc1ccc(F)cc1)C(=O)CCC(=O)/N=c1/[n-]ccs1 (3D coordinates assigned)
CCOc1ccccc1N(CC(=O)NCc1ccc(F)cc1)C(=O)CCC(=O)/N=c1/[n-]ccs1 (optimized conformer: 88.55192028994583 kcal/mol)

>  <smiles>  (22) 
CCOc1ccccc1N(CC(=O)NCc1ccc(F)cc1)C(=O)CCC(=O)N=c1[nH]ccs1

>  <score_type>  (22) 
oracle

>  <origin>  (22) 
adg

>  <m_score__min__energy>  (22) 
-9.8599999999999994

>  <m_primary>  (22) 
energy

$$$$
22:0
     RDKit          3D

 47 50  0  0  1  0  0  0  0  0999 V2000
   59.9810   33.4530   50.6440 C   0  0  0  0  0  0  0  0  0  0  0  0
   60.9100   32.4670   50.3170 O   0  0  0  0  0  0  0  0  0  0  0  0
   61.7930   32.6170   49.2870 C   0  0  0  0  0  0  0  0  0  0  0  0
   62.7510   33.6060   49.2890 C   0  0  0  0  0  0  0  0  0  0  0  0
   63.5860   33.6570   48.1930 C   0  0  0  0  0  0  0  0  0  0  0  0
   63.5230   32.8070   47.1290 C   0  0  0  0  0  0  0  0  0  0  0  0
   62.5680   31.8280   47.1380 C   0  0  0  0  0  0  0  0  0  0  0  0
   61.7070   31.7330   48.2100 C   0  0  0  0  0  0  0  0  0  0  0  0
   60.6170   30.6600   48.2570 C   0  0  0  0  0  0  0  0  0  0  0  0
   56.6980   30.1590   44.8410 N   0  0  0  0  0  0  0  0  0  0  0  0
   57.4430   31.0870   45.3390 C   0  0  0  0  0  0  0  0  0  0  0  0
   58.0960   30.8740   46.4820 N   0  0  0  0  0  0  0  0  0  0  0  0
   58.9000   31.7810   47.0880 C   0  0  0  0  0  0  0  0  0  0  0  0
   59.4460   31.4340   48.1580 N   0  0  0  0  0  0  0  0  0  0  0  0
   57.1870   28.8390   44.6380 C   0  0  0  0  0  0  0  0  0  0  0  0
   57.7210   28.3700   43.4830 C   0  0  0  0  0  0  0  0  0  0  0  0
   58.1760   27.0760   43.3450 C   0  0  0  0  0  0  0  0  0  0  0  0
   58.0760   26.2310   44.4460 C   0  0  0  0  0  0  0  0  0  0  0  0
   57.5350   26.6850   45.6380 C   0  0  0  0  0  0  0  0  0  0  0  0
   57.0960   27.9730   45.7340 C   0  0  0  0  0  0  0  0  0  0  0  0
   57.5870   32.2740   44.7410 N   0  0  0  0  0  0  0  0  0  0  0  0
   58.3750   33.2000   45.3080 C   0  0  0  0  0  0  0  0  0  0  0  0
   58.4840   34.4030   44.6460 C   0  0  0  0  0  0  0  0  0  0  0  0
   59.2870   35.3480   45.2210 C   0  0  0  0  0  0  0  0  0  0  0  0
   59.9630   35.1680   46.3800 C   0  0  0  0  0  0  0  0  0  0  0  0
   59.8610   33.9340   47.0730 C   0  0  0  0  0  0  0  0  0  0  0  0
   59.0630   33.0020   46.4950 C   0  0  0  0  0  0  0  0  0  0  0  0
   59.9035   33.5353   51.7382 H   0  0  0  0  0  0  0  0  0  0  0  0
   60.3068   34.4169   50.2260 H   0  0  0  0  0  0  0  0  0  0  0  0
   58.9994   33.1851   50.2260 H   0  0  0  0  0  0  0  0  0  0  0  0
   62.8453   34.3184   50.1218 H   0  0  0  0  0  0  0  0  0  0  0  0
   64.3586   34.4398   48.1759 H   0  0  0  0  0  0  0  0  0  0  0  0
   64.2219   32.9060   46.2854 H   0  0  0  0  0  0  0  0  0  0  0  0
   62.4878   31.1230   46.2975 H   0  0  0  0  0  0  0  0  0  0  0  0
   60.7071   29.9604   47.4129 H   0  0  0  0  0  0  0  0  0  0  0  0
   60.6562   30.0245   49.1540 H   0  0  0  0  0  0  0  0  0  0  0  0
   57.9590   29.9280   46.9290 H   0  0  0  0  0  0  0  0  0  0  0  0
   57.7941   29.0497   42.6212 H   0  0  0  0  0  0  0  0  0  0  0  0
   58.6042   26.7229   42.3953 H   0  0  0  0  0  0  0  0  0  0  0  0
   58.4300   25.1923   44.3692 H   0  0  0  0  0  0  0  0  0  0  0  0
   57.4598   26.0098   46.5031 H   0  0  0  0  0  0  0  0  0  0  0  0
   56.6670   28.3340   46.6804 H   0  0  0  0  0  0  0  0  0  0  0  0
   57.0860   32.4460   43.8570 H   0  0  0  0  0  0  0  0  0  0  0  0
   57.9518   34.5936   43.7024 H   0  0  0  0  0  0  0  0  0  0  0  0
   59.3905   36.3163   44.7094 H   0  0  0  0  0  0  0  0  0  0  0  0
   60.5900   35.9766   46.7837 H   0  0  0  0  0  0  0  0  0  0  0  0
   60.3939   33.7457   48.0167 H   0  0  0  0  0  0  0  0  0  0  0  0
  1  2  1  0
  2  3  1  0
  3  4  2  0
  4  5  1  0
  5  6  2  0
  6  7  1  0
  7  8  2  0
  8  9  1  0
  9 10  1  0
 10 11  2  0
 11 12  1  0
 12 13  1  0
 13 14  2  0
 14 15  1  0
 15 16  2  0
 16 17  1  0
 17 18  2  0
 18 19  1  0
 19 20  2  0
 13 21  1  0
 21 22  1  0
 22 23  2  0
 23 24  1  0
 24 25  2  0
 25 26  1  0
 26 27  2  0
  8  3  1  0
 27 11  1  0
 20 15  1  0
 27 22  1  0
  1 28  1  0
  1 29  1  0
  1 30  1  0
  4 31  1  0
  5 32  1  0
  6 33  1  0
  7 34  1  0
  9 35  1  0
  9 36  1  0
 12 37  1  0
 16 38  1  0
 17 39  1  0
 18 40  1  0
 19 41  1  0
 20 42  1  0
 21 43  1  0
 23 44  1  0
 24 45  1  0
 25 46  1  0
 26 47  1  0
M  END
>  <smiles>  (23) 
COc1ccccc1CN=c1[nH]c(=Nc2ccccc2)[nH]c2ccccc12

>  <score_type>  (23) 
oracle

>  <origin>  (23) 
adg

>  <m_score__min__energy>  (23) 
-8.0199999999999996

>  <m_primary>  (23) 
energy

$$$$
23:0
     RDKit          3D

 33 35  0  0  0  0  0  0  0  0999 V2000
   57.7660   26.3770   44.7180 C   0  0  0  0  0  0  0  0  0  0  0  0
   56.6560   27.0870   45.9150 S   0  0  0  0  0  0  0  0  0  0  0  0
   57.4510   27.4960   47.1230 O   0  0  0  0  0  0  0  0  0  0  0  0
   55.6390   26.0580   46.3280 O   0  0  0  0  0  0  0  0  0  0  0  0
   55.8840   28.4990   45.2500 N   0  0  0  0  0  0  0  0  0  0  0  0
   56.7150   29.1490   44.2340 C   0  0  0  0  0  0  0  0  0  0  0  0
   57.5520   30.2450   44.8350 C   0  0  0  0  0  0  0  0  0  0  0  0
   58.7320   29.9300   45.5620 C   0  0  0  0  0  0  0  0  0  0  0  0
   59.4860   30.9550   46.1630 C   0  0  0  0  0  0  0  0  0  0  0  0
   59.0650   32.2590   45.9720 C   0  0  0  0  0  0  0  0  0  0  0  0
   57.9400   32.5810   45.2810 C   0  0  0  0  0  0  0  0  0  0  0  0
   57.1480   31.5960   44.6940 C   0  0  0  0  0  0  0  0  0  0  0  0
   57.7950   34.0270   45.3840 C   0  0  0  0  0  0  0  0  0  0  0  0
   56.8660   34.7030   44.8720 O   0  0  0  0  0  0  0  0  0  0  0  0
   58.9230   34.5820   46.2200 C   0  0  0  0  0  0  0  0  0  0  0  0
   59.6970   33.3810   46.5440 N   0  0  0  0  0  0  0  0  0  0  0  0
   60.7240   33.2070   47.5220 C   0  0  0  0  0  0  0  0  0  0  0  0
   61.2870   34.2070   48.0420 O   0  0  0  0  0  0  0  0  0  0  0  0
   61.0540   31.8060   47.9910 C   0  0  0  0  0  0  0  0  0  0  0  0
   60.7800   30.7230   46.9110 C   0  0  0  0  0  0  0  0  0  0  0  0
   58.5821   25.8550   45.2391 H   0  0  0  0  0  0  0  0  0  0  0  0
   57.2169   25.6620   44.0876 H   0  0  0  0  0  0  0  0  0  0  0  0
   58.1849   27.1752   44.0876 H   0  0  0  0  0  0  0  0  0  0  0  0
   57.3789   28.3987   43.7798 H   0  0  0  0  0  0  0  0  0  0  0  0
   56.0538   29.5924   43.4749 H   0  0  0  0  0  0  0  0  0  0  0  0
   59.0565   28.8831   45.6550 H   0  0  0  0  0  0  0  0  0  0  0  0
   56.2363   31.8594   44.1377 H   0  0  0  0  0  0  0  0  0  0  0  0
   59.5263   35.3012   45.6467 H   0  0  0  0  0  0  0  0  0  0  0  0
   58.5808   35.1360   47.1066 H   0  0  0  0  0  0  0  0  0  0  0  0
   62.1195   31.7690   48.2618 H   0  0  0  0  0  0  0  0  0  0  0  0
   60.4036   31.5853   48.8502 H   0  0  0  0  0  0  0  0  0  0  0  0
   61.6095   30.7294   46.1886 H   0  0  0  0  0  0  0  0  0  0  0  0
   60.6953   29.7551   47.4268 H   0  0  0  0  0  0  0  0  0  0  0  0
  1  2  1  0
  2  3  2  0
  2  4  2  0
  2  5  1  0
  5  6  1  0
  6  7  1  0
  7  8  2  0
  8  9  1  0
  9 10  2  0
 10 11  1  0
 11 12  2  0
 11 13  1  0
 13 14  2  0
 13 15  1  0
 15 16  1  0
 16 17  1  0
 17 18  2  0
 17 19  1  0
 19 20  1  0
 12  7  1  0
 20  9  1  0
 16 10  1  0
  1 21  1  0
  1 22  1  0
  1 23  1  0
  6 24  1  0
  6 25  1  0
  8 26  1  0
 12 27  1  0
 15 28  1  0
 15 29  1  0
 19 30  1  0
 19 31  1  0
 20 32  1  0
 20 33  1  0
M  CHG  1   5  -1
M  END
>  <UniqueID>  (24) 
22

>  <SMILES>  (24) 
CS(=O)(=O)[N-]Cc1cc2c3c(c1)C(=O)CN3C(=O)CC2

>  <Energy>  (24) 
54.45231285663329

>  <Genealogy>  (24) 
CS(=O)(=O)[N-]Cc1cc2c3c(c1)C(=O)CN3C(=O)CC2 (protonated)
CS(=O)(=O)[N-]Cc1cc2c3c(c1)C(=O)CN3C(=O)CC2 (3D coordinates assigned)
CS(=O)(=O)[N-]Cc1cc2c3c(c1)C(=O)CN3C(=O)CC2 (nonaromatic ring conformer: 54.45231285663329 kcal/mol)

>  <smiles>  (24) 
CS(=O)(=O)NCc1cc2c3c(c1)C(=O)CN3C(=O)CC2

>  <score_type>  (24) 
oracle

>  <origin>  (24) 
adg

>  <m_score__min__energy>  (24) 
-9.5099999999999998

>  <m_primary>  (24) 
energy

$$$$
24:0
     RDKit          3D

 69 72  0  0  1  0  0  0  0  0999 V2000
   67.7100   31.0430   52.3060 C   0  0  0  0  0  0  0  0  0  0  0  0
   66.7950   31.2640   51.1990 N   0  0  0  0  0  0  0  0  0  0  0  0
   65.4940   30.7380   51.4570 C   0  0  0  0  0  0  0  0  0  0  0  0
   64.3950   31.2070   50.5800 C   0  0  0  0  0  0  0  0  0  0  0  0
   64.6590   32.4100   49.8260 N   0  0  0  0  0  0  0  0  0  0  0  0
   63.5420   33.0150   49.1710 C   0  0  0  0  0  0  0  0  0  0  0  0
   63.4290   32.9530   47.7990 C   0  0  0  0  0  0  0  0  0  0  0  0
   62.3440   33.5280   47.1240 C   0  0  0  0  0  0  0  0  0  0  0  0
   61.3450   34.1790   47.8180 C   0  0  0  0  0  0  0  0  0  0  0  0
   57.7310   31.0030   46.1140 N   0  0  0  0  0  0  0  0  0  0  0  0
   58.2700   32.1490   45.7850 C   0  0  0  0  0  0  0  0  0  0  0  0
   59.4030   34.5540   45.1060 N   0  0  0  0  0  0  0  0  0  0  0  0
   58.6920   33.8500   44.1750 C   0  0  0  0  0  0  0  0  0  0  0  0
   58.1170   32.6420   44.5020 C   0  0  0  0  0  0  0  0  0  0  0  0
   57.4080   31.9340   43.5830 F   0  0  0  0  0  0  0  0  0  0  0  0
   59.5370   34.0400   46.3670 C   0  0  0  0  0  0  0  0  0  0  0  0
   60.2220   34.7690   47.1790 N   0  0  0  0  0  0  0  0  0  0  0  0
   58.1580   29.8200   45.4480 C   0  0  0  0  0  0  0  0  0  0  0  0
   57.3720   29.3260   44.4330 C   0  0  0  0  0  0  0  0  0  0  0  0
   57.7210   28.1870   43.7410 C   0  0  0  0  0  0  0  0  0  0  0  0
   58.8910   27.5500   44.1020 C   0  0  0  0  0  0  0  0  0  0  0  0
   59.6720   28.0620   45.1290 C   0  0  0  0  0  0  0  0  0  0  0  0
   59.3560   29.1900   45.8320 C   0  0  0  0  0  0  0  0  0  0  0  0
   60.1930   29.8590   47.1800 S   0  0  0  0  0  0  0  0  0  0  0  0
   61.3620   30.7270   46.7140 O   0  0  0  0  0  0  0  0  0  0  0  0
   60.8920   28.6560   47.8600 O   0  0  0  0  0  0  0  0  0  0  0  0
   59.2450   30.6980   48.2620 N   0  0  0  0  0  0  0  0  0  0  0  0
   59.4920   30.7610   49.6220 C   0  0  0  0  0  0  0  0  0  0  0  0
   60.8690   30.8710   50.1380 C   0  0  0  0  0  0  0  0  0  0  0  0
   58.8620   29.4730   50.2360 C   0  0  0  0  0  0  0  0  0  0  0  0
   58.6940   31.8880   50.3150 C   0  0  0  0  0  0  0  0  0  0  0  0
   57.7910   32.3590   49.3610 O   0  0  0  0  0  0  0  0  0  0  0  0
   58.9830   32.8620   46.7050 N   0  0  0  0  0  0  0  0  0  0  0  0
   61.4530   34.2440   49.1920 C   0  0  0  0  0  0  0  0  0  0  0  0
   62.5370   33.6700   49.8510 C   0  0  0  0  0  0  0  0  0  0  0  0
   66.0010   32.9540   49.7510 C   0  0  0  0  0  0  0  0  0  0  0  0
   66.6730   32.7210   51.0920 C   0  0  0  0  0  0  0  0  0  0  0  0
   67.1729   31.1727   53.2572 H   0  0  0  0  0  0  0  0  0  0  0  0
   68.1140   30.0214   52.2494 H   0  0  0  0  0  0  0  0  0  0  0  0
   68.5357   31.7675   52.2494 H   0  0  0  0  0  0  0  0  0  0  0  0
   65.5527   29.6439   51.3600 H   0  0  0  0  0  0  0  0  0  0  0  0
   65.2327   31.0997   52.4625 H   0  0  0  0  0  0  0  0  0  0  0  0
   64.1690   30.4032   49.8638 H   0  0  0  0  0  0  0  0  0  0  0  0
   63.5618   31.4551   51.2540 H   0  0  0  0  0  0  0  0  0  0  0  0
   64.2100   32.4393   47.2192 H   0  0  0  0  0  0  0  0  0  0  0  0
   62.2881   33.4595   46.0276 H   0  0  0  0  0  0  0  0  0  0  0  0
   59.8380   35.4730   44.8520 H   0  0  0  0  0  0  0  0  0  0  0  0
   58.5782   34.2511   43.1571 H   0  0  0  0  0  0  0  0  0  0  0  0
   56.4434   29.8525   44.1677 H   0  0  0  0  0  0  0  0  0  0  0  0
   57.0890   27.7986   42.9288 H   0  0  0  0  0  0  0  0  0  0  0  0
   59.2046   26.6364   43.5757 H   0  0  0  0  0  0  0  0  0  0  0  0
   60.5979   27.5293   45.3917 H   0  0  0  0  0  0  0  0  0  0  0  0
   58.2370   30.5390   48.0510 H   0  0  0  0  0  0  0  0  0  0  0  0
   60.8496   30.8695   51.2378 H   0  0  0  0  0  0  0  0  0  0  0  0
   61.4638   30.0175   49.7805 H   0  0  0  0  0  0  0  0  0  0  0  0
   61.3208   31.8081   49.7805 H   0  0  0  0  0  0  0  0  0  0  0  0
   58.8933   29.5370   51.3337 H   0  0  0  0  0  0  0  0  0  0  0  0
   57.8174   29.3815   49.9037 H   0  0  0  0  0  0  0  0  0  0  0  0
   59.4310   28.5922   49.9037 H   0  0  0  0  0  0  0  0  0  0  0  0
   58.1558   31.4938   51.1896 H   0  0  0  0  0  0  0  0  0  0  0  0
   59.3560   32.6893   50.6750 H   0  0  0  0  0  0  0  0  0  0  0  0
   56.9110   32.6150   49.7680 H   0  0  0  0  0  0  0  0  0  0  0  0
   59.1060   32.4990   47.6850 H   0  0  0  0  0  0  0  0  0  0  0  0
   60.6727   34.7559   49.7743 H   0  0  0  0  0  0  0  0  0  0  0  0
   62.5934   33.7412   50.9472 H   0  0  0  0  0  0  0  0  0  0  0  0
   66.5666   32.4460   48.9560 H   0  0  0  0  0  0  0  0  0  0  0  0
   65.9670   34.0290   49.5205 H   0  0  0  0  0  0  0  0  0  0  0  0
   67.6648   33.1962   51.1167 H   0  0  0  0  0  0  0  0  0  0  0  0
   66.0996   33.1529   51.9255 H   0  0  0  0  0  0  0  0  0  0  0  0
  1  2  1  0
  2  3  1  0
  3  4  1  0
  4  5  1  0
  5  6  1  0
  6  7  2  0
  7  8  1  0
  8  9  2  0
  9 10  1  0
 10 11  2  0
 11 12  1  0
 12 13  1  0
 13 14  2  0
 14 15  1  0
 14 16  1  0
 16 17  2  0
 17 18  1  0
 18 19  2  0
 19 20  1  0
 20 21  2  0
 21 22  1  0
 22 23  2  0
 23 24  1  0
 24 25  2  0
 24 26  2  0
 24 27  1  0
 27 28  1  0
 28 29  1  0
 28 30  1  0
 28 31  1  0
 31 32  1  0
 16 33  1  0
  9 34  1  0
 34 35  2  0
  5 36  1  0
 36 37  1  0
 37  2  1  0
 35  6  1  0
 33 11  1  0
 23 18  1  0
  1 38  1  0
  1 39  1  0
  1 40  1  0
  3 41  1  0
  3 42  1  0
  4 43  1  0
  4 44  1  0
  7 45  1  0
  8 46  1  0
 12 47  1  0
 13 48  1  0
 19 49  1  0
 20 50  1  0
 21 51  1  0
 22 52  1  0
 27 53  1  0
 29 54  1  0
 29 55  1  0
 29 56  1  0
 30 57  1  0
 30 58  1  0
 30 59  1  0
 31 60  1  0
 31 61  1  0
 32 62  1  0
 33 63  1  0
 34 64  1  0
 35 65  1  0
 36 66  1  0
 36 67  1  0
 37 68  1  0
 37 69  1  0
M  END
>  <smiles>  (25) 
CN1CCN(c2ccc(N=c3[nH]cc(F)c(=Nc4ccccc4S(=O)(=O)NC(C)(C)CO)[nH]3)cc2)CC1

>  <score_type>  (25) 
oracle

>  <origin>  (25) 
adg

>  <m_score__min__energy>  (25) 
-10.039999999999999

>  <m_primary>  (25) 
energy

$$$$
25:0
     RDKit          3D

 49 51  0  0  0  0  0  0  0  0999 V2000
   55.4840   28.9600   44.8750 N   0  0  0  0  0  0  0  0  0  0  0  0
   56.6330   30.1260   44.3230 S   0  0  0  0  0  0  0  0  0  0  0  0
   56.6090   30.1520   42.8210 O   0  0  0  0  0  0  0  0  0  0  0  0
   56.2730   31.4950   44.8260 O   0  0  0  0  0  0  0  0  0  0  0  0
   58.2440   29.6880   44.8970 C   0  0  0  0  0  0  0  0  0  0  0  0
   58.8030   28.4690   44.4830 C   0  0  0  0  0  0  0  0  0  0  0  0
   60.0800   28.1000   44.9030 C   0  0  0  0  0  0  0  0  0  0  0  0
   60.7950   28.9540   45.7370 C   0  0  0  0  0  0  0  0  0  0  0  0
   60.2430   30.1270   46.1410 N   0  0  0  0  0  0  0  0  0  0  0  0
   58.9930   30.5140   45.7650 C   0  0  0  0  0  0  0  0  0  0  0  0
   58.4060   32.1060   46.3880 S   0  0  0  0  0  0  0  0  0  0  0  0
   59.9580   32.6860   47.1290 C   0  0  0  0  0  0  0  0  0  0  0  0
   60.8980   33.3880   46.3520 C   0  0  0  0  0  0  0  0  0  0  0  0
   62.0880   33.8490   46.9170 C   0  0  0  0  0  0  0  0  0  0  0  0
   62.3390   33.6570   48.2730 C   0  0  0  0  0  0  0  0  0  0  0  0
   61.3880   33.0300   49.0780 C   0  0  0  0  0  0  0  0  0  0  0  0
   61.6310   32.9040   50.4090 F   0  0  0  0  0  0  0  0  0  0  0  0
   60.1880   32.5480   48.5230 C   0  0  0  0  0  0  0  0  0  0  0  0
   59.1380   32.0590   49.4400 C   0  0  0  0  0  0  0  0  0  0  0  0
   58.5340   30.9870   49.1610 O   0  0  0  0  0  0  0  0  0  0  0  0
   58.7840   32.7940   50.6170 N   0  0  0  0  0  0  0  0  0  0  0  0
   57.8360   32.2890   51.6080 C   0  0  0  0  0  0  0  0  0  0  0  0
   58.0970   30.8050   51.8910 C   0  0  0  0  0  0  0  0  0  0  0  0
   56.8290   30.0540   52.0110 N   0  0  0  0  0  0  0  0  0  0  0  0
   55.6550   30.9560   51.9600 C   0  0  0  0  0  0  0  0  0  0  0  0
   54.3780   30.2460   52.4480 C   0  0  0  0  0  0  0  0  0  0  0  0
   54.5430   28.8440   52.4100 O   0  0  0  0  0  0  0  0  0  0  0  0
   55.5130   28.4500   53.3650 C   0  0  0  0  0  0  0  0  0  0  0  0
   56.8140   29.2760   53.2650 C   0  0  0  0  0  0  0  0  0  0  0  0
   54.6930   29.4900   45.3080 H   0  0  0  0  0  0  0  0  0  0  0  0
   58.2301   27.8008   43.8232 H   0  0  0  0  0  0  0  0  0  0  0  0
   60.5176   27.1443   44.5787 H   0  0  0  0  0  0  0  0  0  0  0  0
   61.8070   28.6790   46.0689 H   0  0  0  0  0  0  0  0  0  0  0  0
   60.6927   33.5755   45.2877 H   0  0  0  0  0  0  0  0  0  0  0  0
   62.8294   34.3653   46.2895 H   0  0  0  0  0  0  0  0  0  0  0  0
   63.2884   34.0002   48.7099 H   0  0  0  0  0  0  0  0  0  0  0  0
   59.2170   33.7250   50.7810 H   0  0  0  0  0  0  0  0  0  0  0  0
   57.9481   32.8609   52.5409 H   0  0  0  0  0  0  0  0  0  0  0  0
   56.8150   32.4027   51.2148 H   0  0  0  0  0  0  0  0  0  0  0  0
   58.6889   30.3809   51.0665 H   0  0  0  0  0  0  0  0  0  0  0  0
   58.6432   30.7219   52.8422 H   0  0  0  0  0  0  0  0  0  0  0  0
   55.8464   31.8289   52.6015 H   0  0  0  0  0  0  0  0  0  0  0  0
   55.5013   31.2648   50.9155 H   0  0  0  0  0  0  0  0  0  0  0  0
   54.1640   30.5569   53.4812 H   0  0  0  0  0  0  0  0  0  0  0  0
   53.5438   30.5228   51.7866 H   0  0  0  0  0  0  0  0  0  0  0  0
   55.0894   28.5802   54.3718 H   0  0  0  0  0  0  0  0  0  0  0  0
   55.7693   27.3990   53.1657 H   0  0  0  0  0  0  0  0  0  0  0  0
   56.8737   29.9648   54.1206 H   0  0  0  0  0  0  0  0  0  0  0  0
   57.6751   28.5915   53.2729 H   0  0  0  0  0  0  0  0  0  0  0  0
  1  2  1  0
  2  3  2  0
  2  4  2  0
  2  5  1  0
  5  6  2  0
  6  7  1  0
  7  8  2  0
  8  9  1  0
  9 10  2  0
 10 11  1  0
 11 12  1  0
 12 13  2  0
 13 14  1  0
 14 15  2  0
 15 16  1  0
 16 17  1  0
 16 18  2  0
 18 19  1  0
 19 20  2  0
 19 21  1  0
 21 22  1  0
 22 23  1  0
 23 24  1  0
 24 25  1  0
 25 26  1  0
 26 27  1  0
 27 28  1  0
 28 29  1  0
 10  5  1  0
 18 12  1  0
 29 24  1  0
  1 30  1  0
  6 31  1  0
  7 32  1  0
  8 33  1  0
 13 34  1  0
 14 35  1  0
 15 36  1  0
 21 37  1  0
 22 38  1  0
 22 39  1  0
 23 40  1  0
 23 41  1  0
 25 42  1  0
 25 43  1  0
 26 44  1  0
 26 45  1  0
 28 46  1  0
 28 47  1  0
 29 48  1  0
 29 49  1  0
M  CHG  1   1  -1
M  END
>  <UniqueID>  (26) 
23

>  <SMILES>  (26) 
[NH-]S(=O)(=O)c1cccnc1Sc1cccc(F)c1C(=O)NCCN1CCOCC1

>  <Energy>  (26) 
70.11173142089474

>  <Genealogy>  (26) 
[NH-]S(=O)(=O)c1cccnc1Sc1cccc(F)c1C(=O)NCCN1CCOCC1 (protonated)
[NH-]S(=O)(=O)c1cccnc1Sc1cccc(F)c1C(=O)NCCN1CCOCC1 (3D coordinates assigned)
[NH-]S(=O)(=O)c1cccnc1Sc1cccc(F)c1C(=O)NCCN1CCOCC1 (nonaromatic ring conformer: 70.11173142089474 kcal/mol)

>  <smiles>  (26) 
NS(=O)(=O)c1cccnc1Sc1cccc(F)c1C(=O)NCCN1CCOCC1

>  <score_type>  (26) 
oracle

>  <origin>  (26) 
adg

>  <m_score__min__energy>  (26) 
-11.15

>  <m_primary>  (26) 
energy

$$$$
26:0
     RDKit          3D

 42 43  0  0  0  0  0  0  0  0999 V2000
   60.0130   34.1710   49.1920 C   0  0  0  0  0  0  0  0  0  0  0  0
   59.2380   34.7650   48.1560 O   0  0  0  0  0  0  0  0  0  0  0  0
   58.9420   34.1430   46.9340 C   0  0  0  0  0  0  0  0  0  0  0  0
   58.0700   33.0400   46.8400 C   0  0  0  0  0  0  0  0  0  0  0  0
   57.8000   32.4610   45.5960 C   0  0  0  0  0  0  0  0  0  0  0  0
   58.3890   32.9780   44.4360 C   0  0  0  0  0  0  0  0  0  0  0  0
   58.0480   32.2230   42.8410 S   0  0  0  0  0  0  0  0  0  0  0  0
   56.6550   31.1910   43.4250 C   0  0  0  0  0  0  0  0  0  0  0  0
   57.0240   29.7030   43.4210 C   0  0  0  0  0  0  0  0  0  0  0  0
   56.6300   28.9990   44.7000 C   0  0  0  0  0  0  0  0  0  0  0  0
   55.5230   29.2830   45.2370 O   0  0  0  0  0  0  0  0  0  0  0  0
   57.4510   27.9590   45.2830 N   0  0  0  0  0  0  0  0  0  0  0  0
   56.7900   26.8560   45.9900 C   0  0  0  0  0  0  0  0  0  0  0  0
   58.9210   28.0010   45.2540 C   0  0  0  0  0  0  0  0  0  0  0  0
   59.4300   29.0300   46.2230 C   0  0  0  0  0  0  0  0  0  0  0  0
   60.6270   29.7190   45.9710 C   0  0  0  0  0  0  0  0  0  0  0  0
   61.0960   30.6400   46.9100 C   0  0  0  0  0  0  0  0  0  0  0  0
   60.3810   30.8590   48.0870 C   0  0  0  0  0  0  0  0  0  0  0  0
   59.1990   30.1490   48.3100 C   0  0  0  0  0  0  0  0  0  0  0  0
   58.7560   29.2580   47.3840 N   0  0  0  0  0  0  0  0  0  0  0  0
   59.2660   34.0630   44.5270 C   0  0  0  0  0  0  0  0  0  0  0  0
   59.5360   34.6450   45.7700 C   0  0  0  0  0  0  0  0  0  0  0  0
   59.6136   34.4771   50.1701 H   0  0  0  0  0  0  0  0  0  0  0  0
   59.9657   33.0756   49.1032 H   0  0  0  0  0  0  0  0  0  0  0  0
   61.0585   34.5013   49.1032 H   0  0  0  0  0  0  0  0  0  0  0  0
   57.6004   32.6333   47.7477 H   0  0  0  0  0  0  0  0  0  0  0  0
   57.1228   31.5968   45.5288 H   0  0  0  0  0  0  0  0  0  0  0  0
   56.3911   31.4919   44.4496 H   0  0  0  0  0  0  0  0  0  0  0  0
   55.8038   31.3394   42.7442 H   0  0  0  0  0  0  0  0  0  0  0  0
   56.5107   29.2157   42.5789 H   0  0  0  0  0  0  0  0  0  0  0  0
   58.1178   29.6329   43.3273 H   0  0  0  0  0  0  0  0  0  0  0  0
   56.8817   27.0090   47.0754 H   0  0  0  0  0  0  0  0  0  0  0  0
   55.7260   26.8278   45.7123 H   0  0  0  0  0  0  0  0  0  0  0  0
   57.2668   25.9044   45.7123 H   0  0  0  0  0  0  0  0  0  0  0  0
   59.3182   27.0133   45.5309 H   0  0  0  0  0  0  0  0  0  0  0  0
   59.2524   28.2683   44.2397 H   0  0  0  0  0  0  0  0  0  0  0  0
   61.1894   29.5353   45.0437 H   0  0  0  0  0  0  0  0  0  0  0  0
   62.0285   31.1922   46.7214 H   0  0  0  0  0  0  0  0  0  0  0  0
   60.7438   31.5829   48.8316 H   0  0  0  0  0  0  0  0  0  0  0  0
   58.6265   30.3109   49.2352 H   0  0  0  0  0  0  0  0  0  0  0  0
   59.7446   34.4597   43.6195 H   0  0  0  0  0  0  0  0  0  0  0  0
   60.2204   35.5038   45.8333 H   0  0  0  0  0  0  0  0  0  0  0  0
  1  2  1  0
  2  3  1  0
  3  4  2  0
  4  5  1  0
  5  6  2  0
  6  7  1  0
  7  8  1  0
  8  9  1  0
  9 10  1  0
 10 11  2  0
 10 12  1  0
 12 13  1  0
 12 14  1  0
 14 15  1  0
 15 16  2  0
 16 17  1  0
 17 18  2  0
 18 19  1  0
 19 20  2  0
  6 21  1  0
 21 22  2  0
 22  3  1  0
 20 15  1  0
  1 23  1  0
  1 24  1  0
  1 25  1  0
  4 26  1  0
  5 27  1  0
  8 28  1  0
  8 29  1  0
  9 30  1  0
  9 31  1  0
 13 32  1  0
 13 33  1  0
 13 34  1  0
 14 35  1  0
 14 36  1  0
 16 37  1  0
 17 38  1  0
 18 39  1  0
 19 40  1  0
 21 41  1  0
 22 42  1  0
M  END
>  <UniqueID>  (27) 
24

>  <SMILES>  (27) 
COc1ccc(SCCC(=O)N(C)Cc2ccccn2)cc1

>  <Energy>  (27) 
32.88546812841183

>  <Genealogy>  (27) 
COc1ccc(SCCC(=O)N(C)Cc2ccccn2)cc1 (3D coordinates assigned)
COc1ccc(SCCC(=O)N(C)Cc2ccccn2)cc1 (optimized conformer: 32.88546812841183 kcal/mol)

>  <smiles>  (27) 
COc1ccc(SCCC(=O)N(C)Cc2ccccn2)cc1

>  <score_type>  (27) 
oracle

>  <origin>  (27) 
adg

>  <m_score__min__energy>  (27) 
-7.3300000000000001

>  <m_primary>  (27) 
energy

$$$$
27:0
     RDKit          3D

 28 29  0  0  0  0  0  0  0  0999 V2000
   55.1660   29.3290   44.8430 N   0  0  0  0  0  0  0  0  0  0  0  0
   56.2650   29.3710   43.9370 C   0  0  0  0  0  0  0  0  0  0  0  0
   56.0420   29.4720   42.7010 O   0  0  0  0  0  0  0  0  0  0  0  0
   57.6550   29.2340   44.4250 C   0  0  0  0  0  0  0  0  0  0  0  0
   58.2160   27.9450   44.4540 C   0  0  0  0  0  0  0  0  0  0  0  0
   59.5080   27.7390   44.9380 C   0  0  0  0  0  0  0  0  0  0  0  0
   60.2610   28.8180   45.3940 C   0  0  0  0  0  0  0  0  0  0  0  0
   59.7320   30.1080   45.3530 C   0  0  0  0  0  0  0  0  0  0  0  0
   58.4360   30.3380   44.8600 C   0  0  0  0  0  0  0  0  0  0  0  0
   57.8780   32.0190   44.7300 S   0  0  0  0  0  0  0  0  0  0  0  0
   56.3860   32.0840   44.8950 O   0  0  0  0  0  0  0  0  0  0  0  0
   58.2340   32.5470   43.3690 O   0  0  0  0  0  0  0  0  0  0  0  0
   58.5990   33.0110   45.9960 C   0  0  0  0  0  0  0  0  0  0  0  0
   58.6170   32.5480   47.3200 C   0  0  0  0  0  0  0  0  0  0  0  0
   59.1950   33.3250   48.3290 C   0  0  0  0  0  0  0  0  0  0  0  0
   59.7520   34.5690   48.0210 C   0  0  0  0  0  0  0  0  0  0  0  0
   59.7300   35.0380   46.7050 C   0  0  0  0  0  0  0  0  0  0  0  0
   59.1520   34.2640   45.6940 C   0  0  0  0  0  0  0  0  0  0  0  0
   55.1420   28.6390   45.6270 H   0  0  0  0  0  0  0  0  0  0  0  0
   57.6290   27.0886   44.0906 H   0  0  0  0  0  0  0  0  0  0  0  0
   59.9320   26.7242   44.9595 H   0  0  0  0  0  0  0  0  0  0  0  0
   61.2749   28.6527   45.7873 H   0  0  0  0  0  0  0  0  0  0  0  0
   60.3360   30.9550   45.7106 H   0  0  0  0  0  0  0  0  0  0  0  0
   58.1752   31.5709   47.5654 H   0  0  0  0  0  0  0  0  0  0  0  0
   59.2112   32.9568   49.3654 H   0  0  0  0  0  0  0  0  0  0  0  0
   60.2078   35.1791   48.8147 H   0  0  0  0  0  0  0  0  0  0  0  0
   60.1681   36.0178   46.4639 H   0  0  0  0  0  0  0  0  0  0  0  0
   59.1310   34.6385   44.6599 H   0  0  0  0  0  0  0  0  0  0  0  0
  1  2  1  0
  2  3  2  0
  2  4  1  0
  4  5  2  0
  5  6  1  0
  6  7  2  0
  7  8  1  0
  8  9  2  0
  9 10  1  0
 10 11  2  0
 10 12  2  0
 10 13  1  0
 13 14  2  0
 14 15  1  0
 15 16  2  0
 16 17  1  0
 17 18  2  0
  9  4  1  0
 18 13  1  0
  1 19  1  0
  5 20  1  0
  6 21  1  0
  7 22  1  0
  8 23  1  0
 14 24  1  0
 15 25  1  0
 16 26  1  0
 17 27  1  0
 18 28  1  0
M  CHG  1   1  -1
M  END
>  <UniqueID>  (28) 
25

>  <SMILES>  (28) 
[NH-]C(=O)c1ccccc1S(=O)(=O)c1ccccc1

>  <Energy>  (28) 
36.88854559309866

>  <Genealogy>  (28) 
[NH-]C(=O)c1ccccc1S(=O)(=O)c1ccccc1 (protonated)
[NH-]C(=O)c1ccccc1S(=O)(=O)c1ccccc1 (3D coordinates assigned)
[NH-]C(=O)c1ccccc1S(=O)(=O)c1ccccc1 (optimized conformer: 36.88854559309866 kcal/mol)

>  <smiles>  (28) 
NC(=O)c1ccccc1S(=O)(=O)c1ccccc1

>  <score_type>  (28) 
oracle

>  <origin>  (28) 
adg

>  <m_score__min__energy>  (28) 
-10.800000000000001

>  <m_primary>  (28) 
energy

$$$$
28:0
     RDKit          3D

 35 37  0  0  0  0  0  0  0  0999 V2000
   55.7910   27.4550   45.6100 O   0  0  0  0  0  0  0  0  0  0  0  0
   56.6830   28.3450   45.5880 C   0  0  0  0  0  0  0  0  0  0  0  0
   56.3330   29.7090   45.3190 N   0  0  0  0  0  0  0  0  0  0  0  0
   56.8600   30.5550   44.2840 C   0  0  0  0  0  0  0  0  0  0  0  0
   56.5010   30.3680   42.9360 C   0  0  0  0  0  0  0  0  0  0  0  0
   57.0070   31.2130   41.9450 C   0  0  0  0  0  0  0  0  0  0  0  0
   57.8810   32.2450   42.2840 C   0  0  0  0  0  0  0  0  0  0  0  0
   58.2680   32.4260   43.6120 C   0  0  0  0  0  0  0  0  0  0  0  0
   57.7780   31.5780   44.6210 C   0  0  0  0  0  0  0  0  0  0  0  0
   58.2210   31.7850   46.0210 C   0  0  0  0  0  0  0  0  0  0  0  0
   57.7740   32.9030   46.7480 C   0  0  0  0  0  0  0  0  0  0  0  0
   58.1920   33.1000   48.0680 C   0  0  0  0  0  0  0  0  0  0  0  0
   59.0640   32.1890   48.6700 C   0  0  0  0  0  0  0  0  0  0  0  0
   59.5220   31.0820   47.9520 C   0  0  0  0  0  0  0  0  0  0  0  0
   59.1080   30.8800   46.6330 C   0  0  0  0  0  0  0  0  0  0  0  0
   58.0880   27.9910   45.8940 C   0  0  0  0  0  0  0  0  0  0  0  0
   59.1090   28.2260   44.9520 C   0  0  0  0  0  0  0  0  0  0  0  0
   60.4340   27.8930   45.2460 C   0  0  0  0  0  0  0  0  0  0  0  0
   60.7570   27.3210   46.4790 C   0  0  0  0  0  0  0  0  0  0  0  0
   59.7550   27.0830   47.4220 C   0  0  0  0  0  0  0  0  0  0  0  0
   58.4280   27.4160   47.1340 C   0  0  0  0  0  0  0  0  0  0  0  0
   55.8175   29.5512   42.6609 H   0  0  0  0  0  0  0  0  0  0  0  0
   56.7152   31.0637   40.8950 H   0  0  0  0  0  0  0  0  0  0  0  0
   58.2660   32.9175   41.5032 H   0  0  0  0  0  0  0  0  0  0  0  0
   58.9622   33.2387   43.8720 H   0  0  0  0  0  0  0  0  0  0  0  0
   57.0923   33.6259   46.2761 H   0  0  0  0  0  0  0  0  0  0  0  0
   57.8339   33.9732   48.6331 H   0  0  0  0  0  0  0  0  0  0  0  0
   59.3897   32.3437   49.7092 H   0  0  0  0  0  0  0  0  0  0  0  0
   60.2106   30.3672   48.4263 H   0  0  0  0  0  0  0  0  0  0  0  0
   59.4770   30.0097   46.0704 H   0  0  0  0  0  0  0  0  0  0  0  0
   58.8615   28.6746   43.9786 H   0  0  0  0  0  0  0  0  0  0  0  0
   61.2246   28.0817   44.5048 H   0  0  0  0  0  0  0  0  0  0  0  0
   61.8005   27.0581   46.7069 H   0  0  0  0  0  0  0  0  0  0  0  0
   60.0101   26.6329   48.3928 H   0  0  0  0  0  0  0  0  0  0  0  0
   57.6434   27.2275   47.8816 H   0  0  0  0  0  0  0  0  0  0  0  0
  1  2  2  0
  2  3  1  0
  3  4  1  0
  4  5  2  0
  5  6  1  0
  6  7  2  0
  7  8  1  0
  8  9  2  0
  9 10  1  0
 10 11  2  0
 11 12  1  0
 12 13  2  0
 13 14  1  0
 14 15  2  0
  2 16  1  0
 16 17  2  0
 17 18  1  0
 18 19  2  0
 19 20  1  0
 20 21  2  0
  9  4  1  0
 15 10  1  0
 21 16  1  0
  5 22  1  0
  6 23  1  0
  7 24  1  0
  8 25  1  0
 11 26  1  0
 12 27  1  0
 13 28  1  0
 14 29  1  0
 15 30  1  0
 17 31  1  0
 18 32  1  0
 19 33  1  0
 20 34  1  0
 21 35  1  0
M  CHG  1   3  -1
M  END
>  <UniqueID>  (29) 
26

>  <SMILES>  (29) 
O=C([N-]c1ccccc1-c1ccccc1)c1ccccc1

>  <Energy>  (29) 
48.75747344037141

>  <Genealogy>  (29) 
O=C([N-]c1ccccc1-c1ccccc1)c1ccccc1 (protonated)
O=C([N-]c1ccccc1-c1ccccc1)c1ccccc1 (3D coordinates assigned)
O=C([N-]c1ccccc1-c1ccccc1)c1ccccc1 (optimized conformer: 48.75747344037141 kcal/mol)

>  <smiles>  (29) 
O=C(Nc1ccccc1-c1ccccc1)c1ccccc1

>  <score_type>  (29) 
oracle

>  <origin>  (29) 
adg

>  <m_score__min__energy>  (29) 
-9.1699999999999999

>  <m_primary>  (29) 
energy

$$$$
29:0
     RDKit          3D

 28 29  0  0  0  0  0  0  0  0999 V2000
   60.9210   26.7380   47.6590 C   0  0  0  0  0  0  0  0  0  0  0  0
   60.4720   26.6950   46.2020 C   0  0  0  0  0  0  0  0  0  0  0  0
   58.9710   26.6800   46.1080 C   0  0  0  0  0  0  0  0  0  0  0  0
   58.2690   27.8520   45.7880 C   0  0  0  0  0  0  0  0  0  0  0  0
   56.8730   27.8480   45.7430 C   0  0  0  0  0  0  0  0  0  0  0  0
   56.1630   26.6770   46.0230 C   0  0  0  0  0  0  0  0  0  0  0  0
   54.7720   26.7020   45.9860 O   0  0  0  0  0  0  0  0  0  0  0  0
   56.8520   25.4910   46.3420 C   0  0  0  0  0  0  0  0  0  0  0  0
   56.1060   24.2310   46.6930 C   0  0  0  0  0  0  0  0  0  0  0  0
   56.5730   23.1020   45.8320 C   0  0  0  0  0  0  0  0  0  0  0  0
   55.7940   22.5250   44.8910 N   0  0  0  0  0  0  0  0  0  0  0  0
   56.6140   21.6210   44.3340 C   0  0  0  0  0  0  0  0  0  0  0  0
   56.2370   20.7710   43.3010 O   0  0  0  0  0  0  0  0  0  0  0  0
   57.8520   21.6680   44.9240 C   0  0  0  0  0  0  0  0  0  0  0  0
   57.8350   22.6170   45.8760 N   0  0  0  0  0  0  0  0  0  0  0  0
   58.2550   25.5070   46.3990 C   0  0  0  0  0  0  0  0  0  0  0  0
   60.0427   26.6539   48.3160 H   0  0  0  0  0  0  0  0  0  0  0  0
   61.6077   25.9015   47.8559 H   0  0  0  0  0  0  0  0  0  0  0  0
   61.4364   27.6896   47.8559 H   0  0  0  0  0  0  0  0  0  0  0  0
   60.8576   27.5826   45.6791 H   0  0  0  0  0  0  0  0  0  0  0  0
   60.8644   25.7780   45.7382 H   0  0  0  0  0  0  0  0  0  0  0  0
   58.8209   28.7786   45.5715 H   0  0  0  0  0  0  0  0  0  0  0  0
   56.3304   28.7698   45.4863 H   0  0  0  0  0  0  0  0  0  0  0  0
   56.2877   23.9826   47.7491 H   0  0  0  0  0  0  0  0  0  0  0  0
   55.0305   24.3905   46.5262 H   0  0  0  0  0  0  0  0  0  0  0  0
   56.6760   19.8660   43.1860 H   0  0  0  0  0  0  0  0  0  0  0  0
   58.7132   21.0357   44.6621 H   0  0  0  0  0  0  0  0  0  0  0  0
   58.7990   24.5915   46.6744 H   0  0  0  0  0  0  0  0  0  0  0  0
  1  2  1  0
  2  3  1  0
  3  4  2  0
  4  5  1  0
  5  6  2  0
  6  7  1  0
  6  8  1  0
  8  9  1  0
  9 10  1  0
 10 11  2  0
 11 12  1  0
 12 13  1  0
 12 14  2  0
 14 15  1  0
  8 16  2  0
 16  3  1  0
 15 10  1  0
  1 17  1  0
  1 18  1  0
  1 19  1  0
  2 20  1  0
  2 21  1  0
  4 22  1  0
  5 23  1  0
  9 24  1  0
  9 25  1  0
 13 26  1  0
 14 27  1  0
 16 28  1  0
M  CHG  2   7  -1  15  -1
M  END
>  <UniqueID>  (30) 
27

>  <SMILES>  (30) 
CCc1ccc([O-])c(Cc2nc(O)c[n-]2)c1

>  <Energy>  (30) 
51.10658555523585

>  <Genealogy>  (30) 
CCc1ccc([O-])c(Cc2nc(O)c[n-]2)c1 (protonated)
CCc1ccc([O-])c(Cc2nc(O)c[n-]2)c1 (3D coordinates assigned)
CCc1ccc([O-])c(Cc2nc(O)c[n-]2)c1 (optimized conformer: 51.10658555523585 kcal/mol)

>  <smiles>  (30) 
CCc1ccc(O)c(Cc2nc(O)c[nH]2)c1

>  <score_type>  (30) 
oracle

>  <origin>  (30) 
adg

>  <m_score__min__energy>  (30) 
-10.720000000000001

>  <m_primary>  (30) 
energy

$$$$
30:0
     RDKit          3D

 55 58  0  0  0  0  0  0  0  0999 V2000
   54.5470   29.5240   43.4280 O   0  0  0  0  0  0  0  0  0  0  0  0
   55.5950   29.6440   44.1200 C   0  0  0  0  0  0  0  0  0  0  0  0
   55.8420   28.7550   45.2180 N   0  0  0  0  0  0  0  0  0  0  0  0
   57.0820   28.1230   45.5700 C   0  0  0  0  0  0  0  0  0  0  0  0
   58.3050   28.8200   45.5190 C   0  0  0  0  0  0  0  0  0  0  0  0
   59.5020   28.1650   45.8160 C   0  0  0  0  0  0  0  0  0  0  0  0
   59.4950   26.8140   46.1680 C   0  0  0  0  0  0  0  0  0  0  0  0
   58.2850   26.1210   46.2490 C   0  0  0  0  0  0  0  0  0  0  0  0
   57.0740   26.7720   45.9810 C   0  0  0  0  0  0  0  0  0  0  0  0
   55.8850   26.0390   46.0880 O   0  0  0  0  0  0  0  0  0  0  0  0
   55.8330   24.6740   46.4010 C   0  0  0  0  0  0  0  0  0  0  0  0
   55.6800   24.3070   47.5990 O   0  0  0  0  0  0  0  0  0  0  0  0
   55.9800   23.6640   45.3310 C   0  0  0  0  0  0  0  0  0  0  0  0
   55.9480   24.0500   43.9810 C   0  0  0  0  0  0  0  0  0  0  0  0
   56.0770   23.0800   42.9830 C   0  0  0  0  0  0  0  0  0  0  0  0
   56.2310   21.7720   43.3170 N   0  0  0  0  0  0  0  0  0  0  0  0
   56.2640   21.3690   44.6140 C   0  0  0  0  0  0  0  0  0  0  0  0
   56.1390   22.3040   45.6440 C   0  0  0  0  0  0  0  0  0  0  0  0
   56.5460   30.7450   43.8370 C   0  0  0  0  0  0  0  0  0  0  0  0
   57.0180   30.9650   42.5310 C   0  0  0  0  0  0  0  0  0  0  0  0
   57.9200   31.9990   42.2680 C   0  0  0  0  0  0  0  0  0  0  0  0
   58.3600   32.8270   43.3020 C   0  0  0  0  0  0  0  0  0  0  0  0
   57.8960   32.6250   44.6080 C   0  0  0  0  0  0  0  0  0  0  0  0
   58.4710   33.6440   45.9260 S   0  0  0  0  0  0  0  0  0  0  0  0
   57.3780   33.7720   46.9500 O   0  0  0  0  0  0  0  0  0  0  0  0
   58.8030   35.0160   45.4060 O   0  0  0  0  0  0  0  0  0  0  0  0
   59.8850   32.9270   46.6630 N   0  0  0  0  0  0  0  0  0  0  0  0
   61.0820   33.7440   46.3570 C   0  0  0  0  0  0  0  0  0  0  0  0
   62.2320   33.4390   47.3200 C   0  0  0  0  0  0  0  0  0  0  0  0
   61.8460   33.7860   48.7690 C   0  0  0  0  0  0  0  0  0  0  0  0
   60.3270   33.7260   49.0100 C   0  0  0  0  0  0  0  0  0  0  0  0
   59.6630   32.6750   48.1090 C   0  0  0  0  0  0  0  0  0  0  0  0
   56.9970   31.5840   44.8740 C   0  0  0  0  0  0  0  0  0  0  0  0
   58.3172   29.8850   45.2440 H   0  0  0  0  0  0  0  0  0  0  0  0
   60.4535   28.7153   45.7725 H   0  0  0  0  0  0  0  0  0  0  0  0
   60.4415   26.2958   46.3813 H   0  0  0  0  0  0  0  0  0  0  0  0
   58.2830   25.0563   46.5253 H   0  0  0  0  0  0  0  0  0  0  0  0
   55.8222   25.1089   43.7108 H   0  0  0  0  0  0  0  0  0  0  0  0
   56.0538   23.3764   41.9240 H   0  0  0  0  0  0  0  0  0  0  0  0
   56.3896   20.3028   44.8537 H   0  0  0  0  0  0  0  0  0  0  0  0
   56.1649   21.9773   46.6940 H   0  0  0  0  0  0  0  0  0  0  0  0
   56.6746   30.3182   41.7102 H   0  0  0  0  0  0  0  0  0  0  0  0
   58.2846   32.1611   41.2429 H   0  0  0  0  0  0  0  0  0  0  0  0
   59.0717   33.6388   43.0910 H   0  0  0  0  0  0  0  0  0  0  0  0
   61.4094   33.5271   45.3295 H   0  0  0  0  0  0  0  0  0  0  0  0
   60.8125   34.8048   46.4670 H   0  0  0  0  0  0  0  0  0  0  0  0
   62.4771   32.3683   47.2598 H   0  0  0  0  0  0  0  0  0  0  0  0
   63.1003   34.0503   47.0331 H   0  0  0  0  0  0  0  0  0  0  0  0
   62.3380   33.0712   49.4450 H   0  0  0  0  0  0  0  0  0  0  0  0
   62.1723   34.8187   48.9614 H   0  0  0  0  0  0  0  0  0  0  0  0
   60.1407   33.4657   50.0624 H   0  0  0  0  0  0  0  0  0  0  0  0
   59.8974   34.7103   48.7720 H   0  0  0  0  0  0  0  0  0  0  0  0
   60.0759   31.6868   48.3600 H   0  0  0  0  0  0  0  0  0  0  0  0
   58.5790   32.7249   48.2890 H   0  0  0  0  0  0  0  0  0  0  0  0
   56.6404   31.4207   45.9017 H   0  0  0  0  0  0  0  0  0  0  0  0
  1  2  2  0
  2  3  1  0
  3  4  1  0
  4  5  2  0
  5  6  1  0
  6  7  2  0
  7  8  1  0
  8  9  2  0
  9 10  1  0
 10 11  1  0
 11 12  2  0
 11 13  1  0
 13 14  2  0
 14 15  1  0
 15 16  2  0
 16 17  1  0
 17 18  2  0
  2 19  1  0
 19 20  2  0
 20 21  1  0
 21 22  2  0
 22 23  1  0
 23 24  1  0
 24 25  2  0
 24 26  2  0
 24 27  1  0
 27 28  1  0
 28 29  1  0
 29 30  1  0
 30 31  1  0
 31 32  1  0
 23 33  2  0
  9  4  1  0
 18 13  1  0
 33 19  1  0
 32 27  1  0
  5 34  1  0
  6 35  1  0
  7 36  1  0
  8 37  1  0
 14 38  1  0
 15 39  1  0
 17 40  1  0
 18 41  1  0
 20 42  1  0
 21 43  1  0
 22 44  1  0
 28 45  1  0
 28 46  1  0
 29 47  1  0
 29 48  1  0
 30 49  1  0
 30 50  1  0
 31 51  1  0
 31 52  1  0
 32 53  1  0
 32 54  1  0
 33 55  1  0
M  CHG  1   3  -1
M  END
>  <UniqueID>  (31) 
28

>  <SMILES>  (31) 
O=C([N-]c1ccccc1OC(=O)c1ccncc1)c1cccc(S(=O)(=O)N2CCCCC2)c1

>  <Energy>  (31) 
74.94682517667495

>  <Genealogy>  (31) 
O=C([N-]c1ccccc1OC(=O)c1ccncc1)c1cccc(S(=O)(=O)N2CCCCC2)c1 (protonated)
O=C([N-]c1ccccc1OC(=O)c1ccncc1)c1cccc(S(=O)(=O)N2CCCCC2)c1 (3D coordinates assigned)
O=C([N-]c1ccccc1OC(=O)c1ccncc1)c1cccc(S(=O)(=O)N2CCCCC2)c1 (nonaromatic ring conformer: 74.94682517667495 kcal/mol)

>  <smiles>  (31) 
O=C(Nc1ccccc1OC(=O)c1ccncc1)c1cccc(S(=O)(=O)N2CCCCC2)c1

>  <score_type>  (31) 
oracle

>  <origin>  (31) 
adg

>  <m_score__min__energy>  (31) 
-13.5

>  <m_primary>  (31) 
energy

$$$$
31:0
     RDKit          3D

 45 46  0  0  0  0  0  0  0  0999 V2000
   58.1340   21.7090   45.6850 C   0  0  0  0  0  0  0  0  0  0  0  0
   57.3760   22.5930   46.5040 O   0  0  0  0  0  0  0  0  0  0  0  0
   56.1960   23.2420   46.1020 C   0  0  0  0  0  0  0  0  0  0  0  0
   55.1000   22.5230   45.5880 C   0  0  0  0  0  0  0  0  0  0  0  0
   53.9310   23.1870   45.2150 C   0  0  0  0  0  0  0  0  0  0  0  0
   53.8370   24.5700   45.3530 C   0  0  0  0  0  0  0  0  0  0  0  0
   54.9150   25.3010   45.8570 C   0  0  0  0  0  0  0  0  0  0  0  0
   54.7830   26.6790   45.9990 O   0  0  0  0  0  0  0  0  0  0  0  0
   56.1090   24.6470   46.2260 C   0  0  0  0  0  0  0  0  0  0  0  0
   57.2890   25.4390   46.7520 C   0  0  0  0  0  0  0  0  0  0  0  0
   58.0130   26.2130   45.6380 C   0  0  0  0  0  0  0  0  0  0  0  0
   57.3350   27.4770   45.3080 N   0  0  0  0  0  0  0  0  0  0  0  0
   58.1640   28.3330   44.4460 C   0  0  0  0  0  0  0  0  0  0  0  0
   58.4540   29.6460   45.1360 C   0  0  0  0  0  0  0  0  0  0  0  0
   59.7120   29.8410   45.7270 C   0  0  0  0  0  0  0  0  0  0  0  0
   60.0240   31.0470   46.3430 C   0  0  0  0  0  0  0  0  0  0  0  0
   59.0920   32.0810   46.3700 C   0  0  0  0  0  0  0  0  0  0  0  0
   57.8270   31.9250   45.7700 C   0  0  0  0  0  0  0  0  0  0  0  0
   56.8910   32.9720   45.7910 O   0  0  0  0  0  0  0  0  0  0  0  0
   57.0600   34.2320   45.1490 C   0  0  0  0  0  0  0  0  0  0  0  0
   57.5030   30.6920   45.1400 C   0  0  0  0  0  0  0  0  0  0  0  0
   56.2700   30.4470   44.5050 O   0  0  0  0  0  0  0  0  0  0  0  0
   56.0730   30.1100   43.1350 C   0  0  0  0  0  0  0  0  0  0  0  0
   58.7176   21.0284   46.3224 H   0  0  0  0  0  0  0  0  0  0  0  0
   57.4532   21.1231   45.0499 H   0  0  0  0  0  0  0  0  0  0  0  0
   58.8169   22.2924   45.0499 H   0  0  0  0  0  0  0  0  0  0  0  0
   55.1658   21.4303   45.4798 H   0  0  0  0  0  0  0  0  0  0  0  0
   53.0814   22.6170   44.8109 H   0  0  0  0  0  0  0  0  0  0  0  0
   52.9106   25.0880   45.0640 H   0  0  0  0  0  0  0  0  0  0  0  0
   56.9274   26.1559   47.5039 H   0  0  0  0  0  0  0  0  0  0  0  0
   58.0052   24.7274   47.1887 H   0  0  0  0  0  0  0  0  0  0  0  0
   59.0374   26.4368   45.9704 H   0  0  0  0  0  0  0  0  0  0  0  0
   58.0132   25.5843   44.7354 H   0  0  0  0  0  0  0  0  0  0  0  0
   56.4710   27.2250   44.7730 H   0  0  0  0  0  0  0  0  0  0  0  0
   59.1124   27.8197   44.2288 H   0  0  0  0  0  0  0  0  0  0  0  0
   57.6211   28.5322   43.5103 H   0  0  0  0  0  0  0  0  0  0  0  0
   60.4573   29.0324   45.7024 H   0  0  0  0  0  0  0  0  0  0  0  0
   61.0101   31.1851   46.8106 H   0  0  0  0  0  0  0  0  0  0  0  0
   59.3461   33.0298   46.8651 H   0  0  0  0  0  0  0  0  0  0  0  0
   57.1657   35.0197   45.9095 H   0  0  0  0  0  0  0  0  0  0  0  0
   57.9626   34.2053   44.5208 H   0  0  0  0  0  0  0  0  0  0  0  0
   56.1823   34.4441   44.5208 H   0  0  0  0  0  0  0  0  0  0  0  0
   55.5189   29.1622   43.0666 H   0  0  0  0  0  0  0  0  0  0  0  0
   55.4986   30.9071   42.6403 H   0  0  0  0  0  0  0  0  0  0  0  0
   57.0494   30.0005   42.6403 H   0  0  0  0  0  0  0  0  0  0  0  0
  1  2  1  0
  2  3  1  0
  3  4  2  0
  4  5  1  0
  5  6  2  0
  6  7  1  0
  7  8  1  0
  7  9  2  0
  9 10  1  0
 10 11  1  0
 11 12  1  0
 12 13  1  0
 13 14  1  0
 14 15  2  0
 15 16  1  0
 16 17  2  0
 17 18  1  0
 18 19  1  0
 19 20  1  0
 18 21  2  0
 21 22  1  0
 22 23  1  0
  9  3  1  0
 21 14  1  0
  1 24  1  0
  1 25  1  0
  1 26  1  0
  4 27  1  0
  5 28  1  0
  6 29  1  0
 10 30  1  0
 10 31  1  0
 11 32  1  0
 11 33  1  0
 12 34  1  0
 13 35  1  0
 13 36  1  0
 15 37  1  0
 16 38  1  0
 17 39  1  0
 20 40  1  0
 20 41  1  0
 20 42  1  0
 23 43  1  0
 23 44  1  0
 23 45  1  0
M  CHG  1   8  -1
M  END
>  <UniqueID>  (32) 
29

>  <SMILES>  (32) 
COc1cccc([O-])c1CCNCc1cccc(OC)c1OC

>  <Energy>  (32) 
44.85183343089241

>  <Genealogy>  (32) 
COc1cccc([O-])c1CCNCc1cccc(OC)c1OC (protonated)
COc1cccc([O-])c1CCNCc1cccc(OC)c1OC (3D coordinates assigned)
COc1cccc([O-])c1CCNCc1cccc(OC)c1OC (optimized conformer: 44.85183343089241 kcal/mol)

>  <smiles>  (32) 
COc1cccc(O)c1CCNCc1cccc(OC)c1OC

>  <score_type>  (32) 
oracle

>  <origin>  (32) 
adg

>  <m_score__min__energy>  (32) 
-10.130000000000001

>  <m_primary>  (32) 
energy

$$$$
32:0
     RDKit          3D

 39 41  0  0  0  0  0  0  0  0999 V2000
   56.0409   32.0355   44.6306 H   0  0  0  0  0  0  0  0  0  0  0  0
   57.1010   31.8510   44.8590 C   0  0  0  0  0  0  0  0  0  0  0  0
   60.3210   33.7710   48.1140 C   0  0  0  0  0  0  0  0  0  0  0  0
   58.5080   32.7810   46.7070 C   0  0  0  0  0  0  0  0  0  0  0  0
   58.2210   31.8690   47.5300 O   0  0  0  0  0  0  0  0  0  0  0  0
   59.4710   33.8530   47.0700 C   0  0  0  0  0  0  0  0  0  0  0  0
   57.8060   32.8650   45.4010 C   0  0  0  0  0  0  0  0  0  0  0  0
   59.8956   33.8234   49.1271 H   0  0  0  0  0  0  0  0  0  0  0  0
   61.7810   33.6160   47.9890 C   0  0  0  0  0  0  0  0  0  0  0  0
   62.4280   33.2720   46.8190 C   0  0  0  0  0  0  0  0  0  0  0  0
   61.9665   33.1117   45.8334 H   0  0  0  0  0  0  0  0  0  0  0  0
   63.7690   33.1690   47.1310 C   0  0  0  0  0  0  0  0  0  0  0  0
   64.5876   32.9235   46.4384 H   0  0  0  0  0  0  0  0  0  0  0  0
   63.8830   33.4340   48.4810 C   0  0  0  0  0  0  0  0  0  0  0  0
   64.8250   33.4180   49.0487 H   0  0  0  0  0  0  0  0  0  0  0  0
   62.6730   33.7150   49.0020 N   0  0  0  0  0  0  0  0  0  0  0  0
   62.3910   33.8480   50.4290 C   0  0  0  0  0  0  0  0  0  0  0  0
   63.2366   33.4492   51.0086 H   0  0  0  0  0  0  0  0  0  0  0  0
   62.2451   34.9098   50.6765 H   0  0  0  0  0  0  0  0  0  0  0  0
   61.4789   33.2851   50.6765 H   0  0  0  0  0  0  0  0  0  0  0  0
   59.3930   35.1470   46.2910 C   0  0  0  0  0  0  0  0  0  0  0  0
   58.6085   35.7813   46.7294 H   0  0  0  0  0  0  0  0  0  0  0  0
   60.3736   35.6424   46.3460 H   0  0  0  0  0  0  0  0  0  0  0  0
   59.0770   34.9060   44.8760 N   0  0  0  0  0  0  0  0  0  0  0  0
   59.8320   34.3150   44.4540 H   0  0  0  0  0  0  0  0  0  0  0  0
   57.7880   34.2150   44.7220 C   0  0  0  0  0  0  0  0  0  0  0  0
   56.9949   34.8314   45.1703 H   0  0  0  0  0  0  0  0  0  0  0  0
   57.6012   34.0622   43.6488 H   0  0  0  0  0  0  0  0  0  0  0  0
   57.6420   30.5110   44.5480 C   0  0  0  0  0  0  0  0  0  0  0  0
   58.8930   30.1320   45.0510 C   0  0  0  0  0  0  0  0  0  0  0  0
   59.4834   30.8404   45.6506 H   0  0  0  0  0  0  0  0  0  0  0  0
   59.3890   28.8540   44.7900 C   0  0  0  0  0  0  0  0  0  0  0  0
   60.3779   28.5554   45.1680 H   0  0  0  0  0  0  0  0  0  0  0  0
   58.6200   27.9570   44.0450 C   0  0  0  0  0  0  0  0  0  0  0  0
   59.0072   26.9510   43.8260 H   0  0  0  0  0  0  0  0  0  0  0  0
   57.3920   28.3270   43.5900 N   0  0  0  0  0  0  0  0  0  0  0  0
   56.8210   27.6410   43.0460 H   0  0  0  0  0  0  0  0  0  0  0  0
   56.8870   29.5670   43.8330 C   0  0  0  0  0  0  0  0  0  0  0  0
   55.8835   29.8310   43.4680 H   0  0  0  0  0  0  0  0  0  0  0  0
  1  2  1  0
  2  3  2  0
  3  4  1  0
  4  5  2  0
  4  6  1  0
  6  7  2  0
  7  8  1  0
  7  9  1  0
  9 10  2  0
 10 11  1  0
 10 12  1  0
 12 13  1  0
 12 14  2  0
 14 15  1  0
 14 16  1  0
 16 17  1  0
 17 18  1  0
 17 19  1  0
 17 20  1  0
  6 21  1  0
 21 22  1  0
 21 23  1  0
 21 24  1  0
 24 25  1  0
 24 26  1  0
 26 27  1  0
 26 28  1  0
  2 29  1  0
 29 30  2  0
 30 31  1  0
 30 32  1  0
 32 33  1  0
 32 34  2  0
 34 35  1  0
 34 36  1  0
 36 37  1  0
 36 38  2  0
 38 39  1  0
 26  3  1  0
 38 29  1  0
 16  9  1  0
M  CHG  1  36   1
M  END
>  <UniqueID>  (33) 
30

>  <SMILES>  (33) 
Cn1cccc1/C=C1/CNC/C(=C/c2ccc[nH+]c2)C1=O

>  <Energy>  (33) 
84.48808225129714

>  <Genealogy>  (33) 
Cn1cccc1C=C1CNCC(=Cc2ccc[nH+]c2)C1=O (protonated)
Cn1cccc1/C=C1/CNC/C(=C/c2ccc[nH+]c2)C1=O (cis-trans isomerization)
Cn1cccc1/C=C1/CNC/C(=C/c2ccc[nH+]c2)C1=O (3D coordinates assigned)
Cn1cccc1/C=C1/CNC/C(=C/c2ccc[nH+]c2)C1=O (nonaromatic ring conformer: 84.48808225129714 kcal/mol)

>  <smiles>  (33) 
Cn1cccc1C=C1CNCC(=Cc2cccnc2)C1=O

>  <score_type>  (33) 
oracle

>  <origin>  (33) 
adg

>  <m_score__min__energy>  (33) 
-6.6100000000000003

>  <m_primary>  (33) 
energy

$$$$
33:0
     RDKit          3D

 41 43  0  0  1  0  0  0  0  0999 V2000
   57.0690   21.5260   43.3040 C   0  0  0  0  0  0  0  0  0  0  0  0
   55.8310   22.2900   43.0960 N   0  0  0  0  0  0  0  0  0  0  0  0
   55.4600   23.1930   43.9400 C   0  0  0  0  0  0  0  0  0  0  0  0
   56.3710   24.0560   44.5360 C   0  0  0  0  0  0  0  0  0  0  0  0
   55.9900   25.0280   45.4420 C   0  0  0  0  0  0  0  0  0  0  0  0
   56.9420   25.9350   46.0700 C   0  0  0  0  0  0  0  0  0  0  0  0
   57.7560   25.5430   47.1020 C   0  0  0  0  0  0  0  0  0  0  0  0
   58.6720   26.3980   47.7130 C   0  0  0  0  0  0  0  0  0  0  0  0
   58.8010   27.7060   47.2960 C   0  0  0  0  0  0  0  0  0  0  0  0
   59.7480   28.5130   47.9590 N   0  0  0  0  0  0  0  0  0  0  0  0
   60.3240   29.7030   47.4610 C   0  0  0  0  0  0  0  0  0  0  0  0
   60.0570   30.1930   46.3430 O   0  0  0  0  0  0  0  0  0  0  0  0
   61.2840   30.4310   48.2490 N   0  0  0  0  0  0  0  0  0  0  0  0
   61.8350   31.6260   47.6980 C   0  0  0  0  0  0  0  0  0  0  0  0
   63.2090   31.7490   47.5430 C   0  0  0  0  0  0  0  0  0  0  0  0
   63.7480   32.9000   47.0120 C   0  0  0  0  0  0  0  0  0  0  0  0
   62.8940   33.9390   46.6310 C   0  0  0  0  0  0  0  0  0  0  0  0
   61.5260   33.8050   46.7900 C   0  0  0  0  0  0  0  0  0  0  0  0
   60.6800   34.8190   46.4200 F   0  0  0  0  0  0  0  0  0  0  0  0
   60.9760   32.6590   47.3210 C   0  0  0  0  0  0  0  0  0  0  0  0
   57.9920   28.1090   46.2650 C   0  0  0  0  0  0  0  0  0  0  0  0
   57.0720   27.2510   45.6500 C   0  0  0  0  0  0  0  0  0  0  0  0
   54.6700   25.0950   45.7180 N   0  0  0  0  0  0  0  0  0  0  0  0
   53.7740   24.2460   45.1290 C   0  0  0  0  0  0  0  0  0  0  0  0
   54.1540   23.3060   44.2530 N   0  0  0  0  0  0  0  0  0  0  0  0
   57.2530   21.4125   44.3825 H   0  0  0  0  0  0  0  0  0  0  0  0
   56.9687   20.5325   42.8426 H   0  0  0  0  0  0  0  0  0  0  0  0
   57.9120   22.0611   42.8426 H   0  0  0  0  0  0  0  0  0  0  0  0
   57.4360   23.9623   44.2771 H   0  0  0  0  0  0  0  0  0  0  0  0
   57.6827   24.5069   47.4640 H   0  0  0  0  0  0  0  0  0  0  0  0
   59.2986   26.0252   48.5366 H   0  0  0  0  0  0  0  0  0  0  0  0
   60.0800   28.2270   48.9290 H   0  0  0  0  0  0  0  0  0  0  0  0
   61.5700   30.0930   49.2030 H   0  0  0  0  0  0  0  0  0  0  0  0
   63.8702   30.9236   47.8456 H   0  0  0  0  0  0  0  0  0  0  0  0
   64.8365   33.0003   46.8893 H   0  0  0  0  0  0  0  0  0  0  0  0
   63.3098   34.8638   46.2045 H   0  0  0  0  0  0  0  0  0  0  0  0
   59.8874   32.5608   47.4447 H   0  0  0  0  0  0  0  0  0  0  0  0
   58.0686   29.1463   45.9072 H   0  0  0  0  0  0  0  0  0  0  0  0
   56.4462   27.6240   44.8258 H   0  0  0  0  0  0  0  0  0  0  0  0
   54.2660   25.7730   46.3710 H   0  0  0  0  0  0  0  0  0  0  0  0
   52.7075   24.3378   45.3825 H   0  0  0  0  0  0  0  0  0  0  0  0
  1  2  1  0
  2  3  2  0
  3  4  1  0
  4  5  2  0
  5  6  1  0
  6  7  2  0
  7  8  1  0
  8  9  2  0
  9 10  1  0
 10 11  1  0
 11 12  2  0
 11 13  1  0
 13 14  1  0
 14 15  2  0
 15 16  1  0
 16 17  2  0
 17 18  1  0
 18 19  1  0
 18 20  2  0
  9 21  1  0
 21 22  2  0
  5 23  1  0
 23 24  1  0
 24 25  2  0
 25  3  1  0
 22  6  1  0
 20 14  1  0
  1 26  1  0
  1 27  1  0
  1 28  1  0
  4 29  1  0
  7 30  1  0
  8 31  1  0
 10 32  1  0
 13 33  1  0
 15 34  1  0
 16 35  1  0
 17 36  1  0
 20 37  1  0
 21 38  1  0
 22 39  1  0
 23 40  1  0
 24 41  1  0
M  END
>  <smiles>  (34) 
CN=c1cc(-c2ccc(NC(=O)Nc3cccc(F)c3)cc2)[nH]cn1

>  <score_type>  (34) 
oracle

>  <origin>  (34) 
adg

>  <m_score__min__energy>  (34) 
-7.0700000000000003

>  <m_primary>  (34) 
energy

$$$$
34:0
     RDKit          3D

 34 36  0  0  1  0  0  0  0  0999 V2000
   55.5110   30.2320   44.4730 O   0  0  0  0  0  0  0  0  0  0  0  0
   56.9360   30.7790   44.3800 S   0  0  0  0  0  0  0  0  0  0  0  0
   57.0120   31.3310   42.9880 O   0  0  0  0  0  0  0  0  0  0  0  0
   57.0420   31.9420   45.6110 N   0  0  0  0  0  0  0  0  0  0  0  0
   57.8720   32.9090   45.6590 C   0  0  0  0  0  0  0  0  0  0  0  0
   58.1380   33.5770   44.5260 N   0  0  0  0  0  0  0  0  0  0  0  0
   59.0080   34.6040   44.5300 C   0  0  0  0  0  0  0  0  0  0  0  0
   59.6440   34.9920   45.6890 C   0  0  0  0  0  0  0  0  0  0  0  0
   59.3510   34.2890   46.8330 C   0  0  0  0  0  0  0  0  0  0  0  0
   59.8830   34.5630   47.9680 N   0  0  0  0  0  0  0  0  0  0  0  0
   61.1860   34.1020   48.3070 C   0  0  0  0  0  0  0  0  0  0  0  0
   61.5670   34.2060   49.6470 C   0  0  0  0  0  0  0  0  0  0  0  0
   62.8050   33.7890   50.0880 C   0  0  0  0  0  0  0  0  0  0  0  0
   63.6990   33.2520   49.1760 C   0  0  0  0  0  0  0  0  0  0  0  0
   65.2860   32.7160   49.7300 Cl  0  0  0  0  0  0  0  0  0  0  0  0
   63.3240   33.1470   47.8530 C   0  0  0  0  0  0  0  0  0  0  0  0
   62.0710   33.5700   47.4140 C   0  0  0  0  0  0  0  0  0  0  0  0
   58.4720   33.2560   46.8130 N   0  0  0  0  0  0  0  0  0  0  0  0
   57.9740   29.4050   44.5920 C   0  0  0  0  0  0  0  0  0  0  0  0
   57.9180   28.1230   44.2270 C   0  0  0  0  0  0  0  0  0  0  0  0
   58.8990   27.2650   44.5420 C   0  0  0  0  0  0  0  0  0  0  0  0
   59.9700   27.8390   45.2780 C   0  0  0  0  0  0  0  0  0  0  0  0
   59.5620   29.5620   45.5030 S   0  0  0  0  0  0  0  0  0  0  0  0
   57.6710   33.2960   43.6550 H   0  0  0  0  0  0  0  0  0  0  0  0
   59.2145   35.1421   43.5931 H   0  0  0  0  0  0  0  0  0  0  0  0
   60.3568   35.8298   45.6983 H   0  0  0  0  0  0  0  0  0  0  0  0
   60.8583   34.6332   50.3717 H   0  0  0  0  0  0  0  0  0  0  0  0
   63.0791   33.8814   51.1493 H   0  0  0  0  0  0  0  0  0  0  0  0
   64.0309   32.7191   47.1270 H   0  0  0  0  0  0  0  0  0  0  0  0
   61.7963   33.4757   46.3530 H   0  0  0  0  0  0  0  0  0  0  0  0
   58.2440   32.7130   47.6920 H   0  0  0  0  0  0  0  0  0  0  0  0
   57.0495   27.7626   43.6561 H   0  0  0  0  0  0  0  0  0  0  0  0
   58.8764   26.2036   44.2541 H   0  0  0  0  0  0  0  0  0  0  0  0
   60.8725   27.3234   45.6381 H   0  0  0  0  0  0  0  0  0  0  0  0
  1  2  2  0
  2  3  2  0
  2  4  1  0
  4  5  2  0
  5  6  1  0
  6  7  1  0
  7  8  2  0
  8  9  1  0
  9 10  2  0
 10 11  1  0
 11 12  2  0
 12 13  1  0
 13 14  2  0
 14 15  1  0
 14 16  1  0
 16 17  2  0
  9 18  1  0
  2 19  1  0
 19 20  2  0
 20 21  1  0
 21 22  2  0
 22 23  1  0
 18  5  1  0
 23 19  1  0
 17 11  1  0
  6 24  1  0
  7 25  1  0
  8 26  1  0
 12 27  1  0
 13 28  1  0
 16 29  1  0
 17 30  1  0
 18 31  1  0
 20 32  1  0
 21 33  1  0
 22 34  1  0
M  END
>  <smiles>  (35) 
O=S(=O)(N=c1[nH]ccc(=Nc2ccc(Cl)cc2)[nH]1)c1cccs1

>  <score_type>  (35) 
oracle

>  <origin>  (35) 
adg

>  <m_score__min__energy>  (35) 
-8.4499999999999993

>  <m_primary>  (35) 
energy

$$$$
35:0
     RDKit          3D

 40 42  0  0  0  0  0  0  0  0999 V2000
   56.3240   22.6490   48.1620 C   0  0  0  0  0  0  0  0  0  0  0  0
   57.3310   22.7440   47.1610 O   0  0  0  0  0  0  0  0  0  0  0  0
   57.0920   22.6680   45.7790 C   0  0  0  0  0  0  0  0  0  0  0  0
   57.0520   21.4330   45.0990 C   0  0  0  0  0  0  0  0  0  0  0  0
   56.8120   21.3910   43.7240 C   0  0  0  0  0  0  0  0  0  0  0  0
   56.6110   22.5740   43.0130 C   0  0  0  0  0  0  0  0  0  0  0  0
   56.6490   23.8040   43.6730 C   0  0  0  0  0  0  0  0  0  0  0  0
   56.8890   23.8590   45.0550 C   0  0  0  0  0  0  0  0  0  0  0  0
   56.9340   25.4170   45.8820 S   0  0  0  0  0  0  0  0  0  0  0  0
   55.5300   25.9330   46.0290 O   0  0  0  0  0  0  0  0  0  0  0  0
   57.5620   25.2340   47.2350 O   0  0  0  0  0  0  0  0  0  0  0  0
   57.8700   26.5560   44.9670 N   0  0  0  0  0  0  0  0  0  0  0  0
   57.6080   27.9620   44.8850 C   0  0  0  0  0  0  0  0  0  0  0  0
   57.3220   28.6060   43.6700 C   0  0  0  0  0  0  0  0  0  0  0  0
   57.0760   29.9800   43.6500 C   0  0  0  0  0  0  0  0  0  0  0  0
   57.1030   30.7070   44.8510 C   0  0  0  0  0  0  0  0  0  0  0  0
   56.8800   32.0910   44.8850 O   0  0  0  0  0  0  0  0  0  0  0  0
   57.7410   33.0400   45.4560 C   0  0  0  0  0  0  0  0  0  0  0  0
   58.4360   33.9810   44.6750 C   0  0  0  0  0  0  0  0  0  0  0  0
   59.2730   34.9210   45.2840 C   0  0  0  0  0  0  0  0  0  0  0  0
   59.4110   34.9370   46.6750 C   0  0  0  0  0  0  0  0  0  0  0  0
   58.7070   34.0180   47.4580 C   0  0  0  0  0  0  0  0  0  0  0  0
   57.8700   33.0770   46.8500 C   0  0  0  0  0  0  0  0  0  0  0  0
   57.3990   30.0620   46.0120 N   0  0  0  0  0  0  0  0  0  0  0  0
   57.6450   28.7260   46.0560 C   0  0  0  0  0  0  0  0  0  0  0  0
   56.7908   22.6930   49.1571 H   0  0  0  0  0  0  0  0  0  0  0  0
   55.6170   23.4844   48.0513 H   0  0  0  0  0  0  0  0  0  0  0  0
   55.7857   21.6961   48.0513 H   0  0  0  0  0  0  0  0  0  0  0  0
   57.2108   20.4973   45.6551 H   0  0  0  0  0  0  0  0  0  0  0  0
   56.7814   20.4238   43.2010 H   0  0  0  0  0  0  0  0  0  0  0  0
   56.4221   22.5380   41.9299 H   0  0  0  0  0  0  0  0  0  0  0  0
   56.4902   24.7340   43.1074 H   0  0  0  0  0  0  0  0  0  0  0  0
   57.2919   28.0279   42.7346 H   0  0  0  0  0  0  0  0  0  0  0  0
   56.8623   30.4901   42.6991 H   0  0  0  0  0  0  0  0  0  0  0  0
   58.3206   33.9774   43.5811 H   0  0  0  0  0  0  0  0  0  0  0  0
   59.8230   35.6481   44.6684 H   0  0  0  0  0  0  0  0  0  0  0  0
   60.0738   35.6731   47.1534 H   0  0  0  0  0  0  0  0  0  0  0  0
   58.8113   34.0349   48.5529 H   0  0  0  0  0  0  0  0  0  0  0  0
   57.3098   32.3618   47.4702 H   0  0  0  0  0  0  0  0  0  0  0  0
   57.8743   28.2432   47.0174 H   0  0  0  0  0  0  0  0  0  0  0  0
  1  2  1  0
  2  3  1  0
  3  4  2  0
  4  5  1  0
  5  6  2  0
  6  7  1  0
  7  8  2  0
  8  9  1  0
  9 10  2  0
  9 11  2  0
  9 12  1  0
 12 13  1  0
 13 14  2  0
 14 15  1  0
 15 16  2  0
 16 17  1  0
 17 18  1  0
 18 19  2  0
 19 20  1  0
 20 21  2  0
 21 22  1  0
 22 23  2  0
 16 24  1  0
 24 25  2  0
  8  3  1  0
 25 13  1  0
 23 18  1  0
  1 26  1  0
  1 27  1  0
  1 28  1  0
  4 29  1  0
  5 30  1  0
  6 31  1  0
  7 32  1  0
 14 33  1  0
 15 34  1  0
 19 35  1  0
 20 36  1  0
 21 37  1  0
 22 38  1  0
 23 39  1  0
 25 40  1  0
M  CHG  1  12  -1
M  END
>  <UniqueID>  (36) 
31

>  <SMILES>  (36) 
COc1ccccc1S(=O)(=O)[N-]c1ccc(Oc2ccccc2)nc1

>  <Energy>  (36) 
54.28390385366449

>  <Genealogy>  (36) 
COc1ccccc1S(=O)(=O)[N-]c1ccc(Oc2ccccc2)nc1 (protonated)
COc1ccccc1S(=O)(=O)[N-]c1ccc(Oc2ccccc2)nc1 (3D coordinates assigned)
COc1ccccc1S(=O)(=O)[N-]c1ccc(Oc2ccccc2)nc1 (optimized conformer: 54.28390385366449 kcal/mol)

>  <smiles>  (36) 
COc1ccccc1S(=O)(=O)Nc1ccc(Oc2ccccc2)nc1

>  <score_type>  (36) 
oracle

>  <origin>  (36) 
adg

>  <m_score__min__energy>  (36) 
-10.16

>  <m_primary>  (36) 
energy

$$$$
36:0
     RDKit          3D

 35 37  0  0  0  0  0  0  0  0999 V2000
   57.6095   32.4466   43.8005 H   0  0  0  0  0  0  0  0  0  0  0  0
   57.4900   31.4160   44.1660 C   0  0  0  0  0  0  0  0  0  0  0  0
   56.2740   30.8710   44.4410 N   0  0  0  0  0  0  0  0  0  0  0  0
   56.6080   29.6400   44.8460 C   0  0  0  0  0  0  0  0  0  0  0  0
   55.7630   28.6600   45.2440 N   0  0  0  0  0  0  0  0  0  0  0  0
   56.2930   27.4560   45.6320 C   0  0  0  0  0  0  0  0  0  0  0  0
   55.5290   26.4710   46.0030 N   0  0  0  0  0  0  0  0  0  0  0  0
   55.8190   25.0660   45.8930 C   0  0  0  0  0  0  0  0  0  0  0  0
   56.2820   24.3890   47.0220 C   0  0  0  0  0  0  0  0  0  0  0  0
   56.4347   24.9427   47.9601 H   0  0  0  0  0  0  0  0  0  0  0  0
   56.5570   23.0080   46.9800 C   0  0  0  0  0  0  0  0  0  0  0  0
   57.0410   22.3370   48.1140 O   0  0  0  0  0  0  0  0  0  0  0  0
   56.2350   21.8510   49.1820 C   0  0  0  0  0  0  0  0  0  0  0  0
   56.6937   22.1276   50.1428 H   0  0  0  0  0  0  0  0  0  0  0  0
   55.2305   22.2941   49.1142 H   0  0  0  0  0  0  0  0  0  0  0  0
   56.1580   20.7558   49.1142 H   0  0  0  0  0  0  0  0  0  0  0  0
   56.3370   22.2950   45.7720 C   0  0  0  0  0  0  0  0  0  0  0  0
   56.5870   20.9170   45.6210 O   0  0  0  0  0  0  0  0  0  0  0  0
   57.6890   20.1910   46.1550 C   0  0  0  0  0  0  0  0  0  0  0  0
   57.6480   20.2180   47.2539 H   0  0  0  0  0  0  0  0  0  0  0  0
   57.6412   19.1470   45.8119 H   0  0  0  0  0  0  0  0  0  0  0  0
   58.6294   20.6470   45.8119 H   0  0  0  0  0  0  0  0  0  0  0  0
   55.8360   22.9710   44.6470 C   0  0  0  0  0  0  0  0  0  0  0  0
   55.6130   22.2310   43.4740 O   0  0  0  0  0  0  0  0  0  0  0  0
   56.6410   21.7090   42.6390 C   0  0  0  0  0  0  0  0  0  0  0  0
   57.4482   21.2991   43.2639 H   0  0  0  0  0  0  0  0  0  0  0  0
   56.2279   20.9114   42.0040 H   0  0  0  0  0  0  0  0  0  0  0  0
   57.0412   22.5131   42.0040 H   0  0  0  0  0  0  0  0  0  0  0  0
   55.5670   24.3490   44.7160 C   0  0  0  0  0  0  0  0  0  0  0  0
   55.1551   24.8688   43.8384 H   0  0  0  0  0  0  0  0  0  0  0  0
   57.6520   27.2640   45.5910 N   0  0  0  0  0  0  0  0  0  0  0  0
   58.5000   28.2550   45.1870 C   0  0  0  0  0  0  0  0  0  0  0  0
   59.7440   28.0640   45.1600 O   0  0  0  0  0  0  0  0  0  0  0  0
   57.9450   29.4680   44.8100 C   0  0  0  0  0  0  0  0  0  0  0  0
   58.5470   30.5850   44.3790 N   0  0  0  0  0  0  0  0  0  0  0  0
  1  2  1  0
  2  3  2  0
  3  4  1  0
  4  5  1  0
  5  6  1  0
  6  7  2  0
  7  8  1  0
  8  9  2  0
  9 10  1  0
  9 11  1  0
 11 12  1  0
 12 13  1  0
 13 14  1  0
 13 15  1  0
 13 16  1  0
 11 17  2  0
 17 18  1  0
 18 19  1  0
 19 20  1  0
 19 21  1  0
 19 22  1  0
 17 23  1  0
 23 24  1  0
 24 25  1  0
 25 26  1  0
 25 27  1  0
 25 28  1  0
 23 29  2  0
 29 30  1  0
  6 31  1  0
 31 32  1  0
 32 33  2  0
 32 34  1  0
 34 35  1  0
 35  2  1  0
 34  4  2  0
 29  8  1  0
M  CHG  3   5  -1  31  -1  35  -1
M  END
>  <UniqueID>  (37) 
32

>  <SMILES>  (37) 
COc1cc(/N=c2/[n-]c(=O)c3[n-]cnc3[n-]2)cc(OC)c1OC

>  <Energy>  (37) 
83.76350899351846

>  <Genealogy>  (37) 
COc1cc(N=c2[n-]c(=O)c3[n-]cnc3[n-]2)cc(OC)c1OC (protonated)
COc1cc(/N=c2/[n-]c(=O)c3[n-]cnc3[n-]2)cc(OC)c1OC (cis-trans isomerization)
COc1cc(/N=c2/[n-]c(=O)c3[n-]cnc3[n-]2)cc(OC)c1OC (3D coordinates assigned)
COc1cc(/N=c2/[n-]c(=O)c3[n-]cnc3[n-]2)cc(OC)c1OC (optimized conformer: 83.76350899351846 kcal/mol)

>  <smiles>  (37) 
COc1cc(N=c2[nH]c(=O)c3[nH]cnc3[nH]2)cc(OC)c1OC

>  <score_type>  (37) 
oracle

>  <origin>  (37) 
adg

>  <m_score__min__energy>  (37) 
-10.300000000000001

>  <m_primary>  (37) 
energy

$$$$
37:0
     RDKit          3D

 25 26  0  0  0  0  0  0  0  0999 V2000
   55.1480   26.9240   45.9870 O   0  0  0  0  0  0  0  0  0  0  0  0
   56.4960   27.2700   45.9510 C   0  0  0  0  0  0  0  0  0  0  0  0
   57.4220   26.4640   46.6080 C   0  0  0  0  0  0  0  0  0  0  0  0
   58.7700   26.7960   46.5790 C   0  0  0  0  0  0  0  0  0  0  0  0
   59.1820   27.9370   45.8920 C   0  0  0  0  0  0  0  0  0  0  0  0
   58.2770   28.7380   45.2450 N   0  0  0  0  0  0  0  0  0  0  0  0
   58.7940   29.9160   44.5200 C   0  0  0  0  0  0  0  0  0  0  0  0
   58.3590   31.1930   45.1930 C   0  0  0  0  0  0  0  0  0  0  0  0
   58.5300   31.3550   46.5790 C   0  0  0  0  0  0  0  0  0  0  0  0
   58.1300   32.5390   47.2050 C   0  0  0  0  0  0  0  0  0  0  0  0
   57.5540   33.5680   46.4570 C   0  0  0  0  0  0  0  0  0  0  0  0
   57.3730   33.4140   45.0800 C   0  0  0  0  0  0  0  0  0  0  0  0
   57.7710   32.2310   44.4490 C   0  0  0  0  0  0  0  0  0  0  0  0
   56.9340   28.4170   45.2630 C   0  0  0  0  0  0  0  0  0  0  0  0
   55.8100   29.3500   44.4970 S   0  0  0  0  0  0  0  0  0  0  0  0
   57.0866   25.5666   47.1486 H   0  0  0  0  0  0  0  0  0  0  0  0
   59.5075   26.1632   47.0944 H   0  0  0  0  0  0  0  0  0  0  0  0
   60.2502   28.1987   45.8687 H   0  0  0  0  0  0  0  0  0  0  0  0
   59.8931   29.8744   44.5018 H   0  0  0  0  0  0  0  0  0  0  0  0
   58.3930   29.9033   43.4958 H   0  0  0  0  0  0  0  0  0  0  0  0
   58.9805   30.5465   47.1734 H   0  0  0  0  0  0  0  0  0  0  0  0
   58.2693   32.6605   48.2894 H   0  0  0  0  0  0  0  0  0  0  0  0
   57.2428   34.4998   46.9518 H   0  0  0  0  0  0  0  0  0  0  0  0
   56.9171   34.2240   44.4918 H   0  0  0  0  0  0  0  0  0  0  0  0
   57.6233   32.1121   43.3655 H   0  0  0  0  0  0  0  0  0  0  0  0
  1  2  1  0
  2  3  2  0
  3  4  1  0
  4  5  2  0
  5  6  1  0
  6  7  1  0
  7  8  1  0
  8  9  2  0
  9 10  1  0
 10 11  2  0
 11 12  1  0
 12 13  2  0
  6 14  1  0
 14 15  2  0
 14  2  1  0
 13  8  1  0
  3 16  1  0
  4 17  1  0
  5 18  1  0
  7 19  1  0
  7 20  1  0
  9 21  1  0
 10 22  1  0
 11 23  1  0
 12 24  1  0
 13 25  1  0
M  CHG  1   1  -1
M  END
>  <UniqueID>  (38) 
33

>  <SMILES>  (38) 
[O-]c1cccn(Cc2ccccc2)c1=S

>  <Energy>  (38) 
30.790985876748184

>  <Genealogy>  (38) 
[O-]c1cccn(Cc2ccccc2)c1=S (protonated)
[O-]c1cccn(Cc2ccccc2)c1=S (3D coordinates assigned)
[O-]c1cccn(Cc2ccccc2)c1=S (optimized conformer: 30.790985876748184 kcal/mol)

>  <smiles>  (38) 
Oc1cccn(Cc2ccccc2)c1=S

>  <score_type>  (38) 
oracle

>  <origin>  (38) 
adg

>  <m_score__min__energy>  (38) 
-9.6199999999999992

>  <m_primary>  (38) 
energy

$$$$
38:0
     RDKit          3D

 38 40  0  0  0  0  0  0  0  0999 V2000
   55.1410   29.6190   44.8390 O   0  0  0  0  0  0  0  0  0  0  0  0
   56.3450   29.3070   45.0310 C   0  0  0  0  0  0  0  0  0  0  0  0
   57.3670   30.2300   44.6290 N   0  0  0  0  0  0  0  0  0  0  0  0
   57.6810   31.4740   45.2720 C   0  0  0  0  0  0  0  0  0  0  0  0
   57.5250   32.7040   44.6110 C   0  0  0  0  0  0  0  0  0  0  0  0
   57.8430   33.8970   45.2650 C   0  0  0  0  0  0  0  0  0  0  0  0
   58.3320   33.8750   46.5730 C   0  0  0  0  0  0  0  0  0  0  0  0
   58.6140   35.0500   47.1890 F   0  0  0  0  0  0  0  0  0  0  0  0
   58.5210   32.6470   47.2330 C   0  0  0  0  0  0  0  0  0  0  0  0
   59.1170   32.5740   48.8940 S   0  0  0  0  0  0  0  0  0  0  0  0
   60.0670   31.4210   49.0670 O   0  0  0  0  0  0  0  0  0  0  0  0
   57.9480   32.3560   49.8140 O   0  0  0  0  0  0  0  0  0  0  0  0
   59.9090   34.0620   49.3330 N   0  0  0  0  0  0  0  0  0  0  0  0
   61.3180   33.8360   49.6760 C   0  0  0  0  0  0  0  0  0  0  0  0
   62.1510   33.6900   48.4410 C   0  0  0  0  0  0  0  0  0  0  0  0
   63.3830   33.0740   48.3660 C   0  0  0  0  0  0  0  0  0  0  0  0
   63.7640   33.1690   47.0450 C   0  0  0  0  0  0  0  0  0  0  0  0
   62.7440   33.8400   46.3990 C   0  0  0  0  0  0  0  0  0  0  0  0
   61.7960   34.1360   47.2580 O   0  0  0  0  0  0  0  0  0  0  0  0
   58.1950   31.4530   46.5730 C   0  0  0  0  0  0  0  0  0  0  0  0
   56.6610   27.9880   45.6210 C   0  0  0  0  0  0  0  0  0  0  0  0
   57.9550   27.6660   46.0530 C   0  0  0  0  0  0  0  0  0  0  0  0
   58.1840   26.3980   46.5910 C   0  0  0  0  0  0  0  0  0  0  0  0
   59.3330   26.0810   46.9960 O   0  0  0  0  0  0  0  0  0  0  0  0
   57.1680   25.5030   46.6730 N   0  0  0  0  0  0  0  0  0  0  0  0
   55.9220   25.8210   46.2350 C   0  0  0  0  0  0  0  0  0  0  0  0
   54.9940   24.9760   46.3130 O   0  0  0  0  0  0  0  0  0  0  0  0
   55.6780   27.0510   45.7110 N   0  0  0  0  0  0  0  0  0  0  0  0
   57.1518   32.7277   43.5765 H   0  0  0  0  0  0  0  0  0  0  0  0
   57.7076   34.8580   44.7473 H   0  0  0  0  0  0  0  0  0  0  0  0
   59.8860   34.6730   48.4850 H   0  0  0  0  0  0  0  0  0  0  0  0
   61.6879   34.6909   50.2611 H   0  0  0  0  0  0  0  0  0  0  0  0
   61.3928   32.9083   50.2624 H   0  0  0  0  0  0  0  0  0  0  0  0
   63.9437   32.6053   49.1881 H   0  0  0  0  0  0  0  0  0  0  0  0
   64.6928   32.7875   46.5958 H   0  0  0  0  0  0  0  0  0  0  0  0
   62.7283   34.0886   45.3276 H   0  0  0  0  0  0  0  0  0  0  0  0
   58.3450   30.4903   47.0836 H   0  0  0  0  0  0  0  0  0  0  0  0
   58.7729   28.3969   45.9699 H   0  0  0  0  0  0  0  0  0  0  0  0
  1  2  2  0
  2  3  1  0
  3  4  1  0
  4  5  2  0
  5  6  1  0
  6  7  2  0
  7  8  1  0
  7  9  1  0
  9 10  1  0
 10 11  2  0
 10 12  2  0
 10 13  1  0
 13 14  1  0
 14 15  1  0
 15 16  2  0
 16 17  1  0
 17 18  2  0
 18 19  1  0
  9 20  2  0
  2 21  1  0
 21 22  2  0
 22 23  1  0
 23 24  2  0
 23 25  1  0
 25 26  1  0
 26 27  2  0
 26 28  1  0
 20  4  1  0
 28 21  1  0
 19 15  1  0
  5 29  1  0
  6 30  1  0
 13 31  1  0
 14 32  1  0
 14 33  1  0
 16 34  1  0
 17 35  1  0
 18 36  1  0
 20 37  1  0
 22 38  1  0
M  CHG  3   3  -1  25  -1  28  -1
M  END
>  <UniqueID>  (39) 
34

>  <SMILES>  (39) 
O=C([N-]c1ccc(F)c(S(=O)(=O)NCc2ccco2)c1)c1cc(=O)[n-]c(=O)[n-]1

>  <Energy>  (39) 
71.92017975887258

>  <Genealogy>  (39) 
O=C([N-]c1ccc(F)c(S(=O)(=O)NCc2ccco2)c1)c1cc(=O)[n-]c(=O)[n-]1 (protonated)
O=C([N-]c1ccc(F)c(S(=O)(=O)NCc2ccco2)c1)c1cc(=O)[n-]c(=O)[n-]1 (3D coordinates assigned)
O=C([N-]c1ccc(F)c(S(=O)(=O)NCc2ccco2)c1)c1cc(=O)[n-]c(=O)[n-]1 (optimized conformer: 71.92017975887258 kcal/mol)

>  <smiles>  (39) 
O=C(Nc1ccc(F)c(S(=O)(=O)NCc2ccco2)c1)c1cc(=O)[nH]c(=O)[nH]1

>  <score_type>  (39) 
oracle

>  <origin>  (39) 
adg

>  <m_score__min__energy>  (39) 
-13.5

>  <m_primary>  (39) 
energy

$$$$
39:0
     RDKit          3D

 39 42  0  0  0  0  0  0  0  0999 V2000
   55.1590   25.3810   46.7470 H   0  0  0  0  0  0  0  0  0  0  0  0
   59.3580   27.6840   47.5250 N   0  0  0  0  0  0  0  0  0  0  0  0
   58.2710   27.8100   46.8200 C   0  0  0  0  0  0  0  0  0  0  0  0
   57.3620   26.8030   46.7350 N   0  0  0  0  0  0  0  0  0  0  0  0
   56.2380   26.9540   45.9910 C   0  0  0  0  0  0  0  0  0  0  0  0
   55.3860   25.9800   45.9210 N   0  0  0  0  0  0  0  0  0  0  0  0
   60.1380   28.7460   48.0950 C   0  0  0  0  0  0  0  0  0  0  0  0
   60.7400   29.7200   47.3790 N   0  0  0  0  0  0  0  0  0  0  0  0
   61.3410   30.4710   48.3240 C   0  0  0  0  0  0  0  0  0  0  0  0
   62.1450   31.6810   48.0240 C   0  0  0  0  0  0  0  0  0  0  0  0
   63.3240   31.9360   48.7480 C   0  0  0  0  0  0  0  0  0  0  0  0
   63.6436   31.2358   49.5339 H   0  0  0  0  0  0  0  0  0  0  0  0
   64.0930   33.0720   48.4770 C   0  0  0  0  0  0  0  0  0  0  0  0
   65.0133   33.2617   49.0490 H   0  0  0  0  0  0  0  0  0  0  0  0
   63.6940   33.9660   47.4810 C   0  0  0  0  0  0  0  0  0  0  0  0
   64.2994   34.8596   47.2690 H   0  0  0  0  0  0  0  0  0  0  0  0
   62.5270   33.7250   46.7550 C   0  0  0  0  0  0  0  0  0  0  0  0
   62.2142   34.4298   45.9706 H   0  0  0  0  0  0  0  0  0  0  0  0
   61.7540   32.5910   47.0210 C   0  0  0  0  0  0  0  0  0  0  0  0
   60.8354   32.4078   46.4443 H   0  0  0  0  0  0  0  0  0  0  0  0
   61.0800   29.9240   49.5680 C   0  0  0  0  0  0  0  0  0  0  0  0
   61.4343   30.3113   50.5347 H   0  0  0  0  0  0  0  0  0  0  0  0
   60.3350   28.8620   49.3870 O   0  0  0  0  0  0  0  0  0  0  0  0
   58.0450   28.9690   46.1570 N   0  0  0  0  0  0  0  0  0  0  0  0
   56.9170   29.1390   45.4170 C   0  0  0  0  0  0  0  0  0  0  0  0
   56.7020   30.2420   44.7580 N   0  0  0  0  0  0  0  0  0  0  0  0
   57.4010   31.4900   44.9120 C   0  0  0  0  0  0  0  0  0  0  0  0
   57.7640   32.2840   43.8060 C   0  0  0  0  0  0  0  0  0  0  0  0
   57.4870   31.9683   42.7893 H   0  0  0  0  0  0  0  0  0  0  0  0
   58.4760   33.4730   43.9980 C   0  0  0  0  0  0  0  0  0  0  0  0
   58.7442   34.0980   43.1335 H   0  0  0  0  0  0  0  0  0  0  0  0
   58.8470   33.8680   45.2860 C   0  0  0  0  0  0  0  0  0  0  0  0
   59.3978   34.8083   45.4361 H   0  0  0  0  0  0  0  0  0  0  0  0
   58.5180   33.0680   46.3830 C   0  0  0  0  0  0  0  0  0  0  0  0
   58.8184   33.3746   47.3958 H   0  0  0  0  0  0  0  0  0  0  0  0
   57.8080   31.8790   46.1960 C   0  0  0  0  0  0  0  0  0  0  0  0
   57.5670   31.2444   47.0615 H   0  0  0  0  0  0  0  0  0  0  0  0
   56.0160   28.1220   45.3270 N   0  0  0  0  0  0  0  0  0  0  0  0
   55.1530   28.2440   44.7490 H   0  0  0  0  0  0  0  0  0  0  0  0
  1  2  1  0
  2  3  2  0
  3  4  1  0
  4  5  1  0
  5  6  2  0
  6  7  1  0
  7  8  2  0
  8  9  1  0
  9 10  1  0
 10 11  2  0
 11 12  1  0
 11 13  1  0
 13 14  1  0
 13 15  2  0
 15 16  1  0
 15 17  1  0
 17 18  1  0
 17 19  2  0
 19 20  1  0
  9 21  2  0
 21 22  1  0
 21 23  1  0
  5 24  1  0
 24 25  1  0
 25 26  2  3
 26 27  1  0
 27 28  2  0
 28 29  1  0
 28 30  1  0
 30 31  1  0
 30 32  2  0
 32 33  1  0
 32 34  1  0
 34 35  1  0
 34 36  2  0
 36 37  1  0
 25 38  1  0
 38 39  1  0
 38  3  1  0
 23  7  1  0
 36 27  1  0
 19 10  1  0
M  CHG  2   4  -1  24  -1
M  END
>  <UniqueID>  (40) 
35

>  <SMILES>  (40) 
[H]/N=c1/[n-]/c(=N\c2nc(-c3ccccc3)co2)[n-]c(=Nc2ccccc2)[nH]1

>  <Energy>  (40) 
84.16687002533692

>  <Genealogy>  (40) 
N=c1[n-]c(=Nc2nc(-c3ccccc3)co2)[n-]c(=Nc2ccccc2)[nH]1 (protonated)
[H]/N=c1/[n-]/c(=N\c2nc(-c3ccccc3)co2)[n-]c(=Nc2ccccc2)[nH]1 (cis-trans isomerization)
[H]/N=c1/[n-]/c(=N\c2nc(-c3ccccc3)co2)[n-]c(=Nc2ccccc2)[nH]1 (3D coordinates assigned)
[H]/N=c1/[n-]/c(=N\c2nc(-c3ccccc3)co2)[n-]c(=Nc2ccccc2)[nH]1 (optimized conformer: 84.16687002533692 kcal/mol)

>  <smiles>  (40) 
N=c1[nH]c(=Nc2ccccc2)[nH]c(=Nc2nc(-c3ccccc3)co2)[nH]1

>  <score_type>  (40) 
oracle

>  <origin>  (40) 
adg

>  <m_score__min__energy>  (40) 
-11.83

>  <m_primary>  (40) 
energy

$$$$
40:0
     RDKit          3D

 45 47  0  0  0  0  0  0  0  0999 V2000
   55.1500   29.4180   44.8480 N   0  0  0  0  0  0  0  0  0  0  0  0
   56.8500   29.1930   45.0750 S   0  0  0  0  0  0  0  0  0  0  0  0
   57.5240   29.1720   43.7310 O   0  0  0  0  0  0  0  0  0  0  0  0
   57.3740   30.3470   45.8850 O   0  0  0  0  0  0  0  0  0  0  0  0
   57.1600   27.6650   45.9190 C   0  0  0  0  0  0  0  0  0  0  0  0
   56.2840   26.5870   45.7090 C   0  0  0  0  0  0  0  0  0  0  0  0
   56.4630   25.3830   46.3930 C   0  0  0  0  0  0  0  0  0  0  0  0
   57.5160   25.2390   47.2950 C   0  0  0  0  0  0  0  0  0  0  0  0
   58.4050   26.2940   47.5060 C   0  0  0  0  0  0  0  0  0  0  0  0
   58.2480   27.5070   46.8150 C   0  0  0  0  0  0  0  0  0  0  0  0
   59.2350   28.5810   47.0450 C   0  0  0  0  0  0  0  0  0  0  0  0
   59.4080   29.1140   48.3310 C   0  0  0  0  0  0  0  0  0  0  0  0
   60.3280   30.1410   48.5480 C   0  0  0  0  0  0  0  0  0  0  0  0
   61.0830   30.6590   47.4810 C   0  0  0  0  0  0  0  0  0  0  0  0
   62.0530   31.7960   47.7150 C   0  0  0  0  0  0  0  0  0  0  0  0
   61.7410   32.5750   48.9280 N   0  0  0  0  0  0  0  0  0  0  0  0
   61.5270   34.0160   48.6880 C   0  0  0  0  0  0  0  0  0  0  0  0
   60.0430   34.4340   48.7620 C   0  0  0  0  0  0  0  0  0  0  0  0
   59.3090   34.2030   47.4740 C   0  0  0  0  0  0  0  0  0  0  0  0
   58.3210   33.2490   47.2550 C   0  0  0  0  0  0  0  0  0  0  0  0
   57.8700   33.2150   45.9300 C   0  0  0  0  0  0  0  0  0  0  0  0
   58.5130   34.1230   45.0980 C   0  0  0  0  0  0  0  0  0  0  0  0
   59.6440   34.9690   46.0140 S   0  0  0  0  0  0  0  0  0  0  0  0
   60.9430   30.0890   46.2030 C   0  0  0  0  0  0  0  0  0  0  0  0
   60.0240   29.0590   45.9870 C   0  0  0  0  0  0  0  0  0  0  0  0
   54.7010   29.3410   45.7880 H   0  0  0  0  0  0  0  0  0  0  0  0
   55.4499   26.6924   44.9996 H   0  0  0  0  0  0  0  0  0  0  0  0
   55.7711   24.5456   46.2196 H   0  0  0  0  0  0  0  0  0  0  0  0
   57.6464   24.2930   47.8410 H   0  0  0  0  0  0  0  0  0  0  0  0
   59.2346   26.1748   48.2185 H   0  0  0  0  0  0  0  0  0  0  0  0
   58.8166   28.7213   49.1713 H   0  0  0  0  0  0  0  0  0  0  0  0
   60.4633   30.5480   49.5609 H   0  0  0  0  0  0  0  0  0  0  0  0
   63.0656   31.3784   47.8166 H   0  0  0  0  0  0  0  0  0  0  0  0
   61.9763   32.4780   46.8554 H   0  0  0  0  0  0  0  0  0  0  0  0
   62.5220   32.4650   49.6160 H   0  0  0  0  0  0  0  0  0  0  0  0
   60.8900   32.1670   49.3790 H   0  0  0  0  0  0  0  0  0  0  0  0
   62.0876   34.5831   49.4457 H   0  0  0  0  0  0  0  0  0  0  0  0
   61.8754   34.2313   47.6671 H   0  0  0  0  0  0  0  0  0  0  0  0
   59.5527   33.8508   49.5554 H   0  0  0  0  0  0  0  0  0  0  0  0
   60.0130   35.5135   48.9713 H   0  0  0  0  0  0  0  0  0  0  0  0
   57.9329   32.5876   48.0436 H   0  0  0  0  0  0  0  0  0  0  0  0
   57.0806   32.5333   45.5805 H   0  0  0  0  0  0  0  0  0  0  0  0
   58.3168   34.2648   44.0250 H   0  0  0  0  0  0  0  0  0  0  0  0
   61.5600   30.4558   45.3695 H   0  0  0  0  0  0  0  0  0  0  0  0
   59.9183   28.6208   44.9836 H   0  0  0  0  0  0  0  0  0  0  0  0
  1  2  1  0
  2  3  2  0
  2  4  2  0
  2  5  1  0
  5  6  2  0
  6  7  1  0
  7  8  2  0
  8  9  1  0
  9 10  2  0
 10 11  1  0
 11 12  2  0
 12 13  1  0
 13 14  2  0
 14 15  1  0
 15 16  1  0
 16 17  1  0
 17 18  1  0
 18 19  1  0
 19 20  2  0
 20 21  1  0
 21 22  2  0
 22 23  1  0
 14 24  1  0
 24 25  2  0
 10  5  1  0
 25 11  1  0
 23 19  1  0
  1 26  1  0
  6 27  1  0
  7 28  1  0
  8 29  1  0
  9 30  1  0
 12 31  1  0
 13 32  1  0
 15 33  1  0
 15 34  1  0
 16 35  1  0
 16 36  1  0
 17 37  1  0
 17 38  1  0
 18 39  1  0
 18 40  1  0
 20 41  1  0
 21 42  1  0
 22 43  1  0
 24 44  1  0
 25 45  1  0
M  CHG  2   1  -1  16   1
M  END
>  <UniqueID>  (41) 
36

>  <SMILES>  (41) 
[NH-]S(=O)(=O)c1ccccc1-c1ccc(C[NH2+]CCc2cccs2)cc1

>  <Energy>  (41) 
79.982993099775

>  <Genealogy>  (41) 
[NH-]S(=O)(=O)c1ccccc1-c1ccc(C[NH2+]CCc2cccs2)cc1 (protonated)
[NH-]S(=O)(=O)c1ccccc1-c1ccc(C[NH2+]CCc2cccs2)cc1 (3D coordinates assigned)
[NH-]S(=O)(=O)c1ccccc1-c1ccc(C[NH2+]CCc2cccs2)cc1 (optimized conformer: 79.982993099775 kcal/mol)

>  <smiles>  (41) 
NS(=O)(=O)c1ccccc1-c1ccc(CNCCc2cccs2)cc1

>  <score_type>  (41) 
oracle

>  <origin>  (41) 
adg

>  <m_score__min__energy>  (41) 
-9.4700000000000006

>  <m_primary>  (41) 
energy

$$$$
41:0
     RDKit          3D

 42 45  0  0  0  0  0  0  0  0999 V2000
   58.4590   31.0580   47.0540 C   0  0  0  0  0  0  0  0  0  0  0  0
   58.4180   30.0790   46.1250 C   0  0  0  0  0  0  0  0  0  0  0  0
   58.9920   28.7310   46.3860 C   0  0  0  0  0  0  0  0  0  0  0  0
   60.2000   28.3540   45.7750 C   0  0  0  0  0  0  0  0  0  0  0  0
   60.7440   27.0880   46.0090 C   0  0  0  0  0  0  0  0  0  0  0  0
   60.0930   26.1930   46.8620 C   0  0  0  0  0  0  0  0  0  0  0  0
   58.9010   26.5660   47.4890 C   0  0  0  0  0  0  0  0  0  0  0  0
   58.3540   27.8310   47.2590 C   0  0  0  0  0  0  0  0  0  0  0  0
   57.7940   30.3420   44.8000 C   0  0  0  0  0  0  0  0  0  0  0  0
   58.2310   31.4270   44.0160 C   0  0  0  0  0  0  0  0  0  0  0  0
   57.6580   31.6730   42.7650 C   0  0  0  0  0  0  0  0  0  0  0  0
   56.6480   30.8390   42.2800 C   0  0  0  0  0  0  0  0  0  0  0  0
   56.2110   29.7540   43.0440 C   0  0  0  0  0  0  0  0  0  0  0  0
   56.7790   29.5040   44.2970 C   0  0  0  0  0  0  0  0  0  0  0  0
   59.1720   32.3430   46.8710 C   0  0  0  0  0  0  0  0  0  0  0  0
   58.4030   33.4770   46.5720 C   0  0  0  0  0  0  0  0  0  0  0  0
   59.0140   34.7060   46.3210 C   0  0  0  0  0  0  0  0  0  0  0  0
   60.4020   34.8250   46.3780 C   0  0  0  0  0  0  0  0  0  0  0  0
   61.1940   33.7180   46.7110 C   0  0  0  0  0  0  0  0  0  0  0  0
   62.5890   33.8500   46.7890 C   0  0  0  0  0  0  0  0  0  0  0  0
   63.3800   32.7580   47.1490 C   0  0  0  0  0  0  0  0  0  0  0  0
   62.7870   31.5310   47.4460 C   0  0  0  0  0  0  0  0  0  0  0  0
   61.4000   31.3830   47.3730 C   0  0  0  0  0  0  0  0  0  0  0  0
   60.5830   32.4640   46.9810 C   0  0  0  0  0  0  0  0  0  0  0  0
   57.9308   30.8910   48.0043 H   0  0  0  0  0  0  0  0  0  0  0  0
   60.7200   29.0587   45.1094 H   0  0  0  0  0  0  0  0  0  0  0  0
   61.6856   26.7959   45.5211 H   0  0  0  0  0  0  0  0  0  0  0  0
   60.5189   25.1945   47.0401 H   0  0  0  0  0  0  0  0  0  0  0  0
   58.3926   25.8625   48.1647 H   0  0  0  0  0  0  0  0  0  0  0  0
   57.4210   28.1243   47.7624 H   0  0  0  0  0  0  0  0  0  0  0  0
   59.0286   32.0854   44.3905 H   0  0  0  0  0  0  0  0  0  0  0  0
   58.0032   32.5252   42.1612 H   0  0  0  0  0  0  0  0  0  0  0  0
   56.1966   31.0365   41.2965 H   0  0  0  0  0  0  0  0  0  0  0  0
   55.4186   29.0952   42.6591 H   0  0  0  0  0  0  0  0  0  0  0  0
   56.4313   28.6478   44.8937 H   0  0  0  0  0  0  0  0  0  0  0  0
   57.3066   33.3967   46.5350 H   0  0  0  0  0  0  0  0  0  0  0  0
   58.3983   35.5844   46.0772 H   0  0  0  0  0  0  0  0  0  0  0  0
   60.8777   35.7927   46.1605 H   0  0  0  0  0  0  0  0  0  0  0  0
   63.0609   34.8182   46.5655 H   0  0  0  0  0  0  0  0  0  0  0  0
   64.4736   32.8652   47.1986 H   0  0  0  0  0  0  0  0  0  0  0  0
   63.4143   30.6762   47.7390 H   0  0  0  0  0  0  0  0  0  0  0  0
   60.9409   30.4152   47.6233 H   0  0  0  0  0  0  0  0  0  0  0  0
  1  2  2  3
  2  3  1  0
  3  4  2  0
  4  5  1  0
  5  6  2  0
  6  7  1  0
  7  8  2  0
  2  9  1  0
  9 10  2  0
 10 11  1  0
 11 12  2  0
 12 13  1  0
 13 14  2  0
  1 15  1  0
 15 16  2  0
 16 17  1  0
 17 18  2  0
 18 19  1  0
 19 20  2  0
 20 21  1  0
 21 22  2  0
 22 23  1  0
 23 24  2  0
  8  3  1  0
 14  9  1  0
 24 15  1  0
 24 19  1  0
  1 25  1  0
  4 26  1  0
  5 27  1  0
  6 28  1  0
  7 29  1  0
  8 30  1  0
 10 31  1  0
 11 32  1  0
 12 33  1  0
 13 34  1  0
 14 35  1  0
 16 36  1  0
 17 37  1  0
 18 38  1  0
 20 39  1  0
 21 40  1  0
 22 41  1  0
 23 42  1  0
M  END
>  <UniqueID>  (42) 
37

>  <SMILES>  (42) 
C(=C(c1ccccc1)c1ccccc1)c1cccc2ccccc12

>  <Energy>  (42) 
67.30553669995126

>  <Genealogy>  (42) 
C(=C(c1ccccc1)c1ccccc1)c1cccc2ccccc12 (3D coordinates assigned)
C(=C(c1ccccc1)c1ccccc1)c1cccc2ccccc12 (optimized conformer: 67.30553669995126 kcal/mol)

>  <smiles>  (42) 
C(=C(c1ccccc1)c1ccccc1)c1cccc2ccccc12

>  <score_type>  (42) 
oracle

>  <origin>  (42) 
adg

>  <m_score__min__energy>  (42) 
-8.7699999999999996

>  <m_primary>  (42) 
energy

$$$$
42:0
     RDKit          3D

 55 59  0  0  0  0  0  0  0  0999 V2000
   57.3980   33.1480   47.2820 O   0  0  0  0  0  0  0  0  0  0  0  0
   58.5280   33.5690   46.9050 C   0  0  0  0  0  0  0  0  0  0  0  0
   58.6230   34.4160   45.7950 O   0  0  0  0  0  0  0  0  0  0  0  0
   58.6690   33.9300   44.4570 C   0  0  0  0  0  0  0  0  0  0  0  0
   57.3930   33.1500   44.1570 C   0  0  0  0  0  0  0  0  0  0  0  0
   57.7020   31.8110   43.7770 O   0  0  0  0  0  0  0  0  0  0  0  0
   57.0130   30.6870   44.2480 C   0  0  0  0  0  0  0  0  0  0  0  0
   55.6420   30.5210   44.3740 C   0  0  0  0  0  0  0  0  0  0  0  0
   55.3960   29.3110   44.8280 O   0  0  0  0  0  0  0  0  0  0  0  0
   56.5410   28.6890   45.0010 C   0  0  0  0  0  0  0  0  0  0  0  0
   56.6530   27.3800   45.4540 O   0  0  0  0  0  0  0  0  0  0  0  0
   57.5970   29.5110   44.6640 C   0  0  0  0  0  0  0  0  0  0  0  0
   59.0540   29.1620   44.6410 C   0  0  0  0  0  0  0  0  0  0  0  0
   59.4990   28.7060   46.0040 C   0  0  0  0  0  0  0  0  0  0  0  0
   59.3150   29.5350   47.1220 C   0  0  0  0  0  0  0  0  0  0  0  0
   59.6940   29.0950   48.3940 C   0  0  0  0  0  0  0  0  0  0  0  0
   60.2510   27.8240   48.5590 C   0  0  0  0  0  0  0  0  0  0  0  0
   60.4250   26.9890   47.4530 C   0  0  0  0  0  0  0  0  0  0  0  0
   60.0470   27.4240   46.1790 C   0  0  0  0  0  0  0  0  0  0  0  0
   59.7520   33.1710   47.6350 C   0  0  0  0  0  0  0  0  0  0  0  0
   59.6560   32.4760   48.8490 C   0  0  0  0  0  0  0  0  0  0  0  0
   60.8060   32.0880   49.5410 C   0  0  0  0  0  0  0  0  0  0  0  0
   62.0860   32.3830   49.0300 C   0  0  0  0  0  0  0  0  0  0  0  0
   62.1830   33.1130   47.8260 C   0  0  0  0  0  0  0  0  0  0  0  0
   61.0240   33.4820   47.1280 C   0  0  0  0  0  0  0  0  0  0  0  0
   63.5340   33.4130   47.2250 C   0  0  0  0  0  0  0  0  0  0  0  0
   64.5570   33.4490   48.2200 O   0  0  0  0  0  0  0  0  0  0  0  0
   64.5450   32.6000   49.3290 C   0  0  0  0  0  0  0  0  0  0  0  0
   65.7360   32.3550   50.0210 C   0  0  0  0  0  0  0  0  0  0  0  0
   65.7450   31.4830   51.1110 C   0  0  0  0  0  0  0  0  0  0  0  0
   64.5650   30.8550   51.5120 C   0  0  0  0  0  0  0  0  0  0  0  0
   63.3660   31.1110   50.8390 C   0  0  0  0  0  0  0  0  0  0  0  0
   63.3390   32.0080   49.7490 C   0  0  0  0  0  0  0  0  0  0  0  0
   58.7529   34.7779   43.7613 H   0  0  0  0  0  0  0  0  0  0  0  0
   59.5403   33.2696   44.3358 H   0  0  0  0  0  0  0  0  0  0  0  0
   56.7592   33.1337   45.0559 H   0  0  0  0  0  0  0  0  0  0  0  0
   56.8634   33.6412   43.3274 H   0  0  0  0  0  0  0  0  0  0  0  0
   54.8823   31.2792   44.1331 H   0  0  0  0  0  0  0  0  0  0  0  0
   56.5530   26.6040   44.8110 H   0  0  0  0  0  0  0  0  0  0  0  0
   59.2229   28.3539   43.9141 H   0  0  0  0  0  0  0  0  0  0  0  0
   59.6325   30.0522   44.3530 H   0  0  0  0  0  0  0  0  0  0  0  0
   58.8713   30.5337   46.9969 H   0  0  0  0  0  0  0  0  0  0  0  0
   59.5535   29.7504   49.2662 H   0  0  0  0  0  0  0  0  0  0  0  0
   60.5524   27.4812   49.5598 H   0  0  0  0  0  0  0  0  0  0  0  0
   60.8602   25.9873   47.5844 H   0  0  0  0  0  0  0  0  0  0  0  0
   60.1790   26.7608   45.3114 H   0  0  0  0  0  0  0  0  0  0  0  0
   58.6651   32.2338   49.2607 H   0  0  0  0  0  0  0  0  0  0  0  0
   60.7115   31.5469   50.4941 H   0  0  0  0  0  0  0  0  0  0  0  0
   61.1123   34.0208   46.1731 H   0  0  0  0  0  0  0  0  0  0  0  0
   63.7787   32.6322   46.4899 H   0  0  0  0  0  0  0  0  0  0  0  0
   63.4851   34.4024   46.7468 H   0  0  0  0  0  0  0  0  0  0  0  0
   66.6663   32.8501   49.7058 H   0  0  0  0  0  0  0  0  0  0  0  0
   66.6822   31.2908   51.6539 H   0  0  0  0  0  0  0  0  0  0  0  0
   64.5780   30.1557   52.3610 H   0  0  0  0  0  0  0  0  0  0  0  0
   62.4401   30.6114   51.1602 H   0  0  0  0  0  0  0  0  0  0  0  0
  1  2  2  0
  2  3  1  0
  3  4  1  0
  4  5  1  0
  5  6  1  0
  6  7  1  0
  7  8  2  0
  8  9  1  0
  9 10  1  0
 10 11  1  0
 10 12  2  0
 12 13  1  0
 13 14  1  0
 14 15  2  0
 15 16  1  0
 16 17  2  0
 17 18  1  0
 18 19  2  0
  2 20  1  0
 20 21  2  0
 21 22  1  0
 22 23  2  0
 23 24  1  0
 24 25  2  0
 24 26  1  0
 26 27  1  0
 27 28  1  0
 28 29  2  0
 29 30  1  0
 30 31  2  0
 31 32  1  0
 32 33  2  0
 12  7  1  0
 19 14  1  0
 25 20  1  0
 33 28  1  0
 33 23  1  0
  4 34  1  0
  4 35  1  0
  5 36  1  0
  5 37  1  0
  8 38  1  0
 11 39  1  0
 13 40  1  0
 13 41  1  0
 15 42  1  0
 16 43  1  0
 17 44  1  0
 18 45  1  0
 19 46  1  0
 21 47  1  0
 22 48  1  0
 25 49  1  0
 26 50  1  0
 26 51  1  0
 29 52  1  0
 30 53  1  0
 31 54  1  0
 32 55  1  0
M  END
>  <UniqueID>  (43) 
38

>  <SMILES>  (43) 
O=C(OCCOc1coc(O)c1Cc1ccccc1)c1ccc2c(c1)COc1ccccc1-2

>  <Energy>  (43) 
89.76401296996569

>  <Genealogy>  (43) 
O=C(OCCOc1coc(O)c1Cc1ccccc1)c1ccc2c(c1)COc1ccccc1-2 (3D coordinates assigned)
O=C(OCCOc1coc(O)c1Cc1ccccc1)c1ccc2c(c1)COc1ccccc1-2 (nonaromatic ring conformer: 89.76401296996569 kcal/mol)

>  <smiles>  (43) 
O=C(OCCOc1coc(O)c1Cc1ccccc1)c1ccc2c(c1)COc1ccccc1-2

>  <score_type>  (43) 
oracle

>  <origin>  (43) 
adg

>  <m_score__min__energy>  (43) 
-8.8399999999999999

>  <m_primary>  (43) 
energy

$$$$
43:0
     RDKit          3D

 35 37  0  0  0  0  0  0  0  0999 V2000
   57.2901   25.7946   45.9595 H   0  0  0  0  0  0  0  0  0  0  0  0
   56.6310   26.6750   45.9350 C   0  0  0  0  0  0  0  0  0  0  0  0
   55.3900   26.5160   46.0710 O   0  0  0  0  0  0  0  0  0  0  0  0
   57.2260   28.0160   45.7430 C   0  0  0  0  0  0  0  0  0  0  0  0
   58.5740   28.2060   46.0810 C   0  0  0  0  0  0  0  0  0  0  0  0
   59.1521   27.3673   46.4960 H   0  0  0  0  0  0  0  0  0  0  0  0
   59.1970   29.4530   45.8970 C   0  0  0  0  0  0  0  0  0  0  0  0
   60.6120   29.6430   46.2850 C   0  0  0  0  0  0  0  0  0  0  0  0
   61.3707   29.0651   45.7369 H   0  0  0  0  0  0  0  0  0  0  0  0
   61.0410   30.4660   47.2540 C   0  0  0  0  0  0  0  0  0  0  0  0
   62.0965   30.7744   47.2236 H   0  0  0  0  0  0  0  0  0  0  0  0
   60.2130   30.9920   48.3580 C   0  0  0  0  0  0  0  0  0  0  0  0
   58.9450   30.1830   49.1450 S   0  0  0  0  0  0  0  0  0  0  0  0
   58.6840   31.3860   50.2830 C   0  0  0  0  0  0  0  0  0  0  0  0
   57.7410   31.4180   51.3070 C   0  0  0  0  0  0  0  0  0  0  0  0
   57.0326   30.5885   51.4488 H   0  0  0  0  0  0  0  0  0  0  0  0
   57.7190   32.5370   52.1530 C   0  0  0  0  0  0  0  0  0  0  0  0
   56.9846   32.5910   52.9702 H   0  0  0  0  0  0  0  0  0  0  0  0
   58.6330   33.5920   51.9610 C   0  0  0  0  0  0  0  0  0  0  0  0
   58.6073   34.4654   52.6292 H   0  0  0  0  0  0  0  0  0  0  0  0
   59.5770   33.5360   50.9220 C   0  0  0  0  0  0  0  0  0  0  0  0
   60.2929   34.3574   50.7710 H   0  0  0  0  0  0  0  0  0  0  0  0
   59.5900   32.4180   50.0840 C   0  0  0  0  0  0  0  0  0  0  0  0
   60.4620   32.1990   49.0120 C   0  0  0  0  0  0  0  0  0  0  0  0
   61.2561   32.9009   48.7174 H   0  0  0  0  0  0  0  0  0  0  0  0
   58.4500   30.5420   45.4160 C   0  0  0  0  0  0  0  0  0  0  0  0
   59.0840   31.7880   45.2720 O   0  0  0  0  0  0  0  0  0  0  0  0
   58.4160   33.0440   45.3210 C   0  0  0  0  0  0  0  0  0  0  0  0
   58.2607   33.3360   46.3701 H   0  0  0  0  0  0  0  0  0  0  0  0
   59.0285   33.8050   44.8154 H   0  0  0  0  0  0  0  0  0  0  0  0
   57.4426   32.9616   44.8154 H   0  0  0  0  0  0  0  0  0  0  0  0
   57.0970   30.3540   45.0840 C   0  0  0  0  0  0  0  0  0  0  0  0
   56.5099   31.2004   44.6981 H   0  0  0  0  0  0  0  0  0  0  0  0
   56.4880   29.1050   45.2380 C   0  0  0  0  0  0  0  0  0  0  0  0
   55.1490   28.9640   44.8890 O   0  0  0  0  0  0  0  0  0  0  0  0
  1  2  1  0
  2  3  2  0
  2  4  1  0
  4  5  2  0
  5  6  1  0
  5  7  1  0
  7  8  1  0
  8  9  1  0
  8 10  2  0
 10 11  1  0
 10 12  1  0
 12 13  1  0
 13 14  1  0
 14 15  2  0
 15 16  1  0
 15 17  1  0
 17 18  1  0
 17 19  2  0
 19 20  1  0
 19 21  1  0
 21 22  1  0
 21 23  2  0
 23 24  1  0
 24 25  1  0
  7 26  2  0
 26 27  1  0
 27 28  1  0
 28 29  1  0
 28 30  1  0
 28 31  1  0
 26 32  1  0
 32 33  1  0
 32 34  2  0
 34 35  1  0
 34  4  1  0
 24 12  2  0
 23 14  1  0
M  CHG  1  35  -1
M  END
>  <UniqueID>  (44) 
39

>  <SMILES>  (44) 
COc1cc([O-])c(C=O)cc1/C=C\c1cc2ccccc2s1

>  <Energy>  (44) 
77.91689682481851

>  <Genealogy>  (44) 
COc1cc([O-])c(C=O)cc1C=Cc1cc2ccccc2s1 (protonated)
COc1cc([O-])c(C=O)cc1/C=C\c1cc2ccccc2s1 (cis-trans isomerization)
COc1cc([O-])c(C=O)cc1/C=C\c1cc2ccccc2s1 (3D coordinates assigned)
COc1cc([O-])c(C=O)cc1/C=C\c1cc2ccccc2s1 (optimized conformer: 77.91689682481851 kcal/mol)

>  <smiles>  (44) 
COc1cc(O)c(C=O)cc1C=Cc1cc2ccccc2s1

>  <score_type>  (44) 
oracle

>  <origin>  (44) 
adg

>  <m_score__min__energy>  (44) 
-10.59

>  <m_primary>  (44) 
energy

$$$$
44:0
     RDKit          3D

 37 40  0  0  0  0  0  0  0  0999 V2000
   51.2650   24.0400   44.1530 C   0  0  0  0  0  0  0  0  0  0  0  0
   52.5260   23.3860   44.0420 O   0  0  0  0  0  0  0  0  0  0  0  0
   53.5390   23.4440   45.0110 C   0  0  0  0  0  0  0  0  0  0  0  0
   54.5310   24.4460   45.0030 C   0  0  0  0  0  0  0  0  0  0  0  0
   55.5330   24.4730   45.9910 C   0  0  0  0  0  0  0  0  0  0  0  0
   56.5680   25.5320   45.9720 C   0  0  0  0  0  0  0  0  0  0  0  0
   56.2920   26.8400   45.7690 N   0  0  0  0  0  0  0  0  0  0  0  0
   57.4050   27.6260   45.7960 C   0  0  0  0  0  0  0  0  0  0  0  0
   57.3280   29.0980   45.5950 C   0  0  0  0  0  0  0  0  0  0  0  0
   58.3080   29.9470   46.1390 C   0  0  0  0  0  0  0  0  0  0  0  0
   58.2300   31.3260   45.9350 C   0  0  0  0  0  0  0  0  0  0  0  0
   59.1920   32.2020   46.4610 C   0  0  0  0  0  0  0  0  0  0  0  0
   59.0810   33.5790   46.2330 C   0  0  0  0  0  0  0  0  0  0  0  0
   60.3890   34.7720   46.9500 Br  0  0  0  0  0  0  0  0  0  0  0  0
   58.0150   34.0820   45.4780 C   0  0  0  0  0  0  0  0  0  0  0  0
   57.0560   33.2120   44.9500 C   0  0  0  0  0  0  0  0  0  0  0  0
   57.1580   31.8340   45.1740 C   0  0  0  0  0  0  0  0  0  0  0  0
   56.2480   31.0100   44.6690 O   0  0  0  0  0  0  0  0  0  0  0  0
   56.2880   29.6920   44.8440 C   0  0  0  0  0  0  0  0  0  0  0  0
   55.3750   28.9870   44.3390 O   0  0  0  0  0  0  0  0  0  0  0  0
   58.5960   26.9330   46.0270 C   0  0  0  0  0  0  0  0  0  0  0  0
   58.2210   25.3030   46.1960 S   0  0  0  0  0  0  0  0  0  0  0  0
   55.5310   23.4830   46.9900 C   0  0  0  0  0  0  0  0  0  0  0  0
   54.5500   22.4900   47.0000 C   0  0  0  0  0  0  0  0  0  0  0  0
   53.5590   22.4690   46.0160 C   0  0  0  0  0  0  0  0  0  0  0  0
   52.5900   21.4730   46.0400 O   0  0  0  0  0  0  0  0  0  0  0  0
   51.0122   24.1711   45.2155 H   0  0  0  0  0  0  0  0  0  0  0  0
   51.3181   25.0242   43.6646 H   0  0  0  0  0  0  0  0  0  0  0  0
   50.4911   23.4296   43.6646 H   0  0  0  0  0  0  0  0  0  0  0  0
   54.5217   25.2147   44.2162 H   0  0  0  0  0  0  0  0  0  0  0  0
   59.1369   29.5243   46.7258 H   0  0  0  0  0  0  0  0  0  0  0  0
   60.0320   31.8074   47.0515 H   0  0  0  0  0  0  0  0  0  0  0  0
   57.9315   35.1642   45.2996 H   0  0  0  0  0  0  0  0  0  0  0  0
   56.2197   33.6113   44.3574 H   0  0  0  0  0  0  0  0  0  0  0  0
   59.6012   27.3756   46.0876 H   0  0  0  0  0  0  0  0  0  0  0  0
   56.3078   23.4913   47.7688 H   0  0  0  0  0  0  0  0  0  0  0  0
   54.5575   21.7207   47.7862 H   0  0  0  0  0  0  0  0  0  0  0  0
  1  2  1  0
  2  3  1  0
  3  4  2  0
  4  5  1  0
  5  6  1  0
  6  7  2  0
  7  8  1  0
  8  9  1  0
  9 10  2  0
 10 11  1  0
 11 12  2  0
 12 13  1  0
 13 14  1  0
 13 15  2  0
 15 16  1  0
 16 17  2  0
 17 18  1  0
 18 19  1  0
 19 20  2  0
  8 21  2  0
 21 22  1  0
  5 23  2  0
 23 24  1  0
 24 25  2  0
 25 26  1  0
 25  3  1  0
 22  6  1  0
 19  9  1  0
 17 11  1  0
  1 27  1  0
  1 28  1  0
  1 29  1  0
  4 30  1  0
 10 31  1  0
 12 32  1  0
 15 33  1  0
 16 34  1  0
 21 35  1  0
 23 36  1  0
 24 37  1  0
M  CHG  1  26  -1
M  END
>  <UniqueID>  (45) 
40

>  <SMILES>  (45) 
COc1cc(-c2nc(-c3cc4cc(Br)ccc4oc3=O)cs2)ccc1[O-]

>  <Energy>  (45) 
79.91846085371967

>  <Genealogy>  (45) 
COc1cc(-c2nc(-c3cc4cc(Br)ccc4oc3=O)cs2)ccc1[O-] (protonated)
COc1cc(-c2nc(-c3cc4cc(Br)ccc4oc3=O)cs2)ccc1[O-] (3D coordinates assigned)
COc1cc(-c2nc(-c3cc4cc(Br)ccc4oc3=O)cs2)ccc1[O-] (optimized conformer: 79.91846085371967 kcal/mol)

>  <smiles>  (45) 
COc1cc(-c2nc(-c3cc4cc(Br)ccc4oc3=O)cs2)ccc1O

>  <score_type>  (45) 
oracle

>  <origin>  (45) 
adg

>  <m_score__min__energy>  (45) 
-10.720000000000001

>  <m_primary>  (45) 
energy

$$$$
45:0
     RDKit          3D

 58 61  0  0  0  0  0  0  0  0999 V2000
   57.0360   31.2740   42.1840 C   0  0  0  0  0  0  0  0  0  0  0  0
   57.6130   31.7890   43.4770 C   0  0  0  0  0  0  0  0  0  0  0  0
   58.1100   33.1010   43.5230 C   0  0  0  0  0  0  0  0  0  0  0  0
   58.6450   33.6210   44.7020 C   0  0  0  0  0  0  0  0  0  0  0  0
   58.7040   32.8400   45.8670 C   0  0  0  0  0  0  0  0  0  0  0  0
   59.2570   33.4230   47.1240 C   0  0  0  0  0  0  0  0  0  0  0  0
   58.5170   34.1790   47.8140 O   0  0  0  0  0  0  0  0  0  0  0  0
   60.5820   33.0730   47.6050 N   0  0  0  0  0  0  0  0  0  0  0  0
   60.8150   31.6060   47.5730 C   0  0  0  0  0  0  0  0  0  0  0  0
   62.3060   31.2360   47.7510 C   0  0  0  0  0  0  0  0  0  0  0  0
   63.0910   32.3870   48.2190 N   0  0  0  0  0  0  0  0  0  0  0  0
   64.0430   32.2460   49.2920 C   0  0  0  0  0  0  0  0  0  0  0  0
   65.1770   33.0750   49.3550 C   0  0  0  0  0  0  0  0  0  0  0  0
   66.0890   32.9470   50.4080 C   0  0  0  0  0  0  0  0  0  0  0  0
   65.8740   31.9960   51.4090 C   0  0  0  0  0  0  0  0  0  0  0  0
   64.7450   31.1740   51.3610 C   0  0  0  0  0  0  0  0  0  0  0  0
   63.8310   31.2990   50.3100 C   0  0  0  0  0  0  0  0  0  0  0  0
   62.9760   33.6660   47.5050 C   0  0  0  0  0  0  0  0  0  0  0  0
   61.6080   33.7820   46.8150 C   0  0  0  0  0  0  0  0  0  0  0  0
   58.1990   31.5290   45.8240 C   0  0  0  0  0  0  0  0  0  0  0  0
   57.6320   31.0020   44.6530 C   0  0  0  0  0  0  0  0  0  0  0  0
   56.9830   29.3520   44.6950 S   0  0  0  0  0  0  0  0  0  0  0  0
   57.2500   28.7020   43.3650 O   0  0  0  0  0  0  0  0  0  0  0  0
   55.5000   29.3840   44.9440 O   0  0  0  0  0  0  0  0  0  0  0  0
   57.7640   28.4320   45.9600 N   0  0  0  0  0  0  0  0  0  0  0  0
   57.2900   27.0390   45.9510 C   0  0  0  0  0  0  0  0  0  0  0  0
   57.9400   26.2650   47.1170 C   0  0  0  0  0  0  0  0  0  0  0  0
   59.0170   26.9750   47.7060 O   0  0  0  0  0  0  0  0  0  0  0  0
   59.9080   27.4240   46.7030 C   0  0  0  0  0  0  0  0  0  0  0  0
   59.2270   28.4670   45.7930 C   0  0  0  0  0  0  0  0  0  0  0  0
   56.2316   30.5560   42.4017 H   0  0  0  0  0  0  0  0  0  0  0  0
   56.6295   32.1151   41.6031 H   0  0  0  0  0  0  0  0  0  0  0  0
   57.8256   30.7749   41.6031 H   0  0  0  0  0  0  0  0  0  0  0  0
   58.0773   33.7266   42.6188 H   0  0  0  0  0  0  0  0  0  0  0  0
   59.0244   34.6534   44.7188 H   0  0  0  0  0  0  0  0  0  0  0  0
   60.6560   33.3560   48.6100 H   0  0  0  0  0  0  0  0  0  0  0  0
   60.2371   31.1398   48.3846 H   0  0  0  0  0  0  0  0  0  0  0  0
   60.4967   31.2398   46.5858 H   0  0  0  0  0  0  0  0  0  0  0  0
   62.3878   30.4234   48.4879 H   0  0  0  0  0  0  0  0  0  0  0  0
   62.7033   30.9191   46.7754 H   0  0  0  0  0  0  0  0  0  0  0  0
   65.3479   33.8284   48.5719 H   0  0  0  0  0  0  0  0  0  0  0  0
   66.9764   33.5957   50.4481 H   0  0  0  0  0  0  0  0  0  0  0  0
   66.5935   31.8944   52.2348 H   0  0  0  0  0  0  0  0  0  0  0  0
   64.5750   30.4276   52.1510 H   0  0  0  0  0  0  0  0  0  0  0  0
   62.9412   30.6530   50.2793 H   0  0  0  0  0  0  0  0  0  0  0  0
   63.0895   34.4917   48.2229 H   0  0  0  0  0  0  0  0  0  0  0  0
   63.7637   33.7153   46.7388 H   0  0  0  0  0  0  0  0  0  0  0  0
   61.3323   34.8434   46.7289 H   0  0  0  0  0  0  0  0  0  0  0  0
   61.6691   33.3299   45.8141 H   0  0  0  0  0  0  0  0  0  0  0  0
   58.2492   30.9028   46.7270 H   0  0  0  0  0  0  0  0  0  0  0  0
   56.1961   27.0235   46.0657 H   0  0  0  0  0  0  0  0  0  0  0  0
   57.5664   26.5646   44.9978 H   0  0  0  0  0  0  0  0  0  0  0  0
   57.1764   26.0800   47.8868 H   0  0  0  0  0  0  0  0  0  0  0  0
   58.3414   25.3245   46.7116 H   0  0  0  0  0  0  0  0  0  0  0  0
   60.7875   27.8810   47.1801 H   0  0  0  0  0  0  0  0  0  0  0  0
   60.2101   26.5632   46.0884 H   0  0  0  0  0  0  0  0  0  0  0  0
   59.5959   29.4696   46.0550 H   0  0  0  0  0  0  0  0  0  0  0  0
   59.4678   28.2316   44.7458 H   0  0  0  0  0  0  0  0  0  0  0  0
  1  2  1  0
  2  3  2  0
  3  4  1  0
  4  5  2  0
  5  6  1  0
  6  7  2  0
  6  8  1  0
  8  9  1  0
  9 10  1  0
 10 11  1  0
 11 12  1  0
 12 13  2  0
 13 14  1  0
 14 15  2  0
 15 16  1  0
 16 17  2  0
 11 18  1  0
 18 19  1  0
  5 20  1  0
 20 21  2  0
 21 22  1  0
 22 23  2  0
 22 24  2  0
 22 25  1  0
 25 26  1  0
 26 27  1  0
 27 28  1  0
 28 29  1  0
 29 30  1  0
 21  2  1  0
 30 25  1  0
 19  8  1  0
 17 12  1  0
  1 31  1  0
  1 32  1  0
  1 33  1  0
  3 34  1  0
  4 35  1  0
  8 36  1  0
  9 37  1  0
  9 38  1  0
 10 39  1  0
 10 40  1  0
 13 41  1  0
 14 42  1  0
 15 43  1  0
 16 44  1  0
 17 45  1  0
 18 46  1  0
 18 47  1  0
 19 48  1  0
 19 49  1  0
 20 50  1  0
 26 51  1  0
 26 52  1  0
 27 53  1  0
 27 54  1  0
 29 55  1  0
 29 56  1  0
 30 57  1  0
 30 58  1  0
M  CHG  1   8   1
M  END
>  <UniqueID>  (46) 
41

>  <SMILES>  (46) 
Cc1ccc(C(=O)[NH+]2CCN(c3ccccc3)CC2)cc1S(=O)(=O)N1CCOCC1

>  <Energy>  (46) 
83.09472415530902

>  <Genealogy>  (46) 
Cc1ccc(C(=O)[NH+]2CCN(c3ccccc3)CC2)cc1S(=O)(=O)N1CCOCC1 (protonated)
Cc1ccc(C(=O)[NH+]2CCN(c3ccccc3)CC2)cc1S(=O)(=O)N1CCOCC1 (3D coordinates assigned)
Cc1ccc(C(=O)[NH+]2CCN(c3ccccc3)CC2)cc1S(=O)(=O)N1CCOCC1 (nonaromatic ring conformer: 83.09472415530902 kcal/mol)

>  <smiles>  (46) 
Cc1ccc(C(=O)N2CCN(c3ccccc3)CC2)cc1S(=O)(=O)N1CCOCC1

>  <score_type>  (46) 
oracle

>  <origin>  (46) 
adg

>  <m_score__min__energy>  (46) 
-8.2599999999999998

>  <m_primary>  (46) 
energy

$$$$
46:0
     RDKit          3D

 38 39  0  0  0  0  0  0  0  0999 V2000
   58.9730   23.1170   44.8920 C   0  0  0  0  0  0  0  0  0  0  0  0
   57.7740   23.9580   45.2120 C   0  0  0  0  0  0  0  0  0  0  0  0
   56.4820   23.4290   45.0780 C   0  0  0  0  0  0  0  0  0  0  0  0
   55.3650   24.2260   45.3320 C   0  0  0  0  0  0  0  0  0  0  0  0
   55.5220   25.5620   45.7130 C   0  0  0  0  0  0  0  0  0  0  0  0
   54.3930   26.3400   45.9470 O   0  0  0  0  0  0  0  0  0  0  0  0
   56.8130   26.1090   45.8490 C   0  0  0  0  0  0  0  0  0  0  0  0
   57.0050   27.5580   46.2190 C   0  0  0  0  0  0  0  0  0  0  0  0
   58.3890   28.0460   45.7840 C   0  0  0  0  0  0  0  0  0  0  0  0
   58.2870   28.8350   44.5610 N   0  0  0  0  0  0  0  0  0  0  0  0
   57.4250   29.9680   44.4220 C   0  0  0  0  0  0  0  0  0  0  0  0
   56.2800   29.9720   44.9520 O   0  0  0  0  0  0  0  0  0  0  0  0
   57.9060   31.1760   43.6860 C   0  0  0  0  0  0  0  0  0  0  0  0
   58.2420   32.2690   44.6620 C   0  0  0  0  0  0  0  0  0  0  0  0
   58.1770   32.0290   46.0450 C   0  0  0  0  0  0  0  0  0  0  0  0
   58.4500   33.0570   46.9520 C   0  0  0  0  0  0  0  0  0  0  0  0
   58.7810   34.3350   46.4890 C   0  0  0  0  0  0  0  0  0  0  0  0
   59.0500   35.3500   47.4050 O   0  0  0  0  0  0  0  0  0  0  0  0
   58.8340   34.5830   45.1110 C   0  0  0  0  0  0  0  0  0  0  0  0
   58.5610   33.5570   44.2010 C   0  0  0  0  0  0  0  0  0  0  0  0
   57.9330   25.3040   45.5770 C   0  0  0  0  0  0  0  0  0  0  0  0
   59.4475   22.7842   45.8269 H   0  0  0  0  0  0  0  0  0  0  0  0
   58.6599   22.2396   44.3071 H   0  0  0  0  0  0  0  0  0  0  0  0
   59.6914   23.7102   44.3071 H   0  0  0  0  0  0  0  0  0  0  0  0
   56.3485   22.3811   44.7713 H   0  0  0  0  0  0  0  0  0  0  0  0
   54.3555   23.8008   45.2319 H   0  0  0  0  0  0  0  0  0  0  0  0
   56.2346   28.1638   45.7196 H   0  0  0  0  0  0  0  0  0  0  0  0
   56.9201   27.6595   47.3110 H   0  0  0  0  0  0  0  0  0  0  0  0
   58.8217   28.6676   46.5817 H   0  0  0  0  0  0  0  0  0  0  0  0
   59.0323   27.1741   45.5944 H   0  0  0  0  0  0  0  0  0  0  0  0
   58.8037   30.9163   43.1058 H   0  0  0  0  0  0  0  0  0  0  0  0
   57.1139   31.5265   43.0080 H   0  0  0  0  0  0  0  0  0  0  0  0
   57.9102   31.0282   46.4154 H   0  0  0  0  0  0  0  0  0  0  0  0
   58.4044   32.8605   48.0333 H   0  0  0  0  0  0  0  0  0  0  0  0
   59.2320   35.1490   48.3810 H   0  0  0  0  0  0  0  0  0  0  0  0
   59.0911   35.5876   44.7440 H   0  0  0  0  0  0  0  0  0  0  0  0
   58.5962   33.7592   43.1203 H   0  0  0  0  0  0  0  0  0  0  0  0
   58.9432   25.7329   45.6509 H   0  0  0  0  0  0  0  0  0  0  0  0
  1  2  1  0
  2  3  2  0
  3  4  1  0
  4  5  2  0
  5  6  1  0
  5  7  1  0
  7  8  1  0
  8  9  1  0
  9 10  1  0
 10 11  1  0
 11 12  2  0
 11 13  1  0
 13 14  1  0
 14 15  2  0
 15 16  1  0
 16 17  2  0
 17 18  1  0
 17 19  1  0
 19 20  2  0
  7 21  2  0
 21  2  1  0
 20 14  1  0
  1 22  1  0
  1 23  1  0
  1 24  1  0
  3 25  1  0
  4 26  1  0
  8 27  1  0
  8 28  1  0
  9 29  1  0
  9 30  1  0
 13 31  1  0
 13 32  1  0
 15 33  1  0
 16 34  1  0
 18 35  1  0
 19 36  1  0
 20 37  1  0
 21 38  1  0
M  CHG  2   6  -1  10  -1
M  END
>  <UniqueID>  (47) 
42

>  <SMILES>  (47) 
Cc1ccc([O-])c(CC[N-]C(=O)Cc2ccc(O)cc2)c1

>  <Energy>  (47) 
30.94822154048474

>  <Genealogy>  (47) 
Cc1ccc([O-])c(CC[N-]C(=O)Cc2ccc(O)cc2)c1 (protonated)
Cc1ccc([O-])c(CC[N-]C(=O)Cc2ccc(O)cc2)c1 (3D coordinates assigned)
Cc1ccc([O-])c(CC[N-]C(=O)Cc2ccc(O)cc2)c1 (optimized conformer: 30.94822154048474 kcal/mol)

>  <smiles>  (47) 
Cc1ccc(O)c(CCNC(=O)Cc2ccc(O)cc2)c1

>  <score_type>  (47) 
oracle

>  <origin>  (47) 
adg

>  <m_score__min__energy>  (47) 
-12.369999999999999

>  <m_primary>  (47) 
energy

$$$$
47:0
     RDKit          3D

 35 37  0  0  1  0  0  0  0  0999 V2000
   60.6580   29.2320   45.9430 C   0  0  0  0  0  0  0  0  0  0  0  0
   59.7490   29.3970   46.9710 C   0  0  0  0  0  0  0  0  0  0  0  0
   58.4430   28.9650   46.7690 C   0  0  0  0  0  0  0  0  0  0  0  0
   58.0890   28.3880   45.5630 C   0  0  0  0  0  0  0  0  0  0  0  0
   56.6830   27.9100   45.3130 C   0  0  0  0  0  0  0  0  0  0  0  0
   55.8940   29.0250   44.8710 N   0  0  0  0  0  0  0  0  0  0  0  0
   56.4580   30.0500   44.3170 C   0  0  0  0  0  0  0  0  0  0  0  0
   56.4190   30.1170   42.9360 C   0  0  0  0  0  0  0  0  0  0  0  0
   57.0180   31.2060   42.3340 C   0  0  0  0  0  0  0  0  0  0  0  0
   57.6060   32.1450   43.0970 N   0  0  0  0  0  0  0  0  0  0  0  0
   57.6420   32.0770   44.4380 C   0  0  0  0  0  0  0  0  0  0  0  0
   58.2740   33.0850   45.2820 C   0  0  0  0  0  0  0  0  0  0  0  0
   58.2440   32.9720   46.6790 C   0  0  0  0  0  0  0  0  0  0  0  0
   58.8360   33.9140   47.4950 C   0  0  0  0  0  0  0  0  0  0  0  0
   59.4800   35.0030   46.9710 C   0  0  0  0  0  0  0  0  0  0  0  0
   59.5250   35.1410   45.5960 C   0  0  0  0  0  0  0  0  0  0  0  0
   58.9280   34.1900   44.7910 C   0  0  0  0  0  0  0  0  0  0  0  0
   57.0610   31.0190   45.0300 N   0  0  0  0  0  0  0  0  0  0  0  0
   58.9920   28.2200   44.5300 C   0  0  0  0  0  0  0  0  0  0  0  0
   60.2900   28.6500   44.7350 C   0  0  0  0  0  0  0  0  0  0  0  0
   61.6957   29.5686   46.0836 H   0  0  0  0  0  0  0  0  0  0  0  0
   60.0507   29.8577   47.9233 H   0  0  0  0  0  0  0  0  0  0  0  0
   57.6937   29.0818   47.5658 H   0  0  0  0  0  0  0  0  0  0  0  0
   56.6889   27.1293   44.5381 H   0  0  0  0  0  0  0  0  0  0  0  0
   56.2580   27.4905   46.2368 H   0  0  0  0  0  0  0  0  0  0  0  0
   55.9295   29.3327   42.3399 H   0  0  0  0  0  0  0  0  0  0  0  0
   57.0143   31.3049   41.2385 H   0  0  0  0  0  0  0  0  0  0  0  0
   58.0450   32.9490   42.6080 H   0  0  0  0  0  0  0  0  0  0  0  0
   57.7355   32.1104   47.1363 H   0  0  0  0  0  0  0  0  0  0  0  0
   58.7898   33.7879   48.5868 H   0  0  0  0  0  0  0  0  0  0  0  0
   59.9500   35.7497   47.6279 H   0  0  0  0  0  0  0  0  0  0  0  0
   60.0344   36.0051   45.1445 H   0  0  0  0  0  0  0  0  0  0  0  0
   58.9786   34.3240   43.7004 H   0  0  0  0  0  0  0  0  0  0  0  0
   58.6885   27.7602   43.5779 H   0  0  0  0  0  0  0  0  0  0  0  0
   61.0371   28.5308   43.9365 H   0  0  0  0  0  0  0  0  0  0  0  0
  1  2  2  0
  2  3  1  0
  3  4  2  0
  4  5  1  0
  5  6  1  0
  6  7  2  0
  7  8  1  0
  8  9  2  0
  9 10  1  0
 10 11  1  0
 11 12  1  0
 12 13  2  0
 13 14  1  0
 14 15  2  0
 15 16  1  0
 16 17  2  0
 11 18  2  0
  4 19  1  0
 19 20  2  0
 20  1  1  0
 18  7  1  0
 17 12  1  0
  1 21  1  0
  2 22  1  0
  3 23  1  0
  5 24  1  0
  5 25  1  0
  8 26  1  0
  9 27  1  0
 10 28  1  0
 13 29  1  0
 14 30  1  0
 15 31  1  0
 16 32  1  0
 17 33  1  0
 19 34  1  0
 20 35  1  0
M  END
>  <smiles>  (48) 
c1ccc(CN=c2cc[nH]c(-c3ccccc3)n2)cc1

>  <score_type>  (48) 
oracle

>  <origin>  (48) 
adg

>  <m_score__min__energy>  (48) 
-7.71

>  <m_primary>  (48) 
energy

$$$$
48:0
     RDKit          3D

 43 45  0  0  0  0  0  0  0  0999 V2000
   54.0190   26.3100   46.4100 H   0  0  0  0  0  0  0  0  0  0  0  0
   54.8900   25.9090   45.9960 N   0  0  0  0  0  0  0  0  0  0  0  0
   56.0140   26.5540   45.9860 C   0  0  0  0  0  0  0  0  0  0  0  0
   57.1480   25.9920   46.5980 C   0  0  0  0  0  0  0  0  0  0  0  0
   57.0230   24.4160   47.3920 Cl  0  0  0  0  0  0  0  0  0  0  0  0
   58.3660   26.6990   46.5690 C   0  0  0  0  0  0  0  0  0  0  0  0
   59.6160   26.1600   47.2260 C   0  0  0  0  0  0  0  0  0  0  0  0
   59.7830   26.6928   48.1737 H   0  0  0  0  0  0  0  0  0  0  0  0
   59.4806   25.0838   47.4087 H   0  0  0  0  0  0  0  0  0  0  0  0
   60.8320   26.3520   46.3240 C   0  0  0  0  0  0  0  0  0  0  0  0
   61.7296   26.4937   46.9439 H   0  0  0  0  0  0  0  0  0  0  0  0
   60.9615   25.4632   45.6890 H   0  0  0  0  0  0  0  0  0  0  0  0
   60.6814   27.2375   45.6890 H   0  0  0  0  0  0  0  0  0  0  0  0
   58.4100   27.9570   45.9560 C   0  0  0  0  0  0  0  0  0  0  0  0
   59.3480   28.5315   45.9507 H   0  0  0  0  0  0  0  0  0  0  0  0
   57.2630   28.4870   45.3490 C   0  0  0  0  0  0  0  0  0  0  0  0
   57.3060   29.8240   44.6980 C   0  0  0  0  0  0  0  0  0  0  0  0
   57.1380   29.9400   43.3070 C   0  0  0  0  0  0  0  0  0  0  0  0
   56.9724   29.0380   42.6996 H   0  0  0  0  0  0  0  0  0  0  0  0
   57.1800   31.1930   42.6910 C   0  0  0  0  0  0  0  0  0  0  0  0
   57.0494   31.2724   41.6017 H   0  0  0  0  0  0  0  0  0  0  0  0
   57.3870   32.3450   43.4520 C   0  0  0  0  0  0  0  0  0  0  0  0
   57.4131   33.3293   42.9616 H   0  0  0  0  0  0  0  0  0  0  0  0
   57.5620   32.2500   44.8420 C   0  0  0  0  0  0  0  0  0  0  0  0
   57.7400   33.4940   45.6690 C   0  0  0  0  0  0  0  0  0  0  0  0
   57.1132   34.2982   45.2562 H   0  0  0  0  0  0  0  0  0  0  0  0
   57.4419   33.2825   46.7065 H   0  0  0  0  0  0  0  0  0  0  0  0
   59.1740   33.9240   45.6490 C   0  0  0  0  0  0  0  0  0  0  0  0
   59.6980   34.3080   44.5690 O   0  0  0  0  0  0  0  0  0  0  0  0
   59.9670   33.8580   46.8330 N   0  0  0  0  0  0  0  0  0  0  0  0
   59.7880   33.5100   48.2550 C   0  0  0  0  0  0  0  0  0  0  0  0
   59.0736   34.1710   48.7676 H   0  0  0  0  0  0  0  0  0  0  0  0
   59.3747   32.5158   48.4802 H   0  0  0  0  0  0  0  0  0  0  0  0
   61.2040   33.7670   48.6580 C   0  0  0  0  0  0  0  0  0  0  0  0
   61.3530   34.5943   49.3675 H   0  0  0  0  0  0  0  0  0  0  0  0
   61.8345   33.0370   49.1868 H   0  0  0  0  0  0  0  0  0  0  0  0
   61.3650   34.1180   47.2160 C   0  0  0  0  0  0  0  0  0  0  0  0
   61.6582   35.1674   47.0649 H   0  0  0  0  0  0  0  0  0  0  0  0
   62.1452   33.5828   46.6549 H   0  0  0  0  0  0  0  0  0  0  0  0
   57.5140   30.9900   45.4600 C   0  0  0  0  0  0  0  0  0  0  0  0
   57.6401   30.9129   46.5500 H   0  0  0  0  0  0  0  0  0  0  0  0
   56.0990   27.7730   45.3780 N   0  0  0  0  0  0  0  0  0  0  0  0
   55.2510   28.1590   44.9050 H   0  0  0  0  0  0  0  0  0  0  0  0
  1  2  1  0
  2  3  2  0
  3  4  1  0
  4  5  1  0
  4  6  2  0
  6  7  1  0
  7  8  1  0
  7  9  1  0
  7 10  1  0
 10 11  1  0
 10 12  1  0
 10 13  1  0
  6 14  1  0
 14 15  1  0
 14 16  2  0
 16 17  1  0
 17 18  2  0
 18 19  1  0
 18 20  1  0
 20 21  1  0
 20 22  2  0
 22 23  1  0
 22 24  1  0
 24 25  1  0
 25 26  1  0
 25 27  1  0
 25 28  1  0
 28 29  2  0
 28 30  1  0
 30 31  1  0
 31 32  1  0
 31 33  1  0
 31 34  1  0
 34 35  1  0
 34 36  1  0
 34 37  1  0
 37 38  1  0
 37 39  1  0
 24 40  2  0
 40 41  1  0
 16 42  1  0
 42 43  1  0
 42  3  1  0
 40 17  1  0
 37 30  1  0
M  END
>  <UniqueID>  (49) 
43

>  <SMILES>  (49) 
[H]/N=c1\[nH]c(-c2cccc(CC(=O)N3CCC3)c2)cc(CC)c1Cl

>  <Energy>  (49) 
88.77988143846599

>  <Genealogy>  (49) 
[H]/N=c1\[nH]c(-c2cccc(CC(=O)N3CCC3)c2)cc(CC)c1Cl (cis-trans isomerization)
[H]/N=c1\[nH]c(-c2cccc(CC(=O)N3CCC3)c2)cc(CC)c1Cl (3D coordinates assigned)
[H]/N=c1\[nH]c(-c2cccc(CC(=O)N3CCC3)c2)cc(CC)c1Cl (nonaromatic ring conformer: 88.77988143846599 kcal/mol)

>  <smiles>  (49) 
CCc1cc(-c2cccc(CC(=O)N3CCC3)c2)[nH]c(=N)c1Cl

>  <score_type>  (49) 
oracle

>  <origin>  (49) 
adg

>  <m_score__min__energy>  (49) 
-8.8499999999999996

>  <m_primary>  (49) 
energy

$$$$
49:0
     RDKit          3D

 26 27  0  0  0  0  0  0  0  0999 V2000
   58.8080   27.6110   45.6090 O   0  0  0  0  0  0  0  0  0  0  0  0
   57.6150   27.3540   45.2920 C   0  0  0  0  0  0  0  0  0  0  0  0
   56.7540   28.3960   44.7980 N   0  0  0  0  0  0  0  0  0  0  0  0
   57.1680   29.7590   44.6060 C   0  0  0  0  0  0  0  0  0  0  0  0
   57.0200   30.3500   43.3400 C   0  0  0  0  0  0  0  0  0  0  0  0
   57.4390   31.6660   43.1210 C   0  0  0  0  0  0  0  0  0  0  0  0
   58.0240   32.3980   44.1580 C   0  0  0  0  0  0  0  0  0  0  0  0
   58.1990   31.8100   45.4130 C   0  0  0  0  0  0  0  0  0  0  0  0
   57.7810   30.4940   45.6380 C   0  0  0  0  0  0  0  0  0  0  0  0
   57.1220   25.9670   45.4320 C   0  0  0  0  0  0  0  0  0  0  0  0
   58.0220   24.9000   45.2710 C   0  0  0  0  0  0  0  0  0  0  0  0
   57.5830   23.5770   45.3890 C   0  0  0  0  0  0  0  0  0  0  0  0
   58.7140   22.2540   45.1700 Cl  0  0  0  0  0  0  0  0  0  0  0  0
   56.2430   23.3100   45.6790 C   0  0  0  0  0  0  0  0  0  0  0  0
   55.3430   24.3610   45.8620 C   0  0  0  0  0  0  0  0  0  0  0  0
   55.7750   25.6880   45.7500 C   0  0  0  0  0  0  0  0  0  0  0  0
   54.8680   26.7140   45.9910 O   0  0  0  0  0  0  0  0  0  0  0  0
   55.7510   28.1710   44.6120 H   0  0  0  0  0  0  0  0  0  0  0  0
   56.5721   29.7744   42.5166 H   0  0  0  0  0  0  0  0  0  0  0  0
   57.3079   32.1261   42.1305 H   0  0  0  0  0  0  0  0  0  0  0  0
   58.3461   33.4356   43.9862 H   0  0  0  0  0  0  0  0  0  0  0  0
   58.6669   32.3834   46.2268 H   0  0  0  0  0  0  0  0  0  0  0  0
   57.9319   30.0321   46.6248 H   0  0  0  0  0  0  0  0  0  0  0  0
   59.0797   25.1066   45.0505 H   0  0  0  0  0  0  0  0  0  0  0  0
   55.8964   22.2695   45.7633 H   0  0  0  0  0  0  0  0  0  0  0  0
   54.2898   24.1458   46.0952 H   0  0  0  0  0  0  0  0  0  0  0  0
  1  2  2  0
  2  3  1  0
  3  4  1  0
  4  5  2  0
  5  6  1  0
  6  7  2  0
  7  8  1  0
  8  9  2  0
  2 10  1  0
 10 11  2  0
 11 12  1  0
 12 13  1  0
 12 14  2  0
 14 15  1  0
 15 16  2  0
 16 17  1  0
  9  4  1  0
 16 10  1  0
  3 18  1  0
  5 19  1  0
  6 20  1  0
  7 21  1  0
  8 22  1  0
  9 23  1  0
 11 24  1  0
 14 25  1  0
 15 26  1  0
M  CHG  1  17  -1
M  END
>  <UniqueID>  (50) 
44

>  <SMILES>  (50) 
O=C(Nc1ccccc1)c1cc(Cl)ccc1[O-]

>  <Energy>  (50) 
35.788011789900956

>  <Genealogy>  (50) 
O=C(Nc1ccccc1)c1cc(Cl)ccc1[O-] (protonated)
O=C(Nc1ccccc1)c1cc(Cl)ccc1[O-] (3D coordinates assigned)
O=C(Nc1ccccc1)c1cc(Cl)ccc1[O-] (optimized conformer: 35.788011789900956 kcal/mol)

>  <smiles>  (50) 
O=C(Nc1ccccc1)c1cc(Cl)ccc1O

>  <score_type>  (50) 
oracle

>  <origin>  (50) 
adg

>  <m_score__min__energy>  (50) 
-10.19

>  <m_primary>  (50) 
energy

$$$$
50:0
     RDKit          3D

 36 38  0  0  0  0  0  0  0  0999 V2000
   62.6230   32.5060   47.1530 C   0  0  0  0  0  0  0  0  0  0  0  0
   61.8580   31.0510   47.9320 S   0  0  0  0  0  0  0  0  0  0  0  0
   60.3420   31.2080   46.9930 C   0  0  0  0  0  0  0  0  0  0  0  0
   59.6320   30.0870   46.6760 N   0  0  0  0  0  0  0  0  0  0  0  0
   58.4860   30.2320   45.9730 C   0  0  0  0  0  0  0  0  0  0  0  0
   58.0340   31.4410   45.5570 C   0  0  0  0  0  0  0  0  0  0  0  0
   56.8790   31.2970   44.8770 N   0  0  0  0  0  0  0  0  0  0  0  0
   56.6850   29.9530   44.9030 C   0  0  0  0  0  0  0  0  0  0  0  0
   55.6780   29.4070   44.3790 O   0  0  0  0  0  0  0  0  0  0  0  0
   57.6510   29.2630   45.5650 N   0  0  0  0  0  0  0  0  0  0  0  0
   57.7500   27.8440   45.7900 C   0  0  0  0  0  0  0  0  0  0  0  0
   59.0070   27.2130   45.8090 C   0  0  0  0  0  0  0  0  0  0  0  0
   59.1020   25.8350   46.0310 C   0  0  0  0  0  0  0  0  0  0  0  0
   57.9470   25.0760   46.2330 C   0  0  0  0  0  0  0  0  0  0  0  0
   56.6930   25.6920   46.2140 C   0  0  0  0  0  0  0  0  0  0  0  0
   55.5720   24.9550   46.4040 F   0  0  0  0  0  0  0  0  0  0  0  0
   56.5940   27.0710   45.9940 C   0  0  0  0  0  0  0  0  0  0  0  0
   58.7460   32.6050   45.8690 C   0  0  0  0  0  0  0  0  0  0  0  0
   58.2990   33.9200   45.4610 N   0  0  0  0  0  0  0  0  0  0  0  0
   59.2790   34.9790   45.2040 C   0  0  0  0  0  0  0  0  0  0  0  0
   56.8750   34.2040   45.2590 C   0  0  0  0  0  0  0  0  0  0  0  0
   59.9020   32.4480   46.5970 N   0  0  0  0  0  0  0  0  0  0  0  0
   62.9839   33.1924   47.9332 H   0  0  0  0  0  0  0  0  0  0  0  0
   63.4688   32.1848   46.5274 H   0  0  0  0  0  0  0  0  0  0  0  0
   61.8789   33.0207   46.5274 H   0  0  0  0  0  0  0  0  0  0  0  0
   59.9196   27.8058   45.6485 H   0  0  0  0  0  0  0  0  0  0  0  0
   60.0883   25.3483   46.0465 H   0  0  0  0  0  0  0  0  0  0  0  0
   58.0247   23.9927   46.4072 H   0  0  0  0  0  0  0  0  0  0  0  0
   55.6052   27.5527   45.9807 H   0  0  0  0  0  0  0  0  0  0  0  0
   59.6477   35.3774   46.1607 H   0  0  0  0  0  0  0  0  0  0  0  0
   60.1216   34.5672   44.6292 H   0  0  0  0  0  0  0  0  0  0  0  0
   58.8032   35.7872   44.6292 H   0  0  0  0  0  0  0  0  0  0  0  0
   56.3787   34.3030   46.2357 H   0  0  0  0  0  0  0  0  0  0  0  0
   56.7646   35.1419   44.6949 H   0  0  0  0  0  0  0  0  0  0  0  0
   56.4132   33.3803   44.6949 H   0  0  0  0  0  0  0  0  0  0  0  0
   60.4810   33.2780   46.8500 H   0  0  0  0  0  0  0  0  0  0  0  0
  1  2  1  0
  2  3  1  0
  3  4  2  0
  4  5  1  0
  5  6  2  0
  6  7  1  0
  7  8  1  0
  8  9  2  0
  8 10  1  0
 10 11  1  0
 11 12  2  0
 12 13  1  0
 13 14  2  0
 14 15  1  0
 15 16  1  0
 15 17  2  0
  6 18  1  0
 18 19  1  0
 19 20  1  0
 19 21  1  0
 18 22  2  0
 22  3  1  0
 10  5  1  0
 17 11  1  0
  1 23  1  0
  1 24  1  0
  1 25  1  0
 12 26  1  0
 13 27  1  0
 14 28  1  0
 17 29  1  0
 20 30  1  0
 20 31  1  0
 20 32  1  0
 21 33  1  0
 21 34  1  0
 21 35  1  0
 22 36  1  0
M  CHG  2   7  -1  22   1
M  END
>  <UniqueID>  (51) 
45

>  <SMILES>  (51) 
CSc1nc2c([n-]c(=O)n2-c2cccc(F)c2)c(N(C)C)[nH+]1

>  <Energy>  (51) 
81.66397514981414

>  <Genealogy>  (51) 
CSc1nc2c([n-]c(=O)n2-c2cccc(F)c2)c(N(C)C)[nH+]1 (protonated)
CSc1nc2c([n-]c(=O)n2-c2cccc(F)c2)c(N(C)C)[nH+]1 (3D coordinates assigned)
CSc1nc2c([n-]c(=O)n2-c2cccc(F)c2)c(N(C)C)[nH+]1 (optimized conformer: 81.66397514981414 kcal/mol)

>  <smiles>  (51) 
CSc1nc(N(C)C)c2[nH]c(=O)n(-c3cccc(F)c3)c2n1

>  <score_type>  (51) 
oracle

>  <origin>  (51) 
adg

>  <m_score__min__energy>  (51) 
-6.7400000000000002

>  <m_primary>  (51) 
energy

$$$$
51:0
     RDKit          3D

 73 76  0  0  0  0  0  0  0  0999 V2000
   58.1920   34.1740   46.2470 C   0  0  0  0  0  0  0  0  0  0  0  0
   58.7830   33.0080   47.0420 C   0  0  0  0  0  0  0  0  0  0  0  0
   60.2670   32.7610   46.7270 C   0  0  0  0  0  0  0  0  0  0  0  0
   61.0310   34.0610   46.4230 C   0  0  0  0  0  0  0  0  0  0  0  0
   62.5510   33.8380   46.3390 C   0  0  0  0  0  0  0  0  0  0  0  0
   63.1150   33.1140   47.5770 C   0  0  0  0  0  0  0  0  0  0  0  0
   63.3880   34.0570   48.7660 C   0  0  0  0  0  0  0  0  0  0  0  0
   62.1510   34.3920   49.6200 C   0  0  0  0  0  0  0  0  0  0  0  0
   61.2090   33.1950   49.8250 C   0  0  0  0  0  0  0  0  0  0  0  0
   60.8450   33.0180   51.3040 C   0  0  0  0  0  0  0  0  0  0  0  0
   59.8900   31.8790   51.4750 C   0  0  0  0  0  0  0  0  0  0  0  0
   58.7390   32.0900   51.9430 O   0  0  0  0  0  0  0  0  0  0  0  0
   60.2710   30.5630   51.0590 N   0  0  0  0  0  0  0  0  0  0  0  0
   60.0290   30.0140   49.7570 C   0  0  0  0  0  0  0  0  0  0  0  0
   60.9670   30.1470   48.7200 C   0  0  0  0  0  0  0  0  0  0  0  0
   60.7000   29.6160   47.4560 C   0  0  0  0  0  0  0  0  0  0  0  0
   59.4930   28.9380   47.2070 C   0  0  0  0  0  0  0  0  0  0  0  0
   59.2080   28.3360   45.8450 C   0  0  1  0  0  0  0  0  0  0  0  0
   58.7110   26.9030   46.0020 C   0  0  0  0  0  0  0  0  0  0  0  0
   59.7280   25.8480   46.2480 C   0  0  0  0  0  0  0  0  0  0  0  0
   59.6650   24.7510   45.6340 O   0  0  0  0  0  0  0  0  0  0  0  0
   60.7230   26.0250   47.2030 O   0  0  0  0  0  0  0  0  0  0  0  0
   57.3820   26.6290   45.9210 C   0  0  0  0  0  0  0  0  0  0  0  0
   56.7930   25.3250   46.3130 C   0  0  0  0  0  0  0  0  0  0  0  0
   55.5810   24.9130   45.7390 C   0  0  0  0  0  0  0  0  0  0  0  0
   54.9900   23.7070   46.1260 C   0  0  0  0  0  0  0  0  0  0  0  0
   55.5930   22.9110   47.1040 C   0  0  0  0  0  0  0  0  0  0  0  0
   55.0020   21.7120   47.4830 O   0  0  0  0  0  0  0  0  0  0  0  0
   56.7870   23.3270   47.7050 C   0  0  0  0  0  0  0  0  0  0  0  0
   57.3890   22.5410   48.6790 O   0  0  0  0  0  0  0  0  0  0  0  0
   57.3770   24.5370   47.3220 C   0  0  0  0  0  0  0  0  0  0  0  0
   56.4870   27.5990   45.4450 O   0  0  0  0  0  0  0  0  0  0  0  0
   56.9030   28.8380   44.9610 C   0  0  0  0  0  0  0  0  0  0  0  0
   55.9820   29.6910   44.3460 C   0  0  0  0  0  0  0  0  0  0  0  0
   56.3990   30.9290   43.8480 C   0  0  0  0  0  0  0  0  0  0  0  0
   57.7380   31.3170   43.9690 C   0  0  0  0  0  0  0  0  0  0  0  0
   58.1510   32.5500   43.4780 O   0  0  0  0  0  0  0  0  0  0  0  0
   58.6600   30.4690   44.5900 C   0  0  0  0  0  0  0  0  0  0  0  0
   58.2460   29.2210   45.0870 C   0  0  0  0  0  0  0  0  0  0  0  0
   58.5470   28.8300   48.2410 C   0  0  0  0  0  0  0  0  0  0  0  0
   58.8100   29.3740   49.5020 C   0  0  0  0  0  0  0  0  0  0  0  0
   57.8067   34.9341   46.9426 H   0  0  0  0  0  0  0  0  0  0  0  0
   58.9733   34.6192   45.6134 H   0  0  0  0  0  0  0  0  0  0  0  0
   57.3711   33.8071   45.6134 H   0  0  0  0  0  0  0  0  0  0  0  0
   58.6839   33.2288   48.1151 H   0  0  0  0  0  0  0  0  0  0  0  0
   58.2297   32.1007   46.7581 H   0  0  0  0  0  0  0  0  0  0  0  0
   60.7347   32.2720   47.5943 H   0  0  0  0  0  0  0  0  0  0  0  0
   60.3163   32.1276   45.8290 H   0  0  0  0  0  0  0  0  0  0  0  0
   60.6785   34.4620   45.4613 H   0  0  0  0  0  0  0  0  0  0  0  0
   60.8388   34.7650   47.2460 H   0  0  0  0  0  0  0  0  0  0  0  0
   62.7691   33.2321   45.4472 H   0  0  0  0  0  0  0  0  0  0  0  0
   63.0295   34.8270   46.2857 H   0  0  0  0  0  0  0  0  0  0  0  0
   62.3890   32.3517   47.8960 H   0  0  0  0  0  0  0  0  0  0  0  0
   64.0792   32.6729   47.2842 H   0  0  0  0  0  0  0  0  0  0  0  0
   64.1348   33.5795   49.4174 H   0  0  0  0  0  0  0  0  0  0  0  0
   63.7341   35.0079   48.3347 H   0  0  0  0  0  0  0  0  0  0  0  0
   62.4919   34.7404   50.6061 H   0  0  0  0  0  0  0  0  0  0  0  0
   61.5828   35.1639   49.0802 H   0  0  0  0  0  0  0  0  0  0  0  0
   60.2880   33.3610   49.2469 H   0  0  0  0  0  0  0  0  0  0  0  0
   61.7248   32.2854   49.4836 H   0  0  0  0  0  0  0  0  0  0  0  0
   61.7595   32.8135   51.8801 H   0  0  0  0  0  0  0  0  0  0  0  0
   60.3676   33.9405   51.6662 H   0  0  0  0  0  0  0  0  0  0  0  0
   61.9161   30.6717   48.9042 H   0  0  0  0  0  0  0  0  0  0  0  0
   61.4392   29.7289   46.6492 H   0  0  0  0  0  0  0  0  0  0  0  0
   60.1314   28.2848   45.2494 H   0  0  0  0  0  0  0  0  0  0  0  0
   55.0932   25.5425   44.9802 H   0  0  0  0  0  0  0  0  0  0  0  0
   54.0478   23.3834   45.6596 H   0  0  0  0  0  0  0  0  0  0  0  0
   58.3022   24.8738   47.8124 H   0  0  0  0  0  0  0  0  0  0  0  0
   54.9286   29.3880   44.2538 H   0  0  0  0  0  0  0  0  0  0  0  0
   55.6744   31.5982   43.3610 H   0  0  0  0  0  0  0  0  0  0  0  0
   59.7107   30.7789   44.6898 H   0  0  0  0  0  0  0  0  0  0  0  0
   57.5932   28.3139   48.0569 H   0  0  0  0  0  0  0  0  0  0  0  0
   58.0549   29.2987   50.2983 H   0  0  0  0  0  0  0  0  0  0  0  0
  1  2  1  0
  2  3  1  0
  3  4  1  0
  4  5  1  0
  5  6  1  0
  6  7  1  0
  7  8  1  0
  8  9  1  0
  9 10  1  0
 10 11  1  0
 11 12  2  0
 11 13  1  0
 13 14  1  0
 14 15  2  0
 15 16  1  0
 16 17  2  0
 17 18  1  0
 18 19  1  0
 19 20  1  0
 20 21  2  0
 20 22  1  0
 19 23  2  0
 23 24  1  0
 24 25  2  0
 25 26  1  0
 26 27  2  0
 27 28  1  0
 27 29  1  0
 29 30  1  0
 29 31  2  0
 23 32  1  0
 32 33  1  0
 33 34  2  0
 34 35  1  0
 35 36  2  0
 36 37  1  0
 36 38  1  0
 38 39  2  0
 17 40  1  0
 40 41  2  0
 41 14  1  0
 39 18  1  0
 31 24  1  0
 39 33  1  0
  1 42  1  0
  1 43  1  0
  1 44  1  0
  2 45  1  0
  2 46  1  0
  3 47  1  0
  3 48  1  0
  4 49  1  0
  4 50  1  0
  5 51  1  0
  5 52  1  0
  6 53  1  0
  6 54  1  0
  7 55  1  0
  7 56  1  0
  8 57  1  0
  8 58  1  0
  9 59  1  0
  9 60  1  0
 10 61  1  0
 10 62  1  0
 15 63  1  0
 16 64  1  0
 18 65  1  6
 25 66  1  0
 26 67  1  0
 31 68  1  0
 34 69  1  0
 35 70  1  0
 38 71  1  0
 40 72  1  0
 41 73  1  0
M  CHG  5  13  -1  22  -1  28  -1  30  -1  37  -1
M  END
>  <UniqueID>  (52) 
46

>  <SMILES>  (52) 
CCCCCCCCCCC(=O)[N-]c1ccc([C@H]2C(C(=O)[O-])=C(c3ccc([O-])c([O-])c3)Oc3ccc([O-])cc32)cc1

>  <Energy>  (52) 
80.74928177131375

>  <Genealogy>  (52) 
CCCCCCCCCCC(=O)[N-]c1ccc(C2C(C(=O)[O-])=C(c3ccc([O-])c([O-])c3)Oc3ccc([O-])cc32)cc1 (protonated)
CCCCCCCCCCC(=O)[N-]c1ccc([C@H]2C(C(=O)[O-])=C(c3ccc([O-])c([O-])c3)Oc3ccc([O-])cc32)cc1 (chirality)
CCCCCCCCCCC(=O)[N-]c1ccc([C@H]2C(C(=O)[O-])=C(c3ccc([O-])c([O-])c3)Oc3ccc([O-])cc32)cc1 (3D coordinates assigned)
CCCCCCCCCCC(=O)[N-]c1ccc([C@H]2C(C(=O)[O-])=C(c3ccc([O-])c([O-])c3)Oc3ccc([O-])cc32)cc1 (nonaromatic ring conformer: 80.74928177131375 kcal/mol)

>  <smiles>  (52) 
CCCCCCCCCCC(=O)Nc1ccc(C2C(C(=O)O)=C(c3ccc(O)c(O)c3)Oc3ccc(O)cc32)cc1

>  <score_type>  (52) 
oracle

>  <origin>  (52) 
adg

>  <m_score__min__energy>  (52) 
-15.01

>  <m_primary>  (52) 
energy

$$$$
52:0
     RDKit          3D

 55 55  0  0  0  0  0  0  0  0999 V2000
   63.1180   31.5850   47.6430 C   0  0  0  0  0  0  0  0  0  0  0  0
   63.7100   32.9860   47.4880 C   0  0  0  0  0  0  0  0  0  0  0  0
   62.9960   33.8150   46.4080 C   0  0  0  0  0  0  0  0  0  0  0  0
   61.5070   34.0260   46.7170 C   0  0  0  0  0  0  0  0  0  0  0  0
   61.2860   34.2420   48.2230 C   0  0  0  0  0  0  0  0  0  0  0  0
   59.8220   34.0170   48.6480 C   0  0  0  0  0  0  0  0  0  0  0  0
   58.9740   33.2790   47.5950 C   0  0  0  0  0  0  0  0  0  0  0  0
   57.9510   34.1970   46.8840 C   0  0  0  0  0  0  0  0  0  0  0  0
   57.6200   33.7220   45.4590 C   0  0  0  0  0  0  0  0  0  0  0  0
   57.9720   32.2410   45.2560 C   0  0  0  0  0  0  0  0  0  0  0  0
   58.1220   31.9020   43.7700 C   0  0  0  0  0  0  0  0  0  0  0  0
   57.5530   30.5110   43.4700 C   0  0  0  0  0  0  0  0  0  0  0  0
   58.3900   29.4950   44.0200 O   0  0  0  0  0  0  0  0  0  0  0  0
   57.9780   28.4900   44.9150 C   0  0  0  0  0  0  0  0  0  0  0  0
   56.6310   28.0890   45.0180 C   0  0  0  0  0  0  0  0  0  0  0  0
   56.2550   27.0840   45.9100 C   0  0  0  0  0  0  0  0  0  0  0  0
   54.9220   26.7000   46.0030 O   0  0  0  0  0  0  0  0  0  0  0  0
   57.2160   26.4610   46.7050 C   0  0  0  0  0  0  0  0  0  0  0  0
   58.5570   26.8400   46.6170 C   0  0  0  0  0  0  0  0  0  0  0  0
   59.4970   26.1890   47.4090 O   0  0  0  0  0  0  0  0  0  0  0  0
   58.9470   27.8690   45.7350 C   0  0  0  0  0  0  0  0  0  0  0  0
   60.4040   28.2600   45.6200 C   0  0  0  0  0  0  0  0  0  0  0  0
   60.6170   29.6920   46.0990 C   0  0  0  0  0  0  0  0  0  0  0  0
   63.0169   31.3458   48.7119 H   0  0  0  0  0  0  0  0  0  0  0  0
   62.1282   31.5501   47.1643 H   0  0  0  0  0  0  0  0  0  0  0  0
   63.7829   30.8510   47.1643 H   0  0  0  0  0  0  0  0  0  0  0  0
   63.6245   33.5127   48.4499 H   0  0  0  0  0  0  0  0  0  0  0  0
   64.7595   32.8712   47.1793 H   0  0  0  0  0  0  0  0  0  0  0  0
   63.4844   34.7981   46.3377 H   0  0  0  0  0  0  0  0  0  0  0  0
   63.0653   33.2601   45.4607 H   0  0  0  0  0  0  0  0  0  0  0  0
   61.1470   34.9095   46.1695 H   0  0  0  0  0  0  0  0  0  0  0  0
   60.9521   33.1290   46.4048 H   0  0  0  0  0  0  0  0  0  0  0  0
   61.9252   33.5386   48.7768 H   0  0  0  0  0  0  0  0  0  0  0  0
   61.5404   35.2880   48.4493 H   0  0  0  0  0  0  0  0  0  0  0  0
   59.8173   33.4239   49.5744 H   0  0  0  0  0  0  0  0  0  0  0  0
   59.3714   35.0115   48.7817 H   0  0  0  0  0  0  0  0  0  0  0  0
   59.6491   32.8549   46.8371 H   0  0  0  0  0  0  0  0  0  0  0  0
   58.4034   32.5002   48.1221 H   0  0  0  0  0  0  0  0  0  0  0  0
   57.0229   34.2137   47.4742 H   0  0  0  0  0  0  0  0  0  0  0  0
   58.4001   35.1981   46.8055 H   0  0  0  0  0  0  0  0  0  0  0  0
   56.5438   33.8603   45.2784 H   0  0  0  0  0  0  0  0  0  0  0  0
   58.2186   34.3159   44.7526 H   0  0  0  0  0  0  0  0  0  0  0  0
   58.9200   32.0245   45.7701 H   0  0  0  0  0  0  0  0  0  0  0  0
   57.1558   31.6308   45.6701 H   0  0  0  0  0  0  0  0  0  0  0  0
   57.5800   32.6500   43.1728 H   0  0  0  0  0  0  0  0  0  0  0  0
   59.1914   31.9090   43.5125 H   0  0  0  0  0  0  0  0  0  0  0  0
   56.5484   30.4290   43.9105 H   0  0  0  0  0  0  0  0  0  0  0  0
   57.5034   30.3766   42.3794 H   0  0  0  0  0  0  0  0  0  0  0  0
   55.8689   28.5727   44.3894 H   0  0  0  0  0  0  0  0  0  0  0  0
   56.9164   25.6671   47.4049 H   0  0  0  0  0  0  0  0  0  0  0  0
   61.0103   27.5793   46.2357 H   0  0  0  0  0  0  0  0  0  0  0  0
   60.7064   28.1913   44.5646 H   0  0  0  0  0  0  0  0  0  0  0  0
   60.6203   29.7141   47.1988 H   0  0  0  0  0  0  0  0  0  0  0  0
   61.5806   30.0653   45.7219 H   0  0  0  0  0  0  0  0  0  0  0  0
   59.8038   30.3296   45.7219 H   0  0  0  0  0  0  0  0  0  0  0  0
  1  2  1  0
  2  3  1  0
  3  4  1  0
  4  5  1  0
  5  6  1  0
  6  7  1  0
  7  8  1  0
  8  9  1  0
  9 10  1  0
 10 11  1  0
 11 12  1  0
 12 13  1  0
 13 14  1  0
 14 15  2  0
 15 16  1  0
 16 17  1  0
 16 18  2  0
 18 19  1  0
 19 20  1  0
 19 21  2  0
 21 22  1  0
 22 23  1  0
 21 14  1  0
  1 24  1  0
  1 25  1  0
  1 26  1  0
  2 27  1  0
  2 28  1  0
  3 29  1  0
  3 30  1  0
  4 31  1  0
  4 32  1  0
  5 33  1  0
  5 34  1  0
  6 35  1  0
  6 36  1  0
  7 37  1  0
  7 38  1  0
  8 39  1  0
  8 40  1  0
  9 41  1  0
  9 42  1  0
 10 43  1  0
 10 44  1  0
 11 45  1  0
 11 46  1  0
 12 47  1  0
 12 48  1  0
 15 49  1  0
 18 50  1  0
 22 51  1  0
 22 52  1  0
 23 53  1  0
 23 54  1  0
 23 55  1  0
M  CHG  2  17  -1  20  -1
M  END
>  <UniqueID>  (53) 
47

>  <SMILES>  (53) 
CCCCCCCCCCCCOc1cc([O-])cc([O-])c1CC

>  <Energy>  (53) 
31.519703464856015

>  <Genealogy>  (53) 
CCCCCCCCCCCCOc1cc([O-])cc([O-])c1CC (protonated)
CCCCCCCCCCCCOc1cc([O-])cc([O-])c1CC (3D coordinates assigned)
CCCCCCCCCCCCOc1cc([O-])cc([O-])c1CC (optimized conformer: 31.519703464856015 kcal/mol)

>  <smiles>  (53) 
CCCCCCCCCCCCOc1cc(O)cc(O)c1CC

>  <score_type>  (53) 
oracle

>  <origin>  (53) 
adg

>  <m_score__min__energy>  (53) 
-11.91

>  <m_primary>  (53) 
energy

$$$$
53:0
     RDKit          3D

 32 33  0  0  0  0  0  0  0  0999 V2000
   55.6140   21.7050   47.8250 C   0  0  0  0  0  0  0  0  0  0  0  0
   56.3340   23.0010   47.6400 C   0  0  0  0  0  0  0  0  0  0  0  0
   57.3220   23.2710   48.3750 O   0  0  0  0  0  0  0  0  0  0  0  0
   55.8470   23.9620   46.6920 N   0  0  0  0  0  0  0  0  0  0  0  0
   56.5350   25.1830   46.3820 C   0  0  0  0  0  0  0  0  0  0  0  0
   57.9260   25.2410   46.5440 C   0  0  0  0  0  0  0  0  0  0  0  0
   58.6210   26.4220   46.2780 C   0  0  0  0  0  0  0  0  0  0  0  0
   57.9330   27.5560   45.8440 C   0  0  0  0  0  0  0  0  0  0  0  0
   56.5450   27.5200   45.6690 C   0  0  0  0  0  0  0  0  0  0  0  0
   55.8780   28.7170   45.2430 N   0  0  0  0  0  0  0  0  0  0  0  0
   56.3500   29.6150   44.2310 C   0  0  0  0  0  0  0  0  0  0  0  0
   56.0780   29.3940   43.0190 O   0  0  0  0  0  0  0  0  0  0  0  0
   57.1970   30.7740   44.6000 C   0  0  0  0  0  0  0  0  0  0  0  0
   57.8140   30.8370   45.8640 C   0  0  0  0  0  0  0  0  0  0  0  0
   58.6110   31.9330   46.2100 C   0  0  0  0  0  0  0  0  0  0  0  0
   58.8010   32.9770   45.3010 C   0  0  0  0  0  0  0  0  0  0  0  0
   58.1930   32.9260   44.0440 C   0  0  0  0  0  0  0  0  0  0  0  0
   57.3960   31.8330   43.6940 C   0  0  0  0  0  0  0  0  0  0  0  0
   55.8350   26.3420   45.9860 C   0  0  0  0  0  0  0  0  0  0  0  0
   54.4440   26.3390   45.9700 O   0  0  0  0  0  0  0  0  0  0  0  0
   55.4997   21.4992   48.8995 H   0  0  0  0  0  0  0  0  0  0  0  0
   54.6210   21.7670   47.3558 H   0  0  0  0  0  0  0  0  0  0  0  0
   56.1912   20.8946   47.3558 H   0  0  0  0  0  0  0  0  0  0  0  0
   54.8770   23.8350   46.3220 H   0  0  0  0  0  0  0  0  0  0  0  0
   58.4739   24.3495   46.8832 H   0  0  0  0  0  0  0  0  0  0  0  0
   59.7123   26.4589   46.4106 H   0  0  0  0  0  0  0  0  0  0  0  0
   58.4856   28.4846   45.6380 H   0  0  0  0  0  0  0  0  0  0  0  0
   57.6682   30.0186   46.5844 H   0  0  0  0  0  0  0  0  0  0  0  0
   59.0892   31.9732   47.1998 H   0  0  0  0  0  0  0  0  0  0  0  0
   59.4285   33.8380   45.5746 H   0  0  0  0  0  0  0  0  0  0  0  0
   58.3421   33.7480   43.3284 H   0  0  0  0  0  0  0  0  0  0  0  0
   56.9203   31.7997   42.7027 H   0  0  0  0  0  0  0  0  0  0  0  0
  1  2  1  0
  2  3  2  0
  2  4  1  0
  4  5  1  0
  5  6  2  0
  6  7  1  0
  7  8  2  0
  8  9  1  0
  9 10  1  0
 10 11  1  0
 11 12  2  0
 11 13  1  0
 13 14  2  0
 14 15  1  0
 15 16  2  0
 16 17  1  0
 17 18  2  0
  9 19  2  0
 19 20  1  0
 19  5  1  0
 18 13  1  0
  1 21  1  0
  1 22  1  0
  1 23  1  0
  4 24  1  0
  6 25  1  0
  7 26  1  0
  8 27  1  0
 14 28  1  0
 15 29  1  0
 16 30  1  0
 17 31  1  0
 18 32  1  0
M  CHG  2  10  -1  20  -1
M  END
>  <UniqueID>  (54) 
48

>  <SMILES>  (54) 
CC(=O)Nc1cccc([N-]C(=O)c2ccccc2)c1[O-]

>  <Energy>  (54) 
42.15172532689926

>  <Genealogy>  (54) 
CC(=O)Nc1cccc([N-]C(=O)c2ccccc2)c1[O-] (protonated)
CC(=O)Nc1cccc([N-]C(=O)c2ccccc2)c1[O-] (3D coordinates assigned)
CC(=O)Nc1cccc([N-]C(=O)c2ccccc2)c1[O-] (optimized conformer: 42.15172532689926 kcal/mol)

>  <smiles>  (54) 
CC(=O)Nc1cccc(NC(=O)c2ccccc2)c1O

>  <score_type>  (54) 
oracle

>  <origin>  (54) 
adg

>  <m_score__min__energy>  (54) 
-13.01

>  <m_primary>  (54) 
energy

$$$$
54:0
     RDKit          3D

 56 60  0  0  0  0  0  0  0  0999 V2000
   54.3520   29.7701   44.0060 H   0  0  0  0  0  0  0  0  0  0  0  0
   55.3900   29.7160   44.3660 C   0  0  0  0  0  0  0  0  0  0  0  0
   55.7820   28.6750   45.1410 N   0  0  0  0  0  0  0  0  0  0  0  0
   57.0530   28.5660   45.6070 C   0  0  0  0  0  0  0  0  0  0  0  0
   57.4060   27.4730   46.4060 C   0  0  0  0  0  0  0  0  0  0  0  0
   56.6550   26.7074   46.6506 H   0  0  0  0  0  0  0  0  0  0  0  0
   58.7090   27.3510   46.8940 C   0  0  0  0  0  0  0  0  0  0  0  0
   58.9820   26.4899   47.5217 H   0  0  0  0  0  0  0  0  0  0  0  0
   59.6660   28.3210   46.5860 C   0  0  0  0  0  0  0  0  0  0  0  0
   60.6912   28.2206   46.9720 H   0  0  0  0  0  0  0  0  0  0  0  0
   59.3270   29.4180   45.7900 C   0  0  0  0  0  0  0  0  0  0  0  0
   60.0859   30.1785   45.5541 H   0  0  0  0  0  0  0  0  0  0  0  0
   58.0150   29.5550   45.2870 C   0  0  0  0  0  0  0  0  0  0  0  0
   57.6300   30.6500   44.4790 C   0  0  0  0  0  0  0  0  0  0  0  0
   58.5050   31.5700   44.1800 N   0  0  0  0  0  0  0  0  0  0  0  0
   58.2250   32.9080   43.6580 C   0  0  0  0  0  0  0  0  0  0  0  0
   57.6713   32.8207   42.7115 H   0  0  0  0  0  0  0  0  0  0  0  0
   59.1759   33.4344   43.4884 H   0  0  0  0  0  0  0  0  0  0  0  0
   57.3870   33.7000   44.6630 C   0  0  0  0  0  0  0  0  0  0  0  0
   56.4139   33.2030   44.7897 H   0  0  0  0  0  0  0  0  0  0  0  0
   57.2528   34.7214   44.2772 H   0  0  0  0  0  0  0  0  0  0  0  0
   58.0760   33.7810   46.0010 C   0  0  0  0  0  0  0  0  0  0  0  0
   57.6750   32.9480   47.0560 C   0  0  0  0  0  0  0  0  0  0  0  0
   56.8130   32.2773   46.9255 H   0  0  0  0  0  0  0  0  0  0  0  0
   58.3640   32.9650   48.2720 C   0  0  0  0  0  0  0  0  0  0  0  0
   58.0347   32.3139   49.0952 H   0  0  0  0  0  0  0  0  0  0  0  0
   59.4760   33.8090   48.4510 C   0  0  0  0  0  0  0  0  0  0  0  0
   60.2540   33.8120   49.7140 C   0  0  0  0  0  0  0  0  0  0  0  0
   61.5730   34.1490   49.7280 N   0  0  0  0  0  0  0  0  0  0  0  0
   62.1270   34.0200   50.9510 C   0  0  0  0  0  0  0  0  0  0  0  0
   63.5960   34.1850   51.2080 C   0  0  0  0  0  0  0  0  0  0  0  0
   63.7686   34.2039   52.2942 H   0  0  0  0  0  0  0  0  0  0  0  0
   63.9235   35.1261   50.7421 H   0  0  0  0  0  0  0  0  0  0  0  0
   64.3760   33.0830   50.6190 N   0  0  0  0  0  0  0  0  0  0  0  0
   64.5050   32.3230   51.3300 H   0  0  0  0  0  0  0  0  0  0  0  0
   65.3290   33.4410   50.3740 H   0  0  0  0  0  0  0  0  0  0  0  0
   63.7480   32.5640   49.4260 C   0  0  0  0  0  0  0  0  0  0  0  0
   62.8810   31.4570   49.4980 C   0  0  0  0  0  0  0  0  0  0  0  0
   62.7213   30.9490   50.4605 H   0  0  0  0  0  0  0  0  0  0  0  0
   62.2220   31.0000   48.3530 C   0  0  0  0  0  0  0  0  0  0  0  0
   61.5431   30.1369   48.4174 H   0  0  0  0  0  0  0  0  0  0  0  0
   62.4250   31.6390   47.1260 C   0  0  0  0  0  0  0  0  0  0  0  0
   61.9042   31.2795   46.2263 H   0  0  0  0  0  0  0  0  0  0  0  0
   63.2890   32.7340   47.0420 C   0  0  0  0  0  0  0  0  0  0  0  0
   63.4518   33.2324   46.0750 H   0  0  0  0  0  0  0  0  0  0  0  0
   63.9470   33.1970   48.1860 C   0  0  0  0  0  0  0  0  0  0  0  0
   64.6240   34.0611   48.1155 H   0  0  0  0  0  0  0  0  0  0  0  0
   61.0090   33.4540   52.0680 S   0  0  0  0  0  0  0  0  0  0  0  0
   59.7520   33.4030   50.9530 C   0  0  0  0  0  0  0  0  0  0  0  0
   58.7152   33.1005   51.1619 H   0  0  0  0  0  0  0  0  0  0  0  0
   59.8650   34.6500   47.3920 C   0  0  0  0  0  0  0  0  0  0  0  0
   60.7213   35.3282   47.5215 H   0  0  0  0  0  0  0  0  0  0  0  0
   59.1750   34.6320   46.1790 C   0  0  0  0  0  0  0  0  0  0  0  0
   59.4958   35.2898   45.3578 H   0  0  0  0  0  0  0  0  0  0  0  0
   56.2970   30.7190   44.0230 C   0  0  0  0  0  0  0  0  0  0  0  0
   55.9727   31.5634   43.3971 H   0  0  0  0  0  0  0  0  0  0  0  0
  1  2  1  0
  2  3  1  0
  3  4  1  0
  4  5  2  0
  5  6  1  0
  5  7  1  0
  7  8  1  0
  7  9  2  0
  9 10  1  0
  9 11  1  0
 11 12  1  0
 11 13  2  0
 13 14  1  0
 14 15  2  0
 15 16  1  0
 16 17  1  0
 16 18  1  0
 16 19  1  0
 19 20  1  0
 19 21  1  0
 19 22  1  0
 22 23  2  0
 23 24  1  0
 23 25  1  0
 25 26  1  0
 25 27  2  0
 27 28  1  0
 28 29  1  0
 29 30  2  0
 30 31  1  0
 31 32  1  0
 31 33  1  0
 31 34  1  0
 34 35  1  0
 34 36  1  0
 34 37  1  0
 37 38  2  0
 38 39  1  0
 38 40  1  0
 40 41  1  0
 40 42  2  0
 42 43  1  0
 42 44  1  0
 44 45  1  0
 44 46  2  0
 46 47  1  0
 30 48  1  0
 48 49  1  0
 49 50  1  0
 27 51  1  0
 51 52  1  0
 51 53  2  0
 53 54  1  0
 14 55  1  0
 55 56  1  0
 55  2  2  0
 13  4  1  0
 53 22  1  0
 49 28  2  0
 46 37  1  0
M  CHG  2   3  -1  34   1
M  END
>  <UniqueID>  (55) 
49

>  <SMILES>  (55) 
c1ccc([NH2+]Cc2nc(-c3ccc(CC/N=c4\cc[n-]c5ccccc45)cc3)cs2)cc1

>  <Energy>  (55) 
94.52155614752789

>  <Genealogy>  (55) 
c1ccc([NH2+]Cc2nc(-c3ccc(CCN=c4cc[n-]c5ccccc45)cc3)cs2)cc1 (protonated)
c1ccc([NH2+]Cc2nc(-c3ccc(CC/N=c4\cc[n-]c5ccccc45)cc3)cs2)cc1 (cis-trans isomerization)
c1ccc([NH2+]Cc2nc(-c3ccc(CC/N=c4\cc[n-]c5ccccc45)cc3)cs2)cc1 (3D coordinates assigned)
c1ccc([NH2+]Cc2nc(-c3ccc(CC/N=c4\cc[n-]c5ccccc45)cc3)cs2)cc1 (optimized conformer: 94.52155614752789 kcal/mol)

>  <smiles>  (55) 
c1ccc(NCc2nc(-c3ccc(CCN=c4cc[nH]c5ccccc45)cc3)cs2)cc1

>  <score_type>  (55) 
oracle

>  <origin>  (55) 
adg

>  <m_score__min__energy>  (55) 
-10.380000000000001

>  <m_primary>  (55) 
energy

$$$$
55:0
     RDKit          3D

 55 58  0  0  0  0  0  0  0  0999 V2000
   62.3530   30.9170   51.8210 C   0  0  0  0  0  0  0  0  0  0  0  0
   62.1300   31.0270   50.5110 C   0  0  0  0  0  0  0  0  0  0  0  0
   61.2900   30.2200   49.8320 N   0  0  0  0  0  0  0  0  0  0  0  0
   61.3000   30.6310   48.5440 C   0  0  0  0  0  0  0  0  0  0  0  0
   60.5670   30.0860   47.5580 C   0  0  0  0  0  0  0  0  0  0  0  0
   59.8290   28.8160   47.6950 C   0  0  0  0  0  0  0  0  0  0  0  0
   60.1740   27.6970   48.4460 C   0  0  0  0  0  0  0  0  0  0  0  0
   61.2850   27.6110   49.2780 O   0  0  0  0  0  0  0  0  0  0  0  0
   59.3200   26.6640   48.2460 N   0  0  0  0  0  0  0  0  0  0  0  0
   58.4430   27.1350   47.3400 C   0  0  0  0  0  0  0  0  0  0  0  0
   57.3730   26.4400   46.7830 C   0  0  0  0  0  0  0  0  0  0  0  0
   56.5890   27.0940   45.8170 C   0  0  0  0  0  0  0  0  0  0  0  0
   56.8950   28.4220   45.4180 C   0  0  0  0  0  0  0  0  0  0  0  0
   56.1390   29.0850   44.3970 N   0  0  0  0  0  0  0  0  0  0  0  0
   56.3390   30.4380   43.9620 C   0  0  0  0  0  0  0  0  0  0  0  0
   56.5860   30.6590   42.7480 O   0  0  0  0  0  0  0  0  0  0  0  0
   56.2730   31.5480   44.8690 N   0  0  0  0  0  0  0  0  0  0  0  0
   57.3530   32.4320   45.2050 C   0  0  0  0  0  0  0  0  0  0  0  0
   58.0120   33.1180   44.1780 C   0  0  0  0  0  0  0  0  0  0  0  0
   59.0870   33.9620   44.4690 C   0  0  0  0  0  0  0  0  0  0  0  0
   59.5060   34.1340   45.7910 C   0  0  0  0  0  0  0  0  0  0  0  0
   60.5570   34.9490   46.0620 F   0  0  0  0  0  0  0  0  0  0  0  0
   58.8360   33.4740   46.8290 C   0  0  0  0  0  0  0  0  0  0  0  0
   59.3970   33.6980   48.6430 Br  0  0  0  0  0  0  0  0  0  0  0  0
   57.7500   32.6400   46.5390 C   0  0  0  0  0  0  0  0  0  0  0  0
   57.9660   29.1070   46.0230 C   0  0  0  0  0  0  0  0  0  0  0  0
   58.7260   28.4260   46.9730 C   0  0  0  0  0  0  0  0  0  0  0  0
   62.1510   31.7240   48.4000 C   0  0  0  0  0  0  0  0  0  0  0  0
   62.4900   32.4350   47.1230 C   0  0  0  0  0  0  0  0  0  0  0  0
   62.6780   31.9780   49.6600 C   0  0  0  0  0  0  0  0  0  0  0  0
   63.6460   33.0320   50.0220 C   0  0  0  0  0  0  0  0  0  0  0  0
   63.3450   34.2340   49.7840 O   0  0  0  0  0  0  0  0  0  0  0  0
   64.9220   32.7140   50.6140 N   0  0  0  0  0  0  0  0  0  0  0  0
   65.4680   31.3560   50.5160 C   0  0  0  0  0  0  0  0  0  0  0  0
   65.7180   33.7880   51.2160 C   0  0  0  0  0  0  0  0  0  0  0  0
   63.0506   31.6058   52.3199 H   0  0  0  0  0  0  0  0  0  0  0  0
   61.8394   30.1374   52.4028 H   0  0  0  0  0  0  0  0  0  0  0  0
   60.7100   29.4570   50.2490 H   0  0  0  0  0  0  0  0  0  0  0  0
   60.5145   30.6163   46.5957 H   0  0  0  0  0  0  0  0  0  0  0  0
   61.2020   27.7860   50.2720 H   0  0  0  0  0  0  0  0  0  0  0  0
   57.1475   25.4081   47.0902 H   0  0  0  0  0  0  0  0  0  0  0  0
   55.7314   26.5729   45.3664 H   0  0  0  0  0  0  0  0  0  0  0  0
   57.6818   32.9920   43.1363 H   0  0  0  0  0  0  0  0  0  0  0  0
   59.6045   34.4921   43.6558 H   0  0  0  0  0  0  0  0  0  0  0  0
   57.2050   32.1455   47.3566 H   0  0  0  0  0  0  0  0  0  0  0  0
   58.1963   30.1485   45.7542 H   0  0  0  0  0  0  0  0  0  0  0  0
   62.9527   33.4055   47.3554 H   0  0  0  0  0  0  0  0  0  0  0  0
   63.1936   31.8238   46.5387 H   0  0  0  0  0  0  0  0  0  0  0  0
   61.5722   32.5969   46.5387 H   0  0  0  0  0  0  0  0  0  0  0  0
   65.6303   30.9523   51.5263 H   0  0  0  0  0  0  0  0  0  0  0  0
   64.7582   30.7137   49.9741 H   0  0  0  0  0  0  0  0  0  0  0  0
   66.4249   31.3837   49.9741 H   0  0  0  0  0  0  0  0  0  0  0  0
   65.6635   33.7145   52.3122 H   0  0  0  0  0  0  0  0  0  0  0  0
   66.7654   33.6929   50.8937 H   0  0  0  0  0  0  0  0  0  0  0  0
   65.3223   34.7625   50.8937 H   0  0  0  0  0  0  0  0  0  0  0  0
  1  2  2  0
  2  3  1  0
  3  4  1  0
  4  5  2  3
  5  6  1  0
  6  7  2  0
  7  8  1  0
  7  9  1  0
  9 10  1  0
 10 11  2  0
 11 12  1  0
 12 13  2  0
 13 14  1  0
 14 15  1  0
 15 16  2  0
 15 17  1  0
 17 18  1  0
 18 19  2  0
 19 20  1  0
 20 21  2  0
 21 22  1  0
 21 23  1  0
 23 24  1  0
 23 25  2  0
 13 26  1  0
 26 27  2  0
  4 28  1  0
 28 29  1  0
 28 30  2  0
 30 31  1  0
 31 32  2  0
 31 33  1  0
 33 34  1  0
 33 35  1  0
 30  2  1  0
 27  6  1  0
 27 10  1  0
 25 18  1  0
  1 36  1  0
  1 37  1  0
  3 38  1  0
  5 39  1  0
  8 40  1  0
 11 41  1  0
 12 42  1  0
 19 43  1  0
 20 44  1  0
 25 45  1  0
 26 46  1  0
 29 47  1  0
 29 48  1  0
 29 49  1  0
 34 50  1  0
 34 51  1  0
 34 52  1  0
 35 53  1  0
 35 54  1  0
 35 55  1  0
M  CHG  3   9  -1  14  -1  17  -1
M  END
>  <UniqueID>  (56) 
50

>  <SMILES>  (56) 
C=c1[nH]c(=Cc2c(O)[n-]c3ccc([N-]C(=O)[N-]c4ccc(F)c(Br)c4)cc23)c(C)c1C(=O)N(C)C

>  <Energy>  (56) 
133.26090550211572

>  <Genealogy>  (56) 
C=c1[nH]c(=Cc2c(O)[n-]c3ccc([N-]C(=O)[N-]c4ccc(F)c(Br)c4)cc23)c(C)c1C(=O)N(C)C (protonated)
C=c1[nH]c(=Cc2c(O)[n-]c3ccc([N-]C(=O)[N-]c4ccc(F)c(Br)c4)cc23)c(C)c1C(=O)N(C)C (3D coordinates assigned)
C=c1[nH]c(=Cc2c(O)[n-]c3ccc([N-]C(=O)[N-]c4ccc(F)c(Br)c4)cc23)c(C)c1C(=O)N(C)C (optimized conformer: 133.26090550211572 kcal/mol)

>  <smiles>  (56) 
C=c1[nH]c(=Cc2c(O)[nH]c3ccc(NC(=O)Nc4ccc(F)c(Br)c4)cc23)c(C)c1C(=O)N(C)C

>  <score_type>  (56) 
oracle

>  <origin>  (56) 
adg

>  <m_score__min__energy>  (56) 
-12.720000000000001

>  <m_primary>  (56) 
energy

$$$$
56:0
     RDKit          3D

 53 56  0  0  0  0  0  0  0  0999 V2000
   58.6020   32.6750   48.7280 C   0  0  0  0  0  0  0  0  0  0  0  0
   58.8140   33.3590   47.4100 C   0  0  0  0  0  0  0  0  0  0  0  0
   59.4670   34.6090   47.3310 C   0  0  0  0  0  0  0  0  0  0  0  0
   59.6570   35.2480   46.0850 C   0  0  0  0  0  0  0  0  0  0  0  0
   59.1950   34.6530   44.8990 C   0  0  0  0  0  0  0  0  0  0  0  0
   58.5430   33.4260   45.0010 C   0  0  0  0  0  0  0  0  0  0  0  0
   58.3530   32.7940   46.2130 C   0  0  0  0  0  0  0  0  0  0  0  0
   57.7190   31.6090   46.0530 N   0  0  0  0  0  0  0  0  0  0  0  0
   57.4990   31.5010   44.7200 C   0  0  0  0  0  0  0  0  0  0  0  0
   56.9050   30.4330   44.0280 C   0  0  0  0  0  0  0  0  0  0  0  0
   56.3270   29.2640   44.7180 C   0  0  0  0  0  0  0  0  0  0  0  0
   55.1550   29.3400   45.1770 O   0  0  0  0  0  0  0  0  0  0  0  0
   57.1070   28.0740   44.9180 N   0  0  0  0  0  0  0  0  0  0  0  0
   56.6070   26.9080   45.6460 C   0  0  0  0  0  0  0  0  0  0  0  0
   57.5920   26.4860   46.7440 C   0  0  0  0  0  0  0  0  0  0  0  0
   58.2560   27.6770   47.4550 C   0  0  0  0  0  0  0  0  0  0  0  0
   59.7310   27.6170   47.3420 N   0  0  0  0  0  0  0  0  0  0  0  0
   60.3790   28.8500   47.8340 C   0  0  0  0  0  0  0  0  0  0  0  0
   60.1180   30.0560   46.9110 C   0  0  0  0  0  0  0  0  0  0  0  0
   60.1150   29.6770   45.4190 C   0  0  0  0  0  0  0  0  0  0  0  0
   60.8380   28.3540   45.1710 C   0  0  0  0  0  0  0  0  0  0  0  0
   60.1950   27.2120   45.9850 C   0  0  0  0  0  0  0  0  0  0  0  0
   56.8720   30.5100   42.6170 C   0  0  0  0  0  0  0  0  0  0  0  0
   57.3910   31.6350   41.9410 C   0  0  0  0  0  0  0  0  0  0  0  0
   57.9640   32.6980   42.6570 C   0  0  0  0  0  0  0  0  0  0  0  0
   58.0050   32.5960   44.0450 C   0  0  0  0  0  0  0  0  0  0  0  0
   58.8200   33.3782   49.5453 H   0  0  0  0  0  0  0  0  0  0  0  0
   57.5574   32.3385   48.8026 H   0  0  0  0  0  0  0  0  0  0  0  0
   59.2732   31.8067   48.8026 H   0  0  0  0  0  0  0  0  0  0  0  0
   59.8319   35.0907   48.2501 H   0  0  0  0  0  0  0  0  0  0  0  0
   60.1710   36.2196   46.0433 H   0  0  0  0  0  0  0  0  0  0  0  0
   59.3430   35.1392   43.9235 H   0  0  0  0  0  0  0  0  0  0  0  0
   57.4880   30.9150   46.7970 H   0  0  0  0  0  0  0  0  0  0  0  0
   58.1110   28.0710   44.6270 H   0  0  0  0  0  0  0  0  0  0  0  0
   55.6397   27.1581   46.1063 H   0  0  0  0  0  0  0  0  0  0  0  0
   56.4907   26.0742   44.9380 H   0  0  0  0  0  0  0  0  0  0  0  0
   57.0472   25.8919   47.4925 H   0  0  0  0  0  0  0  0  0  0  0  0
   58.3926   25.9079   46.2593 H   0  0  0  0  0  0  0  0  0  0  0  0
   57.8993   28.6116   46.9975 H   0  0  0  0  0  0  0  0  0  0  0  0
   57.9877   27.6383   48.5211 H   0  0  0  0  0  0  0  0  0  0  0  0
   59.9873   29.0800   48.8358 H   0  0  0  0  0  0  0  0  0  0  0  0
   61.4644   28.6732   47.8580 H   0  0  0  0  0  0  0  0  0  0  0  0
   59.1389   30.4878   47.1657 H   0  0  0  0  0  0  0  0  0  0  0  0
   60.9352   30.7755   47.0678 H   0  0  0  0  0  0  0  0  0  0  0  0
   59.0737   29.5839   45.0769 H   0  0  0  0  0  0  0  0  0  0  0  0
   60.6432   30.4660   44.8635 H   0  0  0  0  0  0  0  0  0  0  0  0
   60.7818   28.1085   44.1002 H   0  0  0  0  0  0  0  0  0  0  0  0
   61.8861   28.4626   45.4868 H   0  0  0  0  0  0  0  0  0  0  0  0
   59.3289   26.8327   45.4229 H   0  0  0  0  0  0  0  0  0  0  0  0
   60.9743   26.4496   46.1312 H   0  0  0  0  0  0  0  0  0  0  0  0
   56.4361   29.6823   42.0382 H   0  0  0  0  0  0  0  0  0  0  0  0
   57.3461   31.6793   40.8428 H   0  0  0  0  0  0  0  0  0  0  0  0
   58.3667   33.5811   42.1393 H   0  0  0  0  0  0  0  0  0  0  0  0
  1  2  1  0
  2  3  2  0
  3  4  1  0
  4  5  2  0
  5  6  1  0
  6  7  2  0
  7  8  1  0
  8  9  1  0
  9 10  2  0
 10 11  1  0
 11 12  2  0
 11 13  1  0
 13 14  1  0
 14 15  1  0
 15 16  1  0
 16 17  1  0
 17 18  1  0
 18 19  1  0
 19 20  1  0
 20 21  1  0
 21 22  1  0
 10 23  1  0
 23 24  2  0
 24 25  1  0
 25 26  2  0
  7  2  1  0
 26  9  1  0
 26  6  1  0
 22 17  1  0
  1 27  1  0
  1 28  1  0
  1 29  1  0
  3 30  1  0
  4 31  1  0
  5 32  1  0
  8 33  1  0
 13 34  1  0
 14 35  1  0
 14 36  1  0
 15 37  1  0
 15 38  1  0
 16 39  1  0
 16 40  1  0
 18 41  1  0
 18 42  1  0
 19 43  1  0
 19 44  1  0
 20 45  1  0
 20 46  1  0
 21 47  1  0
 21 48  1  0
 22 49  1  0
 22 50  1  0
 23 51  1  0
 24 52  1  0
 25 53  1  0
M  END
>  <UniqueID>  (57) 
51

>  <SMILES>  (57) 
Cc1cccc2c1[nH]c1c(C(=O)NCCCN3CCCCC3)cccc12

>  <Energy>  (57) 
102.1830976151595

>  <Genealogy>  (57) 
Cc1cccc2c1[nH]c1c(C(=O)NCCCN3CCCCC3)cccc12 (3D coordinates assigned)
Cc1cccc2c1[nH]c1c(C(=O)NCCCN3CCCCC3)cccc12 (nonaromatic ring conformer: 102.1830976151595 kcal/mol)

>  <smiles>  (57) 
Cc1cccc2c1[nH]c1c(C(=O)NCCCN3CCCCC3)cccc12

>  <score_type>  (57) 
oracle

>  <origin>  (57) 
adg

>  <m_score__min__energy>  (57) 
-9.1300000000000008

>  <m_primary>  (57) 
energy

$$$$
57:0
     RDKit          3D

 43 46  0  0  0  0  0  0  0  0999 V2000
   64.0725   33.4400   48.8879 H   0  0  0  0  0  0  0  0  0  0  0  0
   63.1120   33.6690   48.4030 C   0  0  0  0  0  0  0  0  0  0  0  0
   62.8510   33.8080   46.7440 S   0  0  0  0  0  0  0  0  0  0  0  0
   61.2170   34.1480   46.9260 C   0  0  0  0  0  0  0  0  0  0  0  0
   60.4140   34.3630   45.9280 N   0  0  0  0  0  0  0  0  0  0  0  0
   58.7240   33.9720   45.9200 S   0  0  0  0  0  0  0  0  0  0  0  0
   58.1310   34.3310   47.2530 O   0  0  0  0  0  0  0  0  0  0  0  0
   58.0400   34.7720   44.8490 O   0  0  0  0  0  0  0  0  0  0  0  0
   58.4990   32.2580   45.5820 C   0  0  0  0  0  0  0  0  0  0  0  0
   59.1700   31.2990   46.3490 C   0  0  0  0  0  0  0  0  0  0  0  0
   59.8442   31.6180   47.1575 H   0  0  0  0  0  0  0  0  0  0  0  0
   58.9870   29.9380   46.0920 C   0  0  0  0  0  0  0  0  0  0  0  0
   59.5161   29.1916   46.7026 H   0  0  0  0  0  0  0  0  0  0  0  0
   58.1310   29.5140   45.0580 C   0  0  0  0  0  0  0  0  0  0  0  0
   57.9350   28.0680   44.7850 C   0  0  0  0  0  0  0  0  0  0  0  0
   57.9710   27.5780   43.4680 C   0  0  0  0  0  0  0  0  0  0  0  0
   58.1462   28.2718   42.6325 H   0  0  0  0  0  0  0  0  0  0  0  0
   57.7860   26.2160   43.2110 C   0  0  0  0  0  0  0  0  0  0  0  0
   57.8184   25.8469   42.1753 H   0  0  0  0  0  0  0  0  0  0  0  0
   57.5590   25.3150   44.2650 C   0  0  0  0  0  0  0  0  0  0  0  0
   57.3620   23.8680   43.9920 C   0  0  0  0  0  0  0  0  0  0  0  0
   56.4640   23.4440   42.9940 C   0  0  0  0  0  0  0  0  0  0  0  0
   55.9042   24.1895   42.4102 H   0  0  0  0  0  0  0  0  0  0  0  0
   56.2790   22.0810   42.7400 C   0  0  0  0  0  0  0  0  0  0  0  0
   55.5741   21.7591   41.9593 H   0  0  0  0  0  0  0  0  0  0  0  0
   56.9870   21.1280   43.4750 C   0  0  0  0  0  0  0  0  0  0  0  0
   56.8409   20.0567   43.2723 H   0  0  0  0  0  0  0  0  0  0  0  0
   57.8810   21.5360   44.4680 C   0  0  0  0  0  0  0  0  0  0  0  0
   58.4381   20.7849   45.0472 H   0  0  0  0  0  0  0  0  0  0  0  0
   58.0690   22.8970   44.7270 C   0  0  0  0  0  0  0  0  0  0  0  0
   58.7742   23.2115   45.5105 H   0  0  0  0  0  0  0  0  0  0  0  0
   57.5220   25.8050   45.5820 C   0  0  0  0  0  0  0  0  0  0  0  0
   57.3452   25.1114   46.4173 H   0  0  0  0  0  0  0  0  0  0  0  0
   57.7080   27.1660   45.8390 C   0  0  0  0  0  0  0  0  0  0  0  0
   57.6765   27.5346   46.8749 H   0  0  0  0  0  0  0  0  0  0  0  0
   57.4660   30.4850   44.2870 C   0  0  0  0  0  0  0  0  0  0  0  0
   56.7963   30.1709   43.4728 H   0  0  0  0  0  0  0  0  0  0  0  0
   57.6500   31.8460   44.5480 C   0  0  0  0  0  0  0  0  0  0  0  0
   57.1254   32.5964   43.9383 H   0  0  0  0  0  0  0  0  0  0  0  0
   60.8540   34.1600   48.2300 N   0  0  0  0  0  0  0  0  0  0  0  0
   59.8930   34.3490   48.5900 H   0  0  0  0  0  0  0  0  0  0  0  0
   61.9020   33.8940   49.0540 C   0  0  0  0  0  0  0  0  0  0  0  0
   61.8019   33.8593   50.1489 H   0  0  0  0  0  0  0  0  0  0  0  0
  1  2  1  0
  2  3  1  0
  3  4  1  0
  4  5  2  0
  5  6  1  0
  6  7  2  0
  6  8  2  0
  6  9  1  0
  9 10  2  0
 10 11  1  0
 10 12  1  0
 12 13  1  0
 12 14  2  0
 14 15  1  0
 15 16  2  0
 16 17  1  0
 16 18  1  0
 18 19  1  0
 18 20  2  0
 20 21  1  0
 21 22  2  0
 22 23  1  0
 22 24  1  0
 24 25  1  0
 24 26  2  0
 26 27  1  0
 26 28  1  0
 28 29  1  0
 28 30  2  0
 30 31  1  0
 20 32  1  0
 32 33  1  0
 32 34  2  0
 34 35  1  0
 14 36  1  0
 36 37  1  0
 36 38  2  0
 38 39  1  0
  4 40  1  0
 40 41  1  0
 40 42  1  0
 42 43  1  0
 42  2  2  0
 38  9  1  0
 34 15  1  0
 30 21  1  0
M  END
>  <UniqueID>  (58) 
52

>  <SMILES>  (58) 
O=S(=O)(/N=c1\[nH]ccs1)c1ccc(-c2ccc(-c3ccccc3)cc2)cc1

>  <Energy>  (58) 
91.56091031892342

>  <Genealogy>  (58) 
O=S(=O)(/N=c1\[nH]ccs1)c1ccc(-c2ccc(-c3ccccc3)cc2)cc1 (cis-trans isomerization)
O=S(=O)(/N=c1\[nH]ccs1)c1ccc(-c2ccc(-c3ccccc3)cc2)cc1 (3D coordinates assigned)
O=S(=O)(/N=c1\[nH]ccs1)c1ccc(-c2ccc(-c3ccccc3)cc2)cc1 (optimized conformer: 91.56091031892342 kcal/mol)

>  <smiles>  (58) 
O=S(=O)(N=c1[nH]ccs1)c1ccc(-c2ccc(-c3ccccc3)cc2)cc1

>  <score_type>  (58) 
oracle

>  <origin>  (58) 
adg

>  <m_score__min__energy>  (58) 
-8.9299999999999997

>  <m_primary>  (58) 
energy

$$$$
58:0
     RDKit          3D

 41 44  0  0  1  0  0  0  0  0999 V2000
   58.2530   21.5120   43.9440 N   0  0  0  0  0  0  0  0  0  0  0  0
   56.7580   22.3210   44.2010 S   0  0  0  0  0  0  0  0  0  0  0  0
   55.9400   22.3480   42.9500 O   0  0  0  0  0  0  0  0  0  0  0  0
   56.0370   21.5630   45.2770 O   0  0  0  0  0  0  0  0  0  0  0  0
   57.0800   23.9510   44.8040 C   0  0  0  0  0  0  0  0  0  0  0  0
   57.6650   24.8920   43.9860 C   0  0  0  0  0  0  0  0  0  0  0  0
   57.9380   26.1790   44.4020 C   0  0  0  0  0  0  0  0  0  0  0  0
   57.6000   26.5050   45.7010 C   0  0  0  0  0  0  0  0  0  0  0  0
   57.8740   27.8410   46.1650 N   0  0  0  0  0  0  0  0  0  0  0  0
   57.3650   28.8140   45.4880 C   0  0  0  0  0  0  0  0  0  0  0  0
   57.9060   30.0370   45.6660 N   0  0  0  0  0  0  0  0  0  0  0  0
   57.4440   31.1440   44.9990 C   0  0  0  0  0  0  0  0  0  0  0  0
   58.1310   32.3750   45.2630 C   0  0  0  0  0  0  0  0  0  0  0  0
   58.4450   33.2910   44.2470 C   0  0  0  0  0  0  0  0  0  0  0  0
   59.1060   34.3400   44.7720 N   0  0  0  0  0  0  0  0  0  0  0  0
   59.2520   34.1710   46.0930 C   0  0  0  0  0  0  0  0  0  0  0  0
   59.8560   34.9560   47.0410 C   0  0  0  0  0  0  0  0  0  0  0  0
   59.8830   34.5440   48.3540 C   0  0  0  0  0  0  0  0  0  0  0  0
   59.2850   33.3370   48.6440 C   0  0  0  0  0  0  0  0  0  0  0  0
   58.6840   32.5600   47.6950 C   0  0  0  0  0  0  0  0  0  0  0  0
   58.6460   32.9500   46.3930 C   0  0  0  0  0  0  0  0  0  0  0  0
   56.4120   30.9120   44.1530 C   0  0  0  0  0  0  0  0  0  0  0  0
   55.8580   29.6320   43.9770 C   0  0  0  0  0  0  0  0  0  0  0  0
   56.3420   28.5900   44.6500 N   0  0  0  0  0  0  0  0  0  0  0  0
   57.0150   25.5630   46.5230 C   0  0  0  0  0  0  0  0  0  0  0  0
   56.7370   24.2730   46.1140 C   0  0  0  0  0  0  0  0  0  0  0  0
   58.6170   21.2160   44.8900 H   0  0  0  0  0  0  0  0  0  0  0  0
   58.1240   20.6740   43.3180 H   0  0  0  0  0  0  0  0  0  0  0  0
   57.9259   24.6052   42.9566 H   0  0  0  0  0  0  0  0  0  0  0  0
   58.4044   26.9132   43.7286 H   0  0  0  0  0  0  0  0  0  0  0  0
   58.1899   33.1703   43.1838 H   0  0  0  0  0  0  0  0  0  0  0  0
   59.4630   35.1780   44.2460 H   0  0  0  0  0  0  0  0  0  0  0  0
   60.3176   35.9121   46.7532 H   0  0  0  0  0  0  0  0  0  0  0  0
   60.3607   35.1513   49.1370 H   0  0  0  0  0  0  0  0  0  0  0  0
   59.2919   32.9836   49.6857 H   0  0  0  0  0  0  0  0  0  0  0  0
   58.2240   31.6048   47.9883 H   0  0  0  0  0  0  0  0  0  0  0  0
   55.9927   31.7547   43.5837 H   0  0  0  0  0  0  0  0  0  0  0  0
   55.0196   29.4904   43.2791 H   0  0  0  0  0  0  0  0  0  0  0  0
   55.9110   27.6520   44.4990 H   0  0  0  0  0  0  0  0  0  0  0  0
   56.7580   25.8531   47.5524 H   0  0  0  0  0  0  0  0  0  0  0  0
   56.2696   23.5396   46.7876 H   0  0  0  0  0  0  0  0  0  0  0  0
  1  2  1  0
  2  3  2  0
  2  4  2  0
  2  5  1  0
  5  6  2  0
  6  7  1  0
  7  8  2  0
  8  9  1  0
  9 10  2  0
 10 11  1  0
 11 12  2  0
 12 13  1  0
 13 14  2  0
 14 15  1  0
 15 16  1  0
 16 17  2  0
 17 18  1  0
 18 19  2  0
 19 20  1  0
 20 21  2  0
 12 22  1  0
 22 23  2  0
 23 24  1  0
  8 25  1  0
 25 26  2  0
 26  5  1  0
 24 10  1  0
 21 13  1  0
 21 16  1  0
  1 27  1  0
  1 28  1  0
  6 29  1  0
  7 30  1  0
 14 31  1  0
 15 32  1  0
 17 33  1  0
 18 34  1  0
 19 35  1  0
 20 36  1  0
 22 37  1  0
 23 38  1  0
 24 39  1  0
 25 40  1  0
 26 41  1  0
M  END
>  <smiles>  (59) 
NS(=O)(=O)c1ccc(N=c2nc(-c3c[nH]c4ccccc34)cc[nH]2)cc1

>  <score_type>  (59) 
oracle

>  <origin>  (59) 
adg

>  <m_score__min__energy>  (59) 
-9.6300000000000008

>  <m_primary>  (59) 
energy

$$$$
59:0
     RDKit          3D

 24 24  0  0  0  0  0  0  0  0999 V2000
   54.4300   24.1950   45.9490 O   0  0  0  0  0  0  0  0  0  0  0  0
   55.6540   24.5050   45.9050 C   0  0  0  0  0  0  0  0  0  0  0  0
   56.5390   23.4320   45.8270 C   0  0  0  0  0  0  0  0  0  0  0  0
   57.9200   23.4320   45.7600 C   0  0  0  0  0  0  0  0  0  0  0  0
   58.7770   24.5140   45.7560 C   0  0  0  0  0  0  0  0  0  0  0  0
   58.4670   25.8630   45.8220 C   0  0  0  0  0  0  0  0  0  0  0  0
   57.2220   26.5080   45.9100 C   0  0  0  0  0  0  0  0  0  0  0  0
   57.2690   27.9640   45.9560 N   0  0  0  0  0  0  0  0  0  0  0  0
   57.5650   28.5490   44.6350 C   0  0  0  0  0  0  0  0  0  0  0  0
   56.4090   29.4060   44.1010 C   0  0  0  0  0  0  0  0  0  0  0  0
   55.2450   29.1630   44.8420 O   0  0  0  0  0  0  0  0  0  0  0  0
   55.9530   25.8780   45.9420 C   0  0  0  0  0  0  0  0  0  0  0  0
   54.8400   26.7160   46.0180 O   0  0  0  0  0  0  0  0  0  0  0  0
   56.0695   22.4373   45.8173 H   0  0  0  0  0  0  0  0  0  0  0  0
   58.3971   22.4425   45.7025 H   0  0  0  0  0  0  0  0  0  0  0  0
   59.8485   24.2735   45.6919 H   0  0  0  0  0  0  0  0  0  0  0  0
   59.3357   26.5375   45.8023 H   0  0  0  0  0  0  0  0  0  0  0  0
   56.3950   28.3850   46.3440 H   0  0  0  0  0  0  0  0  0  0  0  0
   58.0240   28.2610   46.6190 H   0  0  0  0  0  0  0  0  0  0  0  0
   58.4618   29.1801   44.7213 H   0  0  0  0  0  0  0  0  0  0  0  0
   57.7212   27.7200   43.9290 H   0  0  0  0  0  0  0  0  0  0  0  0
   56.6769   30.4697   44.1834 H   0  0  0  0  0  0  0  0  0  0  0  0
   56.2255   29.1458   43.0481 H   0  0  0  0  0  0  0  0  0  0  0  0
   55.1220   28.1780   44.8640 H   0  0  0  0  0  0  0  0  0  0  0  0
  1  2  2  0
  2  3  1  0
  3  4  2  0
  4  5  1  0
  5  6  2  0
  6  7  1  0
  7  8  1  0
  8  9  1  0
  9 10  1  0
 10 11  1  0
  7 12  2  0
 12 13  1  0
 12  2  1  0
  3 14  1  0
  4 15  1  0
  5 16  1  0
  6 17  1  0
  8 18  1  0
  8 19  1  0
  9 20  1  0
  9 21  1  0
 10 22  1  0
 10 23  1  0
 11 24  1  0
M  CHG  2   8   1  13  -1
M  END
>  <UniqueID>  (60) 
53

>  <SMILES>  (60) 
O=c1ccccc([NH2+]CCO)c1[O-]

>  <Energy>  (60) 
45.04795347421153

>  <Genealogy>  (60) 
O=c1ccccc([NH2+]CCO)c1[O-] (protonated)
O=c1ccccc([NH2+]CCO)c1[O-] (3D coordinates assigned)
O=c1ccccc([NH2+]CCO)c1[O-] (optimized conformer: 45.04795347421153 kcal/mol)

>  <smiles>  (60) 
O=c1ccccc(NCCO)c1O

>  <score_type>  (60) 
oracle

>  <origin>  (60) 
adg

>  <m_score__min__energy>  (60) 
-7.4500000000000002

>  <m_primary>  (60) 
energy

$$$$
60:0
     RDKit          3D

 59 63  0  0  1  0  0  0  0  0999 V2000
   56.2520   23.2040   42.9960 C   0  0  0  0  0  0  0  0  0  0  0  0
   56.9040   23.7740   44.0990 O   0  0  0  0  0  0  0  0  0  0  0  0
   57.3520   25.0850   44.1620 C   0  0  0  0  0  0  0  0  0  0  0  0
   57.7440   25.8100   43.0560 C   0  0  0  0  0  0  0  0  0  0  0  0
   58.1880   27.1300   43.1800 C   0  0  0  0  0  0  0  0  0  0  0  0
   58.2320   27.7030   44.4360 C   0  0  0  0  0  0  0  0  0  0  0  0
   58.6640   29.0300   44.6750 N   0  0  0  0  0  0  0  0  0  0  0  0
   57.7620   30.0550   45.0740 C   0  0  0  0  0  0  0  0  0  0  0  0
   56.5490   29.7050   45.2020 O   0  0  0  0  0  0  0  0  0  0  0  0
   58.1890   31.4250   45.3240 C   0  0  0  0  0  0  0  0  0  0  0  0
   57.8010   32.4980   44.5560 C   0  0  0  0  0  0  0  0  0  0  0  0
   58.2350   33.7880   44.8320 C   0  0  0  0  0  0  0  0  0  0  0  0
   59.0800   34.0210   45.9040 C   0  0  0  0  0  0  0  0  0  0  0  0
   59.5590   35.3970   46.2230 C   0  0  0  0  0  0  0  0  0  0  0  0
   59.4680   32.9430   46.6740 C   0  0  0  0  0  0  0  0  0  0  0  0
   60.3370   33.2170   47.7680 N   0  0  0  0  0  0  0  0  0  0  0  0
   59.9280   33.1290   48.9890 C   0  0  0  0  0  0  0  0  0  0  0  0
   59.6940   34.2240   49.7410 N   0  0  0  0  0  0  0  0  0  0  0  0
   59.2710   34.0330   51.0040 C   0  0  0  0  0  0  0  0  0  0  0  0
   59.0740   32.8170   51.5430 N   0  0  0  0  0  0  0  0  0  0  0  0
   59.3000   31.7330   50.8150 C   0  0  0  0  0  0  0  0  0  0  0  0
   59.1140   30.4410   51.3160 C   0  0  0  0  0  0  0  0  0  0  0  0
   59.3680   29.3800   50.5090 N   0  0  0  0  0  0  0  0  0  0  0  0
   59.7950   29.5540   49.2360 C   0  0  0  0  0  0  0  0  0  0  0  0
   60.0490   28.4140   48.4210 N   0  0  0  0  0  0  0  0  0  0  0  0
   60.0710   26.9810   48.6510 C   0  0  0  0  0  0  0  0  0  0  0  0
   60.7480   26.7560   47.3350 C   0  0  0  0  0  0  0  0  0  0  0  0
   60.3900   28.1800   47.0410 C   0  0  0  0  0  0  0  0  0  0  0  0
   59.9840   30.7840   48.7220 N   0  0  0  0  0  0  0  0  0  0  0  0
   59.7360   31.8460   49.5110 C   0  0  0  0  0  0  0  0  0  0  0  0
   59.0300   31.6640   46.3890 C   0  0  0  0  0  0  0  0  0  0  0  0
   57.8370   26.9730   45.5580 C   0  0  0  0  0  0  0  0  0  0  0  0
   57.3940   25.6590   45.4350 C   0  0  0  0  0  0  0  0  0  0  0  0
   56.9770   24.8940   46.6440 C   0  0  0  0  0  0  0  0  0  0  0  0
   57.3340   25.5540   47.8030 F   0  0  0  0  0  0  0  0  0  0  0  0
   55.6250   24.6070   46.6370 F   0  0  0  0  0  0  0  0  0  0  0  0
   57.7020   23.7010   46.5950 F   0  0  0  0  0  0  0  0  0  0  0  0
   55.4674   22.5181   43.3481 H   0  0  0  0  0  0  0  0  0  0  0  0
   55.7974   23.9996   42.3874 H   0  0  0  0  0  0  0  0  0  0  0  0
   56.9797   22.6472   42.3874 H   0  0  0  0  0  0  0  0  0  0  0  0
   57.7067   25.3425   42.0610 H   0  0  0  0  0  0  0  0  0  0  0  0
   58.4969   27.7022   42.2928 H   0  0  0  0  0  0  0  0  0  0  0  0
   59.6790   29.2350   44.5460 H   0  0  0  0  0  0  0  0  0  0  0  0
   57.1296   32.3300   43.7010 H   0  0  0  0  0  0  0  0  0  0  0  0
   57.9072   34.6254   44.1985 H   0  0  0  0  0  0  0  0  0  0  0  0
   59.6038   35.5258   47.3145 H   0  0  0  0  0  0  0  0  0  0  0  0
   60.5614   35.5447   45.7949 H   0  0  0  0  0  0  0  0  0  0  0  0
   58.8650   36.1353   45.7949 H   0  0  0  0  0  0  0  0  0  0  0  0
   59.8510   35.1610   49.3130 H   0  0  0  0  0  0  0  0  0  0  0  0
   59.0762   34.9177   51.6280 H   0  0  0  0  0  0  0  0  0  0  0  0
   58.7671   30.2869   52.3484 H   0  0  0  0  0  0  0  0  0  0  0  0
   60.6741   26.6785   49.5197 H   0  0  0  0  0  0  0  0  0  0  0  0
   59.1375   26.4487   48.8858 H   0  0  0  0  0  0  0  0  0  0  0  0
   61.8267   26.5491   47.3948 H   0  0  0  0  0  0  0  0  0  0  0  0
   60.4847   25.9250   46.6641 H   0  0  0  0  0  0  0  0  0  0  0  0
   61.2359   28.7857   46.6839 H   0  0  0  0  0  0  0  0  0  0  0  0
   59.6570   28.4060   46.2526 H   0  0  0  0  0  0  0  0  0  0  0  0
   59.3571   30.8251   47.0209 H   0  0  0  0  0  0  0  0  0  0  0  0
   57.8762   27.4419   46.5523 H   0  0  0  0  0  0  0  0  0  0  0  0
  1  2  1  0
  2  3  1  0
  3  4  2  0
  4  5  1  0
  5  6  2  0
  6  7  1  0
  7  8  1  0
  8  9  2  0
  8 10  1  0
 10 11  2  0
 11 12  1  0
 12 13  2  0
 13 14  1  0
 13 15  1  0
 15 16  1  0
 16 17  2  0
 17 18  1  0
 18 19  1  0
 19 20  2  0
 20 21  1  0
 21 22  2  0
 22 23  1  0
 23 24  2  0
 24 25  1  0
 25 26  1  0
 26 27  1  0
 27 28  1  0
 24 29  1  0
 29 30  2  0
 15 31  2  0
  6 32  1  0
 32 33  2  0
 33 34  1  0
 34 35  1  0
 34 36  1  0
 34 37  1  0
 33  3  1  0
 31 10  1  0
 30 17  1  0
 30 21  1  0
 28 25  1  0
  1 38  1  0
  1 39  1  0
  1 40  1  0
  4 41  1  0
  5 42  1  0
  7 43  1  0
 11 44  1  0
 12 45  1  0
 14 46  1  0
 14 47  1  0
 14 48  1  0
 18 49  1  0
 19 50  1  0
 22 51  1  0
 26 52  1  0
 26 53  1  0
 27 54  1  0
 27 55  1  0
 28 56  1  0
 28 57  1  0
 31 58  1  0
 32 59  1  0
M  END
>  <smiles>  (61) 
COc1ccc(NC(=O)c2ccc(C)c(N=c3[nH]cnc4cnc(N5CCC5)nc34)c2)cc1C(F)(F)F

>  <score_type>  (61) 
oracle

>  <origin>  (61) 
adg

>  <m_score__min__energy>  (61) 
-8.6999999999999993

>  <m_primary>  (61) 
energy

$$$$
61:0
     RDKit          3D

 32 33  0  0  0  0  0  0  0  0999 V2000
   63.4010   33.8470   47.2900 C   0  0  0  0  0  0  0  0  0  0  0  0
   62.8330   32.4840   47.4900 C   0  0  0  0  0  0  0  0  0  0  0  0
   63.5040   31.4770   47.1350 O   0  0  0  0  0  0  0  0  0  0  0  0
   61.5400   32.3530   48.0150 O   0  0  0  0  0  0  0  0  0  0  0  0
   60.4150   31.9020   47.3080 C   0  0  0  0  0  0  0  0  0  0  0  0
   60.0100   30.6070   47.3980 N   0  0  0  0  0  0  0  0  0  0  0  0
   58.9230   30.1200   46.7440 C   0  0  0  0  0  0  0  0  0  0  0  0
   58.6120   28.6820   46.8740 C   0  0  0  0  0  0  0  0  0  0  0  0
   58.6940   28.1310   48.0030 O   0  0  0  0  0  0  0  0  0  0  0  0
   58.1880   27.8960   45.7540 N   0  0  0  0  0  0  0  0  0  0  0  0
   57.3360   26.7180   45.8460 C   0  0  0  0  0  0  0  0  0  0  0  0
   55.9100   27.1250   45.6840 C   0  0  0  0  0  0  0  0  0  0  0  0
   54.9850   26.3290   45.9940 O   0  0  0  0  0  0  0  0  0  0  0  0
   55.5980   28.4030   45.2410 O   0  0  0  0  0  0  0  0  0  0  0  0
   58.1560   30.9840   45.9320 C   0  0  0  0  0  0  0  0  0  0  0  0
   56.9980   30.5430   45.2800 O   0  0  0  0  0  0  0  0  0  0  0  0
   58.5530   32.3280   45.7990 C   0  0  0  0  0  0  0  0  0  0  0  0
   57.8270   33.2230   44.9910 C   0  0  0  0  0  0  0  0  0  0  0  0
   58.2280   34.5570   44.8760 C   0  0  0  0  0  0  0  0  0  0  0  0
   59.3520   35.0140   45.5640 C   0  0  0  0  0  0  0  0  0  0  0  0
   60.0830   34.1410   46.3720 C   0  0  0  0  0  0  0  0  0  0  0  0
   59.6930   32.7960   46.4980 C   0  0  0  0  0  0  0  0  0  0  0  0
   63.5943   34.3109   48.2685 H   0  0  0  0  0  0  0  0  0  0  0  0
   64.3430   33.7727   46.7269 H   0  0  0  0  0  0  0  0  0  0  0  0
   62.6850   34.4636   46.7269 H   0  0  0  0  0  0  0  0  0  0  0  0
   57.6070   26.0060   45.0525 H   0  0  0  0  0  0  0  0  0  0  0  0
   57.4730   26.2408   46.8276 H   0  0  0  0  0  0  0  0  0  0  0  0
   56.7560   29.5660   45.1780 H   0  0  0  0  0  0  0  0  0  0  0  0
   56.9385   32.8704   44.4467 H   0  0  0  0  0  0  0  0  0  0  0  0
   57.6553   35.2488   44.2408 H   0  0  0  0  0  0  0  0  0  0  0  0
   59.6633   36.0648   45.4697 H   0  0  0  0  0  0  0  0  0  0  0  0
   60.9683   34.5072   46.9126 H   0  0  0  0  0  0  0  0  0  0  0  0
  1  2  1  0
  2  3  2  0
  2  4  1  0
  4  5  1  0
  5  6  2  0
  6  7  1  0
  7  8  1  0
  8  9  2  0
  8 10  1  0
 10 11  1  0
 11 12  1  0
 12 13  2  0
 12 14  1  0
  7 15  2  0
 15 16  1  0
 15 17  1  0
 17 18  2  0
 18 19  1  0
 19 20  2  0
 20 21  1  0
 21 22  2  0
 22  5  1  0
 22 17  1  0
  1 23  1  0
  1 24  1  0
  1 25  1  0
 11 26  1  0
 11 27  1  0
 16 28  1  0
 18 29  1  0
 19 30  1  0
 20 31  1  0
 21 32  1  0
M  CHG  2  10  -1  14  -1
M  END
>  <UniqueID>  (62) 
54

>  <SMILES>  (62) 
CC(=O)Oc1nc(C(=O)[N-]CC(=O)[O-])c(O)c2ccccc12

>  <Energy>  (62) 
39.95522377380307

>  <Genealogy>  (62) 
CC(=O)Oc1nc(C(=O)[N-]CC(=O)[O-])c(O)c2ccccc12 (protonated)
CC(=O)Oc1nc(C(=O)[N-]CC(=O)[O-])c(O)c2ccccc12 (3D coordinates assigned)
CC(=O)Oc1nc(C(=O)[N-]CC(=O)[O-])c(O)c2ccccc12 (optimized conformer: 39.95522377380307 kcal/mol)

>  <smiles>  (62) 
CC(=O)Oc1nc(C(=O)NCC(=O)O)c(O)c2ccccc12

>  <score_type>  (62) 
oracle

>  <origin>  (62) 
adg

>  <m_score__min__energy>  (62) 
-11.41

>  <m_primary>  (62) 
energy

$$$$
62:0
     RDKit          3D

 72 75  0  0  0  0  0  0  0  0999 V2000
   61.7330   28.9330   51.2300 C   0  0  0  0  0  0  0  0  0  0  0  0
   62.4100   30.1480   50.9280 O   0  0  0  0  0  0  0  0  0  0  0  0
   63.7540   30.4100   51.2410 C   0  0  0  0  0  0  0  0  0  0  0  0
   64.4500   29.6760   52.2240 C   0  0  0  0  0  0  0  0  0  0  0  0
   65.7960   29.9470   52.4860 C   0  0  0  0  0  0  0  0  0  0  0  0
   66.4620   30.9460   51.7740 C   0  0  0  0  0  0  0  0  0  0  0  0
   65.7810   31.6840   50.8020 C   0  0  0  0  0  0  0  0  0  0  0  0
   64.4270   31.4260   50.5360 C   0  0  0  0  0  0  0  0  0  0  0  0
   63.7480   32.1870   49.5280 N   0  0  0  0  0  0  0  0  0  0  0  0
   63.2190   33.5180   49.8440 C   0  0  0  0  0  0  0  0  0  0  0  0
   62.1960   33.9470   48.7880 C   0  0  0  0  0  0  0  0  0  0  0  0
   62.7760   33.8930   47.4280 N   0  0  0  0  0  0  0  0  0  0  0  0
   61.7930   34.1750   46.3620 C   0  0  0  0  0  0  0  0  0  0  0  0
   60.3420   34.3360   46.8700 C   0  0  0  0  0  0  0  0  0  0  0  0
   59.3590   34.6220   45.7200 C   0  0  0  0  0  0  0  0  0  0  0  0
   58.1360   33.6750   45.7130 C   0  0  0  0  0  0  0  0  0  0  0  0
   57.5880   33.3780   47.1190 C   0  0  0  0  0  0  0  0  0  0  0  0
   58.3240   32.2730   47.7550 N   0  0  0  0  0  0  0  0  0  0  0  0
   58.3050   31.0670   47.1650 N   0  0  0  0  0  0  0  0  0  0  0  0
   59.0310   30.0150   47.6410 C   0  0  0  0  0  0  0  0  0  0  0  0
   59.0440   28.7230   46.9180 C   0  0  0  0  0  0  0  0  0  0  0  0
   59.4430   27.5590   47.5980 C   0  0  0  0  0  0  0  0  0  0  0  0
   59.4780   26.3290   46.9380 C   0  0  0  0  0  0  0  0  0  0  0  0
   59.1140   26.2490   45.5950 C   0  0  0  0  0  0  0  0  0  0  0  0
   58.7150   27.3970   44.9050 C   0  0  0  0  0  0  0  0  0  0  0  0
   58.6750   28.6450   45.5560 C   0  0  0  0  0  0  0  0  0  0  0  0
   58.2180   29.8280   44.8830 N   0  0  0  0  0  0  0  0  0  0  0  0
   56.5790   30.2050   44.4660 S   0  0  0  0  0  0  0  0  0  0  0  0
   56.3240   29.9800   42.7190 C   0  0  0  0  0  0  0  0  0  0  0  0
   56.2600   31.6200   44.8660 O   0  0  0  0  0  0  0  0  0  0  0  0
   55.6660   29.2740   45.2160 O   0  0  0  0  0  0  0  0  0  0  0  0
   59.7980   30.1880   48.7960 C   0  0  0  0  0  0  0  0  0  0  0  0
   59.7940   31.4180   49.4380 C   0  0  0  0  0  0  0  0  0  0  0  0
   59.0480   32.4670   48.9060 C   0  0  0  0  0  0  0  0  0  0  0  0
   59.0590   33.5860   49.4890 O   0  0  0  0  0  0  0  0  0  0  0  0
   63.6760   32.7460   47.1410 C   0  0  0  0  0  0  0  0  0  0  0  0
   63.5720   31.6270   48.1850 C   0  0  0  0  0  0  0  0  0  0  0  0
   61.6657   28.8122   52.3213 H   0  0  0  0  0  0  0  0  0  0  0  0
   60.7205   28.9610   50.8011 H   0  0  0  0  0  0  0  0  0  0  0  0
   62.2896   28.0867   50.8011 H   0  0  0  0  0  0  0  0  0  0  0  0
   63.9310   28.8864   52.7872 H   0  0  0  0  0  0  0  0  0  0  0  0
   66.3318   29.3715   53.2553 H   0  0  0  0  0  0  0  0  0  0  0  0
   67.5230   31.1524   51.9780 H   0  0  0  0  0  0  0  0  0  0  0  0
   66.3085   32.4708   50.2427 H   0  0  0  0  0  0  0  0  0  0  0  0
   62.7328   33.4906   50.8304 H   0  0  0  0  0  0  0  0  0  0  0  0
   64.0486   34.2402   49.8531 H   0  0  0  0  0  0  0  0  0  0  0  0
   61.3279   33.2731   48.8348 H   0  0  0  0  0  0  0  0  0  0  0  0
   61.8939   34.9839   48.9968 H   0  0  0  0  0  0  0  0  0  0  0  0
   62.0880   35.1068   45.8574 H   0  0  0  0  0  0  0  0  0  0  0  0
   61.7988   33.3068   45.6866 H   0  0  0  0  0  0  0  0  0  0  0  0
   60.0373   33.4078   47.3756 H   0  0  0  0  0  0  0  0  0  0  0  0
   60.3159   35.1913   47.5612 H   0  0  0  0  0  0  0  0  0  0  0  0
   58.9991   35.6569   45.8172 H   0  0  0  0  0  0  0  0  0  0  0  0
   59.9028   34.4600   44.7777 H   0  0  0  0  0  0  0  0  0  0  0  0
   57.3368   34.1414   45.1182 H   0  0  0  0  0  0  0  0  0  0  0  0
   58.4677   32.7180   45.2839 H   0  0  0  0  0  0  0  0  0  0  0  0
   57.6874   34.2800   47.7407 H   0  0  0  0  0  0  0  0  0  0  0  0
   56.5318   33.0851   47.0264 H   0  0  0  0  0  0  0  0  0  0  0  0
   57.7560   30.9370   46.2820 H   0  0  0  0  0  0  0  0  0  0  0  0
   59.7299   27.6177   48.6583 H   0  0  0  0  0  0  0  0  0  0  0  0
   59.7927   25.4236   47.4777 H   0  0  0  0  0  0  0  0  0  0  0  0
   59.1408   25.2792   45.0765 H   0  0  0  0  0  0  0  0  0  0  0  0
   58.4300   27.3251   43.8450 H   0  0  0  0  0  0  0  0  0  0  0  0
   55.5081   29.2601   42.5573 H   0  0  0  0  0  0  0  0  0  0  0  0
   56.0589   30.9439   42.2600 H   0  0  0  0  0  0  0  0  0  0  0  0
   57.2474   29.5969   42.2600 H   0  0  0  0  0  0  0  0  0  0  0  0
   60.3994   29.3568   49.1926 H   0  0  0  0  0  0  0  0  0  0  0  0
   60.3756   31.5636   50.3602 H   0  0  0  0  0  0  0  0  0  0  0  0
   63.4134   32.3322   46.1562 H   0  0  0  0  0  0  0  0  0  0  0  0
   64.7088   33.1239   47.1653 H   0  0  0  0  0  0  0  0  0  0  0  0
   62.5827   31.1513   48.1139 H   0  0  0  0  0  0  0  0  0  0  0  0
   64.3559   30.8787   47.9965 H   0  0  0  0  0  0  0  0  0  0  0  0
  1  2  1  0
  2  3  1  0
  3  4  2  0
  4  5  1  0
  5  6  2  0
  6  7  1  0
  7  8  2  0
  8  9  1  0
  9 10  1  0
 10 11  1  0
 11 12  1  0
 12 13  1  0
 13 14  1  0
 14 15  1  0
 15 16  1  0
 16 17  1  0
 17 18  1  0
 18 19  1  0
 19 20  2  0
 20 21  1  0
 21 22  2  0
 22 23  1  0
 23 24  2  0
 24 25  1  0
 25 26  2  0
 26 27  1  0
 27 28  1  0
 28 29  1  0
 28 30  2  0
 28 31  2  0
 20 32  1  0
 32 33  2  0
 33 34  1  0
 34 35  2  0
 12 36  1  0
 36 37  1  0
  8  3  1  0
 37  9  1  0
 34 18  1  0
 26 21  1  0
  1 38  1  0
  1 39  1  0
  1 40  1  0
  4 41  1  0
  5 42  1  0
  6 43  1  0
  7 44  1  0
 10 45  1  0
 10 46  1  0
 11 47  1  0
 11 48  1  0
 13 49  1  0
 13 50  1  0
 14 51  1  0
 14 52  1  0
 15 53  1  0
 15 54  1  0
 16 55  1  0
 16 56  1  0
 17 57  1  0
 17 58  1  0
 19 59  1  0
 22 60  1  0
 23 61  1  0
 24 62  1  0
 25 63  1  0
 29 64  1  0
 29 65  1  0
 29 66  1  0
 32 67  1  0
 33 68  1  0
 36 69  1  0
 36 70  1  0
 37 71  1  0
 37 72  1  0
M  CHG  2  19   1  27  -1
M  END
>  <UniqueID>  (63) 
55

>  <SMILES>  (63) 
COc1ccccc1N1CCN(CCCCCn2[nH+]c(-c3ccccc3[N-]S(C)(=O)=O)ccc2=O)CC1

>  <Energy>  (63) 
91.29807402248677

>  <Genealogy>  (63) 
COc1ccccc1N1CCN(CCCCCn2[nH+]c(-c3ccccc3[N-]S(C)(=O)=O)ccc2=O)CC1 (protonated)
COc1ccccc1N1CCN(CCCCCn2[nH+]c(-c3ccccc3[N-]S(C)(=O)=O)ccc2=O)CC1 (3D coordinates assigned)
COc1ccccc1N1CCN(CCCCCn2[nH+]c(-c3ccccc3[N-]S(C)(=O)=O)ccc2=O)CC1 (nonaromatic ring conformer: 91.29807402248677 kcal/mol)

>  <smiles>  (63) 
COc1ccccc1N1CCN(CCCCCn2nc(-c3ccccc3NS(C)(=O)=O)ccc2=O)CC1

>  <score_type>  (63) 
oracle

>  <origin>  (63) 
adg

>  <m_score__min__energy>  (63) 
-8.9299999999999997

>  <m_primary>  (63) 
energy

$$$$
63:0
     RDKit          3D

 44 47  0  0  0  0  0  0  0  0999 V2000
   56.5860   30.3130   42.7810 C   0  0  0  0  0  0  0  0  0  0  0  0
   57.3360   31.3480   42.2230 C   0  0  0  0  0  0  0  0  0  0  0  0
   57.8500   32.3560   43.0410 C   0  0  0  0  0  0  0  0  0  0  0  0
   57.5910   32.3270   44.4230 C   0  0  0  0  0  0  0  0  0  0  0  0
   58.1300   33.3260   45.3120 N   0  0  0  0  0  0  0  0  0  0  0  0
   59.2040   34.2400   44.9150 C   0  0  0  0  0  0  0  0  0  0  0  0
   60.3910   34.0570   45.8620 C   0  0  0  0  0  0  0  0  0  0  0  0
   59.9880   33.9460   47.2870 N   0  0  0  0  0  0  0  0  0  0  0  0
   60.5910   32.8070   48.0140 C   0  0  0  0  0  0  0  0  0  0  0  0
   60.5100   31.5110   47.2580 C   0  0  0  0  0  0  0  0  0  0  0  0
   59.3780   30.7710   46.9850 C   0  0  0  0  0  0  0  0  0  0  0  0
   59.7860   29.6770   46.3100 N   0  0  0  0  0  0  0  0  0  0  0  0
   58.9630   28.5950   45.8200 C   0  0  0  0  0  0  0  0  0  0  0  0
   58.1330   27.8680   46.6940 C   0  0  0  0  0  0  0  0  0  0  0  0
   57.3600   26.8130   46.2040 C   0  0  0  0  0  0  0  0  0  0  0  0
   57.4000   26.4930   44.8840 N   0  0  0  0  0  0  0  0  0  0  0  0
   58.1800   27.1810   44.0100 C   0  0  0  0  0  0  0  0  0  0  0  0
   58.9720   28.2410   44.4580 C   0  0  0  0  0  0  0  0  0  0  0  0
   61.1040   29.7630   46.1810 N   0  0  0  0  0  0  0  0  0  0  0  0
   61.5750   30.8650   46.7430 N   0  0  0  0  0  0  0  0  0  0  0  0
   58.5620   34.2070   47.5970 C   0  0  0  0  0  0  0  0  0  0  0  0
   57.5940   33.4460   46.6700 C   0  0  0  0  0  0  0  0  0  0  0  0
   56.8640   31.2940   44.9380 N   0  0  0  0  0  0  0  0  0  0  0  0
   56.3600   30.3020   44.1570 C   0  0  0  0  0  0  0  0  0  0  0  0
   56.1777   29.5150   42.1434 H   0  0  0  0  0  0  0  0  0  0  0  0
   57.5225   31.3702   41.1391 H   0  0  0  0  0  0  0  0  0  0  0  0
   58.4533   33.1672   42.6075 H   0  0  0  0  0  0  0  0  0  0  0  0
   59.5167   34.0157   43.8845 H   0  0  0  0  0  0  0  0  0  0  0  0
   58.8452   35.2786   44.9662 H   0  0  0  0  0  0  0  0  0  0  0  0
   60.9276   33.1398   45.5775 H   0  0  0  0  0  0  0  0  0  0  0  0
   61.0252   34.9510   45.7693 H   0  0  0  0  0  0  0  0  0  0  0  0
   61.6502   33.0351   48.2039 H   0  0  0  0  0  0  0  0  0  0  0  0
   60.0220   32.6770   48.9464 H   0  0  0  0  0  0  0  0  0  0  0  0
   58.3444   31.0240   47.2635 H   0  0  0  0  0  0  0  0  0  0  0  0
   58.0932   28.1304   47.7615 H   0  0  0  0  0  0  0  0  0  0  0  0
   56.7173   26.2398   46.8883 H   0  0  0  0  0  0  0  0  0  0  0  0
   58.1880   26.9025   42.9459 H   0  0  0  0  0  0  0  0  0  0  0  0
   59.6012   28.7976   43.7478 H   0  0  0  0  0  0  0  0  0  0  0  0
   61.7160   29.0490   45.7280 H   0  0  0  0  0  0  0  0  0  0  0  0
   58.3672   33.8997   48.6351 H   0  0  0  0  0  0  0  0  0  0  0  0
   58.3844   35.2820   47.4462 H   0  0  0  0  0  0  0  0  0  0  0  0
   57.4270   32.4383   47.0782 H   0  0  0  0  0  0  0  0  0  0  0  0
   56.6513   34.0105   46.6191 H   0  0  0  0  0  0  0  0  0  0  0  0
   55.7733   29.4898   44.6109 H   0  0  0  0  0  0  0  0  0  0  0  0
  1  2  2  0
  2  3  1  0
  3  4  2  0
  4  5  1  0
  5  6  1  0
  6  7  1  0
  7  8  1  0
  8  9  1  0
  9 10  1  0
 10 11  2  0
 11 12  1  0
 12 13  1  0
 13 14  2  0
 14 15  1  0
 15 16  2  0
 16 17  1  0
 17 18  2  0
 12 19  1  0
 19 20  2  0
  8 21  1  0
 21 22  1  0
  4 23  1  0
 23 24  2  0
 24  1  1  0
 22  5  1  0
 20 10  1  0
 18 13  1  0
  1 25  1  0
  2 26  1  0
  3 27  1  0
  6 28  1  0
  6 29  1  0
  7 30  1  0
  7 31  1  0
  9 32  1  0
  9 33  1  0
 11 34  1  0
 14 35  1  0
 15 36  1  0
 17 37  1  0
 18 38  1  0
 19 39  1  0
 21 40  1  0
 21 41  1  0
 22 42  1  0
 22 43  1  0
 24 44  1  0
M  CHG  1  19   1
M  END
>  <UniqueID>  (64) 
56

>  <SMILES>  (64) 
c1ccc(N2CCN(Cc3cn(-c4ccncc4)[nH+]n3)CC2)nc1

>  <Energy>  (64) 
97.8127560717236

>  <Genealogy>  (64) 
c1ccc(N2CCN(Cc3cn(-c4ccncc4)[nH+]n3)CC2)nc1 (protonated)
c1ccc(N2CCN(Cc3cn(-c4ccncc4)[nH+]n3)CC2)nc1 (3D coordinates assigned)
c1ccc(N2CCN(Cc3cn(-c4ccncc4)[nH+]n3)CC2)nc1 (nonaromatic ring conformer: 97.8127560717236 kcal/mol)

>  <smiles>  (64) 
c1ccc(N2CCN(Cc3cn(-c4ccncc4)nn3)CC2)nc1

>  <score_type>  (64) 
oracle

>  <origin>  (64) 
adg

>  <m_score__min__energy>  (64) 
-7.71

>  <m_primary>  (64) 
energy

$$$$
64:0
     RDKit          3D

 25 25  0  0  0  0  0  0  0  0999 V2000
   54.4200   29.3460   45.5840 H   0  0  0  0  0  0  0  0  0  0  0  0
   55.1400   29.3490   44.8290 N   0  0  0  0  0  0  0  0  0  0  0  0
   56.5310   29.4130   45.1410 C   0  0  0  0  0  0  0  0  0  0  0  0
   57.1130   30.5310   45.1230 O   0  0  0  0  0  0  0  0  0  0  0  0
   57.2840   28.1830   45.4840 C   0  0  0  0  0  0  0  0  0  0  0  0
   58.6870   28.1590   45.3950 C   0  0  0  0  0  0  0  0  0  0  0  0
   59.2298   29.0633   45.0827 H   0  0  0  0  0  0  0  0  0  0  0  0
   59.3960   26.9960   45.7000 C   0  0  0  0  0  0  0  0  0  0  0  0
   60.4931   26.9857   45.6202 H   0  0  0  0  0  0  0  0  0  0  0  0
   58.7170   25.8460   46.1060 C   0  0  0  0  0  0  0  0  0  0  0  0
   59.2813   24.9292   46.3316 H   0  0  0  0  0  0  0  0  0  0  0  0
   57.3210   25.8520   46.2280 C   0  0  0  0  0  0  0  0  0  0  0  0
   56.6470   24.6490   46.6280 N   0  0  0  0  0  0  0  0  0  0  0  0
   57.1760   23.9770   47.2290 H   0  0  0  0  0  0  0  0  0  0  0  0
   55.2640   24.3690   46.3490 C   0  0  0  0  0  0  0  0  0  0  0  0
   54.5650   25.1840   45.6900 O   0  0  0  0  0  0  0  0  0  0  0  0
   54.6490   23.1020   46.7810 C   0  0  0  0  0  0  0  0  0  0  0  0
   53.5878   22.9446   46.5377 H   0  0  0  0  0  0  0  0  0  0  0  0
   55.2820   22.1250   47.4480 C   0  0  0  0  0  0  0  0  0  0  0  0
   54.6953   21.2331   47.7133 H   0  0  0  0  0  0  0  0  0  0  0  0
   56.7000   22.1480   47.8550 C   0  0  0  0  0  0  0  0  0  0  0  0
   57.0000   22.5410   49.0130 O   0  0  0  0  0  0  0  0  0  0  0  0
   57.7160   21.8130   46.9680 O   0  0  0  0  0  0  0  0  0  0  0  0
   56.6080   27.0180   45.8950 C   0  0  0  0  0  0  0  0  0  0  0  0
   55.5097   27.0198   45.9564 H   0  0  0  0  0  0  0  0  0  0  0  0
  1  2  1  0
  2  3  1  0
  3  4  2  0
  3  5  1  0
  5  6  2  0
  6  7  1  0
  6  8  1  0
  8  9  1  0
  8 10  2  0
 10 11  1  0
 10 12  1  0
 12 13  1  0
 13 14  1  0
 13 15  1  0
 15 16  2  0
 15 17  1  0
 17 18  1  0
 17 19  2  0
 19 20  1  0
 19 21  1  0
 21 22  2  0
 21 23  1  0
 12 24  2  0
 24 25  1  0
 24  5  1  0
M  CHG  2   2  -1  23  -1
M  END
>  <UniqueID>  (65) 
57

>  <SMILES>  (65) 
[NH-]C(=O)c1cccc(NC(=O)/C=C\C(=O)[O-])c1

>  <Energy>  (65) 
33.692188926803595

>  <Genealogy>  (65) 
[NH-]C(=O)c1cccc(NC(=O)C=CC(=O)[O-])c1 (protonated)
[NH-]C(=O)c1cccc(NC(=O)/C=C\C(=O)[O-])c1 (cis-trans isomerization)
[NH-]C(=O)c1cccc(NC(=O)/C=C\C(=O)[O-])c1 (3D coordinates assigned)
[NH-]C(=O)c1cccc(NC(=O)/C=C\C(=O)[O-])c1 (optimized conformer: 33.692188926803595 kcal/mol)

>  <smiles>  (65) 
NC(=O)c1cccc(NC(=O)C=CC(=O)O)c1

>  <score_type>  (65) 
oracle

>  <origin>  (65) 
adg

>  <m_score__min__energy>  (65) 
-10.609999999999999

>  <m_primary>  (65) 
energy

$$$$
65:0
     RDKit          3D

 43 46  0  0  0  0  0  0  0  0999 V2000
   54.4890   24.5330   45.6280 C   0  0  0  0  0  0  0  0  0  0  0  0
   55.4340   25.5890   46.0000 N   0  0  0  0  0  0  0  0  0  0  0  0
   56.7790   25.0550   46.2620 C   0  0  0  0  0  0  0  0  0  0  0  0
   57.8510   26.1060   46.1000 C   0  0  0  0  0  0  0  0  0  0  0  0
   59.2050   25.7590   46.1900 C   0  0  0  0  0  0  0  0  0  0  0  0
   60.1670   26.7110   46.0700 N   0  0  0  0  0  0  0  0  0  0  0  0
   59.8550   28.0200   45.8650 C   0  0  0  0  0  0  0  0  0  0  0  0
   58.5130   28.4260   45.7720 C   0  0  0  0  0  0  0  0  0  0  0  0
   58.1630   29.8530   45.5570 C   0  0  0  0  0  0  0  0  0  0  0  0
   57.0010   30.2120   44.8220 C   0  0  0  0  0  0  0  0  0  0  0  0
   56.6680   31.5240   44.6390 N   0  0  0  0  0  0  0  0  0  0  0  0
   57.4670   32.4900   45.1520 C   0  0  0  0  0  0  0  0  0  0  0  0
   57.2470   33.8120   45.0860 N   0  0  0  0  0  0  0  0  0  0  0  0
   58.2700   34.3850   45.7590 C   0  0  0  0  0  0  0  0  0  0  0  0
   59.1470   33.4130   46.2430 C   0  0  0  0  0  0  0  0  0  0  0  0
   60.3840   33.6610   47.0160 C   0  0  0  0  0  0  0  0  0  0  0  0
   61.6380   33.5410   46.3940 C   0  0  0  0  0  0  0  0  0  0  0  0
   62.8120   33.7660   47.1210 C   0  0  0  0  0  0  0  0  0  0  0  0
   62.7440   34.1000   48.4760 C   0  0  0  0  0  0  0  0  0  0  0  0
   61.5020   34.2060   49.1070 C   0  0  0  0  0  0  0  0  0  0  0  0
   60.3250   33.9830   48.3840 C   0  0  0  0  0  0  0  0  0  0  0  0
   58.6070   32.2000   45.8480 C   0  0  0  0  0  0  0  0  0  0  0  0
   58.9790   30.8790   46.0890 C   0  0  0  0  0  0  0  0  0  0  0  0
   57.5110   27.4500   45.8940 C   0  0  0  0  0  0  0  0  0  0  0  0
   54.0769   24.0725   46.5380 H   0  0  0  0  0  0  0  0  0  0  0  0
   53.6710   24.9658   45.0333 H   0  0  0  0  0  0  0  0  0  0  0  0
   55.0096   23.7679   45.0333 H   0  0  0  0  0  0  0  0  0  0  0  0
   55.4790   26.2880   45.2210 H   0  0  0  0  0  0  0  0  0  0  0  0
   56.8130   24.6700   47.2919 H   0  0  0  0  0  0  0  0  0  0  0  0
   56.9744   24.2574   45.5301 H   0  0  0  0  0  0  0  0  0  0  0  0
   59.4910   24.7103   46.3587 H   0  0  0  0  0  0  0  0  0  0  0  0
   61.1720   26.4320   46.1340 H   0  0  0  0  0  0  0  0  0  0  0  0
   60.6589   28.7650   45.7715 H   0  0  0  0  0  0  0  0  0  0  0  0
   56.3624   29.4244   44.3956 H   0  0  0  0  0  0  0  0  0  0  0  0
   56.4480   34.2970   44.6210 H   0  0  0  0  0  0  0  0  0  0  0  0
   58.3941   35.4682   45.9050 H   0  0  0  0  0  0  0  0  0  0  0  0
   61.6971   33.2687   45.3299 H   0  0  0  0  0  0  0  0  0  0  0  0
   63.7901   33.6798   46.6251 H   0  0  0  0  0  0  0  0  0  0  0  0
   63.6678   34.2794   49.0456 H   0  0  0  0  0  0  0  0  0  0  0  0
   61.4493   34.4654   50.1747 H   0  0  0  0  0  0  0  0  0  0  0  0
   59.3499   34.0598   48.8873 H   0  0  0  0  0  0  0  0  0  0  0  0
   59.8792   30.6412   46.6747 H   0  0  0  0  0  0  0  0  0  0  0  0
   56.4526   27.7420   45.8275 H   0  0  0  0  0  0  0  0  0  0  0  0
  1  2  1  0
  2  3  1  0
  3  4  1  0
  4  5  2  0
  5  6  1  0
  6  7  2  0
  7  8  1  0
  8  9  1  0
  9 10  2  0
 10 11  1  0
 11 12  2  0
 12 13  1  0
 13 14  1  0
 14 15  2  0
 15 16  1  0
 16 17  2  0
 17 18  1  0
 18 19  2  0
 19 20  1  0
 20 21  2  0
 15 22  1  0
 22 23  2  0
  8 24  2  0
 24  4  1  0
 23  9  1  0
 22 12  1  0
 21 16  1  0
  1 25  1  0
  1 26  1  0
  1 27  1  0
  2 28  1  0
  3 29  1  0
  3 30  1  0
  5 31  1  0
  6 32  1  0
  7 33  1  0
 10 34  1  0
 13 35  1  0
 14 36  1  0
 17 37  1  0
 18 38  1  0
 19 39  1  0
 20 40  1  0
 21 41  1  0
 23 42  1  0
 24 43  1  0
M  CHG  1   6   1
M  END
>  <UniqueID>  (66) 
58

>  <SMILES>  (66) 
CNCc1c[nH+]cc(-c2cnc3[nH]cc(-c4ccccc4)c3c2)c1

>  <Energy>  (66) 
90.69495324170116

>  <Genealogy>  (66) 
CNCc1c[nH+]cc(-c2cnc3[nH]cc(-c4ccccc4)c3c2)c1 (protonated)
CNCc1c[nH+]cc(-c2cnc3[nH]cc(-c4ccccc4)c3c2)c1 (3D coordinates assigned)
CNCc1c[nH+]cc(-c2cnc3[nH]cc(-c4ccccc4)c3c2)c1 (optimized conformer: 90.69495324170116 kcal/mol)

>  <smiles>  (66) 
CNCc1cncc(-c2cnc3[nH]cc(-c4ccccc4)c3c2)c1

>  <score_type>  (66) 
oracle

>  <origin>  (66) 
adg

>  <m_score__min__energy>  (66) 
-7.1900000000000004

>  <m_primary>  (66) 
energy

$$$$
66:0
     RDKit          3D

 39 41  0  0  1  0  0  0  0  0999 V2000
   57.8980   32.5960   42.4620 O   0  0  0  0  0  0  0  0  0  0  0  0
   57.5930   32.1850   43.6300 C   0  0  0  0  0  0  0  0  0  0  0  0
   56.5790   31.2150   43.8560 N   0  0  0  0  0  0  0  0  0  0  0  0
   56.8380   29.9930   44.1990 C   0  0  0  0  0  0  0  0  0  0  0  0
   56.1340   29.2360   45.0980 N   0  0  0  0  0  0  0  0  0  0  0  0
   56.7160   28.0110   45.1890 C   0  0  0  0  0  0  0  0  0  0  0  0
   56.3120   26.9080   46.0190 N   0  0  0  0  0  0  0  0  0  0  0  0
   57.1450   26.3980   46.8000 O   0  0  0  0  0  0  0  0  0  0  0  0
   55.0560   26.3870   46.0140 O   0  0  0  0  0  0  0  0  0  0  0  0
   57.7600   28.0380   44.3430 N   0  0  0  0  0  0  0  0  0  0  0  0
   57.8290   29.2210   43.7570 N   0  0  0  0  0  0  0  0  0  0  0  0
   58.2710   32.6820   44.8260 C   0  0  0  0  0  0  0  0  0  0  0  0
   58.9370   31.7750   45.5980 C   0  0  0  0  0  0  0  0  0  0  0  0
   59.5950   32.1410   46.7360 C   0  0  0  0  0  0  0  0  0  0  0  0
   59.6080   33.4880   47.1550 C   0  0  0  0  0  0  0  0  0  0  0  0
   60.4570   33.8240   48.6370 S   0  0  0  0  0  0  0  0  0  0  0  0
   60.1930   32.6050   49.5280 O   0  0  0  0  0  0  0  0  0  0  0  0
   59.7080   34.9550   49.3520 O   0  0  0  0  0  0  0  0  0  0  0  0
   62.0820   34.0830   48.5660 N   0  0  0  0  0  0  0  0  0  0  0  0
   62.6830   33.8510   47.2950 C   0  0  0  0  0  0  0  0  0  0  0  0
   63.5550   32.5940   47.6430 C   0  0  0  0  0  0  0  0  0  0  0  0
   64.2030   33.1110   48.9230 C   0  0  0  0  0  0  0  0  0  0  0  0
   62.9730   33.7840   49.5970 C   0  0  0  0  0  0  0  0  0  0  0  0
   58.9420   34.4090   46.3890 C   0  0  0  0  0  0  0  0  0  0  0  0
   58.2730   33.9980   45.2210 C   0  0  0  0  0  0  0  0  0  0  0  0
   58.4580   27.2580   44.1530 H   0  0  0  0  0  0  0  0  0  0  0  0
   58.5460   29.5160   43.0460 H   0  0  0  0  0  0  0  0  0  0  0  0
   58.9436   30.7179   45.2940 H   0  0  0  0  0  0  0  0  0  0  0  0
   60.1196   31.3794   47.3316 H   0  0  0  0  0  0  0  0  0  0  0  0
   61.9332   33.6283   46.5216 H   0  0  0  0  0  0  0  0  0  0  0  0
   63.2386   34.7041   46.8784 H   0  0  0  0  0  0  0  0  0  0  0  0
   62.9395   31.7002   47.8226 H   0  0  0  0  0  0  0  0  0  0  0  0
   64.2501   32.2641   46.8569 H   0  0  0  0  0  0  0  0  0  0  0  0
   64.6065   32.2915   49.5359 H   0  0  0  0  0  0  0  0  0  0  0  0
   65.0671   33.7742   48.7692 H   0  0  0  0  0  0  0  0  0  0  0  0
   62.5070   33.0944   50.3162 H   0  0  0  0  0  0  0  0  0  0  0  0
   63.2636   34.6883   50.1517 H   0  0  0  0  0  0  0  0  0  0  0  0
   58.9304   35.4679   46.6867 H   0  0  0  0  0  0  0  0  0  0  0  0
   57.7415   34.7446   44.6127 H   0  0  0  0  0  0  0  0  0  0  0  0
  1  2  2  0
  2  3  1  0
  3  4  2  0
  4  5  1  0
  5  6  2  0
  6  7  1  0
  7  8  2  0
  7  9  1  0
  6 10  1  0
 10 11  1  0
  2 12  1  0
 12 13  2  0
 13 14  1  0
 14 15  2  0
 15 16  1  0
 16 17  2  0
 16 18  2  0
 16 19  1  0
 19 20  1  0
 20 21  1  0
 21 22  1  0
 22 23  1  0
 15 24  1  0
 24 25  2  0
 11  4  1  0
 25 12  1  0
 23 19  1  0
 10 26  1  0
 11 27  1  0
 13 28  1  0
 14 29  1  0
 20 30  1  0
 20 31  1  0
 21 32  1  0
 21 33  1  0
 22 34  1  0
 22 35  1  0
 23 36  1  0
 23 37  1  0
 24 38  1  0
 25 39  1  0
M  CHG  2   7   1   9  -1
M  END
>  <smiles>  (67) 
O=C(N=c1nc([N+](=O)[O-])[nH][nH]1)c1ccc(S(=O)(=O)N2CCCC2)cc1

>  <score_type>  (67) 
oracle

>  <origin>  (67) 
adg

>  <m_score__min__energy>  (67) 
-10.09

>  <m_primary>  (67) 
energy

$$$$
67:0
     RDKit          3D

 37 39  0  0  0  0  0  0  0  0999 V2000
   57.4250   21.5070   46.5530 H   0  0  0  0  0  0  0  0  0  0  0  0
   56.6330   22.1780   46.6730 N   0  0  0  0  0  0  0  0  0  0  0  0
   56.8150   23.4570   46.5940 C   0  0  0  0  0  0  0  0  0  0  0  0
   55.7580   24.2720   46.3330 N   0  0  0  0  0  0  0  0  0  0  0  0
   55.9100   25.6190   46.2430 C   0  0  0  0  0  0  0  0  0  0  0  0
   54.9060   26.3400   45.9990 O   0  0  0  0  0  0  0  0  0  0  0  0
   57.1830   26.1870   46.4210 C   0  0  0  0  0  0  0  0  0  0  0  0
   57.4200   27.5680   46.3440 C   0  0  0  0  0  0  0  0  0  0  0  0
   56.5916   28.2563   46.1203 H   0  0  0  0  0  0  0  0  0  0  0  0
   58.7120   28.0710   46.5520 C   0  0  0  0  0  0  0  0  0  0  0  0
   58.9460   29.4850   46.4450 N   0  0  0  0  0  0  0  0  0  0  0  0
   59.8490   29.8470   46.8250 H   0  0  0  0  0  0  0  0  0  0  0  0
   58.0510   30.4050   45.7940 C   0  0  0  0  0  0  0  0  0  0  0  0
   56.9920   29.9850   45.2510 O   0  0  0  0  0  0  0  0  0  0  0  0
   58.3510   31.8520   45.7510 C   0  0  0  0  0  0  0  0  0  0  0  0
   57.3860   32.7390   45.2480 C   0  0  0  0  0  0  0  0  0  0  0  0
   56.4221   32.3504   44.8876 H   0  0  0  0  0  0  0  0  0  0  0  0
   57.6410   34.1100   45.2020 C   0  0  0  0  0  0  0  0  0  0  0  0
   56.8740   34.7976   44.8161 H   0  0  0  0  0  0  0  0  0  0  0  0
   58.8660   34.6120   45.6440 C   0  0  0  0  0  0  0  0  0  0  0  0
   59.0594   35.6944   45.6111 H   0  0  0  0  0  0  0  0  0  0  0  0
   59.8530   33.7380   46.1310 C   0  0  0  0  0  0  0  0  0  0  0  0
   61.1330   34.2120   46.5750 N   0  0  0  0  0  0  0  0  0  0  0  0
   62.0750   33.5060   47.8490 S   0  0  0  0  0  0  0  0  0  0  0  0
   61.1880   32.6980   48.7520 O   0  0  0  0  0  0  0  0  0  0  0  0
   62.7630   34.5870   48.6360 O   0  0  0  0  0  0  0  0  0  0  0  0
   63.3030   32.4390   47.1320 C   0  0  0  0  0  0  0  0  0  0  0  0
   63.8720   31.9446   47.9331 H   0  0  0  0  0  0  0  0  0  0  0  0
   62.8093   31.6781   46.5096 H   0  0  0  0  0  0  0  0  0  0  0  0
   63.9875   33.0341   46.5096 H   0  0  0  0  0  0  0  0  0  0  0  0
   59.5930   32.3600   46.1780 C   0  0  0  0  0  0  0  0  0  0  0  0
   60.5780   31.5190   46.5900 F   0  0  0  0  0  0  0  0  0  0  0  0
   59.7590   27.1650   46.7940 C   0  0  0  0  0  0  0  0  0  0  0  0
   60.7847   27.5382   46.9307 H   0  0  0  0  0  0  0  0  0  0  0  0
   59.5110   25.8300   46.8600 N   0  0  0  0  0  0  0  0  0  0  0  0
   58.2620   25.3250   46.6900 C   0  0  0  0  0  0  0  0  0  0  0  0
   58.0560   23.9850   46.7690 N   0  0  0  0  0  0  0  0  0  0  0  0
  1  2  1  0
  2  3  2  0
  3  4  1  0
  4  5  1  0
  5  6  2  0
  5  7  1  0
  7  8  2  0
  8  9  1  0
  8 10  1  0
 10 11  1  0
 11 12  1  0
 11 13  1  0
 13 14  2  0
 13 15  1  0
 15 16  2  0
 16 17  1  0
 16 18  1  0
 18 19  1  0
 18 20  2  0
 20 21  1  0
 20 22  1  0
 22 23  1  0
 23 24  1  0
 24 25  2  0
 24 26  2  0
 24 27  1  0
 27 28  1  0
 27 29  1  0
 27 30  1  0
 22 31  2  0
 31 32  1  0
 10 33  2  0
 33 34  1  0
 33 35  1  0
 35 36  2  0
 36 37  1  0
 37  3  1  0
 36  7  1  0
 31 15  1  0
M  CHG  3   4  -1  23  -1  37  -1
M  END
>  <UniqueID>  (68) 
59

>  <SMILES>  (68) 
[H]/N=c1/[n-]c(=O)c2cc(NC(=O)c3cccc([N-]S(C)(=O)=O)c3F)cnc2[n-]1

>  <Energy>  (68) 
52.505216303835525

>  <Genealogy>  (68) 
CS(=O)(=O)[N-]c1cccc(C(=O)Nc2cnc3[n-]c(=N)[n-]c(=O)c3c2)c1F (protonated)
[H]/N=c1/[n-]c(=O)c2cc(NC(=O)c3cccc([N-]S(C)(=O)=O)c3F)cnc2[n-]1 (cis-trans isomerization)
[H]/N=c1/[n-]c(=O)c2cc(NC(=O)c3cccc([N-]S(C)(=O)=O)c3F)cnc2[n-]1 (3D coordinates assigned)
[H]/N=c1/[n-]c(=O)c2cc(NC(=O)c3cccc([N-]S(C)(=O)=O)c3F)cnc2[n-]1 (optimized conformer: 52.505216303835525 kcal/mol)

>  <smiles>  (68) 
CS(=O)(=O)Nc1cccc(C(=O)Nc2cnc3[nH]c(=N)[nH]c(=O)c3c2)c1F

>  <score_type>  (68) 
oracle

>  <origin>  (68) 
adg

>  <m_score__min__energy>  (68) 
-12.460000000000001

>  <m_primary>  (68) 
energy

$$$$
68:0
     RDKit          3D

 54 58  0  0  1  0  0  0  0  0999 V2000
   64.1320   31.5770   50.6970 C   0  0  0  0  0  0  0  0  0  0  0  0
   64.1720   33.0000   50.3910 N   0  0  0  0  0  0  0  0  0  0  0  0
   64.4840   33.1460   49.0030 C   0  0  0  0  0  0  0  0  0  0  0  0
   63.2920   32.8250   48.1260 C   0  0  0  0  0  0  0  0  0  0  0  0
   62.1750   33.6730   48.4960 N   0  0  0  0  0  0  0  0  0  0  0  0
   61.0490   33.6870   47.6270 C   0  0  0  0  0  0  0  0  0  0  0  0
   59.8600   33.1680   48.0940 C   0  0  0  0  0  0  0  0  0  0  0  0
   58.7250   33.1590   47.2780 C   0  0  0  0  0  0  0  0  0  0  0  0
   58.7890   33.6800   45.9840 C   0  0  0  0  0  0  0  0  0  0  0  0
   56.1260   29.4610   44.8830 N   0  0  0  0  0  0  0  0  0  0  0  0
   56.6340   30.4810   44.2740 C   0  0  0  0  0  0  0  0  0  0  0  0
   57.7230   32.7040   43.0340 N   0  0  0  0  0  0  0  0  0  0  0  0
   57.4430   31.5920   42.3270 C   0  0  0  0  0  0  0  0  0  0  0  0
   56.9030   30.4700   42.9070 C   0  0  0  0  0  0  0  0  0  0  0  0
   57.4540   32.6940   44.3550 C   0  0  0  0  0  0  0  0  0  0  0  0
   57.6750   33.6910   45.1340 N   0  0  0  0  0  0  0  0  0  0  0  0
   57.0310   28.4790   45.3680 C   0  0  0  0  0  0  0  0  0  0  0  0
   58.3730   28.8020   45.4380 C   0  0  0  0  0  0  0  0  0  0  0  0
   59.3150   27.9020   45.9000 C   0  0  0  0  0  0  0  0  0  0  0  0
   58.8630   26.6590   46.2930 C   0  0  0  0  0  0  0  0  0  0  0  0
   57.5300   26.3090   46.2340 C   0  0  0  0  0  0  0  0  0  0  0  0
   56.6020   27.2290   45.7660 C   0  0  0  0  0  0  0  0  0  0  0  0
   55.3370   26.6500   45.8010 O   0  0  0  0  0  0  0  0  0  0  0  0
   55.5020   25.2390   45.9840 C   0  0  0  0  0  0  0  0  0  0  0  0
   56.7880   25.1730   46.5450 O   0  0  0  0  0  0  0  0  0  0  0  0
   56.9170   31.5890   44.9490 N   0  0  0  0  0  0  0  0  0  0  0  0
   59.9830   34.2040   45.5100 C   0  0  0  0  0  0  0  0  0  0  0  0
   61.0830   34.1940   46.3460 C   0  0  0  0  0  0  0  0  0  0  0  0
   62.2790   34.4380   49.7040 C   0  0  0  0  0  0  0  0  0  0  0  0
   62.9260   33.5810   50.7780 C   0  0  0  0  0  0  0  0  0  0  0  0
   64.1281   31.4365   51.7880 H   0  0  0  0  0  0  0  0  0  0  0  0
   63.2211   31.1350   50.2671 H   0  0  0  0  0  0  0  0  0  0  0  0
   65.0167   31.0845   50.2671 H   0  0  0  0  0  0  0  0  0  0  0  0
   64.7963   34.1838   48.8147 H   0  0  0  0  0  0  0  0  0  0  0  0
   65.2918   32.4413   48.7564 H   0  0  0  0  0  0  0  0  0  0  0  0
   63.5538   33.0029   47.0725 H   0  0  0  0  0  0  0  0  0  0  0  0
   63.0113   31.7701   48.2619 H   0  0  0  0  0  0  0  0  0  0  0  0
   59.8043   32.7590   49.1136 H   0  0  0  0  0  0  0  0  0  0  0  0
   57.7802   32.7410   47.6557 H   0  0  0  0  0  0  0  0  0  0  0  0
   58.1310   33.5680   42.6180 H   0  0  0  0  0  0  0  0  0  0  0  0
   57.6542   31.5821   41.2475 H   0  0  0  0  0  0  0  0  0  0  0  0
   56.6864   29.5772   42.3020 H   0  0  0  0  0  0  0  0  0  0  0  0
   58.7003   29.8021   45.1175 H   0  0  0  0  0  0  0  0  0  0  0  0
   60.3816   28.1660   45.9522 H   0  0  0  0  0  0  0  0  0  0  0  0
   59.5900   25.9225   46.6658 H   0  0  0  0  0  0  0  0  0  0  0  0
   54.7441   24.8323   46.6697 H   0  0  0  0  0  0  0  0  0  0  0  0
   55.3871   24.6525   45.0605 H   0  0  0  0  0  0  0  0  0  0  0  0
   56.7100   31.5930   45.9900 H   0  0  0  0  0  0  0  0  0  0  0  0
   60.0522   34.6175   44.4930 H   0  0  0  0  0  0  0  0  0  0  0  0
   62.0300   34.6101   45.9717 H   0  0  0  0  0  0  0  0  0  0  0  0
   62.8958   35.3307   49.5232 H   0  0  0  0  0  0  0  0  0  0  0  0
   61.2772   34.7518   50.0325 H   0  0  0  0  0  0  0  0  0  0  0  0
   63.0989   34.2100   51.6637 H   0  0  0  0  0  0  0  0  0  0  0  0
   62.2361   32.7474   50.9757 H   0  0  0  0  0  0  0  0  0  0  0  0
  1  2  1  0
  2  3  1  0
  3  4  1  0
  4  5  1  0
  5  6  1  0
  6  7  2  0
  7  8  1  0
  8  9  2  0
  9 10  1  0
 10 11  2  0
 11 12  1  0
 12 13  1  0
 13 14  2  0
 14 15  1  0
 15 16  2  0
 16 17  1  0
 17 18  2  0
 18 19  1  0
 19 20  2  0
 20 21  1  0
 21 22  2  0
 22 23  1  0
 23 24  1  0
 24 25  1  0
 15 26  1  0
  9 27  1  0
 27 28  2  0
  5 29  1  0
 29 30  1  0
 30  2  1  0
 28  6  1  0
 26 11  1  0
 22 17  1  0
 25 21  1  0
  1 31  1  0
  1 32  1  0
  1 33  1  0
  3 34  1  0
  3 35  1  0
  4 36  1  0
  4 37  1  0
  7 38  1  0
  8 39  1  0
 12 40  1  0
 13 41  1  0
 14 42  1  0
 18 43  1  0
 19 44  1  0
 20 45  1  0
 24 46  1  0
 24 47  1  0
 26 48  1  0
 27 49  1  0
 28 50  1  0
 29 51  1  0
 29 52  1  0
 30 53  1  0
 30 54  1  0
M  END
>  <smiles>  (69) 
CN1CCN(c2ccc(N=c3[nH]ccc(=Nc4cccc5c4OCO5)[nH]3)cc2)CC1

>  <score_type>  (69) 
oracle

>  <origin>  (69) 
adg

>  <m_score__min__energy>  (69) 
-9.2899999999999991

>  <m_primary>  (69) 
energy

$$$$
69:0
     RDKit          3D

 45 48  0  0  0  0  0  0  0  0999 V2000
   58.4730   29.3470   50.1900 O   0  0  0  0  0  0  0  0  0  0  0  0
   59.4270   29.8190   49.5150 C   0  0  0  0  0  0  0  0  0  0  0  0
   60.0490   31.1150   49.9340 C   0  0  0  0  0  0  0  0  0  0  0  0
   60.1820   31.9970   48.7750 N   0  0  0  0  0  0  0  0  0  0  0  0
   59.1840   32.3460   47.9300 C   0  0  0  0  0  0  0  0  0  0  0  0
   59.6810   33.1170   46.8810 C   0  0  0  0  0  0  0  0  0  0  0  0
   58.9130   33.6330   45.7270 C   0  0  0  0  0  0  0  0  0  0  0  0
   58.8630   34.8770   45.5320 O   0  0  0  0  0  0  0  0  0  0  0  0
   58.2240   32.7290   44.7760 C   0  0  0  0  0  0  0  0  0  0  0  0
   58.2920   32.9480   43.3870 C   0  0  0  0  0  0  0  0  0  0  0  0
   57.6490   32.0770   42.5020 C   0  0  0  0  0  0  0  0  0  0  0  0
   56.9430   30.9760   42.9910 C   0  0  0  0  0  0  0  0  0  0  0  0
   56.3220   30.1320   42.1290 F   0  0  0  0  0  0  0  0  0  0  0  0
   56.8840   30.7390   44.3660 C   0  0  0  0  0  0  0  0  0  0  0  0
   57.5250   31.6070   45.2550 C   0  0  0  0  0  0  0  0  0  0  0  0
   61.0470   33.2100   47.1040 C   0  0  0  0  0  0  0  0  0  0  0  0
   62.0590   33.8430   46.3780 C   0  0  0  0  0  0  0  0  0  0  0  0
   63.3760   33.7460   46.8590 C   0  0  0  0  0  0  0  0  0  0  0  0
   63.6550   33.0280   48.0410 C   0  0  0  0  0  0  0  0  0  0  0  0
   62.6180   32.4050   48.7570 C   0  0  0  0  0  0  0  0  0  0  0  0
   61.3150   32.5190   48.2610 C   0  0  0  0  0  0  0  0  0  0  0  0
   59.9060   29.1320   48.3490 N   0  0  0  0  0  0  0  0  0  0  0  0
   59.1480   28.1430   47.6340 C   0  0  0  0  0  0  0  0  0  0  0  0
   59.3320   26.7670   47.8650 C   0  0  0  0  0  0  0  0  0  0  0  0
   58.5620   25.8260   47.1760 C   0  0  0  0  0  0  0  0  0  0  0  0
   57.5920   26.2470   46.2600 C   0  0  0  0  0  0  0  0  0  0  0  0
   56.6250   25.0640   45.4000 Cl  0  0  0  0  0  0  0  0  0  0  0  0
   57.3880   27.6120   46.0410 C   0  0  0  0  0  0  0  0  0  0  0  0
   58.1550   28.5560   46.7300 C   0  0  0  0  0  0  0  0  0  0  0  0
   59.4125   31.5983   50.6898 H   0  0  0  0  0  0  0  0  0  0  0  0
   61.0448   30.9199   50.3587 H   0  0  0  0  0  0  0  0  0  0  0  0
   58.1288   32.0611   48.0539 H   0  0  0  0  0  0  0  0  0  0  0  0
   58.8540   33.8089   42.9958 H   0  0  0  0  0  0  0  0  0  0  0  0
   57.6994   32.2595   41.4184 H   0  0  0  0  0  0  0  0  0  0  0  0
   56.3324   29.8682   44.7501 H   0  0  0  0  0  0  0  0  0  0  0  0
   57.4822   31.4108   46.3365 H   0  0  0  0  0  0  0  0  0  0  0  0
   61.8318   34.4006   45.4574 H   0  0  0  0  0  0  0  0  0  0  0  0
   64.1951   34.2334   46.3099 H   0  0  0  0  0  0  0  0  0  0  0  0
   64.6906   32.9552   48.4046 H   0  0  0  0  0  0  0  0  0  0  0  0
   62.8251   31.8442   49.6804 H   0  0  0  0  0  0  0  0  0  0  0  0
   60.8810   29.3290   48.0300 H   0  0  0  0  0  0  0  0  0  0  0  0
   60.0860   26.4303   48.5918 H   0  0  0  0  0  0  0  0  0  0  0  0
   58.7190   24.7520   47.3543 H   0  0  0  0  0  0  0  0  0  0  0  0
   56.6221   27.9444   45.3248 H   0  0  0  0  0  0  0  0  0  0  0  0
   57.9799   29.6291   46.5633 H   0  0  0  0  0  0  0  0  0  0  0  0
  1  2  2  0
  2  3  1  0
  3  4  1  0
  4  5  1  0
  5  6  2  0
  6  7  1  0
  7  8  2  0
  7  9  1  0
  9 10  2  0
 10 11  1  0
 11 12  2  0
 12 13  1  0
 12 14  1  0
 14 15  2  0
  6 16  1  0
 16 17  2  0
 17 18  1  0
 18 19  2  0
 19 20  1  0
 20 21  2  0
  2 22  1  0
 22 23  1  0
 23 24  2  0
 24 25  1  0
 25 26  2  0
 26 27  1  0
 26 28  1  0
 28 29  2  0
 21  4  1  0
 29 23  1  0
 15  9  1  0
 21 16  1  0
  3 30  1  0
  3 31  1  0
  5 32  1  0
 10 33  1  0
 11 34  1  0
 14 35  1  0
 15 36  1  0
 17 37  1  0
 18 38  1  0
 19 39  1  0
 20 40  1  0
 22 41  1  0
 24 42  1  0
 25 43  1  0
 28 44  1  0
 29 45  1  0
M  END
>  <UniqueID>  (70) 
60

>  <SMILES>  (70) 
O=C(Cn1cc(C(=O)c2ccc(F)cc2)c2ccccc21)Nc1ccc(Cl)cc1

>  <Energy>  (70) 
89.71786697099243

>  <Genealogy>  (70) 
O=C(Cn1cc(C(=O)c2ccc(F)cc2)c2ccccc21)Nc1ccc(Cl)cc1 (3D coordinates assigned)
O=C(Cn1cc(C(=O)c2ccc(F)cc2)c2ccccc21)Nc1ccc(Cl)cc1 (optimized conformer: 89.71786697099243 kcal/mol)

>  <smiles>  (70) 
O=C(Cn1cc(C(=O)c2ccc(F)cc2)c2ccccc21)Nc1ccc(Cl)cc1

>  <score_type>  (70) 
oracle

>  <origin>  (70) 
adg

>  <m_score__min__energy>  (70) 
-8.7400000000000002

>  <m_primary>  (70) 
energy

$$$$
70:0
     RDKit          3D

 26 27  0  0  0  0  0  0  0  0999 V2000
   56.4237   31.3005   43.1819 H   0  0  0  0  0  0  0  0  0  0  0  0
   56.7560   31.1930   44.2250 C   0  0  0  0  0  0  0  0  0  0  0  0
   56.5940   32.2100   45.0240 N   0  0  0  0  0  0  0  0  0  0  0  0
   57.5880   33.1550   45.4530 C   0  0  0  0  0  0  0  0  0  0  0  0
   58.2770   33.9110   44.5520 N   0  0  0  0  0  0  0  0  0  0  0  0
   59.2510   34.7790   44.9360 C   0  0  0  0  0  0  0  0  0  0  0  0
   59.7771   35.3839   44.1828 H   0  0  0  0  0  0  0  0  0  0  0  0
   59.5830   34.9020   46.2870 C   0  0  0  0  0  0  0  0  0  0  0  0
   60.3664   35.6053   46.6057 H   0  0  0  0  0  0  0  0  0  0  0  0
   58.9090   34.1220   47.2280 C   0  0  0  0  0  0  0  0  0  0  0  0
   59.1620   34.2045   48.2953 H   0  0  0  0  0  0  0  0  0  0  0  0
   57.9120   33.2360   46.8110 C   0  0  0  0  0  0  0  0  0  0  0  0
   57.3864   32.6075   47.5449 H   0  0  0  0  0  0  0  0  0  0  0  0
   57.3580   29.9030   44.6300 C   0  0  0  0  0  0  0  0  0  0  0  0
   58.7520   29.7430   44.6320 C   0  0  0  0  0  0  0  0  0  0  0  0
   59.4007   30.5902   44.3645 H   0  0  0  0  0  0  0  0  0  0  0  0
   59.3180   28.5170   44.9710 C   0  0  0  0  0  0  0  0  0  0  0  0
   60.4120   28.4030   44.9841 H   0  0  0  0  0  0  0  0  0  0  0  0
   58.5020   27.4330   45.2940 C   0  0  0  0  0  0  0  0  0  0  0  0
   58.9600   26.4706   45.5662 H   0  0  0  0  0  0  0  0  0  0  0  0
   57.0990   27.5550   45.2760 C   0  0  0  0  0  0  0  0  0  0  0  0
   56.2750   26.4160   45.6050 N   0  0  0  0  0  0  0  0  0  0  0  0
   55.1230   26.5800   46.0550 O   0  0  0  0  0  0  0  0  0  0  0  0
   56.7240   25.1300   45.4100 O   0  0  0  0  0  0  0  0  0  0  0  0
   56.5300   28.8040   44.9270 C   0  0  0  0  0  0  0  0  0  0  0  0
   55.1480   28.9630   44.8760 O   0  0  0  0  0  0  0  0  0  0  0  0
  1  2  1  0
  2  3  2  0
  3  4  1  0
  4  5  2  0
  5  6  1  0
  6  7  1  0
  6  8  2  0
  8  9  1  0
  8 10  1  0
 10 11  1  0
 10 12  2  0
 12 13  1  0
  2 14  1  0
 14 15  2  0
 15 16  1  0
 15 17  1  0
 17 18  1  0
 17 19  2  0
 19 20  1  0
 19 21  1  0
 21 22  1  0
 22 23  2  0
 22 24  1  0
 21 25  2  0
 25 26  1  0
 12  4  1  0
 25 14  1  0
M  CHG  3  22   1  24  -1  26  -1
M  END
>  <UniqueID>  (71) 
61

>  <SMILES>  (71) 
O=[N+]([O-])c1cccc(/C=N\c2ccccn2)c1[O-]

>  <Energy>  (71) 
40.93696608262285

>  <Genealogy>  (71) 
O=[N+]([O-])c1cccc(C=Nc2ccccn2)c1[O-] (protonated)
O=[N+]([O-])c1cccc(/C=N\c2ccccn2)c1[O-] (cis-trans isomerization)
O=[N+]([O-])c1cccc(/C=N\c2ccccn2)c1[O-] (3D coordinates assigned)
O=[N+]([O-])c1cccc(/C=N\c2ccccn2)c1[O-] (optimized conformer: 40.93696608262285 kcal/mol)

>  <smiles>  (71) 
O=[N+]([O-])c1cccc(C=Nc2ccccn2)c1O

>  <score_type>  (71) 
oracle

>  <origin>  (71) 
adg

>  <m_score__min__energy>  (71) 
-11.85

>  <m_primary>  (71) 
energy

$$$$
71:0
     RDKit          3D

 74 78  0  0  0  0  0  0  0  0999 V2000
   59.4340   30.2640   48.9150 H   0  0  0  0  0  0  0  0  0  0  0  0
   58.5100   30.4790   49.2080 O   0  0  0  0  0  0  0  0  0  0  0  0
   58.5810   30.8070   50.5690 C   0  0  0  0  0  0  0  0  0  0  0  0
   57.6959   31.3994   50.8442 H   0  0  0  0  0  0  0  0  0  0  0  0
   59.4988   31.3872   50.7454 H   0  0  0  0  0  0  0  0  0  0  0  0
   58.6260   29.5420   51.4290 C   0  0  0  0  0  0  0  0  0  0  0  0
   58.4341   28.6699   50.7867 H   0  0  0  0  0  0  0  0  0  0  0  0
   57.8597   29.6385   52.2122 H   0  0  0  0  0  0  0  0  0  0  0  0
   59.9810   29.3590   52.1170 C   0  0  0  0  0  0  0  0  0  0  0  0
   59.8847   28.6222   52.9280 H   0  0  0  0  0  0  0  0  0  0  0  0
   60.3146   30.3202   52.5352 H   0  0  0  0  0  0  0  0  0  0  0  0
   62.0260   32.0540   47.9670 N   0  0  0  0  0  0  0  0  0  0  0  0
   61.5550   30.8800   48.2690 C   0  0  0  0  0  0  0  0  0  0  0  0
   61.1310   30.0270   47.2970 N   0  0  0  0  0  0  0  0  0  0  0  0
   60.6380   28.8060   47.6220 C   0  0  0  0  0  0  0  0  0  0  0  0
   60.2410   28.0090   46.6730 N   0  0  0  0  0  0  0  0  0  0  0  0
   58.9010   27.4220   46.4910 C   0  0  2  0  0  0  0  0  0  0  0  0
   58.8041   26.6339   47.2522 H   0  0  0  0  0  0  0  0  0  0  0  0
   58.7500   26.7690   45.1300 C   0  0  0  0  0  0  0  0  0  0  0  0
   59.2090   27.3450   44.1050 O   0  0  0  0  0  0  0  0  0  0  0  0
   58.0470   25.5190   44.9780 N   0  0  0  0  0  0  0  0  0  0  0  0
   57.3810   25.2170   43.7030 C   0  0  0  0  0  0  0  0  0  0  0  0
   58.0607   24.6321   43.0659 H   0  0  0  0  0  0  0  0  0  0  0  0
   57.1182   26.1590   43.1995 H   0  0  0  0  0  0  0  0  0  0  0  0
   56.1060   24.4100   43.9600 C   0  0  0  0  0  0  0  0  0  0  0  0
   55.6646   24.1323   42.9915 H   0  0  0  0  0  0  0  0  0  0  0  0
   55.4274   25.0423   44.5514 H   0  0  0  0  0  0  0  0  0  0  0  0
   56.3680   23.1140   44.7760 C   0  0  0  0  0  0  0  0  0  0  0  0
   55.5933   23.0896   45.5565 H   0  0  0  0  0  0  0  0  0  0  0  0
   56.2470   21.8930   43.9050 C   0  0  0  0  0  0  0  0  0  0  0  0
   56.2770   22.0030   42.6510 O   0  0  0  0  0  0  0  0  0  0  0  0
   56.0760   20.6390   44.4800 O   0  0  0  0  0  0  0  0  0  0  0  0
   57.7390   23.1100   45.4880 C   0  0  0  0  0  0  0  0  0  0  0  0
   58.5111   22.7955   44.7704 H   0  0  0  0  0  0  0  0  0  0  0  0
   57.6791   22.4140   46.3377 H   0  0  0  0  0  0  0  0  0  0  0  0
   58.1050   24.4940   46.0340 C   0  0  0  0  0  0  0  0  0  0  0  0
   59.1253   24.4591   46.4437 H   0  0  0  0  0  0  0  0  0  0  0  0
   57.3798   24.7610   46.8169 H   0  0  0  0  0  0  0  0  0  0  0  0
   57.7700   28.4420   46.7490 C   0  0  0  0  0  0  0  0  0  0  0  0
   56.8406   27.8949   46.9656 H   0  0  0  0  0  0  0  0  0  0  0  0
   58.0677   29.0721   47.6001 H   0  0  0  0  0  0  0  0  0  0  0  0
   57.5400   29.3420   45.5600 C   0  0  0  0  0  0  0  0  0  0  0  0
   56.3590   29.2410   44.8040 C   0  0  0  0  0  0  0  0  0  0  0  0
   55.5848   28.5144   45.0915 H   0  0  0  0  0  0  0  0  0  0  0  0
   56.1650   30.0600   43.6890 C   0  0  0  0  0  0  0  0  0  0  0  0
   55.2393   29.9758   43.1008 H   0  0  0  0  0  0  0  0  0  0  0  0
   57.1440   30.9860   43.3190 C   0  0  0  0  0  0  0  0  0  0  0  0
   56.9884   31.6303   42.4411 H   0  0  0  0  0  0  0  0  0  0  0  0
   58.3210   31.0930   44.0650 C   0  0  0  0  0  0  0  0  0  0  0  0
   59.0919   31.8215   43.7733 H   0  0  0  0  0  0  0  0  0  0  0  0
   58.5200   30.2750   45.1820 C   0  0  0  0  0  0  0  0  0  0  0  0
   59.4475   30.3626   45.7668 H   0  0  0  0  0  0  0  0  0  0  0  0
   60.5750   28.4370   48.9280 N   0  0  0  0  0  0  0  0  0  0  0  0
   61.0040   29.2750   49.9030 C   0  0  0  0  0  0  0  0  0  0  0  0
   60.9580   28.8850   51.1410 N   0  0  0  0  0  0  0  0  0  0  0  0
   61.2150   33.2690   47.8560 C   0  0  0  0  0  0  0  0  0  0  0  0
   61.6699   34.0242   48.5138 H   0  0  0  0  0  0  0  0  0  0  0  0
   59.7500   33.0010   48.2830 C   0  0  0  0  0  0  0  0  0  0  0  0
   59.5945   31.9331   48.4961 H   0  0  0  0  0  0  0  0  0  0  0  0
   59.4727   33.5391   49.2015 H   0  0  0  0  0  0  0  0  0  0  0  0
   58.9500   33.4250   47.1130 C   0  0  0  0  0  0  0  0  0  0  0  0
   57.5580   33.4090   47.0020 C   0  0  0  0  0  0  0  0  0  0  0  0
   56.9331   33.0615   47.8379 H   0  0  0  0  0  0  0  0  0  0  0  0
   56.9710   33.8450   45.8030 C   0  0  0  0  0  0  0  0  0  0  0  0
   55.8765   33.8383   45.6937 H   0  0  0  0  0  0  0  0  0  0  0  0
   57.7790   34.2900   44.7420 C   0  0  0  0  0  0  0  0  0  0  0  0
   57.3155   34.6363   43.8064 H   0  0  0  0  0  0  0  0  0  0  0  0
   59.1770   34.2930   44.8750 C   0  0  0  0  0  0  0  0  0  0  0  0
   59.8175   34.6380   44.0499 H   0  0  0  0  0  0  0  0  0  0  0  0
   59.7390   33.8500   46.0740 C   0  0  0  0  0  0  0  0  0  0  0  0
   61.1830   33.7590   46.3910 C   0  0  0  0  0  0  0  0  0  0  0  0
   61.6843   33.0393   45.7271 H   0  0  0  0  0  0  0  0  0  0  0  0
   61.7073   34.7162   46.2536 H   0  0  0  0  0  0  0  0  0  0  0  0
   61.4910   30.5010   49.5690 N   0  0  0  0  0  0  0  0  0  0  0  0
  1  2  1  0
  2  3  1  0
  3  4  1  0
  3  5  1  0
  3  6  1  0
  6  7  1  0
  6  8  1  0
  6  9  1  0
  9 10  1  0
  9 11  1  0
  9 12  1  0
 12 13  2  0
 13 14  1  0
 14 15  1  0
 15 16  2  3
 16 17  1  0
 17 18  1  1
 17 19  1  0
 19 20  2  0
 19 21  1  0
 21 22  1  0
 22 23  1  0
 22 24  1  0
 22 25  1  0
 25 26  1  0
 25 27  1  0
 25 28  1  0
 28 29  1  0
 28 30  1  0
 30 31  2  0
 30 32  1  0
 28 33  1  0
 33 34  1  0
 33 35  1  0
 33 36  1  0
 36 37  1  0
 36 38  1  0
 17 39  1  0
 39 40  1  0
 39 41  1  0
 39 42  1  0
 42 43  2  0
 43 44  1  0
 43 45  1  0
 45 46  1  0
 45 47  2  0
 47 48  1  0
 47 49  1  0
 49 50  1  0
 49 51  2  0
 51 52  1  0
 15 53  1  0
 53 54  1  0
 54 55  2  0
 55 56  1  0
 56 57  1  0
 56 58  1  0
 58 59  1  0
 58 60  1  0
 58 61  1  0
 61 62  2  0
 62 63  1  0
 62 64  1  0
 64 65  1  0
 64 66  2  0
 66 67  1  0
 66 68  1  0
 68 69  1  0
 68 70  2  0
 70 71  1  0
 71 72  1  0
 71 73  1  0
 54 74  1  0
 74 13  1  0
 36 21  1  0
 51 42  1  0
 71 56  1  0
 70 61  1  0
M  CHG  4  14  -1  32  -1  53  -1  74  -1
M  END
>  <UniqueID>  (72) 
62

>  <SMILES>  (72) 
O=C([O-])C1CCN(C(=O)[C@H](Cc2ccccc2)N=c2[n-]/c(=N\C3Cc4ccccc4C3)[n-]/c(=N\CCCO)[n-]2)CC1

>  <Energy>  (72) 
84.59504059035453

>  <Genealogy>  (72) 
O=C([O-])C1CCN(C(=O)C(Cc2ccccc2)N=c2[n-]c(=NCCCO)[n-]c(=NC3Cc4ccccc4C3)[n-]2)CC1 (protonated)
O=C([O-])C1CCN(C(=O)[C@H](Cc2ccccc2)N=c2[n-]c(=NCCCO)[n-]c(=NC3Cc4ccccc4C3)[n-]2)CC1 (chirality)
O=C([O-])C1CCN(C(=O)[C@H](Cc2ccccc2)N=c2[n-]/c(=N\C3Cc4ccccc4C3)[n-]/c(=N\CCCO)[n-]2)CC1 (cis-trans isomerization)
O=C([O-])C1CCN(C(=O)[C@H](Cc2ccccc2)N=c2[n-]/c(=N\C3Cc4ccccc4C3)[n-]/c(=N\CCCO)[n-]2)CC1 (3D coordinates assigned)
O=C([O-])C1CCN(C(=O)[C@H](Cc2ccccc2)N=c2[n-]/c(=N\C3Cc4ccccc4C3)[n-]/c(=N\CCCO)[n-]2)CC1 (nonaromatic ring conformer: 84.59504059035453 kcal/mol)

>  <smiles>  (72) 
O=C(O)C1CCN(C(=O)C(Cc2ccccc2)N=c2[nH]c(=NCCCO)[nH]c(=NC3Cc4ccccc4C3)[nH]2)CC1

>  <score_type>  (72) 
oracle

>  <origin>  (72) 
adg

>  <m_score__min__energy>  (72) 
-14.880000000000001

>  <m_primary>  (72) 
energy

$$$$
72:0
     RDKit          3D

 56 60  0  0  0  0  0  0  0  0999 V2000
   63.4140   31.9980   47.8170 C   0  0  0  0  0  0  0  0  0  0  0  0
   62.6390   33.2440   47.5310 C   0  0  0  0  0  0  0  0  0  0  0  0
   62.4050   33.9780   48.7370 N   0  0  0  0  0  0  0  0  0  0  0  0
   61.0520   34.5270   48.7670 C   0  0  0  0  0  0  0  0  0  0  0  0
   60.2900   33.9310   47.6470 C   0  0  0  0  0  0  0  0  0  0  0  0
   60.0680   34.6480   46.5440 N   0  0  0  0  0  0  0  0  0  0  0  0
   59.3850   34.1670   45.5220 C   0  0  0  0  0  0  0  0  0  0  0  0
   59.2320   34.9350   44.5200 O   0  0  0  0  0  0  0  0  0  0  0  0
   58.8370   32.8630   45.5120 C   0  0  0  0  0  0  0  0  0  0  0  0
   58.1230   32.2050   44.5780 C   0  0  0  0  0  0  0  0  0  0  0  0
   57.7130   30.9540   44.8110 C   0  0  0  0  0  0  0  0  0  0  0  0
   58.3240   30.5730   46.4430 S   0  0  0  0  0  0  0  0  0  0  0  0
   59.1030   32.1690   46.6880 C   0  0  0  0  0  0  0  0  0  0  0  0
   59.8000   32.6850   47.7120 N   0  0  0  0  0  0  0  0  0  0  0  0
   56.9450   30.0490   43.9810 C   0  0  0  0  0  0  0  0  0  0  0  0
   56.7150   30.6090   42.6330 C   0  0  0  0  0  0  0  0  0  0  0  0
   57.7680   31.5910   42.2500 C   0  0  0  0  0  0  0  0  0  0  0  0
   57.7090   32.7560   43.2030 C   0  0  0  0  0  0  0  0  0  0  0  0
   62.6170   33.1930   49.9490 C   0  0  0  0  0  0  0  0  0  0  0  0
   61.3140   32.8430   50.5300 C   0  0  0  0  0  0  0  0  0  0  0  0
   60.6980   31.7360   50.0280 N   0  0  0  0  0  0  0  0  0  0  0  0
   59.5100   31.3250   50.4760 C   0  0  0  0  0  0  0  0  0  0  0  0
   58.9380   30.2980   50.0100 O   0  0  0  0  0  0  0  0  0  0  0  0
   58.8730   32.0260   51.4760 C   0  0  0  0  0  0  0  0  0  0  0  0
   57.6800   31.9030   52.1650 C   0  0  0  0  0  0  0  0  0  0  0  0
   56.6810   30.8070   51.9260 C   0  0  0  0  0  0  0  0  0  0  0  0
   57.5890   32.9170   53.0610 N   0  0  0  0  0  0  0  0  0  0  0  0
   58.6860   33.6760   52.9590 N   0  0  0  0  0  0  0  0  0  0  0  0
   58.9550   34.8710   53.7640 C   0  0  0  0  0  0  0  0  0  0  0  0
   59.4790   33.1480   51.9980 C   0  0  0  0  0  0  0  0  0  0  0  0
   60.6800   33.5080   51.4970 N   0  0  0  0  0  0  0  0  0  0  0  0
   63.4993   31.8609   48.9051 H   0  0  0  0  0  0  0  0  0  0  0  0
   62.8938   31.1338   47.3782 H   0  0  0  0  0  0  0  0  0  0  0  0
   64.4191   32.0825   47.3782 H   0  0  0  0  0  0  0  0  0  0  0  0
   63.2090   33.8717   46.8303 H   0  0  0  0  0  0  0  0  0  0  0  0
   61.6701   32.9664   47.0904 H   0  0  0  0  0  0  0  0  0  0  0  0
   60.5686   34.2756   49.7226 H   0  0  0  0  0  0  0  0  0  0  0  0
   61.0824   35.6221   48.6676 H   0  0  0  0  0  0  0  0  0  0  0  0
   59.9380   32.0730   48.5480 H   0  0  0  0  0  0  0  0  0  0  0  0
   57.4938   29.1006   43.8846 H   0  0  0  0  0  0  0  0  0  0  0  0
   55.9670   29.8905   44.4589 H   0  0  0  0  0  0  0  0  0  0  0  0
   56.7134   29.7868   41.9023 H   0  0  0  0  0  0  0  0  0  0  0  0
   55.7483   31.1338   42.6432 H   0  0  0  0  0  0  0  0  0  0  0  0
   58.7577   31.1145   42.3082 H   0  0  0  0  0  0  0  0  0  0  0  0
   57.6000   31.9393   41.2202 H   0  0  0  0  0  0  0  0  0  0  0  0
   58.4044   33.5461   42.8834 H   0  0  0  0  0  0  0  0  0  0  0  0
   56.7024   33.1985   43.2343 H   0  0  0  0  0  0  0  0  0  0  0  0
   63.1683   32.2740   49.7008 H   0  0  0  0  0  0  0  0  0  0  0  0
   63.1996   33.7808   50.6736 H   0  0  0  0  0  0  0  0  0  0  0  0
   56.3260   30.4175   52.8915 H   0  0  0  0  0  0  0  0  0  0  0  0
   55.8289   31.2055   51.3557 H   0  0  0  0  0  0  0  0  0  0  0  0
   57.1565   29.9954   51.3557 H   0  0  0  0  0  0  0  0  0  0  0  0
   58.8972   34.6143   54.8321 H   0  0  0  0  0  0  0  0  0  0  0  0
   59.9611   35.2505   53.5320 H   0  0  0  0  0  0  0  0  0  0  0  0
   58.2086   35.6450   53.5320 H   0  0  0  0  0  0  0  0  0  0  0  0
   61.1170   34.3440   51.8910 H   0  0  0  0  0  0  0  0  0  0  0  0
  1  2  1  0
  2  3  1  0
  3  4  1  0
  4  5  1  0
  5  6  2  0
  6  7  1  0
  7  8  2  0
  7  9  1  0
  9 10  1  0
 10 11  2  0
 11 12  1  0
 12 13  1  0
 13 14  1  0
 11 15  1  0
 15 16  1  0
 16 17  1  0
 17 18  1  0
  3 19  1  0
 19 20  1  0
 20 21  2  0
 21 22  1  0
 22 23  2  0
 22 24  1  0
 24 25  1  0
 25 26  1  0
 25 27  2  0
 27 28  1  0
 28 29  1  0
 28 30  1  0
 30 31  1  0
 14  5  1  0
 31 20  1  0
 13  9  2  0
 30 24  2  0
 18 10  1  0
  1 32  1  0
  1 33  1  0
  1 34  1  0
  2 35  1  0
  2 36  1  0
  4 37  1  0
  4 38  1  0
 14 39  1  0
 15 40  1  0
 15 41  1  0
 16 42  1  0
 16 43  1  0
 17 44  1  0
 17 45  1  0
 18 46  1  0
 18 47  1  0
 19 48  1  0
 19 49  1  0
 26 50  1  0
 26 51  1  0
 26 52  1  0
 29 53  1  0
 29 54  1  0
 29 55  1  0
 31 56  1  0
M  END
>  <smiles>  (73) 
CCN(Cc1nc(=O)c2c3c(sc2[nH]1)CCCC3)Cc1nc(=O)c2c(C)nn(C)c2[nH]1

>  <score_type>  (73) 
oracle

>  <origin>  (73) 
adg

>  <m_score__min__energy>  (73) 
-9.4499999999999993

>  <m_primary>  (73) 
energy

$$$$
73:0
     RDKit          3D

 59 61  0  0  0  0  0  0  0  0999 V2000
   61.0420   28.8290   50.0780 C   0  0  0  0  0  0  0  0  0  0  0  0
   60.2060   28.4010   48.9080 C   0  0  0  0  0  0  0  0  0  0  0  0
   60.3850   27.1290   48.3420 C   0  0  0  0  0  0  0  0  0  0  0  0
   59.5900   26.7170   47.2660 C   0  0  0  0  0  0  0  0  0  0  0  0
   58.6030   27.5700   46.7470 C   0  0  0  0  0  0  0  0  0  0  0  0
   57.7300   27.1070   45.6140 C   0  0  0  0  0  0  0  0  0  0  0  0
   56.4760   27.8510   45.6170 N   0  0  0  0  0  0  0  0  0  0  0  0
   56.2740   29.0530   44.8630 C   0  0  0  0  0  0  0  0  0  0  0  0
   55.1460   29.6210   44.8530 O   0  0  0  0  0  0  0  0  0  0  0  0
   57.3860   29.5990   44.0300 C   0  0  0  0  0  0  0  0  0  0  0  0
   58.2330   30.4830   44.8330 N   0  0  0  0  0  0  0  0  0  0  0  0
   57.7540   31.7510   45.3100 C   0  0  0  0  0  0  0  0  0  0  0  0
   56.5300   32.0420   45.1910 O   0  0  0  0  0  0  0  0  0  0  0  0
   58.6720   32.7070   45.9710 C   0  0  0  0  0  0  0  0  0  0  0  0
   58.2740   34.0330   46.2220 C   0  0  0  0  0  0  0  0  0  0  0  0
   59.1450   34.9220   46.8530 C   0  0  0  0  0  0  0  0  0  0  0  0
   60.4240   34.5070   47.2230 C   0  0  0  0  0  0  0  0  0  0  0  0
   60.8540   33.2010   46.9480 C   0  0  0  0  0  0  0  0  0  0  0  0
   62.4820   32.6770   47.4000 S   0  0  0  0  0  0  0  0  0  0  0  0
   63.4620   33.3860   46.5120 O   0  0  0  0  0  0  0  0  0  0  0  0
   62.6190   31.2020   47.1490 O   0  0  0  0  0  0  0  0  0  0  0  0
   62.8900   33.0150   49.0700 N   0  0  0  0  0  0  0  0  0  0  0  0
   62.6400   34.4140   49.4330 C   0  0  0  0  0  0  0  0  0  0  0  0
   62.3510   32.0350   50.0380 C   0  0  0  0  0  0  0  0  0  0  0  0
   60.9800   32.3770   50.5850 C   0  0  0  0  0  0  0  0  0  0  0  0
   60.8580   33.1220   51.7700 C   0  0  0  0  0  0  0  0  0  0  0  0
   59.5940   33.4520   52.2710 C   0  0  0  0  0  0  0  0  0  0  0  0
   58.4420   33.0620   51.5800 C   0  0  0  0  0  0  0  0  0  0  0  0
   58.5530   32.3560   50.3800 C   0  0  0  0  0  0  0  0  0  0  0  0
   59.8150   32.0250   49.8770 C   0  0  0  0  0  0  0  0  0  0  0  0
   59.9580   32.2930   46.3650 C   0  0  0  0  0  0  0  0  0  0  0  0
   58.4050   28.8310   47.3320 C   0  0  0  0  0  0  0  0  0  0  0  0
   59.2000   29.2410   48.4080 C   0  0  0  0  0  0  0  0  0  0  0  0
   60.5264   28.5650   51.0131 H   0  0  0  0  0  0  0  0  0  0  0  0
   62.0156   28.3184   50.0393 H   0  0  0  0  0  0  0  0  0  0  0  0
   61.1970   29.9173   50.0393 H   0  0  0  0  0  0  0  0  0  0  0  0
   61.1532   26.4531   48.7457 H   0  0  0  0  0  0  0  0  0  0  0  0
   59.7393   25.7204   46.8251 H   0  0  0  0  0  0  0  0  0  0  0  0
   58.2512   27.2748   44.6600 H   0  0  0  0  0  0  0  0  0  0  0  0
   57.5152   26.0352   45.7372 H   0  0  0  0  0  0  0  0  0  0  0  0
   57.9929   28.7668   43.6437 H   0  0  0  0  0  0  0  0  0  0  0  0
   56.9595   30.1729   43.1941 H   0  0  0  0  0  0  0  0  0  0  0  0
   59.1740   30.1500   45.1410 H   0  0  0  0  0  0  0  0  0  0  0  0
   57.2717   34.3704   45.9194 H   0  0  0  0  0  0  0  0  0  0  0  0
   58.8219   35.9531   47.0592 H   0  0  0  0  0  0  0  0  0  0  0  0
   61.0998   35.2087   47.7338 H   0  0  0  0  0  0  0  0  0  0  0  0
   62.6227   34.5111   50.5286 H   0  0  0  0  0  0  0  0  0  0  0  0
   63.4391   35.0480   49.0213 H   0  0  0  0  0  0  0  0  0  0  0  0
   61.6708   34.7321   49.0213 H   0  0  0  0  0  0  0  0  0  0  0  0
   62.2865   31.0578   49.5370 H   0  0  0  0  0  0  0  0  0  0  0  0
   63.0382   32.0351   50.8970 H   0  0  0  0  0  0  0  0  0  0  0  0
   61.7612   33.4476   52.3068 H   0  0  0  0  0  0  0  0  0  0  0  0
   59.5060   34.0189   53.2096 H   0  0  0  0  0  0  0  0  0  0  0  0
   57.4488   33.3113   51.9817 H   0  0  0  0  0  0  0  0  0  0  0  0
   57.6472   32.0602   49.8304 H   0  0  0  0  0  0  0  0  0  0  0  0
   59.8982   31.4860   48.9217 H   0  0  0  0  0  0  0  0  0  0  0  0
   60.2635   31.2471   46.2143 H   0  0  0  0  0  0  0  0  0  0  0  0
   57.6222   29.4988   46.9431 H   0  0  0  0  0  0  0  0  0  0  0  0
   59.0351   30.2281   48.8646 H   0  0  0  0  0  0  0  0  0  0  0  0
  1  2  1  0
  2  3  2  0
  3  4  1  0
  4  5  2  0
  5  6  1  0
  6  7  1  0
  7  8  1  0
  8  9  2  0
  8 10  1  0
 10 11  1  0
 11 12  1  0
 12 13  2  0
 12 14  1  0
 14 15  2  0
 15 16  1  0
 16 17  2  0
 17 18  1  0
 18 19  1  0
 19 20  2  0
 19 21  2  0
 19 22  1  0
 22 23  1  0
 22 24  1  0
 24 25  1  0
 25 26  2  0
 26 27  1  0
 27 28  2  0
 28 29  1  0
 29 30  2  0
 18 31  2  0
  5 32  1  0
 32 33  2  0
 33  2  1  0
 31 14  1  0
 30 25  1  0
  1 34  1  0
  1 35  1  0
  1 36  1  0
  3 37  1  0
  4 38  1  0
  6 39  1  0
  6 40  1  0
 10 41  1  0
 10 42  1  0
 11 43  1  0
 15 44  1  0
 16 45  1  0
 17 46  1  0
 23 47  1  0
 23 48  1  0
 23 49  1  0
 24 50  1  0
 24 51  1  0
 26 52  1  0
 27 53  1  0
 28 54  1  0
 29 55  1  0
 30 56  1  0
 31 57  1  0
 32 58  1  0
 33 59  1  0
M  CHG  1   7  -1
M  END
>  <UniqueID>  (74) 
63

>  <SMILES>  (74) 
Cc1ccc(C[N-]C(=O)CNC(=O)c2cccc(S(=O)(=O)N(C)Cc3ccccc3)c2)cc1

>  <Energy>  (74) 
58.93375548577665

>  <Genealogy>  (74) 
Cc1ccc(C[N-]C(=O)CNC(=O)c2cccc(S(=O)(=O)N(C)Cc3ccccc3)c2)cc1 (protonated)
Cc1ccc(C[N-]C(=O)CNC(=O)c2cccc(S(=O)(=O)N(C)Cc3ccccc3)c2)cc1 (3D coordinates assigned)
Cc1ccc(C[N-]C(=O)CNC(=O)c2cccc(S(=O)(=O)N(C)Cc3ccccc3)c2)cc1 (optimized conformer: 58.93375548577665 kcal/mol)

>  <smiles>  (74) 
Cc1ccc(CNC(=O)CNC(=O)c2cccc(S(=O)(=O)N(C)Cc3ccccc3)c2)cc1

>  <score_type>  (74) 
oracle

>  <origin>  (74) 
adg

>  <m_score__min__energy>  (74) 
-11.449999999999999

>  <m_primary>  (74) 
energy

$$$$
74:0
     RDKit          3D

 47 50  0  0  0  0  0  0  0  0999 V2000
   66.8140   33.5850   50.9190 C   0  0  0  0  0  0  0  0  0  0  0  0
   65.4730   34.0560   50.9980 O   0  0  0  0  0  0  0  0  0  0  0  0
   64.3870   33.4860   50.3140 C   0  0  0  0  0  0  0  0  0  0  0  0
   64.5140   32.9790   49.0070 C   0  0  0  0  0  0  0  0  0  0  0  0
   63.4160   32.4080   48.3620 C   0  0  0  0  0  0  0  0  0  0  0  0
   62.1800   32.3100   49.0150 C   0  0  0  0  0  0  0  0  0  0  0  0
   61.0010   31.6670   48.3200 C   0  0  0  0  0  0  0  0  0  0  0  0
   59.7470   32.4530   48.3930 N   0  0  0  0  0  0  0  0  0  0  0  0
   59.8750   33.9140   48.2470 C   0  0  0  0  0  0  0  0  0  0  0  0
   59.9010   34.3880   46.7830 C   0  0  0  0  0  0  0  0  0  0  0  0
   59.1220   33.5170   45.8310 C   0  0  0  0  0  0  0  0  0  0  0  0
   59.0560   33.9000   44.4820 C   0  0  0  0  0  0  0  0  0  0  0  0
   58.3710   33.1190   43.5520 C   0  0  0  0  0  0  0  0  0  0  0  0
   57.7270   31.9450   43.9590 C   0  0  0  0  0  0  0  0  0  0  0  0
   57.0410   31.1790   43.0630 N   0  0  0  0  0  0  0  0  0  0  0  0
   56.4050   30.0400   43.4550 C   0  0  0  0  0  0  0  0  0  0  0  0
   55.7760   29.3460   42.6120 O   0  0  0  0  0  0  0  0  0  0  0  0
   56.4580   29.6480   44.7990 C   0  0  0  0  0  0  0  0  0  0  0  0
   55.8770   28.6000   45.1870 O   0  0  0  0  0  0  0  0  0  0  0  0
   57.1450   30.4080   45.6890 N   0  0  0  0  0  0  0  0  0  0  0  0
   57.7870   31.5460   45.3120 C   0  0  0  0  0  0  0  0  0  0  0  0
   58.5090   32.3170   46.2480 C   0  0  0  0  0  0  0  0  0  0  0  0
   58.5820   31.8870   47.6940 C   0  0  0  0  0  0  0  0  0  0  0  0
   62.0410   32.8520   50.3030 C   0  0  0  0  0  0  0  0  0  0  0  0
   63.1440   33.4290   50.9610 C   0  0  0  0  0  0  0  0  0  0  0  0
   63.0470   33.9580   52.2580 O   0  0  0  0  0  0  0  0  0  0  0  0
   63.6820   33.4060   53.4060 C   0  0  0  0  0  0  0  0  0  0  0  0
   67.2137   33.4446   51.9341 H   0  0  0  0  0  0  0  0  0  0  0  0
   66.8346   32.6258   50.3809 H   0  0  0  0  0  0  0  0  0  0  0  0
   67.4299   34.3206   50.3809 H   0  0  0  0  0  0  0  0  0  0  0  0
   65.4840   33.0332   48.4912 H   0  0  0  0  0  0  0  0  0  0  0  0
   63.5215   32.0322   47.3336 H   0  0  0  0  0  0  0  0  0  0  0  0
   61.2596   31.5287   47.2598 H   0  0  0  0  0  0  0  0  0  0  0  0
   60.8082   30.7173   48.8405 H   0  0  0  0  0  0  0  0  0  0  0  0
   59.0210   34.3898   48.7513 H   0  0  0  0  0  0  0  0  0  0  0  0
   60.8382   34.1994   48.6951 H   0  0  0  0  0  0  0  0  0  0  0  0
   59.4798   35.4034   46.7429 H   0  0  0  0  0  0  0  0  0  0  0  0
   60.9512   34.3454   46.4586 H   0  0  0  0  0  0  0  0  0  0  0  0
   59.5503   34.8267   44.1550 H   0  0  0  0  0  0  0  0  0  0  0  0
   58.3367   33.4262   42.4963 H   0  0  0  0  0  0  0  0  0  0  0  0
   56.9940   31.4650   42.0580 H   0  0  0  0  0  0  0  0  0  0  0  0
   57.6674   32.2189   48.2072 H   0  0  0  0  0  0  0  0  0  0  0  0
   58.6816   30.7917   47.7120 H   0  0  0  0  0  0  0  0  0  0  0  0
   61.0613   32.8255   50.8025 H   0  0  0  0  0  0  0  0  0  0  0  0
   63.2143   33.8126   54.3148 H   0  0  0  0  0  0  0  0  0  0  0  0
   63.5720   32.3116   53.3952 H   0  0  0  0  0  0  0  0  0  0  0  0
   64.7505   33.6672   53.3952 H   0  0  0  0  0  0  0  0  0  0  0  0
  1  2  1  0
  2  3  1  0
  3  4  2  0
  4  5  1  0
  5  6  2  0
  6  7  1  0
  7  8  1  0
  8  9  1  0
  9 10  1  0
 10 11  1  0
 11 12  2  0
 12 13  1  0
 13 14  2  0
 14 15  1  0
 15 16  1  0
 16 17  2  0
 16 18  1  0
 18 19  2  0
 18 20  1  0
 20 21  1  0
 21 22  2  0
 22 23  1  0
  6 24  1  0
 24 25  2  0
 25 26  1  0
 26 27  1  0
 25  3  1  0
 23  8  1  0
 22 11  1  0
 21 14  1  0
  1 28  1  0
  1 29  1  0
  1 30  1  0
  4 31  1  0
  5 32  1  0
  7 33  1  0
  7 34  1  0
  9 35  1  0
  9 36  1  0
 10 37  1  0
 10 38  1  0
 12 39  1  0
 13 40  1  0
 15 41  1  0
 23 42  1  0
 23 43  1  0
 24 44  1  0
 27 45  1  0
 27 46  1  0
 27 47  1  0
M  CHG  1  20  -1
M  END
>  <UniqueID>  (75) 
64

>  <SMILES>  (75) 
COc1ccc(CN2CCc3ccc4[nH]c(=O)c(=O)[n-]c4c3C2)cc1OC

>  <Energy>  (75) 
62.53175494765577

>  <Genealogy>  (75) 
COc1ccc(CN2CCc3ccc4[nH]c(=O)c(=O)[n-]c4c3C2)cc1OC (protonated)
COc1ccc(CN2CCc3ccc4[nH]c(=O)c(=O)[n-]c4c3C2)cc1OC (3D coordinates assigned)
COc1ccc(CN2CCc3ccc4[nH]c(=O)c(=O)[n-]c4c3C2)cc1OC (nonaromatic ring conformer: 62.53175494765577 kcal/mol)

>  <smiles>  (75) 
COc1ccc(CN2CCc3ccc4[nH]c(=O)c(=O)[nH]c4c3C2)cc1OC

>  <score_type>  (75) 
oracle

>  <origin>  (75) 
adg

>  <m_score__min__energy>  (75) 
-8.9900000000000002

>  <m_primary>  (75) 
energy

$$$$
75:0
     RDKit          3D

 43 45  0  0  0  0  0  0  0  0999 V2000
   64.1200   33.1410   48.3200 C   0  0  0  0  0  0  0  0  0  0  0  0
   62.8020   32.7990   49.0170 C   0  0  0  0  0  0  0  0  0  0  0  0
   61.9080   32.0190   48.1490 N   0  0  0  0  0  0  0  0  0  0  0  0
   61.5030   30.7490   48.3640 C   0  0  0  0  0  0  0  0  0  0  0  0
   60.5200   30.4360   47.4540 C   0  0  0  0  0  0  0  0  0  0  0  0
   60.2930   31.5100   46.6820 N   0  0  0  0  0  0  0  0  0  0  0  0
   61.1380   32.4660   47.1230 C   0  0  0  0  0  0  0  0  0  0  0  0
   61.1040   33.8860   46.6020 C   0  0  0  0  0  0  0  0  0  0  0  0
   59.7580   34.5020   46.6020 N   0  0  0  0  0  0  0  0  0  0  0  0
   59.2730   34.9730   45.2930 C   0  0  0  0  0  0  0  0  0  0  0  0
   58.6120   33.8550   44.4600 C   0  0  0  0  0  0  0  0  0  0  0  0
   58.2080   32.6870   45.2790 N   0  0  0  0  0  0  0  0  0  0  0  0
   57.2380   31.8390   44.5540 C   0  0  0  0  0  0  0  0  0  0  0  0
   57.5800   30.3840   44.7090 C   0  0  0  0  0  0  0  0  0  0  0  0
   58.8660   29.8720   44.4830 C   0  0  0  0  0  0  0  0  0  0  0  0
   58.9510   28.4950   44.6300 C   0  0  0  0  0  0  0  0  0  0  0  0
   57.4260   27.9210   45.0410 S   0  0  0  0  0  0  0  0  0  0  0  0
   56.6440   29.4090   45.0380 C   0  0  0  0  0  0  0  0  0  0  0  0
   57.6450   33.1310   46.5640 C   0  0  0  0  0  0  0  0  0  0  0  0
   58.7310   33.8130   47.4150 C   0  0  0  0  0  0  0  0  0  0  0  0
   64.8933   33.3417   49.0761 H   0  0  0  0  0  0  0  0  0  0  0  0
   64.4328   32.2943   47.6913 H   0  0  0  0  0  0  0  0  0  0  0  0
   63.9816   34.0330   47.6913 H   0  0  0  0  0  0  0  0  0  0  0  0
   63.0201   32.2123   49.9216 H   0  0  0  0  0  0  0  0  0  0  0  0
   62.2949   33.7423   49.2682 H   0  0  0  0  0  0  0  0  0  0  0  0
   61.8950   30.0749   49.1399 H   0  0  0  0  0  0  0  0  0  0  0  0
   60.0058   29.4670   47.3727 H   0  0  0  0  0  0  0  0  0  0  0  0
   59.5620   31.5930   45.9420 H   0  0  0  0  0  0  0  0  0  0  0  0
   61.7641   34.5002   47.2321 H   0  0  0  0  0  0  0  0  0  0  0  0
   61.4320   33.8449   45.5528 H   0  0  0  0  0  0  0  0  0  0  0  0
   58.5341   35.7708   45.4588 H   0  0  0  0  0  0  0  0  0  0  0  0
   60.1452   35.3339   44.7281 H   0  0  0  0  0  0  0  0  0  0  0  0
   57.7174   34.2655   43.9689 H   0  0  0  0  0  0  0  0  0  0  0  0
   59.3557   33.5043   43.7293 H   0  0  0  0  0  0  0  0  0  0  0  0
   56.2305   32.0176   44.9579 H   0  0  0  0  0  0  0  0  0  0  0  0
   57.2738   32.0974   43.4854 H   0  0  0  0  0  0  0  0  0  0  0  0
   59.7262   30.5028   44.2145 H   0  0  0  0  0  0  0  0  0  0  0  0
   59.8577   27.8858   44.5003 H   0  0  0  0  0  0  0  0  0  0  0  0
   55.5800   29.5813   45.2575 H   0  0  0  0  0  0  0  0  0  0  0  0
   56.8297   33.8450   46.3758 H   0  0  0  0  0  0  0  0  0  0  0  0
   57.2607   32.2557   47.1082 H   0  0  0  0  0  0  0  0  0  0  0  0
   58.2487   34.5532   48.0704 H   0  0  0  0  0  0  0  0  0  0  0  0
   59.2410   33.0252   47.9888 H   0  0  0  0  0  0  0  0  0  0  0  0
  1  2  1  0
  2  3  1  0
  3  4  1  0
  4  5  2  0
  5  6  1  0
  6  7  2  0
  7  8  1  0
  8  9  1  0
  9 10  1  0
 10 11  1  0
 11 12  1  0
 12 13  1  0
 13 14  1  0
 14 15  1  0
 15 16  2  0
 16 17  1  0
 17 18  1  0
 12 19  1  0
 19 20  1  0
  7  3  1  0
 20  9  1  0
 18 14  2  0
  1 21  1  0
  1 22  1  0
  1 23  1  0
  2 24  1  0
  2 25  1  0
  4 26  1  0
  5 27  1  0
  6 28  1  0
  8 29  1  0
  8 30  1  0
 10 31  1  0
 10 32  1  0
 11 33  1  0
 11 34  1  0
 13 35  1  0
 13 36  1  0
 15 37  1  0
 16 38  1  0
 18 39  1  0
 19 40  1  0
 19 41  1  0
 20 42  1  0
 20 43  1  0
M  CHG  1   6   1
M  END
>  <UniqueID>  (76) 
65

>  <SMILES>  (76) 
CCn1cc[nH+]c1CN1CCN(Cc2ccsc2)CC1

>  <Energy>  (76) 
108.07320484057186

>  <Genealogy>  (76) 
CCn1cc[nH+]c1CN1CCN(Cc2ccsc2)CC1 (protonated)
CCn1cc[nH+]c1CN1CCN(Cc2ccsc2)CC1 (3D coordinates assigned)
CCn1cc[nH+]c1CN1CCN(Cc2ccsc2)CC1 (nonaromatic ring conformer: 108.07320484057186 kcal/mol)

>  <smiles>  (76) 
CCn1ccnc1CN1CCN(Cc2ccsc2)CC1

>  <score_type>  (76) 
oracle

>  <origin>  (76) 
adg

>  <m_score__min__energy>  (76) 
-4.9500000000000002

>  <m_primary>  (76) 
energy

$$$$
76:0
     RDKit          3D

 66 70  0  0  0  0  0  0  0  0999 V2000
   58.2880   32.1930   47.8060 O   0  0  0  0  0  0  0  0  0  0  0  0
   58.5910   32.8600   46.7780 C   0  0  0  0  0  0  0  0  0  0  0  0
   59.3220   34.0210   46.8740 N   0  0  0  0  0  0  0  0  0  0  0  0
   59.8040   34.5110   48.1760 C   0  0  0  0  0  0  0  0  0  0  0  0
   61.2240   34.0660   48.4060 C   0  0  0  0  0  0  0  0  0  0  0  0
   61.8580   34.3310   49.6320 C   0  0  0  0  0  0  0  0  0  0  0  0
   63.1870   33.9470   49.8350 C   0  0  0  0  0  0  0  0  0  0  0  0
   63.8940   33.3040   48.8160 C   0  0  0  0  0  0  0  0  0  0  0  0
   63.2750   33.0450   47.5900 C   0  0  0  0  0  0  0  0  0  0  0  0
   61.9450   33.4290   47.3820 C   0  0  0  0  0  0  0  0  0  0  0  0
   59.6530   34.7200   45.7350 C   0  0  0  0  0  0  0  0  0  0  0  0
   59.2450   34.2750   44.4680 C   0  0  0  0  0  0  0  0  0  0  0  0
   58.5010   33.1050   44.4260 C   0  0  0  0  0  0  0  0  0  0  0  0
   57.9780   32.4220   43.3490 C   0  0  0  0  0  0  0  0  0  0  0  0
   58.0950   32.7760   42.0100 O   0  0  0  0  0  0  0  0  0  0  0  0
   57.3290   31.3250   43.8040 N   0  0  0  0  0  0  0  0  0  0  0  0
   56.6920   30.2760   43.0110 C   0  0  0  0  0  0  0  0  0  0  0  0
   56.6990   28.9520   43.7860 C   0  0  0  0  0  0  0  0  0  0  0  0
   58.1130   28.3380   43.8860 C   0  0  0  0  0  0  0  0  0  0  0  0
   58.8130   28.7070   45.1430 N   0  0  0  0  0  0  0  0  0  0  0  0
   60.2200   29.0910   44.8820 C   0  0  0  0  0  0  0  0  0  0  0  0
   60.8400   29.7160   46.1420 C   0  0  0  0  0  0  0  0  0  0  0  0
   60.3030   29.0790   47.3510 N   0  0  0  0  0  0  0  0  0  0  0  0
   60.3520   29.7680   48.6160 C   0  0  0  0  0  0  0  0  0  0  0  0
   61.5340   30.3960   49.0400 C   0  0  0  0  0  0  0  0  0  0  0  0
   61.5690   31.0920   50.2500 C   0  0  0  0  0  0  0  0  0  0  0  0
   60.4270   31.1670   51.0510 C   0  0  0  0  0  0  0  0  0  0  0  0
   59.2390   30.5320   50.6540 C   0  0  0  0  0  0  0  0  0  0  0  0
   57.9860   30.6640   51.4840 C   0  0  0  0  0  0  0  0  0  0  0  0
   57.3880   29.4290   51.6720 F   0  0  0  0  0  0  0  0  0  0  0  0
   57.0730   31.4950   50.8590 F   0  0  0  0  0  0  0  0  0  0  0  0
   58.3110   31.1990   52.7160 F   0  0  0  0  0  0  0  0  0  0  0  0
   59.2030   29.8560   49.4210 C   0  0  0  0  0  0  0  0  0  0  0  0
   59.7890   27.7070   47.2540 C   0  0  0  0  0  0  0  0  0  0  0  0
   58.7560   27.5830   46.1130 C   0  0  0  0  0  0  0  0  0  0  0  0
   57.4920   31.3570   45.1490 C   0  0  0  0  0  0  0  0  0  0  0  0
   57.0490   30.4730   45.9320 O   0  0  0  0  0  0  0  0  0  0  0  0
   58.1960   32.4390   45.5470 N   0  0  0  0  0  0  0  0  0  0  0  0
   59.7610   35.6101   48.1891 H   0  0  0  0  0  0  0  0  0  0  0  0
   59.1659   34.1006   48.9725 H   0  0  0  0  0  0  0  0  0  0  0  0
   61.3066   34.8424   50.4348 H   0  0  0  0  0  0  0  0  0  0  0  0
   63.6766   34.1515   50.7985 H   0  0  0  0  0  0  0  0  0  0  0  0
   64.9389   33.0013   48.9787 H   0  0  0  0  0  0  0  0  0  0  0  0
   63.8331   32.5393   46.7883 H   0  0  0  0  0  0  0  0  0  0  0  0
   61.4626   33.2313   46.4134 H   0  0  0  0  0  0  0  0  0  0  0  0
   60.2468   35.6421   45.8194 H   0  0  0  0  0  0  0  0  0  0  0  0
   59.5028   34.8274   43.5524 H   0  0  0  0  0  0  0  0  0  0  0  0
   55.6531   30.5646   42.7932 H   0  0  0  0  0  0  0  0  0  0  0  0
   57.2491   30.1463   42.0714 H   0  0  0  0  0  0  0  0  0  0  0  0
   56.3203   29.1352   44.8024 H   0  0  0  0  0  0  0  0  0  0  0  0
   56.0611   28.2403   43.2415 H   0  0  0  0  0  0  0  0  0  0  0  0
   58.0244   27.2425   43.8416 H   0  0  0  0  0  0  0  0  0  0  0  0
   58.7059   28.7337   43.0482 H   0  0  0  0  0  0  0  0  0  0  0  0
   58.3220   29.5230   45.5800 H   0  0  0  0  0  0  0  0  0  0  0  0
   60.7946   28.1967   44.5992 H   0  0  0  0  0  0  0  0  0  0  0  0
   60.2464   29.8271   44.0650 H   0  0  0  0  0  0  0  0  0  0  0  0
   61.9310   29.5784   46.1147 H   0  0  0  0  0  0  0  0  0  0  0  0
   60.5928   30.7876   46.1654 H   0  0  0  0  0  0  0  0  0  0  0  0
   62.4377   30.3394   48.4154 H   0  0  0  0  0  0  0  0  0  0  0  0
   62.4988   31.5828   50.5735 H   0  0  0  0  0  0  0  0  0  0  0  0
   60.4584   31.7264   51.9976 H   0  0  0  0  0  0  0  0  0  0  0  0
   58.2652   29.3910   49.0829 H   0  0  0  0  0  0  0  0  0  0  0  0
   60.6268   27.0220   47.0569 H   0  0  0  0  0  0  0  0  0  0  0  0
   59.2959   27.4493   48.2030 H   0  0  0  0  0  0  0  0  0  0  0  0
   58.9453   26.6446   45.5713 H   0  0  0  0  0  0  0  0  0  0  0  0
   57.7576   27.6015   46.5744 H   0  0  0  0  0  0  0  0  0  0  0  0
  1  2  2  0
  2  3  1  0
  3  4  1  0
  4  5  1  0
  5  6  2  0
  6  7  1  0
  7  8  2  0
  8  9  1  0
  9 10  2  0
  3 11  1  0
 11 12  2  0
 12 13  1  0
 13 14  2  0
 14 15  1  0
 14 16  1  0
 16 17  1  0
 17 18  1  0
 18 19  1  0
 19 20  1  0
 20 21  1  0
 21 22  1  0
 22 23  1  0
 23 24  1  0
 24 25  2  0
 25 26  1  0
 26 27  2  0
 27 28  1  0
 28 29  1  0
 29 30  1  0
 29 31  1  0
 29 32  1  0
 28 33  2  0
 23 34  1  0
 34 35  1  0
 16 36  1  0
 36 37  2  0
 36 38  1  0
 38  2  1  0
 10  5  1  0
 38 13  1  0
 35 20  1  0
 33 24  1  0
  4 39  1  0
  4 40  1  0
  6 41  1  0
  7 42  1  0
  8 43  1  0
  9 44  1  0
 10 45  1  0
 11 46  1  0
 12 47  1  0
 17 48  1  0
 17 49  1  0
 18 50  1  0
 18 51  1  0
 19 52  1  0
 19 53  1  0
 20 54  1  0
 21 55  1  0
 21 56  1  0
 22 57  1  0
 22 58  1  0
 25 59  1  0
 26 60  1  0
 27 61  1  0
 33 62  1  0
 34 63  1  0
 34 64  1  0
 35 65  1  0
 35 66  1  0
M  CHG  2  15  -1  20   1
M  END
>  <UniqueID>  (77) 
66

>  <SMILES>  (77) 
O=c1n(Cc2ccccc2)ccc2c([O-])n(CCC[NH+]3CCN(c4cccc(C(F)(F)F)c4)CC3)c(=O)n12

>  <Energy>  (77) 
123.88151414126618

>  <Genealogy>  (77) 
O=c1n(Cc2ccccc2)ccc2c([O-])n(CCC[NH+]3CCN(c4cccc(C(F)(F)F)c4)CC3)c(=O)n12 (protonated)
O=c1n(Cc2ccccc2)ccc2c([O-])n(CCC[NH+]3CCN(c4cccc(C(F)(F)F)c4)CC3)c(=O)n12 (3D coordinates assigned)
O=c1n(Cc2ccccc2)ccc2c([O-])n(CCC[NH+]3CCN(c4cccc(C(F)(F)F)c4)CC3)c(=O)n12 (nonaromatic ring conformer: 123.88151414126618 kcal/mol)

>  <smiles>  (77) 
O=c1n(Cc2ccccc2)ccc2c(O)n(CCCN3CCN(c4cccc(C(F)(F)F)c4)CC3)c(=O)n12

>  <score_type>  (77) 
oracle

>  <origin>  (77) 
adg

>  <m_score__min__energy>  (77) 
-9.3599999999999994

>  <m_primary>  (77) 
energy

$$$$
77:0
     RDKit          3D

 31 32  0  0  0  0  0  0  0  0999 V2000
   55.5180   28.9000   45.2350 N   0  0  0  0  0  0  0  0  0  0  0  0
   56.4650   29.7250   44.0490 S   0  0  0  0  0  0  0  0  0  0  0  0
   57.6450   28.8720   43.6780 O   0  0  0  0  0  0  0  0  0  0  0  0
   55.6380   29.9750   42.8190 O   0  0  0  0  0  0  0  0  0  0  0  0
   57.0380   31.2310   44.6910 N   0  0  0  0  0  0  0  0  0  0  0  0
   58.1590   31.3790   45.3350 C   0  0  0  0  0  0  0  0  0  0  0  0
   59.0220   30.2510   45.5630 N   0  0  0  0  0  0  0  0  0  0  0  0
   59.5710   29.9130   46.8500 C   0  0  0  0  0  0  0  0  0  0  0  0
   59.0320   28.8720   47.6300 C   0  0  0  0  0  0  0  0  0  0  0  0
   59.5890   28.5610   48.8740 C   0  0  0  0  0  0  0  0  0  0  0  0
   60.6920   29.2760   49.3460 C   0  0  0  0  0  0  0  0  0  0  0  0
   61.2420   30.3020   48.5730 C   0  0  0  0  0  0  0  0  0  0  0  0
   60.6880   30.6160   47.3290 C   0  0  0  0  0  0  0  0  0  0  0  0
   58.5540   32.7350   45.7950 C   0  0  0  0  0  0  0  0  0  0  0  0
   58.5750   33.0490   47.1670 C   0  0  0  0  0  0  0  0  0  0  0  0
   58.9520   34.3250   47.5960 C   0  0  0  0  0  0  0  0  0  0  0  0
   59.3060   35.3020   46.6640 C   0  0  0  0  0  0  0  0  0  0  0  0
   59.2820   35.0060   45.3000 C   0  0  0  0  0  0  0  0  0  0  0  0
   58.9050   33.7310   44.8650 C   0  0  0  0  0  0  0  0  0  0  0  0
   54.5730   29.3460   45.2340 H   0  0  0  0  0  0  0  0  0  0  0  0
   59.2540   29.6370   44.7490 H   0  0  0  0  0  0  0  0  0  0  0  0
   58.1684   28.3007   47.2587 H   0  0  0  0  0  0  0  0  0  0  0  0
   59.1579   27.7520   49.4820 H   0  0  0  0  0  0  0  0  0  0  0  0
   61.1277   29.0315   50.3260 H   0  0  0  0  0  0  0  0  0  0  0  0
   62.1122   30.8633   48.9442 H   0  0  0  0  0  0  0  0  0  0  0  0
   61.1300   31.4192   46.7211 H   0  0  0  0  0  0  0  0  0  0  0  0
   58.2929   32.2852   47.9066 H   0  0  0  0  0  0  0  0  0  0  0  0
   58.9697   34.5597   48.6705 H   0  0  0  0  0  0  0  0  0  0  0  0
   59.6038   36.3048   47.0042 H   0  0  0  0  0  0  0  0  0  0  0  0
   59.5600   35.7766   44.5660 H   0  0  0  0  0  0  0  0  0  0  0  0
   58.8828   33.5055   43.7886 H   0  0  0  0  0  0  0  0  0  0  0  0
  1  2  1  0
  2  3  2  0
  2  4  2  0
  2  5  1  0
  5  6  2  3
  6  7  1  0
  7  8  1  0
  8  9  2  0
  9 10  1  0
 10 11  2  0
 11 12  1  0
 12 13  2  0
  6 14  1  0
 14 15  2  0
 15 16  1  0
 16 17  2  0
 17 18  1  0
 18 19  2  0
 13  8  1  0
 19 14  1  0
  1 20  1  0
  7 21  1  0
  9 22  1  0
 10 23  1  0
 11 24  1  0
 12 25  1  0
 13 26  1  0
 15 27  1  0
 16 28  1  0
 17 29  1  0
 18 30  1  0
 19 31  1  0
M  CHG  1   1  -1
M  END
>  <UniqueID>  (78) 
67

>  <SMILES>  (78) 
[NH-]S(=O)(=O)N=C(Nc1ccccc1)c1ccccc1

>  <Energy>  (78) 
39.12095839719598

>  <Genealogy>  (78) 
[NH-]S(=O)(=O)N=C(Nc1ccccc1)c1ccccc1 (protonated)
[NH-]S(=O)(=O)N=C(Nc1ccccc1)c1ccccc1 (3D coordinates assigned)
[NH-]S(=O)(=O)N=C(Nc1ccccc1)c1ccccc1 (optimized conformer: 39.12095839719598 kcal/mol)

>  <smiles>  (78) 
NS(=O)(=O)N=C(Nc1ccccc1)c1ccccc1

>  <score_type>  (78) 
oracle

>  <origin>  (78) 
adg

>  <m_score__min__energy>  (78) 
-10.02

>  <m_primary>  (78) 
energy

$$$$
78:0
     RDKit          3D

 38 40  0  0  0  0  0  0  0  0999 V2000
   57.4310   28.2040   43.3420 N   0  0  0  0  0  0  0  0  0  0  0  0
   57.6170   27.4000   44.8610 S   0  0  0  0  0  0  0  0  0  0  0  0
   58.1240   26.0040   44.6310 O   0  0  0  0  0  0  0  0  0  0  0  0
   56.2850   27.3200   45.5530 O   0  0  0  0  0  0  0  0  0  0  0  0
   58.7560   28.2900   45.8670 C   0  0  0  0  0  0  0  0  0  0  0  0
   59.8580   28.9310   45.2860 C   0  0  0  0  0  0  0  0  0  0  0  0
   60.7710   29.6250   46.0850 C   0  0  0  0  0  0  0  0  0  0  0  0
   60.5840   29.6930   47.4780 C   0  0  0  0  0  0  0  0  0  0  0  0
   61.5160   30.3720   48.3300 N   0  0  0  0  0  0  0  0  0  0  0  0
   61.2590   31.5720   49.0710 C   0  0  0  0  0  0  0  0  0  0  0  0
   62.1760   32.0510   49.7890 O   0  0  0  0  0  0  0  0  0  0  0  0
   59.9220   32.1970   49.0890 C   0  0  0  0  0  0  0  0  0  0  0  0
   59.1080   31.8860   49.9990 O   0  0  0  0  0  0  0  0  0  0  0  0
   59.5310   33.2210   48.1010 C   0  0  0  0  0  0  0  0  0  0  0  0
   59.7500   34.5900   48.2220 C   0  0  0  0  0  0  0  0  0  0  0  0
   59.2500   35.2460   47.1510 N   0  0  0  0  0  0  0  0  0  0  0  0
   58.7030   34.3060   46.3610 C   0  0  0  0  0  0  0  0  0  0  0  0
   58.0310   34.5080   45.1590 C   0  0  0  0  0  0  0  0  0  0  0  0
   57.4840   33.3890   44.5100 C   0  0  0  0  0  0  0  0  0  0  0  0
   57.6000   32.0910   45.0760 C   0  0  0  0  0  0  0  0  0  0  0  0
   57.0170   30.9570   44.4100 N   0  0  0  0  0  0  0  0  0  0  0  0
   56.3640   30.1080   45.0520 O   0  0  0  0  0  0  0  0  0  0  0  0
   57.1710   30.7870   43.0530 O   0  0  0  0  0  0  0  0  0  0  0  0
   58.2880   31.9280   46.3020 C   0  0  0  0  0  0  0  0  0  0  0  0
   58.8460   33.0560   46.9080 C   0  0  0  0  0  0  0  0  0  0  0  0
   59.5010   29.0220   48.0580 C   0  0  0  0  0  0  0  0  0  0  0  0
   58.5880   28.3280   47.2570 C   0  0  0  0  0  0  0  0  0  0  0  0
   56.5280   28.7280   43.3840 H   0  0  0  0  0  0  0  0  0  0  0  0
   58.1910   28.9180   43.2810 H   0  0  0  0  0  0  0  0  0  0  0  0
   60.0053   28.8879   44.1968 H   0  0  0  0  0  0  0  0  0  0  0  0
   61.6384   30.1196   45.6234 H   0  0  0  0  0  0  0  0  0  0  0  0
   60.2588   35.0710   49.0704 H   0  0  0  0  0  0  0  0  0  0  0  0
   59.2740   36.2760   46.9820 H   0  0  0  0  0  0  0  0  0  0  0  0
   57.9311   35.5157   44.7294 H   0  0  0  0  0  0  0  0  0  0  0  0
   56.9594   33.5191   43.5519 H   0  0  0  0  0  0  0  0  0  0  0  0
   58.3812   30.9355   46.7671 H   0  0  0  0  0  0  0  0  0  0  0  0
   59.3672   29.0406   49.1497 H   0  0  0  0  0  0  0  0  0  0  0  0
   57.7352   27.8103   47.7204 H   0  0  0  0  0  0  0  0  0  0  0  0
  1  2  1  0
  2  3  2  0
  2  4  2  0
  2  5  1  0
  5  6  2  0
  6  7  1  0
  7  8  2  0
  8  9  1  0
  9 10  1  0
 10 11  2  0
 10 12  1  0
 12 13  2  0
 12 14  1  0
 14 15  2  0
 15 16  1  0
 16 17  1  0
 17 18  2  0
 18 19  1  0
 19 20  2  0
 20 21  1  0
 21 22  2  0
 21 23  1  0
 20 24  1  0
 24 25  2  0
  8 26  1  0
 26 27  2  0
 27  5  1  0
 25 14  1  0
 25 17  1  0
  1 28  1  0
  1 29  1  0
  6 30  1  0
  7 31  1  0
 15 32  1  0
 16 33  1  0
 18 34  1  0
 19 35  1  0
 24 36  1  0
 26 37  1  0
 27 38  1  0
M  CHG  3   9  -1  21   1  23  -1
M  END
>  <UniqueID>  (79) 
68

>  <SMILES>  (79) 
NS(=O)(=O)c1ccc([N-]C(=O)C(=O)c2c[nH]c3ccc([N+](=O)[O-])cc23)cc1

>  <Energy>  (79) 
81.7008465957906

>  <Genealogy>  (79) 
NS(=O)(=O)c1ccc([N-]C(=O)C(=O)c2c[nH]c3ccc([N+](=O)[O-])cc23)cc1 (protonated)
NS(=O)(=O)c1ccc([N-]C(=O)C(=O)c2c[nH]c3ccc([N+](=O)[O-])cc23)cc1 (3D coordinates assigned)
NS(=O)(=O)c1ccc([N-]C(=O)C(=O)c2c[nH]c3ccc([N+](=O)[O-])cc23)cc1 (optimized conformer: 81.7008465957906 kcal/mol)

>  <smiles>  (79) 
NS(=O)(=O)c1ccc(NC(=O)C(=O)c2c[nH]c3ccc([N+](=O)[O-])cc23)cc1

>  <score_type>  (79) 
oracle

>  <origin>  (79) 
adg

>  <m_score__min__energy>  (79) 
-8.7400000000000002

>  <m_primary>  (79) 
energy

$$$$
79:0
     RDKit          3D

 36 37  0  0  0  0  0  0  0  0999 V2000
   56.9920   20.8600   43.0060 C   0  0  0  0  0  0  0  0  0  0  0  0
   55.9010   21.7670   43.1170 O   0  0  0  0  0  0  0  0  0  0  0  0
   55.9080   22.9210   43.9150 C   0  0  0  0  0  0  0  0  0  0  0  0
   57.0110   23.7780   43.8370 C   0  0  0  0  0  0  0  0  0  0  0  0
   57.0640   24.9410   44.6100 C   0  0  0  0  0  0  0  0  0  0  0  0
   56.0120   25.2700   45.4730 C   0  0  0  0  0  0  0  0  0  0  0  0
   56.1110   26.4560   46.2180 O   0  0  0  0  0  0  0  0  0  0  0  0
   57.3210   26.9960   46.7490 C   0  0  0  0  0  0  0  0  0  0  0  0
   57.7010   28.2490   46.0200 C   0  0  0  0  0  0  0  0  0  0  0  0
   58.8240   28.7800   46.2380 O   0  0  0  0  0  0  0  0  0  0  0  0
   56.8010   28.8210   45.0600 N   0  0  0  0  0  0  0  0  0  0  0  0
   57.0990   30.0340   44.3540 C   0  0  0  0  0  0  0  0  0  0  0  0
   56.8550   30.0850   42.9750 C   0  0  0  0  0  0  0  0  0  0  0  0
   57.1700   31.2290   42.2420 C   0  0  0  0  0  0  0  0  0  0  0  0
   57.7250   32.3360   42.8820 C   0  0  0  0  0  0  0  0  0  0  0  0
   57.9510   32.3170   44.2620 C   0  0  0  0  0  0  0  0  0  0  0  0
   58.6190   33.7640   45.0110 Cl  0  0  0  0  0  0  0  0  0  0  0  0
   57.6250   31.1690   45.0170 C   0  0  0  0  0  0  0  0  0  0  0  0
   57.7710   31.1750   46.4460 N   0  0  0  0  0  0  0  0  0  0  0  0
   54.9040   24.4060   45.5620 C   0  0  0  0  0  0  0  0  0  0  0  0
   54.8510   23.2420   44.7880 C   0  0  0  0  0  0  0  0  0  0  0  0
   57.3353   20.5746   44.0113 H   0  0  0  0  0  0  0  0  0  0  0  0
   56.6678   19.9615   42.4604 H   0  0  0  0  0  0  0  0  0  0  0  0
   57.8162   21.3428   42.4604 H   0  0  0  0  0  0  0  0  0  0  0  0
   57.8440   23.5342   43.1612 H   0  0  0  0  0  0  0  0  0  0  0  0
   57.9395   25.6033   44.5398 H   0  0  0  0  0  0  0  0  0  0  0  0
   57.1773   27.2268   47.8149 H   0  0  0  0  0  0  0  0  0  0  0  0
   58.1250   26.2554   46.6264 H   0  0  0  0  0  0  0  0  0  0  0  0
   56.0020   28.2380   44.7230 H   0  0  0  0  0  0  0  0  0  0  0  0
   56.4116   29.2161   42.4667 H   0  0  0  0  0  0  0  0  0  0  0  0
   56.9805   31.2577   41.1588 H   0  0  0  0  0  0  0  0  0  0  0  0
   57.9869   33.2304   42.2977 H   0  0  0  0  0  0  0  0  0  0  0  0
   58.2870   30.4220   46.9490 H   0  0  0  0  0  0  0  0  0  0  0  0
   57.4160   31.9670   47.0230 H   0  0  0  0  0  0  0  0  0  0  0  0
   54.0754   24.6476   46.2439 H   0  0  0  0  0  0  0  0  0  0  0  0
   53.9797   22.5746   44.8617 H   0  0  0  0  0  0  0  0  0  0  0  0
  1  2  1  0
  2  3  1  0
  3  4  2  0
  4  5  1  0
  5  6  2  0
  6  7  1  0
  7  8  1  0
  8  9  1  0
  9 10  2  0
  9 11  1  0
 11 12  1  0
 12 13  2  0
 13 14  1  0
 14 15  2  0
 15 16  1  0
 16 17  1  0
 16 18  2  0
 18 19  1  0
  6 20  1  0
 20 21  2  0
 21  3  1  0
 18 12  1  0
  1 22  1  0
  1 23  1  0
  1 24  1  0
  4 25  1  0
  5 26  1  0
  8 27  1  0
  8 28  1  0
 11 29  1  0
 13 30  1  0
 14 31  1  0
 15 32  1  0
 19 33  1  0
 19 34  1  0
 20 35  1  0
 21 36  1  0
M  END
>  <UniqueID>  (80) 
69

>  <SMILES>  (80) 
COc1ccc(OCC(=O)Nc2cccc(Cl)c2N)cc1

>  <Energy>  (80) 
40.962085363302975

>  <Genealogy>  (80) 
COc1ccc(OCC(=O)Nc2cccc(Cl)c2N)cc1 (3D coordinates assigned)
COc1ccc(OCC(=O)Nc2cccc(Cl)c2N)cc1 (optimized conformer: 40.962085363302975 kcal/mol)

>  <smiles>  (80) 
COc1ccc(OCC(=O)Nc2cccc(Cl)c2N)cc1

>  <score_type>  (80) 
oracle

>  <origin>  (80) 
adg

>  <m_score__min__energy>  (80) 
-7.1299999999999999

>  <m_primary>  (80) 
energy

$$$$
80:0
     RDKit          3D

 57 60  0  0  0  0  0  0  0  0999 V2000
   55.1380   26.6020   45.9610 O   0  0  0  0  0  0  0  0  0  0  0  0
   56.1380   25.8860   46.2410 C   0  0  0  0  0  0  0  0  0  0  0  0
   55.9490   24.5650   46.7550 N   0  0  0  0  0  0  0  0  0  0  0  0
   55.1160   23.5640   46.1010 C   0  0  0  0  0  0  0  0  0  0  0  0
   55.8350   22.9980   44.9150 C   0  0  0  0  0  0  0  0  0  0  0  0
   56.8710   22.0710   44.9500 C   0  0  0  0  0  0  0  0  0  0  0  0
   57.3010   21.6800   43.6780 C   0  0  0  0  0  0  0  0  0  0  0  0
   56.6070   22.2920   42.6430 C   0  0  0  0  0  0  0  0  0  0  0  0
   55.4490   23.3150   43.3130 S   0  0  0  0  0  0  0  0  0  0  0  0
   57.5340   26.4120   46.0040 C   0  0  0  0  0  0  0  0  0  0  0  0
   58.4430   25.4340   46.3790 F   0  0  0  0  0  0  0  0  0  0  0  0
   57.8070   27.6640   46.8760 C   0  0  0  0  0  0  0  0  0  0  0  0
   57.4660   28.9680   46.1360 C   0  0  0  0  0  0  0  0  0  0  0  0
   58.1860   29.1140   44.8440 N   0  0  0  0  0  0  0  0  0  0  0  0
   59.2330   30.1520   44.8900 C   0  0  0  0  0  0  0  0  0  0  0  0
   58.6240   31.4980   45.2060 C   0  0  0  0  0  0  0  0  0  0  0  0
   58.0690   32.2790   44.1800 C   0  0  0  0  0  0  0  0  0  0  0  0
   57.5130   33.5290   44.4630 C   0  0  0  0  0  0  0  0  0  0  0  0
   57.5020   34.0070   45.7740 C   0  0  0  0  0  0  0  0  0  0  0  0
   58.0510   33.2390   46.8060 C   0  0  0  0  0  0  0  0  0  0  0  0
   58.6160   31.9800   46.5310 C   0  0  0  0  0  0  0  0  0  0  0  0
   59.1870   31.1860   47.5370 O   0  0  0  0  0  0  0  0  0  0  0  0
   60.0390   31.6630   48.5700 C   0  0  0  0  0  0  0  0  0  0  0  0
   61.3130   32.1390   47.9440 C   0  0  0  0  0  0  0  0  0  0  0  0
   61.3440   33.3380   47.2140 C   0  0  0  0  0  0  0  0  0  0  0  0
   62.5540   33.8260   46.7140 C   0  0  0  0  0  0  0  0  0  0  0  0
   63.7410   33.1270   46.9490 C   0  0  0  0  0  0  0  0  0  0  0  0
   63.7210   31.9400   47.6870 C   0  0  0  0  0  0  0  0  0  0  0  0
   62.5140   31.4500   48.1920 C   0  0  0  0  0  0  0  0  0  0  0  0
   58.7150   27.8490   44.2820 C   0  0  0  0  0  0  0  0  0  0  0  0
   57.7300   26.7000   44.4980 C   0  0  0  0  0  0  0  0  0  0  0  0
   54.8920   22.7550   46.8119 H   0  0  0  0  0  0  0  0  0  0  0  0
   54.1799   24.0347   45.7662 H   0  0  0  0  0  0  0  0  0  0  0  0
   57.3076   21.6848   45.8828 H   0  0  0  0  0  0  0  0  0  0  0  0
   58.1125   20.9559   43.5131 H   0  0  0  0  0  0  0  0  0  0  0  0
   56.7834   22.1354   41.5686 H   0  0  0  0  0  0  0  0  0  0  0  0
   57.1941   27.6023   47.7874 H   0  0  0  0  0  0  0  0  0  0  0  0
   58.8799   27.6817   47.1179 H   0  0  0  0  0  0  0  0  0  0  0  0
   56.3843   28.9844   45.9371 H   0  0  0  0  0  0  0  0  0  0  0  0
   57.7804   29.8016   46.7812 H   0  0  0  0  0  0  0  0  0  0  0  0
   59.9660   29.8937   45.6684 H   0  0  0  0  0  0  0  0  0  0  0  0
   59.7277   30.2047   43.9089 H   0  0  0  0  0  0  0  0  0  0  0  0
   58.0719   31.9041   43.1459 H   0  0  0  0  0  0  0  0  0  0  0  0
   57.0839   34.1364   43.6525 H   0  0  0  0  0  0  0  0  0  0  0  0
   57.0607   34.9898   45.9962 H   0  0  0  0  0  0  0  0  0  0  0  0
   58.0410   33.6210   47.8375 H   0  0  0  0  0  0  0  0  0  0  0  0
   59.5516   32.4943   49.1004 H   0  0  0  0  0  0  0  0  0  0  0  0
   60.2476   30.8593   49.2915 H   0  0  0  0  0  0  0  0  0  0  0  0
   60.4125   33.8950   47.0351 H   0  0  0  0  0  0  0  0  0  0  0  0
   62.5723   34.7611   46.1350 H   0  0  0  0  0  0  0  0  0  0  0  0
   64.6924   33.5114   46.5527 H   0  0  0  0  0  0  0  0  0  0  0  0
   64.6565   31.3912   47.8703 H   0  0  0  0  0  0  0  0  0  0  0  0
   62.5029   30.5235   48.7848 H   0  0  0  0  0  0  0  0  0  0  0  0
   58.8860   27.9783   43.2031 H   0  0  0  0  0  0  0  0  0  0  0  0
   59.6570   27.6044   44.7946 H   0  0  0  0  0  0  0  0  0  0  0  0
   56.7602   26.9698   44.0545 H   0  0  0  0  0  0  0  0  0  0  0  0
   58.1358   25.7967   44.0191 H   0  0  0  0  0  0  0  0  0  0  0  0
  1  2  2  0
  2  3  1  0
  3  4  1  0
  4  5  1  0
  5  6  2  0
  6  7  1  0
  7  8  2  0
  8  9  1  0
  2 10  1  0
 10 11  1  0
 10 12  1  0
 12 13  1  0
 13 14  1  0
 14 15  1  0
 15 16  1  0
 16 17  2  0
 17 18  1  0
 18 19  2  0
 19 20  1  0
 20 21  2  0
 21 22  1  0
 22 23  1  0
 23 24  1  0
 24 25  2  0
 25 26  1  0
 26 27  2  0
 27 28  1  0
 28 29  2  0
 14 30  1  0
 30 31  1  0
  9  5  1  0
 31 10  1  0
 21 16  1  0
 29 24  1  0
  4 32  1  0
  4 33  1  0
  6 34  1  0
  7 35  1  0
  8 36  1  0
 12 37  1  0
 12 38  1  0
 13 39  1  0
 13 40  1  0
 15 41  1  0
 15 42  1  0
 17 43  1  0
 18 44  1  0
 19 45  1  0
 20 46  1  0
 23 47  1  0
 23 48  1  0
 25 49  1  0
 26 50  1  0
 27 51  1  0
 28 52  1  0
 29 53  1  0
 30 54  1  0
 30 55  1  0
 31 56  1  0
 31 57  1  0
M  CHG  1   3  -1
M  END
>  <UniqueID>  (81) 
70

>  <SMILES>  (81) 
O=C([N-]Cc1cccs1)C1(F)CCN(Cc2ccccc2OCc2ccccc2)CC1

>  <Energy>  (81) 
88.69345960592688

>  <Genealogy>  (81) 
O=C([N-]Cc1cccs1)C1(F)CCN(Cc2ccccc2OCc2ccccc2)CC1 (protonated)
O=C([N-]Cc1cccs1)C1(F)CCN(Cc2ccccc2OCc2ccccc2)CC1 (3D coordinates assigned)
O=C([N-]Cc1cccs1)C1(F)CCN(Cc2ccccc2OCc2ccccc2)CC1 (nonaromatic ring conformer: 88.69345960592688 kcal/mol)

>  <smiles>  (81) 
O=C(NCc1cccs1)C1(F)CCN(Cc2ccccc2OCc2ccccc2)CC1

>  <score_type>  (81) 
oracle

>  <origin>  (81) 
adg

>  <m_score__min__energy>  (81) 
-11.039999999999999

>  <m_primary>  (81) 
energy

$$$$
81:0
     RDKit          3D

 49 51  0  0  0  0  0  0  0  0999 V2000
   59.9380   30.9570   49.5280 C   0  0  0  0  0  0  0  0  0  0  0  0
   60.1590   32.2350   48.9440 O   0  0  0  0  0  0  0  0  0  0  0  0
   61.3210   32.6050   48.2480 C   0  0  0  0  0  0  0  0  0  0  0  0
   62.5980   32.1580   48.6420 C   0  0  0  0  0  0  0  0  0  0  0  0
   63.7340   32.5480   47.9290 C   0  0  0  0  0  0  0  0  0  0  0  0
   63.6130   33.3880   46.8220 C   0  0  0  0  0  0  0  0  0  0  0  0
   62.3530   33.8380   46.4210 C   0  0  0  0  0  0  0  0  0  0  0  0
   61.2040   33.4500   47.1280 C   0  0  0  0  0  0  0  0  0  0  0  0
   59.6190   34.0390   46.6220 S   0  0  0  0  0  0  0  0  0  0  0  0
   58.7950   34.4430   47.8120 O   0  0  0  0  0  0  0  0  0  0  0  0
   59.8020   35.2420   45.7370 O   0  0  0  0  0  0  0  0  0  0  0  0
   58.7780   32.7560   45.7600 C   0  0  0  0  0  0  0  0  0  0  0  0
   58.3100   32.9610   44.4360 C   0  0  0  0  0  0  0  0  0  0  0  0
   57.6620   31.9270   43.7350 C   0  0  0  0  0  0  0  0  0  0  0  0
   57.5000   30.7060   44.3870 C   0  0  0  0  0  0  0  0  0  0  0  0
   57.9550   30.5070   45.6640 C   0  0  0  0  0  0  0  0  0  0  0  0
   58.6000   31.5060   46.3860 C   0  0  0  0  0  0  0  0  0  0  0  0
   57.6330   29.2030   45.9650 C   0  0  0  0  0  0  0  0  0  0  0  0
   57.9100   28.5520   47.1720 O   0  0  0  0  0  0  0  0  0  0  0  0
   58.4420   27.2310   47.2460 C   0  0  0  0  0  0  0  0  0  0  0  0
   58.6050   26.6380   45.8730 C   0  0  0  0  0  0  0  0  0  0  0  0
   59.6990   26.7860   45.2660 O   0  0  0  0  0  0  0  0  0  0  0  0
   57.5370   25.9600   45.2030 N   0  0  0  0  0  0  0  0  0  0  0  0
   56.0320   25.4920   45.9270 S   0  0  0  0  0  0  0  0  0  0  0  0
   55.2450   24.2340   44.9450 C   0  0  0  0  0  0  0  0  0  0  0  0
   56.2610   24.9940   47.3260 O   0  0  0  0  0  0  0  0  0  0  0  0
   55.1330   26.6960   45.9870 O   0  0  0  0  0  0  0  0  0  0  0  0
   57.0070   28.6540   44.8960 N   0  0  0  0  0  0  0  0  0  0  0  0
   56.9250   29.5720   43.9370 N   0  0  0  0  0  0  0  0  0  0  0  0
   56.3310   29.3490   42.6230 C   0  0  0  0  0  0  0  0  0  0  0  0
   59.9536   31.0471   50.6242 H   0  0  0  0  0  0  0  0  0  0  0  0
   58.9597   30.5708   49.2057 H   0  0  0  0  0  0  0  0  0  0  0  0
   60.7298   30.2647   49.2057 H   0  0  0  0  0  0  0  0  0  0  0  0
   62.7008   31.4981   49.5161 H   0  0  0  0  0  0  0  0  0  0  0  0
   64.7267   32.1918   48.2413 H   0  0  0  0  0  0  0  0  0  0  0  0
   64.5100   33.6961   46.2648 H   0  0  0  0  0  0  0  0  0  0  0  0
   62.2606   34.4996   45.5471 H   0  0  0  0  0  0  0  0  0  0  0  0
   58.4553   33.9384   43.9526 H   0  0  0  0  0  0  0  0  0  0  0  0
   57.2962   32.0772   42.7085 H   0  0  0  0  0  0  0  0  0  0  0  0
   58.9587   31.3264   47.4102 H   0  0  0  0  0  0  0  0  0  0  0  0
   59.4233   27.2656   47.7418 H   0  0  0  0  0  0  0  0  0  0  0  0
   57.7432   26.6032   47.8183 H   0  0  0  0  0  0  0  0  0  0  0  0
   54.7793   23.4896   45.6075 H   0  0  0  0  0  0  0  0  0  0  0  0
   54.4732   24.6937   44.3102 H   0  0  0  0  0  0  0  0  0  0  0  0
   55.9960   23.7410   44.3102 H   0  0  0  0  0  0  0  0  0  0  0  0
   56.6440   27.6780   44.8150 H   0  0  0  0  0  0  0  0  0  0  0  0
   55.3074   28.9647   42.7438 H   0  0  0  0  0  0  0  0  0  0  0  0
   56.3032   30.2979   42.0673 H   0  0  0  0  0  0  0  0  0  0  0  0
   56.9346   28.6162   42.0673 H   0  0  0  0  0  0  0  0  0  0  0  0
  1  2  1  0
  2  3  1  0
  3  4  2  0
  4  5  1  0
  5  6  2  0
  6  7  1  0
  7  8  2  0
  8  9  1  0
  9 10  2  0
  9 11  2  0
  9 12  1  0
 12 13  2  0
 13 14  1  0
 14 15  2  0
 15 16  1  0
 16 17  2  0
 16 18  1  0
 18 19  1  0
 19 20  1  0
 20 21  1  0
 21 22  2  0
 21 23  1  0
 23 24  1  0
 24 25  1  0
 24 26  2  0
 24 27  2  0
 18 28  2  0
 28 29  1  0
 29 30  1  0
  8  3  1  0
 17 12  1  0
 29 15  1  0
  1 31  1  0
  1 32  1  0
  1 33  1  0
  4 34  1  0
  5 35  1  0
  6 36  1  0
  7 37  1  0
 13 38  1  0
 14 39  1  0
 17 40  1  0
 20 41  1  0
 20 42  1  0
 25 43  1  0
 25 44  1  0
 25 45  1  0
 28 46  1  0
 30 47  1  0
 30 48  1  0
 30 49  1  0
M  CHG  2  23  -1  28   1
M  END
>  <UniqueID>  (82) 
71

>  <SMILES>  (82) 
COc1ccccc1S(=O)(=O)c1ccc2c(c1)c(OCC(=O)[N-]S(C)(=O)=O)[nH+]n2C

>  <Energy>  (82) 
87.84042800146652

>  <Genealogy>  (82) 
COc1ccccc1S(=O)(=O)c1ccc2c(c1)c(OCC(=O)[N-]S(C)(=O)=O)[nH+]n2C (protonated)
COc1ccccc1S(=O)(=O)c1ccc2c(c1)c(OCC(=O)[N-]S(C)(=O)=O)[nH+]n2C (3D coordinates assigned)
COc1ccccc1S(=O)(=O)c1ccc2c(c1)c(OCC(=O)[N-]S(C)(=O)=O)[nH+]n2C (optimized conformer: 87.84042800146652 kcal/mol)

>  <smiles>  (82) 
COc1ccccc1S(=O)(=O)c1ccc2c(c1)c(OCC(=O)NS(C)(=O)=O)nn2C

>  <score_type>  (82) 
oracle

>  <origin>  (82) 
adg

>  <m_score__min__energy>  (82) 
-9.4299999999999997

>  <m_primary>  (82) 
energy

$$$$
82:0
     RDKit          3D

 49 52  0  0  0  0  0  0  0  0999 V2000
   63.1960   33.8130   46.3380 C   0  0  0  0  0  0  0  0  0  0  0  0
   63.1380   32.8460   47.4940 C   0  0  0  0  0  0  0  0  0  0  0  0
   64.1970   32.7980   48.3520 N   0  0  0  0  0  0  0  0  0  0  0  0
   64.2010   31.9680   49.4310 C   0  0  0  0  0  0  0  0  0  0  0  0
   65.3290   31.9150   50.3310 N   0  0  0  0  0  0  0  0  0  0  0  0
   65.4670   30.7780   51.2490 C   0  0  0  0  0  0  0  0  0  0  0  0
   66.9420   30.5570   51.5990 C   0  0  0  0  0  0  0  0  0  0  0  0
   67.5370   31.7590   52.0440 O   0  0  0  0  0  0  0  0  0  0  0  0
   67.5720   32.6910   50.9830 C   0  0  0  0  0  0  0  0  0  0  0  0
   66.1540   33.1040   50.5730 C   0  0  0  0  0  0  0  0  0  0  0  0
   63.1180   31.1890   49.6710 N   0  0  0  0  0  0  0  0  0  0  0  0
   62.0260   31.1820   48.8640 C   0  0  0  0  0  0  0  0  0  0  0  0
   62.0230   31.9870   47.6920 C   0  0  0  0  0  0  0  0  0  0  0  0
   60.8430   32.0540   46.7270 C   0  0  0  0  0  0  0  0  0  0  0  0
   59.4920   32.3970   47.3670 C   0  0  0  0  0  0  0  0  0  0  0  0
   58.9120   31.2380   48.0700 N   0  0  0  0  0  0  0  0  0  0  0  0
   58.8590   29.8430   47.0180 S   0  0  0  0  0  0  0  0  0  0  0  0
   60.2610   29.4240   46.6760 O   0  0  0  0  0  0  0  0  0  0  0  0
   58.1890   28.6970   47.7260 O   0  0  0  0  0  0  0  0  0  0  0  0
   57.9860   30.1760   45.5310 C   0  0  0  0  0  0  0  0  0  0  0  0
   58.2450   31.2210   44.6580 C   0  0  0  0  0  0  0  0  0  0  0  0
   57.3700   31.2480   43.5660 C   0  0  0  0  0  0  0  0  0  0  0  0
   56.4280   30.2270   43.5810 C   0  0  0  0  0  0  0  0  0  0  0  0
   56.6820   29.2890   44.9550 S   0  0  0  0  0  0  0  0  0  0  0  0
   59.5390   30.9240   49.3720 C   0  0  0  0  0  0  0  0  0  0  0  0
   60.9140   30.2400   49.2580 C   0  0  0  0  0  0  0  0  0  0  0  0
   63.2577   34.8415   46.7231 H   0  0  0  0  0  0  0  0  0  0  0  0
   64.0828   33.5976   45.7239 H   0  0  0  0  0  0  0  0  0  0  0  0
   62.2898   33.7051   45.7239 H   0  0  0  0  0  0  0  0  0  0  0  0
   65.0080   33.4350   48.1920 H   0  0  0  0  0  0  0  0  0  0  0  0
   64.9019   30.9839   52.1700 H   0  0  0  0  0  0  0  0  0  0  0  0
   65.0742   29.8734   50.7618 H   0  0  0  0  0  0  0  0  0  0  0  0
   67.0145   29.8020   52.3957 H   0  0  0  0  0  0  0  0  0  0  0  0
   67.4710   30.2140   50.6976 H   0  0  0  0  0  0  0  0  0  0  0  0
   68.1283   33.5835   51.3054 H   0  0  0  0  0  0  0  0  0  0  0  0
   68.0661   32.2226   50.1190 H   0  0  0  0  0  0  0  0  0  0  0  0
   65.7025   33.7015   51.3787 H   0  0  0  0  0  0  0  0  0  0  0  0
   66.2067   33.6980   49.6487 H   0  0  0  0  0  0  0  0  0  0  0  0
   61.0655   32.8213   45.9708 H   0  0  0  0  0  0  0  0  0  0  0  0
   60.7337   31.0423   46.3092 H   0  0  0  0  0  0  0  0  0  0  0  0
   59.6364   33.2154   48.0877 H   0  0  0  0  0  0  0  0  0  0  0  0
   58.7989   32.6946   46.5664 H   0  0  0  0  0  0  0  0  0  0  0  0
   59.0531   31.9521   44.8077 H   0  0  0  0  0  0  0  0  0  0  0  0
   57.4231   32.0062   42.7708 H   0  0  0  0  0  0  0  0  0  0  0  0
   55.6483   30.0600   42.8233 H   0  0  0  0  0  0  0  0  0  0  0  0
   59.6655   31.8634   49.9302 H   0  0  0  0  0  0  0  0  0  0  0  0
   58.8722   30.2135   49.8825 H   0  0  0  0  0  0  0  0  0  0  0  0
   61.1635   29.7957   50.2329 H   0  0  0  0  0  0  0  0  0  0  0  0
   60.8338   29.4844   48.4626 H   0  0  0  0  0  0  0  0  0  0  0  0
  1  2  1  0
  2  3  2  0
  3  4  1  0
  4  5  1  0
  5  6  1  0
  6  7  1  0
  7  8  1  0
  8  9  1  0
  9 10  1  0
  4 11  2  0
 11 12  1  0
 12 13  2  0
 13 14  1  0
 14 15  1  0
 15 16  1  0
 16 17  1  0
 17 18  2  0
 17 19  2  0
 17 20  1  0
 20 21  2  0
 21 22  1  0
 22 23  2  0
 23 24  1  0
 16 25  1  0
 25 26  1  0
 13  2  1  0
 24 20  1  0
 10  5  1  0
 26 12  1  0
  1 27  1  0
  1 28  1  0
  1 29  1  0
  3 30  1  0
  6 31  1  0
  6 32  1  0
  7 33  1  0
  7 34  1  0
  9 35  1  0
  9 36  1  0
 10 37  1  0
 10 38  1  0
 14 39  1  0
 14 40  1  0
 15 41  1  0
 15 42  1  0
 21 43  1  0
 22 44  1  0
 23 45  1  0
 25 46  1  0
 25 47  1  0
 26 48  1  0
 26 49  1  0
M  CHG  1   3   1
M  END
>  <UniqueID>  (83) 
72

>  <SMILES>  (83) 
Cc1[nH+]c(N2CCOCC2)nc2c1CCN(S(=O)(=O)c1cccs1)CC2

>  <Energy>  (83) 
93.24405611580445

>  <Genealogy>  (83) 
Cc1[nH+]c(N2CCOCC2)nc2c1CCN(S(=O)(=O)c1cccs1)CC2 (protonated)
Cc1[nH+]c(N2CCOCC2)nc2c1CCN(S(=O)(=O)c1cccs1)CC2 (3D coordinates assigned)
Cc1[nH+]c(N2CCOCC2)nc2c1CCN(S(=O)(=O)c1cccs1)CC2 (nonaromatic ring conformer: 93.24405611580445 kcal/mol)

>  <smiles>  (83) 
Cc1nc(N2CCOCC2)nc2c1CCN(S(=O)(=O)c1cccs1)CC2

>  <score_type>  (83) 
oracle

>  <origin>  (83) 
adg

>  <m_score__min__energy>  (83) 
-5.1900000000000004

>  <m_primary>  (83) 
energy

$$$$
83:0
     RDKit          3D

 24 26  0  0  0  0  0  0  0  0999 V2000
   58.1130   34.3180   44.9000 Cl  0  0  0  0  0  0  0  0  0  0  0  0
   58.0840   32.5840   45.1630 C   0  0  0  0  0  0  0  0  0  0  0  0
   59.1070   31.9610   45.8800 C   0  0  0  0  0  0  0  0  0  0  0  0
   59.0730   30.5800   46.0850 C   0  0  0  0  0  0  0  0  0  0  0  0
   58.0070   29.8260   45.5600 C   0  0  0  0  0  0  0  0  0  0  0  0
   57.9210   28.3560   45.7530 C   0  0  0  0  0  0  0  0  0  0  0  0
   59.0900   27.5580   45.9000 C   0  0  0  0  0  0  0  0  0  0  0  0
   58.9930   26.1650   46.0750 C   0  0  0  0  0  0  0  0  0  0  0  0
   57.7230   25.5990   46.0930 C   0  0  0  0  0  0  0  0  0  0  0  0
   56.6020   26.3470   45.9450 C   0  0  0  0  0  0  0  0  0  0  0  0
   56.6520   27.7260   45.7690 C   0  0  0  0  0  0  0  0  0  0  0  0
   55.4920   25.5270   46.0000 O   0  0  0  0  0  0  0  0  0  0  0  0
   55.9440   24.1790   46.1950 C   0  0  0  0  0  0  0  0  0  0  0  0
   57.3750   24.2710   46.2480 O   0  0  0  0  0  0  0  0  0  0  0  0
   57.0190   30.4680   44.8730 N   0  0  0  0  0  0  0  0  0  0  0  0
   57.0340   31.8110   44.6650 C   0  0  0  0  0  0  0  0  0  0  0  0
   59.9389   32.5572   46.2831 H   0  0  0  0  0  0  0  0  0  0  0  0
   59.8743   30.0848   46.6531 H   0  0  0  0  0  0  0  0  0  0  0  0
   60.0807   28.0354   45.8766 H   0  0  0  0  0  0  0  0  0  0  0  0
   59.8930   25.5438   46.1937 H   0  0  0  0  0  0  0  0  0  0  0  0
   55.7297   28.3125   45.6454 H   0  0  0  0  0  0  0  0  0  0  0  0
   55.5477   23.7707   47.1364 H   0  0  0  0  0  0  0  0  0  0  0  0
   55.6026   23.5086   45.3925 H   0  0  0  0  0  0  0  0  0  0  0  0
   56.2178   32.2892   44.1036 H   0  0  0  0  0  0  0  0  0  0  0  0
  1  2  1  0
  2  3  2  0
  3  4  1  0
  4  5  2  0
  5  6  1  0
  6  7  2  0
  7  8  1  0
  8  9  2  0
  9 10  1  0
 10 11  2  0
 10 12  1  0
 12 13  1  0
 13 14  1  0
  5 15  1  0
 15 16  2  0
 16  2  1  0
 11  6  1  0
 14  9  1  0
  3 17  1  0
  4 18  1  0
  7 19  1  0
  8 20  1  0
 11 21  1  0
 13 22  1  0
 13 23  1  0
 16 24  1  0
M  END
>  <UniqueID>  (84) 
73

>  <SMILES>  (84) 
Clc1ccc(-c2ccc3c(c2)OCO3)nc1

>  <Energy>  (84) 
58.74167767670933

>  <Genealogy>  (84) 
Clc1ccc(-c2ccc3c(c2)OCO3)nc1 (3D coordinates assigned)
Clc1ccc(-c2ccc3c(c2)OCO3)nc1 (nonaromatic ring conformer: 58.74167767670933 kcal/mol)

>  <smiles>  (84) 
Clc1ccc(-c2ccc3c(c2)OCO3)nc1

>  <score_type>  (84) 
oracle

>  <origin>  (84) 
adg

>  <m_score__min__energy>  (84) 
-5.9100000000000001

>  <m_primary>  (84) 
energy

$$$$
84:0
     RDKit          3D

 61 64  0  0  1  0  0  0  0  0999 V2000
   54.6020   25.4830   45.8990 N   0  0  0  0  0  0  0  0  0  0  0  0
   54.6360   23.7940   45.6530 S   0  0  0  0  0  0  0  0  0  0  0  0
   54.0900   23.0480   46.8350 O   0  0  0  0  0  0  0  0  0  0  0  0
   53.7080   23.4530   44.4980 O   0  0  0  0  0  0  0  0  0  0  0  0
   56.2170   23.2080   45.2040 C   0  0  0  0  0  0  0  0  0  0  0  0
   56.4210   22.2360   44.2460 C   0  0  0  0  0  0  0  0  0  0  0  0
   57.6740   21.7770   43.8960 C   0  0  0  0  0  0  0  0  0  0  0  0
   58.7520   22.3370   44.5550 C   0  0  0  0  0  0  0  0  0  0  0  0
   58.5640   23.3120   45.5190 C   0  0  0  0  0  0  0  0  0  0  0  0
   57.3030   23.7680   45.8640 C   0  0  0  0  0  0  0  0  0  0  0  0
   57.1410   24.7730   46.8600 N   0  0  0  0  0  0  0  0  0  0  0  0
   57.5340   25.9680   46.5930 C   0  0  0  0  0  0  0  0  0  0  0  0
   58.7810   26.4150   46.9710 C   0  0  0  0  0  0  0  0  0  0  0  0
   59.2330   27.6850   46.7010 C   0  0  0  0  0  0  0  0  0  0  0  0
   58.4070   28.5050   46.0400 N   0  0  0  0  0  0  0  0  0  0  0  0
   57.1540   28.1170   45.6370 C   0  0  0  0  0  0  0  0  0  0  0  0
   56.3810   28.9210   45.0060 O   0  0  0  0  0  0  0  0  0  0  0  0
   55.5920   29.7250   44.3480 C   0  0  0  0  0  0  0  0  0  0  0  0
   56.2680   31.0790   44.1250 C   0  0  0  0  0  0  0  0  0  0  0  0
   57.4130   30.9210   43.1170 C   0  0  0  0  0  0  0  0  0  0  0  0
   57.9450   32.3320   42.8760 C   0  0  0  0  0  0  0  0  0  0  0  0
   58.2210   33.0100   44.1240 N   0  0  0  0  0  0  0  0  0  0  0  0
   58.8410   32.3650   45.2310 C   0  0  0  0  0  0  0  0  0  0  0  0
   59.1850   31.1370   45.1580 O   0  0  0  0  0  0  0  0  0  0  0  0
   59.1280   33.0440   46.5110 C   0  0  2  0  0  0  0  0  0  0  0  0
   58.8840   34.4750   46.7270 C   0  0  0  0  0  0  0  0  0  0  0  0
   60.2640   34.0700   46.3880 C   0  0  1  0  0  0  0  0  0  0  0  0
   61.3090   33.9340   47.4170 C   0  0  0  0  0  0  0  0  0  0  0  0
   62.5710   33.5340   46.9820 C   0  0  0  0  0  0  0  0  0  0  0  0
   63.6070   33.3860   47.8970 C   0  0  0  0  0  0  0  0  0  0  0  0
   63.3750   33.6370   49.2480 C   0  0  0  0  0  0  0  0  0  0  0  0
   62.1120   34.0380   49.6960 C   0  0  0  0  0  0  0  0  0  0  0  0
   61.0940   34.1800   48.7580 C   0  0  0  0  0  0  0  0  0  0  0  0
   56.7530   26.8350   45.9340 N   0  0  0  0  0  0  0  0  0  0  0  0
   54.9530   26.0140   45.0520 H   0  0  0  0  0  0  0  0  0  0  0  0
   55.1360   25.7430   46.7480 H   0  0  0  0  0  0  0  0  0  0  0  0
   55.5444   21.8075   43.7381 H   0  0  0  0  0  0  0  0  0  0  0  0
   57.8088   21.0012   43.1279 H   0  0  0  0  0  0  0  0  0  0  0  0
   59.7714   22.0039   44.3104 H   0  0  0  0  0  0  0  0  0  0  0  0
   59.4425   23.7373   46.0262 H   0  0  0  0  0  0  0  0  0  0  0  0
   59.4446   25.7251   47.5130 H   0  0  0  0  0  0  0  0  0  0  0  0
   60.2342   28.0143   47.0158 H   0  0  0  0  0  0  0  0  0  0  0  0
   58.7150   29.4850   45.8150 H   0  0  0  0  0  0  0  0  0  0  0  0
   55.3503   29.2766   43.3730 H   0  0  0  0  0  0  0  0  0  0  0  0
   54.6738   29.8791   44.9339 H   0  0  0  0  0  0  0  0  0  0  0  0
   55.5315   31.7961   43.7334 H   0  0  0  0  0  0  0  0  0  0  0  0
   56.6696   31.4491   45.0798 H   0  0  0  0  0  0  0  0  0  0  0  0
   58.2035   30.2781   43.5314 H   0  0  0  0  0  0  0  0  0  0  0  0
   57.0716   30.4496   42.1836 H   0  0  0  0  0  0  0  0  0  0  0  0
   58.8733   32.2696   42.2892 H   0  0  0  0  0  0  0  0  0  0  0  0
   57.1786   32.9039   42.3323 H   0  0  0  0  0  0  0  0  0  0  0  0
   57.9620   34.0300   44.2540 H   0  0  0  0  0  0  0  0  0  0  0  0
   58.8457   32.1630   47.1061 H   0  0  0  0  0  0  0  0  0  0  0  0
   58.2895   35.0401   45.9940 H   0  0  0  0  0  0  0  0  0  0  0  0
   58.4422   35.0555   47.5503 H   0  0  0  0  0  0  0  0  0  0  0  0
   60.9819   34.4321   45.6374 H   0  0  0  0  0  0  0  0  0  0  0  0
   62.7474   33.3354   45.9146 H   0  0  0  0  0  0  0  0  0  0  0  0
   64.6048   33.0724   47.5564 H   0  0  0  0  0  0  0  0  0  0  0  0
   64.1953   33.5183   49.9712 H   0  0  0  0  0  0  0  0  0  0  0  0
   61.9283   34.2360   50.7623 H   0  0  0  0  0  0  0  0  0  0  0  0
   60.0949   34.4956   49.0930 H   0  0  0  0  0  0  0  0  0  0  0  0
  1  2  1  0
  2  3  2  0
  2  4  2  0
  2  5  1  0
  5  6  2  0
  6  7  1  0
  7  8  2  0
  8  9  1  0
  9 10  2  0
 10 11  1  0
 11 12  2  0
 12 13  1  0
 13 14  2  0
 14 15  1  0
 15 16  1  0
 16 17  1  0
 17 18  1  0
 18 19  1  0
 19 20  1  0
 20 21  1  0
 21 22  1  0
 22 23  1  0
 23 24  2  0
 23 25  1  0
 25 26  1  0
 26 27  1  0
 27 28  1  0
 28 29  2  0
 29 30  1  0
 30 31  2  0
 31 32  1  0
 32 33  2  0
 16 34  2  0
 10  5  1  0
 34 12  1  0
 27 25  1  0
 33 28  1  0
  1 35  1  0
  1 36  1  0
  6 37  1  0
  7 38  1  0
  8 39  1  0
  9 40  1  0
 13 41  1  0
 14 42  1  0
 15 43  1  0
 18 44  1  0
 18 45  1  0
 19 46  1  0
 19 47  1  0
 20 48  1  0
 20 49  1  0
 21 50  1  0
 21 51  1  0
 22 52  1  0
 25 53  1  1
 26 54  1  0
 26 55  1  0
 27 56  1  6
 29 57  1  0
 30 58  1  0
 31 59  1  0
 32 60  1  0
 33 61  1  0
M  END
>  <smiles>  (85) 
NS(=O)(=O)c1ccccc1N=c1cc[nH]c(OCCCCNC(=O)C2CC2c2ccccc2)n1

>  <score_type>  (85) 
oracle

>  <origin>  (85) 
adg

>  <m_score__min__energy>  (85) 
-10.029999999999999

>  <m_primary>  (85) 
energy

$$$$
85:0
     RDKit          3D

 34 36  0  0  0  0  0  0  0  0999 V2000
   60.0070   33.1340   49.9980 C   0  0  0  0  0  0  0  0  0  0  0  0
   60.1820   33.8770   48.7130 C   0  0  0  0  0  0  0  0  0  0  0  0
   59.2590   34.6390   48.3170 O   0  0  0  0  0  0  0  0  0  0  0  0
   61.3640   33.6830   47.9080 N   0  0  0  0  0  0  0  0  0  0  0  0
   62.6410   34.2120   48.3900 C   0  0  0  0  0  0  0  0  0  0  0  0
   63.4720   33.0490   48.9330 C   0  0  0  0  0  0  0  0  0  0  0  0
   63.4870   31.8920   47.9170 C   0  0  0  0  0  0  0  0  0  0  0  0
   62.1740   31.4960   47.5510 O   0  0  0  0  0  0  0  0  0  0  0  0
   61.4960   32.5800   46.9370 C   0  0  1  0  0  0  0  0  0  0  0  0
   60.1590   32.1490   46.3630 C   0  0  0  0  0  0  0  0  0  0  0  0
   59.3730   33.0240   45.5620 C   0  0  0  0  0  0  0  0  0  0  0  0
   58.1480   32.5950   45.0200 C   0  0  0  0  0  0  0  0  0  0  0  0
   57.7330   31.2930   45.2860 C   0  0  0  0  0  0  0  0  0  0  0  0
   56.6020   30.7060   44.8540 N   0  0  0  0  0  0  0  0  0  0  0  0
   56.6690   29.4570   45.3740 C   0  0  0  0  0  0  0  0  0  0  0  0
   55.6850   28.4950   45.1720 O   0  0  0  0  0  0  0  0  0  0  0  0
   57.8180   29.2480   46.1230 C   0  0  0  0  0  0  0  0  0  0  0  0
   58.4870   30.4440   46.0530 C   0  0  0  0  0  0  0  0  0  0  0  0
   59.7040   30.8340   46.6060 C   0  0  0  0  0  0  0  0  0  0  0  0
   60.1685   33.8196   50.8429 H   0  0  0  0  0  0  0  0  0  0  0  0
   58.9876   32.7237   50.0484 H   0  0  0  0  0  0  0  0  0  0  0  0
   60.7361   32.3119   50.0484 H   0  0  0  0  0  0  0  0  0  0  0  0
   63.1782   34.6974   47.5619 H   0  0  0  0  0  0  0  0  0  0  0  0
   62.4671   34.9544   49.1829 H   0  0  0  0  0  0  0  0  0  0  0  0
   64.5024   33.3900   49.1118 H   0  0  0  0  0  0  0  0  0  0  0  0
   63.0267   32.6962   49.8749 H   0  0  0  0  0  0  0  0  0  0  0  0
   64.0255   32.2172   47.0147 H   0  0  0  0  0  0  0  0  0  0  0  0
   63.9860   31.0311   48.3859 H   0  0  0  0  0  0  0  0  0  0  0  0
   62.0867   32.9407   46.0821 H   0  0  0  0  0  0  0  0  0  0  0  0
   59.7271   34.0466   45.3646 H   0  0  0  0  0  0  0  0  0  0  0  0
   57.5353   33.2691   44.4035 H   0  0  0  0  0  0  0  0  0  0  0  0
   55.1360   28.1460   45.9490 H   0  0  0  0  0  0  0  0  0  0  0  0
   58.1229   28.3330   46.6519 H   0  0  0  0  0  0  0  0  0  0  0  0
   60.2958   30.1360   47.2164 H   0  0  0  0  0  0  0  0  0  0  0  0
  1  2  1  0
  2  3  2  0
  2  4  1  0
  4  5  1  0
  5  6  1  0
  6  7  1  0
  7  8  1  0
  8  9  1  0
  9 10  1  0
 10 11  2  0
 11 12  1  0
 12 13  2  0
 13 14  1  0
 14 15  1  0
 15 16  1  0
 15 17  2  0
 17 18  1  0
 18 19  2  0
  9  4  1  0
 19 10  1  0
 18 13  1  0
  1 20  1  0
  1 21  1  0
  1 22  1  0
  5 23  1  0
  5 24  1  0
  6 25  1  0
  6 26  1  0
  7 27  1  0
  7 28  1  0
  9 29  1  6
 11 30  1  0
 12 31  1  0
 16 32  1  0
 17 33  1  0
 19 34  1  0
M  CHG  1  14  -1
M  END
>  <UniqueID>  (86) 
74

>  <SMILES>  (86) 
CC(=O)N1CCCO[C@H]1c1ccc2[n-]c(O)cc2c1

>  <Energy>  (86) 
74.11213549146015

>  <Genealogy>  (86) 
CC(=O)N1CCCOC1c1ccc2[n-]c(O)cc2c1 (protonated)
CC(=O)N1CCCO[C@H]1c1ccc2[n-]c(O)cc2c1 (chirality)
CC(=O)N1CCCO[C@H]1c1ccc2[n-]c(O)cc2c1 (3D coordinates assigned)
CC(=O)N1CCCO[C@H]1c1ccc2[n-]c(O)cc2c1 (nonaromatic ring conformer: 74.11213549146015 kcal/mol)

>  <smiles>  (86) 
CC(=O)N1CCCOC1c1ccc2[nH]c(O)cc2c1

>  <score_type>  (86) 
oracle

>  <origin>  (86) 
adg

>  <m_score__min__energy>  (86) 
-9.0700000000000003

>  <m_primary>  (86) 
energy

$$$$
86:0
     RDKit          3D

 51 54  0  0  0  0  0  0  0  0999 V2000
   60.7156   27.8100   44.4528 H   0  0  0  0  0  0  0  0  0  0  0  0
   59.9920   28.3170   45.1080 C   0  0  0  0  0  0  0  0  0  0  0  0
   58.7280   28.6570   44.6180 C   0  0  0  0  0  0  0  0  0  0  0  0
   58.4596   28.4135   43.5794 H   0  0  0  0  0  0  0  0  0  0  0  0
   57.7980   29.3090   45.4470 C   0  0  0  0  0  0  0  0  0  0  0  0
   56.4800   29.7380   44.9120 C   0  0  0  0  0  0  0  0  0  0  0  0
   55.5220   28.9180   44.8780 O   0  0  0  0  0  0  0  0  0  0  0  0
   56.2490   31.0940   44.5010 N   0  0  0  0  0  0  0  0  0  0  0  0
   57.0250   32.1050   44.7700 C   0  0  0  0  0  0  0  0  0  0  0  0
   57.1100   32.6480   45.9970 N   0  0  0  0  0  0  0  0  0  0  0  0
   58.0290   33.5990   45.9340 N   0  0  0  0  0  0  0  0  0  0  0  0
   58.5660   34.2790   47.1060 C   0  0  0  0  0  0  0  0  0  0  0  0
   57.9003   34.1121   47.9656 H   0  0  0  0  0  0  0  0  0  0  0  0
   58.6379   35.3584   46.9069 H   0  0  0  0  0  0  0  0  0  0  0  0
   59.9320   33.7290   47.4130 C   0  0  0  0  0  0  0  0  0  0  0  0
   60.3700   32.5450   46.8020 C   0  0  0  0  0  0  0  0  0  0  0  0
   59.7410   32.0541   46.0448 H   0  0  0  0  0  0  0  0  0  0  0  0
   61.6010   31.9870   47.1510 C   0  0  0  0  0  0  0  0  0  0  0  0
   61.9471   31.0706   46.6507 H   0  0  0  0  0  0  0  0  0  0  0  0
   62.3990   32.5870   48.1350 C   0  0  0  0  0  0  0  0  0  0  0  0
   63.7320   32.0000   48.4920 C   0  0  0  0  0  0  0  0  0  0  0  0
   63.8320   31.9560   49.5866 H   0  0  0  0  0  0  0  0  0  0  0  0
   63.8089   30.9847   48.0757 H   0  0  0  0  0  0  0  0  0  0  0  0
   64.5329   32.6287   48.0757 H   0  0  0  0  0  0  0  0  0  0  0  0
   61.9650   33.7720   48.7420 C   0  0  0  0  0  0  0  0  0  0  0  0
   62.5958   34.2628   49.4978 H   0  0  0  0  0  0  0  0  0  0  0  0
   60.7340   34.3340   48.3920 C   0  0  0  0  0  0  0  0  0  0  0  0
   60.3925   35.2552   48.8867 H   0  0  0  0  0  0  0  0  0  0  0  0
   58.5380   33.6700   44.6870 C   0  0  0  0  0  0  0  0  0  0  0  0
   59.3255   34.3621   44.3540 H   0  0  0  0  0  0  0  0  0  0  0  0
   57.9080   32.7320   43.9000 C   0  0  0  0  0  0  0  0  0  0  0  0
   58.0670   32.5269   42.8310 H   0  0  0  0  0  0  0  0  0  0  0  0
   58.1400   29.5700   46.7880 C   0  0  0  0  0  0  0  0  0  0  0  0
   57.4012   30.0366   47.4563 H   0  0  0  0  0  0  0  0  0  0  0  0
   59.4120   29.2420   47.2820 C   0  0  0  0  0  0  0  0  0  0  0  0
   59.7740   29.5750   48.6370 N   0  0  0  0  0  0  0  0  0  0  0  0
   59.1290   30.7320   49.2850 C   0  0  0  0  0  0  0  0  0  0  0  0
   59.5822   31.6529   48.8893 H   0  0  0  0  0  0  0  0  0  0  0  0
   58.0531   30.6754   49.0634 H   0  0  0  0  0  0  0  0  0  0  0  0
   59.2850   30.7280   50.8250 C   0  0  0  0  0  0  0  0  0  0  0  0
   60.0161   31.4998   51.1075 H   0  0  0  0  0  0  0  0  0  0  0  0
   58.2956   30.9289   51.2616 H   0  0  0  0  0  0  0  0  0  0  0  0
   59.7280   29.4810   51.3210 O   0  0  0  0  0  0  0  0  0  0  0  0
   60.9900   29.1910   50.7650 C   0  0  0  0  0  0  0  0  0  0  0  0
   61.6316   30.0822   50.8295 H   0  0  0  0  0  0  0  0  0  0  0  0
   61.4518   28.3624   51.3219 H   0  0  0  0  0  0  0  0  0  0  0  0
   60.8270   28.7880   49.3020 C   0  0  0  0  0  0  0  0  0  0  0  0
   61.7802   28.9523   48.7781 H   0  0  0  0  0  0  0  0  0  0  0  0
   60.5376   27.7273   49.2674 H   0  0  0  0  0  0  0  0  0  0  0  0
   60.3400   28.6190   46.4280 C   0  0  0  0  0  0  0  0  0  0  0  0
   61.3442   28.3682   46.8005 H   0  0  0  0  0  0  0  0  0  0  0  0
  1  2  1  0
  2  3  2  0
  3  4  1  0
  3  5  1  0
  5  6  1  0
  6  7  2  0
  6  8  1  0
  8  9  2  0
  9 10  1  0
 10 11  1  0
 11 12  1  0
 12 13  1  0
 12 14  1  0
 12 15  1  0
 15 16  2  0
 16 17  1  0
 16 18  1  0
 18 19  1  0
 18 20  2  0
 20 21  1  0
 21 22  1  0
 21 23  1  0
 21 24  1  0
 20 25  1  0
 25 26  1  0
 25 27  2  0
 27 28  1  0
 11 29  1  0
 29 30  1  0
 29 31  2  0
 31 32  1  0
  5 33  2  0
 33 34  1  0
 33 35  1  0
 35 36  1  0
 36 37  1  0
 37 38  1  0
 37 39  1  0
 37 40  1  0
 40 41  1  0
 40 42  1  0
 40 43  1  0
 43 44  1  0
 44 45  1  0
 44 46  1  0
 44 47  1  0
 47 48  1  0
 47 49  1  0
 35 50  2  0
 50 51  1  0
 50  2  1  0
 31  9  1  0
 47 36  1  0
 27 15  1  0
M  CHG  1  10  -1
M  END
>  <UniqueID>  (87) 
75

>  <SMILES>  (87) 
Cc1ccc(Cn2cc/c(=N\C(=O)c3cccc(N4CCOCC4)c3)[n-]2)cc1

>  <Energy>  (87) 
97.87692946589212

>  <Genealogy>  (87) 
Cc1ccc(Cn2ccc(=NC(=O)c3cccc(N4CCOCC4)c3)[n-]2)cc1 (protonated)
Cc1ccc(Cn2cc/c(=N\C(=O)c3cccc(N4CCOCC4)c3)[n-]2)cc1 (cis-trans isomerization)
Cc1ccc(Cn2cc/c(=N\C(=O)c3cccc(N4CCOCC4)c3)[n-]2)cc1 (3D coordinates assigned)
Cc1ccc(Cn2cc/c(=N\C(=O)c3cccc(N4CCOCC4)c3)[n-]2)cc1 (nonaromatic ring conformer: 97.87692946589212 kcal/mol)

>  <smiles>  (87) 
Cc1ccc(Cn2ccc(=NC(=O)c3cccc(N4CCOCC4)c3)[nH]2)cc1

>  <score_type>  (87) 
oracle

>  <origin>  (87) 
adg

>  <m_score__min__energy>  (87) 
-10.58

>  <m_primary>  (87) 
energy

$$$$
87:0
     RDKit          3D

 34 35  0  0  0  0  0  0  0  0999 V2000
   56.1440   23.2050   47.1460 C   0  0  0  0  0  0  0  0  0  0  0  0
   57.5090   22.6980   47.0600 N   0  0  0  0  0  0  0  0  0  0  0  0
   58.2480   23.2470   45.5860 S   0  0  0  0  0  0  0  0  0  0  0  0
   57.6090   22.5590   44.4110 O   0  0  0  0  0  0  0  0  0  0  0  0
   59.7080   22.8950   45.6060 O   0  0  0  0  0  0  0  0  0  0  0  0
   58.0800   24.9940   45.4320 C   0  0  0  0  0  0  0  0  0  0  0  0
   58.1650   25.8210   46.5600 C   0  0  0  0  0  0  0  0  0  0  0  0
   58.0480   27.2070   46.4270 C   0  0  0  0  0  0  0  0  0  0  0  0
   57.8320   27.7860   45.1660 C   0  0  0  0  0  0  0  0  0  0  0  0
   57.7380   29.2160   45.0540 N   0  0  0  0  0  0  0  0  0  0  0  0
   56.5210   29.9270   44.7920 C   0  0  0  0  0  0  0  0  0  0  0  0
   55.4070   29.3430   44.8900 O   0  0  0  0  0  0  0  0  0  0  0  0
   56.5810   31.3300   44.5100 N   0  0  0  0  0  0  0  0  0  0  0  0
   57.4680   32.2850   45.1140 C   0  0  0  0  0  0  0  0  0  0  0  0
   57.8160   33.4890   44.4740 C   0  0  0  0  0  0  0  0  0  0  0  0
   58.7020   34.3810   45.0890 C   0  0  0  0  0  0  0  0  0  0  0  0
   59.2560   34.0730   46.3350 C   0  0  0  0  0  0  0  0  0  0  0  0
   58.9320   32.8680   46.9630 C   0  0  0  0  0  0  0  0  0  0  0  0
   58.0470   31.9740   46.3520 C   0  0  0  0  0  0  0  0  0  0  0  0
   57.7760   26.9530   44.0330 C   0  0  0  0  0  0  0  0  0  0  0  0
   57.8950   25.5680   44.1680 C   0  0  0  0  0  0  0  0  0  0  0  0
   55.8582   23.3112   48.2029 H   0  0  0  0  0  0  0  0  0  0  0  0
   56.0849   24.1850   46.6500 H   0  0  0  0  0  0  0  0  0  0  0  0
   55.4595   22.5011   46.6500 H   0  0  0  0  0  0  0  0  0  0  0  0
   58.3244   25.3774   47.5539 H   0  0  0  0  0  0  0  0  0  0  0  0
   58.1257   27.8493   47.3166 H   0  0  0  0  0  0  0  0  0  0  0  0
   58.5930   29.7840   45.2490 H   0  0  0  0  0  0  0  0  0  0  0  0
   57.3908   33.7296   43.4884 H   0  0  0  0  0  0  0  0  0  0  0  0
   58.9630   35.3264   44.5909 H   0  0  0  0  0  0  0  0  0  0  0  0
   59.9462   34.7787   46.8203 H   0  0  0  0  0  0  0  0  0  0  0  0
   59.3738   32.6219   47.9399 H   0  0  0  0  0  0  0  0  0  0  0  0
   57.8040   31.0215   46.8457 H   0  0  0  0  0  0  0  0  0  0  0  0
   57.6377   27.3953   43.0354 H   0  0  0  0  0  0  0  0  0  0  0  0
   57.8432   24.9248   43.2771 H   0  0  0  0  0  0  0  0  0  0  0  0
  1  2  1  0
  2  3  1  0
  3  4  2  0
  3  5  2  0
  3  6  1  0
  6  7  2  0
  7  8  1  0
  8  9  2  0
  9 10  1  0
 10 11  1  0
 11 12  2  0
 11 13  1  0
 13 14  1  0
 14 15  2  0
 15 16  1  0
 16 17  2  0
 17 18  1  0
 18 19  2  0
  9 20  1  0
 20 21  2  0
 21  6  1  0
 19 14  1  0
  1 22  1  0
  1 23  1  0
  1 24  1  0
  7 25  1  0
  8 26  1  0
 10 27  1  0
 15 28  1  0
 16 29  1  0
 17 30  1  0
 18 31  1  0
 19 32  1  0
 20 33  1  0
 21 34  1  0
M  CHG  2   2  -1  13  -1
M  END
>  <UniqueID>  (88) 
76

>  <SMILES>  (88) 
C[N-]S(=O)(=O)c1ccc(NC(=O)[N-]c2ccccc2)cc1

>  <Energy>  (88) 
39.00346661761349

>  <Genealogy>  (88) 
C[N-]S(=O)(=O)c1ccc(NC(=O)[N-]c2ccccc2)cc1 (protonated)
C[N-]S(=O)(=O)c1ccc(NC(=O)[N-]c2ccccc2)cc1 (3D coordinates assigned)
C[N-]S(=O)(=O)c1ccc(NC(=O)[N-]c2ccccc2)cc1 (optimized conformer: 39.00346661761349 kcal/mol)

>  <smiles>  (88) 
CNS(=O)(=O)c1ccc(NC(=O)Nc2ccccc2)cc1

>  <score_type>  (88) 
oracle

>  <origin>  (88) 
adg

>  <m_score__min__energy>  (88) 
-10.35

>  <m_primary>  (88) 
energy

$$$$
88:0
     RDKit          3D

 60 62  0  0  0  0  0  0  0  0999 V2000
   59.0710   35.0000   54.2830 C   0  0  0  0  0  0  0  0  0  0  0  0
   58.9040   34.8100   52.8820 O   0  0  0  0  0  0  0  0  0  0  0  0
   58.3770   33.6320   52.3370 C   0  0  0  0  0  0  0  0  0  0  0  0
   57.2370   33.2260   52.6950 O   0  0  0  0  0  0  0  0  0  0  0  0
   59.1380   32.8930   51.3630 N   0  0  0  0  0  0  0  0  0  0  0  0
   58.7240   31.5620   50.9130 C   0  0  0  0  0  0  0  0  0  0  0  0
   58.7120   31.5030   49.3790 C   0  0  0  0  0  0  0  0  0  0  0  0
   59.8450   32.2270   48.7300 N   0  0  0  0  0  0  0  0  0  0  0  0
   59.3590   33.3550   47.9580 C   0  0  0  0  0  0  0  0  0  0  0  0
   59.2910   34.4990   48.4880 O   0  0  0  0  0  0  0  0  0  0  0  0
   58.8240   33.1710   46.5910 C   0  0  0  0  0  0  0  0  0  0  0  0
   59.2740   33.9630   45.5260 C   0  0  0  0  0  0  0  0  0  0  0  0
   58.7930   33.7470   44.2340 C   0  0  0  0  0  0  0  0  0  0  0  0
   57.8740   32.7110   43.9780 C   0  0  0  0  0  0  0  0  0  0  0  0
   57.4010   32.4370   42.6850 O   0  0  0  0  0  0  0  0  0  0  0  0
   58.2280   32.3430   41.5320 C   0  0  0  0  0  0  0  0  0  0  0  0
   57.4310   31.9050   45.0370 C   0  0  0  0  0  0  0  0  0  0  0  0
   56.5690   30.8390   44.7490 O   0  0  0  0  0  0  0  0  0  0  0  0
   56.7000   29.9880   43.6100 C   0  0  0  0  0  0  0  0  0  0  0  0
   57.3950   28.6870   44.0060 C   0  0  0  0  0  0  0  0  0  0  0  0
   58.3390   28.8970   45.1560 C   0  0  0  0  0  0  0  0  0  0  0  0
   59.6110   29.4500   44.9360 C   0  0  0  0  0  0  0  0  0  0  0  0
   60.4890   29.6540   46.0050 C   0  0  0  0  0  0  0  0  0  0  0  0
   60.1000   29.3180   47.3160 C   0  0  0  0  0  0  0  0  0  0  0  0
   60.9440   29.5040   48.4210 O   0  0  0  0  0  0  0  0  0  0  0  0
   60.8300   28.7840   49.6440 C   0  0  0  0  0  0  0  0  0  0  0  0
   58.8260   28.7820   47.5340 C   0  0  0  0  0  0  0  0  0  0  0  0
   57.9490   28.5740   46.4660 C   0  0  0  0  0  0  0  0  0  0  0  0
   57.8860   32.1590   46.3450 C   0  0  0  0  0  0  0  0  0  0  0  0
   60.9230   32.6400   49.6610 C   0  0  0  0  0  0  0  0  0  0  0  0
   60.3970   33.4490   50.8590 C   0  0  0  0  0  0  0  0  0  0  0  0
   58.4402   34.2824   54.8281 H   0  0  0  0  0  0  0  0  0  0  0  0
   60.1255   34.8393   54.5517 H   0  0  0  0  0  0  0  0  0  0  0  0
   58.7763   36.0252   54.5517 H   0  0  0  0  0  0  0  0  0  0  0  0
   59.4289   30.8116   51.3003 H   0  0  0  0  0  0  0  0  0  0  0  0
   57.7114   31.3540   51.2889 H   0  0  0  0  0  0  0  0  0  0  0  0
   58.7574   30.4471   49.0740 H   0  0  0  0  0  0  0  0  0  0  0  0
   57.7884   32.0021   49.0506 H   0  0  0  0  0  0  0  0  0  0  0  0
   60.2830   31.5470   48.0660 H   0  0  0  0  0  0  0  0  0  0  0  0
   60.0104   34.7593   45.7095 H   0  0  0  0  0  0  0  0  0  0  0  0
   59.1341   34.3905   43.4096 H   0  0  0  0  0  0  0  0  0  0  0  0
   59.2767   32.2238   41.8417 H   0  0  0  0  0  0  0  0  0  0  0  0
   57.9221   31.4738   40.9312 H   0  0  0  0  0  0  0  0  0  0  0  0
   58.1249   33.2586   40.9312 H   0  0  0  0  0  0  0  0  0  0  0  0
   55.7014   29.7599   43.2091 H   0  0  0  0  0  0  0  0  0  0  0  0
   57.3018   30.4999   42.8446 H   0  0  0  0  0  0  0  0  0  0  0  0
   56.6334   27.9492   44.2985 H   0  0  0  0  0  0  0  0  0  0  0  0
   57.9754   28.3283   43.1431 H   0  0  0  0  0  0  0  0  0  0  0  0
   59.9186   29.7244   43.9162 H   0  0  0  0  0  0  0  0  0  0  0  0
   61.4870   30.0784   45.8212 H   0  0  0  0  0  0  0  0  0  0  0  0
   60.9400   29.4785   50.4899 H   0  0  0  0  0  0  0  0  0  0  0  0
   59.8439   28.2991   49.6935 H   0  0  0  0  0  0  0  0  0  0  0  0
   61.6181   28.0182   49.6935 H   0  0  0  0  0  0  0  0  0  0  0  0
   58.5118   28.5219   48.5556 H   0  0  0  0  0  0  0  0  0  0  0  0
   56.9489   28.1555   46.6522 H   0  0  0  0  0  0  0  0  0  0  0  0
   57.5016   31.5574   47.1819 H   0  0  0  0  0  0  0  0  0  0  0  0
   61.4256   31.7377   50.0395 H   0  0  0  0  0  0  0  0  0  0  0  0
   61.6144   33.2873   49.1016 H   0  0  0  0  0  0  0  0  0  0  0  0
   61.1466   33.4267   51.6638 H   0  0  0  0  0  0  0  0  0  0  0  0
   60.2135   34.4818   50.5279 H   0  0  0  0  0  0  0  0  0  0  0  0
  1  2  1  0
  2  3  1  0
  3  4  2  0
  3  5  1  0
  5  6  1  0
  6  7  1  0
  7  8  1  0
  8  9  1  0
  9 10  2  0
  9 11  1  0
 11 12  2  0
 12 13  1  0
 13 14  2  0
 14 15  1  0
 15 16  1  0
 14 17  1  0
 17 18  1  0
 18 19  1  0
 19 20  1  0
 20 21  1  0
 21 22  2  0
 22 23  1  0
 23 24  2  0
 24 25  1  0
 25 26  1  0
 24 27  1  0
 27 28  2  0
 17 29  2  0
  8 30  1  0
 30 31  1  0
 31  5  1  0
 29 11  1  0
 28 21  1  0
  1 32  1  0
  1 33  1  0
  1 34  1  0
  6 35  1  0
  6 36  1  0
  7 37  1  0
  7 38  1  0
  8 39  1  0
 12 40  1  0
 13 41  1  0
 16 42  1  0
 16 43  1  0
 16 44  1  0
 19 45  1  0
 19 46  1  0
 20 47  1  0
 20 48  1  0
 22 49  1  0
 23 50  1  0
 26 51  1  0
 26 52  1  0
 26 53  1  0
 27 54  1  0
 28 55  1  0
 29 56  1  0
 30 57  1  0
 30 58  1  0
 31 59  1  0
 31 60  1  0
M  CHG  1   8   1
M  END
>  <UniqueID>  (89) 
77

>  <SMILES>  (89) 
COC(=O)N1CC[NH+](C(=O)c2ccc(OC)c(OCCc3ccc(OC)cc3)c2)CC1

>  <Energy>  (89) 
69.27667272534437

>  <Genealogy>  (89) 
COC(=O)N1CC[NH+](C(=O)c2ccc(OC)c(OCCc3ccc(OC)cc3)c2)CC1 (protonated)
COC(=O)N1CC[NH+](C(=O)c2ccc(OC)c(OCCc3ccc(OC)cc3)c2)CC1 (3D coordinates assigned)
COC(=O)N1CC[NH+](C(=O)c2ccc(OC)c(OCCc3ccc(OC)cc3)c2)CC1 (nonaromatic ring conformer: 69.27667272534437 kcal/mol)

>  <smiles>  (89) 
COC(=O)N1CCN(C(=O)c2ccc(OC)c(OCCc3ccc(OC)cc3)c2)CC1

>  <score_type>  (89) 
oracle

>  <origin>  (89) 
adg

>  <m_score__min__energy>  (89) 
-5.9400000000000004

>  <m_primary>  (89) 
energy

$$$$
89:0
     RDKit          3D

 47 49  0  0  0  0  0  0  0  0999 V2000
   57.7860   32.4780   44.5220 C   0  0  0  0  0  0  0  0  0  0  0  0
   58.2740   31.1100   44.9180 C   0  0  0  0  0  0  0  0  0  0  0  0
   58.1400   30.0780   44.0640 C   0  0  0  0  0  0  0  0  0  0  0  0
   58.5120   28.7250   44.4260 N   0  0  2  0  0  0  0  0  0  0  0  0
   57.3640   28.0530   45.0090 C   0  0  0  0  0  0  0  0  0  0  0  0
   56.3430   28.6790   45.2660 O   0  0  0  0  0  0  0  0  0  0  0  0
   57.3890   26.5710   45.2780 C   0  0  0  0  0  0  0  0  0  0  0  0
   56.2510   26.1990   46.1690 C   0  0  0  0  0  0  0  0  0  0  0  0
   55.1140   26.7110   45.9930 O   0  0  0  0  0  0  0  0  0  0  0  0
   56.4550   25.3250   47.2290 O   0  0  0  0  0  0  0  0  0  0  0  0
   59.6910   28.6610   45.3340 C   0  0  1  0  0  0  0  0  0  0  0  0
   60.9970   28.9200   44.5640 C   0  0  0  0  0  0  0  0  0  0  0  0
   59.5690   29.6580   46.4680 C   0  0  0  0  0  0  0  0  0  0  0  0
   60.1720   29.4070   47.7090 C   0  0  0  0  0  0  0  0  0  0  0  0
   60.0840   30.3460   48.7380 C   0  0  0  0  0  0  0  0  0  0  0  0
   59.3950   31.5570   48.5360 C   0  0  0  0  0  0  0  0  0  0  0  0
   59.2670   32.5290   49.5410 O   0  0  0  0  0  0  0  0  0  0  0  0
   60.0640   33.7090   49.6560 C   0  0  0  0  0  0  0  0  0  0  0  0
   61.2940   33.6100   48.7930 C   0  0  0  0  0  0  0  0  0  0  0  0
   61.2220   33.9240   47.4250 C   0  0  0  0  0  0  0  0  0  0  0  0
   62.3610   33.8290   46.6190 C   0  0  0  0  0  0  0  0  0  0  0  0
   63.5750   33.4100   47.1690 C   0  0  0  0  0  0  0  0  0  0  0  0
   63.6520   33.0820   48.5270 C   0  0  0  0  0  0  0  0  0  0  0  0
   64.8290   32.6710   49.0590 F   0  0  0  0  0  0  0  0  0  0  0  0
   62.5150   33.1770   49.3360 C   0  0  0  0  0  0  0  0  0  0  0  0
   58.8120   31.8130   47.2900 C   0  0  0  0  0  0  0  0  0  0  0  0
   58.8950   30.8720   46.2470 C   0  0  0  0  0  0  0  0  0  0  0  0
   57.5755   33.0681   45.4261 H   0  0  0  0  0  0  0  0  0  0  0  0
   58.5589   32.9845   43.9253 H   0  0  0  0  0  0  0  0  0  0  0  0
   56.8670   32.3810   43.9253 H   0  0  0  0  0  0  0  0  0  0  0  0
   57.7351   30.2679   43.0590 H   0  0  0  0  0  0  0  0  0  0  0  0
   58.7560   28.2320   43.5340 H   0  0  0  0  0  0  0  0  0  0  0  0
   57.3011   26.0258   44.3267 H   0  0  0  0  0  0  0  0  0  0  0  0
   58.3366   26.3075   45.7705 H   0  0  0  0  0  0  0  0  0  0  0  0
   59.7178   27.6457   45.7563 H   0  0  0  0  0  0  0  0  0  0  0  0
   61.8176   29.0827   45.2782 H   0  0  0  0  0  0  0  0  0  0  0  0
   61.2284   28.0503   43.9315 H   0  0  0  0  0  0  0  0  0  0  0  0
   60.8790   29.8122   43.9315 H   0  0  0  0  0  0  0  0  0  0  0  0
   60.7170   28.4655   47.8723 H   0  0  0  0  0  0  0  0  0  0  0  0
   60.5548   30.1390   49.7104 H   0  0  0  0  0  0  0  0  0  0  0  0
   59.4694   34.5781   49.3380 H   0  0  0  0  0  0  0  0  0  0  0  0
   60.3772   33.8220   50.7044 H   0  0  0  0  0  0  0  0  0  0  0  0
   60.2659   34.2458   46.9864 H   0  0  0  0  0  0  0  0  0  0  0  0
   62.3009   34.0845   45.5508 H   0  0  0  0  0  0  0  0  0  0  0  0
   64.4705   33.3380   46.5343 H   0  0  0  0  0  0  0  0  0  0  0  0
   62.5772   32.9116   50.4017 H   0  0  0  0  0  0  0  0  0  0  0  0
   58.2818   32.7623   47.1236 H   0  0  0  0  0  0  0  0  0  0  0  0
  1  2  1  0
  2  3  2  0
  3  4  1  0
  4  5  1  0
  5  6  2  0
  5  7  1  0
  7  8  1  0
  8  9  2  0
  8 10  1  0
  4 11  1  0
 11 12  1  0
 11 13  1  0
 13 14  2  0
 14 15  1  0
 15 16  2  0
 16 17  1  0
 17 18  1  0
 18 19  1  0
 19 20  2  0
 20 21  1  0
 21 22  2  0
 22 23  1  0
 23 24  1  0
 23 25  2  0
 16 26  1  0
 26 27  2  0
 27  2  1  0
 27 13  1  0
 25 19  1  0
  1 28  1  0
  1 29  1  0
  1 30  1  0
  3 31  1  0
  4 32  1  6
  7 33  1  0
  7 34  1  0
 11 35  1  1
 12 36  1  0
 12 37  1  0
 12 38  1  0
 14 39  1  0
 15 40  1  0
 18 41  1  0
 18 42  1  0
 20 43  1  0
 21 44  1  0
 22 45  1  0
 25 46  1  0
 26 47  1  0
M  CHG  2   4   1  10  -1
M  END
>  <UniqueID>  (90) 
78

>  <SMILES>  (90) 
CC1=C[N@H+](C(=O)CC(=O)[O-])[C@@H](C)c2ccc(OCc3cccc(F)c3)cc21

>  <Energy>  (90) 
52.783291356627956

>  <Genealogy>  (90) 
CC1=C[NH+](C(=O)CC(=O)[O-])C(C)c2ccc(OCc3cccc(F)c3)cc21 (protonated)
CC1=C[N@H+](C(=O)CC(=O)[O-])[C@@H](C)c2ccc(OCc3cccc(F)c3)cc21 (chirality)
CC1=C[N@H+](C(=O)CC(=O)[O-])[C@@H](C)c2ccc(OCc3cccc(F)c3)cc21 (3D coordinates assigned)
CC1=C[N@H+](C(=O)CC(=O)[O-])[C@@H](C)c2ccc(OCc3cccc(F)c3)cc21 (nonaromatic ring conformer: 52.783291356627956 kcal/mol)

>  <smiles>  (90) 
CC1=CN(C(=O)CC(=O)O)C(C)c2ccc(OCc3cccc(F)c3)cc21

>  <score_type>  (90) 
oracle

>  <origin>  (90) 
adg

>  <m_score__min__energy>  (90) 
-10.09

>  <m_primary>  (90) 
energy

$$$$
90:0
     RDKit          3D

 47 49  0  0  0  0  0  0  0  0999 V2000
   58.2180   29.5510   44.1250 C   0  0  0  0  0  0  0  0  0  0  0  0
   56.4740   29.8920   44.2190 S   0  0  0  0  0  0  0  0  0  0  0  0
   55.8030   28.9360   45.1650 O   0  0  0  0  0  0  0  0  0  0  0  0
   55.8760   29.7190   42.8530 O   0  0  0  0  0  0  0  0  0  0  0  0
   56.2100   31.5250   44.7390 N   0  0  0  0  0  0  0  0  0  0  0  0
   57.2170   32.4260   45.2220 C   0  0  0  0  0  0  0  0  0  0  0  0
   57.3620   33.7300   44.7180 C   0  0  0  0  0  0  0  0  0  0  0  0
   58.3480   34.5760   45.2310 C   0  0  0  0  0  0  0  0  0  0  0  0
   59.2060   34.1370   46.2450 C   0  0  0  0  0  0  0  0  0  0  0  0
   60.1200   35.0450   46.7800 O   0  0  0  0  0  0  0  0  0  0  0  0
   59.1000   32.8110   46.7190 C   0  0  0  0  0  0  0  0  0  0  0  0
   59.9880   32.2860   47.7130 N   0  0  0  0  0  0  0  0  0  0  0  0
   60.8430   31.1520   47.5140 C   0  0  0  0  0  0  0  0  0  0  0  0
   62.0930   31.2860   47.6140 O   0  0  0  0  0  0  0  0  0  0  0  0
   60.2640   29.8340   47.1680 C   0  0  0  0  0  0  0  0  0  0  0  0
   60.7980   29.0700   46.1170 C   0  0  0  0  0  0  0  0  0  0  0  0
   60.2490   27.8280   45.7890 C   0  0  0  0  0  0  0  0  0  0  0  0
   59.1520   27.3200   46.5070 C   0  0  0  0  0  0  0  0  0  0  0  0
   58.5680   25.9990   46.1590 C   0  0  0  0  0  0  0  0  0  0  0  0
   59.3990   24.8860   45.9370 C   0  0  0  0  0  0  0  0  0  0  0  0
   58.8470   23.6450   45.6110 C   0  0  0  0  0  0  0  0  0  0  0  0
   57.4630   23.4980   45.5020 C   0  0  0  0  0  0  0  0  0  0  0  0
   56.6200   24.5940   45.7250 C   0  0  0  0  0  0  0  0  0  0  0  0
   54.8740   24.4250   45.5810 S   0  0  0  0  0  0  0  0  0  0  0  0
   54.1340   25.9830   45.7000 N   0  0  0  0  0  0  0  0  0  0  0  0
   54.5400   23.8070   44.2530 O   0  0  0  0  0  0  0  0  0  0  0  0
   54.3440   23.5520   46.6830 O   0  0  0  0  0  0  0  0  0  0  0  0
   57.1730   25.8400   46.0490 C   0  0  0  0  0  0  0  0  0  0  0  0
   58.6190   28.0820   47.5590 C   0  0  0  0  0  0  0  0  0  0  0  0
   59.1670   29.3250   47.8860 C   0  0  0  0  0  0  0  0  0  0  0  0
   58.0880   31.9800   46.2230 C   0  0  0  0  0  0  0  0  0  0  0  0
   58.6311   29.4702   45.1413 H   0  0  0  0  0  0  0  0  0  0  0  0
   58.3781   28.6045   43.5878 H   0  0  0  0  0  0  0  0  0  0  0  0
   58.7228   30.3674   43.5878 H   0  0  0  0  0  0  0  0  0  0  0  0
   56.6970   34.0854   43.9171 H   0  0  0  0  0  0  0  0  0  0  0  0
   58.4508   35.5967   44.8341 H   0  0  0  0  0  0  0  0  0  0  0  0
   60.7560   34.8050   47.5290 H   0  0  0  0  0  0  0  0  0  0  0  0
   61.6569   29.4535   45.5467 H   0  0  0  0  0  0  0  0  0  0  0  0
   60.6783   27.2428   44.9624 H   0  0  0  0  0  0  0  0  0  0  0  0
   60.4905   24.9936   46.0207 H   0  0  0  0  0  0  0  0  0  0  0  0
   59.5051   22.7804   45.4395 H   0  0  0  0  0  0  0  0  0  0  0  0
   57.0338   22.5195   45.2405 H   0  0  0  0  0  0  0  0  0  0  0  0
   54.7930   26.6680   45.2670 H   0  0  0  0  0  0  0  0  0  0  0  0
   56.5113   26.7021   46.2190 H   0  0  0  0  0  0  0  0  0  0  0  0
   57.7620   27.6968   48.1311 H   0  0  0  0  0  0  0  0  0  0  0  0
   58.7368   29.9104   48.7120 H   0  0  0  0  0  0  0  0  0  0  0  0
   57.9759   30.9625   46.6256 H   0  0  0  0  0  0  0  0  0  0  0  0
  1  2  1  0
  2  3  2  0
  2  4  2  0
  2  5  1  0
  5  6  1  0
  6  7  2  0
  7  8  1  0
  8  9  2  0
  9 10  1  0
  9 11  1  0
 11 12  1  0
 12 13  1  0
 13 14  2  0
 13 15  1  0
 15 16  2  0
 16 17  1  0
 17 18  2  0
 18 19  1  0
 19 20  2  0
 20 21  1  0
 21 22  2  0
 22 23  1  0
 23 24  1  0
 24 25  1  0
 24 26  2  0
 24 27  2  0
 23 28  2  0
 18 29  1  0
 29 30  2  0
 11 31  2  0
 31  6  1  0
 30 15  1  0
 28 19  1  0
  1 32  1  0
  1 33  1  0
  1 34  1  0
  7 35  1  0
  8 36  1  0
 10 37  1  0
 16 38  1  0
 17 39  1  0
 20 40  1  0
 21 41  1  0
 22 42  1  0
 25 43  1  0
 28 44  1  0
 29 45  1  0
 30 46  1  0
 31 47  1  0
M  CHG  3   5  -1  12  -1  25  -1
M  END
>  <UniqueID>  (91) 
79

>  <SMILES>  (91) 
CS(=O)(=O)[N-]c1ccc(O)c([N-]C(=O)c2ccc(-c3cccc(S([NH-])(=O)=O)c3)cc2)c1

>  <Energy>  (91) 
61.57000090513615

>  <Genealogy>  (91) 
CS(=O)(=O)[N-]c1ccc(O)c([N-]C(=O)c2ccc(-c3cccc(S([NH-])(=O)=O)c3)cc2)c1 (protonated)
CS(=O)(=O)[N-]c1ccc(O)c([N-]C(=O)c2ccc(-c3cccc(S([NH-])(=O)=O)c3)cc2)c1 (3D coordinates assigned)
CS(=O)(=O)[N-]c1ccc(O)c([N-]C(=O)c2ccc(-c3cccc(S([NH-])(=O)=O)c3)cc2)c1 (optimized conformer: 61.57000090513615 kcal/mol)

>  <smiles>  (91) 
CS(=O)(=O)Nc1ccc(O)c(NC(=O)c2ccc(-c3cccc(S(N)(=O)=O)c3)cc2)c1

>  <score_type>  (91) 
oracle

>  <origin>  (91) 
adg

>  <m_score__min__energy>  (91) 
-14.32

>  <m_primary>  (91) 
energy

$$$$
91:0
     RDKit          3D

 36 39  0  0  0  0  0  0  0  0999 V2000
   60.2950   34.2790   50.0340 O   0  0  0  0  0  0  0  0  0  0  0  0
   61.2900   33.9690   49.3280 C   0  0  0  0  0  0  0  0  0  0  0  0
   62.6310   33.6830   49.8260 C   0  0  0  0  0  0  0  0  0  0  0  0
   63.1570   33.6680   51.1140 C   0  0  0  0  0  0  0  0  0  0  0  0
   64.5150   33.3350   51.2570 C   0  0  0  0  0  0  0  0  0  0  0  0
   65.2900   33.0310   50.1160 C   0  0  0  0  0  0  0  0  0  0  0  0
   64.7290   33.0560   48.8680 N   0  0  0  0  0  0  0  0  0  0  0  0
   63.4170   33.3840   48.7410 C   0  0  0  0  0  0  0  0  0  0  0  0
   62.5970   33.4680   47.5410 C   0  0  0  0  0  0  0  0  0  0  0  0
   62.9700   33.1850   46.3720 O   0  0  0  0  0  0  0  0  0  0  0  0
   61.2670   33.8610   47.8990 N   0  0  0  0  0  0  0  0  0  0  0  0
   60.1110   33.8770   47.0460 C   0  0  0  0  0  0  0  0  0  0  0  0
   60.0070   34.8600   46.0490 C   0  0  0  0  0  0  0  0  0  0  0  0
   58.8690   34.9380   45.2460 C   0  0  0  0  0  0  0  0  0  0  0  0
   57.8210   34.0340   45.4270 C   0  0  0  0  0  0  0  0  0  0  0  0
   57.9150   33.0420   46.4060 C   0  0  0  0  0  0  0  0  0  0  0  0
   59.0600   32.9420   47.2170 C   0  0  0  0  0  0  0  0  0  0  0  0
   59.1540   31.8330   48.1970 C   0  0  0  0  0  0  0  0  0  0  0  0
   59.9250   30.6930   47.9060 C   0  0  0  0  0  0  0  0  0  0  0  0
   60.0100   29.6450   48.8280 C   0  0  0  0  0  0  0  0  0  0  0  0
   59.3360   29.7290   50.0480 C   0  0  0  0  0  0  0  0  0  0  0  0
   58.5770   30.8620   50.3510 C   0  0  0  0  0  0  0  0  0  0  0  0
   58.4890   31.9120   49.4340 C   0  0  0  0  0  0  0  0  0  0  0  0
   62.5333   33.9078   51.9878 H   0  0  0  0  0  0  0  0  0  0  0  0
   64.9737   33.3112   52.2565 H   0  0  0  0  0  0  0  0  0  0  0  0
   66.3529   32.7721   50.2314 H   0  0  0  0  0  0  0  0  0  0  0  0
   65.3030   32.8270   48.0260 H   0  0  0  0  0  0  0  0  0  0  0  0
   60.8298   35.5747   45.8998 H   0  0  0  0  0  0  0  0  0  0  0  0
   58.7974   35.7132   44.4689 H   0  0  0  0  0  0  0  0  0  0  0  0
   56.9208   34.1028   44.7985 H   0  0  0  0  0  0  0  0  0  0  0  0
   57.0859   32.3324   46.5440 H   0  0  0  0  0  0  0  0  0  0  0  0
   60.4634   30.6256   46.9491 H   0  0  0  0  0  0  0  0  0  0  0  0
   60.6088   28.7530   48.5918 H   0  0  0  0  0  0  0  0  0  0  0  0
   59.4027   28.9026   50.7709 H   0  0  0  0  0  0  0  0  0  0  0  0
   58.0479   30.9274   51.3132 H   0  0  0  0  0  0  0  0  0  0  0  0
   57.8965   32.8054   49.6805 H   0  0  0  0  0  0  0  0  0  0  0  0
  1  2  2  0
  2  3  1  0
  3  4  2  0
  4  5  1  0
  5  6  2  0
  6  7  1  0
  7  8  2  0
  8  9  1  0
  9 10  2  0
  9 11  1  0
 11 12  1  0
 12 13  2  0
 13 14  1  0
 14 15  2  0
 15 16  1  0
 16 17  2  0
 17 18  1  0
 18 19  2  0
 19 20  1  0
 20 21  2  0
 21 22  1  0
 22 23  2  0
 11  2  1  0
 17 12  1  0
 23 18  1  0
  8  3  1  0
  4 24  1  0
  5 25  1  0
  6 26  1  0
  7 27  1  0
 13 28  1  0
 14 29  1  0
 15 30  1  0
 16 31  1  0
 19 32  1  0
 20 33  1  0
 21 34  1  0
 22 35  1  0
 23 36  1  0
M  CHG  1   7   1
M  END
>  <UniqueID>  (92) 
80

>  <SMILES>  (92) 
O=C1c2ccc[nH+]c2C(=O)N1c1ccccc1-c1ccccc1

>  <Energy>  (92) 
86.27447768287368

>  <Genealogy>  (92) 
O=C1c2ccc[nH+]c2C(=O)N1c1ccccc1-c1ccccc1 (protonated)
O=C1c2ccc[nH+]c2C(=O)N1c1ccccc1-c1ccccc1 (3D coordinates assigned)
O=C1c2ccc[nH+]c2C(=O)N1c1ccccc1-c1ccccc1 (nonaromatic ring conformer: 86.27447768287368 kcal/mol)

>  <smiles>  (92) 
O=C1c2cccnc2C(=O)N1c1ccccc1-c1ccccc1

>  <score_type>  (92) 
oracle

>  <origin>  (92) 
adg

>  <m_score__min__energy>  (92) 
-6.4100000000000001

>  <m_primary>  (92) 
energy

$$$$
92:0
     RDKit          3D

 65 68  0  0  0  0  0  0  0  0999 V2000
   55.4000   30.4750   53.2170 C   0  0  0  0  0  0  0  0  0  0  0  0
   56.8010   30.9790   53.5480 C   0  0  0  0  0  0  0  0  0  0  0  0
   57.7680   30.6660   52.4360 C   0  0  0  0  0  0  0  0  0  0  0  0
   58.8070   29.7420   52.6300 C   0  0  0  0  0  0  0  0  0  0  0  0
   59.6990   29.4550   51.5920 C   0  0  0  0  0  0  0  0  0  0  0  0
   59.5690   30.0970   50.3470 C   0  0  0  0  0  0  0  0  0  0  0  0
   60.4340   29.8360   49.2740 O   0  0  0  0  0  0  0  0  0  0  0  0
   60.0520   29.4360   47.9850 C   0  0  0  0  0  0  0  0  0  0  0  0
   58.9680   28.5630   47.8510 C   0  0  0  0  0  0  0  0  0  0  0  0
   58.5500   28.1380   46.5870 C   0  0  0  0  0  0  0  0  0  0  0  0
   59.2180   28.5780   45.4340 C   0  0  0  0  0  0  0  0  0  0  0  0
   58.7980   28.0830   44.0750 C   0  0  0  0  0  0  0  0  0  0  0  0
   57.4040   28.4230   43.7950 N   0  0  0  0  0  0  0  0  0  0  0  0
   56.7240   29.5850   44.2930 C   0  0  0  0  0  0  0  0  0  0  0  0
   55.6570   29.4410   44.9420 O   0  0  0  0  0  0  0  0  0  0  0  0
   57.2540   30.9380   44.0720 C   0  0  0  0  0  0  0  0  0  0  0  0
   57.4350   31.5170   42.8330 C   0  0  0  0  0  0  0  0  0  0  0  0
   58.0940   32.7110   43.0520 C   0  0  0  0  0  0  0  0  0  0  0  0
   58.3060   32.8030   44.4160 C   0  0  0  0  0  0  0  0  0  0  0  0
   59.1600   33.8270   45.0490 C   0  0  0  0  0  0  0  0  0  0  0  0
   59.2590   34.9690   44.5250 O   0  0  0  0  0  0  0  0  0  0  0  0
   59.9380   33.4990   46.2030 N   0  0  0  0  0  0  0  0  0  0  0  0
   59.5660   33.8550   47.5670 C   0  0  0  0  0  0  0  0  0  0  0  0
   60.7100   34.5840   48.2810 C   0  0  0  0  0  0  0  0  0  0  0  0
   61.7290   33.6120   48.8430 C   0  0  0  0  0  0  0  0  0  0  0  0
   61.5760   33.0640   50.1420 C   0  0  0  0  0  0  0  0  0  0  0  0
   60.2650   33.5310   51.2180 Cl  0  0  0  0  0  0  0  0  0  0  0  0
   62.4920   32.1160   50.6140 C   0  0  0  0  0  0  0  0  0  0  0  0
   63.5610   31.7070   49.8190 C   0  0  0  0  0  0  0  0  0  0  0  0
   63.7300   32.2490   48.5480 C   0  0  0  0  0  0  0  0  0  0  0  0
   62.8260   33.1940   48.0520 C   0  0  0  0  0  0  0  0  0  0  0  0
   63.1140   33.8350   46.4350 Cl  0  0  0  0  0  0  0  0  0  0  0  0
   57.7610   31.7310   45.0410 N   0  0  0  0  0  0  0  0  0  0  0  0
   57.7830   31.4420   46.4770 C   0  0  0  0  0  0  0  0  0  0  0  0
   60.2780   29.4890   45.5630 C   0  0  0  0  0  0  0  0  0  0  0  0
   60.6880   29.9240   46.8280 C   0  0  0  0  0  0  0  0  0  0  0  0
   58.5130   30.9930   50.1470 C   0  0  0  0  0  0  0  0  0  0  0  0
   57.6210   31.2800   51.1830 C   0  0  0  0  0  0  0  0  0  0  0  0
   54.8514   30.2777   54.1498 H   0  0  0  0  0  0  0  0  0  0  0  0
   54.8651   31.2371   52.6312 H   0  0  0  0  0  0  0  0  0  0  0  0
   55.4731   29.5468   52.6312 H   0  0  0  0  0  0  0  0  0  0  0  0
   56.7649   32.0683   53.6964 H   0  0  0  0  0  0  0  0  0  0  0  0
   57.1461   30.4748   54.4627 H   0  0  0  0  0  0  0  0  0  0  0  0
   58.9199   29.2415   53.6030 H   0  0  0  0  0  0  0  0  0  0  0  0
   60.5058   28.7241   51.7497 H   0  0  0  0  0  0  0  0  0  0  0  0
   58.4398   28.2077   48.7481 H   0  0  0  0  0  0  0  0  0  0  0  0
   57.6927   27.4549   46.4954 H   0  0  0  0  0  0  0  0  0  0  0  0
   59.4403   28.5450   43.3108 H   0  0  0  0  0  0  0  0  0  0  0  0
   58.8993   26.9878   44.0571 H   0  0  0  0  0  0  0  0  0  0  0  0
   57.1173   31.1085   41.8624 H   0  0  0  0  0  0  0  0  0  0  0  0
   58.3923   33.4460   42.2899 H   0  0  0  0  0  0  0  0  0  0  0  0
   58.6842   34.5120   47.5386 H   0  0  0  0  0  0  0  0  0  0  0  0
   59.3431   32.9306   48.1199 H   0  0  0  0  0  0  0  0  0  0  0  0
   61.2109   35.2506   47.5635 H   0  0  0  0  0  0  0  0  0  0  0  0
   60.2831   35.1559   49.1181 H   0  0  0  0  0  0  0  0  0  0  0  0
   62.3668   31.6906   51.6206 H   0  0  0  0  0  0  0  0  0  0  0  0
   64.2711   30.9561   50.1957 H   0  0  0  0  0  0  0  0  0  0  0  0
   64.5817   31.9314   47.9285 H   0  0  0  0  0  0  0  0  0  0  0  0
   57.7113   32.3833   47.0416 H   0  0  0  0  0  0  0  0  0  0  0  0
   56.9315   30.7947   46.7338 H   0  0  0  0  0  0  0  0  0  0  0  0
   58.7226   30.9310   46.7338 H   0  0  0  0  0  0  0  0  0  0  0  0
   60.7895   29.8633   44.6640 H   0  0  0  0  0  0  0  0  0  0  0  0
   61.5098   30.6495   46.9186 H   0  0  0  0  0  0  0  0  0  0  0  0
   58.3843   31.4750   49.1666 H   0  0  0  0  0  0  0  0  0  0  0  0
   56.7988   31.9913   51.0155 H   0  0  0  0  0  0  0  0  0  0  0  0
  1  2  1  0
  2  3  1  0
  3  4  2  0
  4  5  1  0
  5  6  2  0
  6  7  1  0
  7  8  1  0
  8  9  2  0
  9 10  1  0
 10 11  2  0
 11 12  1  0
 12 13  1  0
 13 14  1  0
 14 15  2  0
 14 16  1  0
 16 17  2  0
 17 18  1  0
 18 19  2  0
 19 20  1  0
 20 21  2  0
 20 22  1  0
 22 23  1  0
 23 24  1  0
 24 25  1  0
 25 26  2  0
 26 27  1  0
 26 28  1  0
 28 29  2  0
 29 30  1  0
 30 31  2  0
 31 32  1  0
 19 33  1  0
 33 34  1  0
 11 35  1  0
 35 36  2  0
  6 37  1  0
 37 38  2  0
 38  3  1  0
 36  8  1  0
 33 16  1  0
 31 25  1  0
  1 39  1  0
  1 40  1  0
  1 41  1  0
  2 42  1  0
  2 43  1  0
  4 44  1  0
  5 45  1  0
  9 46  1  0
 10 47  1  0
 12 48  1  0
 12 49  1  0
 17 50  1  0
 18 51  1  0
 23 52  1  0
 23 53  1  0
 24 54  1  0
 24 55  1  0
 28 56  1  0
 29 57  1  0
 30 58  1  0
 34 59  1  0
 34 60  1  0
 34 61  1  0
 35 62  1  0
 36 63  1  0
 37 64  1  0
 38 65  1  0
M  CHG  2  13  -1  22  -1
M  END
>  <UniqueID>  (93) 
81

>  <SMILES>  (93) 
CCc1ccc(Oc2ccc(C[N-]C(=O)c3ccc(C(=O)[N-]CCc4c(Cl)cccc4Cl)n3C)cc2)cc1

>  <Energy>  (93) 
93.28792730864666

>  <Genealogy>  (93) 
CCc1ccc(Oc2ccc(C[N-]C(=O)c3ccc(C(=O)[N-]CCc4c(Cl)cccc4Cl)n3C)cc2)cc1 (protonated)
CCc1ccc(Oc2ccc(C[N-]C(=O)c3ccc(C(=O)[N-]CCc4c(Cl)cccc4Cl)n3C)cc2)cc1 (3D coordinates assigned)
CCc1ccc(Oc2ccc(C[N-]C(=O)c3ccc(C(=O)[N-]CCc4c(Cl)cccc4Cl)n3C)cc2)cc1 (optimized conformer: 93.28792730864666 kcal/mol)

>  <smiles>  (93) 
CCc1ccc(Oc2ccc(CNC(=O)c3ccc(C(=O)NCCc4c(Cl)cccc4Cl)n3C)cc2)cc1

>  <score_type>  (93) 
oracle

>  <origin>  (93) 
adg

>  <m_score__min__energy>  (93) 
-12.630000000000001

>  <m_primary>  (93) 
energy

$$$$
