0:0
     RDKit          3D

 52 55  0  0  0  0  0  0  0  0999 V2000
   58.5010   31.6110   43.6720 O   0  0  0  0  0  0  0  0  0  0  0  0
   57.4260   31.3670   44.2840 C   0  0  0  0  0  0  0  0  0  0  0  0
   56.6490   32.5120   44.8800 C   0  0  0  0  0  0  0  0  0  0  0  0
   57.5610   33.4710   45.6010 C   0  0  0  0  0  0  0  0  0  0  0  0
   57.2580   34.6960   45.6370 O   0  0  0  0  0  0  0  0  0  0  0  0
   58.8060   33.0130   46.2700 C   0  0  0  0  0  0  0  0  0  0  0  0
   58.7460   31.9110   47.1290 C   0  0  0  0  0  0  0  0  0  0  0  0
   59.8510   31.4510   47.7930 N   0  0  0  0  0  0  0  0  0  0  0  0
   59.6690   30.2930   48.6950 C   0  0  0  0  0  0  0  0  0  0  0  0
   59.9560   28.9930   47.9810 C   0  0  0  0  0  0  0  0  0  0  0  0
   60.2540   28.9890   46.6070 C   0  0  0  0  0  0  0  0  0  0  0  0
   60.4980   27.7850   45.9400 C   0  0  0  0  0  0  0  0  0  0  0  0
   60.4320   26.5730   46.6340 C   0  0  0  0  0  0  0  0  0  0  0  0
   60.6690   25.4050   45.9840 F   0  0  0  0  0  0  0  0  0  0  0  0
   60.1150   26.5650   47.9960 C   0  0  0  0  0  0  0  0  0  0  0  0
   59.8700   27.7680   48.6650 C   0  0  0  0  0  0  0  0  0  0  0  0
   61.0720   32.0780   47.6290 C   0  0  0  0  0  0  0  0  0  0  0  0
   62.2340   31.6460   48.3140 C   0  0  0  0  0  0  0  0  0  0  0  0
   63.4570   32.2920   48.1290 C   0  0  0  0  0  0  0  0  0  0  0  0
   63.5540   33.3760   47.2620 C   0  0  0  0  0  0  0  0  0  0  0  0
   62.4290   33.8230   46.5720 C   0  0  0  0  0  0  0  0  0  0  0  0
   61.1830   33.1880   46.7480 C   0  0  0  0  0  0  0  0  0  0  0  0
   60.0450   33.6400   46.0570 C   0  0  0  0  0  0  0  0  0  0  0  0
   60.1400   34.5910   45.2340 O   0  0  0  0  0  0  0  0  0  0  0  0
   56.9850   29.9660   44.4440 C   0  0  0  0  0  0  0  0  0  0  0  0
   55.8360   29.7180   44.9030 O   0  0  0  0  0  0  0  0  0  0  0  0
   57.8490   28.8880   44.0480 N   0  0  0  0  0  0  0  0  0  0  0  0
   57.6640   27.5220   44.4590 C   0  0  0  0  0  0  0  0  0  0  0  0
   57.2490   27.2470   45.7720 C   0  0  0  0  0  0  0  0  0  0  0  0
   57.0370   25.9270   46.1840 C   0  0  0  0  0  0  0  0  0  0  0  0
   57.2240   24.8720   45.2850 C   0  0  0  0  0  0  0  0  0  0  0  0
   57.0190   23.5930   45.6870 F   0  0  0  0  0  0  0  0  0  0  0  0
   57.6190   25.1370   43.9720 C   0  0  0  0  0  0  0  0  0  0  0  0
   57.8310   26.4550   43.5550 C   0  0  0  0  0  0  0  0  0  0  0  0
   56.1272   33.0496   44.0746 H   0  0  0  0  0  0  0  0  0  0  0  0
   55.9280   32.1049   45.6042 H   0  0  0  0  0  0  0  0  0  0  0  0
   57.7833   31.3993   47.2752 H   0  0  0  0  0  0  0  0  0  0  0  0
   60.3552   30.3922   49.5490 H   0  0  0  0  0  0  0  0  0  0  0  0
   58.6235   30.2789   49.0366 H   0  0  0  0  0  0  0  0  0  0  0  0
   60.2954   29.9388   46.0537 H   0  0  0  0  0  0  0  0  0  0  0  0
   60.7423   27.7911   44.8675 H   0  0  0  0  0  0  0  0  0  0  0  0
   60.0584   25.6114   48.5415 H   0  0  0  0  0  0  0  0  0  0  0  0
   59.6083   27.7558   49.7333 H   0  0  0  0  0  0  0  0  0  0  0  0
   62.1715   30.7894   49.0013 H   0  0  0  0  0  0  0  0  0  0  0  0
   64.3483   31.9428   48.6709 H   0  0  0  0  0  0  0  0  0  0  0  0
   64.5209   33.8812   47.1210 H   0  0  0  0  0  0  0  0  0  0  0  0
   62.5139   34.6778   45.8848 H   0  0  0  0  0  0  0  0  0  0  0  0
   58.6070   29.0930   43.3560 H   0  0  0  0  0  0  0  0  0  0  0  0
   57.0898   28.0736   46.4801 H   0  0  0  0  0  0  0  0  0  0  0  0
   56.7225   25.7184   47.2172 H   0  0  0  0  0  0  0  0  0  0  0  0
   57.7637   24.3074   43.2643 H   0  0  0  0  0  0  0  0  0  0  0  0
   58.1296   26.6592   42.5162 H   0  0  0  0  0  0  0  0  0  0  0  0
  1  2  2  0
  2  3  1  0
  3  4  1  0
  4  5  2  0
  4  6  1  0
  6  7  2  0
  7  8  1  0
  8  9  1  0
  9 10  1  0
 10 11  2  0
 11 12  1  0
 12 13  2  0
 13 14  1  0
 13 15  1  0
 15 16  2  0
  8 17  1  0
 17 18  2  0
 18 19  1  0
 19 20  2  0
 20 21  1  0
 21 22  2  0
 22 23  1  0
 23 24  2  0
  2 25  1  0
 25 26  2  0
 25 27  1  0
 27 28  1  0
 28 29  2  0
 29 30  1  0
 30 31  2  0
 31 32  1  0
 31 33  1  0
 33 34  2  0
 23  6  1  0
 34 28  1  0
 16 10  1  0
 22 17  1  0
  3 35  1  0
  3 36  1  0
  7 37  1  0
  9 38  1  0
  9 39  1  0
 11 40  1  0
 12 41  1  0
 15 42  1  0
 16 43  1  0
 18 44  1  0
 19 45  1  0
 20 46  1  0
 21 47  1  0
 27 48  1  0
 29 49  1  0
 30 50  1  0
 33 51  1  0
 34 52  1  0
M  END
>  <UniqueID>  (1) 
1

>  <SMILES>  (1) 
O=C(CC(=O)c1cn(Cc2ccc(F)cc2)c2ccccc2c1=O)C(=O)Nc1ccc(F)cc1

>  <Energy>  (1) 
73.92780286853375

>  <Genealogy>  (1) 
O=C(CC(=O)c1cn(Cc2ccc(F)cc2)c2ccccc2c1=O)C(=O)Nc1ccc(F)cc1 (3D coordinates assigned)
O=C(CC(=O)c1cn(Cc2ccc(F)cc2)c2ccccc2c1=O)C(=O)Nc1ccc(F)cc1 (optimized conformer: 73.92780286853375 kcal/mol)

>  <smiles>  (1) 
O=C(CC(=O)c1cn(Cc2ccc(F)cc2)c2ccccc2c1=O)C(=O)Nc1ccc(F)cc1

>  <score_type>  (1) 
oracle

>  <origin>  (1) 
adg

>  <m_score__min__energy>  (1) 
-9.5199999999999996

>  <m_primary>  (1) 
energy

$$$$
1:0
     RDKit          3D

 50 53  0  0  0  0  0  0  0  0999 V2000
   57.4329   27.7652   42.6282 H   0  0  0  0  0  0  0  0  0  0  0  0
   57.3960   28.5830   43.3630 C   0  0  0  0  0  0  0  0  0  0  0  0
   56.8240   30.1390   43.0770 S   0  0  0  0  0  0  0  0  0  0  0  0
   57.1350   30.6540   44.6420 C   0  0  0  0  0  0  0  0  0  0  0  0
   56.8070   31.8340   45.0800 N   0  0  0  0  0  0  0  0  0  0  0  0
   57.7160   32.8660   45.4840 C   0  0  0  0  0  0  0  0  0  0  0  0
   58.4090   33.6330   44.5330 C   0  0  0  0  0  0  0  0  0  0  0  0
   58.2839   33.4218   43.4607 H   0  0  0  0  0  0  0  0  0  0  0  0
   59.2580   34.6650   44.9470 C   0  0  0  0  0  0  0  0  0  0  0  0
   59.8147   35.2515   44.2013 H   0  0  0  0  0  0  0  0  0  0  0  0
   59.3990   34.9510   46.3080 C   0  0  0  0  0  0  0  0  0  0  0  0
   60.0729   35.7571   46.6337 H   0  0  0  0  0  0  0  0  0  0  0  0
   58.6830   34.2120   47.2560 C   0  0  0  0  0  0  0  0  0  0  0  0
   58.7868   34.4433   48.3264 H   0  0  0  0  0  0  0  0  0  0  0  0
   57.8360   33.1800   46.8430 C   0  0  0  0  0  0  0  0  0  0  0  0
   57.2610   32.6119   47.5891 H   0  0  0  0  0  0  0  0  0  0  0  0
   57.6630   29.6610   45.4010 N   0  0  0  0  0  0  0  0  0  0  0  0
   57.8370   29.7310   46.4250 H   0  0  0  0  0  0  0  0  0  0  0  0
   57.8160   28.5070   44.6930 C   0  0  0  0  0  0  0  0  0  0  0  0
   58.2660   27.2370   45.2990 C   0  0  0  0  0  0  0  0  0  0  0  0
   57.8070   25.9930   44.9050 C   0  0  0  0  0  0  0  0  0  0  0  0
   57.0115   25.7880   44.1735 H   0  0  0  0  0  0  0  0  0  0  0  0
   58.5400   25.0600   45.6070 C   0  0  0  0  0  0  0  0  0  0  0  0
   58.4358   23.9663   45.5536 H   0  0  0  0  0  0  0  0  0  0  0  0
   59.4280   25.7650   46.3880 C   0  0  0  0  0  0  0  0  0  0  0  0
   60.1725   25.3106   47.0583 H   0  0  0  0  0  0  0  0  0  0  0  0
   59.2560   27.0930   46.2150 N   0  0  0  0  0  0  0  0  0  0  0  0
   60.1030   28.1310   46.8130 C   0  0  0  0  0  0  0  0  0  0  0  0
   60.3463   28.8776   46.0427 H   0  0  0  0  0  0  0  0  0  0  0  0
   61.0115   27.6460   47.1995 H   0  0  0  0  0  0  0  0  0  0  0  0
   59.4220   28.8240   47.9630 C   0  0  0  0  0  0  0  0  0  0  0  0
   58.2140   28.5650   48.2020 O   0  0  0  0  0  0  0  0  0  0  0  0
   60.1080   29.7580   48.8050 N   0  0  0  0  0  0  0  0  0  0  0  0
   60.9960   30.7810   48.3440 C   0  0  0  0  0  0  0  0  0  0  0  0
   60.7170   31.5170   47.1850 C   0  0  0  0  0  0  0  0  0  0  0  0
   59.8014   31.3098   46.6116 H   0  0  0  0  0  0  0  0  0  0  0  0
   61.5960   32.5120   46.7550 C   0  0  0  0  0  0  0  0  0  0  0  0
   61.3724   33.0787   45.8391 H   0  0  0  0  0  0  0  0  0  0  0  0
   62.7640   32.7960   47.4820 C   0  0  0  0  0  0  0  0  0  0  0  0
   63.6990   33.8680   46.9870 C   0  0  0  0  0  0  0  0  0  0  0  0
   64.1507   34.3858   47.8460 H   0  0  0  0  0  0  0  0  0  0  0  0
   64.4915   33.4102   46.3768 H   0  0  0  0  0  0  0  0  0  0  0  0
   63.1377   34.5909   46.3768 H   0  0  0  0  0  0  0  0  0  0  0  0
   63.0350   32.0760   48.6710 C   0  0  0  0  0  0  0  0  0  0  0  0
   64.2710   32.3510   49.4860 C   0  0  0  0  0  0  0  0  0  0  0  0
   64.0241   32.2961   50.5565 H   0  0  0  0  0  0  0  0  0  0  0  0
   65.0410   31.6022   49.2484 H   0  0  0  0  0  0  0  0  0  0  0  0
   64.6509   33.3556   49.2484 H   0  0  0  0  0  0  0  0  0  0  0  0
   62.1400   31.0780   49.0910 C   0  0  0  0  0  0  0  0  0  0  0  0
   62.3417   30.5232   50.0192 H   0  0  0  0  0  0  0  0  0  0  0  0
  1  2  1  0
  2  3  1  0
  3  4  1  0
  4  5  2  0
  5  6  1  0
  6  7  2  0
  7  8  1  0
  7  9  1  0
  9 10  1  0
  9 11  2  0
 11 12  1  0
 11 13  1  0
 13 14  1  0
 13 15  2  0
 15 16  1  0
  4 17  1  0
 17 18  1  0
 17 19  1  0
 19 20  1  0
 20 21  2  0
 21 22  1  0
 21 23  1  0
 23 24  1  0
 23 25  2  0
 25 26  1  0
 25 27  1  0
 27 28  1  0
 28 29  1  0
 28 30  1  0
 28 31  1  0
 31 32  2  0
 31 33  1  0
 33 34  1  0
 34 35  2  0
 35 36  1  0
 35 37  1  0
 37 38  1  0
 37 39  2  0
 39 40  1  0
 40 41  1  0
 40 42  1  0
 40 43  1  0
 39 44  1  0
 44 45  1  0
 45 46  1  0
 45 47  1  0
 45 48  1  0
 44 49  2  0
 49 50  1  0
 19  2  2  0
 27 20  1  0
 49 34  1  0
 15  6  1  0
M  CHG  1  33  -1
M  END
>  <UniqueID>  (2) 
2

>  <SMILES>  (2) 
Cc1ccc([N-]C(=O)Cn2cccc2-c2cs/c(=N/c3ccccc3)[nH]2)cc1C

>  <Energy>  (2) 
125.4650408889675

>  <Genealogy>  (2) 
Cc1ccc([N-]C(=O)Cn2cccc2-c2csc(=Nc3ccccc3)[nH]2)cc1C (protonated)
Cc1ccc([N-]C(=O)Cn2cccc2-c2cs/c(=N/c3ccccc3)[nH]2)cc1C (cis-trans isomerization)
Cc1ccc([N-]C(=O)Cn2cccc2-c2cs/c(=N/c3ccccc3)[nH]2)cc1C (3D coordinates assigned)
Cc1ccc([N-]C(=O)Cn2cccc2-c2cs/c(=N/c3ccccc3)[nH]2)cc1C (optimized conformer: 125.4650408889675 kcal/mol)

>  <smiles>  (2) 
Cc1ccc(NC(=O)Cn2cccc2-c2csc(=Nc3ccccc3)[nH]2)cc1C

>  <score_type>  (2) 
oracle

>  <origin>  (2) 
adg

>  <m_score__min__energy>  (2) 
-10.5

>  <m_primary>  (2) 
energy

$$$$
2:0
     RDKit          3D

 39 41  0  0  0  0  0  0  0  0999 V2000
   53.7360   28.3170   53.2310 C   0  0  0  0  0  0  0  0  0  0  0  0
   54.6000   29.3140   52.9740 C   0  0  0  0  0  0  0  0  0  0  0  0
   54.2750   30.5850   52.4760 C   0  0  0  0  0  0  0  0  0  0  0  0
   53.0900   31.2130   52.3530 C   0  0  0  0  0  0  0  0  0  0  0  0
   52.2890   31.3030   51.1210 C   0  0  0  0  0  0  0  0  0  0  0  0
   52.2620   30.3660   50.1530 N   0  0  0  0  0  0  0  0  0  0  0  0
   51.3020   30.8140   49.3150 C   0  0  0  0  0  0  0  0  0  0  0  0
   50.9870   30.2050   48.2590 O   0  0  0  0  0  0  0  0  0  0  0  0
   50.6990   31.9580   49.7010 N   0  0  0  0  0  0  0  0  0  0  0  0
   51.3280   32.2450   50.8530 C   0  0  0  0  0  0  0  0  0  0  0  0
   51.0230   33.3440   51.6470 O   0  0  0  0  0  0  0  0  0  0  0  0
   55.4710   31.1680   52.1030 C   0  0  0  0  0  0  0  0  0  0  0  0
   56.4800   30.2870   52.4400 C   0  0  0  0  0  0  0  0  0  0  0  0
   57.9120   30.5620   52.1760 C   0  0  0  0  0  0  0  0  0  0  0  0
   58.5280   31.4550   52.8160 O   0  0  0  0  0  0  0  0  0  0  0  0
   58.5910   29.8130   51.1590 N   0  0  0  0  0  0  0  0  0  0  0  0
   58.8130   30.2190   49.8000 C   0  0  0  0  0  0  0  0  0  0  0  0
   58.9090   29.2870   48.7490 C   0  0  0  0  0  0  0  0  0  0  0  0
   59.1030   29.7270   47.4350 C   0  0  0  0  0  0  0  0  0  0  0  0
   59.1870   31.0940   47.1590 C   0  0  0  0  0  0  0  0  0  0  0  0
   59.0680   32.0260   48.1940 C   0  0  0  0  0  0  0  0  0  0  0  0
   59.1580   33.7420   47.8450 Cl  0  0  0  0  0  0  0  0  0  0  0  0
   58.8740   31.5880   49.5090 C   0  0  0  0  0  0  0  0  0  0  0  0
   55.9530   29.1650   53.0010 N   0  0  0  0  0  0  0  0  0  0  0  0
   56.6950   27.9880   53.4810 C   0  0  0  0  0  0  0  0  0  0  0  0
   57.3510   28.2740   54.8260 C   0  0  0  0  0  0  0  0  0  0  0  0
   54.1044   27.3570   53.6218 H   0  0  0  0  0  0  0  0  0  0  0  0
   52.6605   28.4610   53.0505 H   0  0  0  0  0  0  0  0  0  0  0  0
   52.6852   31.7014   53.2516 H   0  0  0  0  0  0  0  0  0  0  0  0
   55.5963   32.1513   51.6261 H   0  0  0  0  0  0  0  0  0  0  0  0
   58.8313   28.2105   48.9614 H   0  0  0  0  0  0  0  0  0  0  0  0
   59.1895   28.9955   46.6181 H   0  0  0  0  0  0  0  0  0  0  0  0
   59.3469   31.4372   46.1262 H   0  0  0  0  0  0  0  0  0  0  0  0
   58.7687   32.3239   50.3198 H   0  0  0  0  0  0  0  0  0  0  0  0
   55.9991   27.1433   53.5914 H   0  0  0  0  0  0  0  0  0  0  0  0
   57.4802   27.7439   52.7503 H   0  0  0  0  0  0  0  0  0  0  0  0
   56.6696   27.9769   55.6368 H   0  0  0  0  0  0  0  0  0  0  0  0
   58.2875   27.7025   54.9061 H   0  0  0  0  0  0  0  0  0  0  0  0
   57.5696   29.3491   54.9061 H   0  0  0  0  0  0  0  0  0  0  0  0
  1  2  2  0
  2  3  1  0
  3  4  2  3
  4  5  1  0
  5  6  1  0
  6  7  1  0
  7  8  2  0
  7  9  1  0
  9 10  1  0
 10 11  1  0
  3 12  1  0
 12 13  2  0
 13 14  1  0
 14 15  2  0
 14 16  1  0
 16 17  1  0
 17 18  2  0
 18 19  1  0
 19 20  2  0
 20 21  1  0
 21 22  1  0
 21 23  2  0
 13 24  1  0
 24 25  1  0
 25 26  1  0
 24  2  1  0
 10  5  2  0
 23 17  1  0
  1 27  1  0
  1 28  1  0
  4 29  1  0
 12 30  1  0
 18 31  1  0
 19 32  1  0
 20 33  1  0
 23 34  1  0
 25 35  1  0
 25 36  1  0
 26 37  1  0
 26 38  1  0
 26 39  1  0
M  CHG  4   6  -1   9  -1  11  -1  16  -1
M  END
>  <UniqueID>  (3) 
3

>  <SMILES>  (3) 
C=c1c(=Cc2[n-]c(=O)[n-]c2[O-])cc(C(=O)[N-]c2cccc(Cl)c2)n1CC

>  <Energy>  (3) 
113.68576675232666

>  <Genealogy>  (3) 
C=c1c(=Cc2[n-]c(=O)[n-]c2[O-])cc(C(=O)[N-]c2cccc(Cl)c2)n1CC (protonated)
C=c1c(=Cc2[n-]c(=O)[n-]c2[O-])cc(C(=O)[N-]c2cccc(Cl)c2)n1CC (3D coordinates assigned)
C=c1c(=Cc2[n-]c(=O)[n-]c2[O-])cc(C(=O)[N-]c2cccc(Cl)c2)n1CC (optimized conformer: 113.68576675232666 kcal/mol)

>  <smiles>  (3) 
C=c1c(=Cc2[nH]c(=O)[nH]c2O)cc(C(=O)Nc2cccc(Cl)c2)n1CC

>  <score_type>  (3) 
oracle

>  <origin>  (3) 
adg

>  <m_score__min__energy>  (3) 
-17.850000000000001

>  <m_primary>  (3) 
energy

$$$$
3:0
     RDKit          3D

 65 68  0  0  0  0  0  0  0  0999 V2000
   61.7810   26.1510   52.5210 O   0  0  0  0  0  0  0  0  0  0  0  0
   61.3240   26.9290   51.6420 C   0  0  0  0  0  0  0  0  0  0  0  0
   61.0980   26.4250   50.2540 C   0  0  0  0  0  0  0  0  0  0  0  0
   60.8940   27.5600   49.3600 N   0  0  0  0  0  0  0  0  0  0  0  0
   60.6640   27.3840   47.9520 C   0  0  0  0  0  0  0  0  0  0  0  0
   61.1450   26.3750   47.3660 O   0  0  0  0  0  0  0  0  0  0  0  0
   59.8620   28.3640   47.1810 C   0  0  0  0  0  0  0  0  0  0  0  0
   59.9800   28.4510   45.7830 C   0  0  0  0  0  0  0  0  0  0  0  0
   59.2360   29.3920   45.0670 C   0  0  0  0  0  0  0  0  0  0  0  0
   58.3640   30.2610   45.7350 C   0  0  0  0  0  0  0  0  0  0  0  0
   57.4140   31.4400   44.8290 S   0  0  0  0  0  0  0  0  0  0  0  0
   56.0740   30.8430   44.4970 O   0  0  0  0  0  0  0  0  0  0  0  0
   58.1140   31.7450   43.5330 O   0  0  0  0  0  0  0  0  0  0  0  0
   57.1730   32.9230   45.7280 N   0  0  0  0  0  0  0  0  0  0  0  0
   58.2750   33.1570   46.6670 C   0  0  0  0  0  0  0  0  0  0  0  0
   59.2670   34.1040   46.0100 C   0  0  0  0  0  0  0  0  0  0  0  0
   58.5050   34.7690   44.8800 C   0  0  0  0  0  0  0  0  0  0  0  0
   57.1420   34.0890   44.8370 C   0  0  0  0  0  0  0  0  0  0  0  0
   58.2540   30.1880   47.1290 C   0  0  0  0  0  0  0  0  0  0  0  0
   58.9980   29.2490   47.8470 C   0  0  0  0  0  0  0  0  0  0  0  0
   61.0810   28.3120   51.9400 N   0  0  0  0  0  0  0  0  0  0  0  0
   61.9700   29.3950   51.6330 C   0  0  0  0  0  0  0  0  0  0  0  0
   63.3380   29.2430   51.8890 C   0  0  0  0  0  0  0  0  0  0  0  0
   64.2270   30.2870   51.6150 C   0  0  0  0  0  0  0  0  0  0  0  0
   63.7510   31.4950   51.0970 C   0  0  0  0  0  0  0  0  0  0  0  0
   62.3820   31.6700   50.8660 C   0  0  0  0  0  0  0  0  0  0  0  0
   61.7850   33.2030   50.2320 S   0  0  0  0  0  0  0  0  0  0  0  0
   62.8790   34.2280   50.3390 O   0  0  0  0  0  0  0  0  0  0  0  0
   60.6150   33.6650   51.0580 O   0  0  0  0  0  0  0  0  0  0  0  0
   61.3120   32.9950   48.5580 N   0  0  0  0  0  0  0  0  0  0  0  0
   61.6890   34.1630   47.7210 C   0  0  0  0  0  0  0  0  0  0  0  0
   62.6930   33.8360   46.6010 C   0  0  0  0  0  0  0  0  0  0  0  0
   63.8110   32.9390   47.1280 C   0  0  0  0  0  0  0  0  0  0  0  0
   63.2630   31.6380   47.7440 C   0  0  0  0  0  0  0  0  0  0  0  0
   61.7490   31.6910   48.0240 C   0  0  0  0  0  0  0  0  0  0  0  0
   61.4920   30.6230   51.1420 C   0  0  0  0  0  0  0  0  0  0  0  0
   61.9754   25.8494   49.9239 H   0  0  0  0  0  0  0  0  0  0  0  0
   60.2104   25.7755   50.2360 H   0  0  0  0  0  0  0  0  0  0  0  0
   60.8250   28.5150   49.7800 H   0  0  0  0  0  0  0  0  0  0  0  0
   60.6628   27.7736   45.2492 H   0  0  0  0  0  0  0  0  0  0  0  0
   59.3355   29.4508   43.9731 H   0  0  0  0  0  0  0  0  0  0  0  0
   57.8865   33.6080   47.5920 H   0  0  0  0  0  0  0  0  0  0  0  0
   58.7675   32.2062   46.9190 H   0  0  0  0  0  0  0  0  0  0  0  0
   59.6169   34.8560   46.7325 H   0  0  0  0  0  0  0  0  0  0  0  0
   60.1577   33.5723   45.6441 H   0  0  0  0  0  0  0  0  0  0  0  0
   58.3895   35.8449   45.0778 H   0  0  0  0  0  0  0  0  0  0  0  0
   59.0360   34.6693   43.9218 H   0  0  0  0  0  0  0  0  0  0  0  0
   56.3660   34.7923   45.1736 H   0  0  0  0  0  0  0  0  0  0  0  0
   56.9125   33.7711   43.8093 H   0  0  0  0  0  0  0  0  0  0  0  0
   57.5783   30.8736   47.6613 H   0  0  0  0  0  0  0  0  0  0  0  0
   58.9067   29.2021   48.9422 H   0  0  0  0  0  0  0  0  0  0  0  0
   63.7151   28.2982   52.3075 H   0  0  0  0  0  0  0  0  0  0  0  0
   65.3023   30.1575   51.8073 H   0  0  0  0  0  0  0  0  0  0  0  0
   64.4543   32.3099   50.8704 H   0  0  0  0  0  0  0  0  0  0  0  0
   60.7757   34.5662   47.2592 H   0  0  0  0  0  0  0  0  0  0  0  0
   62.1823   34.8852   48.3882 H   0  0  0  0  0  0  0  0  0  0  0  0
   62.1682   33.3182   45.7846 H   0  0  0  0  0  0  0  0  0  0  0  0
   63.1339   34.7746   46.2341 H   0  0  0  0  0  0  0  0  0  0  0  0
   64.4831   32.6826   46.2958 H   0  0  0  0  0  0  0  0  0  0  0  0
   64.3463   33.4895   47.9157 H   0  0  0  0  0  0  0  0  0  0  0  0
   63.4611   30.8104   47.0470 H   0  0  0  0  0  0  0  0  0  0  0  0
   63.7696   31.4943   48.7097 H   0  0  0  0  0  0  0  0  0  0  0  0
   61.2108   31.4977   47.0843 H   0  0  0  0  0  0  0  0  0  0  0  0
   61.5261   30.9295   48.7858 H   0  0  0  0  0  0  0  0  0  0  0  0
   60.4140   30.7626   50.9737 H   0  0  0  0  0  0  0  0  0  0  0  0
  1  2  2  0
  2  3  1  0
  3  4  1  0
  4  5  1  0
  5  6  2  0
  5  7  1  0
  7  8  2  0
  8  9  1  0
  9 10  2  0
 10 11  1  0
 11 12  2  0
 11 13  2  0
 11 14  1  0
 14 15  1  0
 15 16  1  0
 16 17  1  0
 17 18  1  0
 10 19  1  0
 19 20  2  0
  2 21  1  0
 21 22  1  0
 22 23  2  0
 23 24  1  0
 24 25  2  0
 25 26  1  0
 26 27  1  0
 27 28  2  0
 27 29  2  0
 27 30  1  0
 30 31  1  0
 31 32  1  0
 32 33  1  0
 33 34  1  0
 34 35  1  0
 26 36  2  0
 20  7  1  0
 36 22  1  0
 18 14  1  0
 35 30  1  0
  3 37  1  0
  3 38  1  0
  4 39  1  0
  8 40  1  0
  9 41  1  0
 15 42  1  0
 15 43  1  0
 16 44  1  0
 16 45  1  0
 17 46  1  0
 17 47  1  0
 18 48  1  0
 18 49  1  0
 19 50  1  0
 20 51  1  0
 23 52  1  0
 24 53  1  0
 25 54  1  0
 31 55  1  0
 31 56  1  0
 32 57  1  0
 32 58  1  0
 33 59  1  0
 33 60  1  0
 34 61  1  0
 34 62  1  0
 35 63  1  0
 35 64  1  0
 36 65  1  0
M  CHG  1  21  -1
M  END
>  <UniqueID>  (4) 
4

>  <SMILES>  (4) 
O=C(CNC(=O)c1ccc(S(=O)(=O)N2CCCC2)cc1)[N-]c1cccc(S(=O)(=O)N2CCCCC2)c1

>  <Energy>  (4) 
76.46388656616466

>  <Genealogy>  (4) 
O=C(CNC(=O)c1ccc(S(=O)(=O)N2CCCC2)cc1)[N-]c1cccc(S(=O)(=O)N2CCCCC2)c1 (protonated)
O=C(CNC(=O)c1ccc(S(=O)(=O)N2CCCC2)cc1)[N-]c1cccc(S(=O)(=O)N2CCCCC2)c1 (3D coordinates assigned)
O=C(CNC(=O)c1ccc(S(=O)(=O)N2CCCC2)cc1)[N-]c1cccc(S(=O)(=O)N2CCCCC2)c1 (nonaromatic ring conformer: 76.46388656616466 kcal/mol)

>  <smiles>  (4) 
O=C(CNC(=O)c1ccc(S(=O)(=O)N2CCCC2)cc1)Nc1cccc(S(=O)(=O)N2CCCCC2)c1

>  <score_type>  (4) 
oracle

>  <origin>  (4) 
adg

>  <m_score__min__energy>  (4) 
-12.58

>  <m_primary>  (4) 
energy

$$$$
4:0
     RDKit          3D

 42 44  0  0  0  0  0  0  0  0999 V2000
   57.9160   33.7230   47.2890 N   0  0  0  0  0  0  0  0  0  0  0  0
   58.4950   33.7180   45.6610 S   0  0  0  0  0  0  0  0  0  0  0  0
   57.8830   34.8670   44.9090 O   0  0  0  0  0  0  0  0  0  0  0  0
   59.9880   33.8810   45.6570 O   0  0  0  0  0  0  0  0  0  0  0  0
   58.0540   32.1990   44.8850 C   0  0  0  0  0  0  0  0  0  0  0  0
   57.3940   32.2070   43.6510 C   0  0  0  0  0  0  0  0  0  0  0  0
   57.0390   31.0050   43.0380 C   0  0  0  0  0  0  0  0  0  0  0  0
   57.3300   29.7870   43.6570 C   0  0  0  0  0  0  0  0  0  0  0  0
   57.9760   29.7600   44.9070 C   0  0  0  0  0  0  0  0  0  0  0  0
   58.2920   28.4750   45.5780 C   0  0  0  0  0  0  0  0  0  0  0  0
   59.1760   28.4500   46.4790 O   0  0  0  0  0  0  0  0  0  0  0  0
   57.6010   27.2660   45.2300 N   0  0  0  0  0  0  0  0  0  0  0  0
   58.0290   25.9710   45.7550 C   0  0  0  0  0  0  0  0  0  0  0  0
   56.8660   25.0340   45.8640 C   0  0  0  0  0  0  0  0  0  0  0  0
   56.9730   23.3600   45.9760 S   0  0  0  0  0  0  0  0  0  0  0  0
   55.3060   23.1630   46.1690 C   0  0  0  0  0  0  0  0  0  0  0  0
   54.6270   21.9000   46.3250 N   0  0  0  0  0  0  0  0  0  0  0  0
   55.2740   20.6560   45.8890 C   0  0  0  0  0  0  0  0  0  0  0  0
   54.6680   19.4520   46.6160 C   0  0  0  0  0  0  0  0  0  0  0  0
   53.2570   19.4660   46.5240 O   0  0  0  0  0  0  0  0  0  0  0  0
   52.7510   20.5800   47.2310 C   0  0  0  0  0  0  0  0  0  0  0  0
   53.1780   21.8900   46.5610 C   0  0  0  0  0  0  0  0  0  0  0  0
   54.6640   24.3550   46.1650 N   0  0  0  0  0  0  0  0  0  0  0  0
   55.5290   25.3910   46.0060 C   0  0  0  0  0  0  0  0  0  0  0  0
   55.0930   26.7100   45.9950 O   0  0  0  0  0  0  0  0  0  0  0  0
   58.3410   30.9770   45.5100 C   0  0  0  0  0  0  0  0  0  0  0  0
   56.9810   34.1880   47.2790 H   0  0  0  0  0  0  0  0  0  0  0  0
   57.1545   33.1634   43.1631 H   0  0  0  0  0  0  0  0  0  0  0  0
   56.5282   31.0165   42.0639 H   0  0  0  0  0  0  0  0  0  0  0  0
   57.0526   28.8434   43.1645 H   0  0  0  0  0  0  0  0  0  0  0  0
   56.7450   27.3180   44.6320 H   0  0  0  0  0  0  0  0  0  0  0  0
   58.7800   25.5373   45.0784 H   0  0  0  0  0  0  0  0  0  0  0  0
   58.4587   26.1197   46.7566 H   0  0  0  0  0  0  0  0  0  0  0  0
   55.1305   20.5341   44.8052 H   0  0  0  0  0  0  0  0  0  0  0  0
   56.3467   20.7113   46.1260 H   0  0  0  0  0  0  0  0  0  0  0  0
   55.0496   18.5264   46.1603 H   0  0  0  0  0  0  0  0  0  0  0  0
   54.9519   19.5025   47.6775 H   0  0  0  0  0  0  0  0  0  0  0  0
   51.6525   20.5262   47.2502 H   0  0  0  0  0  0  0  0  0  0  0  0
   53.1535   20.5602   48.2545 H   0  0  0  0  0  0  0  0  0  0  0  0
   52.6541   21.9919   45.5991 H   0  0  0  0  0  0  0  0  0  0  0  0
   52.9205   22.7287   47.2246 H   0  0  0  0  0  0  0  0  0  0  0  0
   58.8567   30.9702   46.4816 H   0  0  0  0  0  0  0  0  0  0  0  0
  1  2  1  0
  2  3  2  0
  2  4  2  0
  2  5  1  0
  5  6  2  0
  6  7  1  0
  7  8  2  0
  8  9  1  0
  9 10  1  0
 10 11  2  0
 10 12  1  0
 12 13  1  0
 13 14  1  0
 14 15  1  0
 15 16  1  0
 16 17  1  0
 17 18  1  0
 18 19  1  0
 19 20  1  0
 20 21  1  0
 21 22  1  0
 16 23  2  0
 23 24  1  0
 24 25  1  0
  9 26  2  0
 26  5  1  0
 24 14  2  0
 22 17  1  0
  1 27  1  0
  6 28  1  0
  7 29  1  0
  8 30  1  0
 12 31  1  0
 13 32  1  0
 13 33  1  0
 18 34  1  0
 18 35  1  0
 19 36  1  0
 19 37  1  0
 21 38  1  0
 21 39  1  0
 22 40  1  0
 22 41  1  0
 26 42  1  0
M  CHG  2   1  -1  25  -1
M  END
>  <UniqueID>  (5) 
5

>  <SMILES>  (5) 
[NH-]S(=O)(=O)c1cccc(C(=O)NCc2sc(N3CCOCC3)nc2[O-])c1

>  <Energy>  (5) 
74.84242118387054

>  <Genealogy>  (5) 
[NH-]S(=O)(=O)c1cccc(C(=O)NCc2sc(N3CCOCC3)nc2[O-])c1 (protonated)
[NH-]S(=O)(=O)c1cccc(C(=O)NCc2sc(N3CCOCC3)nc2[O-])c1 (3D coordinates assigned)
[NH-]S(=O)(=O)c1cccc(C(=O)NCc2sc(N3CCOCC3)nc2[O-])c1 (nonaromatic ring conformer: 74.84242118387054 kcal/mol)

>  <smiles>  (5) 
NS(=O)(=O)c1cccc(C(=O)NCc2sc(N3CCOCC3)nc2O)c1

>  <score_type>  (5) 
oracle

>  <origin>  (5) 
adg

>  <m_score__min__energy>  (5) 
-12.220000000000001

>  <m_primary>  (5) 
energy

$$$$
5:0
     RDKit          3D

 57 59  0  0  0  0  0  0  0  0999 V2000
   57.7860   32.2810   42.7730 C   0  0  0  0  0  0  0  0  0  0  0  0
   57.3780   31.9540   44.1880 C   0  0  0  0  0  0  0  0  0  0  0  0
   56.4030   31.1280   44.4580 N   0  0  0  0  0  0  0  0  0  0  0  0
   55.7890   30.1250   43.5860 C   0  0  0  0  0  0  0  0  0  0  0  0
   56.8430   29.1810   42.9830 C   0  0  0  0  0  0  0  0  0  0  0  0
   57.9740   28.9980   43.8880 N   0  0  0  0  0  0  0  0  0  0  0  0
   57.7990   28.7310   45.2870 C   0  0  0  0  0  0  0  0  0  0  0  0
   56.6500   28.4990   45.7500 O   0  0  0  0  0  0  0  0  0  0  0  0
   58.9710   28.7760   46.2180 C   0  0  0  0  0  0  0  0  0  0  0  0
   60.1470   28.0950   45.5940 C   0  0  0  0  0  0  0  0  0  0  0  0
   60.7780   28.6570   44.6590 O   0  0  0  0  0  0  0  0  0  0  0  0
   60.5530   26.8060   46.0730 N   0  0  0  0  0  0  0  0  0  0  0  0
   59.7650   26.0010   46.9980 C   0  0  0  0  0  0  0  0  0  0  0  0
   58.7430   25.1800   46.2580 C   0  0  0  0  0  0  0  0  0  0  0  0
   57.4040   25.5950   46.1970 C   0  0  0  0  0  0  0  0  0  0  0  0
   56.4520   24.8120   45.5380 C   0  0  0  0  0  0  0  0  0  0  0  0
   56.8250   23.6050   44.9320 C   0  0  0  0  0  0  0  0  0  0  0  0
   55.6020   22.6090   44.1460 S   0  0  0  0  0  0  0  0  0  0  0  0
   54.0300   23.2440   44.4650 N   0  0  0  0  0  0  0  0  0  0  0  0
   55.6880   21.2050   44.6780 O   0  0  0  0  0  0  0  0  0  0  0  0
   55.8330   22.5810   42.6610 O   0  0  0  0  0  0  0  0  0  0  0  0
   58.1680   23.2010   44.9650 C   0  0  0  0  0  0  0  0  0  0  0  0
   59.1200   23.9810   45.6290 C   0  0  0  0  0  0  0  0  0  0  0  0
   58.0640   32.6260   45.3220 C   0  0  0  0  0  0  0  0  0  0  0  0
   58.6670   33.8850   45.1360 C   0  0  0  0  0  0  0  0  0  0  0  0
   59.3030   34.5360   46.1960 C   0  0  0  0  0  0  0  0  0  0  0  0
   59.3570   33.9390   47.4620 C   0  0  0  0  0  0  0  0  0  0  0  0
   59.9890   34.5880   48.5340 C   0  0  0  0  0  0  0  0  0  0  0  0
   60.0600   33.9680   49.7860 C   0  0  0  0  0  0  0  0  0  0  0  0
   59.5000   32.7030   49.9760 C   0  0  0  0  0  0  0  0  0  0  0  0
   58.8570   32.0530   48.9200 C   0  0  0  0  0  0  0  0  0  0  0  0
   58.7780   32.6620   47.6590 C   0  0  0  0  0  0  0  0  0  0  0  0
   58.1360   32.0180   46.5910 C   0  0  0  0  0  0  0  0  0  0  0  0
   58.6443   32.9689   42.7885 H   0  0  0  0  0  0  0  0  0  0  0  0
   58.0673   31.3555   42.2493 H   0  0  0  0  0  0  0  0  0  0  0  0
   56.9439   32.7571   42.2493 H   0  0  0  0  0  0  0  0  0  0  0  0
   55.0721   29.5320   44.1728 H   0  0  0  0  0  0  0  0  0  0  0  0
   55.2824   30.6482   42.7616 H   0  0  0  0  0  0  0  0  0  0  0  0
   56.3783   28.2031   42.7886 H   0  0  0  0  0  0  0  0  0  0  0  0
   57.2152   29.6286   42.0497 H   0  0  0  0  0  0  0  0  0  0  0  0
   58.9390   29.0070   43.4890 H   0  0  0  0  0  0  0  0  0  0  0  0
   59.2276   29.8244   46.4301 H   0  0  0  0  0  0  0  0  0  0  0  0
   58.7091   28.2592   47.1531 H   0  0  0  0  0  0  0  0  0  0  0  0
   60.4360   25.3276   47.5513 H   0  0  0  0  0  0  0  0  0  0  0  0
   59.2401   26.6746   47.6914 H   0  0  0  0  0  0  0  0  0  0  0  0
   57.1021   26.5411   46.6701 H   0  0  0  0  0  0  0  0  0  0  0  0
   55.4045   25.1451   45.4949 H   0  0  0  0  0  0  0  0  0  0  0  0
   53.4220   22.9740   43.6590 H   0  0  0  0  0  0  0  0  0  0  0  0
   58.4729   22.2686   44.4674 H   0  0  0  0  0  0  0  0  0  0  0  0
   60.1699   23.6543   45.6592 H   0  0  0  0  0  0  0  0  0  0  0  0
   58.6369   34.3612   44.1449 H   0  0  0  0  0  0  0  0  0  0  0  0
   59.7635   35.5220   46.0356 H   0  0  0  0  0  0  0  0  0  0  0  0
   60.4292   35.5857   48.3895 H   0  0  0  0  0  0  0  0  0  0  0  0
   60.5584   34.4785   50.6233 H   0  0  0  0  0  0  0  0  0  0  0  0
   59.5654   32.2168   50.9605 H   0  0  0  0  0  0  0  0  0  0  0  0
   58.4110   31.0600   49.0779 H   0  0  0  0  0  0  0  0  0  0  0  0
   57.6837   31.0273   46.7459 H   0  0  0  0  0  0  0  0  0  0  0  0
  1  2  1  0
  2  3  2  3
  3  4  1  0
  4  5  1  0
  5  6  1  0
  6  7  1  0
  7  8  2  0
  7  9  1  0
  9 10  1  0
 10 11  2  0
 10 12  1  0
 12 13  1  0
 13 14  1  0
 14 15  2  0
 15 16  1  0
 16 17  2  0
 17 18  1  0
 18 19  1  0
 18 20  2  0
 18 21  2  0
 17 22  1  0
 22 23  2  0
  2 24  1  0
 24 25  2  0
 25 26  1  0
 26 27  2  0
 27 28  1  0
 28 29  2  0
 29 30  1  0
 30 31  2  0
 31 32  1  0
 32 33  2  0
 23 14  1  0
 33 24  1  0
 32 27  1  0
  1 34  1  0
  1 35  1  0
  1 36  1  0
  4 37  1  0
  4 38  1  0
  5 39  1  0
  5 40  1  0
  6 41  1  0
  9 42  1  0
  9 43  1  0
 13 44  1  0
 13 45  1  0
 15 46  1  0
 16 47  1  0
 19 48  1  0
 22 49  1  0
 23 50  1  0
 25 51  1  0
 26 52  1  0
 28 53  1  0
 29 54  1  0
 30 55  1  0
 31 56  1  0
 33 57  1  0
M  CHG  2  12  -1  19  -1
M  END
>  <UniqueID>  (6) 
6

>  <SMILES>  (6) 
CC(=NCCNC(=O)CC(=O)[N-]Cc1ccc(S([NH-])(=O)=O)cc1)c1ccc2ccccc2c1

>  <Energy>  (6) 
50.714110017241765

>  <Genealogy>  (6) 
CC(=NCCNC(=O)CC(=O)[N-]Cc1ccc(S([NH-])(=O)=O)cc1)c1ccc2ccccc2c1 (protonated)
CC(=NCCNC(=O)CC(=O)[N-]Cc1ccc(S([NH-])(=O)=O)cc1)c1ccc2ccccc2c1 (3D coordinates assigned)
CC(=NCCNC(=O)CC(=O)[N-]Cc1ccc(S([NH-])(=O)=O)cc1)c1ccc2ccccc2c1 (optimized conformer: 50.714110017241765 kcal/mol)

>  <smiles>  (6) 
CC(=NCCNC(=O)CC(=O)NCc1ccc(S(N)(=O)=O)cc1)c1ccc2ccccc2c1

>  <score_type>  (6) 
oracle

>  <origin>  (6) 
adg

>  <m_score__min__energy>  (6) 
-12.460000000000001

>  <m_primary>  (6) 
energy

$$$$
6:0
     RDKit          3D

 29 30  0  0  0  0  0  0  0  0999 V2000
   57.7310   33.8020   45.1210 C   0  0  0  0  0  0  0  0  0  0  0  0
   58.0230   32.5860   44.6560 C   0  0  0  0  0  0  0  0  0  0  0  0
   57.0200   31.4680   44.7360 C   0  0  0  0  0  0  0  0  0  0  0  0
   57.6600   30.2020   45.2570 C   0  0  0  0  0  0  0  0  0  0  0  0
   58.9970   30.2470   45.6860 C   0  0  0  0  0  0  0  0  0  0  0  0
   59.6210   29.1040   46.1820 C   0  0  0  0  0  0  0  0  0  0  0  0
   58.9300   27.8970   46.2400 C   0  0  0  0  0  0  0  0  0  0  0  0
   57.6020   27.8110   45.7900 C   0  0  0  0  0  0  0  0  0  0  0  0
   56.9100   26.5020   45.8410 C   0  0  0  0  0  0  0  0  0  0  0  0
   57.5350   25.3830   45.7010 N   0  0  0  0  0  0  0  0  0  0  0  0
   56.5910   24.2750   45.7670 C   0  0  0  0  0  0  0  0  0  0  0  0
   55.2120   24.9330   45.9310 C   0  0  0  0  0  0  0  0  0  0  0  0
   55.5100   26.3500   45.9910 N   0  0  0  0  0  0  0  0  0  0  0  0
   56.9550   28.9720   45.3070 C   0  0  0  0  0  0  0  0  0  0  0  0
   55.6190   28.8860   44.9040 O   0  0  0  0  0  0  0  0  0  0  0  0
   58.4752   34.6093   45.0553 H   0  0  0  0  0  0  0  0  0  0  0  0
   56.7460   33.9972   45.5701 H   0  0  0  0  0  0  0  0  0  0  0  0
   59.0101   32.3987   44.2083 H   0  0  0  0  0  0  0  0  0  0  0  0
   56.2049   31.7638   45.4129 H   0  0  0  0  0  0  0  0  0  0  0  0
   56.6308   31.2736   43.7257 H   0  0  0  0  0  0  0  0  0  0  0  0
   59.5561   31.1926   45.6299 H   0  0  0  0  0  0  0  0  0  0  0  0
   60.6635   29.1557   46.5290 H   0  0  0  0  0  0  0  0  0  0  0  0
   59.4283   27.0025   46.6418 H   0  0  0  0  0  0  0  0  0  0  0  0
   56.6278   23.6808   44.8420 H   0  0  0  0  0  0  0  0  0  0  0  0
   56.8203   23.5870   46.5941 H   0  0  0  0  0  0  0  0  0  0  0  0
   54.5643   24.7048   45.0717 H   0  0  0  0  0  0  0  0  0  0  0  0
   54.6723   24.5738   46.8196 H   0  0  0  0  0  0  0  0  0  0  0  0
   54.7960   27.1120   45.9740 H   0  0  0  0  0  0  0  0  0  0  0  0
   55.0960   28.0210   44.8720 H   0  0  0  0  0  0  0  0  0  0  0  0
  1  2  2  0
  2  3  1  0
  3  4  1  0
  4  5  2  0
  5  6  1  0
  6  7  2  0
  7  8  1  0
  8  9  1  0
  9 10  2  0
 10 11  1  0
 11 12  1  0
 12 13  1  0
  8 14  2  0
 14 15  1  0
 14  4  1  0
 13  9  1  0
  1 16  1  0
  1 17  1  0
  2 18  1  0
  3 19  1  0
  3 20  1  0
  5 21  1  0
  6 22  1  0
  7 23  1  0
 11 24  1  0
 11 25  1  0
 12 26  1  0
 12 27  1  0
 13 28  1  0
 15 29  1  0
M  END
>  <UniqueID>  (7) 
7

>  <SMILES>  (7) 
C=CCc1cccc(C2=NCCN2)c1O

>  <Energy>  (7) 
42.63007669749375

>  <Genealogy>  (7) 
C=CCc1cccc(C2=NCCN2)c1O (3D coordinates assigned)
C=CCc1cccc(C2=NCCN2)c1O (nonaromatic ring conformer: 42.63007669749375 kcal/mol)

>  <smiles>  (7) 
C=CCc1cccc(C2=NCCN2)c1O

>  <score_type>  (7) 
oracle

>  <origin>  (7) 
adg

>  <m_score__min__energy>  (7) 
-7.0999999999999996

>  <m_primary>  (7) 
energy

$$$$
7:0
     RDKit          3D

 50 53  0  0  0  0  0  0  0  0999 V2000
   55.8240   28.2040   45.2570 O   0  0  0  0  0  0  0  0  0  0  0  0
   56.9410   28.6660   45.6100 C   0  0  0  0  0  0  0  0  0  0  0  0
   58.0250   27.6830   46.0030 C   0  0  0  0  0  0  0  0  0  0  0  0
   57.5560   26.3890   46.7000 C   0  0  0  0  0  0  0  0  0  0  0  0
   57.0410   25.2610   45.8120 C   0  0  0  0  0  0  0  0  0  0  0  0
   57.8960   24.2340   45.3490 C   0  0  0  0  0  0  0  0  0  0  0  0
   57.4100   23.2160   44.5200 C   0  0  0  0  0  0  0  0  0  0  0  0
   56.0610   23.1790   44.1710 C   0  0  0  0  0  0  0  0  0  0  0  0
   55.1900   24.1480   44.6640 C   0  0  0  0  0  0  0  0  0  0  0  0
   55.6580   25.1800   45.4940 C   0  0  0  0  0  0  0  0  0  0  0  0
   54.7150   26.0870   45.9830 O   0  0  0  0  0  0  0  0  0  0  0  0
   57.0960   30.0910   45.6710 N   0  0  0  0  0  0  0  0  0  0  0  0
   57.4460   30.9800   44.6000 C   0  0  0  0  0  0  0  0  0  0  0  0
   57.1180   30.6640   43.2680 C   0  0  0  0  0  0  0  0  0  0  0  0
   57.4550   31.5460   42.2360 C   0  0  0  0  0  0  0  0  0  0  0  0
   58.0960   32.7520   42.5230 C   0  0  0  0  0  0  0  0  0  0  0  0
   58.3900   33.0930   43.8450 C   0  0  0  0  0  0  0  0  0  0  0  0
   58.0490   32.2210   44.8950 C   0  0  0  0  0  0  0  0  0  0  0  0
   58.3440   32.6170   46.2920 C   0  0  0  0  0  0  0  0  0  0  0  0
   57.5780   33.4270   46.8760 O   0  0  0  0  0  0  0  0  0  0  0  0
   59.4560   32.0570   47.0200 N   0  0  0  0  0  0  0  0  0  0  0  0
   59.3400   30.8740   47.8720 C   0  0  0  0  0  0  0  0  0  0  0  0
   60.7860   30.5020   48.2850 C   0  0  0  0  0  0  0  0  0  0  0  0
   61.5990   31.6070   47.7100 C   0  0  0  0  0  0  0  0  0  0  0  0
   62.9720   31.8180   47.8540 C   0  0  0  0  0  0  0  0  0  0  0  0
   63.5390   32.9520   47.2520 C   0  0  0  0  0  0  0  0  0  0  0  0
   62.7320   33.8570   46.5370 C   0  0  0  0  0  0  0  0  0  0  0  0
   61.3490   33.6320   46.4200 C   0  0  0  0  0  0  0  0  0  0  0  0
   60.8140   32.4730   46.9960 C   0  0  0  0  0  0  0  0  0  0  0  0
   58.5631   27.3944   45.0880 H   0  0  0  0  0  0  0  0  0  0  0  0
   58.6417   28.2091   46.7466 H   0  0  0  0  0  0  0  0  0  0  0  0
   58.4085   25.9951   47.2728 H   0  0  0  0  0  0  0  0  0  0  0  0
   56.6868   26.6926   47.3019 H   0  0  0  0  0  0  0  0  0  0  0  0
   58.9557   24.2351   45.6439 H   0  0  0  0  0  0  0  0  0  0  0  0
   58.0951   22.4425   44.1427 H   0  0  0  0  0  0  0  0  0  0  0  0
   55.6849   22.3862   43.5076 H   0  0  0  0  0  0  0  0  0  0  0  0
   54.1230   24.1044   44.4001 H   0  0  0  0  0  0  0  0  0  0  0  0
   54.7880   27.0960   45.8880 H   0  0  0  0  0  0  0  0  0  0  0  0
   56.5965   29.7231   43.0386 H   0  0  0  0  0  0  0  0  0  0  0  0
   57.2139   31.2881   41.1942 H   0  0  0  0  0  0  0  0  0  0  0  0
   58.3703   33.4356   41.7060 H   0  0  0  0  0  0  0  0  0  0  0  0
   58.8903   34.0474   44.0662 H   0  0  0  0  0  0  0  0  0  0  0  0
   58.7349   31.1017   48.7619 H   0  0  0  0  0  0  0  0  0  0  0  0
   58.8455   30.0447   47.3450 H   0  0  0  0  0  0  0  0  0  0  0  0
   60.8867   30.4667   49.3798 H   0  0  0  0  0  0  0  0  0  0  0  0
   61.0945   29.5085   47.9275 H   0  0  0  0  0  0  0  0  0  0  0  0
   63.5937   31.1128   48.4251 H   0  0  0  0  0  0  0  0  0  0  0  0
   64.6202   33.1346   47.3394 H   0  0  0  0  0  0  0  0  0  0  0  0
   63.1848   34.7431   46.0683 H   0  0  0  0  0  0  0  0  0  0  0  0
   60.7038   34.3479   45.8897 H   0  0  0  0  0  0  0  0  0  0  0  0
  1  2  2  0
  2  3  1  0
  3  4  1  0
  4  5  1  0
  5  6  2  0
  6  7  1  0
  7  8  2  0
  8  9  1  0
  9 10  2  0
 10 11  1  0
  2 12  1  0
 12 13  1  0
 13 14  2  0
 14 15  1  0
 15 16  2  0
 16 17  1  0
 17 18  2  0
 18 19  1  0
 19 20  2  0
 19 21  1  0
 21 22  1  0
 22 23  1  0
 23 24  1  0
 24 25  2  0
 25 26  1  0
 26 27  2  0
 27 28  1  0
 28 29  2  0
 10  5  1  0
 18 13  1  0
 29 21  1  0
 29 24  1  0
  3 30  1  0
  3 31  1  0
  4 32  1  0
  4 33  1  0
  6 34  1  0
  7 35  1  0
  8 36  1  0
  9 37  1  0
 11 38  1  0
 14 39  1  0
 15 40  1  0
 16 41  1  0
 17 42  1  0
 22 43  1  0
 22 44  1  0
 23 45  1  0
 23 46  1  0
 25 47  1  0
 26 48  1  0
 27 49  1  0
 28 50  1  0
M  CHG  1  12  -1
M  END
>  <UniqueID>  (8) 
8

>  <SMILES>  (8) 
O=C(CCc1ccccc1O)[N-]c1ccccc1C(=O)N1CCc2ccccc21

>  <Energy>  (8) 
84.54981109986483

>  <Genealogy>  (8) 
O=C(CCc1ccccc1O)[N-]c1ccccc1C(=O)N1CCc2ccccc21 (protonated)
O=C(CCc1ccccc1O)[N-]c1ccccc1C(=O)N1CCc2ccccc21 (3D coordinates assigned)
O=C(CCc1ccccc1O)[N-]c1ccccc1C(=O)N1CCc2ccccc21 (nonaromatic ring conformer: 84.54981109986483 kcal/mol)

>  <smiles>  (8) 
O=C(CCc1ccccc1O)Nc1ccccc1C(=O)N1CCc2ccccc21

>  <score_type>  (8) 
oracle

>  <origin>  (8) 
adg

>  <m_score__min__energy>  (8) 
-12.19

>  <m_primary>  (8) 
energy

$$$$
8:0
     RDKit          3D

 56 59  0  0  0  0  0  0  0  0999 V2000
   55.1530   26.7060   46.0000 O   0  0  0  0  0  0  0  0  0  0  0  0
   55.5930   25.5310   45.8640 C   0  0  0  0  0  0  0  0  0  0  0  0
   56.8710   25.2880   45.1250 C   0  0  0  0  0  0  0  0  0  0  0  0
   57.9800   25.2000   46.0680 N   0  0  0  0  0  0  0  0  0  0  0  0
   59.0040   26.1930   46.2190 C   0  0  0  0  0  0  0  0  0  0  0  0
   60.1540   25.8260   46.5790 O   0  0  0  0  0  0  0  0  0  0  0  0
   58.7590   27.6250   45.9590 C   0  0  0  0  0  0  0  0  0  0  0  0
   58.5290   28.5020   47.0310 C   0  0  0  0  0  0  0  0  0  0  0  0
   58.3520   29.8690   46.8000 C   0  0  0  0  0  0  0  0  0  0  0  0
   58.4200   30.3780   45.4960 C   0  0  0  0  0  0  0  0  0  0  0  0
   58.2410   32.1120   45.2120 S   0  0  0  0  0  0  0  0  0  0  0  0
   58.4900   32.4050   43.7570 O   0  0  0  0  0  0  0  0  0  0  0  0
   56.8300   32.5230   45.5330 O   0  0  0  0  0  0  0  0  0  0  0  0
   59.3510   33.0400   46.1930 N   0  0  0  0  0  0  0  0  0  0  0  0
   58.7000   33.4320   47.4520 C   0  0  0  0  0  0  0  0  0  0  0  0
   59.5880   34.4320   48.1960 C   0  0  0  0  0  0  0  0  0  0  0  0
   61.0140   33.9510   48.2860 C   0  0  0  0  0  0  0  0  0  0  0  0
   61.8920   34.5570   49.2000 C   0  0  0  0  0  0  0  0  0  0  0  0
   63.2300   34.1610   49.2610 C   0  0  0  0  0  0  0  0  0  0  0  0
   63.7070   33.1680   48.4020 C   0  0  0  0  0  0  0  0  0  0  0  0
   62.8460   32.5650   47.4820 C   0  0  0  0  0  0  0  0  0  0  0  0
   61.5010   32.9620   47.4040 C   0  0  0  0  0  0  0  0  0  0  0  0
   60.5630   32.2410   46.4670 C   0  0  0  0  0  0  0  0  0  0  0  0
   58.6650   29.5080   44.4260 C   0  0  0  0  0  0  0  0  0  0  0  0
   58.8430   28.1420   44.6570 C   0  0  0  0  0  0  0  0  0  0  0  0
   54.8590   24.4180   46.3840 N   0  0  0  0  0  0  0  0  0  0  0  0
   54.2740   23.3730   45.5490 C   0  0  0  0  0  0  0  0  0  0  0  0
   55.3360   22.6940   44.7290 C   0  0  0  0  0  0  0  0  0  0  0  0
   56.1480   21.6950   45.2960 C   0  0  0  0  0  0  0  0  0  0  0  0
   57.1370   21.0720   44.5280 C   0  0  0  0  0  0  0  0  0  0  0  0
   57.3190   21.4360   43.1910 C   0  0  0  0  0  0  0  0  0  0  0  0
   56.5080   22.4210   42.6170 C   0  0  0  0  0  0  0  0  0  0  0  0
   55.5180   23.0470   43.3810 C   0  0  0  0  0  0  0  0  0  0  0  0
   56.7941   24.3454   44.5633 H   0  0  0  0  0  0  0  0  0  0  0  0
   57.0517   26.1211   44.4298 H   0  0  0  0  0  0  0  0  0  0  0  0
   58.4879   28.1111   48.0584 H   0  0  0  0  0  0  0  0  0  0  0  0
   58.1588   30.5473   47.6441 H   0  0  0  0  0  0  0  0  0  0  0  0
   57.7278   33.8975   47.2326 H   0  0  0  0  0  0  0  0  0  0  0  0
   58.5470   32.5409   48.0785 H   0  0  0  0  0  0  0  0  0  0  0  0
   59.5689   35.3929   47.6609 H   0  0  0  0  0  0  0  0  0  0  0  0
   59.1980   34.5428   49.2185 H   0  0  0  0  0  0  0  0  0  0  0  0
   61.5239   35.3472   49.8709 H   0  0  0  0  0  0  0  0  0  0  0  0
   63.9094   34.6319   49.9867 H   0  0  0  0  0  0  0  0  0  0  0  0
   64.7620   32.8605   48.4501 H   0  0  0  0  0  0  0  0  0  0  0  0
   63.2232   31.7754   46.8154 H   0  0  0  0  0  0  0  0  0  0  0  0
   61.0849   32.0467   45.5184 H   0  0  0  0  0  0  0  0  0  0  0  0
   60.2547   31.2993   46.9446 H   0  0  0  0  0  0  0  0  0  0  0  0
   58.7174   29.9018   43.4003 H   0  0  0  0  0  0  0  0  0  0  0  0
   59.0503   27.4674   43.8133 H   0  0  0  0  0  0  0  0  0  0  0  0
   53.7832   22.6283   46.1928 H   0  0  0  0  0  0  0  0  0  0  0  0
   53.5403   23.8313   44.8695 H   0  0  0  0  0  0  0  0  0  0  0  0
   56.0046   21.4029   46.3468 H   0  0  0  0  0  0  0  0  0  0  0  0
   57.7725   20.2944   44.9769 H   0  0  0  0  0  0  0  0  0  0  0  0
   58.1002   20.9479   42.5897 H   0  0  0  0  0  0  0  0  0  0  0  0
   56.6493   22.7034   41.5633 H   0  0  0  0  0  0  0  0  0  0  0  0
   54.8796   23.8183   42.9253 H   0  0  0  0  0  0  0  0  0  0  0  0
  1  2  2  0
  2  3  1  0
  3  4  1  0
  4  5  1  0
  5  6  2  0
  5  7  1  0
  7  8  2  0
  8  9  1  0
  9 10  2  0
 10 11  1  0
 11 12  2  0
 11 13  2  0
 11 14  1  0
 14 15  1  0
 15 16  1  0
 16 17  1  0
 17 18  2  0
 18 19  1  0
 19 20  2  0
 20 21  1  0
 21 22  2  0
 22 23  1  0
 10 24  1  0
 24 25  2  0
  2 26  1  0
 26 27  1  0
 27 28  1  0
 28 29  2  0
 29 30  1  0
 30 31  2  0
 31 32  1  0
 32 33  2  0
 25  7  1  0
 33 28  1  0
 23 14  1  0
 22 17  1  0
  3 34  1  0
  3 35  1  0
  8 36  1  0
  9 37  1  0
 15 38  1  0
 15 39  1  0
 16 40  1  0
 16 41  1  0
 18 42  1  0
 19 43  1  0
 20 44  1  0
 21 45  1  0
 23 46  1  0
 23 47  1  0
 24 48  1  0
 25 49  1  0
 27 50  1  0
 27 51  1  0
 29 52  1  0
 30 53  1  0
 31 54  1  0
 32 55  1  0
 33 56  1  0
M  CHG  2   4  -1  26  -1
M  END
>  <UniqueID>  (9) 
9

>  <SMILES>  (9) 
O=C(C[N-]C(=O)c1ccc(S(=O)(=O)N2CCc3ccccc3C2)cc1)[N-]Cc1ccccc1

>  <Energy>  (9) 
61.5863984597156

>  <Genealogy>  (9) 
O=C(C[N-]C(=O)c1ccc(S(=O)(=O)N2CCc3ccccc3C2)cc1)[N-]Cc1ccccc1 (protonated)
O=C(C[N-]C(=O)c1ccc(S(=O)(=O)N2CCc3ccccc3C2)cc1)[N-]Cc1ccccc1 (3D coordinates assigned)
O=C(C[N-]C(=O)c1ccc(S(=O)(=O)N2CCc3ccccc3C2)cc1)[N-]Cc1ccccc1 (nonaromatic ring conformer: 61.5863984597156 kcal/mol)

>  <smiles>  (9) 
O=C(CNC(=O)c1ccc(S(=O)(=O)N2CCc3ccccc3C2)cc1)NCc1ccccc1

>  <score_type>  (9) 
oracle

>  <origin>  (9) 
adg

>  <m_score__min__energy>  (9) 
-15.119999999999999

>  <m_primary>  (9) 
energy

$$$$
9:0
     RDKit          3D

 65 68  0  0  0  0  0  0  0  0999 V2000
   55.8240   25.5580   46.6060 O   0  0  0  0  0  0  0  0  0  0  0  0
   56.9730   25.9570   46.2740 C   0  0  0  0  0  0  0  0  0  0  0  0
   57.4550   25.7510   44.8710 C   0  0  0  0  0  0  0  0  0  0  0  0
   57.3960   24.2930   44.5030 C   0  0  0  0  0  0  0  0  0  0  0  0
   58.2140   23.3610   45.1650 C   0  0  0  0  0  0  0  0  0  0  0  0
   58.1830   22.0110   44.7970 C   0  0  0  0  0  0  0  0  0  0  0  0
   57.3470   21.5880   43.7600 C   0  0  0  0  0  0  0  0  0  0  0  0
   56.5460   22.5120   43.0830 C   0  0  0  0  0  0  0  0  0  0  0  0
   56.5700   23.8610   43.4500 C   0  0  0  0  0  0  0  0  0  0  0  0
   57.8060   26.6270   47.2220 N   0  0  0  0  0  0  0  0  0  0  0  0
   58.1820   28.0350   47.0990 C   0  0  1  0  0  0  0  0  0  0  0  0
   59.1340   28.4040   48.2120 C   0  0  0  0  0  0  0  0  0  0  0  0
   59.8520   29.5450   48.2690 C   0  0  0  0  0  0  0  0  0  0  0  0
   61.0270   29.7230   49.2050 C   0  0  0  0  0  0  0  0  0  0  0  0
   61.7470   31.0290   48.9650 C   0  0  0  0  0  0  0  0  0  0  0  0
   61.7280   32.0430   49.9410 C   0  0  0  0  0  0  0  0  0  0  0  0
   62.3880   33.2550   49.7130 C   0  0  0  0  0  0  0  0  0  0  0  0
   63.0580   33.4720   48.5080 C   0  0  0  0  0  0  0  0  0  0  0  0
   63.0680   32.4800   47.5240 C   0  0  0  0  0  0  0  0  0  0  0  0
   62.4110   31.2670   47.7470 C   0  0  0  0  0  0  0  0  0  0  0  0
   59.5670   30.6160   47.3490 N   0  0  0  0  0  0  0  0  0  0  0  0
   58.8840   31.8280   47.7180 C   0  0  0  0  0  0  0  0  0  0  0  0
   58.4750   31.9860   48.9010 O   0  0  0  0  0  0  0  0  0  0  0  0
   58.6570   32.9090   46.7300 C   0  0  0  0  0  0  0  0  0  0  0  0
   59.6980   33.7780   46.3460 C   0  0  0  0  0  0  0  0  0  0  0  0
   59.4620   34.7940   45.4140 C   0  0  0  0  0  0  0  0  0  0  0  0
   58.1900   34.9590   44.8640 C   0  0  0  0  0  0  0  0  0  0  0  0
   57.1470   34.1130   45.2470 C   0  0  0  0  0  0  0  0  0  0  0  0
   57.3760   33.0960   46.1790 C   0  0  0  0  0  0  0  0  0  0  0  0
   58.8730   28.2700   45.7490 C   0  0  0  0  0  0  0  0  0  0  0  0
   58.0950   29.2350   44.8930 C   0  0  0  0  0  0  0  0  0  0  0  0
   56.7240   29.0290   44.6640 C   0  0  0  0  0  0  0  0  0  0  0  0
   56.0040   29.9180   43.8600 C   0  0  0  0  0  0  0  0  0  0  0  0
   56.6480   31.0120   43.2760 C   0  0  0  0  0  0  0  0  0  0  0  0
   58.0150   31.2140   43.4850 C   0  0  0  0  0  0  0  0  0  0  0  0
   58.7380   30.3290   44.2900 C   0  0  0  0  0  0  0  0  0  0  0  0
   56.8182   26.3246   44.1814 H   0  0  0  0  0  0  0  0  0  0  0  0
   58.4974   26.0946   44.7985 H   0  0  0  0  0  0  0  0  0  0  0  0
   58.8803   23.6936   45.9745 H   0  0  0  0  0  0  0  0  0  0  0  0
   58.8168   21.2827   45.3241 H   0  0  0  0  0  0  0  0  0  0  0  0
   57.3193   20.5257   43.4760 H   0  0  0  0  0  0  0  0  0  0  0  0
   55.8962   22.1776   42.2608 H   0  0  0  0  0  0  0  0  0  0  0  0
   55.9409   24.5865   42.9135 H   0  0  0  0  0  0  0  0  0  0  0  0
   57.2767   28.6565   47.1635 H   0  0  0  0  0  0  0  0  0  0  0  0
   59.2509   27.6882   49.0390 H   0  0  0  0  0  0  0  0  0  0  0  0
   60.6612   29.7042   50.2422 H   0  0  0  0  0  0  0  0  0  0  0  0
   61.7372   28.9037   49.0195 H   0  0  0  0  0  0  0  0  0  0  0  0
   61.1915   31.8815   50.8876 H   0  0  0  0  0  0  0  0  0  0  0  0
   62.3790   34.0386   50.4849 H   0  0  0  0  0  0  0  0  0  0  0  0
   63.5787   34.4250   48.3328 H   0  0  0  0  0  0  0  0  0  0  0  0
   63.5933   32.6540   46.5733 H   0  0  0  0  0  0  0  0  0  0  0  0
   62.4128   30.4930   46.9654 H   0  0  0  0  0  0  0  0  0  0  0  0
   59.9820   30.5470   46.3940 H   0  0  0  0  0  0  0  0  0  0  0  0
   60.7009   33.6567   46.7813 H   0  0  0  0  0  0  0  0  0  0  0  0
   60.2808   35.4644   45.1139 H   0  0  0  0  0  0  0  0  0  0  0  0
   58.0088   35.7562   44.1281 H   0  0  0  0  0  0  0  0  0  0  0  0
   56.1442   34.2468   44.8151 H   0  0  0  0  0  0  0  0  0  0  0  0
   56.5490   32.4377   46.4834 H   0  0  0  0  0  0  0  0  0  0  0  0
   59.8777   28.6804   45.9281 H   0  0  0  0  0  0  0  0  0  0  0  0
   58.9326   27.3080   45.2189 H   0  0  0  0  0  0  0  0  0  0  0  0
   56.2157   28.1659   45.1186 H   0  0  0  0  0  0  0  0  0  0  0  0
   54.9298   29.7561   43.6871 H   0  0  0  0  0  0  0  0  0  0  0  0
   56.0782   31.7152   42.6509 H   0  0  0  0  0  0  0  0  0  0  0  0
   58.5223   32.0699   43.0158 H   0  0  0  0  0  0  0  0  0  0  0  0
   59.8141   30.4897   44.4519 H   0  0  0  0  0  0  0  0  0  0  0  0
  1  2  2  0
  2  3  1  0
  3  4  1  0
  4  5  2  0
  5  6  1  0
  6  7  2  0
  7  8  1  0
  8  9  2  0
  2 10  1  0
 10 11  1  0
 11 12  1  0
 12 13  2  3
 13 14  1  0
 14 15  1  0
 15 16  2  0
 16 17  1  0
 17 18  2  0
 18 19  1  0
 19 20  2  0
 13 21  1  0
 21 22  1  0
 22 23  2  0
 22 24  1  0
 24 25  2  0
 25 26  1  0
 26 27  2  0
 27 28  1  0
 28 29  2  0
 11 30  1  0
 30 31  1  0
 31 32  2  0
 32 33  1  0
 33 34  2  0
 34 35  1  0
 35 36  2  0
  9  4  1  0
 20 15  1  0
 29 24  1  0
 36 31  1  0
  3 37  1  0
  3 38  1  0
  5 39  1  0
  6 40  1  0
  7 41  1  0
  8 42  1  0
  9 43  1  0
 11 44  1  6
 12 45  1  0
 14 46  1  0
 14 47  1  0
 16 48  1  0
 17 49  1  0
 18 50  1  0
 19 51  1  0
 20 52  1  0
 21 53  1  0
 25 54  1  0
 26 55  1  0
 27 56  1  0
 28 57  1  0
 29 58  1  0
 30 59  1  0
 30 60  1  0
 32 61  1  0
 33 62  1  0
 34 63  1  0
 35 64  1  0
 36 65  1  0
M  CHG  1  10  -1
M  END
>  <UniqueID>  (10) 
10

>  <SMILES>  (10) 
O=C(Cc1ccccc1)[N-][C@@H](C=C(Cc1ccccc1)NC(=O)c1ccccc1)Cc1ccccc1

>  <Energy>  (10) 
68.96188263085988

>  <Genealogy>  (10) 
O=C(Cc1ccccc1)[N-]C(C=C(Cc1ccccc1)NC(=O)c1ccccc1)Cc1ccccc1 (protonated)
O=C(Cc1ccccc1)[N-][C@@H](C=C(Cc1ccccc1)NC(=O)c1ccccc1)Cc1ccccc1 (chirality)
O=C(Cc1ccccc1)[N-][C@@H](C=C(Cc1ccccc1)NC(=O)c1ccccc1)Cc1ccccc1 (3D coordinates assigned)
O=C(Cc1ccccc1)[N-][C@@H](C=C(Cc1ccccc1)NC(=O)c1ccccc1)Cc1ccccc1 (optimized conformer: 68.96188263085988 kcal/mol)

>  <smiles>  (10) 
O=C(Cc1ccccc1)NC(C=C(Cc1ccccc1)NC(=O)c1ccccc1)Cc1ccccc1

>  <score_type>  (10) 
oracle

>  <origin>  (10) 
adg

>  <m_score__min__energy>  (10) 
-11.42

>  <m_primary>  (10) 
energy

$$$$
10:0
     RDKit          3D

 65 69  0  0  0  0  0  0  0  0999 V2000
   52.0780   31.1350   54.0330 H   0  0  0  0  0  0  0  0  0  0  0  0
   51.7870   31.9010   53.4380 O   0  0  0  0  0  0  0  0  0  0  0  0
   51.6110   31.7100   52.0720 C   0  0  0  0  0  0  0  0  0  0  0  0
   51.0140   32.6020   51.2620 N   0  0  0  0  0  0  0  0  0  0  0  0
   51.0660   31.9890   50.0620 C   0  0  0  0  0  0  0  0  0  0  0  0
   50.5990   32.5070   49.0140 O   0  0  0  0  0  0  0  0  0  0  0  0
   51.6540   30.7730   50.0710 N   0  0  0  0  0  0  0  0  0  0  0  0
   52.0100   30.6050   51.3580 C   0  0  0  0  0  0  0  0  0  0  0  0
   52.6550   29.4020   51.9300 C   0  0  0  0  0  0  0  0  0  0  0  0
   52.1155   28.4480   51.8364 H   0  0  0  0  0  0  0  0  0  0  0  0
   53.8520   29.3780   52.5580 C   0  0  0  0  0  0  0  0  0  0  0  0
   54.7990   30.3920   52.5900 C   0  0  0  0  0  0  0  0  0  0  0  0
   54.7287   31.3696   52.0906 H   0  0  0  0  0  0  0  0  0  0  0  0
   55.8460   29.9400   53.3680 C   0  0  0  0  0  0  0  0  0  0  0  0
   57.0910   30.7400   53.6490 C   0  0  0  0  0  0  0  0  0  0  0  0
   56.8909   31.8000   53.4337 H   0  0  0  0  0  0  0  0  0  0  0  0
   57.3605   30.5993   54.7062 H   0  0  0  0  0  0  0  0  0  0  0  0
   58.2470   30.2780   52.8010 C   0  0  0  0  0  0  0  0  0  0  0  0
   59.0720   29.4470   53.2680 O   0  0  0  0  0  0  0  0  0  0  0  0
   58.5240   30.8950   51.5360 N   0  0  0  0  0  0  0  0  0  0  0  0
   59.3810   30.4130   50.5150 C   0  0  0  0  0  0  0  0  0  0  0  0
   60.3300   29.3940   50.6250 C   0  0  0  0  0  0  0  0  0  0  0  0
   60.4814   28.8681   51.5792 H   0  0  0  0  0  0  0  0  0  0  0  0
   61.0850   29.0560   49.4940 C   0  0  0  0  0  0  0  0  0  0  0  0
   61.8306   28.2495   49.5538 H   0  0  0  0  0  0  0  0  0  0  0  0
   60.8930   29.7440   48.2830 C   0  0  0  0  0  0  0  0  0  0  0  0
   61.4763   29.4590   47.3950 H   0  0  0  0  0  0  0  0  0  0  0  0
   59.9590   30.7960   48.1980 C   0  0  0  0  0  0  0  0  0  0  0  0
   59.7700   31.5010   46.9550 N   0  0  0  0  0  0  0  0  0  0  0  0
   60.3010   32.8560   46.7820 C   0  0  0  0  0  0  0  0  0  0  0  0
   60.8216   33.1604   47.7020 H   0  0  0  0  0  0  0  0  0  0  0  0
   60.9987   32.8574   45.9316 H   0  0  0  0  0  0  0  0  0  0  0  0
   59.1600   33.8540   46.4910 C   0  0  0  0  0  0  0  0  0  0  0  0
   58.9299   34.4047   47.4150 H   0  0  0  0  0  0  0  0  0  0  0  0
   59.5029   34.5269   45.6912 H   0  0  0  0  0  0  0  0  0  0  0  0
   57.9240   33.1870   46.0160 N   0  0  0  0  0  0  0  0  0  0  0  0
   57.0400   34.1580   45.3550 C   0  0  0  0  0  0  0  0  0  0  0  0
   56.5056   34.7450   46.1165 H   0  0  0  0  0  0  0  0  0  0  0  0
   57.6406   34.8324   44.7270 H   0  0  0  0  0  0  0  0  0  0  0  0
   56.3123   33.6231   44.7270 H   0  0  0  0  0  0  0  0  0  0  0  0
   58.2320   32.0660   45.1090 C   0  0  0  0  0  0  0  0  0  0  0  0
   57.3007   31.6893   44.6609 H   0  0  0  0  0  0  0  0  0  0  0  0
   58.9063   32.4115   44.3115 H   0  0  0  0  0  0  0  0  0  0  0  0
   58.9090   30.9430   45.9040 C   0  0  0  0  0  0  0  0  0  0  0  0
   58.1366   30.3112   46.3668 H   0  0  0  0  0  0  0  0  0  0  0  0
   59.5279   30.3459   45.2181 H   0  0  0  0  0  0  0  0  0  0  0  0
   59.2260   31.1230   49.3520 C   0  0  0  0  0  0  0  0  0  0  0  0
   58.2060   32.1980   49.5430 C   0  0  0  0  0  0  0  0  0  0  0  0
   57.3580   32.0602   48.8561 H   0  0  0  0  0  0  0  0  0  0  0  0
   58.6025   33.2027   49.3349 H   0  0  0  0  0  0  0  0  0  0  0  0
   57.7580   32.0240   51.0140 C   0  0  0  0  0  0  0  0  0  0  0  0
   56.6801   31.8100   51.0627 H   0  0  0  0  0  0  0  0  0  0  0  0
   57.9354   32.9375   51.6005 H   0  0  0  0  0  0  0  0  0  0  0  0
   55.6000   28.6830   53.8100 N   0  0  0  0  0  0  0  0  0  0  0  0
   56.4640   27.8970   54.7050 C   0  0  0  0  0  0  0  0  0  0  0  0
   57.1123   28.5794   55.2742 H   0  0  0  0  0  0  0  0  0  0  0  0
   55.8311   27.3158   55.3917 H   0  0  0  0  0  0  0  0  0  0  0  0
   57.3310   26.9360   53.8990 C   0  0  0  0  0  0  0  0  0  0  0  0
   57.9067   26.2979   54.5855 H   0  0  0  0  0  0  0  0  0  0  0  0
   56.6890   26.3068   53.2650 H   0  0  0  0  0  0  0  0  0  0  0  0
   58.0227   27.5101   53.2650 H   0  0  0  0  0  0  0  0  0  0  0  0
   54.3730   28.3370   53.3370 C   0  0  0  0  0  0  0  0  0  0  0  0
   53.7680   27.1660   53.6020 C   0  0  0  0  0  0  0  0  0  0  0  0
   54.2721   26.4161   54.2293 H   0  0  0  0  0  0  0  0  0  0  0  0
   52.7689   26.9578   53.1915 H   0  0  0  0  0  0  0  0  0  0  0  0
  1  2  1  0
  2  3  1  0
  3  4  1  0
  4  5  1  0
  5  6  2  0
  5  7  1  0
  7  8  1  0
  8  9  1  0
  9 10  1  0
  9 11  2  0
 11 12  1  0
 12 13  1  0
 12 14  2  0
 14 15  1  0
 15 16  1  0
 15 17  1  0
 15 18  1  0
 18 19  2  0
 18 20  1  0
 20 21  1  0
 21 22  2  0
 22 23  1  0
 22 24  1  0
 24 25  1  0
 24 26  2  0
 26 27  1  0
 26 28  1  0
 28 29  1  0
 29 30  1  0
 30 31  1  0
 30 32  1  0
 30 33  1  0
 33 34  1  0
 33 35  1  0
 33 36  1  0
 36 37  1  0
 37 38  1  0
 37 39  1  0
 37 40  1  0
 36 41  1  0
 41 42  1  0
 41 43  1  0
 41 44  1  0
 44 45  1  0
 44 46  1  0
 28 47  2  0
 47 48  1  0
 48 49  1  0
 48 50  1  0
 48 51  1  0
 51 52  1  0
 51 53  1  0
 14 54  1  0
 54 55  1  0
 55 56  1  0
 55 57  1  0
 55 58  1  0
 58 59  1  0
 58 60  1  0
 58 61  1  0
 54 62  1  0
 62 63  2  0
 63 64  1  0
 63 65  1  0
  8  3  2  0
 62 11  1  0
 51 20  1  0
 47 21  1  0
 44 29  1  0
M  CHG  2   4  -1   7  -1
M  END
>  <UniqueID>  (11) 
11

>  <SMILES>  (11) 
C=c1/c(=C/c2[n-]c(=O)[n-]c2O)cc(CC(=O)N2CCc3c(N4CCN(C)CC4)cccc32)n1CC

>  <Energy>  (11) 
156.1397998123055

>  <Genealogy>  (11) 
C=c1c(=Cc2[n-]c(=O)[n-]c2O)cc(CC(=O)N2CCc3c(N4CCN(C)CC4)cccc32)n1CC (protonated)
C=c1/c(=C/c2[n-]c(=O)[n-]c2O)cc(CC(=O)N2CCc3c(N4CCN(C)CC4)cccc32)n1CC (cis-trans isomerization)
C=c1/c(=C/c2[n-]c(=O)[n-]c2O)cc(CC(=O)N2CCc3c(N4CCN(C)CC4)cccc32)n1CC (3D coordinates assigned)
C=c1/c(=C/c2[n-]c(=O)[n-]c2O)cc(CC(=O)N2CCc3c(N4CCN(C)CC4)cccc32)n1CC (nonaromatic ring conformer: 156.1397998123055 kcal/mol)

>  <smiles>  (11) 
C=c1c(=Cc2[nH]c(=O)[nH]c2O)cc(CC(=O)N2CCc3c(N4CCN(C)CC4)cccc32)n1CC

>  <score_type>  (11) 
oracle

>  <origin>  (11) 
adg

>  <m_score__min__energy>  (11) 
-13.630000000000001

>  <m_primary>  (11) 
energy

$$$$
11:0
     RDKit          3D

 48 51  0  0  0  0  0  0  0  0999 V2000
   51.8740   24.2870   45.0880 C   0  0  0  0  0  0  0  0  0  0  0  0
   53.1430   23.8930   45.1130 C   0  0  0  0  0  0  0  0  0  0  0  0
   53.5750   22.5920   44.8880 O   0  0  0  0  0  0  0  0  0  0  0  0
   54.9690   22.5800   45.0040 C   0  0  0  0  0  0  0  0  0  0  0  0
   55.4490   23.7970   45.2740 C   0  0  0  0  0  0  0  0  0  0  0  0
   56.8870   24.1410   45.5290 C   0  0  0  0  0  0  0  0  0  0  0  0
   56.9920   25.4840   46.2020 C   0  0  0  0  0  0  0  0  0  0  0  0
   56.7400   25.5630   47.4360 O   0  0  0  0  0  0  0  0  0  0  0  0
   57.3730   26.6710   45.4750 N   0  0  0  0  0  0  0  0  0  0  0  0
   57.0490   27.9940   46.0150 C   0  0  0  0  0  0  0  0  0  0  0  0
   56.8690   28.9910   44.8620 C   0  0  0  0  0  0  0  0  0  0  0  0
   58.0620   29.0910   43.9600 N   0  0  0  0  0  0  0  0  0  0  0  0
   58.8310   30.3470   44.2100 C   0  0  0  0  0  0  0  0  0  0  0  0
   57.9900   31.6360   43.9780 C   0  0  0  0  0  0  0  0  0  0  0  0
   58.4330   32.5480   45.0570 C   0  0  0  0  0  0  0  0  0  0  0  0
   58.1200   33.9040   45.1930 C   0  0  0  0  0  0  0  0  0  0  0  0
   58.6020   34.5970   46.3140 C   0  0  0  0  0  0  0  0  0  0  0  0
   59.3740   33.9270   47.2800 C   0  0  0  0  0  0  0  0  0  0  0  0
   59.6630   32.5610   47.1300 C   0  0  0  0  0  0  0  0  0  0  0  0
   59.1800   31.8940   46.0010 C   0  0  0  0  0  0  0  0  0  0  0  0
   59.3570   30.4610   45.6710 C   0  0  0  0  0  0  0  0  0  0  0  0
   58.9560   27.9000   44.0410 C   0  0  0  0  0  0  0  0  0  0  0  0
   58.1850   26.5920   44.2550 C   0  0  0  0  0  0  0  0  0  0  0  0
   54.3150   24.7060   45.3730 C   0  0  0  0  0  0  0  0  0  0  0  0
   54.3480   25.9380   45.6400 O   0  0  0  0  0  0  0  0  0  0  0  0
   51.6214   25.3406   45.2782 H   0  0  0  0  0  0  0  0  0  0  0  0
   51.0763   23.5595   44.8771 H   0  0  0  0  0  0  0  0  0  0  0  0
   55.5920   21.6809   44.8875 H   0  0  0  0  0  0  0  0  0  0  0  0
   57.3339   23.3738   46.1784 H   0  0  0  0  0  0  0  0  0  0  0  0
   57.4213   24.1796   44.5683 H   0  0  0  0  0  0  0  0  0  0  0  0
   56.1168   27.9340   46.5959 H   0  0  0  0  0  0  0  0  0  0  0  0
   57.8679   28.3331   46.6665 H   0  0  0  0  0  0  0  0  0  0  0  0
   56.0044   28.6738   44.2604 H   0  0  0  0  0  0  0  0  0  0  0  0
   56.7242   29.9831   45.3146 H   0  0  0  0  0  0  0  0  0  0  0  0
   57.7030   29.1350   42.9750 H   0  0  0  0  0  0  0  0  0  0  0  0
   59.6604   30.2770   43.4908 H   0  0  0  0  0  0  0  0  0  0  0  0
   58.2009   32.0683   42.9887 H   0  0  0  0  0  0  0  0  0  0  0  0
   56.9068   31.4461   44.0006 H   0  0  0  0  0  0  0  0  0  0  0  0
   57.5082   34.4172   44.4365 H   0  0  0  0  0  0  0  0  0  0  0  0
   58.3756   35.6663   46.4374 H   0  0  0  0  0  0  0  0  0  0  0  0
   59.7526   34.4746   48.1557 H   0  0  0  0  0  0  0  0  0  0  0  0
   60.2575   32.0269   47.8858 H   0  0  0  0  0  0  0  0  0  0  0  0
   60.4173   30.1738   45.7290 H   0  0  0  0  0  0  0  0  0  0  0  0
   58.8250   29.7959   46.3671 H   0  0  0  0  0  0  0  0  0  0  0  0
   59.5250   27.8231   43.1027 H   0  0  0  0  0  0  0  0  0  0  0  0
   59.6172   28.0405   44.9088 H   0  0  0  0  0  0  0  0  0  0  0  0
   57.5264   26.4140   43.3921 H   0  0  0  0  0  0  0  0  0  0  0  0
   58.9044   25.7662   44.3578 H   0  0  0  0  0  0  0  0  0  0  0  0
  1  2  2  0
  2  3  1  0
  3  4  1  0
  4  5  2  0
  5  6  1  0
  6  7  1  0
  7  8  2  0
  7  9  1  0
  9 10  1  0
 10 11  1  0
 11 12  1  0
 12 13  1  0
 13 14  1  0
 14 15  1  0
 15 16  2  0
 16 17  1  0
 17 18  2  0
 18 19  1  0
 19 20  2  0
 20 21  1  0
 12 22  1  0
 22 23  1  0
  5 24  1  0
 24 25  2  0
 24  2  1  0
 23  9  1  0
 21 13  1  0
 20 15  1  0
  1 26  1  0
  1 27  1  0
  4 28  1  0
  6 29  1  0
  6 30  1  0
 10 31  1  0
 10 32  1  0
 11 33  1  0
 11 34  1  0
 12 35  1  0
 13 36  1  0
 14 37  1  0
 14 38  1  0
 16 39  1  0
 17 40  1  0
 18 41  1  0
 19 42  1  0
 21 43  1  0
 21 44  1  0
 22 45  1  0
 22 46  1  0
 23 47  1  0
 23 48  1  0
M  CHG  1  12   1
M  END
>  <UniqueID>  (12) 
12

>  <SMILES>  (12) 
C=C1OC=C(CC(=O)N2CC[NH+](C3Cc4ccccc4C3)CC2)C1=O

>  <Energy>  (12) 
95.82351467351384

>  <Genealogy>  (12) 
C=C1OC=C(CC(=O)N2CC[NH+](C3Cc4ccccc4C3)CC2)C1=O (protonated)
C=C1OC=C(CC(=O)N2CC[NH+](C3Cc4ccccc4C3)CC2)C1=O (3D coordinates assigned)
C=C1OC=C(CC(=O)N2CC[NH+](C3Cc4ccccc4C3)CC2)C1=O (nonaromatic ring conformer: 95.82351467351384 kcal/mol)

>  <smiles>  (12) 
C=C1OC=C(CC(=O)N2CCN(C3Cc4ccccc4C3)CC2)C1=O

>  <score_type>  (12) 
oracle

>  <origin>  (12) 
adg

>  <m_score__min__energy>  (12) 
-7.1699999999999999

>  <m_primary>  (12) 
energy

$$$$
12:0
     RDKit          3D

 40 42  0  0  0  0  0  0  0  0999 V2000
   59.1120   35.7160   49.1920 H   0  0  0  0  0  0  0  0  0  0  0  0
   59.6580   34.9370   48.7600 N   0  0  0  0  0  0  0  0  0  0  0  0
   59.3100   34.4110   47.6290 C   0  0  0  0  0  0  0  0  0  0  0  0
   59.5340   35.0890   46.4720 N   0  0  0  0  0  0  0  0  0  0  0  0
   59.1760   34.5860   45.2630 C   0  0  0  0  0  0  0  0  0  0  0  0
   59.3672   35.1676   44.3491 H   0  0  0  0  0  0  0  0  0  0  0  0
   58.5650   33.3310   45.1750 C   0  0  0  0  0  0  0  0  0  0  0  0
   58.1020   32.8700   43.8900 C   0  0  0  0  0  0  0  0  0  0  0  0
   57.7360   32.5020   42.8550 N   0  0  0  0  0  0  0  0  0  0  0  0
   58.3480   32.5870   46.3530 C   0  0  0  0  0  0  0  0  0  0  0  0
   57.7590   31.3150   46.3240 O   0  0  0  0  0  0  0  0  0  0  0  0
   58.5080   30.0950   46.2650 C   0  0  2  0  0  0  0  0  0  0  0  0
   58.4066   29.5220   47.1985 H   0  0  0  0  0  0  0  0  0  0  0  0
   60.0050   30.4350   46.1000 C   0  0  0  0  0  0  0  0  0  0  0  0
   60.4910   29.6461   45.5072 H   0  0  0  0  0  0  0  0  0  0  0  0
   60.0926   31.4055   45.5896 H   0  0  0  0  0  0  0  0  0  0  0  0
   60.6820   30.5320   47.4440 C   0  0  0  0  0  0  0  0  0  0  0  0
   60.4170   29.5710   48.4350 C   0  0  0  0  0  0  0  0  0  0  0  0
   59.6923   28.7672   48.2383 H   0  0  0  0  0  0  0  0  0  0  0  0
   61.0700   29.6320   49.6690 C   0  0  0  0  0  0  0  0  0  0  0  0
   60.8528   28.8808   50.4427 H   0  0  0  0  0  0  0  0  0  0  0  0
   61.9980   30.6450   49.9220 C   0  0  0  0  0  0  0  0  0  0  0  0
   62.5093   30.6920   50.8948 H   0  0  0  0  0  0  0  0  0  0  0  0
   62.2770   31.5990   48.9390 C   0  0  0  0  0  0  0  0  0  0  0  0
   63.0086   32.3956   49.1394 H   0  0  0  0  0  0  0  0  0  0  0  0
   61.6280   31.5430   47.7010 C   0  0  0  0  0  0  0  0  0  0  0  0
   61.9290   32.4660   46.7520 F   0  0  0  0  0  0  0  0  0  0  0  0
   57.9470   29.1840   45.1370 C   0  0  2  0  0  0  0  0  0  0  0  0
   58.7226   29.2388   44.3589 H   0  0  0  0  0  0  0  0  0  0  0  0
   56.5770   29.6730   44.6030 C   0  0  0  0  0  0  0  0  0  0  0  0
   56.3581   30.6813   44.9844 H   0  0  0  0  0  0  0  0  0  0  0  0
   56.5738   29.7267   43.5043 H   0  0  0  0  0  0  0  0  0  0  0  0
   55.5870   28.7280   45.0860 N   0  0  0  0  0  0  0  0  0  0  0  0
   56.2600   27.6070   45.6190 C   0  0  0  0  0  0  0  0  0  0  0  0
   55.6480   26.6050   46.0730 O   0  0  0  0  0  0  0  0  0  0  0  0
   57.7310   27.7200   45.5760 C   0  0  0  0  0  0  0  0  0  0  0  0
   58.1721   27.5338   46.5663 H   0  0  0  0  0  0  0  0  0  0  0  0
   58.2052   26.9889   44.9048 H   0  0  0  0  0  0  0  0  0  0  0  0
   58.6980   33.1480   47.5920 C   0  0  0  0  0  0  0  0  0  0  0  0
   58.3700   32.2690   49.0830 Cl  0  0  0  0  0  0  0  0  0  0  0  0
  1  2  1  0
  2  3  2  0
  3  4  1  0
  4  5  1  0
  5  6  1  0
  5  7  2  0
  7  8  1  0
  8  9  3  0
  7 10  1  0
 10 11  1  0
 11 12  1  0
 12 13  1  1
 12 14  1  0
 14 15  1  0
 14 16  1  0
 14 17  1  0
 17 18  2  0
 18 19  1  0
 18 20  1  0
 20 21  1  0
 20 22  2  0
 22 23  1  0
 22 24  1  0
 24 25  1  0
 24 26  2  0
 26 27  1  0
 12 28  1  0
 28 29  1  6
 28 30  1  0
 30 31  1  0
 30 32  1  0
 30 33  1  0
 33 34  1  0
 34 35  2  0
 34 36  1  0
 36 37  1  0
 36 38  1  0
 10 39  2  0
 39 40  1  0
 39  3  1  0
 26 17  1  0
 36 28  1  0
M  CHG  2   4  -1  33  -1
M  END
>  <UniqueID>  (13) 
13

>  <SMILES>  (13) 
[H]/N=c1\[n-]cc(C#N)c(O[C@H](Cc2ccccc2F)[C@@H]2C[N-]C(=O)C2)c1Cl

>  <Energy>  (13) 
54.72675609782631

>  <Genealogy>  (13) 
N#Cc1c[n-]c(=N)c(Cl)c1OC(Cc1ccccc1F)C1C[N-]C(=O)C1 (protonated)
N#Cc1c[n-]c(=N)c(Cl)c1O[C@H](Cc1ccccc1F)[C@@H]1C[N-]C(=O)C1 (chirality)
[H]/N=c1\[n-]cc(C#N)c(O[C@H](Cc2ccccc2F)[C@@H]2C[N-]C(=O)C2)c1Cl (cis-trans isomerization)
[H]/N=c1\[n-]cc(C#N)c(O[C@H](Cc2ccccc2F)[C@@H]2C[N-]C(=O)C2)c1Cl (3D coordinates assigned)
[H]/N=c1\[n-]cc(C#N)c(O[C@H](Cc2ccccc2F)[C@@H]2C[N-]C(=O)C2)c1Cl (nonaromatic ring conformer: 54.72675609782631 kcal/mol)

>  <smiles>  (13) 
N#Cc1c[nH]c(=N)c(Cl)c1OC(Cc1ccccc1F)C1CNC(=O)C1

>  <score_type>  (13) 
oracle

>  <origin>  (13) 
adg

>  <m_score__min__energy>  (13) 
-10.76

>  <m_primary>  (13) 
energy

$$$$
13:0
     RDKit          3D

 45 47  0  0  0  0  0  0  0  0999 V2000
   58.3550   34.4660   45.3640 C   0  0  0  0  0  0  0  0  0  0  0  0
   58.8930   33.7740   44.1160 C   0  0  0  0  0  0  0  0  0  0  0  0
   58.1500   32.4920   43.8600 C   0  0  0  0  0  0  0  0  0  0  0  0
   57.7750   31.6200   44.8940 C   0  0  0  0  0  0  0  0  0  0  0  0
   57.1430   30.4650   44.4440 C   0  0  0  0  0  0  0  0  0  0  0  0
   56.6190   29.3700   45.2800 C   0  0  0  0  0  0  0  0  0  0  0  0
   55.4310   28.9860   45.1130 O   0  0  0  0  0  0  0  0  0  0  0  0
   57.4020   28.7640   46.3140 N   0  0  0  0  0  0  0  0  0  0  0  0
   58.1310   27.5300   46.2110 C   0  0  0  0  0  0  0  0  0  0  0  0
   57.4840   26.2970   46.4140 C   0  0  0  0  0  0  0  0  0  0  0  0
   58.2090   25.1040   46.3950 C   0  0  0  0  0  0  0  0  0  0  0  0
   59.5900   25.1300   46.1980 C   0  0  0  0  0  0  0  0  0  0  0  0
   60.2490   26.3460   46.0130 C   0  0  0  0  0  0  0  0  0  0  0  0
   59.5290   27.5520   46.0050 C   0  0  0  0  0  0  0  0  0  0  0  0
   60.2480   28.8240   45.7790 C   0  0  0  0  0  0  0  0  0  0  0  0
   61.1280   28.8890   44.8770 O   0  0  0  0  0  0  0  0  0  0  0  0
   59.9360   29.9850   46.5610 N   0  0  0  0  0  0  0  0  0  0  0  0
   60.8960   31.0650   46.7640 C   0  0  0  0  0  0  0  0  0  0  0  0
   60.2510   32.1590   47.5540 C   0  0  0  0  0  0  0  0  0  0  0  0
   60.7840   33.4110   47.7860 C   0  0  0  0  0  0  0  0  0  0  0  0
   59.8750   34.0530   48.5980 C   0  0  0  0  0  0  0  0  0  0  0  0
   58.8490   33.1550   48.8120 C   0  0  0  0  0  0  0  0  0  0  0  0
   59.1030   32.0330   48.1780 O   0  0  0  0  0  0  0  0  0  0  0  0
   57.0330   30.5330   42.7670 S   0  0  0  0  0  0  0  0  0  0  0  0
   57.8170   32.0110   42.5920 C   0  0  0  0  0  0  0  0  0  0  0  0
   58.0620   32.6940   41.2860 C   0  0  0  0  0  0  0  0  0  0  0  0
   58.7466   33.9624   46.2601 H   0  0  0  0  0  0  0  0  0  0  0  0
   58.6743   35.5186   45.3660 H   0  0  0  0  0  0  0  0  0  0  0  0
   57.2561   34.4161   45.3660 H   0  0  0  0  0  0  0  0  0  0  0  0
   58.7701   34.4421   43.2508 H   0  0  0  0  0  0  0  0  0  0  0  0
   59.9573   33.5425   44.2697 H   0  0  0  0  0  0  0  0  0  0  0  0
   57.9627   31.8295   45.9574 H   0  0  0  0  0  0  0  0  0  0  0  0
   56.3983   26.2729   46.5891 H   0  0  0  0  0  0  0  0  0  0  0  0
   57.6914   24.1436   46.5353 H   0  0  0  0  0  0  0  0  0  0  0  0
   60.1607   24.1897   46.1885 H   0  0  0  0  0  0  0  0  0  0  0  0
   61.3399   26.3602   45.8725 H   0  0  0  0  0  0  0  0  0  0  0  0
   59.0410   30.0120   47.0990 H   0  0  0  0  0  0  0  0  0  0  0  0
   61.7693   30.6819   47.3122 H   0  0  0  0  0  0  0  0  0  0  0  0
   61.2204   31.4572   45.7889 H   0  0  0  0  0  0  0  0  0  0  0  0
   61.7342   33.8116   47.4032 H   0  0  0  0  0  0  0  0  0  0  0  0
   59.9515   35.0757   48.9958 H   0  0  0  0  0  0  0  0  0  0  0  0
   57.9540   33.3495   49.4213 H   0  0  0  0  0  0  0  0  0  0  0  0
   58.4282   33.7149   41.4692 H   0  0  0  0  0  0  0  0  0  0  0  0
   58.8145   32.1317   40.7136 H   0  0  0  0  0  0  0  0  0  0  0  0
   57.1237   32.7382   40.7136 H   0  0  0  0  0  0  0  0  0  0  0  0
  1  2  1  0
  2  3  1  0
  3  4  1  0
  4  5  2  0
  5  6  1  0
  6  7  2  0
  6  8  1  0
  8  9  1  0
  9 10  2  0
 10 11  1  0
 11 12  2  0
 12 13  1  0
 13 14  2  0
 14 15  1  0
 15 16  2  0
 15 17  1  0
 17 18  1  0
 18 19  1  0
 19 20  2  0
 20 21  1  0
 21 22  2  0
 22 23  1  0
  5 24  1  0
 24 25  1  0
 25 26  1  0
 25  3  2  0
 14  9  1  0
 23 19  1  0
  1 27  1  0
  1 28  1  0
  1 29  1  0
  2 30  1  0
  2 31  1  0
  4 32  1  0
 10 33  1  0
 11 34  1  0
 12 35  1  0
 13 36  1  0
 17 37  1  0
 18 38  1  0
 18 39  1  0
 20 40  1  0
 21 41  1  0
 22 42  1  0
 26 43  1  0
 26 44  1  0
 26 45  1  0
M  CHG  1   8  -1
M  END
>  <UniqueID>  (14) 
14

>  <SMILES>  (14) 
CCc1cc(C(=O)[N-]c2ccccc2C(=O)NCc2ccco2)sc1C

>  <Energy>  (14) 
99.30357140971044

>  <Genealogy>  (14) 
CCc1cc(C(=O)[N-]c2ccccc2C(=O)NCc2ccco2)sc1C (protonated)
CCc1cc(C(=O)[N-]c2ccccc2C(=O)NCc2ccco2)sc1C (3D coordinates assigned)
CCc1cc(C(=O)[N-]c2ccccc2C(=O)NCc2ccco2)sc1C (optimized conformer: 99.30357140971044 kcal/mol)

>  <smiles>  (14) 
CCc1cc(C(=O)Nc2ccccc2C(=O)NCc2ccco2)sc1C

>  <score_type>  (14) 
oracle

>  <origin>  (14) 
adg

>  <m_score__min__energy>  (14) 
-10.57

>  <m_primary>  (14) 
energy

$$$$
14:0
     RDKit          3D

 65 68  0  0  0  0  0  0  0  0999 V2000
   60.1690   32.6260   53.1370 C   0  0  0  0  0  0  0  0  0  0  0  0
   59.5450   33.3930   52.0470 N   0  0  0  0  0  0  0  0  0  0  0  0
   60.4540   33.4670   50.8760 C   0  0  0  0  0  0  0  0  0  0  0  0
   59.6950   33.6840   49.5650 C   0  0  0  0  0  0  0  0  0  0  0  0
   58.7430   32.5830   49.3640 N   0  0  0  0  0  0  0  0  0  0  0  0
   58.5160   32.0310   48.0510 C   0  0  0  0  0  0  0  0  0  0  0  0
   58.1940   30.8180   47.9300 O   0  0  0  0  0  0  0  0  0  0  0  0
   58.6840   32.8510   46.8320 C   0  0  0  0  0  0  0  0  0  0  0  0
   59.1440   34.1730   46.9550 C   0  0  0  0  0  0  0  0  0  0  0  0
   59.2750   34.9820   45.8250 C   0  0  0  0  0  0  0  0  0  0  0  0
   58.9700   34.4740   44.5620 C   0  0  0  0  0  0  0  0  0  0  0  0
   58.5370   33.1540   44.4240 C   0  0  0  0  0  0  0  0  0  0  0  0
   58.3740   32.3350   45.5550 C   0  0  0  0  0  0  0  0  0  0  0  0
   58.0270   30.9490   45.4090 N   0  0  0  0  0  0  0  0  0  0  0  0
   56.8290   30.4280   44.8150 C   0  0  0  0  0  0  0  0  0  0  0  0
   55.8570   31.2050   44.6270 O   0  0  0  0  0  0  0  0  0  0  0  0
   56.7370   29.0160   44.3220 C   0  0  0  0  0  0  0  0  0  0  0  0
   55.9430   28.2200   45.2460 N   0  0  0  0  0  0  0  0  0  0  0  0
   56.4040   26.9830   45.7910 C   0  0  0  0  0  0  0  0  0  0  0  0
   55.6340   26.2760   46.4990 O   0  0  0  0  0  0  0  0  0  0  0  0
   57.8220   26.5570   45.5540 C   0  0  0  0  0  0  0  0  0  0  0  0
   58.7970   27.5190   46.1830 C   0  0  0  0  0  0  0  0  0  0  0  0
   59.6160   28.3280   45.3820 C   0  0  0  0  0  0  0  0  0  0  0  0
   60.4960   29.2440   45.9670 C   0  0  0  0  0  0  0  0  0  0  0  0
   60.5680   29.3790   47.3670 C   0  0  0  0  0  0  0  0  0  0  0  0
   61.4790   30.3290   47.9700 N   0  0  0  0  0  0  0  0  0  0  0  0
   61.8010   30.3580   49.3900 C   0  0  0  0  0  0  0  0  0  0  0  0
   62.6540   31.6010   49.5980 C   0  0  0  0  0  0  0  0  0  0  0  0
   63.1570   31.9950   48.2150 C   0  0  0  0  0  0  0  0  0  0  0  0
   62.1940   31.3520   47.2240 C   0  0  0  0  0  0  0  0  0  0  0  0
   59.7320   28.5730   48.1640 C   0  0  0  0  0  0  0  0  0  0  0  0
   58.8560   27.6530   47.5780 C   0  0  0  0  0  0  0  0  0  0  0  0
   58.1340   31.9450   50.5370 C   0  0  0  0  0  0  0  0  0  0  0  0
   58.1790   32.8910   51.7470 C   0  0  0  0  0  0  0  0  0  0  0  0
   59.8397   33.0308   54.1054 H   0  0  0  0  0  0  0  0  0  0  0  0
   59.8701   31.5702   53.0602 H   0  0  0  0  0  0  0  0  0  0  0  0
   61.2636   32.7038   53.0602 H   0  0  0  0  0  0  0  0  0  0  0  0
   61.1529   34.3037   51.0229 H   0  0  0  0  0  0  0  0  0  0  0  0
   60.9865   32.5073   50.8019 H   0  0  0  0  0  0  0  0  0  0  0  0
   59.1487   34.6377   49.6108 H   0  0  0  0  0  0  0  0  0  0  0  0
   60.4080   33.7105   48.7278 H   0  0  0  0  0  0  0  0  0  0  0  0
   59.4022   34.5725   47.9469 H   0  0  0  0  0  0  0  0  0  0  0  0
   59.6192   36.0214   45.9305 H   0  0  0  0  0  0  0  0  0  0  0  0
   59.0709   35.1146   43.6735 H   0  0  0  0  0  0  0  0  0  0  0  0
   58.3218   32.7518   43.4230 H   0  0  0  0  0  0  0  0  0  0  0  0
   56.2614   29.0061   43.3302 H   0  0  0  0  0  0  0  0  0  0  0  0
   57.7486   28.5896   44.2532 H   0  0  0  0  0  0  0  0  0  0  0  0
   57.9733   25.5582   45.9893 H   0  0  0  0  0  0  0  0  0  0  0  0
   58.0022   26.5410   44.4690 H   0  0  0  0  0  0  0  0  0  0  0  0
   59.5659   28.2415   44.2866 H   0  0  0  0  0  0  0  0  0  0  0  0
   61.1389   29.8658   45.3267 H   0  0  0  0  0  0  0  0  0  0  0  0
   60.8811   30.4203   49.9899 H   0  0  0  0  0  0  0  0  0  0  0  0
   62.3316   29.4466   49.7029 H   0  0  0  0  0  0  0  0  0  0  0  0
   62.0502   32.4119   50.0314 H   0  0  0  0  0  0  0  0  0  0  0  0
   63.4856   31.4100   50.2922 H   0  0  0  0  0  0  0  0  0  0  0  0
   63.1490   33.0891   48.1019 H   0  0  0  0  0  0  0  0  0  0  0  0
   64.1915   31.6597   48.0498 H   0  0  0  0  0  0  0  0  0  0  0  0
   61.4908   32.1018   46.8323 H   0  0  0  0  0  0  0  0  0  0  0  0
   62.7271   30.9248   46.3618 H   0  0  0  0  0  0  0  0  0  0  0  0
   59.7683   28.6679   49.2593 H   0  0  0  0  0  0  0  0  0  0  0  0
   58.2098   27.0311   48.2149 H   0  0  0  0  0  0  0  0  0  0  0  0
   57.0867   31.6958   50.3109 H   0  0  0  0  0  0  0  0  0  0  0  0
   58.6972   31.0314   50.7781 H   0  0  0  0  0  0  0  0  0  0  0  0
   57.5271   33.7528   51.5414 H   0  0  0  0  0  0  0  0  0  0  0  0
   57.8418   32.3175   52.6230 H   0  0  0  0  0  0  0  0  0  0  0  0
  1  2  1  0
  2  3  1  0
  3  4  1  0
  4  5  1  0
  5  6  1  0
  6  7  2  0
  6  8  1  0
  8  9  2  0
  9 10  1  0
 10 11  2  0
 11 12  1  0
 12 13  2  0
 13 14  1  0
 14 15  1  0
 15 16  2  0
 15 17  1  0
 17 18  1  0
 18 19  1  0
 19 20  2  0
 19 21  1  0
 21 22  1  0
 22 23  2  0
 23 24  1  0
 24 25  2  0
 25 26  1  0
 26 27  1  0
 27 28  1  0
 28 29  1  0
 29 30  1  0
 25 31  1  0
 31 32  2  0
  5 33  1  0
 33 34  1  0
 34  2  1  0
 13  8  1  0
 32 22  1  0
 30 26  1  0
  1 35  1  0
  1 36  1  0
  1 37  1  0
  3 38  1  0
  3 39  1  0
  4 40  1  0
  4 41  1  0
  9 42  1  0
 10 43  1  0
 11 44  1  0
 12 45  1  0
 17 46  1  0
 17 47  1  0
 21 48  1  0
 21 49  1  0
 23 50  1  0
 24 51  1  0
 27 52  1  0
 27 53  1  0
 28 54  1  0
 28 55  1  0
 29 56  1  0
 29 57  1  0
 30 58  1  0
 30 59  1  0
 31 60  1  0
 32 61  1  0
 33 62  1  0
 33 63  1  0
 34 64  1  0
 34 65  1  0
M  CHG  2  14  -1  18  -1
M  END
>  <UniqueID>  (15) 
15

>  <SMILES>  (15) 
CN1CCN(C(=O)c2ccccc2[N-]C(=O)C[N-]C(=O)Cc2ccc(N3CCCC3)cc2)CC1

>  <Energy>  (15) 
80.20765871775899

>  <Genealogy>  (15) 
CN1CCN(C(=O)c2ccccc2[N-]C(=O)C[N-]C(=O)Cc2ccc(N3CCCC3)cc2)CC1 (protonated)
CN1CCN(C(=O)c2ccccc2[N-]C(=O)C[N-]C(=O)Cc2ccc(N3CCCC3)cc2)CC1 (3D coordinates assigned)
CN1CCN(C(=O)c2ccccc2[N-]C(=O)C[N-]C(=O)Cc2ccc(N3CCCC3)cc2)CC1 (nonaromatic ring conformer: 80.20765871775899 kcal/mol)

>  <smiles>  (15) 
CN1CCN(C(=O)c2ccccc2NC(=O)CNC(=O)Cc2ccc(N3CCCC3)cc2)CC1

>  <score_type>  (15) 
oracle

>  <origin>  (15) 
adg

>  <m_score__min__energy>  (15) 
-13.51

>  <m_primary>  (15) 
energy

$$$$
15:0
     RDKit          3D

 62 65  0  0  0  0  0  0  0  0999 V2000
   57.7710   32.2420   43.3240 C   0  0  0  0  0  0  0  0  0  0  0  0
   57.6070   30.8480   43.8520 C   0  0  0  0  0  0  0  0  0  0  0  0
   56.3280   30.3380   44.1240 C   0  0  0  0  0  0  0  0  0  0  0  0
   56.1790   29.0540   44.6530 C   0  0  0  0  0  0  0  0  0  0  0  0
   57.3050   28.2670   44.9250 C   0  0  0  0  0  0  0  0  0  0  0  0
   57.1060   26.6590   45.6150 S   0  0  0  0  0  0  0  0  0  0  0  0
   55.6710   26.4650   46.0150 O   0  0  0  0  0  0  0  0  0  0  0  0
   57.4670   25.6020   44.6090 O   0  0  0  0  0  0  0  0  0  0  0  0
   58.1120   26.5000   47.0150 N   0  0  0  0  0  0  0  0  0  0  0  0
   58.7720   27.6160   47.6170 C   0  0  0  0  0  0  0  0  0  0  0  0
   58.1860   28.2910   48.5070 O   0  0  0  0  0  0  0  0  0  0  0  0
   60.1150   27.9310   47.2260 N   0  0  0  0  0  0  0  0  0  0  0  0
   60.8240   29.1030   47.6580 C   0  0  0  0  0  0  0  0  0  0  0  0
   61.1480   29.3070   49.0110 C   0  0  0  0  0  0  0  0  0  0  0  0
   61.8190   30.4670   49.4090 C   0  0  0  0  0  0  0  0  0  0  0  0
   62.1690   31.4400   48.4630 C   0  0  0  0  0  0  0  0  0  0  0  0
   62.9760   32.9250   48.9550 S   0  0  0  0  0  0  0  0  0  0  0  0
   64.2410   33.1070   48.1650 O   0  0  0  0  0  0  0  0  0  0  0  0
   63.3270   32.8660   50.4160 O   0  0  0  0  0  0  0  0  0  0  0  0
   61.9060   34.2550   48.6890 N   0  0  0  0  0  0  0  0  0  0  0  0
   60.7200   34.1110   47.9060 C   0  0  0  0  0  0  0  0  0  0  0  0
   60.7760   34.3280   46.5220 C   0  0  0  0  0  0  0  0  0  0  0  0
   59.6410   34.1370   45.7330 C   0  0  0  0  0  0  0  0  0  0  0  0
   58.4460   33.7170   46.3170 C   0  0  0  0  0  0  0  0  0  0  0  0
   58.3800   33.4920   47.6950 C   0  0  0  0  0  0  0  0  0  0  0  0
   59.5090   33.7020   48.5050 C   0  0  0  0  0  0  0  0  0  0  0  0
   59.4250   33.4050   49.9530 C   0  0  0  0  0  0  0  0  0  0  0  0
   60.0590   34.1340   50.7640 O   0  0  0  0  0  0  0  0  0  0  0  0
   58.6430   32.3060   50.4520 N   0  0  0  0  0  0  0  0  0  0  0  0
   57.7870   32.4890   51.6270 C   0  0  0  0  0  0  0  0  0  0  0  0
   57.7430   31.1920   52.4410 C   0  0  0  0  0  0  0  0  0  0  0  0
   57.4020   30.0920   51.6170 O   0  0  0  0  0  0  0  0  0  0  0  0
   58.4250   29.8740   50.6620 C   0  0  0  0  0  0  0  0  0  0  0  0
   58.5250   31.0560   49.6940 C   0  0  0  0  0  0  0  0  0  0  0  0
   61.8280   31.2500   47.1190 C   0  0  0  0  0  0  0  0  0  0  0  0
   61.1500   30.0940   46.7210 C   0  0  0  0  0  0  0  0  0  0  0  0
   58.5850   28.7820   44.6790 C   0  0  0  0  0  0  0  0  0  0  0  0
   58.7350   30.0680   44.1490 C   0  0  0  0  0  0  0  0  0  0  0  0
   57.8538   32.9455   44.1656 H   0  0  0  0  0  0  0  0  0  0  0  0
   58.6818   32.2966   42.7096 H   0  0  0  0  0  0  0  0  0  0  0  0
   56.8978   32.5065   42.7096 H   0  0  0  0  0  0  0  0  0  0  0  0
   55.4388   30.9524   43.9196 H   0  0  0  0  0  0  0  0  0  0  0  0
   55.1728   28.6592   44.8569 H   0  0  0  0  0  0  0  0  0  0  0  0
   60.6390   27.2090   46.6820 H   0  0  0  0  0  0  0  0  0  0  0  0
   60.8721   28.5501   49.7600 H   0  0  0  0  0  0  0  0  0  0  0  0
   62.0732   30.6166   50.4687 H   0  0  0  0  0  0  0  0  0  0  0  0
   61.7189   34.6503   46.0560 H   0  0  0  0  0  0  0  0  0  0  0  0
   59.6888   34.3179   44.6490 H   0  0  0  0  0  0  0  0  0  0  0  0
   57.5540   33.5626   45.6921 H   0  0  0  0  0  0  0  0  0  0  0  0
   57.4384   33.1484   48.1482 H   0  0  0  0  0  0  0  0  0  0  0  0
   58.1916   33.2991   52.2515 H   0  0  0  0  0  0  0  0  0  0  0  0
   56.7694   32.7481   51.2995 H   0  0  0  0  0  0  0  0  0  0  0  0
   58.7316   31.0139   52.8892 H   0  0  0  0  0  0  0  0  0  0  0  0
   56.9793   31.2944   53.2260 H   0  0  0  0  0  0  0  0  0  0  0  0
   59.3857   29.7527   51.1838 H   0  0  0  0  0  0  0  0  0  0  0  0
   58.1843   28.9671   50.0879 H   0  0  0  0  0  0  0  0  0  0  0  0
   59.4111   30.9310   49.0544 H   0  0  0  0  0  0  0  0  0  0  0  0
   57.6208   31.0927   49.0687 H   0  0  0  0  0  0  0  0  0  0  0  0
   62.0945   32.0132   46.3730 H   0  0  0  0  0  0  0  0  0  0  0  0
   60.8703   29.9609   45.6655 H   0  0  0  0  0  0  0  0  0  0  0  0
   59.4737   28.1737   44.9031 H   0  0  0  0  0  0  0  0  0  0  0  0
   59.7422   30.4697   43.9642 H   0  0  0  0  0  0  0  0  0  0  0  0
  1  2  1  0
  2  3  2  0
  3  4  1  0
  4  5  2  0
  5  6  1  0
  6  7  2  0
  6  8  2  0
  6  9  1  0
  9 10  1  0
 10 11  2  0
 10 12  1  0
 12 13  1  0
 13 14  2  0
 14 15  1  0
 15 16  2  0
 16 17  1  0
 17 18  2  0
 17 19  2  0
 17 20  1  0
 20 21  1  0
 21 22  2  0
 22 23  1  0
 23 24  2  0
 24 25  1  0
 25 26  2  0
 26 27  1  0
 27 28  2  0
 27 29  1  0
 29 30  1  0
 30 31  1  0
 31 32  1  0
 32 33  1  0
 33 34  1  0
 16 35  1  0
 35 36  2  0
  5 37  1  0
 37 38  2  0
 38  2  1  0
 36 13  1  0
 26 21  1  0
 34 29  1  0
  1 39  1  0
  1 40  1  0
  1 41  1  0
  3 42  1  0
  4 43  1  0
 12 44  1  0
 14 45  1  0
 15 46  1  0
 22 47  1  0
 23 48  1  0
 24 49  1  0
 25 50  1  0
 30 51  1  0
 30 52  1  0
 31 53  1  0
 31 54  1  0
 33 55  1  0
 33 56  1  0
 34 57  1  0
 34 58  1  0
 35 59  1  0
 36 60  1  0
 37 61  1  0
 38 62  1  0
M  CHG  2   9  -1  20  -1
M  END
>  <UniqueID>  (16) 
16

>  <SMILES>  (16) 
Cc1ccc(S(=O)(=O)[N-]C(=O)Nc2ccc(S(=O)(=O)[N-]c3ccccc3C(=O)N3CCOCC3)cc2)cc1

>  <Energy>  (16) 
84.19332170277121

>  <Genealogy>  (16) 
Cc1ccc(S(=O)(=O)[N-]C(=O)Nc2ccc(S(=O)(=O)[N-]c3ccccc3C(=O)N3CCOCC3)cc2)cc1 (protonated)
Cc1ccc(S(=O)(=O)[N-]C(=O)Nc2ccc(S(=O)(=O)[N-]c3ccccc3C(=O)N3CCOCC3)cc2)cc1 (3D coordinates assigned)
Cc1ccc(S(=O)(=O)[N-]C(=O)Nc2ccc(S(=O)(=O)[N-]c3ccccc3C(=O)N3CCOCC3)cc2)cc1 (nonaromatic ring conformer: 84.19332170277121 kcal/mol)

>  <smiles>  (16) 
Cc1ccc(S(=O)(=O)NC(=O)Nc2ccc(S(=O)(=O)Nc3ccccc3C(=O)N3CCOCC3)cc2)cc1

>  <score_type>  (16) 
oracle

>  <origin>  (16) 
adg

>  <m_score__min__energy>  (16) 
-12.68

>  <m_primary>  (16) 
energy

$$$$
16:0
     RDKit          3D

 56 59  0  0  0  0  0  0  0  0999 V2000
   62.7220   34.1640   48.7280 C   0  0  0  0  0  0  0  0  0  0  0  0
   62.9430   33.2750   47.2010 S   0  0  0  0  0  0  0  0  0  0  0  0
   63.3550   34.2120   46.1010 O   0  0  0  0  0  0  0  0  0  0  0  0
   64.0280   32.2550   47.3950 O   0  0  0  0  0  0  0  0  0  0  0  0
   61.4760   32.4550   46.7670 N   0  0  0  0  0  0  0  0  0  0  0  0
   60.8780   31.3870   47.5260 C   0  0  0  0  0  0  0  0  0  0  0  0
   60.3410   31.5920   48.8110 C   0  0  0  0  0  0  0  0  0  0  0  0
   59.7590   30.5320   49.5120 C   0  0  0  0  0  0  0  0  0  0  0  0
   59.7110   29.2580   48.9450 C   0  0  0  0  0  0  0  0  0  0  0  0
   60.2600   29.0300   47.6720 C   0  0  0  0  0  0  0  0  0  0  0  0
   60.2150   27.7370   47.0520 N   0  0  0  0  0  0  0  0  0  0  0  0
   59.4550   26.6080   47.5060 C   0  0  0  0  0  0  0  0  0  0  0  0
   59.8400   25.9990   48.5380 O   0  0  0  0  0  0  0  0  0  0  0  0
   58.1980   26.1900   46.8350 C   0  0  0  0  0  0  0  0  0  0  0  0
   57.9680   24.8290   46.5760 C   0  0  0  0  0  0  0  0  0  0  0  0
   56.7950   24.4190   45.9430 C   0  0  0  0  0  0  0  0  0  0  0  0
   55.8540   25.3750   45.5660 C   0  0  0  0  0  0  0  0  0  0  0  0
   56.0840   26.6890   45.8160 N   0  0  0  0  0  0  0  0  0  0  0  0
   57.2230   27.1290   46.4250 C   0  0  0  0  0  0  0  0  0  0  0  0
   57.3870   28.3960   46.6870 N   0  0  0  0  0  0  0  0  0  0  0  0
   57.3770   29.4820   45.7470 C   0  0  0  0  0  0  0  0  0  0  0  0
   57.0100   29.3000   44.4020 C   0  0  0  0  0  0  0  0  0  0  0  0
   57.0470   30.3740   43.5110 C   0  0  0  0  0  0  0  0  0  0  0  0
   57.4660   31.6330   43.9460 C   0  0  0  0  0  0  0  0  0  0  0  0
   57.8630   31.8280   45.2790 C   0  0  0  0  0  0  0  0  0  0  0  0
   58.3120   33.1240   45.7190 N   0  0  0  0  0  0  0  0  0  0  0  0
   58.1840   33.5120   47.1270 C   0  0  0  0  0  0  0  0  0  0  0  0
   59.2670   34.5360   47.4790 C   0  0  0  0  0  0  0  0  0  0  0  0
   59.2540   35.6180   46.5680 O   0  0  0  0  0  0  0  0  0  0  0  0
   59.6020   35.1600   45.2750 C   0  0  0  0  0  0  0  0  0  0  0  0
   58.5470   34.1880   44.7380 C   0  0  0  0  0  0  0  0  0  0  0  0
   57.8290   30.7400   46.1690 C   0  0  0  0  0  0  0  0  0  0  0  0
   60.8200   30.1000   46.9650 C   0  0  0  0  0  0  0  0  0  0  0  0
   62.8910   33.4840   49.5759 H   0  0  0  0  0  0  0  0  0  0  0  0
   63.4408   34.9953   48.7757 H   0  0  0  0  0  0  0  0  0  0  0  0
   61.6976   34.5619   48.7757 H   0  0  0  0  0  0  0  0  0  0  0  0
   61.0300   32.7410   45.8660 H   0  0  0  0  0  0  0  0  0  0  0  0
   60.3796   32.5926   49.2663 H   0  0  0  0  0  0  0  0  0  0  0  0
   59.3376   30.7027   50.5136 H   0  0  0  0  0  0  0  0  0  0  0  0
   59.2419   28.4297   49.4963 H   0  0  0  0  0  0  0  0  0  0  0  0
   58.7179   24.0816   46.8744 H   0  0  0  0  0  0  0  0  0  0  0  0
   56.6146   23.3524   45.7435 H   0  0  0  0  0  0  0  0  0  0  0  0
   54.9248   25.0647   45.0658 H   0  0  0  0  0  0  0  0  0  0  0  0
   56.6924   28.3073   44.0504 H   0  0  0  0  0  0  0  0  0  0  0  0
   56.7452   30.2281   42.4633 H   0  0  0  0  0  0  0  0  0  0  0  0
   57.4852   32.4769   43.2406 H   0  0  0  0  0  0  0  0  0  0  0  0
   57.1918   33.9561   47.2955 H   0  0  0  0  0  0  0  0  0  0  0  0
   58.3024   32.6223   47.7630 H   0  0  0  0  0  0  0  0  0  0  0  0
   59.0851   34.9179   48.4944 H   0  0  0  0  0  0  0  0  0  0  0  0
   60.2485   34.0423   47.4242 H   0  0  0  0  0  0  0  0  0  0  0  0
   59.6769   36.0218   44.5956 H   0  0  0  0  0  0  0  0  0  0  0  0
   60.5663   34.6342   45.3358 H   0  0  0  0  0  0  0  0  0  0  0  0
   57.6081   34.7313   44.5556 H   0  0  0  0  0  0  0  0  0  0  0  0
   58.9051   33.7442   43.7973 H   0  0  0  0  0  0  0  0  0  0  0  0
   58.1610   30.8776   47.2086 H   0  0  0  0  0  0  0  0  0  0  0  0
   61.2209   29.9310   45.9547 H   0  0  0  0  0  0  0  0  0  0  0  0
  1  2  1  0
  2  3  2  0
  2  4  2  0
  2  5  1  0
  5  6  1  0
  6  7  2  0
  7  8  1  0
  8  9  2  0
  9 10  1  0
 10 11  1  0
 11 12  1  0
 12 13  2  0
 12 14  1  0
 14 15  2  0
 15 16  1  0
 16 17  2  0
 17 18  1  0
 18 19  1  0
 19 20  2  3
 20 21  1  0
 21 22  2  0
 22 23  1  0
 23 24  2  0
 24 25  1  0
 25 26  1  0
 26 27  1  0
 27 28  1  0
 28 29  1  0
 29 30  1  0
 30 31  1  0
 25 32  2  0
 10 33  2  0
 33  6  1  0
 19 14  1  0
 32 21  1  0
 31 26  1  0
  1 34  1  0
  1 35  1  0
  1 36  1  0
  5 37  1  0
  7 38  1  0
  8 39  1  0
  9 40  1  0
 15 41  1  0
 16 42  1  0
 17 43  1  0
 22 44  1  0
 23 45  1  0
 24 46  1  0
 27 47  1  0
 27 48  1  0
 28 49  1  0
 28 50  1  0
 30 51  1  0
 30 52  1  0
 31 53  1  0
 31 54  1  0
 32 55  1  0
 33 56  1  0
M  CHG  2  11  -1  18  -1
M  END
>  <UniqueID>  (17) 
17

>  <SMILES>  (17) 
CS(=O)(=O)Nc1cccc([N-]C(=O)c2ccc[n-]c2=Nc2cccc(N3CCOCC3)c2)c1

>  <Energy>  (17) 
79.11892134823225

>  <Genealogy>  (17) 
CS(=O)(=O)Nc1cccc([N-]C(=O)c2ccc[n-]c2=Nc2cccc(N3CCOCC3)c2)c1 (protonated)
CS(=O)(=O)Nc1cccc([N-]C(=O)c2ccc[n-]c2=Nc2cccc(N3CCOCC3)c2)c1 (3D coordinates assigned)
CS(=O)(=O)Nc1cccc([N-]C(=O)c2ccc[n-]c2=Nc2cccc(N3CCOCC3)c2)c1 (nonaromatic ring conformer: 79.11892134823225 kcal/mol)

>  <smiles>  (17) 
CS(=O)(=O)Nc1cccc(NC(=O)c2ccc[nH]c2=Nc2cccc(N3CCOCC3)c2)c1

>  <score_type>  (17) 
oracle

>  <origin>  (17) 
adg

>  <m_score__min__energy>  (17) 
-11.720000000000001

>  <m_primary>  (17) 
energy

$$$$
17:0
     RDKit          3D

 39 41  0  0  0  0  0  0  0  0999 V2000
   54.6570   26.1860   45.8070 N   0  0  0  0  0  0  0  0  0  0  0  0
   56.0180   26.0880   46.2210 C   0  0  0  0  0  0  0  0  0  0  0  0
   56.3200   25.2790   47.1400 O   0  0  0  0  0  0  0  0  0  0  0  0
   57.0670   26.9530   45.6240 C   0  0  0  0  0  0  0  0  0  0  0  0
   57.3860   28.1640   46.2600 C   0  0  0  0  0  0  0  0  0  0  0  0
   58.3580   29.0170   45.7170 C   0  0  0  0  0  0  0  0  0  0  0  0
   58.6910   30.2540   46.3760 N   0  0  0  0  0  0  0  0  0  0  0  0
   58.4270   31.5340   45.7060 C   0  0  0  0  0  0  0  0  0  0  0  0
   59.2310   32.6630   46.3590 C   0  0  0  0  0  0  0  0  0  0  0  0
   60.5510   32.1450   46.7490 N   0  0  0  0  0  0  0  0  0  0  0  0
   61.6160   33.4590   47.1820 S   0  0  0  0  0  0  0  0  0  0  0  0
   60.7960   34.6550   47.5820 O   0  0  0  0  0  0  0  0  0  0  0  0
   62.4540   33.8420   45.9930 O   0  0  0  0  0  0  0  0  0  0  0  0
   62.6750   33.0170   48.5170 C   0  0  0  0  0  0  0  0  0  0  0  0
   62.5560   33.5570   49.8040 C   0  0  0  0  0  0  0  0  0  0  0  0
   63.5010   33.0720   50.6960 C   0  0  0  0  0  0  0  0  0  0  0  0
   64.4760   31.9750   49.8760 S   0  0  0  0  0  0  0  0  0  0  0  0
   63.7120   32.1020   48.3860 C   0  0  0  0  0  0  0  0  0  0  0  0
   60.4500   31.1770   47.8640 C   0  0  0  0  0  0  0  0  0  0  0  0
   59.2110   30.2640   47.7500 C   0  0  0  0  0  0  0  0  0  0  0  0
   59.0090   28.6500   44.5760 N   0  0  0  0  0  0  0  0  0  0  0  0
   58.7320   27.4810   43.9410 C   0  0  0  0  0  0  0  0  0  0  0  0
   57.7630   26.6080   44.4430 C   0  0  0  0  0  0  0  0  0  0  0  0
   57.5290   25.0790   43.5990 Cl  0  0  0  0  0  0  0  0  0  0  0  0
   53.9590   26.7130   46.3770 H   0  0  0  0  0  0  0  0  0  0  0  0
   56.8702   28.4453   47.1900 H   0  0  0  0  0  0  0  0  0  0  0  0
   58.7129   31.4529   44.6469 H   0  0  0  0  0  0  0  0  0  0  0  0
   57.3554   31.7655   45.7954 H   0  0  0  0  0  0  0  0  0  0  0  0
   59.3554   33.4892   45.6435 H   0  0  0  0  0  0  0  0  0  0  0  0
   58.6989   33.0332   47.2477 H   0  0  0  0  0  0  0  0  0  0  0  0
   61.7877   34.2941   50.0804 H   0  0  0  0  0  0  0  0  0  0  0  0
   63.5959   33.3555   51.7546 H   0  0  0  0  0  0  0  0  0  0  0  0
   63.9842   31.5577   47.4697 H   0  0  0  0  0  0  0  0  0  0  0  0
   61.3520   30.5474   47.8662 H   0  0  0  0  0  0  0  0  0  0  0  0
   60.3535   31.7530   48.7962 H   0  0  0  0  0  0  0  0  0  0  0  0
   59.4911   29.2395   48.0364 H   0  0  0  0  0  0  0  0  0  0  0  0
   58.4278   30.6498   48.4191 H   0  0  0  0  0  0  0  0  0  0  0  0
   59.7320   29.2790   44.1610 H   0  0  0  0  0  0  0  0  0  0  0  0
   59.2764   27.2190   43.0218 H   0  0  0  0  0  0  0  0  0  0  0  0
  1  2  1  0
  2  3  2  0
  2  4  1  0
  4  5  2  0
  5  6  1  0
  6  7  1  0
  7  8  1  0
  8  9  1  0
  9 10  1  0
 10 11  1  0
 11 12  2  0
 11 13  2  0
 11 14  1  0
 14 15  1  0
 15 16  2  0
 16 17  1  0
 17 18  1  0
 10 19  1  0
 19 20  1  0
  6 21  2  0
 21 22  1  0
 22 23  2  0
 23 24  1  0
 23  4  1  0
 20  7  1  0
 18 14  2  0
  1 25  1  0
  5 26  1  0
  8 27  1  0
  8 28  1  0
  9 29  1  0
  9 30  1  0
 15 31  1  0
 16 32  1  0
 18 33  1  0
 19 34  1  0
 19 35  1  0
 20 36  1  0
 20 37  1  0
 21 38  1  0
 22 39  1  0
M  CHG  2   1  -1  21   1
M  END
>  <UniqueID>  (18) 
18

>  <SMILES>  (18) 
[NH-]C(=O)c1cc(N2CCN(S(=O)(=O)c3ccsc3)CC2)[nH+]cc1Cl

>  <Energy>  (18) 
77.62295517800578

>  <Genealogy>  (18) 
[NH-]C(=O)c1cc(N2CCN(S(=O)(=O)c3ccsc3)CC2)[nH+]cc1Cl (protonated)
[NH-]C(=O)c1cc(N2CCN(S(=O)(=O)c3ccsc3)CC2)[nH+]cc1Cl (3D coordinates assigned)
[NH-]C(=O)c1cc(N2CCN(S(=O)(=O)c3ccsc3)CC2)[nH+]cc1Cl (nonaromatic ring conformer: 77.62295517800578 kcal/mol)

>  <smiles>  (18) 
NC(=O)c1cc(N2CCN(S(=O)(=O)c3ccsc3)CC2)ncc1Cl

>  <score_type>  (18) 
oracle

>  <origin>  (18) 
adg

>  <m_score__min__energy>  (18) 
-10.06

>  <m_primary>  (18) 
energy

$$$$
18:0
     RDKit          3D

 60 63  0  0  0  0  0  0  0  0999 V2000
   68.1510   25.5310   53.0690 C   0  0  0  0  0  0  0  0  0  0  0  0
   67.5290   26.0210   51.8270 N   0  0  0  0  0  0  0  0  0  0  0  0
   66.2510   26.7290   52.1140 C   0  0  0  0  0  0  0  0  0  0  0  0
   66.0380   27.9740   51.2480 C   0  0  0  0  0  0  0  0  0  0  0  0
   67.1980   28.8610   51.3920 N   0  0  0  0  0  0  0  0  0  0  0  0
   67.0320   30.2560   51.7050 C   0  0  0  0  0  0  0  0  0  0  0  0
   67.8230   30.8020   52.5220 O   0  0  0  0  0  0  0  0  0  0  0  0
   65.9470   31.0660   51.1020 C   0  0  0  0  0  0  0  0  0  0  0  0
   64.6220   30.9040   51.5360 C   0  0  0  0  0  0  0  0  0  0  0  0
   63.5920   31.6640   50.9710 C   0  0  0  0  0  0  0  0  0  0  0  0
   63.8710   32.5980   49.9610 C   0  0  0  0  0  0  0  0  0  0  0  0
   62.7880   33.4080   49.3600 C   0  0  0  0  0  0  0  0  0  0  0  0
   63.0580   34.5640   48.9290 O   0  0  0  0  0  0  0  0  0  0  0  0
   61.4460   32.8950   49.2330 N   0  0  0  0  0  0  0  0  0  0  0  0
   61.2360   31.4930   48.8310 C   0  0  0  0  0  0  0  0  0  0  0  0
   59.8070   31.2640   48.3220 C   0  0  0  0  0  0  0  0  0  0  0  0
   59.4220   32.3710   47.4310 N   0  0  0  0  0  0  0  0  0  0  0  0
   58.8280   32.1320   46.1400 C   0  0  0  0  0  0  0  0  0  0  0  0
   58.4940   33.1900   45.2810 C   0  0  0  0  0  0  0  0  0  0  0  0
   57.9130   32.9180   44.0390 C   0  0  0  0  0  0  0  0  0  0  0  0
   57.6360   31.5950   43.6640 C   0  0  0  0  0  0  0  0  0  0  0  0
   57.0200   31.3000   42.3490 C   0  0  0  0  0  0  0  0  0  0  0  0
   57.2170   32.1570   41.2210 N   0  0  0  0  0  0  0  0  0  0  0  0
   56.3110   30.2680   42.2130 O   0  0  0  0  0  0  0  0  0  0  0  0
   57.9690   30.5680   44.5620 C   0  0  0  0  0  0  0  0  0  0  0  0
   58.5460   30.8580   45.7580 N   0  0  0  0  0  0  0  0  0  0  0  0
   59.5660   33.7580   47.9050 C   0  0  0  0  0  0  0  0  0  0  0  0
   60.3020   33.8190   49.2490 C   0  0  0  0  0  0  0  0  0  0  0  0
   65.2010   32.7900   49.5560 C   0  0  0  0  0  0  0  0  0  0  0  0
   66.2310   32.0300   50.1200 C   0  0  0  0  0  0  0  0  0  0  0  0
   68.5450   28.2790   51.3780 C   0  0  0  0  0  0  0  0  0  0  0  0
   68.4990   26.7890   51.0040 C   0  0  0  0  0  0  0  0  0  0  0  0
   67.6189   25.9502   53.9357 H   0  0  0  0  0  0  0  0  0  0  0  0
   68.0935   24.4329   53.0994 H   0  0  0  0  0  0  0  0  0  0  0  0
   69.2051   25.8440   53.0994 H   0  0  0  0  0  0  0  0  0  0  0  0
   65.4186   26.0327   51.9344 H   0  0  0  0  0  0  0  0  0  0  0  0
   66.2936   27.0647   53.1607 H   0  0  0  0  0  0  0  0  0  0  0  0
   65.9300   27.6763   50.1946 H   0  0  0  0  0  0  0  0  0  0  0  0
   65.1267   28.4991   51.5703 H   0  0  0  0  0  0  0  0  0  0  0  0
   64.3917   30.1742   52.3261 H   0  0  0  0  0  0  0  0  0  0  0  0
   62.5577   31.5288   51.3203 H   0  0  0  0  0  0  0  0  0  0  0  0
   61.9460   31.2404   48.0297 H   0  0  0  0  0  0  0  0  0  0  0  0
   61.3964   30.8530   49.7112 H   0  0  0  0  0  0  0  0  0  0  0  0
   59.7624   30.3146   47.7682 H   0  0  0  0  0  0  0  0  0  0  0  0
   59.1150   31.2221   49.1761 H   0  0  0  0  0  0  0  0  0  0  0  0
   58.6886   34.2295   45.5837 H   0  0  0  0  0  0  0  0  0  0  0  0
   57.6723   33.7440   43.3536 H   0  0  0  0  0  0  0  0  0  0  0  0
   56.7180   31.9620   40.3240 H   0  0  0  0  0  0  0  0  0  0  0  0
   57.9050   32.9420   41.2420 H   0  0  0  0  0  0  0  0  0  0  0  0
   57.7614   29.5212   44.2955 H   0  0  0  0  0  0  0  0  0  0  0  0
   60.1347   34.3333   47.1596 H   0  0  0  0  0  0  0  0  0  0  0  0
   58.5603   34.1819   48.0426 H   0  0  0  0  0  0  0  0  0  0  0  0
   60.6627   34.8437   49.4216 H   0  0  0  0  0  0  0  0  0  0  0  0
   59.6117   33.5283   50.0546 H   0  0  0  0  0  0  0  0  0  0  0  0
   65.4351   33.5435   48.7896 H   0  0  0  0  0  0  0  0  0  0  0  0
   67.2693   32.1879   49.7929 H   0  0  0  0  0  0  0  0  0  0  0  0
   69.1608   28.8157   50.6413 H   0  0  0  0  0  0  0  0  0  0  0  0
   68.9775   28.3737   52.3850 H   0  0  0  0  0  0  0  0  0  0  0  0
   68.2107   26.7004   49.9461 H   0  0  0  0  0  0  0  0  0  0  0  0
   69.4984   26.3687   51.1898 H   0  0  0  0  0  0  0  0  0  0  0  0
  1  2  1  0
  2  3  1  0
  3  4  1  0
  4  5  1  0
  5  6  1  0
  6  7  2  0
  6  8  1  0
  8  9  2  0
  9 10  1  0
 10 11  2  0
 11 12  1  0
 12 13  2  0
 12 14  1  0
 14 15  1  0
 15 16  1  0
 16 17  1  0
 17 18  1  0
 18 19  2  0
 19 20  1  0
 20 21  2  0
 21 22  1  0
 22 23  1  0
 22 24  2  0
 21 25  1  0
 25 26  2  0
 17 27  1  0
 27 28  1  0
 11 29  1  0
 29 30  2  0
  5 31  1  0
 31 32  1  0
 32  2  1  0
 30  8  1  0
 28 14  1  0
 26 18  1  0
  1 33  1  0
  1 34  1  0
  1 35  1  0
  3 36  1  0
  3 37  1  0
  4 38  1  0
  4 39  1  0
  9 40  1  0
 10 41  1  0
 15 42  1  0
 15 43  1  0
 16 44  1  0
 16 45  1  0
 19 46  1  0
 20 47  1  0
 23 48  1  0
 23 49  1  0
 25 50  1  0
 27 51  1  0
 27 52  1  0
 28 53  1  0
 28 54  1  0
 29 55  1  0
 30 56  1  0
 31 57  1  0
 31 58  1  0
 32 59  1  0
 32 60  1  0
M  END
>  <UniqueID>  (19) 
19

>  <SMILES>  (19) 
CN1CCN(C(=O)c2ccc(C(=O)N3CCN(c4ccc(C(N)=O)cn4)CC3)cc2)CC1

>  <Energy>  (19) 
85.2324593467567

>  <Genealogy>  (19) 
CN1CCN(C(=O)c2ccc(C(=O)N3CCN(c4ccc(C(N)=O)cn4)CC3)cc2)CC1 (3D coordinates assigned)
CN1CCN(C(=O)c2ccc(C(=O)N3CCN(c4ccc(C(N)=O)cn4)CC3)cc2)CC1 (nonaromatic ring conformer: 85.2324593467567 kcal/mol)

>  <smiles>  (19) 
CN1CCN(C(=O)c2ccc(C(=O)N3CCN(c4ccc(C(N)=O)cn4)CC3)cc2)CC1

>  <score_type>  (19) 
oracle

>  <origin>  (19) 
adg

>  <m_score__min__energy>  (19) 
-8.5299999999999994

>  <m_primary>  (19) 
energy

$$$$
19:0
     RDKit          3D

 61 65  0  0  0  0  0  0  0  0999 V2000
   61.4083   27.7178   46.1855 H   0  0  0  0  0  0  0  0  0  0  0  0
   60.4290   27.3930   45.8040 C   0  0  0  0  0  0  0  0  0  0  0  0
   60.2378   26.3260   45.6173 H   0  0  0  0  0  0  0  0  0  0  0  0
   59.4660   28.3000   45.5660 C   0  0  0  0  0  0  0  0  0  0  0  0
   58.1820   28.0190   45.0820 C   0  0  0  0  0  0  0  0  0  0  0  0
   57.6850   26.8180   44.7230 C   0  0  0  0  0  0  0  0  0  0  0  0
   57.6786   26.5608   43.6535 H   0  0  0  0  0  0  0  0  0  0  0  0
   57.1500   25.8290   45.6750 C   0  0  0  0  0  0  0  0  0  0  0  0
   57.9000   24.8610   46.2320 N   0  0  0  0  0  0  0  0  0  0  0  0
   57.0470   24.2560   47.0890 C   0  0  0  0  0  0  0  0  0  0  0  0
   57.3840   23.2740   47.8000 O   0  0  0  0  0  0  0  0  0  0  0  0
   55.8100   24.7950   47.1310 N   0  0  0  0  0  0  0  0  0  0  0  0
   55.8940   25.7970   46.2410 C   0  0  0  0  0  0  0  0  0  0  0  0
   54.8600   26.6910   45.9920 O   0  0  0  0  0  0  0  0  0  0  0  0
   57.5230   29.2360   44.9980 C   0  0  0  0  0  0  0  0  0  0  0  0
   56.4920   29.4015   44.6521 H   0  0  0  0  0  0  0  0  0  0  0  0
   58.4100   30.1990   45.4320 C   0  0  0  0  0  0  0  0  0  0  0  0
   58.0830   31.6590   45.5330 C   0  0  0  0  0  0  0  0  0  0  0  0
   58.0183   31.9478   46.5924 H   0  0  0  0  0  0  0  0  0  0  0  0
   58.8718   32.2464   45.0403 H   0  0  0  0  0  0  0  0  0  0  0  0
   57.1190   31.8538   45.0403 H   0  0  0  0  0  0  0  0  0  0  0  0
   59.5930   29.6380   45.7800 N   0  0  0  0  0  0  0  0  0  0  0  0
   60.7400   30.3650   46.3520 C   0  0  0  0  0  0  0  0  0  0  0  0
   61.5864   29.6720   46.4680 H   0  0  0  0  0  0  0  0  0  0  0  0
   61.0133   31.1875   45.6747 H   0  0  0  0  0  0  0  0  0  0  0  0
   60.3820   30.9410   47.6990 C   0  0  0  0  0  0  0  0  0  0  0  0
   59.7960   30.1330   48.6850 C   0  0  0  0  0  0  0  0  0  0  0  0
   59.5709   29.0791   48.4646 H   0  0  0  0  0  0  0  0  0  0  0  0
   59.4960   30.6580   49.9460 C   0  0  0  0  0  0  0  0  0  0  0  0
   59.0431   30.0133   50.7136 H   0  0  0  0  0  0  0  0  0  0  0  0
   59.7700   32.0040   50.2370 C   0  0  0  0  0  0  0  0  0  0  0  0
   59.4880   32.5470   51.5420 N   0  0  0  0  0  0  0  0  0  0  0  0
   58.1210   32.9000   51.9210 C   0  0  0  0  0  0  0  0  0  0  0  0
   57.5094   33.0290   51.0159 H   0  0  0  0  0  0  0  0  0  0  0  0
   57.6888   32.0989   52.5387 H   0  0  0  0  0  0  0  0  0  0  0  0
   58.1440   34.2050   52.7130 C   0  0  0  0  0  0  0  0  0  0  0  0
   58.4794   35.0179   52.0521 H   0  0  0  0  0  0  0  0  0  0  0  0
   57.1281   34.3979   53.0882 H   0  0  0  0  0  0  0  0  0  0  0  0
   59.0610   34.1210   53.8770 N   0  0  2  0  0  0  0  0  0  0  0  0
   58.7080   33.3610   54.5090 H   0  0  0  0  0  0  0  0  0  0  0  0
   59.0040   35.4100   54.6210 C   0  0  0  0  0  0  0  0  0  0  0  0
   58.9635   36.2302   53.8891 H   0  0  0  0  0  0  0  0  0  0  0  0
   58.1103   35.3684   55.2610 H   0  0  0  0  0  0  0  0  0  0  0  0
   60.2090   35.6510   55.5530 C   0  0  0  0  0  0  0  0  0  0  0  0
   60.9327   36.3018   55.0405 H   0  0  0  0  0  0  0  0  0  0  0  0
   59.8422   36.1237   56.4760 H   0  0  0  0  0  0  0  0  0  0  0  0
   60.8960   34.3450   55.9260 C   0  0  0  0  0  0  0  0  0  0  0  0
   61.7461   34.5595   56.5903 H   0  0  0  0  0  0  0  0  0  0  0  0
   60.1715   33.6941   56.4374 H   0  0  0  0  0  0  0  0  0  0  0  0
   61.4050   33.6310   54.6690 C   0  0  0  0  0  0  0  0  0  0  0  0
   62.3843   34.0530   54.3991 H   0  0  0  0  0  0  0  0  0  0  0  0
   61.4693   32.5584   54.9045 H   0  0  0  0  0  0  0  0  0  0  0  0
   60.4480   33.7820   53.4510 C   0  0  1  0  0  0  0  0  0  0  0  0
   60.7955   34.6204   52.8295 H   0  0  0  0  0  0  0  0  0  0  0  0
   60.4820   32.4860   52.6130 C   0  0  0  0  0  0  0  0  0  0  0  0
   61.4827   32.3649   52.1727 H   0  0  0  0  0  0  0  0  0  0  0  0
   60.2515   31.6316   53.2664 H   0  0  0  0  0  0  0  0  0  0  0  0
   60.3460   32.8150   49.2470 C   0  0  0  0  0  0  0  0  0  0  0  0
   60.5619   33.8716   49.4636 H   0  0  0  0  0  0  0  0  0  0  0  0
   60.6470   32.2890   47.9880 C   0  0  0  0  0  0  0  0  0  0  0  0
   61.0944   32.9352   47.2184 H   0  0  0  0  0  0  0  0  0  0  0  0
  1  2  1  0
  2  3  1  0
  2  4  2  0
  4  5  1  0
  5  6  2  0
  6  7  1  0
  6  8  1  0
  8  9  1  0
  9 10  1  0
 10 11  2  0
 10 12  1  0
 12 13  1  0
 13 14  1  0
  5 15  1  0
 15 16  1  0
 15 17  2  0
 17 18  1  0
 18 19  1  0
 18 20  1  0
 18 21  1  0
 17 22  1  0
 22 23  1  0
 23 24  1  0
 23 25  1  0
 23 26  1  0
 26 27  2  0
 27 28  1  0
 27 29  1  0
 29 30  1  0
 29 31  2  0
 31 32  1  0
 32 33  1  0
 33 34  1  0
 33 35  1  0
 33 36  1  0
 36 37  1  0
 36 38  1  0
 36 39  1  0
 39 40  1  1
 39 41  1  0
 41 42  1  0
 41 43  1  0
 41 44  1  0
 44 45  1  0
 44 46  1  0
 44 47  1  0
 47 48  1  0
 47 49  1  0
 47 50  1  0
 50 51  1  0
 50 52  1  0
 50 53  1  0
 53 54  1  6
 53 55  1  0
 55 56  1  0
 55 57  1  0
 31 58  1  0
 58 59  1  0
 58 60  2  0
 60 61  1  0
 22  4  1  0
 60 26  1  0
 13  8  2  0
 55 32  1  0
 53 39  1  0
M  CHG  4   9  -1  12  -1  14  -1  39   1
M  END
>  <UniqueID>  (20) 
20

>  <SMILES>  (20) 
C=c1/c(=C/c2[n-]c(=O)[n-]c2[O-])cc(C)n1Cc1ccc(N2CC[N@@H+]3CCCC[C@H]3C2)cc1

>  <Energy>  (20) 
140.4309190992113

>  <Genealogy>  (20) 
C=c1c(=Cc2[n-]c(=O)[n-]c2[O-])cc(C)n1Cc1ccc(N2CC[NH+]3CCCCC3C2)cc1 (protonated)
C=c1c(=Cc2[n-]c(=O)[n-]c2[O-])cc(C)n1Cc1ccc(N2CC[N@@H+]3CCCC[C@H]3C2)cc1 (chirality)
C=c1/c(=C/c2[n-]c(=O)[n-]c2[O-])cc(C)n1Cc1ccc(N2CC[N@@H+]3CCCC[C@H]3C2)cc1 (cis-trans isomerization)
C=c1/c(=C/c2[n-]c(=O)[n-]c2[O-])cc(C)n1Cc1ccc(N2CC[N@@H+]3CCCC[C@H]3C2)cc1 (3D coordinates assigned)
C=c1/c(=C/c2[n-]c(=O)[n-]c2[O-])cc(C)n1Cc1ccc(N2CC[N@@H+]3CCCC[C@H]3C2)cc1 (nonaromatic ring conformer: 140.4309190992113 kcal/mol)

>  <smiles>  (20) 
C=c1c(=Cc2[nH]c(=O)[nH]c2O)cc(C)n1Cc1ccc(N2CCN3CCCCC3C2)cc1

>  <score_type>  (20) 
oracle

>  <origin>  (20) 
adg

>  <m_score__min__energy>  (20) 
-15.93

>  <m_primary>  (20) 
energy

$$$$
20:0
     RDKit          3D

 67 71  0  0  0  0  0  0  0  0999 V2000
   55.8360   29.0850   45.2370 O   0  0  0  0  0  0  0  0  0  0  0  0
   56.9550   28.5180   45.3500 C   0  0  0  0  0  0  0  0  0  0  0  0
   58.1290   29.2370   44.9570 N   0  0  0  0  0  0  0  0  0  0  0  0
   59.0960   30.2350   45.9970 S   0  0  0  0  0  0  0  0  0  0  0  0
   60.5590   30.0760   45.6920 O   0  0  0  0  0  0  0  0  0  0  0  0
   58.8620   29.8330   47.4260 O   0  0  0  0  0  0  0  0  0  0  0  0
   58.6390   31.9290   45.7500 C   0  0  0  0  0  0  0  0  0  0  0  0
   57.4440   32.2130   45.0730 C   0  0  0  0  0  0  0  0  0  0  0  0
   57.0190   33.5320   44.9020 C   0  0  0  0  0  0  0  0  0  0  0  0
   57.7810   34.5850   45.4120 C   0  0  0  0  0  0  0  0  0  0  0  0
   58.9760   34.3220   46.0810 C   0  0  0  0  0  0  0  0  0  0  0  0
   59.4290   33.0020   46.2410 C   0  0  0  0  0  0  0  0  0  0  0  0
   60.7210   32.7770   46.9200 C   0  0  0  0  0  0  0  0  0  0  0  0
   61.8400   33.5490   46.5790 C   0  0  0  0  0  0  0  0  0  0  0  0
   63.0490   33.3770   47.2620 C   0  0  0  0  0  0  0  0  0  0  0  0
   63.1500   32.4310   48.2940 C   0  0  0  0  0  0  0  0  0  0  0  0
   64.4510   32.2370   49.0230 C   0  0  0  0  0  0  0  0  0  0  0  0
   64.2550   32.4260   50.4630 N   0  0  0  0  0  0  0  0  0  0  0  0
   64.4870   31.3260   51.4010 C   0  0  0  0  0  0  0  0  0  0  0  0
   63.2130   31.0950   52.2200 C   0  0  0  0  0  0  0  0  0  0  0  0
   62.7600   32.3200   52.9330 N   0  0  0  0  0  0  0  0  0  0  0  0
   61.3200   32.3180   53.2750 C   0  0  0  0  0  0  0  0  0  0  0  0
   60.4020   32.3090   52.0680 C   0  0  0  0  0  0  0  0  0  0  0  0
   60.1750   33.4800   51.3240 C   0  0  0  0  0  0  0  0  0  0  0  0
   59.2940   33.4680   50.2380 C   0  0  0  0  0  0  0  0  0  0  0  0
   58.6140   32.2960   49.8990 C   0  0  0  0  0  0  0  0  0  0  0  0
   58.8240   31.1250   50.6370 C   0  0  0  0  0  0  0  0  0  0  0  0
   58.1420   29.9550   50.3180 O   0  0  0  0  0  0  0  0  0  0  0  0
   59.7200   31.1320   51.7130 C   0  0  0  0  0  0  0  0  0  0  0  0
   63.2780   33.6270   52.4520 C   0  0  0  0  0  0  0  0  0  0  0  0
   63.6160   33.5960   50.9930 C   0  0  0  0  0  0  0  0  0  0  0  0
   63.3770   34.5970   50.2630 O   0  0  0  0  0  0  0  0  0  0  0  0
   62.0410   31.6290   48.6030 C   0  0  0  0  0  0  0  0  0  0  0  0
   60.8380   31.7980   47.9160 C   0  0  0  0  0  0  0  0  0  0  0  0
   57.0150   27.1470   45.8890 C   0  0  0  0  0  0  0  0  0  0  0  0
   58.2430   26.5850   46.2730 C   0  0  0  0  0  0  0  0  0  0  0  0
   58.2740   25.2800   46.7680 C   0  0  0  0  0  0  0  0  0  0  0  0
   57.0920   24.5440   46.8620 C   0  0  0  0  0  0  0  0  0  0  0  0
   55.8900   25.1280   46.4570 C   0  0  0  0  0  0  0  0  0  0  0  0
   55.8780   26.4030   45.9830 N   0  0  0  0  0  0  0  0  0  0  0  0
   56.8356   31.3886   44.6728 H   0  0  0  0  0  0  0  0  0  0  0  0
   56.0824   33.7419   44.3647 H   0  0  0  0  0  0  0  0  0  0  0  0
   57.4385   35.6227   45.2860 H   0  0  0  0  0  0  0  0  0  0  0  0
   59.5688   35.1551   46.4868 H   0  0  0  0  0  0  0  0  0  0  0  0
   61.7675   34.2926   45.7717 H   0  0  0  0  0  0  0  0  0  0  0  0
   63.9238   33.9855   46.9891 H   0  0  0  0  0  0  0  0  0  0  0  0
   64.8238   31.2189   48.8372 H   0  0  0  0  0  0  0  0  0  0  0  0
   65.1808   32.9753   48.6593 H   0  0  0  0  0  0  0  0  0  0  0  0
   64.7382   30.4118   50.8431 H   0  0  0  0  0  0  0  0  0  0  0  0
   65.3210   31.5784   52.0724 H   0  0  0  0  0  0  0  0  0  0  0  0
   62.4125   30.7666   51.5408 H   0  0  0  0  0  0  0  0  0  0  0  0
   63.4395   30.3324   52.9797 H   0  0  0  0  0  0  0  0  0  0  0  0
   61.1084   31.4225   53.8778 H   0  0  0  0  0  0  0  0  0  0  0  0
   61.1202   33.2516   53.8213 H   0  0  0  0  0  0  0  0  0  0  0  0
   60.6932   34.4109   51.5976 H   0  0  0  0  0  0  0  0  0  0  0  0
   59.1362   34.3837   49.6494 H   0  0  0  0  0  0  0  0  0  0  0  0
   57.9129   32.2931   49.0514 H   0  0  0  0  0  0  0  0  0  0  0  0
   58.2600   29.4990   49.4200 H   0  0  0  0  0  0  0  0  0  0  0  0
   59.8918   30.2086   52.2855 H   0  0  0  0  0  0  0  0  0  0  0  0
   62.5111   34.3970   52.6223 H   0  0  0  0  0  0  0  0  0  0  0  0
   64.1996   33.8521   53.0088 H   0  0  0  0  0  0  0  0  0  0  0  0
   62.1200   30.8642   49.3897 H   0  0  0  0  0  0  0  0  0  0  0  0
   59.9761   31.1587   48.1578 H   0  0  0  0  0  0  0  0  0  0  0  0
   59.1719   27.1675   46.1847 H   0  0  0  0  0  0  0  0  0  0  0  0
   59.2282   24.8327   47.0833 H   0  0  0  0  0  0  0  0  0  0  0  0
   57.1071   23.5151   47.2509 H   0  0  0  0  0  0  0  0  0  0  0  0
   54.9522   24.5567   46.5213 H   0  0  0  0  0  0  0  0  0  0  0  0
  1  2  2  0
  2  3  1  0
  3  4  1  0
  4  5  2  0
  4  6  2  0
  4  7  1  0
  7  8  2  0
  8  9  1  0
  9 10  2  0
 10 11  1  0
 11 12  2  0
 12 13  1  0
 13 14  2  0
 14 15  1  0
 15 16  2  0
 16 17  1  0
 17 18  1  0
 18 19  1  0
 19 20  1  0
 20 21  1  0
 21 22  1  0
 22 23  1  0
 23 24  2  0
 24 25  1  0
 25 26  2  0
 26 27  1  0
 27 28  1  0
 27 29  2  0
 21 30  1  0
 30 31  1  0
 31 32  2  0
 16 33  1  0
 33 34  2  0
  2 35  1  0
 35 36  2  0
 36 37  1  0
 37 38  2  0
 38 39  1  0
 39 40  2  0
 12  7  1  0
 34 13  1  0
 40 35  1  0
 31 18  1  0
 29 23  1  0
  8 41  1  0
  9 42  1  0
 10 43  1  0
 11 44  1  0
 14 45  1  0
 15 46  1  0
 17 47  1  0
 17 48  1  0
 19 49  1  0
 19 50  1  0
 20 51  1  0
 20 52  1  0
 22 53  1  0
 22 54  1  0
 24 55  1  0
 25 56  1  0
 26 57  1  0
 28 58  1  0
 29 59  1  0
 30 60  1  0
 30 61  1  0
 33 62  1  0
 34 63  1  0
 36 64  1  0
 37 65  1  0
 38 66  1  0
 39 67  1  0
M  CHG  1   3  -1
M  END
>  <UniqueID>  (21) 
21

>  <SMILES>  (21) 
O=C([N-]S(=O)(=O)c1ccccc1-c1ccc(CN2CCN(Cc3cccc(O)c3)CC2=O)cc1)c1ccccn1

>  <Energy>  (21) 
91.0137144281204

>  <Genealogy>  (21) 
O=C([N-]S(=O)(=O)c1ccccc1-c1ccc(CN2CCN(Cc3cccc(O)c3)CC2=O)cc1)c1ccccn1 (protonated)
O=C([N-]S(=O)(=O)c1ccccc1-c1ccc(CN2CCN(Cc3cccc(O)c3)CC2=O)cc1)c1ccccn1 (3D coordinates assigned)
O=C([N-]S(=O)(=O)c1ccccc1-c1ccc(CN2CCN(Cc3cccc(O)c3)CC2=O)cc1)c1ccccn1 (nonaromatic ring conformer: 91.0137144281204 kcal/mol)

>  <smiles>  (21) 
O=C(NS(=O)(=O)c1ccccc1-c1ccc(CN2CCN(Cc3cccc(O)c3)CC2=O)cc1)c1ccccn1

>  <score_type>  (21) 
oracle

>  <origin>  (21) 
adg

>  <m_score__min__energy>  (21) 
-12.449999999999999

>  <m_primary>  (21) 
energy

$$$$
21:0
     RDKit          3D

 50 53  0  0  0  0  0  0  0  0999 V2000
   55.1500   26.6750   45.9370 O   0  0  0  0  0  0  0  0  0  0  0  0
   56.4010   26.8040   45.8290 C   0  0  0  0  0  0  0  0  0  0  0  0
   57.2570   25.6840   46.0860 N   0  0  0  0  0  0  0  0  0  0  0  0
   57.3630   24.4930   45.2930 C   0  0  0  0  0  0  0  0  0  0  0  0
   56.5390   24.3550   44.1690 C   0  0  0  0  0  0  0  0  0  0  0  0
   56.5950   23.1990   43.3860 C   0  0  0  0  0  0  0  0  0  0  0  0
   57.4650   22.1620   43.7310 C   0  0  0  0  0  0  0  0  0  0  0  0
   57.5160   21.0420   42.9710 F   0  0  0  0  0  0  0  0  0  0  0  0
   58.2740   22.2800   44.8650 C   0  0  0  0  0  0  0  0  0  0  0  0
   58.2220   23.4370   45.6490 C   0  0  0  0  0  0  0  0  0  0  0  0
   56.9630   28.0890   45.4960 N   0  0  0  0  0  0  0  0  0  0  0  0
   56.0630   29.1980   45.1420 C   0  0  0  0  0  0  0  0  0  0  0  0
   56.8210   30.3630   44.4970 C   0  0  0  0  0  0  0  0  0  0  0  0
   58.0040   30.7120   45.2920 N   0  0  0  0  0  0  0  0  0  0  0  0
   58.4970   32.0650   45.2650 C   0  0  0  0  0  0  0  0  0  0  0  0
   58.2830   32.7880   44.2560 O   0  0  0  0  0  0  0  0  0  0  0  0
   59.2880   32.6190   46.3870 C   0  0  0  0  0  0  0  0  0  0  0  0
   60.6830   32.4990   46.3760 C   0  0  0  0  0  0  0  0  0  0  0  0
   61.4500   33.0060   47.4340 C   0  0  0  0  0  0  0  0  0  0  0  0
   60.7870   33.6190   48.5190 C   0  0  0  0  0  0  0  0  0  0  0  0
   59.4340   33.7570   48.4880 N   0  0  0  0  0  0  0  0  0  0  0  0
   58.6760   33.2840   47.4640 C   0  0  0  0  0  0  0  0  0  0  0  0
   57.4290   33.4690   47.4840 O   0  0  0  0  0  0  0  0  0  0  0  0
   61.5460   34.2280   49.6690 C   0  0  0  0  0  0  0  0  0  0  0  0
   62.9610   33.6550   49.8020 C   0  0  0  0  0  0  0  0  0  0  0  0
   63.6710   33.6770   48.4490 C   0  0  0  0  0  0  0  0  0  0  0  0
   62.9430   32.7780   47.4410 C   0  0  0  0  0  0  0  0  0  0  0  0
   58.8310   29.6530   45.8900 C   0  0  0  0  0  0  0  0  0  0  0  0
   58.4200   28.2610   45.3960 C   0  0  0  0  0  0  0  0  0  0  0  0
   55.8424   25.1628   43.9005 H   0  0  0  0  0  0  0  0  0  0  0  0
   55.9535   23.1055   42.4973 H   0  0  0  0  0  0  0  0  0  0  0  0
   58.9535   21.4604   45.1415 H   0  0  0  0  0  0  0  0  0  0  0  0
   58.8538   23.5216   46.5455 H   0  0  0  0  0  0  0  0  0  0  0  0
   55.3062   28.8300   44.4336 H   0  0  0  0  0  0  0  0  0  0  0  0
   55.5938   29.5657   46.0665 H   0  0  0  0  0  0  0  0  0  0  0  0
   57.1385   30.0717   43.4849 H   0  0  0  0  0  0  0  0  0  0  0  0
   56.1548   31.2370   44.4497 H   0  0  0  0  0  0  0  0  0  0  0  0
   61.1811   32.0027   45.5301 H   0  0  0  0  0  0  0  0  0  0  0  0
   61.6179   35.3140   49.5095 H   0  0  0  0  0  0  0  0  0  0  0  0
   60.9998   33.9925   50.5943 H   0  0  0  0  0  0  0  0  0  0  0  0
   63.5317   34.2607   50.5213 H   0  0  0  0  0  0  0  0  0  0  0  0
   62.8945   32.6151   50.1545 H   0  0  0  0  0  0  0  0  0  0  0  0
   63.6882   34.7083   48.0667 H   0  0  0  0  0  0  0  0  0  0  0  0
   64.6968   33.3024   48.5813 H   0  0  0  0  0  0  0  0  0  0  0  0
   63.3361   32.9860   46.4349 H   0  0  0  0  0  0  0  0  0  0  0  0
   63.1197   31.7334   47.7369 H   0  0  0  0  0  0  0  0  0  0  0  0
   59.8832   29.8293   45.6222 H   0  0  0  0  0  0  0  0  0  0  0  0
   58.6895   29.6839   46.9804 H   0  0  0  0  0  0  0  0  0  0  0  0
   58.7272   28.1440   44.3463 H   0  0  0  0  0  0  0  0  0  0  0  0
   58.9119   27.5017   46.0217 H   0  0  0  0  0  0  0  0  0  0  0  0
  1  2  2  0
  2  3  1  0
  3  4  1  0
  4  5  2  0
  5  6  1  0
  6  7  2  0
  7  8  1  0
  7  9  1  0
  9 10  2  0
  2 11  1  0
 11 12  1  0
 12 13  1  0
 13 14  1  0
 14 15  1  0
 15 16  2  0
 15 17  1  0
 17 18  2  0
 18 19  1  0
 19 20  2  0
 20 21  1  0
 21 22  1  0
 22 23  2  0
 20 24  1  0
 24 25  1  0
 25 26  1  0
 26 27  1  0
 14 28  1  0
 28 29  1  0
 10  4  1  0
 29 11  1  0
 22 17  1  0
 27 19  1  0
  5 30  1  0
  6 31  1  0
  9 32  1  0
 10 33  1  0
 12 34  1  0
 12 35  1  0
 13 36  1  0
 13 37  1  0
 18 38  1  0
 24 39  1  0
 24 40  1  0
 25 41  1  0
 25 42  1  0
 26 43  1  0
 26 44  1  0
 27 45  1  0
 27 46  1  0
 28 47  1  0
 28 48  1  0
 29 49  1  0
 29 50  1  0
M  CHG  2   3  -1  21  -1
M  END
>  <UniqueID>  (22) 
22

>  <SMILES>  (22) 
O=C([N-]c1ccc(F)cc1)N1CCN(C(=O)c2cc3c([n-]c2=O)CCCC3)CC1

>  <Energy>  (22) 
62.03872923774681

>  <Genealogy>  (22) 
O=C([N-]c1ccc(F)cc1)N1CCN(C(=O)c2cc3c([n-]c2=O)CCCC3)CC1 (protonated)
O=C([N-]c1ccc(F)cc1)N1CCN(C(=O)c2cc3c([n-]c2=O)CCCC3)CC1 (3D coordinates assigned)
O=C([N-]c1ccc(F)cc1)N1CCN(C(=O)c2cc3c([n-]c2=O)CCCC3)CC1 (nonaromatic ring conformer: 62.03872923774681 kcal/mol)

>  <smiles>  (22) 
O=C(Nc1ccc(F)cc1)N1CCN(C(=O)c2cc3c([nH]c2=O)CCCC3)CC1

>  <score_type>  (22) 
oracle

>  <origin>  (22) 
adg

>  <m_score__min__energy>  (22) 
-11.26

>  <m_primary>  (22) 
energy

$$$$
22:0
     RDKit          3D

 55 58  0  0  0  0  0  0  0  0999 V2000
   58.2610   25.4320   45.3210 C   0  0  0  0  0  0  0  0  0  0  0  0
   57.2330   26.1530   46.5850 S   0  0  0  0  0  0  0  0  0  0  0  0
   58.1180   26.7250   47.6560 O   0  0  0  0  0  0  0  0  0  0  0  0
   56.3430   25.1090   47.1970 O   0  0  0  0  0  0  0  0  0  0  0  0
   56.2730   27.4320   45.9160 N   0  0  0  0  0  0  0  0  0  0  0  0
   56.7370   28.7480   45.5820 C   0  0  0  0  0  0  0  0  0  0  0  0
   57.9430   29.2660   46.0910 C   0  0  0  0  0  0  0  0  0  0  0  0
   58.3490   30.5710   45.7680 C   0  0  0  0  0  0  0  0  0  0  0  0
   59.6350   31.1170   46.3300 C   0  0  0  0  0  0  0  0  0  0  0  0
   59.7400   32.5730   46.0850 N   0  0  0  0  0  0  0  0  0  0  0  0
   58.7160   33.3710   46.7930 C   0  0  0  0  0  0  0  0  0  0  0  0
   58.8650   33.3130   48.3240 C   0  0  0  0  0  0  0  0  0  0  0  0
   60.3020   33.3620   48.7740 C   0  0  0  0  0  0  0  0  0  0  0  0
   60.5850   33.5040   50.1390 C   0  0  0  0  0  0  0  0  0  0  0  0
   61.9050   33.4960   50.5930 C   0  0  0  0  0  0  0  0  0  0  0  0
   62.9660   33.3540   49.6940 C   0  0  0  0  0  0  0  0  0  0  0  0
   64.2750   33.3670   50.2050 O   0  0  0  0  0  0  0  0  0  0  0  0
   65.4260   32.8500   49.5340 C   0  0  0  0  0  0  0  0  0  0  0  0
   66.5720   32.6840   50.4960 C   0  0  0  0  0  0  0  0  0  0  0  0
   66.7210   31.4850   51.2130 C   0  0  0  0  0  0  0  0  0  0  0  0
   67.7790   31.3300   52.1150 C   0  0  0  0  0  0  0  0  0  0  0  0
   68.7000   32.3650   52.3010 C   0  0  0  0  0  0  0  0  0  0  0  0
   68.5660   33.5560   51.5820 C   0  0  0  0  0  0  0  0  0  0  0  0
   67.5090   33.7160   50.6790 C   0  0  0  0  0  0  0  0  0  0  0  0
   62.6880   33.2070   48.3220 C   0  0  0  0  0  0  0  0  0  0  0  0
   61.3620   33.1900   47.8610 C   0  0  0  0  0  0  0  0  0  0  0  0
   61.0920   33.0870   46.3790 C   0  0  0  0  0  0  0  0  0  0  0  0
   57.5600   31.3490   44.9080 C   0  0  0  0  0  0  0  0  0  0  0  0
   56.3710   30.8320   44.3890 C   0  0  0  0  0  0  0  0  0  0  0  0
   55.9580   29.5410   44.7250 C   0  0  0  0  0  0  0  0  0  0  0  0
   54.7700   29.0440   44.2010 O   0  0  0  0  0  0  0  0  0  0  0  0
   59.0749   24.8611   45.7918 H   0  0  0  0  0  0  0  0  0  0  0  0
   57.6557   24.7595   44.6954 H   0  0  0  0  0  0  0  0  0  0  0  0
   58.6871   26.2302   44.6954 H   0  0  0  0  0  0  0  0  0  0  0  0
   58.5714   28.6446   46.7459 H   0  0  0  0  0  0  0  0  0  0  0  0
   59.6626   30.9309   47.4138 H   0  0  0  0  0  0  0  0  0  0  0  0
   60.4780   30.6144   45.8333 H   0  0  0  0  0  0  0  0  0  0  0  0
   58.8034   34.4192   46.4712 H   0  0  0  0  0  0  0  0  0  0  0  0
   57.7333   32.9461   46.5404 H   0  0  0  0  0  0  0  0  0  0  0  0
   58.3305   34.1690   48.7616 H   0  0  0  0  0  0  0  0  0  0  0  0
   58.4454   32.3537   48.6610 H   0  0  0  0  0  0  0  0  0  0  0  0
   59.7610   33.6226   50.8580 H   0  0  0  0  0  0  0  0  0  0  0  0
   62.1122   33.6024   51.6681 H   0  0  0  0  0  0  0  0  0  0  0  0
   65.1790   31.8724   49.0942 H   0  0  0  0  0  0  0  0  0  0  0  0
   65.7245   33.5578   48.7467 H   0  0  0  0  0  0  0  0  0  0  0  0
   66.0030   30.6650   51.0645 H   0  0  0  0  0  0  0  0  0  0  0  0
   67.8864   30.3918   52.6791 H   0  0  0  0  0  0  0  0  0  0  0  0
   69.5296   32.2422   53.0128 H   0  0  0  0  0  0  0  0  0  0  0  0
   69.2927   34.3691   51.7262 H   0  0  0  0  0  0  0  0  0  0  0  0
   67.4109   34.6525   50.1104 H   0  0  0  0  0  0  0  0  0  0  0  0
   63.5162   33.1046   47.6053 H   0  0  0  0  0  0  0  0  0  0  0  0
   61.1943   34.0866   45.9315 H   0  0  0  0  0  0  0  0  0  0  0  0
   61.8185   32.3779   45.9555 H   0  0  0  0  0  0  0  0  0  0  0  0
   57.8782   32.3678   44.6420 H   0  0  0  0  0  0  0  0  0  0  0  0
   55.7570   31.4445   43.7124 H   0  0  0  0  0  0  0  0  0  0  0  0
  1  2  1  0
  2  3  2  0
  2  4  2  0
  2  5  1  0
  5  6  1  0
  6  7  2  0
  7  8  1  0
  8  9  1  0
  9 10  1  0
 10 11  1  0
 11 12  1  0
 12 13  1  0
 13 14  2  0
 14 15  1  0
 15 16  2  0
 16 17  1  0
 17 18  1  0
 18 19  1  0
 19 20  2  0
 20 21  1  0
 21 22  2  0
 22 23  1  0
 23 24  2  0
 16 25  1  0
 25 26  2  0
 26 27  1  0
  8 28  2  0
 28 29  1  0
 29 30  2  0
 30 31  1  0
 30  6  1  0
 27 10  1  0
 26 13  1  0
 24 19  1  0
  1 32  1  0
  1 33  1  0
  1 34  1  0
  7 35  1  0
  9 36  1  0
  9 37  1  0
 11 38  1  0
 11 39  1  0
 12 40  1  0
 12 41  1  0
 14 42  1  0
 15 43  1  0
 18 44  1  0
 18 45  1  0
 20 46  1  0
 21 47  1  0
 22 48  1  0
 23 49  1  0
 24 50  1  0
 25 51  1  0
 27 52  1  0
 27 53  1  0
 28 54  1  0
 29 55  1  0
M  CHG  2   5  -1  31  -1
M  END
>  <UniqueID>  (23) 
23

>  <SMILES>  (23) 
CS(=O)(=O)[N-]c1cc(CN2CCc3ccc(OCc4ccccc4)cc3C2)ccc1[O-]

>  <Energy>  (23) 
63.32264699065968

>  <Genealogy>  (23) 
CS(=O)(=O)[N-]c1cc(CN2CCc3ccc(OCc4ccccc4)cc3C2)ccc1[O-] (protonated)
CS(=O)(=O)[N-]c1cc(CN2CCc3ccc(OCc4ccccc4)cc3C2)ccc1[O-] (3D coordinates assigned)
CS(=O)(=O)[N-]c1cc(CN2CCc3ccc(OCc4ccccc4)cc3C2)ccc1[O-] (nonaromatic ring conformer: 63.32264699065968 kcal/mol)

>  <smiles>  (23) 
CS(=O)(=O)Nc1cc(CN2CCc3ccc(OCc4ccccc4)cc3C2)ccc1O

>  <score_type>  (23) 
oracle

>  <origin>  (23) 
adg

>  <m_score__min__energy>  (23) 
-13.59

>  <m_primary>  (23) 
energy

$$$$
23:0
     RDKit          3D

 52 55  0  0  0  0  0  0  0  0999 V2000
   60.4970   28.0790   47.7230 C   0  0  0  0  0  0  0  0  0  0  0  0
   59.6150   27.4680   46.9300 C   0  0  0  0  0  0  0  0  0  0  0  0
   59.1440   26.2300   47.1740 N   0  0  0  0  0  0  0  0  0  0  0  0
   58.2610   25.9390   46.1970 C   0  0  0  0  0  0  0  0  0  0  0  0
   57.6150   24.7600   46.1410 C   0  0  0  0  0  0  0  0  0  0  0  0
   56.1610   24.5790   45.9410 C   0  0  0  0  0  0  0  0  0  0  0  0
   55.5260   23.4050   45.7710 N   0  0  0  0  0  0  0  0  0  0  0  0
   54.2370   23.7660   45.5930 C   0  0  0  0  0  0  0  0  0  0  0  0
   53.3180   22.9260   45.4060 O   0  0  0  0  0  0  0  0  0  0  0  0
   54.0110   25.0960   45.6320 N   0  0  0  0  0  0  0  0  0  0  0  0
   55.2390   25.5960   45.8470 C   0  0  0  0  0  0  0  0  0  0  0  0
   55.5140   26.9550   45.9580 O   0  0  0  0  0  0  0  0  0  0  0  0
   58.1700   27.0030   45.3090 C   0  0  0  0  0  0  0  0  0  0  0  0
   59.0290   27.9830   45.7800 C   0  0  0  0  0  0  0  0  0  0  0  0
   59.3220   29.2650   45.0970 C   0  0  0  0  0  0  0  0  0  0  0  0
   60.1570   29.2790   44.1520 O   0  0  0  0  0  0  0  0  0  0  0  0
   58.6370   30.4830   45.4500 N   0  0  0  0  0  0  0  0  0  0  0  0
   58.1350   30.7230   46.8080 C   0  0  0  0  0  0  0  0  0  0  0  0
   58.4780   32.1550   47.2470 C   0  0  0  0  0  0  0  0  0  0  0  0
   58.1340   33.2020   46.2410 N   0  0  0  0  0  0  0  0  0  0  0  0
   59.2530   34.1450   46.0120 C   0  0  0  0  0  0  0  0  0  0  0  0
   59.8060   34.6600   47.3460 C   0  0  0  0  0  0  0  0  0  0  0  0
   61.1770   34.1050   47.6030 C   0  0  0  0  0  0  0  0  0  0  0  0
   61.6300   33.8870   48.9120 C   0  0  0  0  0  0  0  0  0  0  0  0
   62.9220   33.3990   49.1170 C   0  0  0  0  0  0  0  0  0  0  0  0
   63.7500   33.1430   48.0230 C   0  0  0  0  0  0  0  0  0  0  0  0
   63.2710   33.3850   46.7330 C   0  0  0  0  0  0  0  0  0  0  0  0
   62.0100   33.8600   46.5540 N   0  0  0  0  0  0  0  0  0  0  0  0
   57.5960   32.6710   44.9680 C   0  0  0  0  0  0  0  0  0  0  0  0
   58.4460   31.5160   44.4260 C   0  0  0  0  0  0  0  0  0  0  0  0
   60.8490   29.0916   47.4766 H   0  0  0  0  0  0  0  0  0  0  0  0
   60.8722   27.5701   48.6232 H   0  0  0  0  0  0  0  0  0  0  0  0
   59.4100   25.6120   47.9750 H   0  0  0  0  0  0  0  0  0  0  0  0
   58.2224   23.8499   46.2540 H   0  0  0  0  0  0  0  0  0  0  0  0
   55.1460   27.6130   45.2810 H   0  0  0  0  0  0  0  0  0  0  0  0
   57.5400   27.0571   44.4089 H   0  0  0  0  0  0  0  0  0  0  0  0
   57.0433   30.5888   46.8223 H   0  0  0  0  0  0  0  0  0  0  0  0
   58.6065   30.0094   47.4997 H   0  0  0  0  0  0  0  0  0  0  0  0
   57.9272   32.3730   48.1739 H   0  0  0  0  0  0  0  0  0  0  0  0
   59.5692   32.1918   47.3811 H   0  0  0  0  0  0  0  0  0  0  0  0
   60.0546   33.6285   45.4636 H   0  0  0  0  0  0  0  0  0  0  0  0
   58.8823   35.0002   45.4279 H   0  0  0  0  0  0  0  0  0  0  0  0
   59.8614   35.7581   47.3139 H   0  0  0  0  0  0  0  0  0  0  0  0
   59.1358   34.3346   48.1553 H   0  0  0  0  0  0  0  0  0  0  0  0
   60.9738   34.0984   49.7691 H   0  0  0  0  0  0  0  0  0  0  0  0
   63.2866   33.2167   50.1387 H   0  0  0  0  0  0  0  0  0  0  0  0
   64.7681   32.7551   48.1747 H   0  0  0  0  0  0  0  0  0  0  0  0
   63.9144   33.1911   45.8621 H   0  0  0  0  0  0  0  0  0  0  0  0
   56.5713   32.3091   45.1384 H   0  0  0  0  0  0  0  0  0  0  0  0
   57.6114   33.4831   44.2262 H   0  0  0  0  0  0  0  0  0  0  0  0
   57.9387   31.0723   43.5566 H   0  0  0  0  0  0  0  0  0  0  0  0
   59.4310   31.9100   44.1354 H   0  0  0  0  0  0  0  0  0  0  0  0
  1  2  2  0
  2  3  1  0
  3  4  1  0
  4  5  2  3
  5  6  1  0
  6  7  1  0
  7  8  1  0
  8  9  2  0
  8 10  1  0
 10 11  1  0
 11 12  1  0
  4 13  1  0
 13 14  2  0
 14 15  1  0
 15 16  2  0
 15 17  1  0
 17 18  1  0
 18 19  1  0
 19 20  1  0
 20 21  1  0
 21 22  1  0
 22 23  1  0
 23 24  2  0
 24 25  1  0
 25 26  2  0
 26 27  1  0
 27 28  2  0
 20 29  1  0
 29 30  1  0
 14  2  1  0
 30 17  1  0
 11  6  2  0
 28 23  1  0
  1 31  1  0
  1 32  1  0
  3 33  1  0
  5 34  1  0
 12 35  1  0
 13 36  1  0
 18 37  1  0
 18 38  1  0
 19 39  1  0
 19 40  1  0
 21 41  1  0
 21 42  1  0
 22 43  1  0
 22 44  1  0
 24 45  1  0
 25 46  1  0
 26 47  1  0
 27 48  1  0
 29 49  1  0
 29 50  1  0
 30 51  1  0
 30 52  1  0
M  CHG  2   7  -1  10  -1
M  END
>  <UniqueID>  (24) 
24

>  <SMILES>  (24) 
C=c1[nH]c(=Cc2[n-]c(=O)[n-]c2O)cc1C(=O)N1CCN(CCc2ccccn2)CC1

>  <Energy>  (24) 
123.6838050424404

>  <Genealogy>  (24) 
C=c1[nH]c(=Cc2[n-]c(=O)[n-]c2O)cc1C(=O)N1CCN(CCc2ccccn2)CC1 (protonated)
C=c1[nH]c(=Cc2[n-]c(=O)[n-]c2O)cc1C(=O)N1CCN(CCc2ccccn2)CC1 (3D coordinates assigned)
C=c1[nH]c(=Cc2[n-]c(=O)[n-]c2O)cc1C(=O)N1CCN(CCc2ccccn2)CC1 (nonaromatic ring conformer: 123.6838050424404 kcal/mol)

>  <smiles>  (24) 
C=c1[nH]c(=Cc2[nH]c(=O)[nH]c2O)cc1C(=O)N1CCN(CCc2ccccn2)CC1

>  <score_type>  (24) 
oracle

>  <origin>  (24) 
adg

>  <m_score__min__energy>  (24) 
-13.73

>  <m_primary>  (24) 
energy

$$$$
24:0
     RDKit          3D

 59 62  0  0  0  0  0  0  0  0999 V2000
   55.9660   26.5080   46.3690 O   0  0  0  0  0  0  0  0  0  0  0  0
   57.0680   26.0520   45.9540 C   0  0  0  0  0  0  0  0  0  0  0  0
   57.9970   25.3640   46.9090 C   0  0  0  0  0  0  0  0  0  0  0  0
   59.0070   26.3640   47.4820 C   0  0  0  0  0  0  0  0  0  0  0  0
   58.4010   27.6820   47.6780 N   0  0  0  0  0  0  0  0  0  0  0  0
   59.0980   28.7170   48.3760 C   0  0  0  0  0  0  0  0  0  0  0  0
   60.1950   28.4620   48.9440 O   0  0  0  0  0  0  0  0  0  0  0  0
   58.5200   30.0250   48.4590 N   0  0  0  0  0  0  0  0  0  0  0  0
   58.6230   30.9300   49.5670 C   0  0  0  0  0  0  0  0  0  0  0  0
   58.1830   30.5730   50.8570 C   0  0  0  0  0  0  0  0  0  0  0  0
   58.2870   31.4790   51.9150 C   0  0  0  0  0  0  0  0  0  0  0  0
   58.8360   32.7450   51.7020 C   0  0  0  0  0  0  0  0  0  0  0  0
   59.3070   33.0980   50.4390 C   0  0  0  0  0  0  0  0  0  0  0  0
   59.2250   32.1850   49.3680 C   0  0  0  0  0  0  0  0  0  0  0  0
   59.6830   32.5170   48.0820 O   0  0  0  0  0  0  0  0  0  0  0  0
   61.0300   32.6090   47.6940 C   0  0  0  0  0  0  0  0  0  0  0  0
   61.5530   33.7660   47.0850 C   0  0  0  0  0  0  0  0  0  0  0  0
   62.9030   33.8210   46.7210 C   0  0  0  0  0  0  0  0  0  0  0  0
   63.7410   32.7300   46.9710 C   0  0  0  0  0  0  0  0  0  0  0  0
   63.2330   31.5870   47.5960 C   0  0  0  0  0  0  0  0  0  0  0  0
   61.8830   31.5300   47.9610 C   0  0  0  0  0  0  0  0  0  0  0  0
   57.4210   26.1540   44.5720 N   0  0  0  0  0  0  0  0  0  0  0  0
   58.4110   27.0950   44.0560 C   0  0  0  0  0  0  0  0  0  0  0  0
   58.1640   28.4790   44.5970 C   0  0  0  0  0  0  0  0  0  0  0  0
   56.8750   29.0280   44.6220 C   0  0  0  0  0  0  0  0  0  0  0  0
   56.6750   30.2740   45.1230 N   0  0  0  0  0  0  0  0  0  0  0  0
   57.7090   31.0110   45.6070 C   0  0  0  0  0  0  0  0  0  0  0  0
   57.4670   32.2930   46.1060 O   0  0  0  0  0  0  0  0  0  0  0  0
   57.4970   33.4580   45.2810 C   0  0  0  0  0  0  0  0  0  0  0  0
   58.5180   34.4830   45.7670 C   0  0  0  0  0  0  0  0  0  0  0  0
   59.3460   34.2490   44.5120 C   0  0  0  0  0  0  0  0  0  0  0  0
   58.3230   33.2330   44.0210 C   0  0  0  0  0  0  0  0  0  0  0  0
   58.9690   30.4930   45.5980 N   0  0  0  0  0  0  0  0  0  0  0  0
   59.2150   29.2500   45.1090 C   0  0  0  0  0  0  0  0  0  0  0  0
   57.4127   24.9265   47.7319 H   0  0  0  0  0  0  0  0  0  0  0  0
   58.5415   24.5736   46.3717 H   0  0  0  0  0  0  0  0  0  0  0  0
   59.3711   25.9899   48.4502 H   0  0  0  0  0  0  0  0  0  0  0  0
   59.8362   26.4671   46.7666 H   0  0  0  0  0  0  0  0  0  0  0  0
   57.4520   27.8910   47.2890 H   0  0  0  0  0  0  0  0  0  0  0  0
   57.7550   29.5749   51.0320 H   0  0  0  0  0  0  0  0  0  0  0  0
   57.9357   31.1946   52.9179 H   0  0  0  0  0  0  0  0  0  0  0  0
   58.8967   33.4643   52.5320 H   0  0  0  0  0  0  0  0  0  0  0  0
   59.7449   34.0939   50.2769 H   0  0  0  0  0  0  0  0  0  0  0  0
   60.8983   34.6292   46.8948 H   0  0  0  0  0  0  0  0  0  0  0  0
   63.3054   34.7235   46.2377 H   0  0  0  0  0  0  0  0  0  0  0  0
   64.7999   32.7709   46.6760 H   0  0  0  0  0  0  0  0  0  0  0  0
   63.8945   30.7324   47.8009 H   0  0  0  0  0  0  0  0  0  0  0  0
   61.4893   30.6326   48.4606 H   0  0  0  0  0  0  0  0  0  0  0  0
   59.4156   26.7635   44.3576 H   0  0  0  0  0  0  0  0  0  0  0  0
   58.3318   27.1251   42.9593 H   0  0  0  0  0  0  0  0  0  0  0  0
   56.0238   28.4486   44.2351 H   0  0  0  0  0  0  0  0  0  0  0  0
   56.4304   33.7197   45.2191 H   0  0  0  0  0  0  0  0  0  0  0  0
   58.1205   35.5045   45.8593 H   0  0  0  0  0  0  0  0  0  0  0  0
   58.9751   34.3859   46.7628 H   0  0  0  0  0  0  0  0  0  0  0  0
   59.4432   35.1349   43.8673 H   0  0  0  0  0  0  0  0  0  0  0  0
   60.4081   33.9738   44.5909 H   0  0  0  0  0  0  0  0  0  0  0  0
   57.8121   33.5233   43.0911 H   0  0  0  0  0  0  0  0  0  0  0  0
   58.6381   32.2186   43.7350 H   0  0  0  0  0  0  0  0  0  0  0  0
   60.2393   28.8491   45.1151 H   0  0  0  0  0  0  0  0  0  0  0  0
  1  2  2  0
  2  3  1  0
  3  4  1  0
  4  5  1  0
  5  6  1  0
  6  7  2  0
  6  8  1  0
  8  9  1  0
  9 10  2  0
 10 11  1  0
 11 12  2  0
 12 13  1  0
 13 14  2  0
 14 15  1  0
 15 16  1  0
 16 17  2  0
 17 18  1  0
 18 19  2  0
 19 20  1  0
 20 21  2  0
  2 22  1  0
 22 23  1  0
 23 24  1  0
 24 25  2  0
 25 26  1  0
 26 27  2  0
 27 28  1  0
 28 29  1  0
 29 30  1  0
 30 31  1  0
 31 32  1  0
 27 33  1  0
 33 34  2  0
 14  9  1  0
 21 16  1  0
 34 24  1  0
 32 29  1  0
  3 35  1  0
  3 36  1  0
  4 37  1  0
  4 38  1  0
  5 39  1  0
 10 40  1  0
 11 41  1  0
 12 42  1  0
 13 43  1  0
 17 44  1  0
 18 45  1  0
 19 46  1  0
 20 47  1  0
 21 48  1  0
 23 49  1  0
 23 50  1  0
 25 51  1  0
 29 52  1  0
 30 53  1  0
 30 54  1  0
 31 55  1  0
 31 56  1  0
 32 57  1  0
 32 58  1  0
 34 59  1  0
M  CHG  2   8  -1  22  -1
M  END
>  <UniqueID>  (25) 
25

>  <SMILES>  (25) 
O=C(CCNC(=O)[N-]c1ccccc1Oc1ccccc1)[N-]Cc1cnc(OC2CCC2)nc1

>  <Energy>  (25) 
123.4454121770007

>  <Genealogy>  (25) 
O=C(CCNC(=O)[N-]c1ccccc1Oc1ccccc1)[N-]Cc1cnc(OC2CCC2)nc1 (protonated)
O=C(CCNC(=O)[N-]c1ccccc1Oc1ccccc1)[N-]Cc1cnc(OC2CCC2)nc1 (3D coordinates assigned)
O=C(CCNC(=O)[N-]c1ccccc1Oc1ccccc1)[N-]Cc1cnc(OC2CCC2)nc1 (nonaromatic ring conformer: 123.4454121770007 kcal/mol)

>  <smiles>  (25) 
O=C(CCNC(=O)Nc1ccccc1Oc1ccccc1)NCc1cnc(OC2CCC2)nc1

>  <score_type>  (25) 
oracle

>  <origin>  (25) 
adg

>  <m_score__min__energy>  (25) 
-11.529999999999999

>  <m_primary>  (25) 
energy

$$$$
25:0
     RDKit          3D

 47 50  0  0  0  0  0  0  0  0999 V2000
   57.4310   25.2920   47.1770 H   0  0  0  0  0  0  0  0  0  0  0  0
   58.0620   26.0770   47.2860 O   0  0  0  0  0  0  0  0  0  0  0  0
   57.9230   27.2380   46.5270 C   0  0  0  0  0  0  0  0  0  0  0  0
   59.0120   28.1080   46.3740 C   0  0  0  0  0  0  0  0  0  0  0  0
   59.9835   27.8532   46.8226 H   0  0  0  0  0  0  0  0  0  0  0  0
   58.8690   29.2960   45.6550 C   0  0  0  0  0  0  0  0  0  0  0  0
   59.7293   29.9710   45.5355 H   0  0  0  0  0  0  0  0  0  0  0  0
   57.6340   29.6320   45.0850 C   0  0  0  0  0  0  0  0  0  0  0  0
   57.4570   31.1260   44.1600 S   0  0  0  0  0  0  0  0  0  0  0  0
   58.6990   31.3530   43.3440 O   0  0  0  0  0  0  0  0  0  0  0  0
   56.2960   30.9900   43.2130 O   0  0  0  0  0  0  0  0  0  0  0  0
   57.1940   32.5030   45.2060 N   0  0  0  0  0  0  0  0  0  0  0  0
   57.9310   32.3370   46.4730 C   0  0  0  0  0  0  0  0  0  0  0  0
   57.3566   31.6787   47.1414 H   0  0  0  0  0  0  0  0  0  0  0  0
   58.9144   31.8949   46.2551 H   0  0  0  0  0  0  0  0  0  0  0  0
   58.1410   33.6960   47.1610 C   0  0  0  0  0  0  0  0  0  0  0  0
   57.1539   34.1323   47.3739 H   0  0  0  0  0  0  0  0  0  0  0  0
   58.7247   33.5043   48.0735 H   0  0  0  0  0  0  0  0  0  0  0  0
   58.8850   34.6290   46.3840 O   0  0  0  0  0  0  0  0  0  0  0  0
   58.8380   34.3790   44.9860 C   0  0  0  0  0  0  0  0  0  0  0  0
   58.9976   35.3294   44.4557 H   0  0  0  0  0  0  0  0  0  0  0  0
   59.6225   33.6418   44.7600 H   0  0  0  0  0  0  0  0  0  0  0  0
   57.4990   33.7780   44.5200 C   0  0  0  0  0  0  0  0  0  0  0  0
   56.6941   34.4969   44.7327 H   0  0  0  0  0  0  0  0  0  0  0  0
   57.5758   33.5734   43.4419 H   0  0  0  0  0  0  0  0  0  0  0  0
   56.5420   28.7670   45.2450 C   0  0  0  0  0  0  0  0  0  0  0  0
   55.5624   29.0429   44.8274 H   0  0  0  0  0  0  0  0  0  0  0  0
   56.6870   27.5560   45.9310 C   0  0  0  0  0  0  0  0  0  0  0  0
   55.5430   26.6980   46.0660 N   0  0  0  0  0  0  0  0  0  0  0  0
   55.5230   25.4250   45.8000 C   0  0  0  0  0  0  0  0  0  0  0  0
   54.3460   24.7560   45.6560 N   0  0  0  0  0  0  0  0  0  0  0  0
   54.3130   23.4230   45.4000 C   0  0  0  0  0  0  0  0  0  0  0  0
   53.2000   22.8480   45.2710 O   0  0  0  0  0  0  0  0  0  0  0  0
   55.5170   22.7070   45.2840 C   0  0  0  0  0  0  0  0  0  0  0  0
   55.5450   21.3270   45.0190 C   0  0  0  0  0  0  0  0  0  0  0  0
   54.6036   20.7723   44.8927 H   0  0  0  0  0  0  0  0  0  0  0  0
   56.7670   20.6600   44.9160 C   0  0  0  0  0  0  0  0  0  0  0  0
   56.7851   19.5800   44.7078 H   0  0  0  0  0  0  0  0  0  0  0  0
   57.9670   21.3570   45.0760 C   0  0  0  0  0  0  0  0  0  0  0  0
   58.9242   20.8214   44.9938 H   0  0  0  0  0  0  0  0  0  0  0  0
   57.9610   22.7360   45.3410 C   0  0  0  0  0  0  0  0  0  0  0  0
   59.2600   23.4750   45.5110 C   0  0  0  0  0  0  0  0  0  0  0  0
   59.4748   23.5972   46.5829 H   0  0  0  0  0  0  0  0  0  0  0  0
   60.0717   22.9035   45.0372 H   0  0  0  0  0  0  0  0  0  0  0  0
   59.1835   24.4648   45.0372 H   0  0  0  0  0  0  0  0  0  0  0  0
   56.7290   23.4140   45.4450 C   0  0  0  0  0  0  0  0  0  0  0  0
   56.6970   24.7500   45.7010 N   0  0  0  0  0  0  0  0  0  0  0  0
  1  2  1  0
  2  3  1  0
  3  4  2  0
  4  5  1  0
  4  6  1  0
  6  7  1  0
  6  8  2  0
  8  9  1  0
  9 10  2  0
  9 11  2  0
  9 12  1  0
 12 13  1  0
 13 14  1  0
 13 15  1  0
 13 16  1  0
 16 17  1  0
 16 18  1  0
 16 19  1  0
 19 20  1  0
 20 21  1  0
 20 22  1  0
 20 23  1  0
 23 24  1  0
 23 25  1  0
  8 26  1  0
 26 27  1  0
 26 28  2  0
 28 29  1  0
 29 30  2  0
 30 31  1  0
 31 32  1  0
 32 33  2  0
 32 34  1  0
 34 35  2  0
 35 36  1  0
 35 37  1  0
 37 38  1  0
 37 39  2  0
 39 40  1  0
 39 41  1  0
 41 42  1  0
 42 43  1  0
 42 44  1  0
 42 45  1  0
 41 46  2  0
 46 47  1  0
 28  3  1  0
 47 30  1  0
 23 12  1  0
 46 34  1  0
M  CHG  2  31  -1  47  -1
M  END
>  <UniqueID>  (26) 
26

>  <SMILES>  (26) 
Cc1cccc2c(=O)[n-]/c(=N\c3cc(S(=O)(=O)N4CCOCC4)ccc3O)[n-]c12

>  <Energy>  (26) 
74.29105027069022

>  <Genealogy>  (26) 
Cc1cccc2c(=O)[n-]c(=Nc3cc(S(=O)(=O)N4CCOCC4)ccc3O)[n-]c12 (protonated)
Cc1cccc2c(=O)[n-]/c(=N\c3cc(S(=O)(=O)N4CCOCC4)ccc3O)[n-]c12 (cis-trans isomerization)
Cc1cccc2c(=O)[n-]/c(=N\c3cc(S(=O)(=O)N4CCOCC4)ccc3O)[n-]c12 (3D coordinates assigned)
Cc1cccc2c(=O)[n-]/c(=N\c3cc(S(=O)(=O)N4CCOCC4)ccc3O)[n-]c12 (nonaromatic ring conformer: 74.29105027069022 kcal/mol)

>  <smiles>  (26) 
Cc1cccc2c(=O)[nH]c(=Nc3cc(S(=O)(=O)N4CCOCC4)ccc3O)[nH]c12

>  <score_type>  (26) 
oracle

>  <origin>  (26) 
adg

>  <m_score__min__energy>  (26) 
-12.02

>  <m_primary>  (26) 
energy

$$$$
26:0
     RDKit          3D

 61 64  0  0  0  0  0  0  0  0999 V2000
   55.8980   29.9120   44.1940 C   0  0  0  0  0  0  0  0  0  0  0  0
   57.3010   30.3550   44.2100 N   0  0  0  0  0  0  0  0  0  0  0  0
   57.5310   31.4830   43.2680 C   0  0  0  0  0  0  0  0  0  0  0  0
   57.7990   32.8090   43.9900 C   0  0  0  0  0  0  0  0  0  0  0  0
   58.9750   32.6990   44.8760 N   0  0  0  0  0  0  0  0  0  0  0  0
   59.0290   34.0590   45.9760 S   0  0  0  0  0  0  0  0  0  0  0  0
   57.7020   34.1910   46.6710 O   0  0  0  0  0  0  0  0  0  0  0  0
   59.2750   35.3200   45.1960 O   0  0  0  0  0  0  0  0  0  0  0  0
   60.3030   33.8670   47.1850 C   0  0  0  0  0  0  0  0  0  0  0  0
   59.9880   33.8510   48.5480 C   0  0  0  0  0  0  0  0  0  0  0  0
   60.9960   33.7020   49.5070 C   0  0  0  0  0  0  0  0  0  0  0  0
   62.3410   33.5520   49.1180 C   0  0  0  0  0  0  0  0  0  0  0  0
   63.3980   33.3930   50.1580 C   0  0  0  0  0  0  0  0  0  0  0  0
   64.0880   32.1810   50.3420 C   0  0  0  0  0  0  0  0  0  0  0  0
   65.0630   32.1000   51.3430 C   0  0  0  0  0  0  0  0  0  0  0  0
   65.7630   30.8660   51.5720 N   0  0  0  0  0  0  0  0  0  0  0  0
   67.1770   30.7510   51.1850 C   0  0  0  0  0  0  0  0  0  0  0  0
   67.6680   29.3050   51.3020 C   0  0  0  0  0  0  0  0  0  0  0  0
   66.5800   28.4040   50.8950 N   0  0  0  0  0  0  0  0  0  0  0  0
   67.1800   26.7850   50.6210 S   0  0  0  0  0  0  0  0  0  0  0  0
   68.3630   26.2840   51.8620 C   0  0  0  0  0  0  0  0  0  0  0  0
   66.0310   25.8090   50.6250 O   0  0  0  0  0  0  0  0  0  0  0  0
   67.8440   26.7360   49.2760 O   0  0  0  0  0  0  0  0  0  0  0  0
   65.5040   28.3970   51.9070 C   0  0  0  0  0  0  0  0  0  0  0  0
   65.1330   29.8210   52.3920 C   0  0  0  0  0  0  0  0  0  0  0  0
   65.3300   33.1940   52.1130 N   0  0  0  0  0  0  0  0  0  0  0  0
   64.6720   34.3660   51.9130 C   0  0  0  0  0  0  0  0  0  0  0  0
   63.7220   34.4570   50.9480 N   0  0  0  0  0  0  0  0  0  0  0  0
   62.6460   33.5480   47.7400 C   0  0  0  0  0  0  0  0  0  0  0  0
   61.6370   33.7220   46.7890 C   0  0  0  0  0  0  0  0  0  0  0  0
   59.0650   31.4080   45.5970 C   0  0  0  0  0  0  0  0  0  0  0  0
   57.7380   30.6420   45.5940 C   0  0  0  0  0  0  0  0  0  0  0  0
   55.5376   29.7982   45.2270 H   0  0  0  0  0  0  0  0  0  0  0  0
   55.2833   30.6598   43.6715 H   0  0  0  0  0  0  0  0  0  0  0  0
   55.8242   28.9468   43.6715 H   0  0  0  0  0  0  0  0  0  0  0  0
   58.3997   31.2436   42.6371 H   0  0  0  0  0  0  0  0  0  0  0  0
   56.6169   31.6086   42.6691 H   0  0  0  0  0  0  0  0  0  0  0  0
   57.9835   33.5949   43.2428 H   0  0  0  0  0  0  0  0  0  0  0  0
   56.9202   33.0592   44.6024 H   0  0  0  0  0  0  0  0  0  0  0  0
   58.9408   33.9563   48.8679 H   0  0  0  0  0  0  0  0  0  0  0  0
   60.7351   33.7020   50.5756 H   0  0  0  0  0  0  0  0  0  0  0  0
   63.8646   31.3098   49.7086 H   0  0  0  0  0  0  0  0  0  0  0  0
   67.2922   31.0858   50.1435 H   0  0  0  0  0  0  0  0  0  0  0  0
   67.7754   31.3777   51.8626 H   0  0  0  0  0  0  0  0  0  0  0  0
   68.5379   29.1551   50.6457 H   0  0  0  0  0  0  0  0  0  0  0  0
   67.9629   29.0919   52.3401 H   0  0  0  0  0  0  0  0  0  0  0  0
   67.9423   26.4621   52.8627 H   0  0  0  0  0  0  0  0  0  0  0  0
   68.5873   25.2136   51.7438 H   0  0  0  0  0  0  0  0  0  0  0  0
   69.2878   26.8677   51.7438 H   0  0  0  0  0  0  0  0  0  0  0  0
   64.6100   27.9304   51.4675 H   0  0  0  0  0  0  0  0  0  0  0  0
   65.8694   27.8330   52.7779 H   0  0  0  0  0  0  0  0  0  0  0  0
   64.0407   29.9400   52.3403 H   0  0  0  0  0  0  0  0  0  0  0  0
   65.4983   29.9335   53.4234 H   0  0  0  0  0  0  0  0  0  0  0  0
   66.0620   33.1450   52.8580 H   0  0  0  0  0  0  0  0  0  0  0  0
   64.9097   35.2422   52.5341 H   0  0  0  0  0  0  0  0  0  0  0  0
   63.6864   33.4068   47.4119 H   0  0  0  0  0  0  0  0  0  0  0  0
   61.8938   33.7452   45.7197 H   0  0  0  0  0  0  0  0  0  0  0  0
   59.8326   30.7862   45.1131 H   0  0  0  0  0  0  0  0  0  0  0  0
   59.3231   31.6264   46.6437 H   0  0  0  0  0  0  0  0  0  0  0  0
   57.8679   29.6933   46.1354 H   0  0  0  0  0  0  0  0  0  0  0  0
   56.9723   31.2607   46.0847 H   0  0  0  0  0  0  0  0  0  0  0  0
  1  2  1  0
  2  3  1  0
  3  4  1  0
  4  5  1  0
  5  6  1  0
  6  7  2  0
  6  8  2  0
  6  9  1  0
  9 10  2  0
 10 11  1  0
 11 12  2  0
 12 13  1  0
 13 14  2  0
 14 15  1  0
 15 16  1  0
 16 17  1  0
 17 18  1  0
 18 19  1  0
 19 20  1  0
 20 21  1  0
 20 22  2  0
 20 23  2  0
 19 24  1  0
 24 25  1  0
 15 26  2  0
 26 27  1  0
 27 28  2  0
 12 29  1  0
 29 30  2  0
  5 31  1  0
 31 32  1  0
 32  2  1  0
 30  9  1  0
 28 13  1  0
 25 16  1  0
  1 33  1  0
  1 34  1  0
  1 35  1  0
  3 36  1  0
  3 37  1  0
  4 38  1  0
  4 39  1  0
 10 40  1  0
 11 41  1  0
 14 42  1  0
 17 43  1  0
 17 44  1  0
 18 45  1  0
 18 46  1  0
 21 47  1  0
 21 48  1  0
 21 49  1  0
 24 50  1  0
 24 51  1  0
 25 52  1  0
 25 53  1  0
 26 54  1  0
 27 55  1  0
 29 56  1  0
 30 57  1  0
 31 58  1  0
 31 59  1  0
 32 60  1  0
 32 61  1  0
M  CHG  1  26   1
M  END
>  <UniqueID>  (27) 
27

>  <SMILES>  (27) 
CN1CCN(S(=O)(=O)c2ccc(-c3cc(N4CCN(S(C)(=O)=O)CC4)[nH+]cn3)cc2)CC1

>  <Energy>  (27) 
80.5521077902861

>  <Genealogy>  (27) 
CN1CCN(S(=O)(=O)c2ccc(-c3cc(N4CCN(S(C)(=O)=O)CC4)[nH+]cn3)cc2)CC1 (protonated)
CN1CCN(S(=O)(=O)c2ccc(-c3cc(N4CCN(S(C)(=O)=O)CC4)[nH+]cn3)cc2)CC1 (3D coordinates assigned)
CN1CCN(S(=O)(=O)c2ccc(-c3cc(N4CCN(S(C)(=O)=O)CC4)[nH+]cn3)cc2)CC1 (nonaromatic ring conformer: 80.5521077902861 kcal/mol)

>  <smiles>  (27) 
CN1CCN(S(=O)(=O)c2ccc(-c3cc(N4CCN(S(C)(=O)=O)CC4)ncn3)cc2)CC1

>  <score_type>  (27) 
oracle

>  <origin>  (27) 
adg

>  <m_score__min__energy>  (27) 
-8.2699999999999996

>  <m_primary>  (27) 
energy

$$$$
27:0
     RDKit          3D

 50 52  0  0  0  0  0  0  0  0999 V2000
   63.3820   32.5270   47.0840 C   0  0  0  0  0  0  0  0  0  0  0  0
   62.6210   33.8370   47.2640 C   0  0  0  0  0  0  0  0  0  0  0  0
   61.5580   33.6990   48.3340 C   0  0  0  0  0  0  0  0  0  0  0  0
   60.1730   33.8080   48.0520 C   0  0  0  0  0  0  0  0  0  0  0  0
   59.6350   34.1510   46.6840 C   0  0  0  0  0  0  0  0  0  0  0  0
   58.9380   32.9700   46.0570 C   0  0  0  0  0  0  0  0  0  0  0  0
   59.5590   31.7130   46.0070 C   0  0  0  0  0  0  0  0  0  0  0  0
   58.8940   30.6260   45.4360 C   0  0  0  0  0  0  0  0  0  0  0  0
   57.6040   30.8000   44.9280 C   0  0  0  0  0  0  0  0  0  0  0  0
   56.7460   29.4500   44.2080 S   0  0  0  0  0  0  0  0  0  0  0  0
   55.1560   29.3410   44.8780 N   0  0  0  0  0  0  0  0  0  0  0  0
   57.4870   28.1740   44.4870 O   0  0  0  0  0  0  0  0  0  0  0  0
   56.6390   29.6580   42.7240 O   0  0  0  0  0  0  0  0  0  0  0  0
   57.0080   32.0210   44.9980 N   0  0  0  0  0  0  0  0  0  0  0  0
   57.6350   33.0950   45.5480 C   0  0  0  0  0  0  0  0  0  0  0  0
   59.2730   33.6270   49.0560 N   0  0  0  0  0  0  0  0  0  0  0  0
   59.6640   33.3280   50.3180 C   0  0  0  0  0  0  0  0  0  0  0  0
   58.4410   33.0420   51.5920 S   0  0  0  0  0  0  0  0  0  0  0  0
   59.0650   31.3810   52.0340 C   0  0  0  0  0  0  0  0  0  0  0  0
   59.4100   30.5810   50.8050 C   0  0  0  0  0  0  0  0  0  0  0  0
   60.6990   30.0510   50.6470 C   0  0  0  0  0  0  0  0  0  0  0  0
   61.0340   29.3490   49.4860 C   0  0  0  0  0  0  0  0  0  0  0  0
   60.0940   29.1720   48.4640 C   0  0  0  0  0  0  0  0  0  0  0  0
   60.4830   28.4670   47.3150 O   0  0  0  0  0  0  0  0  0  0  0  0
   59.7020   27.4530   46.6930 C   0  0  0  0  0  0  0  0  0  0  0  0
   58.8010   29.7060   48.6200 C   0  0  0  0  0  0  0  0  0  0  0  0
   58.4630   30.4040   49.7830 C   0  0  0  0  0  0  0  0  0  0  0  0
   60.9820   33.2080   50.6090 N   0  0  0  0  0  0  0  0  0  0  0  0
   61.9310   33.3790   49.6550 C   0  0  0  0  0  0  0  0  0  0  0  0
   63.1450   33.2440   49.9680 O   0  0  0  0  0  0  0  0  0  0  0  0
   63.6264   32.1064   48.0706 H   0  0  0  0  0  0  0  0  0  0  0  0
   62.7576   31.8139   46.5258 H   0  0  0  0  0  0  0  0  0  0  0  0
   64.3108   32.7162   46.5258 H   0  0  0  0  0  0  0  0  0  0  0  0
   63.3277   34.6272   47.5576 H   0  0  0  0  0  0  0  0  0  0  0  0
   62.1323   34.0944   46.3127 H   0  0  0  0  0  0  0  0  0  0  0  0
   58.9191   34.9808   46.7783 H   0  0  0  0  0  0  0  0  0  0  0  0
   60.4800   34.4370   46.0405 H   0  0  0  0  0  0  0  0  0  0  0  0
   60.5710   31.5835   46.4181 H   0  0  0  0  0  0  0  0  0  0  0  0
   59.3815   29.6412   45.3865 H   0  0  0  0  0  0  0  0  0  0  0  0
   55.1860   28.6070   45.6200 H   0  0  0  0  0  0  0  0  0  0  0  0
   57.1196   34.0657   45.5944 H   0  0  0  0  0  0  0  0  0  0  0  0
   59.9663   31.4904   52.6550 H   0  0  0  0  0  0  0  0  0  0  0  0
   58.2754   30.8486   52.5845 H   0  0  0  0  0  0  0  0  0  0  0  0
   61.4490   30.1884   51.4399 H   0  0  0  0  0  0  0  0  0  0  0  0
   62.0456   28.9317   49.3742 H   0  0  0  0  0  0  0  0  0  0  0  0
   59.2242   26.8326   47.4655 H   0  0  0  0  0  0  0  0  0  0  0  0
   58.9275   27.9193   46.0663 H   0  0  0  0  0  0  0  0  0  0  0  0
   60.3506   26.8232   46.0663 H   0  0  0  0  0  0  0  0  0  0  0  0
   58.0537   29.5735   47.8237 H   0  0  0  0  0  0  0  0  0  0  0  0
   57.4500   30.8168   49.8984 H   0  0  0  0  0  0  0  0  0  0  0  0
  1  2  1  0
  2  3  1  0
  3  4  2  0
  4  5  1  0
  5  6  1  0
  6  7  2  0
  7  8  1  0
  8  9  2  0
  9 10  1  0
 10 11  1  0
 10 12  2  0
 10 13  2  0
  9 14  1  0
 14 15  2  0
  4 16  1  0
 16 17  1  0
 17 18  1  0
 18 19  1  0
 19 20  1  0
 20 21  2  0
 21 22  1  0
 22 23  2  0
 23 24  1  0
 24 25  1  0
 23 26  1  0
 26 27  2  0
 17 28  2  0
 28 29  1  0
 29 30  2  0
 29  3  1  0
 15  6  1  0
 27 20  1  0
  1 31  1  0
  1 32  1  0
  1 33  1  0
  2 34  1  0
  2 35  1  0
  5 36  1  0
  5 37  1  0
  7 38  1  0
  8 39  1  0
 11 40  1  0
 15 41  1  0
 19 42  1  0
 19 43  1  0
 21 44  1  0
 22 45  1  0
 25 46  1  0
 25 47  1  0
 25 48  1  0
 26 49  1  0
 27 50  1  0
M  CHG  2  11  -1  16  -1
M  END
>  <UniqueID>  (28) 
28

>  <SMILES>  (28) 
CCc1c(Cc2ccc(S([NH-])(=O)=O)nc2)[n-]c(SCc2ccc(OC)cc2)nc1=O

>  <Energy>  (28) 
45.73877403431904

>  <Genealogy>  (28) 
CCc1c(Cc2ccc(S([NH-])(=O)=O)nc2)[n-]c(SCc2ccc(OC)cc2)nc1=O (protonated)
CCc1c(Cc2ccc(S([NH-])(=O)=O)nc2)[n-]c(SCc2ccc(OC)cc2)nc1=O (3D coordinates assigned)
CCc1c(Cc2ccc(S([NH-])(=O)=O)nc2)[n-]c(SCc2ccc(OC)cc2)nc1=O (optimized conformer: 45.73877403431904 kcal/mol)

>  <smiles>  (28) 
CCc1c(Cc2ccc(S(N)(=O)=O)nc2)[nH]c(SCc2ccc(OC)cc2)nc1=O

>  <score_type>  (28) 
oracle

>  <origin>  (28) 
adg

>  <m_score__min__energy>  (28) 
-12.470000000000001

>  <m_primary>  (28) 
energy

$$$$
28:0
     RDKit          3D

 58 60  0  0  0  0  0  0  0  0999 V2000
   56.6350   28.9960   42.6940 C   0  0  0  0  0  0  0  0  0  0  0  0
   56.7930   29.6840   44.0250 C   0  0  0  0  0  0  0  0  0  0  0  0
   56.6640   29.0160   45.1890 C   0  0  0  0  0  0  0  0  0  0  0  0
   57.6730   28.0170   45.7190 C   0  0  2  0  0  0  0  0  0  0  0  0
   56.9930   26.9480   46.5970 C   0  0  0  0  0  0  0  0  0  0  0  0
   56.0230   26.1240   45.8060 C   0  0  0  0  0  0  0  0  0  0  0  0
   56.4430   25.2640   44.9880 O   0  0  0  0  0  0  0  0  0  0  0  0
   54.6570   26.3390   45.9380 O   0  0  0  0  0  0  0  0  0  0  0  0
   58.7330   28.7590   46.5060 C   0  0  0  0  0  0  0  0  0  0  0  0
   59.8920   29.2470   45.8730 C   0  0  0  0  0  0  0  0  0  0  0  0
   60.8960   29.8710   46.6150 C   0  0  0  0  0  0  0  0  0  0  0  0
   60.7710   30.0060   48.0050 C   0  0  0  0  0  0  0  0  0  0  0  0
   61.8640   30.6230   48.7870 C   0  0  0  0  0  0  0  0  0  0  0  0
   61.9940   30.3060   50.0000 O   0  0  0  0  0  0  0  0  0  0  0  0
   62.7470   31.6070   48.2050 N   0  0  0  0  0  0  0  0  0  0  0  0
   64.0250   31.9320   48.8450 C   0  0  0  0  0  0  0  0  0  0  0  0
   63.9840   33.3650   49.4090 C   0  0  0  0  0  0  0  0  0  0  0  0
   63.1430   34.2990   48.6140 N   0  0  0  0  0  0  0  0  0  0  0  0
   61.8560   34.5770   49.2760 C   0  0  0  0  0  0  0  0  0  0  0  0
   62.9570   33.8670   47.2110 C   0  0  0  0  0  0  0  0  0  0  0  0
   62.2820   32.4870   47.1230 C   0  0  0  0  0  0  0  0  0  0  0  0
   59.6010   29.5570   48.6350 C   0  0  0  0  0  0  0  0  0  0  0  0
   58.5910   28.9360   47.8930 C   0  0  0  0  0  0  0  0  0  0  0  0
   57.0930   31.1360   44.0500 C   0  0  0  0  0  0  0  0  0  0  0  0
   57.4140   31.7210   42.9810 O   0  0  0  0  0  0  0  0  0  0  0  0
   56.9620   31.9130   45.2520 N   0  0  0  0  0  0  0  0  0  0  0  0
   57.8030   32.7990   45.7120 C   0  0  0  0  0  0  0  0  0  0  0  0
   58.3920   33.7890   44.8970 C   0  0  0  0  0  0  0  0  0  0  0  0
   59.2770   34.7090   45.4620 C   0  0  0  0  0  0  0  0  0  0  0  0
   59.5690   34.6480   46.8250 C   0  0  0  0  0  0  0  0  0  0  0  0
   58.9560   33.6700   47.6090 C   0  0  0  0  0  0  0  0  0  0  0  0
   58.0950   32.7830   47.0420 N   0  0  0  0  0  0  0  0  0  0  0  0
   56.3915   27.9356   42.8560 H   0  0  0  0  0  0  0  0  0  0  0  0
   55.8237   29.4761   42.1271 H   0  0  0  0  0  0  0  0  0  0  0  0
   57.5744   29.0740   42.1271 H   0  0  0  0  0  0  0  0  0  0  0  0
   55.7662   29.2090   45.7946 H   0  0  0  0  0  0  0  0  0  0  0  0
   58.1397   27.4945   44.8709 H   0  0  0  0  0  0  0  0  0  0  0  0
   57.7649   26.2863   47.0169 H   0  0  0  0  0  0  0  0  0  0  0  0
   56.4388   27.4600   47.3974 H   0  0  0  0  0  0  0  0  0  0  0  0
   60.0072   29.1356   44.7847 H   0  0  0  0  0  0  0  0  0  0  0  0
   61.7907   30.2592   46.1063 H   0  0  0  0  0  0  0  0  0  0  0  0
   64.2121   31.2232   49.6651 H   0  0  0  0  0  0  0  0  0  0  0  0
   64.8302   31.8611   48.0989 H   0  0  0  0  0  0  0  0  0  0  0  0
   63.5835   33.3235   50.4327 H   0  0  0  0  0  0  0  0  0  0  0  0
   65.0130   33.7523   49.3749 H   0  0  0  0  0  0  0  0  0  0  0  0
   61.9912   34.5478   50.3673 H   0  0  0  0  0  0  0  0  0  0  0  0
   61.4977   35.5732   48.9774 H   0  0  0  0  0  0  0  0  0  0  0  0
   61.1185   33.8174   48.9774 H   0  0  0  0  0  0  0  0  0  0  0  0
   62.3279   34.6049   46.6916 H   0  0  0  0  0  0  0  0  0  0  0  0
   63.9490   33.7931   46.7415 H   0  0  0  0  0  0  0  0  0  0  0  0
   61.1923   32.6130   47.2041 H   0  0  0  0  0  0  0  0  0  0  0  0
   62.5443   32.0277   46.1585 H   0  0  0  0  0  0  0  0  0  0  0  0
   59.4770   29.6941   49.7194 H   0  0  0  0  0  0  0  0  0  0  0  0
   57.6796   28.5839   48.3983 H   0  0  0  0  0  0  0  0  0  0  0  0
   58.1554   33.8355   43.8238 H   0  0  0  0  0  0  0  0  0  0  0  0
   59.7438   35.4814   44.8331 H   0  0  0  0  0  0  0  0  0  0  0  0
   60.2738   35.3621   47.2759 H   0  0  0  0  0  0  0  0  0  0  0  0
   59.1694   33.6164   48.6868 H   0  0  0  0  0  0  0  0  0  0  0  0
  1  2  1  0
  2  3  2  3
  3  4  1  0
  4  5  1  0
  5  6  1  0
  6  7  2  0
  6  8  1  0
  4  9  1  0
  9 10  2  0
 10 11  1  0
 11 12  2  0
 12 13  1  0
 13 14  2  0
 13 15  1  0
 15 16  1  0
 16 17  1  0
 17 18  1  0
 18 19  1  0
 18 20  1  0
 20 21  1  0
 12 22  1  0
 22 23  2  0
  2 24  1  0
 24 25  2  0
 24 26  1  0
 26 27  2  3
 27 28  1  0
 28 29  2  0
 29 30  1  0
 30 31  2  0
 31 32  1  0
 23  9  1  0
 32 27  1  0
 21 15  1  0
  1 33  1  0
  1 34  1  0
  1 35  1  0
  3 36  1  0
  4 37  1  6
  5 38  1  0
  5 39  1  0
 10 40  1  0
 11 41  1  0
 16 42  1  0
 16 43  1  0
 17 44  1  0
 17 45  1  0
 19 46  1  0
 19 47  1  0
 19 48  1  0
 20 49  1  0
 20 50  1  0
 21 51  1  0
 21 52  1  0
 22 53  1  0
 23 54  1  0
 28 55  1  0
 29 56  1  0
 30 57  1  0
 31 58  1  0
M  CHG  2   8  -1  32  -1
M  END
>  <UniqueID>  (29) 
29

>  <SMILES>  (29) 
CC(=C[C@H](CC(=O)[O-])c1ccc(C(=O)N2CCN(C)CC2)cc1)C(=O)N=c1cccc[n-]1

>  <Energy>  (29) 
77.37931301597008

>  <Genealogy>  (29) 
CC(=CC(CC(=O)[O-])c1ccc(C(=O)N2CCN(C)CC2)cc1)C(=O)N=c1cccc[n-]1 (protonated)
CC(=C[C@H](CC(=O)[O-])c1ccc(C(=O)N2CCN(C)CC2)cc1)C(=O)N=c1cccc[n-]1 (chirality)
CC(=C[C@H](CC(=O)[O-])c1ccc(C(=O)N2CCN(C)CC2)cc1)C(=O)N=c1cccc[n-]1 (3D coordinates assigned)
CC(=C[C@H](CC(=O)[O-])c1ccc(C(=O)N2CCN(C)CC2)cc1)C(=O)N=c1cccc[n-]1 (nonaromatic ring conformer: 77.37931301597008 kcal/mol)

>  <smiles>  (29) 
CC(=CC(CC(=O)O)c1ccc(C(=O)N2CCN(C)CC2)cc1)C(=O)N=c1cccc[nH]1

>  <score_type>  (29) 
oracle

>  <origin>  (29) 
adg

>  <m_score__min__energy>  (29) 
-13.300000000000001

>  <m_primary>  (29) 
energy

$$$$
29:0
     RDKit          3D

 46 49  0  0  0  0  0  0  0  0999 V2000
   55.0000   26.3420   45.9920 O   0  0  0  0  0  0  0  0  0  0  0  0
   56.0510   25.6450   45.9640 C   0  0  0  0  0  0  0  0  0  0  0  0
   57.1940   26.0360   46.7360 N   0  0  0  0  0  0  0  0  0  0  0  0
   57.8320   27.3210   46.7410 C   0  0  0  0  0  0  0  0  0  0  0  0
   59.0740   27.5370   47.3660 C   0  0  0  0  0  0  0  0  0  0  0  0
   59.6710   28.8000   47.3220 C   0  0  0  0  0  0  0  0  0  0  0  0
   59.0530   29.8460   46.6320 C   0  0  0  0  0  0  0  0  0  0  0  0
   57.8430   29.6330   45.9640 C   0  0  0  0  0  0  0  0  0  0  0  0
   57.2480   30.7220   45.2430 N   0  0  0  0  0  0  0  0  0  0  0  0
   57.9340   31.6810   44.4260 C   0  0  0  0  0  0  0  0  0  0  0  0
   57.9150   31.5280   43.1760 O   0  0  0  0  0  0  0  0  0  0  0  0
   58.6200   32.8650   45.0000 C   0  0  0  0  0  0  0  0  0  0  0  0
   58.2430   34.1560   44.6020 C   0  0  0  0  0  0  0  0  0  0  0  0
   58.8990   35.2740   45.1210 C   0  0  0  0  0  0  0  0  0  0  0  0
   59.9360   35.1170   46.0410 C   0  0  0  0  0  0  0  0  0  0  0  0
   60.3280   33.8330   46.4630 C   0  0  0  0  0  0  0  0  0  0  0  0
   61.4310   33.6420   47.4390 C   0  0  0  0  0  0  0  0  0  0  0  0
   62.5330   32.8150   47.1550 C   0  0  0  0  0  0  0  0  0  0  0  0
   63.5390   32.6570   48.1100 C   0  0  0  0  0  0  0  0  0  0  0  0
   63.4440   33.3130   49.3370 C   0  0  0  0  0  0  0  0  0  0  0  0
   62.3340   34.1180   49.5950 C   0  0  0  0  0  0  0  0  0  0  0  0
   61.3640   34.2610   48.6530 N   0  0  0  0  0  0  0  0  0  0  0  0
   59.6450   32.7140   45.9530 C   0  0  0  0  0  0  0  0  0  0  0  0
   57.2250   28.3720   46.0410 C   0  0  0  0  0  0  0  0  0  0  0  0
   56.1230   24.4510   45.0900 C   0  0  0  0  0  0  0  0  0  0  0  0
   57.3430   24.0410   44.5270 C   0  0  0  0  0  0  0  0  0  0  0  0
   57.3950   22.9110   43.7090 C   0  0  0  0  0  0  0  0  0  0  0  0
   56.2240   22.1950   43.4560 C   0  0  0  0  0  0  0  0  0  0  0  0
   56.2530   21.1740   42.7210 O   0  0  0  0  0  0  0  0  0  0  0  0
   55.0490   22.5990   44.0070 N   0  0  0  0  0  0  0  0  0  0  0  0
   54.9710   23.6950   44.8080 C   0  0  0  0  0  0  0  0  0  0  0  0
   59.5760   26.7104   47.8902 H   0  0  0  0  0  0  0  0  0  0  0  0
   60.6304   28.9710   47.8322 H   0  0  0  0  0  0  0  0  0  0  0  0
   59.5204   30.8416   46.6141 H   0  0  0  0  0  0  0  0  0  0  0  0
   57.4262   34.2884   43.8772 H   0  0  0  0  0  0  0  0  0  0  0  0
   58.5969   36.2828   44.8031 H   0  0  0  0  0  0  0  0  0  0  0  0
   60.4511   36.0035   46.4395 H   0  0  0  0  0  0  0  0  0  0  0  0
   62.6016   32.2965   46.1873 H   0  0  0  0  0  0  0  0  0  0  0  0
   64.4062   32.0154   47.8948 H   0  0  0  0  0  0  0  0  0  0  0  0
   64.2350   33.1971   50.0926 H   0  0  0  0  0  0  0  0  0  0  0  0
   62.2436   34.6370   50.5606 H   0  0  0  0  0  0  0  0  0  0  0  0
   59.9156   31.7071   46.3037 H   0  0  0  0  0  0  0  0  0  0  0  0
   56.2558   28.2093   45.5469 H   0  0  0  0  0  0  0  0  0  0  0  0
   58.2605   24.6123   44.7314 H   0  0  0  0  0  0  0  0  0  0  0  0
   58.3496   22.5880   43.2681 H   0  0  0  0  0  0  0  0  0  0  0  0
   54.0027   23.9917   45.2373 H   0  0  0  0  0  0  0  0  0  0  0  0
  1  2  2  0
  2  3  1  0
  3  4  1  0
  4  5  2  0
  5  6  1  0
  6  7  2  0
  7  8  1  0
  8  9  1  0
  9 10  1  0
 10 11  2  0
 10 12  1  0
 12 13  2  0
 13 14  1  0
 14 15  2  0
 15 16  1  0
 16 17  1  0
 17 18  2  0
 18 19  1  0
 19 20  2  0
 20 21  1  0
 21 22  2  0
 16 23  2  0
  8 24  2  0
  2 25  1  0
 25 26  1  0
 26 27  2  0
 27 28  1  0
 28 29  2  0
 28 30  1  0
 30 31  1  0
 24  4  1  0
 31 25  2  0
 23 12  1  0
 22 17  1  0
  5 32  1  0
  6 33  1  0
  7 34  1  0
 13 35  1  0
 14 36  1  0
 15 37  1  0
 18 38  1  0
 19 39  1  0
 20 40  1  0
 21 41  1  0
 23 42  1  0
 24 43  1  0
 26 44  1  0
 27 45  1  0
 31 46  1  0
M  CHG  3   3  -1   9  -1  30  -1
M  END
>  <UniqueID>  (30) 
30

>  <SMILES>  (30) 
O=C([N-]c1cccc([N-]C(=O)c2cccc(-c3ccccn3)c2)c1)c1ccc(=O)[n-]c1

>  <Energy>  (30) 
67.30798911911145

>  <Genealogy>  (30) 
O=C([N-]c1cccc([N-]C(=O)c2cccc(-c3ccccn3)c2)c1)c1ccc(=O)[n-]c1 (protonated)
O=C([N-]c1cccc([N-]C(=O)c2cccc(-c3ccccn3)c2)c1)c1ccc(=O)[n-]c1 (3D coordinates assigned)
O=C([N-]c1cccc([N-]C(=O)c2cccc(-c3ccccn3)c2)c1)c1ccc(=O)[n-]c1 (optimized conformer: 67.30798911911145 kcal/mol)

>  <smiles>  (30) 
O=C(Nc1cccc(NC(=O)c2cccc(-c3ccccn3)c2)c1)c1ccc(=O)[nH]c1

>  <score_type>  (30) 
oracle

>  <origin>  (30) 
adg

>  <m_score__min__energy>  (30) 
-15.380000000000001

>  <m_primary>  (30) 
energy

$$$$
30:0
     RDKit          3D

 42 44  0  0  0  0  0  0  0  0999 V2000
   57.7630   32.3400   41.8450 C   0  0  0  0  0  0  0  0  0  0  0  0
   57.9510   32.3760   43.1750 C   0  0  0  0  0  0  0  0  0  0  0  0
   58.6010   33.4640   43.6670 N   0  0  0  0  0  0  0  0  0  0  0  0
   58.8400   33.6680   44.9860 C   0  0  0  0  0  0  0  0  0  0  0  0
   59.5610   34.9200   45.3910 C   0  0  0  0  0  0  0  0  0  0  0  0
   58.4150   32.7090   45.9230 C   0  0  0  0  0  0  0  0  0  0  0  0
   58.7340   32.8250   47.3680 C   0  0  0  0  0  0  0  0  0  0  0  0
   57.7830   32.9020   48.1940 O   0  0  0  0  0  0  0  0  0  0  0  0
   60.0930   32.9090   47.8490 N   0  0  0  0  0  0  0  0  0  0  0  0
   61.1980   32.2300   47.1550 C   0  0  0  0  0  0  0  0  0  0  0  0
   62.4220   33.1530   47.0860 C   0  0  0  0  0  0  0  0  0  0  0  0
   62.7500   33.8420   48.4300 C   0  0  0  0  0  0  0  0  0  0  0  0
   61.8150   33.4290   49.5740 C   0  0  0  0  0  0  0  0  0  0  0  0
   60.3460   33.5480   49.1510 C   0  0  0  0  0  0  0  0  0  0  0  0
   57.7330   31.5760   45.4570 C   0  0  0  0  0  0  0  0  0  0  0  0
   57.4820   31.3730   44.0800 C   0  0  0  0  0  0  0  0  0  0  0  0
   56.8640   30.2380   43.6610 C   0  0  0  0  0  0  0  0  0  0  0  0
   56.8650   28.9640   44.4030 C   0  0  0  0  0  0  0  0  0  0  0  0
   55.7980   28.4900   45.0700 N   0  0  0  0  0  0  0  0  0  0  0  0
   56.2690   27.3610   45.6450 C   0  0  0  0  0  0  0  0  0  0  0  0
   55.5500   26.6120   46.3550 O   0  0  0  0  0  0  0  0  0  0  0  0
   57.5730   27.1030   45.4030 N   0  0  0  0  0  0  0  0  0  0  0  0
   57.9410   28.1340   44.6260 C   0  0  0  0  0  0  0  0  0  0  0  0
   59.2420   28.3210   44.1670 O   0  0  0  0  0  0  0  0  0  0  0  0
   57.2435   31.4860   41.3859 H   0  0  0  0  0  0  0  0  0  0  0  0
   58.1286   33.1646   41.2153 H   0  0  0  0  0  0  0  0  0  0  0  0
   59.5975   34.9834   46.4886 H   0  0  0  0  0  0  0  0  0  0  0  0
   60.5854   34.8990   44.9907 H   0  0  0  0  0  0  0  0  0  0  0  0
   59.0287   35.7955   44.9907 H   0  0  0  0  0  0  0  0  0  0  0  0
   61.4634   31.3136   47.7026 H   0  0  0  0  0  0  0  0  0  0  0  0
   60.8800   31.9758   46.1331 H   0  0  0  0  0  0  0  0  0  0  0  0
   63.2927   32.5546   46.7797 H   0  0  0  0  0  0  0  0  0  0  0  0
   62.1877   33.9482   46.3630 H   0  0  0  0  0  0  0  0  0  0  0  0
   63.7810   33.5820   48.7120 H   0  0  0  0  0  0  0  0  0  0  0  0
   62.6186   34.9237   48.2794 H   0  0  0  0  0  0  0  0  0  0  0  0
   62.0260   32.3860   49.8527 H   0  0  0  0  0  0  0  0  0  0  0  0
   61.9895   34.0985   50.4292 H   0  0  0  0  0  0  0  0  0  0  0  0
   59.7169   33.0637   49.9124 H   0  0  0  0  0  0  0  0  0  0  0  0
   60.1053   34.6172   49.0570 H   0  0  0  0  0  0  0  0  0  0  0  0
   57.3840   30.8253   46.1814 H   0  0  0  0  0  0  0  0  0  0  0  0
   56.3259   30.2719   42.7022 H   0  0  0  0  0  0  0  0  0  0  0  0
   59.4390   28.8990   43.3590 H   0  0  0  0  0  0  0  0  0  0  0  0
  1  2  2  0
  2  3  1  0
  3  4  2  0
  4  5  1  0
  4  6  1  0
  6  7  1  0
  7  8  2  0
  7  9  1  0
  9 10  1  0
 10 11  1  0
 11 12  1  0
 12 13  1  0
 13 14  1  0
  6 15  2  0
 15 16  1  0
 16 17  2  3
 17 18  1  0
 18 19  1  0
 19 20  1  0
 20 21  2  0
 20 22  1  0
 22 23  1  0
 23 24  1  0
 16  2  1  0
 23 18  2  0
 14  9  1  0
  1 25  1  0
  1 26  1  0
  5 27  1  0
  5 28  1  0
  5 29  1  0
 10 30  1  0
 10 31  1  0
 11 32  1  0
 11 33  1  0
 12 34  1  0
 12 35  1  0
 13 36  1  0
 13 37  1  0
 14 38  1  0
 14 39  1  0
 15 40  1  0
 17 41  1  0
 24 42  1  0
M  CHG  2  19  -1  22  -1
M  END
>  <UniqueID>  (31) 
31

>  <SMILES>  (31) 
C=c1nc(C)c(C(=O)N2CCCCC2)cc1=Cc1[n-]c(=O)[n-]c1O

>  <Energy>  (31) 
93.70582122983717

>  <Genealogy>  (31) 
C=c1nc(C)c(C(=O)N2CCCCC2)cc1=Cc1[n-]c(=O)[n-]c1O (protonated)
C=c1nc(C)c(C(=O)N2CCCCC2)cc1=Cc1[n-]c(=O)[n-]c1O (3D coordinates assigned)
C=c1nc(C)c(C(=O)N2CCCCC2)cc1=Cc1[n-]c(=O)[n-]c1O (nonaromatic ring conformer: 93.70582122983717 kcal/mol)

>  <smiles>  (31) 
C=c1nc(C)c(C(=O)N2CCCCC2)cc1=Cc1[nH]c(=O)[nH]c1O

>  <score_type>  (31) 
oracle

>  <origin>  (31) 
adg

>  <m_score__min__energy>  (31) 
-12.92

>  <m_primary>  (31) 
energy

$$$$
31:0
     RDKit          3D

 56 58  0  0  0  0  0  0  0  0999 V2000
   54.3880   26.7240   45.0980 H   0  0  0  0  0  0  0  0  0  0  0  0
   54.8280   26.6590   46.0080 O   0  0  0  0  0  0  0  0  0  0  0  0
   55.9130   25.8160   46.2420 C   0  0  0  0  0  0  0  0  0  0  0  0
   55.8150   24.6630   46.9240 N   0  0  0  0  0  0  0  0  0  0  0  0
   57.0910   24.2230   46.9550 C   0  0  0  0  0  0  0  0  0  0  0  0
   57.4230   23.1490   47.5220 O   0  0  0  0  0  0  0  0  0  0  0  0
   57.9840   25.0280   46.3380 N   0  0  0  0  0  0  0  0  0  0  0  0
   57.2240   26.0310   45.8630 C   0  0  0  0  0  0  0  0  0  0  0  0
   57.7810   27.2100   45.1680 C   0  0  0  0  0  0  0  0  0  0  0  0
   57.6060   27.2906   44.0850 H   0  0  0  0  0  0  0  0  0  0  0  0
   58.4940   28.2040   45.7650 C   0  0  0  0  0  0  0  0  0  0  0  0
   59.2000   27.9350   46.9610 C   0  0  0  0  0  0  0  0  0  0  0  0
   59.1752   26.9171   47.3772 H   0  0  0  0  0  0  0  0  0  0  0  0
   59.9290   28.9240   47.6310 C   0  0  0  0  0  0  0  0  0  0  0  0
   60.6980   28.5620   48.8770 C   0  0  0  0  0  0  0  0  0  0  0  0
   61.7467   28.8734   48.7616 H   0  0  0  0  0  0  0  0  0  0  0  0
   60.6476   27.4739   49.0301 H   0  0  0  0  0  0  0  0  0  0  0  0
   60.1010   29.2560   50.0660 C   0  0  0  0  0  0  0  0  0  0  0  0
   60.6938   29.3428   50.9885 H   0  0  0  0  0  0  0  0  0  0  0  0
   58.8670   29.7720   50.0340 C   0  0  0  0  0  0  0  0  0  0  0  0
   58.4579   30.2748   50.9227 H   0  0  0  0  0  0  0  0  0  0  0  0
   58.2615   29.6934   49.1190 H   0  0  0  0  0  0  0  0  0  0  0  0
   59.9820   30.2230   47.1100 C   0  0  0  0  0  0  0  0  0  0  0  0
   60.7530   31.1870   47.7810 O   0  0  0  0  0  0  0  0  0  0  0  0
   62.0510   31.6190   47.3790 C   0  0  0  0  0  0  0  0  0  0  0  0
   62.8055   30.9053   47.7414 H   0  0  0  0  0  0  0  0  0  0  0  0
   62.1007   31.6721   46.2814 H   0  0  0  0  0  0  0  0  0  0  0  0
   62.3250   33.0010   47.9750 C   0  0  0  0  0  0  0  0  0  0  0  0
   62.6262   32.8763   49.0256 H   0  0  0  0  0  0  0  0  0  0  0  0
   63.1187   33.4676   47.3731 H   0  0  0  0  0  0  0  0  0  0  0  0
   61.1010   33.9310   47.9230 C   0  0  0  0  0  0  0  0  0  0  0  0
   60.2414   33.3964   48.3533 H   0  0  0  0  0  0  0  0  0  0  0  0
   61.3633   34.8358   48.4910 H   0  0  0  0  0  0  0  0  0  0  0  0
   60.7250   34.3890   46.5020 C   0  0  0  0  0  0  0  0  0  0  0  0
   61.2515   35.3297   46.2832 H   0  0  0  0  0  0  0  0  0  0  0  0
   61.0182   33.5910   45.8040 H   0  0  0  0  0  0  0  0  0  0  0  0
   59.2680   34.6120   46.3470 N   0  0  0  0  0  0  0  0  0  0  0  0
   58.8700   34.6300   44.9170 C   0  0  0  0  0  0  0  0  0  0  0  0
   58.1465   35.4435   44.7595 H   0  0  0  0  0  0  0  0  0  0  0  0
   59.7765   34.7828   44.3129 H   0  0  0  0  0  0  0  0  0  0  0  0
   58.2260   33.3000   44.4830 C   0  0  0  0  0  0  0  0  0  0  0  0
   57.9572   33.3741   43.4189 H   0  0  0  0  0  0  0  0  0  0  0  0
   58.9636   32.5062   44.6725 H   0  0  0  0  0  0  0  0  0  0  0  0
   57.0560   32.9690   45.2210 O   0  0  0  0  0  0  0  0  0  0  0  0
   57.0660   33.4630   46.5560 C   0  0  0  0  0  0  0  0  0  0  0  0
   56.5614   34.4404   46.5686 H   0  0  0  0  0  0  0  0  0  0  0  0
   56.5508   32.7172   47.1791 H   0  0  0  0  0  0  0  0  0  0  0  0
   58.4790   33.6380   47.1390 C   0  0  0  0  0  0  0  0  0  0  0  0
   58.3978   33.9995   48.1747 H   0  0  0  0  0  0  0  0  0  0  0  0
   58.9922   32.6656   47.1072 H   0  0  0  0  0  0  0  0  0  0  0  0
   59.2740   30.5240   45.9380 C   0  0  0  0  0  0  0  0  0  0  0  0
   59.2986   31.5514   45.5458 H   0  0  0  0  0  0  0  0  0  0  0  0
   58.5310   29.5430   45.2490 C   0  0  0  0  0  0  0  0  0  0  0  0
   57.9250   29.9220   44.1040 C   0  0  0  0  0  0  0  0  0  0  0  0
   57.9932   30.9663   43.7652 H   0  0  0  0  0  0  0  0  0  0  0  0
   57.3630   29.1866   43.5096 H   0  0  0  0  0  0  0  0  0  0  0  0
  1  2  1  0
  2  3  1  0
  3  4  1  0
  4  5  1  0
  5  6  2  0
  5  7  1  0
  7  8  1  0
  8  9  1  0
  9 10  1  0
  9 11  2  0
 11 12  1  0
 12 13  1  0
 12 14  2  0
 14 15  1  0
 15 16  1  0
 15 17  1  0
 15 18  1  0
 18 19  1  0
 18 20  2  0
 20 21  1  0
 20 22  1  0
 14 23  1  0
 23 24  1  0
 24 25  1  0
 25 26  1  0
 25 27  1  0
 25 28  1  0
 28 29  1  0
 28 30  1  0
 28 31  1  0
 31 32  1  0
 31 33  1  0
 31 34  1  0
 34 35  1  0
 34 36  1  0
 34 37  1  0
 37 38  1  0
 38 39  1  0
 38 40  1  0
 38 41  1  0
 41 42  1  0
 41 43  1  0
 41 44  1  0
 44 45  1  0
 45 46  1  0
 45 47  1  0
 45 48  1  0
 48 49  1  0
 48 50  1  0
 23 51  2  0
 51 52  1  0
 51 53  1  0
 53 54  2  0
 54 55  1  0
 54 56  1  0
  8  3  2  0
 53 11  1  0
 48 37  1  0
M  CHG  2   4  -1   7  -1
M  END
>  <UniqueID>  (32) 
32

>  <SMILES>  (32) 
C=CCc1c/c(=C\c2[n-]c(=O)[n-]c2O)c(=C)cc1OCCCCN1CCOCC1

>  <Energy>  (32) 
109.26286794364346

>  <Genealogy>  (32) 
C=CCc1cc(=Cc2[n-]c(=O)[n-]c2O)c(=C)cc1OCCCCN1CCOCC1 (protonated)
C=CCc1c/c(=C\c2[n-]c(=O)[n-]c2O)c(=C)cc1OCCCCN1CCOCC1 (cis-trans isomerization)
C=CCc1c/c(=C\c2[n-]c(=O)[n-]c2O)c(=C)cc1OCCCCN1CCOCC1 (3D coordinates assigned)
C=CCc1c/c(=C\c2[n-]c(=O)[n-]c2O)c(=C)cc1OCCCCN1CCOCC1 (nonaromatic ring conformer: 109.26286794364346 kcal/mol)

>  <smiles>  (32) 
C=CCc1cc(=Cc2[nH]c(=O)[nH]c2O)c(=C)cc1OCCCCN1CCOCC1

>  <score_type>  (32) 
oracle

>  <origin>  (32) 
adg

>  <m_score__min__energy>  (32) 
-13.74

>  <m_primary>  (32) 
energy

$$$$
32:0
     RDKit          3D

 37 39  0  0  1  0  0  0  0  0999 V2000
   61.1070   28.9740   45.2030 C   0  0  0  0  0  0  0  0  0  0  0  0
   60.0420   28.4900   45.7870 C   0  0  0  0  0  0  0  0  0  0  0  0
   59.8280   26.6390   46.0340 S   0  0  0  0  0  0  0  0  0  0  0  0
   58.2480   26.8640   46.7940 C   0  0  0  0  0  0  0  0  0  0  0  0
   57.4890   25.8560   47.2680 C   0  0  0  0  0  0  0  0  0  0  0  0
   56.7760   25.0370   46.3030 C   0  0  0  0  0  0  0  0  0  0  0  0
   57.3590   23.5050   45.5610 S   0  0  0  0  0  0  0  0  0  0  0  0
   55.7820   23.3220   44.5500 C   0  0  0  0  0  0  0  0  0  0  0  0
   55.6110   22.3570   43.7830 O   0  0  0  0  0  0  0  0  0  0  0  0
   55.0620   24.3930   44.8960 N   0  0  0  0  0  0  0  0  0  0  0  0
   55.5420   25.2380   45.7520 C   0  0  0  0  0  0  0  0  0  0  0  0
   54.7980   26.4030   46.1490 O   0  0  0  0  0  0  0  0  0  0  0  0
   57.9950   28.1670   46.8190 C   0  0  0  0  0  0  0  0  0  0  0  0
   58.9040   29.0310   46.3060 C   0  0  0  0  0  0  0  0  0  0  0  0
   58.6860   30.5300   46.3050 C   0  0  0  0  0  0  0  0  0  0  0  0
   58.2790   31.0110   44.9890 C   0  0  0  0  0  0  0  0  0  0  0  0
   57.7100   30.1550   44.0440 C   0  0  0  0  0  0  0  0  0  0  0  0
   57.3130   30.6100   42.8270 N   0  0  0  0  0  0  0  0  0  0  0  0
   57.4550   31.9030   42.4950 C   0  0  0  0  0  0  0  0  0  0  0  0
   57.0880   32.3360   41.3640 O   0  0  0  0  0  0  0  0  0  0  0  0
   57.9970   32.7580   43.3760 N   0  0  0  0  0  0  0  0  0  0  0  0
   58.4020   32.3320   44.5940 C   0  0  0  0  0  0  0  0  0  0  0  0
   58.9630   33.2170   45.5030 O   0  0  0  0  0  0  0  0  0  0  0  0
   58.8630   34.6000   45.2370 C   0  0  0  0  0  0  0  0  0  0  0  0
   61.2142   30.0603   45.0675 H   0  0  0  0  0  0  0  0  0  0  0  0
   61.8958   28.2949   44.8472 H   0  0  0  0  0  0  0  0  0  0  0  0
   57.4122   25.6604   48.3477 H   0  0  0  0  0  0  0  0  0  0  0  0
   54.0920   24.5170   44.4380 H   0  0  0  0  0  0  0  0  0  0  0  0
   54.7740   26.6760   47.1220 H   0  0  0  0  0  0  0  0  0  0  0  0
   57.0560   28.5418   47.2522 H   0  0  0  0  0  0  0  0  0  0  0  0
   57.9007   30.7773   47.0344 H   0  0  0  0  0  0  0  0  0  0  0  0
   59.6358   31.0167   46.5715 H   0  0  0  0  0  0  0  0  0  0  0  0
   57.5805   29.0907   44.2899 H   0  0  0  0  0  0  0  0  0  0  0  0
   56.8850   29.9650   42.1080 H   0  0  0  0  0  0  0  0  0  0  0  0
   58.8229   35.1540   46.1864 H   0  0  0  0  0  0  0  0  0  0  0  0
   59.7399   34.9265   44.6587 H   0  0  0  0  0  0  0  0  0  0  0  0
   57.9483   34.7970   44.6587 H   0  0  0  0  0  0  0  0  0  0  0  0
  1  2  2  0
  2  3  1  0
  3  4  1  0
  4  5  2  0
  5  6  1  0
  6  7  1  0
  7  8  1  0
  8  9  2  0
  8 10  1  0
 10 11  1  0
 11 12  1  0
  4 13  1  0
 13 14  2  0
 14 15  1  0
 15 16  1  0
 16 17  2  0
 17 18  1  0
 18 19  1  0
 19 20  2  0
 19 21  1  0
 21 22  2  0
 22 23  1  0
 23 24  1  0
 14  2  1  0
 22 16  1  0
 11  6  2  0
  1 25  1  0
  1 26  1  0
  5 27  1  0
 10 28  1  0
 12 29  1  0
 13 30  1  0
 15 31  1  0
 15 32  1  0
 17 33  1  0
 18 34  1  0
 24 35  1  0
 24 36  1  0
 24 37  1  0
M  END
>  <smiles>  (33) 
C=c1sc(=Cc2sc(=O)[nH]c2O)cc1Cc1c[nH]c(=O)nc1OC

>  <score_type>  (33) 
oracle

>  <origin>  (33) 
adg

>  <m_score__min__energy>  (33) 
-8.5299999999999994

>  <m_primary>  (33) 
energy

$$$$
33:0
     RDKit          3D

 44 46  0  0  0  0  0  0  0  0999 V2000
   67.1630   33.1100   50.4600 C   0  0  0  0  0  0  0  0  0  0  0  0
   66.0660   32.4510   50.0920 C   0  0  0  0  0  0  0  0  0  0  0  0
   64.8190   33.1200   49.6800 C   0  0  0  0  0  0  0  0  0  0  0  0
   64.2330   33.8630   50.5120 O   0  0  0  0  0  0  0  0  0  0  0  0
   64.2990   32.9870   48.3450 N   0  0  0  0  0  0  0  0  0  0  0  0
   62.9340   33.2690   47.9900 C   0  0  0  0  0  0  0  0  0  0  0  0
   62.5840   33.6790   46.6910 C   0  0  0  0  0  0  0  0  0  0  0  0
   61.2540   33.9710   46.3790 C   0  0  0  0  0  0  0  0  0  0  0  0
   60.2630   33.8630   47.3570 C   0  0  0  0  0  0  0  0  0  0  0  0
   60.5980   33.4620   48.6620 C   0  0  0  0  0  0  0  0  0  0  0  0
   59.6370   33.3570   49.6790 O   0  0  0  0  0  0  0  0  0  0  0  0
   59.0660   32.1550   50.1130 C   0  0  0  0  0  0  0  0  0  0  0  0
   59.1620   31.0590   49.3160 N   0  0  0  0  0  0  0  0  0  0  0  0
   58.6330   29.8630   49.6820 C   0  0  0  0  0  0  0  0  0  0  0  0
   58.7420   28.8480   48.8750 N   0  0  0  0  0  0  0  0  0  0  0  0
   58.8690   28.8920   47.4430 C   0  0  0  0  0  0  0  0  0  0  0  0
   60.0400   28.4720   46.7840 C   0  0  0  0  0  0  0  0  0  0  0  0
   60.1340   28.5600   45.3930 C   0  0  0  0  0  0  0  0  0  0  0  0
   59.0750   29.0860   44.6500 C   0  0  0  0  0  0  0  0  0  0  0  0
   57.9200   29.5450   45.2980 C   0  0  0  0  0  0  0  0  0  0  0  0
   56.5850   30.2130   44.3660 S   0  0  0  0  0  0  0  0  0  0  0  0
   55.1570   29.2840   44.6540 N   0  0  0  0  0  0  0  0  0  0  0  0
   56.9170   30.1810   42.9000 O   0  0  0  0  0  0  0  0  0  0  0  0
   56.3450   31.6400   44.7740 O   0  0  0  0  0  0  0  0  0  0  0  0
   57.8240   29.4490   46.6940 C   0  0  0  0  0  0  0  0  0  0  0  0
   57.9640   29.7600   50.8630 N   0  0  0  0  0  0  0  0  0  0  0  0
   57.8260   30.8290   51.6880 C   0  0  0  0  0  0  0  0  0  0  0  0
   58.3700   32.0630   51.3300 C   0  0  0  0  0  0  0  0  0  0  0  0
   58.1030   33.4600   52.3640 Cl  0  0  0  0  0  0  0  0  0  0  0  0
   61.9340   33.1850   48.9720 C   0  0  0  0  0  0  0  0  0  0  0  0
   68.0646   32.5544   50.7575 H   0  0  0  0  0  0  0  0  0  0  0  0
   67.1677   34.2100   50.4665 H   0  0  0  0  0  0  0  0  0  0  0  0
   66.0918   31.3513   50.0957 H   0  0  0  0  0  0  0  0  0  0  0  0
   64.9730   32.7920   47.5710 H   0  0  0  0  0  0  0  0  0  0  0  0
   63.3608   33.7701   45.9175 H   0  0  0  0  0  0  0  0  0  0  0  0
   60.9865   34.2870   45.3599 H   0  0  0  0  0  0  0  0  0  0  0  0
   59.2170   34.0924   47.1054 H   0  0  0  0  0  0  0  0  0  0  0  0
   60.8837   28.0732   47.3663 H   0  0  0  0  0  0  0  0  0  0  0  0
   61.0444   28.2141   44.8817 H   0  0  0  0  0  0  0  0  0  0  0  0
   59.1474   29.1402   43.5537 H   0  0  0  0  0  0  0  0  0  0  0  0
   55.2470   28.8780   45.6140 H   0  0  0  0  0  0  0  0  0  0  0  0
   56.9209   29.8140   47.2050 H   0  0  0  0  0  0  0  0  0  0  0  0
   57.2848   30.7224   52.6397 H   0  0  0  0  0  0  0  0  0  0  0  0
   62.2045   32.8976   49.9988 H   0  0  0  0  0  0  0  0  0  0  0  0
  1  2  2  0
  2  3  1  0
  3  4  2  0
  3  5  1  0
  5  6  1  0
  6  7  2  0
  7  8  1  0
  8  9  2  0
  9 10  1  0
 10 11  1  0
 11 12  1  0
 12 13  2  0
 13 14  1  0
 14 15  2  3
 15 16  1  0
 16 17  2  0
 17 18  1  0
 18 19  2  0
 19 20  1  0
 20 21  1  0
 21 22  1  0
 21 23  2  0
 21 24  2  0
 20 25  2  0
 14 26  1  0
 26 27  1  0
 27 28  2  0
 28 29  1  0
 10 30  2  0
 30  6  1  0
 28 12  1  0
 25 16  1  0
  1 31  1  0
  1 32  1  0
  2 33  1  0
  5 34  1  0
  7 35  1  0
  8 36  1  0
  9 37  1  0
 17 38  1  0
 18 39  1  0
 19 40  1  0
 22 41  1  0
 25 42  1  0
 27 43  1  0
 30 44  1  0
M  CHG  2  22  -1  26  -1
M  END
>  <UniqueID>  (34) 
33

>  <SMILES>  (34) 
C=CC(=O)Nc1cccc(Oc2nc(=Nc3cccc(S([NH-])(=O)=O)c3)[n-]cc2Cl)c1

>  <Energy>  (34) 
65.18863883051888

>  <Genealogy>  (34) 
C=CC(=O)Nc1cccc(Oc2nc(=Nc3cccc(S([NH-])(=O)=O)c3)[n-]cc2Cl)c1 (protonated)
C=CC(=O)Nc1cccc(Oc2nc(=Nc3cccc(S([NH-])(=O)=O)c3)[n-]cc2Cl)c1 (3D coordinates assigned)
C=CC(=O)Nc1cccc(Oc2nc(=Nc3cccc(S([NH-])(=O)=O)c3)[n-]cc2Cl)c1 (optimized conformer: 65.18863883051888 kcal/mol)

>  <smiles>  (34) 
C=CC(=O)Nc1cccc(Oc2nc(=Nc3cccc(S(N)(=O)=O)c3)[nH]cc2Cl)c1

>  <score_type>  (34) 
oracle

>  <origin>  (34) 
adg

>  <m_score__min__energy>  (34) 
-13.75

>  <m_primary>  (34) 
energy

$$$$
34:0
     RDKit          3D

 40 42  0  0  0  0  0  0  0  0999 V2000
   55.4630   28.2310   44.2980 H   0  0  0  0  0  0  0  0  0  0  0  0
   55.3860   29.2730   44.3210 N   0  0  0  0  0  0  0  0  0  0  0  0
   56.3120   30.0000   44.8530 C   0  0  0  0  0  0  0  0  0  0  0  0
   56.4940   31.3040   44.5540 N   0  0  0  0  0  0  0  0  0  0  0  0
   57.5320   31.8310   45.2560 C   0  0  0  0  0  0  0  0  0  0  0  0
   57.8345   32.8844   45.1624 H   0  0  0  0  0  0  0  0  0  0  0  0
   58.1850   30.9360   46.1040 C   0  0  0  0  0  0  0  0  0  0  0  0
   59.2820   31.2840   47.0390 C   0  0  0  0  0  0  0  0  0  0  0  0
   58.8890   31.9800   48.2920 C   0  0  0  0  0  0  0  0  0  0  0  0
   58.1850   33.0260   48.2410 O   0  0  0  0  0  0  0  0  0  0  0  0
   59.3270   31.4680   49.5620 N   0  0  0  0  0  0  0  0  0  0  0  0
   60.1530   30.8280   49.5710 H   0  0  0  0  0  0  0  0  0  0  0  0
   58.7860   31.8870   50.8260 C   0  0  0  0  0  0  0  0  0  0  0  0
   59.2090   33.1030   51.3870 C   0  0  0  0  0  0  0  0  0  0  0  0
   59.9344   33.7308   50.8488 H   0  0  0  0  0  0  0  0  0  0  0  0
   58.7130   33.5200   52.6260 C   0  0  0  0  0  0  0  0  0  0  0  0
   59.0407   34.4789   53.0538 H   0  0  0  0  0  0  0  0  0  0  0  0
   57.8030   32.7220   53.3210 C   0  0  0  0  0  0  0  0  0  0  0  0
   57.4100   33.0548   54.2930 H   0  0  0  0  0  0  0  0  0  0  0  0
   57.3910   31.5000   52.7820 C   0  0  0  0  0  0  0  0  0  0  0  0
   56.6775   30.8693   53.3326 H   0  0  0  0  0  0  0  0  0  0  0  0
   57.8850   31.0780   51.5430 C   0  0  0  0  0  0  0  0  0  0  0  0
   57.5679   30.1100   51.1276 H   0  0  0  0  0  0  0  0  0  0  0  0
   60.5840   31.0200   46.7480 C   0  0  0  0  0  0  0  0  0  0  0  0
   61.6620   31.9750   47.0880 C   0  0  0  0  0  0  0  0  0  0  0  0
   63.0920   31.5620   47.8710 S   0  0  0  0  0  0  0  0  0  0  0  0
   63.7510   33.1070   47.8980 C   0  0  0  0  0  0  0  0  0  0  0  0
   64.7298   33.3824   48.3177 H   0  0  0  0  0  0  0  0  0  0  0  0
   62.8490   33.9770   47.3000 C   0  0  0  0  0  0  0  0  0  0  0  0
   63.0402   35.0538   47.1820 H   0  0  0  0  0  0  0  0  0  0  0  0
   61.6700   33.3540   46.8600 C   0  0  0  0  0  0  0  0  0  0  0  0
   60.5620   34.1130   46.1920 C   0  0  0  0  0  0  0  0  0  0  0  0
   59.9101   34.5595   46.9573 H   0  0  0  0  0  0  0  0  0  0  0  0
   60.9892   34.9090   45.5644 H   0  0  0  0  0  0  0  0  0  0  0  0
   59.9741   33.4271   45.5644 H   0  0  0  0  0  0  0  0  0  0  0  0
   61.0130   29.7180   46.1180 C   0  0  0  0  0  0  0  0  0  0  0  0
   61.2528   28.9903   46.9072 H   0  0  0  0  0  0  0  0  0  0  0  0
   60.1965   29.3262   45.4937 H   0  0  0  0  0  0  0  0  0  0  0  0
   61.9025   29.8883   45.4937 H   0  0  0  0  0  0  0  0  0  0  0  0
   57.4090   29.4400   45.9920 S   0  0  0  0  0  0  0  0  0  0  0  0
  1  2  1  0
  2  3  2  0
  3  4  1  0
  4  5  1  0
  5  6  1  0
  5  7  2  0
  7  8  1  0
  8  9  1  0
  9 10  2  0
  9 11  1  0
 11 12  1  0
 11 13  1  0
 13 14  2  0
 14 15  1  0
 14 16  1  0
 16 17  1  0
 16 18  2  0
 18 19  1  0
 18 20  1  0
 20 21  1  0
 20 22  2  0
 22 23  1  0
  8 24  2  0
 24 25  1  0
 25 26  1  0
 26 27  1  0
 27 28  1  0
 27 29  2  0
 29 30  1  0
 29 31  1  0
 31 32  1  0
 32 33  1  0
 32 34  1  0
 32 35  1  0
 24 36  1  0
 36 37  1  0
 36 38  1  0
 36 39  1  0
  7 40  1  0
 40  3  1  0
 22 13  1  0
 31 25  2  0
M  CHG  1   4  -1
M  END
>  <UniqueID>  (35) 
34

>  <SMILES>  (35) 
[H]/N=c1\[n-]cc(/C(C(=O)Nc2ccccc2)=C(\C)c2sccc2C)s1

>  <Energy>  (35) 
115.9461178515776

>  <Genealogy>  (35) 
CC(=C(C(=O)Nc1ccccc1)c1c[n-]c(=N)s1)c1sccc1C (protonated)
[H]/N=c1\[n-]cc(/C(C(=O)Nc2ccccc2)=C(\C)c2sccc2C)s1 (cis-trans isomerization)
[H]/N=c1\[n-]cc(/C(C(=O)Nc2ccccc2)=C(\C)c2sccc2C)s1 (3D coordinates assigned)
[H]/N=c1\[n-]cc(/C(C(=O)Nc2ccccc2)=C(\C)c2sccc2C)s1 (optimized conformer: 115.9461178515776 kcal/mol)

>  <smiles>  (35) 
CC(=C(C(=O)Nc1ccccc1)c1c[nH]c(=N)s1)c1sccc1C

>  <score_type>  (35) 
oracle

>  <origin>  (35) 
adg

>  <m_score__min__energy>  (35) 
-9.2100000000000009

>  <m_primary>  (35) 
energy

$$$$
35:0
     RDKit          3D

 36 38  0  0  0  0  0  0  0  0999 V2000
   55.6150   29.7840   44.1080 C   0  0  0  0  0  0  0  0  0  0  0  0
   56.9780   30.0670   43.5130 C   0  0  0  0  0  0  0  0  0  0  0  0
   57.6190   31.2040   44.2240 C   0  0  0  0  0  0  0  0  0  0  0  0
   57.7640   32.3910   43.5780 C   0  0  0  0  0  0  0  0  0  0  0  0
   58.3520   33.4760   44.1930 C   0  0  0  0  0  0  0  0  0  0  0  0
   58.8180   33.3900   45.5020 C   0  0  0  0  0  0  0  0  0  0  0  0
   59.4400   34.5770   46.1190 C   0  0  0  0  0  0  0  0  0  0  0  0
   60.0250   34.3080   47.4440 C   0  0  0  0  0  0  0  0  0  0  0  0
   59.2630   34.4270   48.5480 N   0  0  0  0  0  0  0  0  0  0  0  0
   59.6780   34.2130   49.7780 N   0  0  0  0  0  0  0  0  0  0  0  0
   60.9460   33.8480   49.9850 C   0  0  0  0  0  0  0  0  0  0  0  0
   61.3710   33.6360   51.1650 O   0  0  0  0  0  0  0  0  0  0  0  0
   61.8060   33.7010   48.8930 C   0  0  0  0  0  0  0  0  0  0  0  0
   63.1230   33.3250   49.0630 C   0  0  0  0  0  0  0  0  0  0  0  0
   63.9370   33.1920   47.9520 C   0  0  0  0  0  0  0  0  0  0  0  0
   63.4890   33.4200   46.6680 C   0  0  0  0  0  0  0  0  0  0  0  0
   62.1600   33.8000   46.4940 C   0  0  0  0  0  0  0  0  0  0  0  0
   61.3620   33.9280   47.6060 C   0  0  0  0  0  0  0  0  0  0  0  0
   58.6730   32.1750   46.1740 C   0  0  0  0  0  0  0  0  0  0  0  0
   58.0760   31.0810   45.5410 C   0  0  0  0  0  0  0  0  0  0  0  0
   55.6840   29.7983   45.2057 H   0  0  0  0  0  0  0  0  0  0  0  0
   54.9027   30.5534   43.7753 H   0  0  0  0  0  0  0  0  0  0  0  0
   55.2679   28.7946   43.7753 H   0  0  0  0  0  0  0  0  0  0  0  0
   57.6109   29.1728   43.6116 H   0  0  0  0  0  0  0  0  0  0  0  0
   56.8604   30.3267   42.4506 H   0  0  0  0  0  0  0  0  0  0  0  0
   57.4047   32.4881   42.5429 H   0  0  0  0  0  0  0  0  0  0  0  0
   58.4543   34.4224   43.6418 H   0  0  0  0  0  0  0  0  0  0  0  0
   60.2369   34.9392   45.4529 H   0  0  0  0  0  0  0  0  0  0  0  0
   58.6451   35.3241   46.2602 H   0  0  0  0  0  0  0  0  0  0  0  0
   58.9860   34.3400   50.5500 H   0  0  0  0  0  0  0  0  0  0  0  0
   63.5211   33.1332   50.0703 H   0  0  0  0  0  0  0  0  0  0  0  0
   64.9850   32.8919   48.0992 H   0  0  0  0  0  0  0  0  0  0  0  0
   64.1619   33.3051   45.8055 H   0  0  0  0  0  0  0  0  0  0  0  0
   61.7579   33.9934   45.4886 H   0  0  0  0  0  0  0  0  0  0  0  0
   59.0313   32.0778   47.2095 H   0  0  0  0  0  0  0  0  0  0  0  0
   57.9658   30.1264   46.0764 H   0  0  0  0  0  0  0  0  0  0  0  0
  1  2  1  0
  2  3  1  0
  3  4  2  0
  4  5  1  0
  5  6  2  0
  6  7  1  0
  7  8  1  0
  8  9  2  0
  9 10  1  0
 10 11  1  0
 11 12  2  0
 11 13  1  0
 13 14  2  0
 14 15  1  0
 15 16  2  0
 16 17  1  0
 17 18  2  0
  6 19  1  0
 19 20  2  0
 20  3  1  0
 18  8  1  0
 18 13  1  0
  1 21  1  0
  1 22  1  0
  1 23  1  0
  2 24  1  0
  2 25  1  0
  4 26  1  0
  5 27  1  0
  7 28  1  0
  7 29  1  0
 10 30  1  0
 14 31  1  0
 15 32  1  0
 16 33  1  0
 17 34  1  0
 19 35  1  0
 20 36  1  0
M  END
>  <smiles>  (36) 
CCc1ccc(Cc2n[nH]c(=O)c3ccccc23)cc1

>  <score_type>  (36) 
oracle

>  <origin>  (36) 
adg

>  <m_score__min__energy>  (36) 
-7.9400000000000004

>  <m_primary>  (36) 
energy

$$$$
36:0
     RDKit          3D

 52 55  0  0  0  0  0  0  0  0999 V2000
   55.9400   26.3480   46.7390 O   0  0  0  0  0  0  0  0  0  0  0  0
   56.5590   27.0590   45.9000 C   0  0  0  0  0  0  0  0  0  0  0  0
   57.9510   26.6840   45.5040 C   0  0  0  0  0  0  0  0  0  0  0  0
   58.9350   27.6670   46.0780 C   0  0  0  0  0  0  0  0  0  0  0  0
   59.8890   28.2790   45.2480 C   0  0  0  0  0  0  0  0  0  0  0  0
   60.7840   29.2140   45.7740 C   0  0  0  0  0  0  0  0  0  0  0  0
   60.7320   29.5560   47.1330 C   0  0  0  0  0  0  0  0  0  0  0  0
   61.6290   30.4850   47.6600 O   0  0  0  0  0  0  0  0  0  0  0  0
   59.7740   28.9590   47.9640 C   0  0  0  0  0  0  0  0  0  0  0  0
   59.6740   29.4120   49.8200 Br  0  0  0  0  0  0  0  0  0  0  0  0
   58.8760   28.0230   47.4360 C   0  0  0  0  0  0  0  0  0  0  0  0
   55.9110   28.1570   45.2470 N   0  0  0  0  0  0  0  0  0  0  0  0
   56.5350   29.3490   44.7450 C   0  0  0  0  0  0  0  0  0  0  0  0
   56.3330   29.8020   43.4290 C   0  0  0  0  0  0  0  0  0  0  0  0
   56.9540   30.9720   42.9830 C   0  0  0  0  0  0  0  0  0  0  0  0
   57.7540   31.7220   43.8570 C   0  0  0  0  0  0  0  0  0  0  0  0
   57.9350   31.2950   45.1800 C   0  0  0  0  0  0  0  0  0  0  0  0
   57.3290   30.1060   45.6160 C   0  0  0  0  0  0  0  0  0  0  0  0
   58.8310   32.0780   46.1060 C   0  0  0  0  0  0  0  0  0  0  0  0
   58.8550   33.5200   45.7880 N   0  0  0  0  0  0  0  0  0  0  0  0
   59.3460   34.4300   46.7960 C   0  0  0  0  0  0  0  0  0  0  0  0
   59.6540   35.6100   46.4730 O   0  0  0  0  0  0  0  0  0  0  0  0
   59.5400   34.0120   48.2340 C   0  0  0  0  0  0  0  0  0  0  0  0
   60.9080   33.5130   48.4630 N   0  0  0  0  0  0  0  0  0  0  0  0
   61.8680   33.7120   47.5090 C   0  0  0  0  0  0  0  0  0  0  0  0
   63.1690   33.2550   47.7050 C   0  0  0  0  0  0  0  0  0  0  0  0
   63.4650   32.5730   48.8810 C   0  0  0  0  0  0  0  0  0  0  0  0
   64.6280   32.1380   49.0890 O   0  0  0  0  0  0  0  0  0  0  0  0
   62.4900   32.3650   49.8020 N   0  0  0  0  0  0  0  0  0  0  0  0
   61.2250   32.8200   49.6060 C   0  0  0  0  0  0  0  0  0  0  0  0
   60.3500   32.5920   50.4850 O   0  0  0  0  0  0  0  0  0  0  0  0
   58.3970   34.0330   44.4810 C   0  0  0  0  0  0  0  0  0  0  0  0
   58.4560   32.9610   43.3920 C   0  0  0  0  0  0  0  0  0  0  0  0
   58.1786   25.6773   45.8844 H   0  0  0  0  0  0  0  0  0  0  0  0
   58.0286   26.6962   44.4068 H   0  0  0  0  0  0  0  0  0  0  0  0
   59.9315   28.0210   44.1795 H   0  0  0  0  0  0  0  0  0  0  0  0
   61.5327   29.6839   45.1193 H   0  0  0  0  0  0  0  0  0  0  0  0
   61.4800   30.9080   48.5700 H   0  0  0  0  0  0  0  0  0  0  0  0
   58.1193   27.5634   48.0888 H   0  0  0  0  0  0  0  0  0  0  0  0
   55.6834   29.2330   42.7477 H   0  0  0  0  0  0  0  0  0  0  0  0
   56.8149   31.3053   41.9440 H   0  0  0  0  0  0  0  0  0  0  0  0
   57.4791   29.7657   46.6512 H   0  0  0  0  0  0  0  0  0  0  0  0
   58.4696   31.9506   47.1371 H   0  0  0  0  0  0  0  0  0  0  0  0
   59.8542   31.6929   45.9842 H   0  0  0  0  0  0  0  0  0  0  0  0
   59.3599   34.8786   48.8872 H   0  0  0  0  0  0  0  0  0  0  0  0
   58.8308   33.2022   48.4606 H   0  0  0  0  0  0  0  0  0  0  0  0
   61.6099   34.2381   46.5780 H   0  0  0  0  0  0  0  0  0  0  0  0
   63.9460   33.4296   46.9462 H   0  0  0  0  0  0  0  0  0  0  0  0
   57.3584   34.3814   44.5804 H   0  0  0  0  0  0  0  0  0  0  0  0
   59.0658   34.8547   44.1853 H   0  0  0  0  0  0  0  0  0  0  0  0
   57.9660   33.3381   42.4822 H   0  0  0  0  0  0  0  0  0  0  0  0
   59.5078   32.7217   43.1762 H   0  0  0  0  0  0  0  0  0  0  0  0
  1  2  2  0
  2  3  1  0
  3  4  1  0
  4  5  2  0
  5  6  1  0
  6  7  2  0
  7  8  1  0
  7  9  1  0
  9 10  1  0
  9 11  2  0
  2 12  1  0
 12 13  1  0
 13 14  2  0
 14 15  1  0
 15 16  2  0
 16 17  1  0
 17 18  2  0
 17 19  1  0
 19 20  1  0
 20 21  1  0
 21 22  2  0
 21 23  1  0
 23 24  1  0
 24 25  1  0
 25 26  2  0
 26 27  1  0
 27 28  2  0
 27 29  1  0
 29 30  1  0
 30 31  2  0
 20 32  1  0
 32 33  1  0
 11  4  1  0
 18 13  1  0
 30 24  1  0
 33 16  1  0
  3 34  1  0
  3 35  1  0
  5 36  1  0
  6 37  1  0
  8 38  1  0
 11 39  1  0
 14 40  1  0
 15 41  1  0
 18 42  1  0
 19 43  1  0
 19 44  1  0
 23 45  1  0
 23 46  1  0
 25 47  1  0
 26 48  1  0
 32 49  1  0
 32 50  1  0
 33 51  1  0
 33 52  1  0
M  CHG  2  12  -1  29  -1
M  END
>  <UniqueID>  (37) 
35

>  <SMILES>  (37) 
O=C(Cc1ccc(O)c(Br)c1)[N-]c1ccc2c(c1)CN(C(=O)Cn1ccc(=O)[n-]c1=O)CC2

>  <Energy>  (37) 
62.438168067817514

>  <Genealogy>  (37) 
O=C(Cc1ccc(O)c(Br)c1)[N-]c1ccc2c(c1)CN(C(=O)Cn1ccc(=O)[n-]c1=O)CC2 (protonated)
O=C(Cc1ccc(O)c(Br)c1)[N-]c1ccc2c(c1)CN(C(=O)Cn1ccc(=O)[n-]c1=O)CC2 (3D coordinates assigned)
O=C(Cc1ccc(O)c(Br)c1)[N-]c1ccc2c(c1)CN(C(=O)Cn1ccc(=O)[n-]c1=O)CC2 (nonaromatic ring conformer: 62.438168067817514 kcal/mol)

>  <smiles>  (37) 
O=C(Cc1ccc(O)c(Br)c1)Nc1ccc2c(c1)CN(C(=O)Cn1ccc(=O)[nH]c1=O)CC2

>  <score_type>  (37) 
oracle

>  <origin>  (37) 
adg

>  <m_score__min__energy>  (37) 
-13.380000000000001

>  <m_primary>  (37) 
energy

$$$$
37:0
     RDKit          3D

 74 79  0  0  0  0  0  0  0  0999 V2000
   58.6190   31.9090   47.4030 N   0  0  0  0  0  0  0  0  0  0  0  0
   58.5440   32.7570   46.4210 C   0  0  0  0  0  0  0  0  0  0  0  0
   59.2930   33.9670   46.3590 N   0  0  0  0  0  0  0  0  0  0  0  0
   60.5340   34.2410   47.1040 C   0  0  0  0  0  0  0  0  0  0  0  0
   60.2560   34.2160   48.6260 C   0  0  0  0  0  0  0  0  0  0  0  0
   61.5540   34.0600   49.4230 C   0  0  0  0  0  0  0  0  0  0  0  0
   62.2880   32.7430   49.0860 C   0  0  0  0  0  0  0  0  0  0  0  0
   61.9260   32.1710   47.7030 C   0  0  0  0  0  0  0  0  0  0  0  0
   61.6900   33.2910   46.6830 C   0  0  0  0  0  0  0  0  0  0  0  0
   58.9100   34.6340   45.1140 C   0  0  0  0  0  0  0  0  0  0  0  0
   57.7010   33.8520   44.5700 C   0  0  0  0  0  0  0  0  0  0  0  0
   57.6450   32.6090   45.3290 N   0  0  0  0  0  0  0  0  0  0  0  0
   57.3410   31.1010   44.5120 S   0  0  0  0  0  0  0  0  0  0  0  0
   55.8750   30.7750   44.4930 O   0  0  0  0  0  0  0  0  0  0  0  0
   57.8180   31.2330   43.0920 O   0  0  0  0  0  0  0  0  0  0  0  0
   58.2220   29.8040   45.3140 C   0  0  0  0  0  0  0  0  0  0  0  0
   59.6140   29.7110   45.1960 C   0  0  0  0  0  0  0  0  0  0  0  0
   60.3140   28.7080   45.8740 C   0  0  0  0  0  0  0  0  0  0  0  0
   59.6280   27.7840   46.6760 C   0  0  0  0  0  0  0  0  0  0  0  0
   60.3760   26.7460   47.4690 C   0  0  0  0  0  0  0  0  0  0  0  0
   60.8250   27.3150   48.7360 N   0  0  0  0  0  0  0  0  0  0  0  0
   60.3760   28.5780   49.2380 C   0  0  0  0  0  0  0  0  0  0  0  0
   60.4890   29.6140   48.5330 O   0  0  0  0  0  0  0  0  0  0  0  0
   59.7860   28.6860   50.5390 N   0  0  0  0  0  0  0  0  0  0  0  0
   59.2520   29.8950   51.1740 C   0  0  2  0  0  0  0  0  0  0  0  0
   58.3910   30.6490   50.1280 C   0  0  0  0  0  0  0  0  0  0  0  0
   57.8020   31.9360   50.7490 C   0  0  1  0  0  0  0  0  0  0  0  0
   56.9180   31.5640   51.9580 C   0  0  0  0  0  0  0  0  0  0  0  0
   57.7720   30.8240   53.0090 C   0  0  2  0  0  0  0  0  0  0  0  0
   58.9280   31.7390   53.4720 C   0  0  0  0  0  0  0  0  0  0  0  0
   59.8110   32.1140   52.2620 C   0  0  2  0  0  0  0  0  0  0  0  0
   58.9530   32.8530   51.2120 C   0  0  0  0  0  0  0  0  0  0  0  0
   60.4020   30.8300   51.6380 C   0  0  0  0  0  0  0  0  0  0  0  0
   58.3490   29.5340   52.3860 C   0  0  0  0  0  0  0  0  0  0  0  0
   58.2300   27.8620   46.7680 C   0  0  0  0  0  0  0  0  0  0  0  0
   57.5340   28.8610   46.0860 C   0  0  0  0  0  0  0  0  0  0  0  0
   59.4030   31.2280   47.4880 H   0  0  0  0  0  0  0  0  0  0  0  0
   57.9200   31.9080   48.1740 H   0  0  0  0  0  0  0  0  0  0  0  0
   60.8803   35.2528   46.8464 H   0  0  0  0  0  0  0  0  0  0  0  0
   59.7671   35.1574   48.9170 H   0  0  0  0  0  0  0  0  0  0  0  0
   59.6057   33.3569   48.8474 H   0  0  0  0  0  0  0  0  0  0  0  0
   62.2175   34.9057   49.1894 H   0  0  0  0  0  0  0  0  0  0  0  0
   61.2949   34.0395   50.4919 H   0  0  0  0  0  0  0  0  0  0  0  0
   63.3713   32.9326   49.1110 H   0  0  0  0  0  0  0  0  0  0  0  0
   61.9755   31.9995   49.8340 H   0  0  0  0  0  0  0  0  0  0  0  0
   62.7508   31.5338   47.3514 H   0  0  0  0  0  0  0  0  0  0  0  0
   60.9985   31.5876   47.7998 H   0  0  0  0  0  0  0  0  0  0  0  0
   62.6137   33.8802   46.5851 H   0  0  0  0  0  0  0  0  0  0  0  0
   61.4084   32.8220   45.7287 H   0  0  0  0  0  0  0  0  0  0  0  0
   58.6320   35.6800   45.3104 H   0  0  0  0  0  0  0  0  0  0  0  0
   59.7397   34.6478   44.3919 H   0  0  0  0  0  0  0  0  0  0  0  0
   56.7764   34.4297   44.7159 H   0  0  0  0  0  0  0  0  0  0  0  0
   57.8012   33.6588   43.4917 H   0  0  0  0  0  0  0  0  0  0  0  0
   60.1595   30.4301   44.5672 H   0  0  0  0  0  0  0  0  0  0  0  0
   61.4079   28.6433   45.7779 H   0  0  0  0  0  0  0  0  0  0  0  0
   59.7126   25.8914   47.6680 H   0  0  0  0  0  0  0  0  0  0  0  0
   61.2512   26.4119   46.8924 H   0  0  0  0  0  0  0  0  0  0  0  0
   59.0189   30.9163   49.2653 H   0  0  0  0  0  0  0  0  0  0  0  0
   57.5664   29.9967   49.8047 H   0  0  0  0  0  0  0  0  0  0  0  0
   57.1928   32.4628   49.9998 H   0  0  0  0  0  0  0  0  0  0  0  0
   56.5005   32.4793   52.4028 H   0  0  0  0  0  0  0  0  0  0  0  0
   56.0971   30.9114   51.6260 H   0  0  0  0  0  0  0  0  0  0  0  0
   57.1452   30.5633   53.8746 H   0  0  0  0  0  0  0  0  0  0  0  0
   58.5132   32.6542   53.9196 H   0  0  0  0  0  0  0  0  0  0  0  0
   59.5377   31.2071   54.2172 H   0  0  0  0  0  0  0  0  0  0  0  0
   60.6307   32.7690   52.5923 H   0  0  0  0  0  0  0  0  0  0  0  0
   58.5359   33.7680   51.6579 H   0  0  0  0  0  0  0  0  0  0  0  0
   59.5799   33.1184   50.3480 H   0  0  0  0  0  0  0  0  0  0  0  0
   61.0266   31.0980   50.7731 H   0  0  0  0  0  0  0  0  0  0  0  0
   61.0140   30.3089   52.3889 H   0  0  0  0  0  0  0  0  0  0  0  0
   58.9456   28.9993   53.1398 H   0  0  0  0  0  0  0  0  0  0  0  0
   57.5224   28.8930   52.0457 H   0  0  0  0  0  0  0  0  0  0  0  0
   57.6801   27.1323   47.3805 H   0  0  0  0  0  0  0  0  0  0  0  0
   56.4372   28.9076   46.1557 H   0  0  0  0  0  0  0  0  0  0  0  0
  1  2  2  0
  2  3  1  0
  3  4  1  0
  4  5  1  0
  5  6  1  0
  6  7  1  0
  7  8  1  0
  8  9  1  0
  3 10  1  0
 10 11  1  0
 11 12  1  0
 12 13  1  0
 13 14  2  0
 13 15  2  0
 13 16  1  0
 16 17  2  0
 17 18  1  0
 18 19  2  0
 19 20  1  0
 20 21  1  0
 21 22  1  0
 22 23  2  0
 22 24  1  0
 25 24  1  6
 25 26  1  0
 26 27  1  0
 27 28  1  0
 28 29  1  0
 29 30  1  0
 30 31  1  0
 31 32  1  0
 31 33  1  0
 29 34  1  0
 19 35  1  0
 35 36  2  0
 12  2  1  0
 36 16  1  0
  9  4  1  0
 33 25  1  0
 34 25  1  0
 32 27  1  0
  1 37  1  0
  1 38  1  0
  4 39  1  0
  5 40  1  0
  5 41  1  0
  6 42  1  0
  6 43  1  0
  7 44  1  0
  7 45  1  0
  8 46  1  0
  8 47  1  0
  9 48  1  0
  9 49  1  0
 10 50  1  0
 10 51  1  0
 11 52  1  0
 11 53  1  0
 17 54  1  0
 18 55  1  0
 20 56  1  0
 20 57  1  0
 26 58  1  0
 26 59  1  0
 27 60  1  6
 28 61  1  0
 28 62  1  0
 29 63  1  1
 30 64  1  0
 30 65  1  0
 31 66  1  1
 32 67  1  0
 32 68  1  0
 33 69  1  0
 33 70  1  0
 34 71  1  0
 34 72  1  0
 35 73  1  0
 36 74  1  0
M  CHG  3   1   1  21  -1  24  -1
M  END
>  <UniqueID>  (38) 
36

>  <SMILES>  (38) 
[NH2+]=C1N(C2CCCCC2)CCN1S(=O)(=O)c1ccc(C[N-]C(=O)[N-]C23CC4CC(CC(C4)C2)C3)cc1

>  <Energy>  (38) 
88.27182509768936

>  <Genealogy>  (38) 
[NH2+]=C1N(C2CCCCC2)CCN1S(=O)(=O)c1ccc(C[N-]C(=O)[N-]C23CC4CC(CC(C4)C2)C3)cc1 (protonated)
[NH2+]=C1N(C2CCCCC2)CCN1S(=O)(=O)c1ccc(C[N-]C(=O)[N-]C23CC4CC(CC(C4)C2)C3)cc1 (3D coordinates assigned)
[NH2+]=C1N(C2CCCCC2)CCN1S(=O)(=O)c1ccc(C[N-]C(=O)[N-]C23CC4CC(CC(C4)C2)C3)cc1 (nonaromatic ring conformer: 88.27182509768936 kcal/mol)

>  <smiles>  (38) 
N=C1N(C2CCCCC2)CCN1S(=O)(=O)c1ccc(CNC(=O)NC23CC4CC(CC(C4)C2)C3)cc1

>  <score_type>  (38) 
oracle

>  <origin>  (38) 
adg

>  <m_score__min__energy>  (38) 
-13.32

>  <m_primary>  (38) 
energy

$$$$
38:0
     RDKit          3D

 57 59  0  0  0  0  0  0  0  0999 V2000
   57.7460   32.1120   43.9660 C   0  0  0  0  0  0  0  0  0  0  0  0
   56.8430   31.3890   44.8550 N   0  0  0  0  0  0  0  0  0  0  0  0
   56.3380   29.9040   44.1130 S   0  0  0  0  0  0  0  0  0  0  0  0
   55.9310   30.1970   42.6970 O   0  0  0  0  0  0  0  0  0  0  0  0
   55.1450   29.3440   44.8500 O   0  0  0  0  0  0  0  0  0  0  0  0
   57.6750   28.7140   44.1220 C   0  0  0  0  0  0  0  0  0  0  0  0
   57.3820   27.5290   45.0440 C   0  0  0  0  0  0  0  0  0  0  0  0
   58.5480   26.6560   45.1200 N   0  0  0  0  0  0  0  0  0  0  0  0
   59.1710   26.2370   46.3400 C   0  0  0  0  0  0  0  0  0  0  0  0
   59.7670   25.1230   46.3650 O   0  0  0  0  0  0  0  0  0  0  0  0
   59.1340   27.1060   47.5690 C   0  0  0  0  0  0  0  0  0  0  0  0
   59.4280   28.5570   47.2780 C   0  0  0  0  0  0  0  0  0  0  0  0
   58.7990   29.5640   48.0330 C   0  0  0  0  0  0  0  0  0  0  0  0
   59.0690   30.9080   47.7630 C   0  0  0  0  0  0  0  0  0  0  0  0
   59.9460   31.2700   46.7320 C   0  0  0  0  0  0  0  0  0  0  0  0
   60.1980   32.6630   46.5010 N   0  0  0  0  0  0  0  0  0  0  0  0
   60.5310   33.6470   47.4850 C   0  0  0  0  0  0  0  0  0  0  0  0
   59.7230   34.5750   47.7470 O   0  0  0  0  0  0  0  0  0  0  0  0
   61.7600   33.5330   48.2240 N   0  0  0  0  0  0  0  0  0  0  0  0
   62.9600   32.9770   47.5860 C   0  0  0  0  0  0  0  0  0  0  0  0
   63.7210   32.0890   48.5690 C   0  0  0  0  0  0  0  0  0  0  0  0
   63.8730   32.7730   49.8590 N   0  0  0  0  0  0  0  0  0  0  0  0
   65.0530   32.5470   50.6430 C   0  0  0  0  0  0  0  0  0  0  0  0
   64.9470   32.1280   51.8260 O   0  0  0  0  0  0  0  0  0  0  0  0
   66.4170   32.7660   50.0590 C   0  0  0  0  0  0  0  0  0  0  0  0
   67.5570   32.3370   50.9650 C   0  0  0  0  0  0  0  0  0  0  0  0
   67.2450   33.8130   50.7760 C   0  0  0  0  0  0  0  0  0  0  0  0
   62.6750   33.3290   50.4960 C   0  0  0  0  0  0  0  0  0  0  0  0
   61.9230   34.2250   49.5100 C   0  0  0  0  0  0  0  0  0  0  0  0
   60.5860   30.2650   45.9860 C   0  0  0  0  0  0  0  0  0  0  0  0
   60.3190   28.9190   46.2550 C   0  0  0  0  0  0  0  0  0  0  0  0
   58.4663   32.6887   44.5649 H   0  0  0  0  0  0  0  0  0  0  0  0
   58.2876   31.3951   43.3314 H   0  0  0  0  0  0  0  0  0  0  0  0
   57.1649   32.7973   43.3314 H   0  0  0  0  0  0  0  0  0  0  0  0
   57.8236   28.3393   43.0985 H   0  0  0  0  0  0  0  0  0  0  0  0
   58.5774   29.2200   44.4958 H   0  0  0  0  0  0  0  0  0  0  0  0
   57.1396   27.9015   46.0502 H   0  0  0  0  0  0  0  0  0  0  0  0
   56.5307   26.9603   44.6417 H   0  0  0  0  0  0  0  0  0  0  0  0
   58.1322   27.0351   48.0177 H   0  0  0  0  0  0  0  0  0  0  0  0
   59.9176   26.7432   48.2505 H   0  0  0  0  0  0  0  0  0  0  0  0
   58.0958   29.2936   48.8345 H   0  0  0  0  0  0  0  0  0  0  0  0
   58.5874   31.6911   48.3670 H   0  0  0  0  0  0  0  0  0  0  0  0
   62.6621   32.3787   46.7124 H   0  0  0  0  0  0  0  0  0  0  0  0
   63.6135   33.8041   47.2717 H   0  0  0  0  0  0  0  0  0  0  0  0
   63.1642   31.1522   48.7181 H   0  0  0  0  0  0  0  0  0  0  0  0
   64.7183   31.8726   48.1584 H   0  0  0  0  0  0  0  0  0  0  0  0
   66.1385   32.5777   49.0116 H   0  0  0  0  0  0  0  0  0  0  0  0
   67.3418   31.8476   51.9263 H   0  0  0  0  0  0  0  0  0  0  0  0
   68.4521   31.7087   50.8462 H   0  0  0  0  0  0  0  0  0  0  0  0
   66.8047   34.3921   51.6011 H   0  0  0  0  0  0  0  0  0  0  0  0
   67.8218   34.6961   50.4639 H   0  0  0  0  0  0  0  0  0  0  0  0
   62.0175   32.5067   50.8147 H   0  0  0  0  0  0  0  0  0  0  0  0
   62.9760   33.9272   51.3686 H   0  0  0  0  0  0  0  0  0  0  0  0
   60.9320   34.4674   49.9212 H   0  0  0  0  0  0  0  0  0  0  0  0
   62.4981   35.1493   49.3518 H   0  0  0  0  0  0  0  0  0  0  0  0
   61.2962   30.5372   45.1913 H   0  0  0  0  0  0  0  0  0  0  0  0
   60.8117   28.1363   45.6595 H   0  0  0  0  0  0  0  0  0  0  0  0
  1  2  1  0
  2  3  1  0
  3  4  2  0
  3  5  2  0
  3  6  1  0
  6  7  1  0
  7  8  1  0
  8  9  1  0
  9 10  2  0
  9 11  1  0
 11 12  1  0
 12 13  2  0
 13 14  1  0
 14 15  2  0
 15 16  1  0
 16 17  1  0
 17 18  2  0
 17 19  1  0
 19 20  1  0
 20 21  1  0
 21 22  1  0
 22 23  1  0
 23 24  2  0
 23 25  1  0
 25 26  1  0
 26 27  1  0
 22 28  1  0
 28 29  1  0
 15 30  1  0
 30 31  2  0
 31 12  1  0
 29 19  1  0
 27 25  1  0
  1 32  1  0
  1 33  1  0
  1 34  1  0
  6 35  1  0
  6 36  1  0
  7 37  1  0
  7 38  1  0
 11 39  1  0
 11 40  1  0
 13 41  1  0
 14 42  1  0
 20 43  1  0
 20 44  1  0
 21 45  1  0
 21 46  1  0
 25 47  1  0
 26 48  1  0
 26 49  1  0
 27 50  1  0
 27 51  1  0
 28 52  1  0
 28 53  1  0
 29 54  1  0
 29 55  1  0
 30 56  1  0
 31 57  1  0
M  CHG  3   2  -1   8  -1  16  -1
M  END
>  <UniqueID>  (39) 
37

>  <SMILES>  (39) 
C[N-]S(=O)(=O)CC[N-]C(=O)Cc1ccc([N-]C(=O)N2CCN(C(=O)C3CC3)CC2)cc1

>  <Energy>  (39) 
316.10861703882347

>  <Genealogy>  (39) 
C[N-]S(=O)(=O)CC[N-]C(=O)Cc1ccc([N-]C(=O)N2CCN(C(=O)C3CC3)CC2)cc1 (protonated)
C[N-]S(=O)(=O)CC[N-]C(=O)Cc1ccc([N-]C(=O)N2CCN(C(=O)C3CC3)CC2)cc1 (3D coordinates assigned)
C[N-]S(=O)(=O)CC[N-]C(=O)Cc1ccc([N-]C(=O)N2CCN(C(=O)C3CC3)CC2)cc1 (nonaromatic ring conformer: 316.10861703882347 kcal/mol)

>  <smiles>  (39) 
CNS(=O)(=O)CCNC(=O)Cc1ccc(NC(=O)N2CCN(C(=O)C3CC3)CC2)cc1

>  <score_type>  (39) 
oracle

>  <origin>  (39) 
adg

>  <m_score__min__energy>  (39) 
-13.15

>  <m_primary>  (39) 
energy

$$$$
39:0
     RDKit          3D

 61 64  0  0  0  0  0  0  0  0999 V2000
   56.4570   31.5300   44.4470 O   0  0  0  0  0  0  0  0  0  0  0  0
   57.3960   31.6600   45.2780 C   0  0  0  0  0  0  0  0  0  0  0  0
   58.1510   32.9520   45.3630 C   0  0  0  0  0  0  0  0  0  0  0  0
   59.1700   32.8950   46.4090 N   0  0  0  0  0  0  0  0  0  0  0  0
   60.1450   33.9360   46.5880 C   0  0  0  0  0  0  0  0  0  0  0  0
   60.0310   35.0150   45.9420 O   0  0  0  0  0  0  0  0  0  0  0  0
   61.2750   33.7740   47.5320 C   0  0  0  0  0  0  0  0  0  0  0  0
   61.1460   34.2030   48.8640 C   0  0  0  0  0  0  0  0  0  0  0  0
   62.2080   34.0580   49.7630 C   0  0  0  0  0  0  0  0  0  0  0  0
   63.4160   33.4880   49.3430 C   0  0  0  0  0  0  0  0  0  0  0  0
   64.7490   33.2890   50.4850 S   0  0  0  0  0  0  0  0  0  0  0  0
   64.9380   34.5660   51.2530 O   0  0  0  0  0  0  0  0  0  0  0  0
   66.0150   33.0140   49.7220 O   0  0  0  0  0  0  0  0  0  0  0  0
   64.4480   31.9810   51.6060 N   0  0  0  0  0  0  0  0  0  0  0  0
   63.3890   32.3290   52.5790 C   0  0  0  0  0  0  0  0  0  0  0  0
   62.0500   31.6490   52.2390 C   0  0  0  0  0  0  0  0  0  0  0  0
   62.1310   30.2310   52.1980 O   0  0  0  0  0  0  0  0  0  0  0  0
   63.3950   29.7420   51.7640 C   0  0  0  0  0  0  0  0  0  0  0  0
   64.1760   30.7270   50.8780 C   0  0  0  0  0  0  0  0  0  0  0  0
   63.5580   33.0800   48.0110 C   0  0  0  0  0  0  0  0  0  0  0  0
   62.4970   33.2180   47.1120 C   0  0  0  0  0  0  0  0  0  0  0  0
   57.6810   30.6220   46.2220 N   0  0  0  0  0  0  0  0  0  0  0  0
   58.1080   29.2900   45.9040 C   0  0  0  0  0  0  0  0  0  0  0  0
   57.5850   28.6040   44.7920 C   0  0  0  0  0  0  0  0  0  0  0  0
   58.0660   27.3370   44.4540 C   0  0  0  0  0  0  0  0  0  0  0  0
   59.0800   26.7490   45.2120 C   0  0  0  0  0  0  0  0  0  0  0  0
   59.6130   27.4240   46.3120 C   0  0  0  0  0  0  0  0  0  0  0  0
   59.1330   28.6950   46.6650 C   0  0  0  0  0  0  0  0  0  0  0  0
   59.6710   29.3720   47.8140 N   0  0  0  0  0  0  0  0  0  0  0  0
   58.9440   29.3300   49.0890 C   0  0  0  0  0  0  0  0  0  0  0  0
   59.1960   30.6050   49.9290 C   0  0  0  0  0  0  0  0  0  0  0  0
   60.1840   31.4680   49.3870 O   0  0  0  0  0  0  0  0  0  0  0  0
   61.3280   30.7280   49.0220 C   0  0  0  0  0  0  0  0  0  0  0  0
   61.0260   29.9320   47.7550 C   0  0  0  0  0  0  0  0  0  0  0  0
   58.6382   33.1483   44.3965 H   0  0  0  0  0  0  0  0  0  0  0  0
   57.4422   33.7568   45.6076 H   0  0  0  0  0  0  0  0  0  0  0  0
   59.1680   32.0690   47.0490 H   0  0  0  0  0  0  0  0  0  0  0  0
   60.2026   34.6563   49.2024 H   0  0  0  0  0  0  0  0  0  0  0  0
   62.0935   34.3932   50.8044 H   0  0  0  0  0  0  0  0  0  0  0  0
   63.7072   32.0063   53.5813 H   0  0  0  0  0  0  0  0  0  0  0  0
   63.2371   33.4178   52.5422 H   0  0  0  0  0  0  0  0  0  0  0  0
   61.3107   31.9340   53.0020 H   0  0  0  0  0  0  0  0  0  0  0  0
   61.7608   31.9867   51.2328 H   0  0  0  0  0  0  0  0  0  0  0  0
   64.0034   29.5191   52.6529 H   0  0  0  0  0  0  0  0  0  0  0  0
   63.1979   28.8501   51.1511 H   0  0  0  0  0  0  0  0  0  0  0  0
   65.1304   30.2673   50.5816 H   0  0  0  0  0  0  0  0  0  0  0  0
   63.5713   30.9585   49.9888 H   0  0  0  0  0  0  0  0  0  0  0  0
   64.5106   32.6482   47.6702 H   0  0  0  0  0  0  0  0  0  0  0  0
   62.6182   32.8897   46.0692 H   0  0  0  0  0  0  0  0  0  0  0  0
   56.7931   29.0681   44.1858 H   0  0  0  0  0  0  0  0  0  0  0  0
   57.6454   26.8021   43.5897 H   0  0  0  0  0  0  0  0  0  0  0  0
   59.4597   25.7524   44.9424 H   0  0  0  0  0  0  0  0  0  0  0  0
   60.4133   26.9573   46.9051 H   0  0  0  0  0  0  0  0  0  0  0  0
   57.8668   29.2448   48.8834 H   0  0  0  0  0  0  0  0  0  0  0  0
   59.3035   28.4628   49.6624 H   0  0  0  0  0  0  0  0  0  0  0  0
   58.2512   31.1636   50.0017 H   0  0  0  0  0  0  0  0  0  0  0  0
   59.5678   30.2718   50.9092 H   0  0  0  0  0  0  0  0  0  0  0  0
   62.1663   31.4149   48.8342 H   0  0  0  0  0  0  0  0  0  0  0  0
   61.5987   30.0394   49.8360 H   0  0  0  0  0  0  0  0  0  0  0  0
   61.1060   30.5962   46.8819 H   0  0  0  0  0  0  0  0  0  0  0  0
   61.7495   29.1078   47.6703 H   0  0  0  0  0  0  0  0  0  0  0  0
  1  2  2  0
  2  3  1  0
  3  4  1  0
  4  5  1  0
  5  6  2  0
  5  7  1  0
  7  8  2  0
  8  9  1  0
  9 10  2  0
 10 11  1  0
 11 12  2  0
 11 13  2  0
 11 14  1  0
 14 15  1  0
 15 16  1  0
 16 17  1  0
 17 18  1  0
 18 19  1  0
 10 20  1  0
 20 21  2  0
  2 22  1  0
 22 23  1  0
 23 24  2  0
 24 25  1  0
 25 26  2  0
 26 27  1  0
 27 28  2  0
 28 29  1  0
 29 30  1  0
 30 31  1  0
 31 32  1  0
 32 33  1  0
 33 34  1  0
 21  7  1  0
 28 23  1  0
 34 29  1  0
 19 14  1  0
  3 35  1  0
  3 36  1  0
  4 37  1  0
  8 38  1  0
  9 39  1  0
 15 40  1  0
 15 41  1  0
 16 42  1  0
 16 43  1  0
 18 44  1  0
 18 45  1  0
 19 46  1  0
 19 47  1  0
 20 48  1  0
 21 49  1  0
 24 50  1  0
 25 51  1  0
 26 52  1  0
 27 53  1  0
 30 54  1  0
 30 55  1  0
 31 56  1  0
 31 57  1  0
 33 58  1  0
 33 59  1  0
 34 60  1  0
 34 61  1  0
M  CHG  1  22  -1
M  END
>  <UniqueID>  (40) 
38

>  <SMILES>  (40) 
O=C(CNC(=O)c1ccc(S(=O)(=O)N2CCOCC2)cc1)[N-]c1ccccc1N1CCOCC1

>  <Energy>  (40) 
89.34227289873648

>  <Genealogy>  (40) 
O=C(CNC(=O)c1ccc(S(=O)(=O)N2CCOCC2)cc1)[N-]c1ccccc1N1CCOCC1 (protonated)
O=C(CNC(=O)c1ccc(S(=O)(=O)N2CCOCC2)cc1)[N-]c1ccccc1N1CCOCC1 (3D coordinates assigned)
O=C(CNC(=O)c1ccc(S(=O)(=O)N2CCOCC2)cc1)[N-]c1ccccc1N1CCOCC1 (nonaromatic ring conformer: 89.34227289873648 kcal/mol)

>  <smiles>  (40) 
O=C(CNC(=O)c1ccc(S(=O)(=O)N2CCOCC2)cc1)Nc1ccccc1N1CCOCC1

>  <score_type>  (40) 
oracle

>  <origin>  (40) 
adg

>  <m_score__min__energy>  (40) 
-11.34

>  <m_primary>  (40) 
energy

$$$$
40:0
     RDKit          3D

 54 57  0  0  0  0  0  0  0  0999 V2000
   62.2950   32.7500   51.2630 O   0  0  0  0  0  0  0  0  0  0  0  0
   62.5240   32.4560   50.0590 C   0  0  0  0  0  0  0  0  0  0  0  0
   61.7080   31.3820   49.3950 C   0  0  0  0  0  0  0  0  0  0  0  0
   61.9570   31.3320   47.9490 N   0  0  0  0  0  0  0  0  0  0  0  0
   60.9020   30.9160   47.0620 C   0  0  0  0  0  0  0  0  0  0  0  0
   60.5320   31.6920   46.1410 O   0  0  0  0  0  0  0  0  0  0  0  0
   60.2410   29.6020   47.1940 C   0  0  0  0  0  0  0  0  0  0  0  0
   60.8240   28.5600   47.9330 C   0  0  0  0  0  0  0  0  0  0  0  0
   60.1560   27.3410   48.0520 C   0  0  0  0  0  0  0  0  0  0  0  0
   58.9070   27.1650   47.4450 C   0  0  0  0  0  0  0  0  0  0  0  0
   58.2130   25.9530   47.5580 C   0  0  0  0  0  0  0  0  0  0  0  0
   56.9630   25.8050   46.9520 C   0  0  0  0  0  0  0  0  0  0  0  0
   56.3940   26.8620   46.2350 C   0  0  0  0  0  0  0  0  0  0  0  0
   55.1540   26.6840   45.6300 O   0  0  0  0  0  0  0  0  0  0  0  0
   57.0770   28.0860   46.1170 C   0  0  0  0  0  0  0  0  0  0  0  0
   56.4680   29.2030   45.3710 C   0  0  0  0  0  0  0  0  0  0  0  0
   55.4650   28.9850   44.6430 O   0  0  0  0  0  0  0  0  0  0  0  0
   57.0180   30.5220   45.4260 N   0  0  0  0  0  0  0  0  0  0  0  0
   58.0330   31.0180   44.5040 C   0  0  0  0  0  0  0  0  0  0  0  0
   57.5560   32.3070   43.8250 C   0  0  0  0  0  0  0  0  0  0  0  0
   57.0540   33.3650   44.8230 C   0  0  0  0  0  0  0  0  0  0  0  0
   58.0710   33.6720   45.8930 C   0  0  0  0  0  0  0  0  0  0  0  0
   59.1850   34.4760   45.5970 C   0  0  0  0  0  0  0  0  0  0  0  0
   60.1510   34.7310   46.5760 C   0  0  0  0  0  0  0  0  0  0  0  0
   60.0140   34.1800   47.8540 C   0  0  0  0  0  0  0  0  0  0  0  0
   58.9110   33.3780   48.1560 C   0  0  0  0  0  0  0  0  0  0  0  0
   57.9400   33.1240   47.1810 C   0  0  0  0  0  0  0  0  0  0  0  0
   58.3420   28.2370   46.7200 C   0  0  0  0  0  0  0  0  0  0  0  0
   59.0190   29.4150   46.6240 N   0  0  0  0  0  0  0  0  0  0  0  0
   63.3050   31.6110   47.4410 C   0  0  0  0  0  0  0  0  0  0  0  0
   63.7480   32.9900   47.9160 C   0  0  0  0  0  0  0  0  0  0  0  0
   63.5930   33.1080   49.3620 N   0  0  0  0  0  0  0  0  0  0  0  0
   61.9707   30.4094   49.8366 H   0  0  0  0  0  0  0  0  0  0  0  0
   60.6437   31.6101   49.5537 H   0  0  0  0  0  0  0  0  0  0  0  0
   61.8020   28.7041   48.4154 H   0  0  0  0  0  0  0  0  0  0  0  0
   60.6109   26.5181   48.6229 H   0  0  0  0  0  0  0  0  0  0  0  0
   58.6523   25.1182   48.1238 H   0  0  0  0  0  0  0  0  0  0  0  0
   56.4229   24.8507   47.0395 H   0  0  0  0  0  0  0  0  0  0  0  0
   58.9590   31.2234   45.0611 H   0  0  0  0  0  0  0  0  0  0  0  0
   58.2164   30.2557   43.7324 H   0  0  0  0  0  0  0  0  0  0  0  0
   58.3947   32.7334   43.2551 H   0  0  0  0  0  0  0  0  0  0  0  0
   56.7092   32.0413   43.1752 H   0  0  0  0  0  0  0  0  0  0  0  0
   56.8287   34.2908   44.2733 H   0  0  0  0  0  0  0  0  0  0  0  0
   56.1575   32.9622   45.3171 H   0  0  0  0  0  0  0  0  0  0  0  0
   59.2978   34.9066   44.5911 H   0  0  0  0  0  0  0  0  0  0  0  0
   61.0185   35.3650   46.3406 H   0  0  0  0  0  0  0  0  0  0  0  0
   60.7758   34.3784   48.6223 H   0  0  0  0  0  0  0  0  0  0  0  0
   58.8055   32.9454   49.1619 H   0  0  0  0  0  0  0  0  0  0  0  0
   57.0716   32.4937   47.4230 H   0  0  0  0  0  0  0  0  0  0  0  0
   64.0044   30.8504   47.8183 H   0  0  0  0  0  0  0  0  0  0  0  0
   63.2965   31.5856   46.3413 H   0  0  0  0  0  0  0  0  0  0  0  0
   64.8051   33.1412   47.6520 H   0  0  0  0  0  0  0  0  0  0  0  0
   63.1219   33.7517   47.4283 H   0  0  0  0  0  0  0  0  0  0  0  0
   64.1730   33.8130   49.8700 H   0  0  0  0  0  0  0  0  0  0  0  0
  1  2  2  0
  2  3  1  0
  3  4  1  0
  4  5  1  0
  5  6  2  0
  5  7  1  0
  7  8  2  0
  8  9  1  0
  9 10  2  0
 10 11  1  0
 11 12  2  0
 12 13  1  0
 13 14  1  0
 13 15  2  0
 15 16  1  0
 16 17  2  0
 16 18  1  0
 18 19  1  0
 19 20  1  0
 20 21  1  0
 21 22  1  0
 22 23  2  0
 23 24  1  0
 24 25  2  0
 25 26  1  0
 26 27  2  0
 15 28  1  0
 28 29  2  0
  4 30  1  0
 30 31  1  0
 31 32  1  0
 32  2  1  0
 29  7  1  0
 28 10  1  0
 27 22  1  0
  3 33  1  0
  3 34  1  0
  8 35  1  0
  9 36  1  0
 11 37  1  0
 12 38  1  0
 19 39  1  0
 19 40  1  0
 20 41  1  0
 20 42  1  0
 21 43  1  0
 21 44  1  0
 23 45  1  0
 24 46  1  0
 25 47  1  0
 26 48  1  0
 27 49  1  0
 30 50  1  0
 30 51  1  0
 31 52  1  0
 31 53  1  0
 32 54  1  0
M  CHG  2  14  -1  18  -1
M  END
>  <UniqueID>  (41) 
39

>  <SMILES>  (41) 
O=C1CN(C(=O)c2ccc3ccc([O-])c(C(=O)[N-]CCCc4ccccc4)c3n2)CCN1

>  <Energy>  (41) 
64.61791417359407

>  <Genealogy>  (41) 
O=C1CN(C(=O)c2ccc3ccc([O-])c(C(=O)[N-]CCCc4ccccc4)c3n2)CCN1 (protonated)
O=C1CN(C(=O)c2ccc3ccc([O-])c(C(=O)[N-]CCCc4ccccc4)c3n2)CCN1 (3D coordinates assigned)
O=C1CN(C(=O)c2ccc3ccc([O-])c(C(=O)[N-]CCCc4ccccc4)c3n2)CCN1 (nonaromatic ring conformer: 64.61791417359407 kcal/mol)

>  <smiles>  (41) 
O=C1CN(C(=O)c2ccc3ccc(O)c(C(=O)NCCCc4ccccc4)c3n2)CCN1

>  <score_type>  (41) 
oracle

>  <origin>  (41) 
adg

>  <m_score__min__energy>  (41) 
-13.5

>  <m_primary>  (41) 
energy

$$$$
41:0
     RDKit          3D

 46 48  0  0  0  0  0  0  0  0999 V2000
   52.6539   30.6811   49.5391 H   0  0  0  0  0  0  0  0  0  0  0  0
   52.3090   30.9020   50.5600 C   0  0  0  0  0  0  0  0  0  0  0  0
   51.3940   32.0480   50.7200 C   0  0  0  0  0  0  0  0  0  0  0  0
   50.6710   32.1760   51.7430 O   0  0  0  0  0  0  0  0  0  0  0  0
   51.3930   33.0510   49.7620 O   0  0  0  0  0  0  0  0  0  0  0  0
   52.7620   30.1020   51.5390 C   0  0  0  0  0  0  0  0  0  0  0  0
   52.2231   29.1561   51.6967 H   0  0  0  0  0  0  0  0  0  0  0  0
   53.9130   30.3690   52.4240 C   0  0  0  0  0  0  0  0  0  0  0  0
   53.7490   30.8620   53.5720 O   0  0  0  0  0  0  0  0  0  0  0  0
   55.2250   30.0210   51.9610 N   0  0  0  0  0  0  0  0  0  0  0  0
   56.3490   30.9020   51.8150 C   0  0  0  0  0  0  0  0  0  0  0  0
   56.4410   32.1210   52.5100 C   0  0  0  0  0  0  0  0  0  0  0  0
   55.6258   32.4342   53.1789 H   0  0  0  0  0  0  0  0  0  0  0  0
   57.5650   32.9350   52.3530 C   0  0  0  0  0  0  0  0  0  0  0  0
   57.6263   33.8939   52.8884 H   0  0  0  0  0  0  0  0  0  0  0  0
   58.6110   32.5360   51.5190 C   0  0  0  0  0  0  0  0  0  0  0  0
   59.4888   33.1870   51.3936 H   0  0  0  0  0  0  0  0  0  0  0  0
   58.5500   31.3140   50.8420 C   0  0  0  0  0  0  0  0  0  0  0  0
   59.6350   30.9490   50.0300 O   0  0  0  0  0  0  0  0  0  0  0  0
   59.9140   29.6160   49.6080 C   0  0  0  0  0  0  0  0  0  0  0  0
   60.9839   29.4019   49.7478 H   0  0  0  0  0  0  0  0  0  0  0  0
   59.3213   28.9070   50.2047 H   0  0  0  0  0  0  0  0  0  0  0  0
   59.5590   29.4750   48.1570 C   0  0  0  0  0  0  0  0  0  0  0  0
   59.8690   28.2980   47.4590 C   0  0  0  0  0  0  0  0  0  0  0  0
   60.3912   27.4769   47.9720 H   0  0  0  0  0  0  0  0  0  0  0  0
   59.5160   28.1670   46.1150 C   0  0  0  0  0  0  0  0  0  0  0  0
   59.7742   27.2482   45.5681 H   0  0  0  0  0  0  0  0  0  0  0  0
   58.8360   29.1980   45.4610 C   0  0  0  0  0  0  0  0  0  0  0  0
   58.5732   29.0919   44.3981 H   0  0  0  0  0  0  0  0  0  0  0  0
   58.4860   30.3700   46.1540 C   0  0  0  0  0  0  0  0  0  0  0  0
   57.7530   31.4670   45.4850 C   0  0  0  0  0  0  0  0  0  0  0  0
   56.7090   31.2040   44.8300 O   0  0  0  0  0  0  0  0  0  0  0  0
   58.2270   32.8170   45.5110 N   0  0  0  0  0  0  0  0  0  0  0  0
   57.8280   34.0850   44.8750 C   0  0  0  0  0  0  0  0  0  0  0  0
   57.7681   34.0092   43.7793 H   0  0  0  0  0  0  0  0  0  0  0  0
   56.8334   34.4800   45.1294 H   0  0  0  0  0  0  0  0  0  0  0  0
   59.0080   34.8750   45.3330 C   0  0  0  0  0  0  0  0  0  0  0  0
   59.6833   35.2242   44.5380 H   0  0  0  0  0  0  0  0  0  0  0  0
   58.9361   35.8361   45.8631 H   0  0  0  0  0  0  0  0  0  0  0  0
   59.3920   33.5890   45.9860 C   0  0  0  0  0  0  0  0  0  0  0  0
   60.3464   33.1910   45.6110 H   0  0  0  0  0  0  0  0  0  0  0  0
   59.5685   33.6119   47.0715 H   0  0  0  0  0  0  0  0  0  0  0  0
   58.8610   30.5030   47.5020 C   0  0  0  0  0  0  0  0  0  0  0  0
   58.6052   31.4219   48.0499 H   0  0  0  0  0  0  0  0  0  0  0  0
   57.4140   30.4960   50.9980 C   0  0  0  0  0  0  0  0  0  0  0  0
   57.3618   29.5301   50.4743 H   0  0  0  0  0  0  0  0  0  0  0  0
  1  2  1  0
  2  3  1  0
  3  4  2  0
  3  5  1  0
  2  6  2  0
  6  7  1  0
  6  8  1  0
  8  9  2  0
  8 10  1  0
 10 11  1  0
 11 12  2  0
 12 13  1  0
 12 14  1  0
 14 15  1  0
 14 16  2  0
 16 17  1  0
 16 18  1  0
 18 19  1  0
 19 20  1  0
 20 21  1  0
 20 22  1  0
 20 23  1  0
 23 24  2  0
 24 25  1  0
 24 26  1  0
 26 27  1  0
 26 28  2  0
 28 29  1  0
 28 30  1  0
 30 31  1  0
 31 32  2  0
 31 33  1  0
 33 34  1  0
 34 35  1  0
 34 36  1  0
 34 37  1  0
 37 38  1  0
 37 39  1  0
 37 40  1  0
 40 41  1  0
 40 42  1  0
 30 43  2  0
 43 44  1  0
 18 45  2  0
 45 46  1  0
 45 11  1  0
 43 23  1  0
 40 33  1  0
M  CHG  2   5  -1  10  -1
M  END
>  <UniqueID>  (42) 
40

>  <SMILES>  (42) 
O=C([O-])/C=C\C(=O)[N-]c1cccc(OCc2cccc(C(=O)N3CCC3)c2)c1

>  <Energy>  (42) 
101.76928851055042

>  <Genealogy>  (42) 
O=C([O-])C=CC(=O)[N-]c1cccc(OCc2cccc(C(=O)N3CCC3)c2)c1 (protonated)
O=C([O-])/C=C\C(=O)[N-]c1cccc(OCc2cccc(C(=O)N3CCC3)c2)c1 (cis-trans isomerization)
O=C([O-])/C=C\C(=O)[N-]c1cccc(OCc2cccc(C(=O)N3CCC3)c2)c1 (3D coordinates assigned)
O=C([O-])/C=C\C(=O)[N-]c1cccc(OCc2cccc(C(=O)N3CCC3)c2)c1 (nonaromatic ring conformer: 101.76928851055042 kcal/mol)

>  <smiles>  (42) 
O=C(O)C=CC(=O)Nc1cccc(OCc2cccc(C(=O)N3CCC3)c2)c1

>  <score_type>  (42) 
oracle

>  <origin>  (42) 
adg

>  <m_score__min__energy>  (42) 
-14.1

>  <m_primary>  (42) 
energy

$$$$
42:0
     RDKit          3D

 37 38  0  0  0  0  0  0  0  0999 V2000
   54.7660   29.3650   44.1540 N   0  0  0  0  0  0  0  0  0  0  0  0
   56.3070   30.1430   44.0820 S   0  0  0  0  0  0  0  0  0  0  0  0
   56.2560   31.4300   44.8570 O   0  0  0  0  0  0  0  0  0  0  0  0
   56.6430   30.4560   42.6510 O   0  0  0  0  0  0  0  0  0  0  0  0
   57.5350   29.0820   44.7630 C   0  0  0  0  0  0  0  0  0  0  0  0
   58.0060   29.2940   46.0650 C   0  0  0  0  0  0  0  0  0  0  0  0
   58.9860   28.4570   46.6050 C   0  0  0  0  0  0  0  0  0  0  0  0
   59.4900   27.3820   45.8550 C   0  0  0  0  0  0  0  0  0  0  0  0
   60.5610   26.4890   46.4280 C   0  0  0  0  0  0  0  0  0  0  0  0
   60.3100   25.0110   46.1030 C   0  0  0  0  0  0  0  0  0  0  0  0
   58.9590   24.6010   46.4740 N   0  0  0  0  0  0  0  0  0  0  0  0
   58.1810   23.6480   45.7420 C   0  0  0  0  0  0  0  0  0  0  0  0
   58.1370   22.4430   46.1070 O   0  0  0  0  0  0  0  0  0  0  0  0
   57.4440   24.0830   44.5160 C   0  0  0  0  0  0  0  0  0  0  0  0
   55.9530   24.1200   44.7770 C   0  0  0  0  0  0  0  0  0  0  0  0
   55.3750   24.9620   45.7560 C   0  0  0  0  0  0  0  0  0  0  0  0
   56.1320   25.8420   46.5330 O   0  0  0  0  0  0  0  0  0  0  0  0
   54.0320   24.9320   45.9580 N   0  0  0  0  0  0  0  0  0  0  0  0
   53.2220   24.1260   45.2270 C   0  0  0  0  0  0  0  0  0  0  0  0
   51.9830   24.1190   45.4430 O   0  0  0  0  0  0  0  0  0  0  0  0
   53.7470   23.3360   44.2600 N   0  0  0  0  0  0  0  0  0  0  0  0
   55.0810   23.3170   44.0130 C   0  0  0  0  0  0  0  0  0  0  0  0
   55.5240   22.5740   43.0980 O   0  0  0  0  0  0  0  0  0  0  0  0
   59.0060   27.1630   44.5550 C   0  0  0  0  0  0  0  0  0  0  0  0
   58.0350   28.0090   44.0140 C   0  0  0  0  0  0  0  0  0  0  0  0
   54.4820   29.3450   45.1590 H   0  0  0  0  0  0  0  0  0  0  0  0
   57.6026   30.1230   46.6650 H   0  0  0  0  0  0  0  0  0  0  0  0
   59.3641   28.6409   47.6215 H   0  0  0  0  0  0  0  0  0  0  0  0
   61.5332   26.7852   46.0073 H   0  0  0  0  0  0  0  0  0  0  0  0
   60.5500   26.6034   47.5220 H   0  0  0  0  0  0  0  0  0  0  0  0
   60.4464   24.8549   45.0227 H   0  0  0  0  0  0  0  0  0  0  0  0
   61.0240   24.4057   46.6807 H   0  0  0  0  0  0  0  0  0  0  0  0
   57.7855   25.0876   44.2260 H   0  0  0  0  0  0  0  0  0  0  0  0
   57.6453   23.3651   43.7072 H   0  0  0  0  0  0  0  0  0  0  0  0
   57.1170   25.7230   46.7200 H   0  0  0  0  0  0  0  0  0  0  0  0
   59.3929   26.3222   43.9606 H   0  0  0  0  0  0  0  0  0  0  0  0
   57.6611   27.8318   42.9948 H   0  0  0  0  0  0  0  0  0  0  0  0
  1  2  1  0
  2  3  2  0
  2  4  2  0
  2  5  1  0
  5  6  2  0
  6  7  1  0
  7  8  2  0
  8  9  1  0
  9 10  1  0
 10 11  1  0
 11 12  1  0
 12 13  2  0
 12 14  1  0
 14 15  1  0
 15 16  2  0
 16 17  1  0
 16 18  1  0
 18 19  1  0
 19 20  2  0
 19 21  1  0
 21 22  1  0
 22 23  2  0
  8 24  1  0
 24 25  2  0
 25  5  1  0
 22 15  1  0
  1 26  1  0
  6 27  1  0
  7 28  1  0
  9 29  1  0
  9 30  1  0
 10 31  1  0
 10 32  1  0
 14 33  1  0
 14 34  1  0
 17 35  1  0
 24 36  1  0
 25 37  1  0
M  CHG  4   1  -1  11  -1  18  -1  21  -1
M  END
>  <UniqueID>  (43) 
41

>  <SMILES>  (43) 
[NH-]S(=O)(=O)c1ccc(CC[N-]C(=O)Cc2c(O)[n-]c(=O)[n-]c2=O)cc1

>  <Energy>  (43) 
31.523755882941455

>  <Genealogy>  (43) 
[NH-]S(=O)(=O)c1ccc(CC[N-]C(=O)Cc2c(O)[n-]c(=O)[n-]c2=O)cc1 (protonated)
[NH-]S(=O)(=O)c1ccc(CC[N-]C(=O)Cc2c(O)[n-]c(=O)[n-]c2=O)cc1 (3D coordinates assigned)
[NH-]S(=O)(=O)c1ccc(CC[N-]C(=O)Cc2c(O)[n-]c(=O)[n-]c2=O)cc1 (optimized conformer: 31.523755882941455 kcal/mol)

>  <smiles>  (43) 
NS(=O)(=O)c1ccc(CCNC(=O)Cc2c(O)[nH]c(=O)[nH]c2=O)cc1

>  <score_type>  (43) 
oracle

>  <origin>  (43) 
adg

>  <m_score__min__energy>  (43) 
-15.640000000000001

>  <m_primary>  (43) 
energy

$$$$
43:0
     RDKit          3D

 44 47  0  0  0  0  0  0  0  0999 V2000
   59.9840   35.6410   46.0570 C   0  0  0  0  0  0  0  0  0  0  0  0
   59.2640   34.4740   45.4630 C   0  0  0  0  0  0  0  0  0  0  0  0
   58.9220   34.4010   44.1540 N   0  0  0  0  0  0  0  0  0  0  0  0
   58.2950   33.2120   44.0690 C   0  0  0  0  0  0  0  0  0  0  0  0
   57.7890   32.6940   42.9260 N   0  0  0  0  0  0  0  0  0  0  0  0
   57.1870   31.4710   42.9500 C   0  0  0  0  0  0  0  0  0  0  0  0
   56.6720   30.9520   41.7690 O   0  0  0  0  0  0  0  0  0  0  0  0
   57.0840   30.7430   44.1630 C   0  0  0  0  0  0  0  0  0  0  0  0
   56.4650   29.3620   44.1860 C   0  0  0  0  0  0  0  0  0  0  0  0
   57.3900   28.3680   44.8490 C   0  0  0  0  0  0  0  0  0  0  0  0
   58.7830   28.5130   44.7150 C   0  0  0  0  0  0  0  0  0  0  0  0
   59.6540   27.6190   45.3430 C   0  0  0  0  0  0  0  0  0  0  0  0
   59.1480   26.5700   46.1150 C   0  0  0  0  0  0  0  0  0  0  0  0
   60.0290   25.6870   46.7380 O   0  0  0  0  0  0  0  0  0  0  0  0
   57.7630   26.4140   46.2540 C   0  0  0  0  0  0  0  0  0  0  0  0
   56.8850   27.3050   45.6250 C   0  0  0  0  0  0  0  0  0  0  0  0
   55.5150   27.1170   45.7700 O   0  0  0  0  0  0  0  0  0  0  0  0
   57.6100   31.3330   45.3350 C   0  0  0  0  0  0  0  0  0  0  0  0
   57.5050   30.7560   46.4500 O   0  0  0  0  0  0  0  0  0  0  0  0
   58.2150   32.5470   45.2320 N   0  0  0  0  0  0  0  0  0  0  0  0
   58.8320   33.3360   46.1380 C   0  0  0  0  0  0  0  0  0  0  0  0
   59.0820   32.9990   47.5860 C   0  0  0  0  0  0  0  0  0  0  0  0
   60.5160   32.5850   47.8140 C   0  0  0  0  0  0  0  0  0  0  0  0
   60.8140   31.3240   48.3620 C   0  0  0  0  0  0  0  0  0  0  0  0
   62.1410   30.9430   48.5770 C   0  0  0  0  0  0  0  0  0  0  0  0
   63.1830   31.8200   48.2600 C   0  0  0  0  0  0  0  0  0  0  0  0
   62.8970   33.0810   47.7330 C   0  0  0  0  0  0  0  0  0  0  0  0
   61.5700   33.4660   47.5150 C   0  0  0  0  0  0  0  0  0  0  0  0
   59.9442   35.5765   47.1544 H   0  0  0  0  0  0  0  0  0  0  0  0
   61.0333   35.6312   45.7269 H   0  0  0  0  0  0  0  0  0  0  0  0
   59.5045   36.5744   45.7269 H   0  0  0  0  0  0  0  0  0  0  0  0
   55.5181   29.4009   44.7444 H   0  0  0  0  0  0  0  0  0  0  0  0
   56.2866   29.0393   43.1496 H   0  0  0  0  0  0  0  0  0  0  0  0
   59.1899   29.3372   44.1107 H   0  0  0  0  0  0  0  0  0  0  0  0
   60.7412   27.7413   45.2293 H   0  0  0  0  0  0  0  0  0  0  0  0
   60.7070   25.1570   46.2040 H   0  0  0  0  0  0  0  0  0  0  0  0
   57.3632   25.5877   46.8601 H   0  0  0  0  0  0  0  0  0  0  0  0
   58.8620   33.8830   48.2026 H   0  0  0  0  0  0  0  0  0  0  0  0
   58.4298   32.1580   47.8640 H   0  0  0  0  0  0  0  0  0  0  0  0
   59.9978   30.6342   48.6227 H   0  0  0  0  0  0  0  0  0  0  0  0
   62.3664   29.9514   48.9964 H   0  0  0  0  0  0  0  0  0  0  0  0
   64.2273   31.5167   48.4257 H   0  0  0  0  0  0  0  0  0  0  0  0
   63.7166   33.7728   47.4889 H   0  0  0  0  0  0  0  0  0  0  0  0
   61.3499   34.4637   47.1073 H   0  0  0  0  0  0  0  0  0  0  0  0
  1  2  1  0
  2  3  1  0
  3  4  2  0
  4  5  1  0
  5  6  1  0
  6  7  1  0
  6  8  2  0
  8  9  1  0
  9 10  1  0
 10 11  2  0
 11 12  1  0
 12 13  2  0
 13 14  1  0
 13 15  1  0
 15 16  2  0
 16 17  1  0
  8 18  1  0
 18 19  2  0
 18 20  1  0
 20 21  1  0
 21 22  1  0
 22 23  1  0
 23 24  2  0
 24 25  1  0
 25 26  2  0
 26 27  1  0
 27 28  2  0
 21  2  2  0
 28 23  1  0
 20  4  1  0
 16 10  1  0
  1 29  1  0
  1 30  1  0
  1 31  1  0
  9 32  1  0
  9 33  1  0
 11 34  1  0
 12 35  1  0
 14 36  1  0
 15 37  1  0
 22 38  1  0
 22 39  1  0
 24 40  1  0
 25 41  1  0
 26 42  1  0
 27 43  1  0
 28 44  1  0
M  CHG  3   5  -1   7  -1  17  -1
M  END
>  <UniqueID>  (44) 
42

>  <SMILES>  (44) 
Cc1nc2[n-]c([O-])c(Cc3ccc(O)cc3[O-])c(=O)n2c1Cc1ccccc1

>  <Energy>  (44) 
84.86188877665388

>  <Genealogy>  (44) 
Cc1nc2[n-]c([O-])c(Cc3ccc(O)cc3[O-])c(=O)n2c1Cc1ccccc1 (protonated)
Cc1nc2[n-]c([O-])c(Cc3ccc(O)cc3[O-])c(=O)n2c1Cc1ccccc1 (3D coordinates assigned)
Cc1nc2[n-]c([O-])c(Cc3ccc(O)cc3[O-])c(=O)n2c1Cc1ccccc1 (optimized conformer: 84.86188877665388 kcal/mol)

>  <smiles>  (44) 
Cc1nc2[nH]c(O)c(Cc3ccc(O)cc3O)c(=O)n2c1Cc1ccccc1

>  <score_type>  (44) 
oracle

>  <origin>  (44) 
adg

>  <m_score__min__energy>  (44) 
-15.58

>  <m_primary>  (44) 
energy

$$$$
44:0
     RDKit          3D

 60 63  0  0  0  0  0  0  0  0999 V2000
   57.7490   21.0940   44.9610 C   0  0  0  0  0  0  0  0  0  0  0  0
   58.1990   22.0160   45.9490 O   0  0  0  0  0  0  0  0  0  0  0  0
   57.9210   23.3920   45.9390 C   0  0  0  0  0  0  0  0  0  0  0  0
   58.1610   24.1940   44.8060 C   0  0  0  0  0  0  0  0  0  0  0  0
   57.8880   25.5680   44.8400 C   0  0  0  0  0  0  0  0  0  0  0  0
   57.3480   26.1430   45.9960 C   0  0  0  0  0  0  0  0  0  0  0  0
   57.0890   25.3480   47.1200 C   0  0  0  0  0  0  0  0  0  0  0  0
   57.3810   23.9700   47.0990 C   0  0  0  0  0  0  0  0  0  0  0  0
   57.1460   23.1420   48.2070 O   0  0  0  0  0  0  0  0  0  0  0  0
   55.9000   22.5140   48.4950 C   0  0  0  0  0  0  0  0  0  0  0  0
   57.0170   27.6090   45.9820 C   0  0  0  0  0  0  0  0  0  0  0  0
   58.0590   28.3520   45.2520 N   0  0  0  0  0  0  0  0  0  0  0  0
   58.5120   29.6240   45.7480 C   0  0  0  0  0  0  0  0  0  0  0  0
   58.1090   30.8090   45.1180 C   0  0  0  0  0  0  0  0  0  0  0  0
   58.5480   32.0360   45.6120 C   0  0  0  0  0  0  0  0  0  0  0  0
   59.3780   32.0860   46.7410 C   0  0  0  0  0  0  0  0  0  0  0  0
   59.8700   33.3800   47.2680 C   0  0  0  0  0  0  0  0  0  0  0  0
   59.0990   34.3760   47.2830 O   0  0  0  0  0  0  0  0  0  0  0  0
   61.2050   33.5170   47.7860 N   0  0  0  0  0  0  0  0  0  0  0  0
   62.3600   33.1250   46.9690 C   0  0  0  0  0  0  0  0  0  0  0  0
   63.4310   32.4800   47.8540 C   0  0  0  0  0  0  0  0  0  0  0  0
   63.6900   33.2690   49.0700 N   0  0  0  0  0  0  0  0  0  0  0  0
   64.7990   32.8870   49.9140 C   0  0  0  0  0  0  0  0  0  0  0  0
   65.2950   33.7690   51.0190 C   0  0  0  0  0  0  0  0  0  0  0  0
   65.3690   31.7770   49.7330 O   0  0  0  0  0  0  0  0  0  0  0  0
   62.8960   34.4810   49.3370 C   0  0  0  0  0  0  0  0  0  0  0  0
   61.4100   34.2330   49.0510 C   0  0  0  0  0  0  0  0  0  0  0  0
   59.7640   30.8760   47.3400 C   0  0  0  0  0  0  0  0  0  0  0  0
   59.3260   29.6880   46.8420 N   0  0  0  0  0  0  0  0  0  0  0  0
   58.6700   27.8080   44.0250 C   0  0  0  0  0  0  0  0  0  0  0  0
   58.0940   26.4360   43.6290 C   0  0  0  0  0  0  0  0  0  0  0  0
   57.3176   20.2102   45.4537 H   0  0  0  0  0  0  0  0  0  0  0  0
   56.9838   21.5738   44.3331 H   0  0  0  0  0  0  0  0  0  0  0  0
   58.5981   20.7860   44.3331 H   0  0  0  0  0  0  0  0  0  0  0  0
   58.5649   23.7391   43.8895 H   0  0  0  0  0  0  0  0  0  0  0  0
   56.6555   25.8019   48.0234 H   0  0  0  0  0  0  0  0  0  0  0  0
   55.7665   22.4467   49.5848 H   0  0  0  0  0  0  0  0  0  0  0  0
   55.0815   23.1072   48.0613 H   0  0  0  0  0  0  0  0  0  0  0  0
   55.8900   21.5032   48.0613 H   0  0  0  0  0  0  0  0  0  0  0  0
   56.0468   27.7590   45.4858 H   0  0  0  0  0  0  0  0  0  0  0  0
   56.9668   27.9786   47.0168 H   0  0  0  0  0  0  0  0  0  0  0  0
   57.4497   30.7710   44.2383 H   0  0  0  0  0  0  0  0  0  0  0  0
   58.2424   32.9683   45.1146 H   0  0  0  0  0  0  0  0  0  0  0  0
   62.0372   32.4042   46.2034 H   0  0  0  0  0  0  0  0  0  0  0  0
   62.7808   34.0187   46.4851 H   0  0  0  0  0  0  0  0  0  0  0  0
   63.0914   31.4758   48.1478 H   0  0  0  0  0  0  0  0  0  0  0  0
   64.3653   32.4306   47.2755 H   0  0  0  0  0  0  0  0  0  0  0  0
   65.0415   33.3182   51.9898 H   0  0  0  0  0  0  0  0  0  0  0  0
   66.3867   33.8779   50.9392 H   0  0  0  0  0  0  0  0  0  0  0  0
   64.8210   34.7584   50.9392 H   0  0  0  0  0  0  0  0  0  0  0  0
   63.0173   34.7663   50.3924 H   0  0  0  0  0  0  0  0  0  0  0  0
   63.2517   35.2874   48.6788 H   0  0  0  0  0  0  0  0  0  0  0  0
   60.9858   33.6344   49.8706 H   0  0  0  0  0  0  0  0  0  0  0  0
   60.9116   35.2105   48.9726 H   0  0  0  0  0  0  0  0  0  0  0  0
   60.4256   30.8887   48.2187 H   0  0  0  0  0  0  0  0  0  0  0  0
   59.6470   28.8080   47.3020 H   0  0  0  0  0  0  0  0  0  0  0  0
   58.4925   28.5147   43.2010 H   0  0  0  0  0  0  0  0  0  0  0  0
   59.7436   27.6720   44.2220 H   0  0  0  0  0  0  0  0  0  0  0  0
   57.1281   26.5836   43.1237 H   0  0  0  0  0  0  0  0  0  0  0  0
   58.8080   25.9368   42.9574 H   0  0  0  0  0  0  0  0  0  0  0  0
  1  2  1  0
  2  3  1  0
  3  4  2  0
  4  5  1  0
  5  6  2  0
  6  7  1  0
  7  8  2  0
  8  9  1  0
  9 10  1  0
  6 11  1  0
 11 12  1  0
 12 13  1  0
 13 14  2  0
 14 15  1  0
 15 16  2  0
 16 17  1  0
 17 18  2  0
 17 19  1  0
 19 20  1  0
 20 21  1  0
 21 22  1  0
 22 23  1  0
 23 24  1  0
 23 25  2  0
 22 26  1  0
 26 27  1  0
 16 28  1  0
 28 29  2  0
 12 30  1  0
 30 31  1  0
  8  3  1  0
 29 13  1  0
 31  5  1  0
 27 19  1  0
  1 32  1  0
  1 33  1  0
  1 34  1  0
  4 35  1  0
  7 36  1  0
 10 37  1  0
 10 38  1  0
 10 39  1  0
 11 40  1  0
 11 41  1  0
 14 42  1  0
 15 43  1  0
 20 44  1  0
 20 45  1  0
 21 46  1  0
 21 47  1  0
 24 48  1  0
 24 49  1  0
 24 50  1  0
 26 51  1  0
 26 52  1  0
 27 53  1  0
 27 54  1  0
 28 55  1  0
 29 56  1  0
 30 57  1  0
 30 58  1  0
 31 59  1  0
 31 60  1  0
M  CHG  1  29   1
M  END
>  <UniqueID>  (45) 
43

>  <SMILES>  (45) 
COc1cc2c(cc1OC)CN(c1ccc(C(=O)N3CCN(C(C)=O)CC3)c[nH+]1)CC2

>  <Energy>  (45) 
73.04295271437826

>  <Genealogy>  (45) 
COc1cc2c(cc1OC)CN(c1ccc(C(=O)N3CCN(C(C)=O)CC3)c[nH+]1)CC2 (protonated)
COc1cc2c(cc1OC)CN(c1ccc(C(=O)N3CCN(C(C)=O)CC3)c[nH+]1)CC2 (3D coordinates assigned)
COc1cc2c(cc1OC)CN(c1ccc(C(=O)N3CCN(C(C)=O)CC3)c[nH+]1)CC2 (nonaromatic ring conformer: 73.04295271437826 kcal/mol)

>  <smiles>  (45) 
COc1cc2c(cc1OC)CN(c1ccc(C(=O)N3CCN(C(C)=O)CC3)cn1)CC2

>  <score_type>  (45) 
oracle

>  <origin>  (45) 
adg

>  <m_score__min__energy>  (45) 
-6.6100000000000003

>  <m_primary>  (45) 
energy

$$$$
45:0
     RDKit          3D

 21 22  0  0  0  0  0  0  0  0999 V2000
   55.9950   23.3190   44.1940 C   0  0  0  0  0  0  0  0  0  0  0  0
   56.0970   24.4740   44.8500 C   0  0  0  0  0  0  0  0  0  0  0  0
   57.4550   25.4640   44.8560 S   0  0  0  0  0  0  0  0  0  0  0  0
   56.7370   26.6180   45.8650 C   0  0  0  0  0  0  0  0  0  0  0  0
   57.3120   27.7350   46.3250 C   0  0  0  0  0  0  0  0  0  0  0  0
   57.4860   28.9580   45.5110 C   0  0  0  0  0  0  0  0  0  0  0  0
   56.4150   29.5340   44.8050 C   0  0  0  0  0  0  0  0  0  0  0  0
   55.1450   28.9680   44.8600 O   0  0  0  0  0  0  0  0  0  0  0  0
   56.6100   30.6680   44.0780 N   0  0  0  0  0  0  0  0  0  0  0  0
   57.8290   31.2730   44.0430 C   0  0  0  0  0  0  0  0  0  0  0  0
   58.0500   32.6390   43.1710 S   0  0  0  0  0  0  0  0  0  0  0  0
   58.8670   30.7510   44.7430 N   0  0  0  0  0  0  0  0  0  0  0  0
   58.7240   29.6180   45.4770 C   0  0  0  0  0  0  0  0  0  0  0  0
   59.7120   29.1650   46.1150 O   0  0  0  0  0  0  0  0  0  0  0  0
   55.4780   26.2560   46.2090 N   0  0  0  0  0  0  0  0  0  0  0  0
   55.1200   25.0710   45.6440 C   0  0  0  0  0  0  0  0  0  0  0  0
   53.9840   24.5660   45.8410 O   0  0  0  0  0  0  0  0  0  0  0  0
   55.0637   22.7361   44.2481 H   0  0  0  0  0  0  0  0  0  0  0  0
   56.8421   22.9482   43.5982 H   0  0  0  0  0  0  0  0  0  0  0  0
   57.6746   27.7445   47.3635 H   0  0  0  0  0  0  0  0  0  0  0  0
   55.8050   31.0780   43.5530 H   0  0  0  0  0  0  0  0  0  0  0  0
  1  2  2  0
  2  3  1  0
  3  4  1  0
  4  5  2  3
  5  6  1  0
  6  7  2  0
  7  8  1  0
  7  9  1  0
  9 10  1  0
 10 11  2  0
 10 12  1  0
 12 13  1  0
 13 14  2  0
  4 15  1  0
 15 16  1  0
 16 17  2  0
 16  2  1  0
 13  6  1  0
  1 18  1  0
  1 19  1  0
  5 20  1  0
  9 21  1  0
M  CHG  3   8  -1  12  -1  15  -1
M  END
>  <UniqueID>  (46) 
44

>  <SMILES>  (46) 
C=c1sc(=Cc2c([O-])[nH]c(=S)[n-]c2=O)[n-]c1=O

>  <Energy>  (46) 
60.98310273029836

>  <Genealogy>  (46) 
C=c1sc(=Cc2c([O-])[nH]c(=S)[n-]c2=O)[n-]c1=O (protonated)
C=c1sc(=Cc2c([O-])[nH]c(=S)[n-]c2=O)[n-]c1=O (3D coordinates assigned)
C=c1sc(=Cc2c([O-])[nH]c(=S)[n-]c2=O)[n-]c1=O (optimized conformer: 60.98310273029836 kcal/mol)

>  <smiles>  (46) 
C=c1sc(=Cc2c(O)[nH]c(=S)[nH]c2=O)[nH]c1=O

>  <score_type>  (46) 
oracle

>  <origin>  (46) 
adg

>  <m_score__min__energy>  (46) 
-13.359999999999999

>  <m_primary>  (46) 
energy

$$$$
46:0
     RDKit          3D

 51 53  0  0  0  0  0  0  0  0999 V2000
   65.2900   34.1400   51.4160 C   0  0  0  0  0  0  0  0  0  0  0  0
   64.1150   33.3910   50.9460 N   0  0  0  0  0  0  0  0  0  0  0  0
   64.4730   32.4590   49.8480 C   0  0  0  0  0  0  0  0  0  0  0  0
   64.1510   33.0170   48.4550 C   0  0  0  0  0  0  0  0  0  0  0  0
   62.7390   33.4060   48.3750 N   0  0  0  0  0  0  0  0  0  0  0  0
   62.1220   33.5990   47.0870 C   0  0  0  0  0  0  0  0  0  0  0  0
   62.8410   33.8390   46.0790 O   0  0  0  0  0  0  0  0  0  0  0  0
   60.6540   33.5510   46.9230 C   0  0  0  0  0  0  0  0  0  0  0  0
   60.0390   34.4940   46.0820 C   0  0  0  0  0  0  0  0  0  0  0  0
   58.6480   34.5580   45.9900 C   0  0  0  0  0  0  0  0  0  0  0  0
   57.8570   33.6840   46.7370 C   0  0  0  0  0  0  0  0  0  0  0  0
   58.4550   32.7270   47.5590 C   0  0  0  0  0  0  0  0  0  0  0  0
   59.8500   32.6280   47.6360 C   0  0  0  0  0  0  0  0  0  0  0  0
   60.4140   31.5760   48.4310 N   0  0  0  0  0  0  0  0  0  0  0  0
   61.0120   30.3910   47.8950 C   0  0  0  0  0  0  0  0  0  0  0  0
   62.0310   30.4730   47.1550 O   0  0  0  0  0  0  0  0  0  0  0  0
   60.3450   29.0670   48.1370 C   0  0  0  0  0  0  0  0  0  0  0  0
   59.6250   28.5530   46.9150 C   0  0  0  0  0  0  0  0  0  0  0  0
   59.8920   27.2620   46.4280 C   0  0  0  0  0  0  0  0  0  0  0  0
   59.1980   26.7720   45.3190 C   0  0  0  0  0  0  0  0  0  0  0  0
   58.2260   27.5570   44.6950 C   0  0  0  0  0  0  0  0  0  0  0  0
   57.9390   28.8400   45.1820 C   0  0  0  0  0  0  0  0  0  0  0  0
   56.7120   29.8400   44.4120 S   0  0  0  0  0  0  0  0  0  0  0  0
   55.1420   29.2850   44.8730 N   0  0  0  0  0  0  0  0  0  0  0  0
   56.8590   29.7560   42.9190 O   0  0  0  0  0  0  0  0  0  0  0  0
   56.8740   31.2740   44.8330 O   0  0  0  0  0  0  0  0  0  0  0  0
   58.6450   29.3360   46.2850 C   0  0  0  0  0  0  0  0  0  0  0  0
   62.0190   33.7250   49.6150 C   0  0  0  0  0  0  0  0  0  0  0  0
   62.9950   34.3130   50.6380 C   0  0  0  0  0  0  0  0  0  0  0  0
   65.3035   34.1486   52.5159 H   0  0  0  0  0  0  0  0  0  0  0  0
   66.2055   33.6585   51.0418 H   0  0  0  0  0  0  0  0  0  0  0  0
   65.2400   35.1732   51.0418 H   0  0  0  0  0  0  0  0  0  0  0  0
   65.5522   32.2530   49.9016 H   0  0  0  0  0  0  0  0  0  0  0  0
   63.8723   31.5474   49.9829 H   0  0  0  0  0  0  0  0  0  0  0  0
   64.7813   33.8978   48.2626 H   0  0  0  0  0  0  0  0  0  0  0  0
   64.3503   32.2388   47.7036 H   0  0  0  0  0  0  0  0  0  0  0  0
   60.6581   35.1862   45.4924 H   0  0  0  0  0  0  0  0  0  0  0  0
   58.1746   35.2981   45.3280 H   0  0  0  0  0  0  0  0  0  0  0  0
   56.7605   33.7492   46.6780 H   0  0  0  0  0  0  0  0  0  0  0  0
   57.8259   32.0456   48.1506 H   0  0  0  0  0  0  0  0  0  0  0  0
   61.1111   28.3340   48.4299 H   0  0  0  0  0  0  0  0  0  0  0  0
   59.5975   29.2087   48.9315 H   0  0  0  0  0  0  0  0  0  0  0  0
   60.6496   26.6355   46.9215 H   0  0  0  0  0  0  0  0  0  0  0  0
   59.4179   25.7645   44.9360 H   0  0  0  0  0  0  0  0  0  0  0  0
   57.6847   27.1680   43.8200 H   0  0  0  0  0  0  0  0  0  0  0  0
   54.8070   28.6530   44.1110 H   0  0  0  0  0  0  0  0  0  0  0  0
   58.4299   30.3472   46.6607 H   0  0  0  0  0  0  0  0  0  0  0  0
   61.2274   34.4581   49.4006 H   0  0  0  0  0  0  0  0  0  0  0  0
   61.5699   32.8076   50.0234 H   0  0  0  0  0  0  0  0  0  0  0  0
   63.4087   35.2488   50.2341 H   0  0  0  0  0  0  0  0  0  0  0  0
   62.4384   34.4876   51.5706 H   0  0  0  0  0  0  0  0  0  0  0  0
  1  2  1  0
  2  3  1  0
  3  4  1  0
  4  5  1  0
  5  6  1  0
  6  7  2  0
  6  8  1  0
  8  9  2  0
  9 10  1  0
 10 11  2  0
 11 12  1  0
 12 13  2  0
 13 14  1  0
 14 15  1  0
 15 16  2  0
 15 17  1  0
 17 18  1  0
 18 19  2  0
 19 20  1  0
 20 21  2  0
 21 22  1  0
 22 23  1  0
 23 24  1  0
 23 25  2  0
 23 26  2  0
 22 27  2  0
  5 28  1  0
 28 29  1  0
 29  2  1  0
 13  8  1  0
 27 18  1  0
  1 30  1  0
  1 31  1  0
  1 32  1  0
  3 33  1  0
  3 34  1  0
  4 35  1  0
  4 36  1  0
  9 37  1  0
 10 38  1  0
 11 39  1  0
 12 40  1  0
 17 41  1  0
 17 42  1  0
 19 43  1  0
 20 44  1  0
 21 45  1  0
 24 46  1  0
 27 47  1  0
 28 48  1  0
 28 49  1  0
 29 50  1  0
 29 51  1  0
M  CHG  2  14  -1  24  -1
M  END
>  <UniqueID>  (47) 
45

>  <SMILES>  (47) 
CN1CCN(C(=O)c2ccccc2[N-]C(=O)Cc2cccc(S([NH-])(=O)=O)c2)CC1

>  <Energy>  (47) 
66.64070076251228

>  <Genealogy>  (47) 
CN1CCN(C(=O)c2ccccc2[N-]C(=O)Cc2cccc(S([NH-])(=O)=O)c2)CC1 (protonated)
CN1CCN(C(=O)c2ccccc2[N-]C(=O)Cc2cccc(S([NH-])(=O)=O)c2)CC1 (3D coordinates assigned)
CN1CCN(C(=O)c2ccccc2[N-]C(=O)Cc2cccc(S([NH-])(=O)=O)c2)CC1 (nonaromatic ring conformer: 66.64070076251228 kcal/mol)

>  <smiles>  (47) 
CN1CCN(C(=O)c2ccccc2NC(=O)Cc2cccc(S(N)(=O)=O)c2)CC1

>  <score_type>  (47) 
oracle

>  <origin>  (47) 
adg

>  <m_score__min__energy>  (47) 
-12.99

>  <m_primary>  (47) 
energy

$$$$
47:0
     RDKit          3D

 51 54  0  0  0  0  0  0  0  0999 V2000
   64.4320   33.4560   50.7000 C   0  0  0  0  0  0  0  0  0  0  0  0
   63.7310   33.4910   49.3800 C   0  0  0  0  0  0  0  0  0  0  0  0
   62.3700   33.8160   49.3070 C   0  0  0  0  0  0  0  0  0  0  0  0
   61.7220   33.8270   48.0610 C   0  0  0  0  0  0  0  0  0  0  0  0
   60.2840   34.1640   47.9570 C   0  0  0  0  0  0  0  0  0  0  0  0
   59.7750   34.9500   48.8020 O   0  0  0  0  0  0  0  0  0  0  0  0
   59.4570   33.6280   46.9060 N   0  0  0  0  0  0  0  0  0  0  0  0
   58.9610   34.5130   45.8500 C   0  0  0  0  0  0  0  0  0  0  0  0
   57.9720   33.7660   44.9480 C   0  0  0  0  0  0  0  0  0  0  0  0
   58.5050   32.5310   44.5030 O   0  0  0  0  0  0  0  0  0  0  0  0
   58.8960   31.6540   45.5610 C   0  0  2  0  0  0  0  0  0  0  0  0
   58.0650   30.3980   45.5340 C   0  0  0  0  0  0  0  0  0  0  0  0
   56.9290   30.2920   44.7180 C   0  0  0  0  0  0  0  0  0  0  0  0
   56.1640   29.1260   44.7540 C   0  0  0  0  0  0  0  0  0  0  0  0
   56.5170   28.0800   45.6090 C   0  0  0  0  0  0  0  0  0  0  0  0
   55.7210   26.8860   45.6220 N   0  0  0  0  0  0  0  0  0  0  0  0
   56.1090   25.6150   46.1660 C   0  0  0  0  0  0  0  0  0  0  0  0
   56.2970   25.5250   47.4070 O   0  0  0  0  0  0  0  0  0  0  0  0
   56.3400   24.4280   45.3090 C   0  0  0  0  0  0  0  0  0  0  0  0
   57.4710   23.6120   45.4950 C   0  0  0  0  0  0  0  0  0  0  0  0
   57.6860   22.5020   44.6720 C   0  0  0  0  0  0  0  0  0  0  0  0
   56.7670   22.1870   43.6660 C   0  0  0  0  0  0  0  0  0  0  0  0
   57.0400   20.7950   42.6330 Cl  0  0  0  0  0  0  0  0  0  0  0  0
   55.6310   22.9810   43.4860 C   0  0  0  0  0  0  0  0  0  0  0  0
   55.4130   24.0920   44.3050 C   0  0  0  0  0  0  0  0  0  0  0  0
   57.6720   28.2150   46.3970 C   0  0  0  0  0  0  0  0  0  0  0  0
   58.4010   29.3600   46.3480 N   0  0  0  0  0  0  0  0  0  0  0  0
   58.9130   32.2690   46.9800 C   0  0  0  0  0  0  0  0  0  0  0  0
   62.4490   33.4680   46.9150 C   0  0  0  0  0  0  0  0  0  0  0  0
   63.7990   33.1360   47.0310 C   0  0  0  0  0  0  0  0  0  0  0  0
   64.4060   33.1530   48.2480 N   0  0  0  0  0  0  0  0  0  0  0  0
   63.6894   33.4931   51.5106 H   0  0  0  0  0  0  0  0  0  0  0  0
   65.0164   32.5276   50.7803 H   0  0  0  0  0  0  0  0  0  0  0  0
   65.1060   34.3216   50.7803 H   0  0  0  0  0  0  0  0  0  0  0  0
   61.8112   34.0616   50.2221 H   0  0  0  0  0  0  0  0  0  0  0  0
   58.4540   35.3751   46.3079 H   0  0  0  0  0  0  0  0  0  0  0  0
   59.8115   34.8543   45.2415 H   0  0  0  0  0  0  0  0  0  0  0  0
   57.0481   33.5736   45.5131 H   0  0  0  0  0  0  0  0  0  0  0  0
   57.7690   34.3917   44.0664 H   0  0  0  0  0  0  0  0  0  0  0  0
   59.9517   31.4238   45.3548 H   0  0  0  0  0  0  0  0  0  0  0  0
   56.6436   31.1219   44.0548 H   0  0  0  0  0  0  0  0  0  0  0  0
   55.2798   29.0303   44.1067 H   0  0  0  0  0  0  0  0  0  0  0  0
   58.1905   23.8486   46.2927 H   0  0  0  0  0  0  0  0  0  0  0  0
   58.5789   21.8760   44.8161 H   0  0  0  0  0  0  0  0  0  0  0  0
   54.9063   22.7306   42.6972 H   0  0  0  0  0  0  0  0  0  0  0  0
   54.5120   24.7072   44.1642 H   0  0  0  0  0  0  0  0  0  0  0  0
   57.9867   27.3917   47.0551 H   0  0  0  0  0  0  0  0  0  0  0  0
   57.8885   32.3033   47.3791 H   0  0  0  0  0  0  0  0  0  0  0  0
   59.5391   31.6543   47.6434 H   0  0  0  0  0  0  0  0  0  0  0  0
   61.9571   33.4486   45.9313 H   0  0  0  0  0  0  0  0  0  0  0  0
   64.3745   32.8596   46.1352 H   0  0  0  0  0  0  0  0  0  0  0  0
  1  2  1  0
  2  3  2  0
  3  4  1  0
  4  5  1  0
  5  6  2  0
  5  7  1  0
  7  8  1  0
  8  9  1  0
  9 10  1  0
 10 11  1  0
 11 12  1  0
 12 13  2  0
 13 14  1  0
 14 15  2  0
 15 16  1  0
 16 17  1  0
 17 18  2  0
 17 19  1  0
 19 20  2  0
 20 21  1  0
 21 22  2  0
 22 23  1  0
 22 24  1  0
 24 25  2  0
 15 26  1  0
 26 27  2  0
 11 28  1  0
  4 29  2  0
 29 30  1  0
 30 31  2  0
 31  2  1  0
 28  7  1  0
 27 12  1  0
 25 19  1  0
  1 32  1  0
  1 33  1  0
  1 34  1  0
  3 35  1  0
  8 36  1  0
  8 37  1  0
  9 38  1  0
  9 39  1  0
 11 40  1  6
 13 41  1  0
 14 42  1  0
 20 43  1  0
 21 44  1  0
 24 45  1  0
 25 46  1  0
 26 47  1  0
 28 48  1  0
 28 49  1  0
 29 50  1  0
 30 51  1  0
M  CHG  1  16  -1
M  END
>  <UniqueID>  (48) 
46

>  <SMILES>  (48) 
Cc1cc(C(=O)N2CCO[C@H](c3ccc([N-]C(=O)c4ccc(Cl)cc4)cn3)C2)ccn1

>  <Energy>  (48) 
74.4505488106543

>  <Genealogy>  (48) 
Cc1cc(C(=O)N2CCOC(c3ccc([N-]C(=O)c4ccc(Cl)cc4)cn3)C2)ccn1 (protonated)
Cc1cc(C(=O)N2CCO[C@H](c3ccc([N-]C(=O)c4ccc(Cl)cc4)cn3)C2)ccn1 (chirality)
Cc1cc(C(=O)N2CCO[C@H](c3ccc([N-]C(=O)c4ccc(Cl)cc4)cn3)C2)ccn1 (3D coordinates assigned)
Cc1cc(C(=O)N2CCO[C@H](c3ccc([N-]C(=O)c4ccc(Cl)cc4)cn3)C2)ccn1 (nonaromatic ring conformer: 74.4505488106543 kcal/mol)

>  <smiles>  (48) 
Cc1cc(C(=O)N2CCOC(c3ccc(NC(=O)c4ccc(Cl)cc4)cn3)C2)ccn1

>  <score_type>  (48) 
oracle

>  <origin>  (48) 
adg

>  <m_score__min__energy>  (48) 
-10.81

>  <m_primary>  (48) 
energy

$$$$
48:0
     RDKit          3D

 50 53  0  0  0  0  0  0  0  0999 V2000
   57.4790   28.5470   45.8070 C   0  0  0  0  0  0  0  0  0  0  0  0
   57.9090   27.1160   45.7400 C   0  0  0  0  0  0  0  0  0  0  0  0
   57.3730   26.2300   44.8800 N   0  0  0  0  0  0  0  0  0  0  0  0
   57.8890   25.0370   45.1440 N   0  0  0  0  0  0  0  0  0  0  0  0
   57.5540   23.8440   44.4100 C   0  0  0  0  0  0  0  0  0  0  0  0
   58.3160   22.6720   44.5830 C   0  0  0  0  0  0  0  0  0  0  0  0
   57.9930   21.5060   43.8830 C   0  0  0  0  0  0  0  0  0  0  0  0
   56.9050   21.4910   43.0070 C   0  0  0  0  0  0  0  0  0  0  0  0
   56.1350   22.6440   42.8320 C   0  0  0  0  0  0  0  0  0  0  0  0
   56.4550   23.8140   43.5280 C   0  0  0  0  0  0  0  0  0  0  0  0
   58.7430   25.1370   46.1880 C   0  0  0  0  0  0  0  0  0  0  0  0
   58.7910   26.4570   46.5850 C   0  0  0  0  0  0  0  0  0  0  0  0
   59.5840   27.0030   47.6990 C   0  0  0  0  0  0  0  0  0  0  0  0
   59.7910   26.2790   48.7100 O   0  0  0  0  0  0  0  0  0  0  0  0
   60.1290   28.3350   47.6480 N   0  0  0  0  0  0  0  0  0  0  0  0
   60.2160   29.1170   48.8890 C   0  0  0  0  0  0  0  0  0  0  0  0
   60.9820   30.4290   48.6840 C   0  0  0  0  0  0  0  0  0  0  0  0
   60.5400   31.0860   47.4480 N   0  0  0  0  0  0  0  0  0  0  0  0
   60.4680   32.5230   47.3940 C   0  0  0  0  0  0  0  0  0  0  0  0
   61.2530   33.2140   48.0980 O   0  0  0  0  0  0  0  0  0  0  0  0
   59.5010   33.2100   46.5140 C   0  0  0  0  0  0  0  0  0  0  0  0
   59.8940   34.3620   45.8130 C   0  0  0  0  0  0  0  0  0  0  0  0
   58.9860   35.0210   44.9790 C   0  0  0  0  0  0  0  0  0  0  0  0
   57.6790   34.5480   44.8510 C   0  0  0  0  0  0  0  0  0  0  0  0
   57.2760   33.4120   45.5590 C   0  0  0  0  0  0  0  0  0  0  0  0
   58.1790   32.7440   46.3910 C   0  0  0  0  0  0  0  0  0  0  0  0
   57.7530   31.6700   47.1030 F   0  0  0  0  0  0  0  0  0  0  0  0
   60.4190   30.3110   46.2030 C   0  0  0  0  0  0  0  0  0  0  0  0
   60.7610   28.8330   46.4170 C   0  0  0  0  0  0  0  0  0  0  0  0
   57.3870   28.8533   46.8595 H   0  0  0  0  0  0  0  0  0  0  0  0
   58.2271   29.1785   45.3054 H   0  0  0  0  0  0  0  0  0  0  0  0
   56.5068   28.6616   45.3054 H   0  0  0  0  0  0  0  0  0  0  0  0
   59.1717   22.6744   45.2742 H   0  0  0  0  0  0  0  0  0  0  0  0
   58.5974   20.5975   44.0224 H   0  0  0  0  0  0  0  0  0  0  0  0
   56.6546   20.5727   42.4556 H   0  0  0  0  0  0  0  0  0  0  0  0
   55.2756   22.6312   42.1455 H   0  0  0  0  0  0  0  0  0  0  0  0
   55.8443   24.7178   43.3860 H   0  0  0  0  0  0  0  0  0  0  0  0
   59.3037   24.3071   46.6429 H   0  0  0  0  0  0  0  0  0  0  0  0
   59.1981   29.3496   49.2351 H   0  0  0  0  0  0  0  0  0  0  0  0
   60.7599   28.5168   49.6333 H   0  0  0  0  0  0  0  0  0  0  0  0
   60.7941   31.0967   49.5377 H   0  0  0  0  0  0  0  0  0  0  0  0
   62.0572   30.2090   48.6090 H   0  0  0  0  0  0  0  0  0  0  0  0
   60.9189   34.7466   45.9205 H   0  0  0  0  0  0  0  0  0  0  0  0
   59.3025   35.9151   44.4219 H   0  0  0  0  0  0  0  0  0  0  0  0
   56.9669   35.0686   44.1938 H   0  0  0  0  0  0  0  0  0  0  0  0
   56.2446   33.0425   45.4610 H   0  0  0  0  0  0  0  0  0  0  0  0
   59.3852   30.3875   45.8351 H   0  0  0  0  0  0  0  0  0  0  0  0
   61.1303   30.7242   45.4727 H   0  0  0  0  0  0  0  0  0  0  0  0
   60.3959   28.2484   45.5597 H   0  0  0  0  0  0  0  0  0  0  0  0
   61.8522   28.7282   46.5078 H   0  0  0  0  0  0  0  0  0  0  0  0
  1  2  1  0
  2  3  2  0
  3  4  1  0
  4  5  1  0
  5  6  2  0
  6  7  1  0
  7  8  2  0
  8  9  1  0
  9 10  2  0
  4 11  1  0
 11 12  2  0
 12 13  1  0
 13 14  2  0
 13 15  1  0
 15 16  1  0
 16 17  1  0
 17 18  1  0
 18 19  1  0
 19 20  2  0
 19 21  1  0
 21 22  2  0
 22 23  1  0
 23 24  2  0
 24 25  1  0
 25 26  2  0
 26 27  1  0
 18 28  1  0
 28 29  1  0
 12  2  1  0
 29 15  1  0
 10  5  1  0
 26 21  1  0
  1 30  1  0
  1 31  1  0
  1 32  1  0
  6 33  1  0
  7 34  1  0
  8 35  1  0
  9 36  1  0
 10 37  1  0
 11 38  1  0
 16 39  1  0
 16 40  1  0
 17 41  1  0
 17 42  1  0
 22 43  1  0
 23 44  1  0
 24 45  1  0
 25 46  1  0
 28 47  1  0
 28 48  1  0
 29 49  1  0
 29 50  1  0
M  END
>  <UniqueID>  (49) 
47

>  <SMILES>  (49) 
Cc1nn(-c2ccccc2)cc1C(=O)N1CCN(C(=O)c2ccccc2F)CC1

>  <Energy>  (49) 
96.01183139515554

>  <Genealogy>  (49) 
Cc1nn(-c2ccccc2)cc1C(=O)N1CCN(C(=O)c2ccccc2F)CC1 (3D coordinates assigned)
Cc1nn(-c2ccccc2)cc1C(=O)N1CCN(C(=O)c2ccccc2F)CC1 (nonaromatic ring conformer: 96.01183139515554 kcal/mol)

>  <smiles>  (49) 
Cc1nn(-c2ccccc2)cc1C(=O)N1CCN(C(=O)c2ccccc2F)CC1

>  <score_type>  (49) 
oracle

>  <origin>  (49) 
adg

>  <m_score__min__energy>  (49) 
-8.6400000000000006

>  <m_primary>  (49) 
energy

$$$$
49:0
     RDKit          3D

 47 49  0  0  0  0  0  0  0  0999 V2000
   61.8816   28.7394   45.7135 H   0  0  0  0  0  0  0  0  0  0  0  0
   60.7910   28.6070   45.6580 C   0  0  0  0  0  0  0  0  0  0  0  0
   59.9890   28.9520   46.7480 C   0  0  0  0  0  0  0  0  0  0  0  0
   60.4499   29.3526   47.6629 H   0  0  0  0  0  0  0  0  0  0  0  0
   58.6040   28.7900   46.6800 C   0  0  0  0  0  0  0  0  0  0  0  0
   57.8410   29.1630   47.7400 F   0  0  0  0  0  0  0  0  0  0  0  0
   58.0080   28.2510   45.5240 C   0  0  0  0  0  0  0  0  0  0  0  0
   56.5420   28.0860   45.4650 C   0  0  0  0  0  0  0  0  0  0  0  0
   56.0240   27.0330   45.9220 O   0  0  0  0  0  0  0  0  0  0  0  0
   55.6910   29.0810   44.8830 N   0  0  0  0  0  0  0  0  0  0  0  0
   56.1430   30.3420   44.2940 C   0  0  1  0  0  0  0  0  0  0  0  0
   55.3060   31.0554   44.2696 H   0  0  0  0  0  0  0  0  0  0  0  0
   57.2820   30.9140   45.1490 C   0  0  0  0  0  0  0  0  0  0  0  0
   56.8875   31.1729   46.1427 H   0  0  0  0  0  0  0  0  0  0  0  0
   58.0710   30.1515   45.2269 H   0  0  0  0  0  0  0  0  0  0  0  0
   57.8640   32.1190   44.5370 N   0  0  0  0  0  0  0  0  0  0  0  0
   58.7160   32.9690   45.3330 C   0  0  0  0  0  0  0  0  0  0  0  0
   58.6870   34.3600   45.1630 C   0  0  0  0  0  0  0  0  0  0  0  0
   57.9929   34.8139   44.4404 H   0  0  0  0  0  0  0  0  0  0  0  0
   59.5420   35.1660   45.9140 C   0  0  0  0  0  0  0  0  0  0  0  0
   59.5220   36.2579   45.7824 H   0  0  0  0  0  0  0  0  0  0  0  0
   60.3990   34.6080   46.8070 N   0  0  0  0  0  0  0  0  0  0  0  0
   61.0290   35.2420   47.3500 H   0  0  0  0  0  0  0  0  0  0  0  0
   60.4600   33.2600   47.0100 C   0  0  0  0  0  0  0  0  0  0  0  0
   61.3090   32.7950   47.8860 N   0  0  0  0  0  0  0  0  0  0  0  0
   62.7090   32.4240   47.6670 C   0  0  0  0  0  0  0  0  0  0  0  0
   62.7478   31.4481   47.1609 H   0  0  0  0  0  0  0  0  0  0  0  0
   63.2151   32.3720   48.6423 H   0  0  0  0  0  0  0  0  0  0  0  0
   63.4210   33.4640   46.8030 C   0  0  0  0  0  0  0  0  0  0  0  0
   63.9231   34.1974   47.4511 H   0  0  0  0  0  0  0  0  0  0  0  0
   64.1673   32.9643   46.1680 H   0  0  0  0  0  0  0  0  0  0  0  0
   62.6851   33.9790   46.1680 H   0  0  0  0  0  0  0  0  0  0  0  0
   59.6030   32.4160   46.2710 C   0  0  0  0  0  0  0  0  0  0  0  0
   59.6299   31.3278   46.4295 H   0  0  0  0  0  0  0  0  0  0  0  0
   57.4480   32.5360   43.1910 C   0  0  0  0  0  0  0  0  0  0  0  0
   56.4550   33.0057   43.2479 H   0  0  0  0  0  0  0  0  0  0  0  0
   58.1833   33.2527   42.7964 H   0  0  0  0  0  0  0  0  0  0  0  0
   57.3810   31.3240   42.2520 C   0  0  0  0  0  0  0  0  0  0  0  0
   56.8697   31.6295   41.3272 H   0  0  0  0  0  0  0  0  0  0  0  0
   58.4167   30.9997   42.0727 H   0  0  0  0  0  0  0  0  0  0  0  0
   56.6270   30.1140   42.8490 C   0  0  0  0  0  0  0  0  0  0  0  0
   55.7510   29.9039   42.2177 H   0  0  0  0  0  0  0  0  0  0  0  0
   57.3351   29.2726   42.8744 H   0  0  0  0  0  0  0  0  0  0  0  0
   58.8210   27.9160   44.4210 C   0  0  0  0  0  0  0  0  0  0  0  0
   58.1410   27.2450   42.9430 Cl  0  0  0  0  0  0  0  0  0  0  0  0
   60.2080   28.0940   44.4980 C   0  0  0  0  0  0  0  0  0  0  0  0
   60.8418   27.8280   43.6392 H   0  0  0  0  0  0  0  0  0  0  0  0
  1  2  1  0
  2  3  2  0
  3  4  1  0
  3  5  1  0
  5  6  1  0
  5  7  2  0
  7  8  1  0
  8  9  2  0
  8 10  1  0
 10 11  1  0
 11 12  1  6
 11 13  1  0
 13 14  1  0
 13 15  1  0
 13 16  1  0
 16 17  1  0
 17 18  1  0
 18 19  1  0
 18 20  2  0
 20 21  1  0
 20 22  1  0
 22 23  1  0
 22 24  1  0
 24 25  2  0
 25 26  1  0
 26 27  1  0
 26 28  1  0
 26 29  1  0
 29 30  1  0
 29 31  1  0
 29 32  1  0
 24 33  1  0
 33 34  1  0
 16 35  1  0
 35 36  1  0
 35 37  1  0
 35 38  1  0
 38 39  1  0
 38 40  1  0
 38 41  1  0
 41 42  1  0
 41 43  1  0
  7 44  1  0
 44 45  1  0
 44 46  2  0
 46 47  1  0
 46  2  1  0
 41 11  1  0
 33 17  2  0
M  CHG  1  10  -1
M  END
>  <UniqueID>  (50) 
48

>  <SMILES>  (50) 
CC/N=c1\cc(N2CCC[C@@H]([N-]C(=O)c3c(F)cccc3Cl)C2)cc[nH]1

>  <Energy>  (50) 
58.95702997922715

>  <Genealogy>  (50) 
CCN=c1cc(N2CCCC([N-]C(=O)c3c(F)cccc3Cl)C2)cc[nH]1 (protonated)
CCN=c1cc(N2CCC[C@@H]([N-]C(=O)c3c(F)cccc3Cl)C2)cc[nH]1 (chirality)
CC/N=c1\cc(N2CCC[C@@H]([N-]C(=O)c3c(F)cccc3Cl)C2)cc[nH]1 (cis-trans isomerization)
CC/N=c1\cc(N2CCC[C@@H]([N-]C(=O)c3c(F)cccc3Cl)C2)cc[nH]1 (3D coordinates assigned)
CC/N=c1\cc(N2CCC[C@@H]([N-]C(=O)c3c(F)cccc3Cl)C2)cc[nH]1 (nonaromatic ring conformer: 58.95702997922715 kcal/mol)

>  <smiles>  (50) 
CCN=c1cc(N2CCCC(NC(=O)c3c(F)cccc3Cl)C2)cc[nH]1

>  <score_type>  (50) 
oracle

>  <origin>  (50) 
adg

>  <m_score__min__energy>  (50) 
-9.7100000000000009

>  <m_primary>  (50) 
energy

$$$$
50:0
     RDKit          3D

 48 50  0  0  0  0  0  0  0  0999 V2000
   63.9620   33.4840   47.4770 C   0  0  0  0  0  0  0  0  0  0  0  0
   62.9660   33.1460   48.5890 C   0  0  0  0  0  0  0  0  0  0  0  0
   62.6890   34.3670   49.4690 C   0  0  0  0  0  0  0  0  0  0  0  0
   61.7200   32.6460   48.0080 N   0  0  0  0  0  0  0  0  0  0  0  0
   60.5860   33.3560   47.8440 C   0  0  0  0  0  0  0  0  0  0  0  0
   59.6350   32.5260   47.2890 C   0  0  0  0  0  0  0  0  0  0  0  0
   58.2900   32.9250   46.8350 C   0  0  0  0  0  0  0  0  0  0  0  0
   57.3530   32.9450   47.6790 O   0  0  0  0  0  0  0  0  0  0  0  0
   58.0280   33.2940   45.4640 N   0  0  0  0  0  0  0  0  0  0  0  0
   57.3020   34.5410   45.2020 C   0  0  0  0  0  0  0  0  0  0  0  0
   58.5100   32.4750   44.3370 C   0  0  0  0  0  0  0  0  0  0  0  0
   57.5100   31.4130   43.9700 C   0  0  0  0  0  0  0  0  0  0  0  0
   57.0270   30.5270   44.8670 N   0  0  0  0  0  0  0  0  0  0  0  0
   56.2210   29.7250   44.1410 C   0  0  0  0  0  0  0  0  0  0  0  0
   56.2300   30.1310   42.8250 C   0  0  0  0  0  0  0  0  0  0  0  0
   57.0310   31.2040   42.7250 N   0  0  0  0  0  0  0  0  0  0  0  0
   57.4020   31.8890   41.4910 C   0  0  0  0  0  0  0  0  0  0  0  0
   60.2750   31.3000   47.1310 C   0  0  0  0  0  0  0  0  0  0  0  0
   59.7120   30.0360   46.6040 C   0  0  0  0  0  0  0  0  0  0  0  0
   60.1360   29.5560   45.3520 C   0  0  0  0  0  0  0  0  0  0  0  0
   59.6330   28.3520   44.8480 C   0  0  0  0  0  0  0  0  0  0  0  0
   58.7140   27.6100   45.5940 C   0  0  0  0  0  0  0  0  0  0  0  0
   58.2300   26.4420   45.1050 F   0  0  0  0  0  0  0  0  0  0  0  0
   58.3010   28.0690   46.8470 C   0  0  0  0  0  0  0  0  0  0  0  0
   58.7990   29.2730   47.3540 C   0  0  0  0  0  0  0  0  0  0  0  0
   61.5420   31.4040   47.5820 N   0  0  0  0  0  0  0  0  0  0  0  0
   64.9141   33.8071   47.9233 H   0  0  0  0  0  0  0  0  0  0  0  0
   64.1325   32.5934   46.8543 H   0  0  0  0  0  0  0  0  0  0  0  0
   63.5552   34.2944   46.8543 H   0  0  0  0  0  0  0  0  0  0  0  0
   63.4077   32.3634   49.2233 H   0  0  0  0  0  0  0  0  0  0  0  0
   62.7546   34.0780   50.5283 H   0  0  0  0  0  0  0  0  0  0  0  0
   63.4325   35.1490   49.2556 H   0  0  0  0  0  0  0  0  0  0  0  0
   61.6808   34.7516   49.2556 H   0  0  0  0  0  0  0  0  0  0  0  0
   60.4438   34.4145   48.1074 H   0  0  0  0  0  0  0  0  0  0  0  0
   57.0273   35.0129   46.1569 H   0  0  0  0  0  0  0  0  0  0  0  0
   57.9433   35.2246   44.6263 H   0  0  0  0  0  0  0  0  0  0  0  0
   56.3909   34.3208   44.6263 H   0  0  0  0  0  0  0  0  0  0  0  0
   58.6780   33.1260   43.4664 H   0  0  0  0  0  0  0  0  0  0  0  0
   59.4461   31.9827   44.6393 H   0  0  0  0  0  0  0  0  0  0  0  0
   55.6449   28.8767   44.5391 H   0  0  0  0  0  0  0  0  0  0  0  0
   55.6773   29.6585   41.9996 H   0  0  0  0  0  0  0  0  0  0  0  0
   57.9129   32.8322   41.7346 H   0  0  0  0  0  0  0  0  0  0  0  0
   58.0761   31.2478   40.9041 H   0  0  0  0  0  0  0  0  0  0  0  0
   56.4966   32.1033   40.9041 H   0  0  0  0  0  0  0  0  0  0  0  0
   60.8677   30.1309   44.7654 H   0  0  0  0  0  0  0  0  0  0  0  0
   59.9615   27.9890   43.8630 H   0  0  0  0  0  0  0  0  0  0  0  0
   57.5818   27.4814   47.4365 H   0  0  0  0  0  0  0  0  0  0  0  0
   58.4751   29.6253   48.3444 H   0  0  0  0  0  0  0  0  0  0  0  0
  1  2  1  0
  2  3  1  0
  2  4  1  0
  4  5  1  0
  5  6  2  0
  6  7  1  0
  7  8  2  0
  7  9  1  0
  9 10  1  0
  9 11  1  0
 11 12  1  0
 12 13  2  0
 13 14  1  0
 14 15  2  0
 15 16  1  0
 16 17  1  0
  6 18  1  0
 18 19  1  0
 19 20  2  0
 20 21  1  0
 21 22  2  0
 22 23  1  0
 22 24  1  0
 24 25  2  0
 18 26  2  0
 26  4  1  0
 16 12  1  0
 25 19  1  0
  1 27  1  0
  1 28  1  0
  1 29  1  0
  2 30  1  0
  3 31  1  0
  3 32  1  0
  3 33  1  0
  5 34  1  0
 10 35  1  0
 10 36  1  0
 10 37  1  0
 11 38  1  0
 11 39  1  0
 14 40  1  0
 15 41  1  0
 17 42  1  0
 17 43  1  0
 17 44  1  0
 20 45  1  0
 21 46  1  0
 24 47  1  0
 25 48  1  0
M  END
>  <UniqueID>  (51) 
49

>  <SMILES>  (51) 
CC(C)n1cc(C(=O)N(C)Cc2nccn2C)c(-c2ccc(F)cc2)n1

>  <Energy>  (51) 
105.51612157412124

>  <Genealogy>  (51) 
CC(C)n1cc(C(=O)N(C)Cc2nccn2C)c(-c2ccc(F)cc2)n1 (3D coordinates assigned)
CC(C)n1cc(C(=O)N(C)Cc2nccn2C)c(-c2ccc(F)cc2)n1 (optimized conformer: 105.51612157412124 kcal/mol)

>  <smiles>  (51) 
CC(C)n1cc(C(=O)N(C)Cc2nccn2C)c(-c2ccc(F)cc2)n1

>  <score_type>  (51) 
oracle

>  <origin>  (51) 
adg

>  <m_score__min__energy>  (51) 
-7.4000000000000004

>  <m_primary>  (51) 
energy

$$$$
51:0
     RDKit          3D

 66 68  0  0  1  0  0  0  0  0999 V2000
   62.3080   31.2580   48.7430 C   0  0  0  0  0  0  0  0  0  0  0  0
   63.2350   32.3680   48.6590 N   0  0  0  0  0  0  0  0  0  0  0  0
   63.7660   32.6860   47.3280 C   0  0  0  0  0  0  0  0  0  0  0  0
   63.0210   33.8430   46.7560 C   0  0  0  0  0  0  0  0  0  0  0  0
   61.7670   34.0850   47.2640 O   0  0  0  0  0  0  0  0  0  0  0  0
   60.5170   33.8920   46.7630 C   0  0  0  0  0  0  0  0  0  0  0  0
   59.7240   34.8090   46.1350 C   0  0  0  0  0  0  0  0  0  0  0  0
   58.4480   34.5100   45.6520 C   0  0  0  0  0  0  0  0  0  0  0  0
   57.9470   33.2340   45.8070 C   0  0  0  0  0  0  0  0  0  0  0  0
   56.6910   32.8530   45.3570 O   0  0  0  0  0  0  0  0  0  0  0  0
   58.7340   32.2930   46.4400 C   0  0  0  0  0  0  0  0  0  0  0  0
   58.2380   30.9640   46.6130 N   0  0  0  0  0  0  0  0  0  0  0  0
   58.8180   30.1160   47.3910 C   0  0  0  0  0  0  0  0  0  0  0  0
   59.4330   29.0730   46.8310 N   0  0  0  0  0  0  0  0  0  0  0  0
   60.0360   28.1940   47.6620 C   0  0  0  0  0  0  0  0  0  0  0  0
   60.0400   28.3300   49.0300 C   0  0  0  0  0  0  0  0  0  0  0  0
   60.8200   27.1930   50.0670 Cl  0  0  0  0  0  0  0  0  0  0  0  0
   59.3970   29.4130   49.5760 C   0  0  0  0  0  0  0  0  0  0  0  0
   59.3110   29.6750   50.8190 N   0  0  0  0  0  0  0  0  0  0  0  0
   60.2720   30.4590   51.4930 C   0  0  0  0  0  0  0  0  0  0  0  0
   61.4030   29.8390   52.0470 C   0  0  0  0  0  0  0  0  0  0  0  0
   62.3530   30.5670   52.7440 C   0  0  0  0  0  0  0  0  0  0  0  0
   62.1400   31.9210   52.8690 C   0  0  0  0  0  0  0  0  0  0  0  0
   61.0340   32.5540   52.3320 C   0  0  0  0  0  0  0  0  0  0  0  0
   60.0760   31.8150   51.6290 C   0  0  0  0  0  0  0  0  0  0  0  0
   58.6970   32.6630   50.9870 S   0  0  0  0  0  0  0  0  0  0  0  0
   57.2710   31.7270   50.9200 N   0  0  0  0  0  0  0  0  0  0  0  0
   58.9690   33.1440   49.5760 O   0  0  0  0  0  0  0  0  0  0  0  0
   58.5050   33.9200   51.8040 O   0  0  0  0  0  0  0  0  0  0  0  0
   58.7960   30.2880   48.7250 N   0  0  0  0  0  0  0  0  0  0  0  0
   59.9730   32.6060   46.9010 C   0  0  0  0  0  0  0  0  0  0  0  0
   63.6420   33.1380   49.7840 C   0  0  0  0  0  0  0  0  0  0  0  0
   62.9440   34.1690   50.0820 O   0  0  0  0  0  0  0  0  0  0  0  0
   64.8270   32.7870   50.6020 C   0  0  0  0  0  0  0  0  0  0  0  0
   64.8910   31.2920   50.8720 C   0  0  0  0  0  0  0  0  0  0  0  0
   64.9350   33.5440   51.8860 C   0  0  0  0  0  0  0  0  0  0  0  0
   66.0740   33.0900   49.7640 C   0  0  0  0  0  0  0  0  0  0  0  0
   62.1119   31.0232   49.7996 H   0  0  0  0  0  0  0  0  0  0  0  0
   61.3647   31.5297   48.2466 H   0  0  0  0  0  0  0  0  0  0  0  0
   62.7434   30.3782   48.2466 H   0  0  0  0  0  0  0  0  0  0  0  0
   64.8325   32.9422   47.4109 H   0  0  0  0  0  0  0  0  0  0  0  0
   63.6472   31.8132   46.6691 H   0  0  0  0  0  0  0  0  0  0  0  0
   63.6277   34.7451   46.9236 H   0  0  0  0  0  0  0  0  0  0  0  0
   62.8586   33.5864   45.6987 H   0  0  0  0  0  0  0  0  0  0  0  0
   60.1081   35.8313   46.0032 H   0  0  0  0  0  0  0  0  0  0  0  0
   57.8480   35.2849   45.1525 H   0  0  0  0  0  0  0  0  0  0  0  0
   56.2310   31.9880   45.6230 H   0  0  0  0  0  0  0  0  0  0  0  0
   59.4700   28.9090   45.7950 H   0  0  0  0  0  0  0  0  0  0  0  0
   60.5492   27.3264   47.2217 H   0  0  0  0  0  0  0  0  0  0  0  0
   61.5374   28.7541   51.9252 H   0  0  0  0  0  0  0  0  0  0  0  0
   63.2401   30.0836   53.1792 H   0  0  0  0  0  0  0  0  0  0  0  0
   62.8788   32.5235   53.4178 H   0  0  0  0  0  0  0  0  0  0  0  0
   60.9072   33.6394   52.4576 H   0  0  0  0  0  0  0  0  0  0  0  0
   57.3860   30.7160   50.8510 H   0  0  0  0  0  0  0  0  0  0  0  0
   56.5100   32.1420   50.3570 H   0  0  0  0  0  0  0  0  0  0  0  0
   58.2910   31.1370   49.1160 H   0  0  0  0  0  0  0  0  0  0  0  0
   60.5687   31.8264   47.3983 H   0  0  0  0  0  0  0  0  0  0  0  0
   64.8986   31.1155   51.9577 H   0  0  0  0  0  0  0  0  0  0  0  0
   64.0130   30.8011   50.4268 H   0  0  0  0  0  0  0  0  0  0  0  0
   65.8077   30.8779   50.4268 H   0  0  0  0  0  0  0  0  0  0  0  0
   64.8357   32.8476   52.7317 H   0  0  0  0  0  0  0  0  0  0  0  0
   65.9136   34.0439   51.9357 H   0  0  0  0  0  0  0  0  0  0  0  0
   64.1353   34.2976   51.9357 H   0  0  0  0  0  0  0  0  0  0  0  0
   66.9233   33.2964   50.4319 H   0  0  0  0  0  0  0  0  0  0  0  0
   66.3089   32.2228   49.1293 H   0  0  0  0  0  0  0  0  0  0  0  0
   65.8848   33.9683   49.1293 H   0  0  0  0  0  0  0  0  0  0  0  0
  1  2  1  0
  2  3  1  0
  3  4  1  0
  4  5  1  0
  5  6  1  0
  6  7  2  0
  7  8  1  0
  8  9  2  0
  9 10  1  0
  9 11  1  0
 11 12  1  0
 12 13  2  0
 13 14  1  0
 14 15  1  0
 15 16  2  0
 16 17  1  0
 16 18  1  0
 18 19  2  0
 19 20  1  0
 20 21  2  0
 21 22  1  0
 22 23  2  0
 23 24  1  0
 24 25  2  0
 25 26  1  0
 26 27  1  0
 26 28  2  0
 26 29  2  0
 18 30  1  0
 11 31  2  0
  2 32  1  0
 32 33  2  0
 32 34  1  0
 34 35  1  0
 34 36  1  0
 34 37  1  0
 31  6  1  0
 30 13  1  0
 25 20  1  0
  1 38  1  0
  1 39  1  0
  1 40  1  0
  3 41  1  0
  3 42  1  0
  4 43  1  0
  4 44  1  0
  7 45  1  0
  8 46  1  0
 10 47  1  0
 14 48  1  0
 15 49  1  0
 21 50  1  0
 22 51  1  0
 23 52  1  0
 24 53  1  0
 27 54  1  0
 27 55  1  0
 30 56  1  0
 31 57  1  0
 35 58  1  0
 35 59  1  0
 35 60  1  0
 36 61  1  0
 36 62  1  0
 36 63  1  0
 37 64  1  0
 37 65  1  0
 37 66  1  0
M  END
>  <smiles>  (52) 
CN(CCOc1ccc(O)c(N=c2[nH]cc(Cl)c(=Nc3ccccc3S(N)(=O)=O)[nH]2)c1)C(=O)C(C)(C)C

>  <score_type>  (52) 
oracle

>  <origin>  (52) 
adg

>  <m_score__min__energy>  (52) 
-9.1400000000000006

>  <m_primary>  (52) 
energy

$$$$
52:0
     RDKit          3D

 63 67  0  0  0  0  0  0  0  0999 V2000
   60.7630   33.9380   45.6140 O   0  0  0  0  0  0  0  0  0  0  0  0
   60.7340   33.3020   46.7010 C   0  0  0  0  0  0  0  0  0  0  0  0
   61.8750   33.4090   47.6300 C   0  0  0  0  0  0  0  0  0  0  0  0
   63.1610   33.0340   47.2220 C   0  0  0  0  0  0  0  0  0  0  0  0
   64.2280   33.0780   48.1220 C   0  0  0  0  0  0  0  0  0  0  0  0
   64.0340   33.5090   49.4470 C   0  0  0  0  0  0  0  0  0  0  0  0
   65.1660   33.5060   50.4150 C   0  0  0  0  0  0  0  0  0  0  0  0
   66.3970   32.8640   50.2690 C   0  0  0  0  0  0  0  0  0  0  0  0
   67.2750   33.0790   51.3390 C   0  0  0  0  0  0  0  0  0  0  0  0
   66.7530   33.8850   52.3400 C   0  0  0  0  0  0  0  0  0  0  0  0
   65.2020   34.3340   51.8860 S   0  0  0  0  0  0  0  0  0  0  0  0
   62.7460   33.9290   49.8350 C   0  0  0  0  0  0  0  0  0  0  0  0
   61.6790   33.8770   48.9360 C   0  0  0  0  0  0  0  0  0  0  0  0
   59.6170   32.4420   47.0020 N   0  0  0  0  0  0  0  0  0  0  0  0
   59.8620   31.1300   47.6090 C   0  0  0  0  0  0  0  0  0  0  0  0
   58.5890   30.2690   47.6510 C   0  0  0  0  0  0  0  0  0  0  0  0
   57.8200   30.2800   46.3850 N   0  0  0  0  0  0  0  0  0  0  0  0
   57.9940   29.1120   45.4770 C   0  0  1  0  0  0  0  0  0  0  0  0
   59.1180   28.1340   45.9100 C   0  0  0  0  0  0  0  0  0  0  0  0
   58.6130   26.8930   46.6540 C   0  0  0  0  0  0  0  0  0  0  0  0
   57.5200   26.1990   45.9350 N   0  0  2  0  0  0  0  0  0  0  0  0
   57.8810   25.6720   44.6210 C   0  0  0  0  0  0  0  0  0  0  0  0
   58.2420   26.4670   43.7070 O   0  0  0  0  0  0  0  0  0  0  0  0
   57.6730   24.2560   44.2340 C   0  0  0  0  0  0  0  0  0  0  0  0
   58.4580   23.2570   44.8360 C   0  0  0  0  0  0  0  0  0  0  0  0
   58.2690   21.9120   44.5010 C   0  0  0  0  0  0  0  0  0  0  0  0
   57.2850   21.5550   43.5750 C   0  0  0  0  0  0  0  0  0  0  0  0
   56.5130   22.5420   42.9600 C   0  0  0  0  0  0  0  0  0  0  0  0
   55.5390   22.1950   42.0870 F   0  0  0  0  0  0  0  0  0  0  0  0
   56.7130   23.8910   43.2770 C   0  0  0  0  0  0  0  0  0  0  0  0
   56.3490   27.1030   45.8640 C   0  0  0  0  0  0  0  0  0  0  0  0
   56.6490   28.4230   45.1160 C   0  0  0  0  0  0  0  0  0  0  0  0
   57.7730   31.5740   45.6580 C   0  0  0  0  0  0  0  0  0  0  0  0
   58.2740   32.7510   46.5010 C   0  0  0  0  0  0  0  0  0  0  0  0
   63.3317   32.7030   46.1870 H   0  0  0  0  0  0  0  0  0  0  0  0
   65.2315   32.7722   47.7911 H   0  0  0  0  0  0  0  0  0  0  0  0
   66.6535   32.2469   49.3953 H   0  0  0  0  0  0  0  0  0  0  0  0
   68.2862   32.6480   51.3816 H   0  0  0  0  0  0  0  0  0  0  0  0
   67.2658   34.1780   53.2680 H   0  0  0  0  0  0  0  0  0  0  0  0
   62.5796   34.3016   50.8565 H   0  0  0  0  0  0  0  0  0  0  0  0
   60.6788   34.2053   49.2549 H   0  0  0  0  0  0  0  0  0  0  0  0
   60.6277   30.6036   47.0203 H   0  0  0  0  0  0  0  0  0  0  0  0
   60.1977   31.2914   48.6440 H   0  0  0  0  0  0  0  0  0  0  0  0
   58.8789   29.2312   47.8721 H   0  0  0  0  0  0  0  0  0  0  0  0
   57.9370   30.6972   48.4266 H   0  0  0  0  0  0  0  0  0  0  0  0
   58.3663   29.5300   44.5301 H   0  0  0  0  0  0  0  0  0  0  0  0
   59.8114   28.6749   46.5707 H   0  0  0  0  0  0  0  0  0  0  0  0
   59.6016   27.7774   44.9886 H   0  0  0  0  0  0  0  0  0  0  0  0
   58.2428   27.2021   47.6426 H   0  0  0  0  0  0  0  0  0  0  0  0
   59.4550   26.1899   46.7356 H   0  0  0  0  0  0  0  0  0  0  0  0
   57.2410   25.3760   46.5190 H   0  0  0  0  0  0  0  0  0  0  0  0
   59.2248   23.5344   45.5743 H   0  0  0  0  0  0  0  0  0  0  0  0
   58.8945   21.1359   44.9661 H   0  0  0  0  0  0  0  0  0  0  0  0
   57.1188   20.4954   43.3306 H   0  0  0  0  0  0  0  0  0  0  0  0
   56.1164   24.6668   42.7749 H   0  0  0  0  0  0  0  0  0  0  0  0
   56.0306   27.3453   46.8887 H   0  0  0  0  0  0  0  0  0  0  0  0
   55.5619   26.5783   45.3026 H   0  0  0  0  0  0  0  0  0  0  0  0
   55.8365   29.1301   45.3394 H   0  0  0  0  0  0  0  0  0  0  0  0
   56.7264   28.1536   44.0523 H   0  0  0  0  0  0  0  0  0  0  0  0
   58.4013   31.4941   44.7586 H   0  0  0  0  0  0  0  0  0  0  0  0
   56.7208   31.7729   45.4065 H   0  0  0  0  0  0  0  0  0  0  0  0
   58.3115   33.6590   45.8812 H   0  0  0  0  0  0  0  0  0  0  0  0
   57.5914   32.9193   47.3470 H   0  0  0  0  0  0  0  0  0  0  0  0
  1  2  2  0
  2  3  1  0
  3  4  2  0
  4  5  1  0
  5  6  2  0
  6  7  1  0
  7  8  2  0
  8  9  1  0
  9 10  2  0
 10 11  1  0
  6 12  1  0
 12 13  2  0
  2 14  1  0
 14 15  1  0
 15 16  1  0
 16 17  1  0
 17 18  1  0
 18 19  1  0
 19 20  1  0
 20 21  1  0
 21 22  1  0
 22 23  2  0
 22 24  1  0
 24 25  2  0
 25 26  1  0
 26 27  2  0
 27 28  1  0
 28 29  1  0
 28 30  2  0
 21 31  1  0
 31 32  1  0
 17 33  1  0
 33 34  1  0
 13  3  1  0
 34 14  1  0
 11  7  1  0
 32 18  1  0
 30 24  1  0
  4 35  1  0
  5 36  1  0
  8 37  1  0
  9 38  1  0
 10 39  1  0
 12 40  1  0
 13 41  1  0
 15 42  1  0
 15 43  1  0
 16 44  1  0
 16 45  1  0
 18 46  1  6
 19 47  1  0
 19 48  1  0
 20 49  1  0
 20 50  1  0
 21 51  1  1
 25 52  1  0
 26 53  1  0
 27 54  1  0
 30 55  1  0
 31 56  1  0
 31 57  1  0
 32 58  1  0
 32 59  1  0
 33 60  1  0
 33 61  1  0
 34 62  1  0
 34 63  1  0
M  CHG  1  21   1
M  END
>  <UniqueID>  (53) 
50

>  <SMILES>  (53) 
O=C(c1ccc(-c2cccs2)cc1)N1CCN(C2CC[NH+](C(=O)c3cccc(F)c3)CC2)CC1

>  <Energy>  (53) 
133.4447815536192

>  <Genealogy>  (53) 
O=C(c1ccc(-c2cccs2)cc1)N1CCN(C2CC[NH+](C(=O)c3cccc(F)c3)CC2)CC1 (protonated)
O=C(c1ccc(-c2cccs2)cc1)N1CCN(C2CC[NH+](C(=O)c3cccc(F)c3)CC2)CC1 (3D coordinates assigned)
O=C(c1ccc(-c2cccs2)cc1)N1CCN(C2CC[NH+](C(=O)c3cccc(F)c3)CC2)CC1 (nonaromatic ring conformer: 133.4447815536192 kcal/mol)

>  <smiles>  (53) 
O=C(c1cccc(F)c1)N1CCC(N2CCN(C(=O)c3ccc(-c4cccs4)cc3)CC2)CC1

>  <score_type>  (53) 
oracle

>  <origin>  (53) 
adg

>  <m_score__min__energy>  (53) 
-8.1400000000000006

>  <m_primary>  (53) 
energy

$$$$
53:0
     RDKit          3D

 51 54  0  0  0  0  0  0  0  0999 V2000
   56.3720   21.2190   44.0860 C   0  0  0  0  0  0  0  0  0  0  0  0
   56.2860   22.4580   44.5780 C   0  0  0  0  0  0  0  0  0  0  0  0
   55.1050   23.0580   44.8360 N   0  0  0  0  0  0  0  0  0  0  0  0
   55.4560   24.2680   45.3170 C   0  0  0  0  0  0  0  0  0  0  0  0
   54.6080   25.1340   45.6600 O   0  0  0  0  0  0  0  0  0  0  0  0
   56.7910   24.4660   45.3750 N   0  0  0  0  0  0  0  0  0  0  0  0
   57.4580   25.6620   45.8160 C   0  0  0  0  0  0  0  0  0  0  0  0
   58.0420   25.7150   47.0900 C   0  0  0  0  0  0  0  0  0  0  0  0
   58.6770   26.8800   47.5290 C   0  0  0  0  0  0  0  0  0  0  0  0
   58.7340   28.0180   46.7040 C   0  0  0  0  0  0  0  0  0  0  0  0
   59.3870   29.2240   47.1570 N   0  0  0  0  0  0  0  0  0  0  0  0
   60.7580   29.5360   46.7290 C   0  0  0  0  0  0  0  0  0  0  0  0
   60.9870   31.0510   46.7710 C   0  0  0  0  0  0  0  0  0  0  0  0
   60.7610   31.6080   48.1310 N   0  0  0  0  0  0  0  0  0  0  0  0
   60.6250   33.0900   48.1190 C   0  0  0  0  0  0  0  0  0  0  0  0
   59.6810   33.6290   47.0580 C   0  0  0  0  0  0  0  0  0  0  0  0
   60.1610   34.4420   46.0130 C   0  0  0  0  0  0  0  0  0  0  0  0
   59.2860   34.9290   45.0370 C   0  0  0  0  0  0  0  0  0  0  0  0
   57.9300   34.5950   45.0820 C   0  0  0  0  0  0  0  0  0  0  0  0
   57.4490   33.7630   46.0940 C   0  0  0  0  0  0  0  0  0  0  0  0
   58.3200   33.2730   47.0720 C   0  0  0  0  0  0  0  0  0  0  0  0
   59.6850   30.9270   48.9070 C   0  0  0  0  0  0  0  0  0  0  0  0
   58.6790   30.1810   48.0190 C   0  0  0  0  0  0  0  0  0  0  0  0
   58.1340   27.9640   45.4320 C   0  0  0  0  0  0  0  0  0  0  0  0
   57.5000   26.7980   44.9950 C   0  0  0  0  0  0  0  0  0  0  0  0
   57.3330   23.3150   44.9120 C   0  0  0  0  0  0  0  0  0  0  0  0
   58.6460   23.0560   44.8450 C   0  0  0  0  0  0  0  0  0  0  0  0
   57.3579   20.7716   43.8918 H   0  0  0  0  0  0  0  0  0  0  0  0
   55.4569   20.6462   43.8751 H   0  0  0  0  0  0  0  0  0  0  0  0
   58.0000   24.8343   47.7477 H   0  0  0  0  0  0  0  0  0  0  0  0
   59.1362   26.9073   48.5282 H   0  0  0  0  0  0  0  0  0  0  0  0
   61.4720   29.0406   47.4034 H   0  0  0  0  0  0  0  0  0  0  0  0
   60.9063   29.1763   45.7001 H   0  0  0  0  0  0  0  0  0  0  0  0
   62.0229   31.2627   46.4675 H   0  0  0  0  0  0  0  0  0  0  0  0
   60.2686   31.5237   46.0851 H   0  0  0  0  0  0  0  0  0  0  0  0
   61.6490   31.4270   48.6580 H   0  0  0  0  0  0  0  0  0  0  0  0
   60.2524   33.4085   49.1037 H   0  0  0  0  0  0  0  0  0  0  0  0
   61.6212   33.4929   47.8842 H   0  0  0  0  0  0  0  0  0  0  0  0
   61.2303   34.6954   45.9643 H   0  0  0  0  0  0  0  0  0  0  0  0
   59.6658   35.5760   44.2326 H   0  0  0  0  0  0  0  0  0  0  0  0
   57.2414   34.9880   44.3195 H   0  0  0  0  0  0  0  0  0  0  0  0
   56.3832   33.4923   46.1223 H   0  0  0  0  0  0  0  0  0  0  0  0
   57.9384   32.6045   47.8578 H   0  0  0  0  0  0  0  0  0  0  0  0
   60.1519   30.2029   49.5909 H   0  0  0  0  0  0  0  0  0  0  0  0
   59.1285   31.7066   49.4479 H   0  0  0  0  0  0  0  0  0  0  0  0
   57.9630   29.6392   48.6545 H   0  0  0  0  0  0  0  0  0  0  0  0
   58.1425   30.9069   47.3903 H   0  0  0  0  0  0  0  0  0  0  0  0
   58.1644   28.8469   44.7766 H   0  0  0  0  0  0  0  0  0  0  0  0
   57.0308   26.7711   44.0005 H   0  0  0  0  0  0  0  0  0  0  0  0
   58.9967   22.0899   44.4531 H   0  0  0  0  0  0  0  0  0  0  0  0
   59.3731   23.8095   45.1819 H   0  0  0  0  0  0  0  0  0  0  0  0
  1  2  2  0
  2  3  1  0
  3  4  1  0
  4  5  2  0
  4  6  1  0
  6  7  1  0
  7  8  2  0
  8  9  1  0
  9 10  2  0
 10 11  1  0
 11 12  1  0
 12 13  1  0
 13 14  1  0
 14 15  1  0
 15 16  1  0
 16 17  2  0
 17 18  1  0
 18 19  2  0
 19 20  1  0
 20 21  2  0
 14 22  1  0
 22 23  1  0
 10 24  1  0
 24 25  2  0
  6 26  1  0
 26 27  2  0
 26  2  1  0
 25  7  1  0
 23 11  1  0
 21 16  1  0
  1 28  1  0
  1 29  1  0
  8 30  1  0
  9 31  1  0
 12 32  1  0
 12 33  1  0
 13 34  1  0
 13 35  1  0
 14 36  1  0
 15 37  1  0
 15 38  1  0
 17 39  1  0
 18 40  1  0
 19 41  1  0
 20 42  1  0
 21 43  1  0
 22 44  1  0
 22 45  1  0
 23 46  1  0
 23 47  1  0
 24 48  1  0
 25 49  1  0
 27 50  1  0
 27 51  1  0
M  CHG  2   3  -1  14   1
M  END
>  <UniqueID>  (54) 
51

>  <SMILES>  (54) 
C=c1[n-]c(=O)n(-c2ccc(N3CC[NH+](Cc4ccccc4)CC3)cc2)c1=C

>  <Energy>  (54) 
108.00119020253233

>  <Genealogy>  (54) 
C=c1[n-]c(=O)n(-c2ccc(N3CC[NH+](Cc4ccccc4)CC3)cc2)c1=C (protonated)
C=c1[n-]c(=O)n(-c2ccc(N3CC[NH+](Cc4ccccc4)CC3)cc2)c1=C (3D coordinates assigned)
C=c1[n-]c(=O)n(-c2ccc(N3CC[NH+](Cc4ccccc4)CC3)cc2)c1=C (nonaromatic ring conformer: 108.00119020253233 kcal/mol)

>  <smiles>  (54) 
C=c1[nH]c(=O)n(-c2ccc(N3CCN(Cc4ccccc4)CC3)cc2)c1=C

>  <score_type>  (54) 
oracle

>  <origin>  (54) 
adg

>  <m_score__min__energy>  (54) 
-8.0899999999999999

>  <m_primary>  (54) 
energy

$$$$
54:0
     RDKit          3D

 50 53  0  0  0  0  0  0  0  0999 V2000
   66.3850   27.2840   51.9570 C   0  0  0  0  0  0  0  0  0  0  0  0
   66.2990   28.5050   52.4880 C   0  0  0  0  0  0  0  0  0  0  0  0
   65.9780   29.7310   51.7170 C   0  0  0  0  0  0  0  0  0  0  0  0
   66.9720   30.5910   51.2070 C   0  0  0  0  0  0  0  0  0  0  0  0
   66.6150   31.7390   50.4940 C   0  0  0  0  0  0  0  0  0  0  0  0
   65.2710   32.0500   50.2700 C   0  0  0  0  0  0  0  0  0  0  0  0
   64.9570   33.2180   49.5610 O   0  0  0  0  0  0  0  0  0  0  0  0
   63.7810   33.4220   48.8240 C   0  0  0  0  0  0  0  0  0  0  0  0
   62.6850   34.0130   49.4550 C   0  0  0  0  0  0  0  0  0  0  0  0
   61.5080   34.2270   48.7380 C   0  0  0  0  0  0  0  0  0  0  0  0
   61.4290   33.8500   47.3890 C   0  0  0  0  0  0  0  0  0  0  0  0
   60.1870   34.0840   46.6150 C   0  0  0  0  0  0  0  0  0  0  0  0
   60.0100   35.2000   46.0550 O   0  0  0  0  0  0  0  0  0  0  0  0
   59.1900   33.0560   46.4680 N   0  0  0  0  0  0  0  0  0  0  0  0
   58.6960   32.3170   47.6340 C   0  0  0  0  0  0  0  0  0  0  0  0
   58.5160   30.8220   47.3000 C   0  0  0  0  0  0  0  0  0  0  0  0
   58.1930   30.5510   45.8760 N   0  0  0  0  0  0  0  0  0  0  0  0
   59.3820   30.0920   45.1370 C   0  0  0  0  0  0  0  0  0  0  0  0
   60.4100   29.4100   46.0260 C   0  0  0  0  0  0  0  0  0  0  0  0
   59.5350   28.5800   45.1030 C   0  0  0  0  0  0  0  0  0  0  0  0
   57.5560   31.6980   45.1980 C   0  0  0  0  0  0  0  0  0  0  0  0
   58.4620   32.9420   45.2010 C   0  0  0  0  0  0  0  0  0  0  0  0
   62.5660   33.2930   46.7820 C   0  0  0  0  0  0  0  0  0  0  0  0
   63.7040   33.0940   47.5010 N   0  0  0  0  0  0  0  0  0  0  0  0
   64.2760   31.2130   50.8030 C   0  0  0  0  0  0  0  0  0  0  0  0
   64.6290   30.0650   51.5180 C   0  0  0  0  0  0  0  0  0  0  0  0
   66.6281   26.4222   52.5960 H   0  0  0  0  0  0  0  0  0  0  0  0
   66.2128   27.1391   50.8803 H   0  0  0  0  0  0  0  0  0  0  0  0
   66.4779   28.6094   53.5683 H   0  0  0  0  0  0  0  0  0  0  0  0
   68.0343   30.3573   51.3711 H   0  0  0  0  0  0  0  0  0  0  0  0
   67.3999   32.4045   50.1052 H   0  0  0  0  0  0  0  0  0  0  0  0
   62.7493   34.3085   50.5126 H   0  0  0  0  0  0  0  0  0  0  0  0
   60.6411   34.6917   49.2305 H   0  0  0  0  0  0  0  0  0  0  0  0
   59.4184   32.4180   48.4574 H   0  0  0  0  0  0  0  0  0  0  0  0
   57.7205   32.7324   47.9269 H   0  0  0  0  0  0  0  0  0  0  0  0
   59.4511   30.2982   47.5473 H   0  0  0  0  0  0  0  0  0  0  0  0
   57.6593   30.4669   47.8916 H   0  0  0  0  0  0  0  0  0  0  0  0
   59.4035   30.8933   44.3837 H   0  0  0  0  0  0  0  0  0  0  0  0
   61.4831   29.5227   45.8122 H   0  0  0  0  0  0  0  0  0  0  0  0
   60.6252   29.4065   47.1047 H   0  0  0  0  0  0  0  0  0  0  0  0
   59.9745   28.0915   44.2209 H   0  0  0  0  0  0  0  0  0  0  0  0
   58.8542   27.7264   45.2367 H   0  0  0  0  0  0  0  0  0  0  0  0
   57.3382   31.4192   44.1564 H   0  0  0  0  0  0  0  0  0  0  0  0
   56.6336   31.9468   45.7432 H   0  0  0  0  0  0  0  0  0  0  0  0
   59.1852   32.8628   44.3760 H   0  0  0  0  0  0  0  0  0  0  0  0
   57.8326   33.8354   45.0758 H   0  0  0  0  0  0  0  0  0  0  0  0
   62.5366   33.0156   45.7180 H   0  0  0  0  0  0  0  0  0  0  0  0
   64.5390   32.7090   47.0060 H   0  0  0  0  0  0  0  0  0  0  0  0
   63.2146   31.4624   50.6569 H   0  0  0  0  0  0  0  0  0  0  0  0
   63.8414   29.4164   51.9291 H   0  0  0  0  0  0  0  0  0  0  0  0
  1  2  2  0
  2  3  1  0
  3  4  2  0
  4  5  1  0
  5  6  2  0
  6  7  1  0
  7  8  1  0
  8  9  2  0
  9 10  1  0
 10 11  2  0
 11 12  1  0
 12 13  2  0
 12 14  1  0
 14 15  1  0
 15 16  1  0
 16 17  1  0
 17 18  1  0
 18 19  1  0
 19 20  1  0
 17 21  1  0
 21 22  1  0
 11 23  1  0
 23 24  2  0
  6 25  1  0
 25 26  2  0
 26  3  1  0
 24  8  1  0
 22 14  1  0
 20 18  1  0
  1 27  1  0
  1 28  1  0
  2 29  1  0
  4 30  1  0
  5 31  1  0
  9 32  1  0
 10 33  1  0
 15 34  1  0
 15 35  1  0
 16 36  1  0
 16 37  1  0
 18 38  1  0
 19 39  1  0
 19 40  1  0
 20 41  1  0
 20 42  1  0
 21 43  1  0
 21 44  1  0
 22 45  1  0
 22 46  1  0
 23 47  1  0
 24 48  1  0
 25 49  1  0
 26 50  1  0
M  CHG  1  24   1
M  END
>  <UniqueID>  (55) 
52

>  <SMILES>  (55) 
C=Cc1ccc(Oc2ccc(C(=O)N3CCN(C4CC4)CC3)c[nH+]2)cc1

>  <Energy>  (55) 
334.28031190330694

>  <Genealogy>  (55) 
C=Cc1ccc(Oc2ccc(C(=O)N3CCN(C4CC4)CC3)c[nH+]2)cc1 (protonated)
C=Cc1ccc(Oc2ccc(C(=O)N3CCN(C4CC4)CC3)c[nH+]2)cc1 (3D coordinates assigned)
C=Cc1ccc(Oc2ccc(C(=O)N3CCN(C4CC4)CC3)c[nH+]2)cc1 (nonaromatic ring conformer: 334.28031190330694 kcal/mol)

>  <smiles>  (55) 
C=Cc1ccc(Oc2ccc(C(=O)N3CCN(C4CC4)CC3)cn2)cc1

>  <score_type>  (55) 
oracle

>  <origin>  (55) 
adg

>  <m_score__min__energy>  (55) 
-6.2400000000000002

>  <m_primary>  (55) 
energy

$$$$
55:0
     RDKit          3D

 51 55  0  0  0  0  0  0  0  0999 V2000
   59.6940   33.6450   51.6960 C   0  0  0  0  0  0  0  0  0  0  0  0
   60.0560   32.9110   50.4880 N   0  0  0  0  0  0  0  0  0  0  0  0
   59.3310   31.9300   49.9010 C   0  0  0  0  0  0  0  0  0  0  0  0
   60.0090   31.4310   48.7900 C   0  0  0  0  0  0  0  0  0  0  0  0
   59.5430   30.3610   47.8870 C   0  0  0  0  0  0  0  0  0  0  0  0
   58.9640   30.5260   46.6910 C   0  0  0  0  0  0  0  0  0  0  0  0
   58.5640   31.8080   46.0760 C   0  0  0  0  0  0  0  0  0  0  0  0
   59.3400   32.9540   46.3210 C   0  0  0  0  0  0  0  0  0  0  0  0
   58.9730   34.1880   45.7740 C   0  0  0  0  0  0  0  0  0  0  0  0
   59.9530   35.6090   46.0850 Cl  0  0  0  0  0  0  0  0  0  0  0  0
   57.8240   34.2880   44.9870 C   0  0  0  0  0  0  0  0  0  0  0  0
   57.0480   33.1550   44.7340 C   0  0  0  0  0  0  0  0  0  0  0  0
   57.4140   31.9110   45.2610 C   0  0  0  0  0  0  0  0  0  0  0  0
   56.6340   30.7990   44.9340 O   0  0  0  0  0  0  0  0  0  0  0  0
   58.7190   29.1980   46.1270 C   0  0  0  0  0  0  0  0  0  0  0  0
   58.1710   28.9680   45.0160 O   0  0  0  0  0  0  0  0  0  0  0  0
   59.1780   28.1790   47.0090 N   0  0  0  0  0  0  0  0  0  0  0  0
   59.5410   26.8170   46.6290 C   0  0  0  0  0  0  0  0  0  0  0  0
   58.3160   26.0500   46.2080 C   0  0  0  0  0  0  0  0  0  0  0  0
   57.0350   26.5910   46.4110 C   0  0  0  0  0  0  0  0  0  0  0  0
   55.8980   25.8560   46.0660 C   0  0  0  0  0  0  0  0  0  0  0  0
   56.0290   24.5740   45.5230 C   0  0  0  0  0  0  0  0  0  0  0  0
   57.2990   24.0250   45.3280 C   0  0  0  0  0  0  0  0  0  0  0  0
   58.4390   24.7570   45.6720 C   0  0  0  0  0  0  0  0  0  0  0  0
   59.7230   28.9210   48.0950 C   0  0  0  0  0  0  0  0  0  0  0  0
   60.3470   28.3970   49.0560 O   0  0  0  0  0  0  0  0  0  0  0  0
   61.1950   32.1420   48.7220 C   0  0  0  0  0  0  0  0  0  0  0  0
   62.2890   32.0300   47.8610 C   0  0  0  0  0  0  0  0  0  0  0  0
   63.3860   32.8830   48.0760 C   0  0  0  0  0  0  0  0  0  0  0  0
   63.3750   33.8080   49.1420 C   0  0  0  0  0  0  0  0  0  0  0  0
   62.2700   33.8840   50.0090 C   0  0  0  0  0  0  0  0  0  0  0  0
   61.1910   33.0300   49.7700 C   0  0  0  0  0  0  0  0  0  0  0  0
   59.9828   33.0594   52.5813 H   0  0  0  0  0  0  0  0  0  0  0  0
   60.2187   34.6117   51.7087 H   0  0  0  0  0  0  0  0  0  0  0  0
   58.6076   33.8172   51.7087 H   0  0  0  0  0  0  0  0  0  0  0  0
   58.3492   31.5777   50.2501 H   0  0  0  0  0  0  0  0  0  0  0  0
   60.2416   32.8800   46.9468 H   0  0  0  0  0  0  0  0  0  0  0  0
   57.5297   35.2606   44.5657 H   0  0  0  0  0  0  0  0  0  0  0  0
   56.1422   33.2408   44.1158 H   0  0  0  0  0  0  0  0  0  0  0  0
   56.3360   30.1150   45.6190 H   0  0  0  0  0  0  0  0  0  0  0  0
   60.2537   26.8512   45.7918 H   0  0  0  0  0  0  0  0  0  0  0  0
   59.9998   26.3139   47.4929 H   0  0  0  0  0  0  0  0  0  0  0  0
   56.9271   27.5968   46.8431 H   0  0  0  0  0  0  0  0  0  0  0  0
   54.8978   26.2866   46.2218 H   0  0  0  0  0  0  0  0  0  0  0  0
   55.1326   23.9980   45.2495 H   0  0  0  0  0  0  0  0  0  0  0  0
   57.4018   23.0155   44.9033 H   0  0  0  0  0  0  0  0  0  0  0  0
   59.4368   24.3189   45.5224 H   0  0  0  0  0  0  0  0  0  0  0  0
   62.2924   31.2975   47.0404 H   0  0  0  0  0  0  0  0  0  0  0  0
   64.2588   32.8290   47.4087 H   0  0  0  0  0  0  0  0  0  0  0  0
   64.2367   34.4742   49.2959 H   0  0  0  0  0  0  0  0  0  0  0  0
   62.2561   34.5939   50.8491 H   0  0  0  0  0  0  0  0  0  0  0  0
  1  2  1  0
  2  3  1  0
  3  4  2  0
  4  5  1  0
  5  6  2  0
  6  7  1  0
  7  8  2  0
  8  9  1  0
  9 10  1  0
  9 11  2  0
 11 12  1  0
 12 13  2  0
 13 14  1  0
  6 15  1  0
 15 16  2  0
 15 17  1  0
 17 18  1  0
 18 19  1  0
 19 20  2  0
 20 21  1  0
 21 22  2  0
 22 23  1  0
 23 24  2  0
 17 25  1  0
 25 26  2  0
  4 27  1  0
 27 28  2  0
 28 29  1  0
 29 30  2  0
 30 31  1  0
 31 32  2  0
 32  2  1  0
 25  5  1  0
 32 27  1  0
 13  7  1  0
 24 19  1  0
  1 33  1  0
  1 34  1  0
  1 35  1  0
  3 36  1  0
  8 37  1  0
 11 38  1  0
 12 39  1  0
 14 40  1  0
 18 41  1  0
 18 42  1  0
 20 43  1  0
 21 44  1  0
 22 45  1  0
 23 46  1  0
 24 47  1  0
 28 48  1  0
 29 49  1  0
 30 50  1  0
 31 51  1  0
M  END
>  <UniqueID>  (56) 
53

>  <SMILES>  (56) 
Cn1cc(C2=C(c3cc(Cl)ccc3O)C(=O)N(Cc3ccccc3)C2=O)c2ccccc21

>  <Energy>  (56) 
124.81876265241968

>  <Genealogy>  (56) 
Cn1cc(C2=C(c3cc(Cl)ccc3O)C(=O)N(Cc3ccccc3)C2=O)c2ccccc21 (3D coordinates assigned)
Cn1cc(C2=C(c3cc(Cl)ccc3O)C(=O)N(Cc3ccccc3)C2=O)c2ccccc21 (nonaromatic ring conformer: 124.81876265241968 kcal/mol)

>  <smiles>  (56) 
Cn1cc(C2=C(c3cc(Cl)ccc3O)C(=O)N(Cc3ccccc3)C2=O)c2ccccc21

>  <score_type>  (56) 
oracle

>  <origin>  (56) 
adg

>  <m_score__min__energy>  (56) 
-9.4199999999999999

>  <m_primary>  (56) 
energy

$$$$
56:0
     RDKit          3D

 62 65  0  0  0  0  0  0  0  0999 V2000
   57.1200   24.0460   47.3100 C   0  0  0  0  0  0  0  0  0  0  0  0
   57.4450   25.1740   46.6710 C   0  0  0  0  0  0  0  0  0  0  0  0
   57.5530   26.3630   47.2930 N   0  0  0  0  0  0  0  0  0  0  0  0
   57.8470   27.2920   46.3590 C   0  0  0  0  0  0  0  0  0  0  0  0
   58.0060   28.5870   46.6910 C   0  0  0  0  0  0  0  0  0  0  0  0
   57.4200   29.7220   45.9680 C   0  0  0  0  0  0  0  0  0  0  0  0
   56.3270   29.6970   45.1170 C   0  0  0  0  0  0  0  0  0  0  0  0
   55.5190   28.5880   44.9020 O   0  0  0  0  0  0  0  0  0  0  0  0
   56.1250   30.8870   44.5040 N   0  0  0  0  0  0  0  0  0  0  0  0
   57.1290   31.6620   44.9580 C   0  0  0  0  0  0  0  0  0  0  0  0
   57.3760   32.9890   44.6150 C   0  0  0  0  0  0  0  0  0  0  0  0
   58.4980   33.6210   45.1790 C   0  0  0  0  0  0  0  0  0  0  0  0
   59.3560   32.9180   46.0610 C   0  0  0  0  0  0  0  0  0  0  0  0
   60.7610   33.7270   46.7490 S   0  0  0  0  0  0  0  0  0  0  0  0
   61.8390   33.8500   45.7060 O   0  0  0  0  0  0  0  0  0  0  0  0
   60.3580   35.1120   47.1780 O   0  0  0  0  0  0  0  0  0  0  0  0
   61.3490   32.8270   48.1260 N   0  0  0  0  0  0  0  0  0  0  0  0
   61.4370   33.7130   49.2990 C   0  0  0  0  0  0  0  0  0  0  0  0
   61.8110   32.9060   50.5570 C   0  0  0  0  0  0  0  0  0  0  0  0
   62.8160   31.8420   50.3010 N   0  0  0  0  0  0  0  0  0  0  0  0
   62.2390   30.4860   50.3790 C   0  0  0  0  0  0  0  0  0  0  0  0
   63.5710   32.0420   49.0490 C   0  0  0  0  0  0  0  0  0  0  0  0
   62.6530   32.1870   47.8140 C   0  0  0  0  0  0  0  0  0  0  0  0
   59.0750   31.5790   46.3960 C   0  0  0  0  0  0  0  0  0  0  0  0
   57.9470   30.9860   45.8280 C   0  0  0  0  0  0  0  0  0  0  0  0
   57.9530   26.6770   45.1000 C   0  0  0  0  0  0  0  0  0  0  0  0
   58.4780   27.2570   43.8070 C   0  0  0  0  0  0  0  0  0  0  0  0
   59.6160   28.2340   44.0740 C   0  0  0  0  0  0  0  0  0  0  0  0
   57.7090   25.3180   45.3150 C   0  0  0  0  0  0  0  0  0  0  0  0
   57.7050   24.2340   44.2630 C   0  0  0  0  0  0  0  0  0  0  0  0
   56.3310   24.0950   43.6050 C   0  0  0  0  0  0  0  0  0  0  0  0
   55.8260   22.6870   43.6670 C   0  0  0  0  0  0  0  0  0  0  0  0
   55.9530   21.9220   42.6760 O   0  0  0  0  0  0  0  0  0  0  0  0
   55.1730   22.2340   44.8070 O   0  0  0  0  0  0  0  0  0  0  0  0
   57.0454   23.1003   46.7531 H   0  0  0  0  0  0  0  0  0  0  0  0
   56.9271   24.0633   48.3928 H   0  0  0  0  0  0  0  0  0  0  0  0
   57.4080   26.5360   48.3150 H   0  0  0  0  0  0  0  0  0  0  0  0
   58.6234   28.8121   47.5731 H   0  0  0  0  0  0  0  0  0  0  0  0
   56.7121   33.5273   43.9225 H   0  0  0  0  0  0  0  0  0  0  0  0
   58.7120   34.6716   44.9332 H   0  0  0  0  0  0  0  0  0  0  0  0
   60.6370   32.0840   48.3230 H   0  0  0  0  0  0  0  0  0  0  0  0
   62.2060   34.4784   49.1178 H   0  0  0  0  0  0  0  0  0  0  0  0
   60.4587   34.1895   49.4595 H   0  0  0  0  0  0  0  0  0  0  0  0
   62.2209   33.5992   51.3063 H   0  0  0  0  0  0  0  0  0  0  0  0
   60.8945   32.4083   50.9067 H   0  0  0  0  0  0  0  0  0  0  0  0
   62.1171   30.1995   51.4340 H   0  0  0  0  0  0  0  0  0  0  0  0
   61.2585   30.4755   49.8806 H   0  0  0  0  0  0  0  0  0  0  0  0
   62.9113   29.7722   49.8806 H   0  0  0  0  0  0  0  0  0  0  0  0
   64.1770   32.9549   49.1458 H   0  0  0  0  0  0  0  0  0  0  0  0
   64.1977   31.1514   48.8937 H   0  0  0  0  0  0  0  0  0  0  0  0
   63.1723   32.7998   47.0624 H   0  0  0  0  0  0  0  0  0  0  0  0
   62.4395   31.1731   47.4446 H   0  0  0  0  0  0  0  0  0  0  0  0
   59.7247   31.0183   47.0841 H   0  0  0  0  0  0  0  0  0  0  0  0
   58.8464   26.4402   43.1689 H   0  0  0  0  0  0  0  0  0  0  0  0
   57.6610   27.7965   43.3056 H   0  0  0  0  0  0  0  0  0  0  0  0
   59.7520   28.3507   45.1593 H   0  0  0  0  0  0  0  0  0  0  0  0
   60.5439   27.8469   43.6277 H   0  0  0  0  0  0  0  0  0  0  0  0
   59.3738   29.2098   43.6277 H   0  0  0  0  0  0  0  0  0  0  0  0
   58.4475   24.4831   43.4905 H   0  0  0  0  0  0  0  0  0  0  0  0
   57.9518   23.2794   44.7507 H   0  0  0  0  0  0  0  0  0  0  0  0
   55.6187   24.7522   44.1253 H   0  0  0  0  0  0  0  0  0  0  0  0
   56.4282   24.3776   42.5464 H   0  0  0  0  0  0  0  0  0  0  0  0
  1  2  2  0
  2  3  1  0
  3  4  1  0
  4  5  2  3
  5  6  1  0
  6  7  2  0
  7  8  1  0
  7  9  1  0
  9 10  1  0
 10 11  2  0
 11 12  1  0
 12 13  2  0
 13 14  1  0
 14 15  2  0
 14 16  2  0
 14 17  1  0
 17 18  1  0
 18 19  1  0
 19 20  1  0
 20 21  1  0
 20 22  1  0
 22 23  1  0
 13 24  1  0
 24 25  2  0
  4 26  1  0
 26 27  1  0
 27 28  1  0
 26 29  2  0
 29 30  1  0
 30 31  1  0
 31 32  1  0
 32 33  2  0
 32 34  1  0
 29  2  1  0
 25  6  1  0
 25 10  1  0
 23 17  1  0
  1 35  1  0
  1 36  1  0
  3 37  1  0
  5 38  1  0
 11 39  1  0
 12 40  1  0
 17 41  1  0
 18 42  1  0
 18 43  1  0
 19 44  1  0
 19 45  1  0
 21 46  1  0
 21 47  1  0
 21 48  1  0
 22 49  1  0
 22 50  1  0
 23 51  1  0
 23 52  1  0
 24 53  1  0
 27 54  1  0
 27 55  1  0
 28 56  1  0
 28 57  1  0
 28 58  1  0
 30 59  1  0
 30 60  1  0
 31 61  1  0
 31 62  1  0
M  CHG  4   8  -1   9  -1  17   1  34  -1
M  END
>  <UniqueID>  (57) 
54

>  <SMILES>  (57) 
C=c1[nH]c(=Cc2c([O-])[n-]c3ccc(S(=O)(=O)[NH+]4CCN(C)CC4)cc23)c(CC)c1CCC(=O)[O-]

>  <Energy>  (57) 
134.9305812939377

>  <Genealogy>  (57) 
C=c1[nH]c(=Cc2c([O-])[n-]c3ccc(S(=O)(=O)[NH+]4CCN(C)CC4)cc23)c(CC)c1CCC(=O)[O-] (protonated)
C=c1[nH]c(=Cc2c([O-])[n-]c3ccc(S(=O)(=O)[NH+]4CCN(C)CC4)cc23)c(CC)c1CCC(=O)[O-] (3D coordinates assigned)
C=c1[nH]c(=Cc2c([O-])[n-]c3ccc(S(=O)(=O)[NH+]4CCN(C)CC4)cc23)c(CC)c1CCC(=O)[O-] (nonaromatic ring conformer: 134.9305812939377 kcal/mol)

>  <smiles>  (57) 
C=c1[nH]c(=Cc2c(O)[nH]c3ccc(S(=O)(=O)N4CCN(C)CC4)cc23)c(CC)c1CCC(=O)O

>  <score_type>  (57) 
oracle

>  <origin>  (57) 
adg

>  <m_score__min__energy>  (57) 
-14.92

>  <m_primary>  (57) 
energy

$$$$
57:0
     RDKit          3D

 59 62  0  0  0  0  0  0  0  0999 V2000
   59.9910   32.8150   52.1630 C   0  0  0  0  0  0  0  0  0  0  0  0
   59.8670   31.9600   50.9720 N   0  0  0  0  0  0  0  0  0  0  0  0
   58.5540   31.2760   50.9580 C   0  0  0  0  0  0  0  0  0  0  0  0
   58.5280   30.0040   50.0800 C   0  0  0  0  0  0  0  0  0  0  0  0
   59.6310   29.9770   49.1060 N   0  0  0  0  0  0  0  0  0  0  0  0
   59.4500   29.3190   47.8360 C   0  0  0  0  0  0  0  0  0  0  0  0
   60.5400   28.7110   47.1890 C   0  0  0  0  0  0  0  0  0  0  0  0
   60.3650   28.0730   45.9600 C   0  0  0  0  0  0  0  0  0  0  0  0
   59.1030   28.0260   45.3650 C   0  0  0  0  0  0  0  0  0  0  0  0
   57.9970   28.6150   45.9990 C   0  0  0  0  0  0  0  0  0  0  0  0
   56.6530   28.5690   45.3770 C   0  0  0  0  0  0  0  0  0  0  0  0
   55.8970   27.5890   45.6110 O   0  0  0  0  0  0  0  0  0  0  0  0
   56.1610   29.6330   44.5510 N   0  0  0  0  0  0  0  0  0  0  0  0
   56.8630   30.8390   44.2180 C   0  0  0  0  0  0  0  0  0  0  0  0
   57.3370   31.0820   42.9170 C   0  0  0  0  0  0  0  0  0  0  0  0
   57.9930   32.2780   42.6210 C   0  0  0  0  0  0  0  0  0  0  0  0
   58.1790   33.2440   43.6140 C   0  0  0  0  0  0  0  0  0  0  0  0
   57.7080   33.0130   44.9200 C   0  0  0  0  0  0  0  0  0  0  0  0
   57.8450   33.9910   45.9620 N   0  0  0  0  0  0  0  0  0  0  0  0
   58.8070   33.9760   47.0240 C   0  0  0  0  0  0  0  0  0  0  0  0
   58.6320   33.2570   48.0440 O   0  0  0  0  0  0  0  0  0  0  0  0
   59.9760   34.9060   46.9670 C   0  0  0  0  0  0  0  0  0  0  0  0
   61.2310   34.1880   47.3880 C   0  0  0  0  0  0  0  0  0  0  0  0
   62.1900   33.8370   46.4220 C   0  0  0  0  0  0  0  0  0  0  0  0
   63.3740   33.1970   46.8010 C   0  0  0  0  0  0  0  0  0  0  0  0
   63.6160   32.9110   48.1450 C   0  0  0  0  0  0  0  0  0  0  0  0
   62.6770   33.2680   49.1170 C   0  0  0  0  0  0  0  0  0  0  0  0
   61.4860   33.9110   48.7480 C   0  0  0  0  0  0  0  0  0  0  0  0
   60.5600   34.2770   49.7250 O   0  0  0  0  0  0  0  0  0  0  0  0
   57.0280   31.8210   45.2030 C   0  0  0  0  0  0  0  0  0  0  0  0
   58.1820   29.2710   47.2280 C   0  0  0  0  0  0  0  0  0  0  0  0
   60.9880   30.3610   49.5230 C   0  0  0  0  0  0  0  0  0  0  0  0
   60.9760   30.9980   50.9100 C   0  0  0  0  0  0  0  0  0  0  0  0
   59.9014   32.1973   53.0688 H   0  0  0  0  0  0  0  0  0  0  0  0
   60.9710   33.3146   52.1553 H   0  0  0  0  0  0  0  0  0  0  0  0
   59.1933   33.5724   52.1553 H   0  0  0  0  0  0  0  0  0  0  0  0
   58.2990   30.9917   51.9896 H   0  0  0  0  0  0  0  0  0  0  0  0
   57.8279   31.9806   50.5265 H   0  0  0  0  0  0  0  0  0  0  0  0
   58.6098   29.1219   50.7321 H   0  0  0  0  0  0  0  0  0  0  0  0
   57.5821   30.0010   49.5185 H   0  0  0  0  0  0  0  0  0  0  0  0
   61.5365   28.7382   47.6540 H   0  0  0  0  0  0  0  0  0  0  0  0
   61.2249   27.6053   45.4582 H   0  0  0  0  0  0  0  0  0  0  0  0
   58.9742   27.5249   44.3943 H   0  0  0  0  0  0  0  0  0  0  0  0
   57.1905   30.3275   42.1301 H   0  0  0  0  0  0  0  0  0  0  0  0
   58.3651   32.4611   41.6022 H   0  0  0  0  0  0  0  0  0  0  0  0
   58.6941   34.1859   43.3744 H   0  0  0  0  0  0  0  0  0  0  0  0
   60.0965   35.2759   45.9381 H   0  0  0  0  0  0  0  0  0  0  0  0
   59.7980   35.7495   47.6502 H   0  0  0  0  0  0  0  0  0  0  0  0
   62.0079   34.0671   45.3619 H   0  0  0  0  0  0  0  0  0  0  0  0
   64.1160   32.9185   46.0382 H   0  0  0  0  0  0  0  0  0  0  0  0
   64.5466   32.4041   48.4400 H   0  0  0  0  0  0  0  0  0  0  0  0
   62.8728   33.0438   50.1760 H   0  0  0  0  0  0  0  0  0  0  0  0
   59.6920   33.7700   49.8490 H   0  0  0  0  0  0  0  0  0  0  0  0
   56.6190   31.6545   46.2105 H   0  0  0  0  0  0  0  0  0  0  0  0
   57.3248   29.7530   47.7208 H   0  0  0  0  0  0  0  0  0  0  0  0
   61.6246   29.4642   49.5448 H   0  0  0  0  0  0  0  0  0  0  0  0
   61.3801   31.0955   48.8041 H   0  0  0  0  0  0  0  0  0  0  0  0
   60.8352   30.2197   51.6745 H   0  0  0  0  0  0  0  0  0  0  0  0
   61.9308   31.5111   51.0972 H   0  0  0  0  0  0  0  0  0  0  0  0
  1  2  1  0
  2  3  1  0
  3  4  1  0
  4  5  1  0
  5  6  1  0
  6  7  2  0
  7  8  1  0
  8  9  2  0
  9 10  1  0
 10 11  1  0
 11 12  2  0
 11 13  1  0
 13 14  1  0
 14 15  2  0
 15 16  1  0
 16 17  2  0
 17 18  1  0
 18 19  1  0
 19 20  1  0
 20 21  2  0
 20 22  1  0
 22 23  1  0
 23 24  2  0
 24 25  1  0
 25 26  2  0
 26 27  1  0
 27 28  2  0
 28 29  1  0
 18 30  2  0
 10 31  2  0
  5 32  1  0
 32 33  1  0
 33  2  1  0
 31  6  1  0
 30 14  1  0
 28 23  1  0
  1 34  1  0
  1 35  1  0
  1 36  1  0
  3 37  1  0
  3 38  1  0
  4 39  1  0
  4 40  1  0
  7 41  1  0
  8 42  1  0
  9 43  1  0
 15 44  1  0
 16 45  1  0
 17 46  1  0
 22 47  1  0
 22 48  1  0
 24 49  1  0
 25 50  1  0
 26 51  1  0
 27 52  1  0
 29 53  1  0
 30 54  1  0
 31 55  1  0
 32 56  1  0
 32 57  1  0
 33 58  1  0
 33 59  1  0
M  CHG  2  13  -1  19  -1
M  END
>  <UniqueID>  (58) 
55

>  <SMILES>  (58) 
CN1CCN(c2cccc(C(=O)[N-]c3cccc([N-]C(=O)Cc4ccccc4O)c3)c2)CC1

>  <Energy>  (58) 
79.59029952244953

>  <Genealogy>  (58) 
CN1CCN(c2cccc(C(=O)[N-]c3cccc([N-]C(=O)Cc4ccccc4O)c3)c2)CC1 (protonated)
CN1CCN(c2cccc(C(=O)[N-]c3cccc([N-]C(=O)Cc4ccccc4O)c3)c2)CC1 (3D coordinates assigned)
CN1CCN(c2cccc(C(=O)[N-]c3cccc([N-]C(=O)Cc4ccccc4O)c3)c2)CC1 (nonaromatic ring conformer: 79.59029952244953 kcal/mol)

>  <smiles>  (58) 
CN1CCN(c2cccc(C(=O)Nc3cccc(NC(=O)Cc4ccccc4O)c3)c2)CC1

>  <score_type>  (58) 
oracle

>  <origin>  (58) 
adg

>  <m_score__min__energy>  (58) 
-14.550000000000001

>  <m_primary>  (58) 
energy

$$$$
58:0
     RDKit          3D

 63 66  0  0  1  0  0  0  0  0999 V2000
   56.2500   30.0300   43.2060 C   0  0  0  0  0  0  0  0  0  0  0  0
   57.1380   29.5410   44.2920 C   0  0  0  0  0  0  0  0  0  0  0  0
   58.1730   30.3560   44.7510 C   0  0  0  0  0  0  0  0  0  0  0  0
   59.0280   29.9320   45.7670 C   0  0  0  0  0  0  0  0  0  0  0  0
   59.9910   30.7220   46.1760 N   0  0  0  0  0  0  0  0  0  0  0  0
   59.7060   31.4190   47.4070 C   0  0  0  0  0  0  0  0  0  0  0  0
   60.2340   32.6910   47.5040 C   0  0  0  0  0  0  0  0  0  0  0  0
   59.9770   33.3840   48.6740 C   0  0  0  0  0  0  0  0  0  0  0  0
   59.2260   32.8000   49.6730 C   0  0  0  0  0  0  0  0  0  0  0  0
   58.7030   31.5300   49.5720 C   0  0  0  0  0  0  0  0  0  0  0  0
   57.9090   30.9000   50.6190 C   0  0  0  0  0  0  0  0  0  0  0  0
   58.1240   29.6810   50.9380 O   0  0  0  0  0  0  0  0  0  0  0  0
   56.8840   31.5560   51.3350 N   0  0  0  0  0  0  0  0  0  0  0  0
   56.1190   30.9160   52.3580 C   0  0  0  0  0  0  0  0  0  0  0  0
   54.6350   31.1990   52.2980 C   0  0  0  0  0  0  0  0  0  0  0  0
   53.8510   29.9900   52.4660 N   0  0  0  0  0  0  0  0  0  0  0  0
   53.0150   29.7260   51.3090 C   0  0  0  0  0  0  0  0  0  0  0  0
   54.8060   28.9000   52.5630 C   0  0  0  0  0  0  0  0  0  0  0  0
   58.9560   30.8350   48.4080 C   0  0  0  0  0  0  0  0  0  0  0  0
   58.8440   28.7100   46.3120 N   0  0  0  0  0  0  0  0  0  0  0  0
   57.8350   27.9240   45.8600 C   0  0  0  0  0  0  0  0  0  0  0  0
   57.6520   26.6400   46.4410 N   0  0  0  0  0  0  0  0  0  0  0  0
   56.7240   25.5540   46.1900 C   0  0  0  0  0  0  0  0  0  0  0  0
   57.2520   24.7940   47.3890 C   0  0  0  0  0  0  0  0  0  0  0  0
   57.8010   23.5460   47.0830 O   0  0  0  0  0  0  0  0  0  0  0  0
   57.5820   22.7940   45.9600 C   0  0  0  0  0  0  0  0  0  0  0  0
   56.3610   22.1500   45.8410 C   0  0  0  0  0  0  0  0  0  0  0  0
   56.0620   21.3760   44.7450 C   0  0  0  0  0  0  0  0  0  0  0  0
   56.9850   21.2150   43.7150 C   0  0  0  0  0  0  0  0  0  0  0  0
   56.6870   20.4460   42.6230 F   0  0  0  0  0  0  0  0  0  0  0  0
   58.1960   21.8430   43.8150 C   0  0  0  0  0  0  0  0  0  0  0  0
   58.4790   22.6210   44.9310 C   0  0  0  0  0  0  0  0  0  0  0  0
   58.2940   25.8890   47.5030 C   0  0  0  0  0  0  0  0  0  0  0  0
   57.0020   28.3330   44.8710 N   0  0  0  0  0  0  0  0  0  0  0  0
   55.3667   30.5164   43.6456 H   0  0  0  0  0  0  0  0  0  0  0  0
   56.7961   30.7546   42.5841 H   0  0  0  0  0  0  0  0  0  0  0  0
   55.9296   29.1811   42.5841 H   0  0  0  0  0  0  0  0  0  0  0  0
   58.3169   31.3505   44.3034 H   0  0  0  0  0  0  0  0  0  0  0  0
   60.8297   33.1320   46.6912 H   0  0  0  0  0  0  0  0  0  0  0  0
   60.3721   34.4019   48.8076 H   0  0  0  0  0  0  0  0  0  0  0  0
   59.0364   33.3746   50.5916 H   0  0  0  0  0  0  0  0  0  0  0  0
   56.6700   32.5680   51.1040 H   0  0  0  0  0  0  0  0  0  0  0  0
   56.2659   29.8295   52.2685 H   0  0  0  0  0  0  0  0  0  0  0  0
   56.4770   31.3198   53.3166 H   0  0  0  0  0  0  0  0  0  0  0  0
   54.3744   31.9070   53.0986 H   0  0  0  0  0  0  0  0  0  0  0  0
   54.4062   31.6213   51.3084 H   0  0  0  0  0  0  0  0  0  0  0  0
   52.0156   29.4104   51.6431 H   0  0  0  0  0  0  0  0  0  0  0  0
   52.9275   30.6402   50.7036 H   0  0  0  0  0  0  0  0  0  0  0  0
   53.4684   28.9273   50.7036 H   0  0  0  0  0  0  0  0  0  0  0  0
   55.0014   28.6769   53.6223 H   0  0  0  0  0  0  0  0  0  0  0  0
   54.3944   28.0069   52.0701 H   0  0  0  0  0  0  0  0  0  0  0  0
   55.7455   29.1906   52.0701 H   0  0  0  0  0  0  0  0  0  0  0  0
   58.5607   29.8168   48.2774 H   0  0  0  0  0  0  0  0  0  0  0  0
   55.6661   25.8430   46.2762 H   0  0  0  0  0  0  0  0  0  0  0  0
   56.6986   25.0712   45.2019 H   0  0  0  0  0  0  0  0  0  0  0  0
   56.5992   24.4986   48.2236 H   0  0  0  0  0  0  0  0  0  0  0  0
   55.6144   22.2605   46.6412 H   0  0  0  0  0  0  0  0  0  0  0  0
   55.0830   20.8785   44.6810 H   0  0  0  0  0  0  0  0  0  0  0  0
   58.9430   21.7326   43.0151 H   0  0  0  0  0  0  0  0  0  0  0  0
   59.4583   23.1180   44.9943 H   0  0  0  0  0  0  0  0  0  0  0  0
   58.2952   26.4037   48.4751 H   0  0  0  0  0  0  0  0  0  0  0  0
   59.3629   25.6397   47.4307 H   0  0  0  0  0  0  0  0  0  0  0  0
   56.2270   27.7150   44.5310 H   0  0  0  0  0  0  0  0  0  0  0  0
  1  2  1  0
  2  3  2  0
  3  4  1  0
  4  5  2  0
  5  6  1  0
  6  7  2  0
  7  8  1  0
  8  9  2  0
  9 10  1  0
 10 11  1  0
 11 12  2  0
 11 13  1  0
 13 14  1  0
 14 15  1  0
 15 16  1  0
 16 17  1  0
 16 18  1  0
 10 19  2  0
  4 20  1  0
 20 21  2  0
 21 22  1  0
 22 23  1  0
 23 24  1  0
 24 25  1  0
 25 26  1  0
 26 27  2  0
 27 28  1  0
 28 29  2  0
 29 30  1  0
 29 31  1  0
 31 32  2  0
 24 33  1  0
 21 34  1  0
 34  2  1  0
 19  6  1  0
 33 22  1  0
 32 26  1  0
  1 35  1  0
  1 36  1  0
  1 37  1  0
  3 38  1  0
  7 39  1  0
  8 40  1  0
  9 41  1  0
 13 42  1  0
 14 43  1  0
 14 44  1  0
 15 45  1  0
 15 46  1  0
 17 47  1  0
 17 48  1  0
 17 49  1  0
 18 50  1  0
 18 51  1  0
 18 52  1  0
 19 53  1  0
 23 54  1  0
 23 55  1  0
 24 56  1  0
 27 57  1  0
 28 58  1  0
 31 59  1  0
 32 60  1  0
 33 61  1  0
 33 62  1  0
 34 63  1  0
M  END
>  <smiles>  (59) 
Cc1cc(=Nc2cccc(C(=O)NCCN(C)C)c2)nc(N2CC(Oc3ccc(F)cc3)C2)[nH]1

>  <score_type>  (59) 
oracle

>  <origin>  (59) 
adg

>  <m_score__min__energy>  (59) 
-9.0800000000000001

>  <m_primary>  (59) 
energy

$$$$
59:0
     RDKit          3D

 63 67  0  0  0  0  0  0  0  0999 V2000
   58.9900   27.3430   46.6680 O   0  0  0  0  0  0  0  0  0  0  0  0
   58.3400   26.9300   45.6690 C   0  0  0  0  0  0  0  0  0  0  0  0
   57.6580   27.8680   44.8150 N   0  0  0  0  0  0  0  0  0  0  0  0
   57.7540   29.2950   44.9520 C   0  0  0  0  0  0  0  0  0  0  0  0
   56.7510   30.1060   44.4000 C   0  0  0  0  0  0  0  0  0  0  0  0
   56.8340   31.4980   44.4920 C   0  0  0  0  0  0  0  0  0  0  0  0
   57.9330   32.1000   45.1190 C   0  0  0  0  0  0  0  0  0  0  0  0
   58.0500   33.8610   45.2150 S   0  0  0  0  0  0  0  0  0  0  0  0
   59.0080   34.3500   44.1650 O   0  0  0  0  0  0  0  0  0  0  0  0
   56.7010   34.4620   44.9300 O   0  0  0  0  0  0  0  0  0  0  0  0
   58.6010   34.3870   46.7880 N   0  0  0  0  0  0  0  0  0  0  0  0
   58.4070   33.3180   47.7870 C   0  0  0  0  0  0  0  0  0  0  0  0
   59.3140   33.5460   49.0070 C   0  0  0  0  0  0  0  0  0  0  0  0
   60.7040   33.5610   48.7010 O   0  0  0  0  0  0  0  0  0  0  0  0
   60.9900   33.8900   47.3480 C   0  0  0  0  0  0  0  0  0  0  0  0
   59.9910   34.8920   46.7420 C   0  0  0  0  0  0  0  0  0  0  0  0
   58.9440   31.2950   45.6600 C   0  0  0  0  0  0  0  0  0  0  0  0
   58.8610   29.9020   45.5680 C   0  0  0  0  0  0  0  0  0  0  0  0
   58.2900   25.4750   45.3990 C   0  0  0  0  0  0  0  0  0  0  0  0
   59.3520   24.6520   45.8140 C   0  0  0  0  0  0  0  0  0  0  0  0
   59.3250   23.2800   45.5580 C   0  0  0  0  0  0  0  0  0  0  0  0
   58.2410   22.7110   44.8870 C   0  0  0  0  0  0  0  0  0  0  0  0
   57.1680   23.5130   44.4680 C   0  0  0  0  0  0  0  0  0  0  0  0
   55.9980   22.8940   43.7440 C   0  0  0  0  0  0  0  0  0  0  0  0
   54.7680   22.8780   44.6170 C   0  0  0  0  0  0  0  0  0  0  0  0
   53.6040   23.3400   44.0850 N   0  0  0  0  0  0  0  0  0  0  0  0
   52.4720   23.3860   44.7870 N   0  0  0  0  0  0  0  0  0  0  0  0
   52.4200   22.9810   46.0800 C   0  0  0  0  0  0  0  0  0  0  0  0
   51.3250   23.0320   46.7010 O   0  0  0  0  0  0  0  0  0  0  0  0
   53.5860   22.5150   46.7040 C   0  0  0  0  0  0  0  0  0  0  0  0
   54.7790   22.4550   45.9670 C   0  0  0  0  0  0  0  0  0  0  0  0
   55.9950   21.8830   46.6600 C   0  0  0  0  0  0  0  0  0  0  0  0
   56.1460   22.4860   48.0670 C   0  0  0  0  0  0  0  0  0  0  0  0
   54.8320   22.5220   48.8870 C   0  0  0  0  0  0  0  0  0  0  0  0
   53.5910   22.0150   48.1290 C   0  0  0  0  0  0  0  0  0  0  0  0
   57.1890   24.8900   44.7480 C   0  0  0  0  0  0  0  0  0  0  0  0
   57.0200   27.5070   44.0710 H   0  0  0  0  0  0  0  0  0  0  0  0
   55.8929   29.6427   43.8910 H   0  0  0  0  0  0  0  0  0  0  0  0
   56.0334   32.1236   44.0705 H   0  0  0  0  0  0  0  0  0  0  0  0
   57.3565   33.3145   48.1132 H   0  0  0  0  0  0  0  0  0  0  0  0
   58.6663   32.3526   47.3280 H   0  0  0  0  0  0  0  0  0  0  0  0
   59.0490   34.5132   49.4589 H   0  0  0  0  0  0  0  0  0  0  0  0
   59.1478   32.6995   49.6894 H   0  0  0  0  0  0  0  0  0  0  0  0
   61.9974   34.3291   47.3007 H   0  0  0  0  0  0  0  0  0  0  0  0
   60.9156   32.9611   46.7636 H   0  0  0  0  0  0  0  0  0  0  0  0
   60.0454   35.8337   47.3079 H   0  0  0  0  0  0  0  0  0  0  0  0
   60.2617   35.0450   45.6869 H   0  0  0  0  0  0  0  0  0  0  0  0
   59.8066   31.7605   46.1592 H   0  0  0  0  0  0  0  0  0  0  0  0
   59.6674   29.2779   45.9805 H   0  0  0  0  0  0  0  0  0  0  0  0
   60.2096   25.0922   46.3438 H   0  0  0  0  0  0  0  0  0  0  0  0
   60.1610   22.6448   45.8862 H   0  0  0  0  0  0  0  0  0  0  0  0
   58.2278   21.6296   44.6858 H   0  0  0  0  0  0  0  0  0  0  0  0
   55.7870   23.4783   42.8362 H   0  0  0  0  0  0  0  0  0  0  0  0
   56.2562   21.8568   43.4840 H   0  0  0  0  0  0  0  0  0  0  0  0
   55.8842   20.7918   46.7437 H   0  0  0  0  0  0  0  0  0  0  0  0
   56.8899   22.1289   46.0694 H   0  0  0  0  0  0  0  0  0  0  0  0
   56.8826   21.8865   48.6220 H   0  0  0  0  0  0  0  0  0  0  0  0
   56.4623   23.5307   47.9308 H   0  0  0  0  0  0  0  0  0  0  0  0
   54.9679   21.8957   49.7811 H   0  0  0  0  0  0  0  0  0  0  0  0
   54.6419   23.5787   49.1262 H   0  0  0  0  0  0  0  0  0  0  0  0
   53.5968   20.9150   48.1243 H   0  0  0  0  0  0  0  0  0  0  0  0
   52.6914   22.3933   48.6365 H   0  0  0  0  0  0  0  0  0  0  0  0
   56.3345   25.5175   44.4547 H   0  0  0  0  0  0  0  0  0  0  0  0
  1  2  2  0
  2  3  1  0
  3  4  1  0
  4  5  2  0
  5  6  1  0
  6  7  2  0
  7  8  1  0
  8  9  2  0
  8 10  2  0
  8 11  1  0
 11 12  1  0
 12 13  1  0
 13 14  1  0
 14 15  1  0
 15 16  1  0
  7 17  1  0
 17 18  2  0
  2 19  1  0
 19 20  2  0
 20 21  1  0
 21 22  2  0
 22 23  1  0
 23 24  1  0
 24 25  1  0
 25 26  2  0
 26 27  1  0
 27 28  1  0
 28 29  2  0
 28 30  1  0
 30 31  2  0
 31 32  1  0
 32 33  1  0
 33 34  1  0
 34 35  1  0
 23 36  2  0
 18  4  1  0
 36 19  1  0
 16 11  1  0
 31 25  1  0
 35 30  1  0
  3 37  1  0
  5 38  1  0
  6 39  1  0
 12 40  1  0
 12 41  1  0
 13 42  1  0
 13 43  1  0
 15 44  1  0
 15 45  1  0
 16 46  1  0
 16 47  1  0
 17 48  1  0
 18 49  1  0
 20 50  1  0
 21 51  1  0
 22 52  1  0
 24 53  1  0
 24 54  1  0
 32 55  1  0
 32 56  1  0
 33 57  1  0
 33 58  1  0
 34 59  1  0
 34 60  1  0
 35 61  1  0
 35 62  1  0
 36 63  1  0
M  CHG  1  27  -1
M  END
>  <UniqueID>  (60) 
56

>  <SMILES>  (60) 
O=C(Nc1ccc(S(=O)(=O)N2CCOCC2)cc1)c1cccc(Cc2n[n-]c(=O)c3c2CCCC3)c1

>  <Energy>  (60) 
93.32415424296686

>  <Genealogy>  (60) 
O=C(Nc1ccc(S(=O)(=O)N2CCOCC2)cc1)c1cccc(Cc2n[n-]c(=O)c3c2CCCC3)c1 (protonated)
O=C(Nc1ccc(S(=O)(=O)N2CCOCC2)cc1)c1cccc(Cc2n[n-]c(=O)c3c2CCCC3)c1 (3D coordinates assigned)
O=C(Nc1ccc(S(=O)(=O)N2CCOCC2)cc1)c1cccc(Cc2n[n-]c(=O)c3c2CCCC3)c1 (nonaromatic ring conformer: 93.32415424296686 kcal/mol)

>  <smiles>  (60) 
O=C(Nc1ccc(S(=O)(=O)N2CCOCC2)cc1)c1cccc(Cc2n[nH]c(=O)c3c2CCCC3)c1

>  <score_type>  (60) 
oracle

>  <origin>  (60) 
adg

>  <m_score__min__energy>  (60) 
-12.82

>  <m_primary>  (60) 
energy

$$$$
60:0
     RDKit          3D

 22 24  0  0  0  0  0  0  0  0999 V2000
   59.7216   32.2183   46.5988 H   0  0  0  0  0  0  0  0  0  0  0  0
   60.0400   31.1660   46.6350 C   0  0  0  0  0  0  0  0  0  0  0  0
   60.9869   30.8944   47.1245 H   0  0  0  0  0  0  0  0  0  0  0  0
   59.2800   30.2220   46.0870 C   0  0  0  0  0  0  0  0  0  0  0  0
   59.6280   28.5730   46.0600 S   0  0  0  0  0  0  0  0  0  0  0  0
   58.2420   28.0690   45.2190 C   0  0  0  0  0  0  0  0  0  0  0  0
   57.8890   26.8190   44.8680 C   0  0  0  0  0  0  0  0  0  0  0  0
   57.9926   26.5530   43.8057 H   0  0  0  0  0  0  0  0  0  0  0  0
   57.3740   25.7660   45.7750 C   0  0  0  0  0  0  0  0  0  0  0  0
   58.1730   24.3900   46.3470 S   0  0  0  0  0  0  0  0  0  0  0  0
   56.8380   23.8480   47.2050 C   0  0  0  0  0  0  0  0  0  0  0  0
   56.8130   22.7940   47.8920 O   0  0  0  0  0  0  0  0  0  0  0  0
   55.7780   24.6710   47.0800 N   0  0  0  0  0  0  0  0  0  0  0  0
   56.0740   25.7330   46.2830 C   0  0  0  0  0  0  0  0  0  0  0  0
   55.1280   26.7130   46.0060 O   0  0  0  0  0  0  0  0  0  0  0  0
   57.4940   29.2190   44.9600 C   0  0  0  0  0  0  0  0  0  0  0  0
   56.3060   29.2570   44.3060 N   0  0  0  0  0  0  0  0  0  0  0  0
   55.6860   30.4570   44.1240 C   0  0  0  0  0  0  0  0  0  0  0  0
   54.7214   30.5027   43.5972 H   0  0  0  0  0  0  0  0  0  0  0  0
   56.2610   31.6030   44.5950 N   0  0  0  0  0  0  0  0  0  0  0  0
   57.4300   31.5800   45.2410 N   0  0  0  0  0  0  0  0  0  0  0  0
   58.0660   30.3990   45.4360 C   0  0  0  0  0  0  0  0  0  0  0  0
  1  2  1  0
  2  3  1  0
  2  4  2  0
  4  5  1  0
  5  6  1  0
  6  7  2  0
  7  8  1  0
  7  9  1  0
  9 10  1  0
 10 11  1  0
 11 12  2  0
 11 13  1  0
 13 14  1  0
 14 15  1  0
  6 16  1  0
 16 17  2  0
 17 18  1  0
 18 19  1  0
 18 20  2  0
 20 21  1  0
 21 22  2  0
 22  4  1  0
 14  9  2  0
 22 16  1  0
M  CHG  2  13  -1  15  -1
M  END
>  <UniqueID>  (61) 
57

>  <SMILES>  (61) 
C=c1s/c(=C\c2sc(=O)[n-]c2[O-])c2ncnnc12

>  <Energy>  (61) 
94.01443011984973

>  <Genealogy>  (61) 
C=c1sc(=Cc2sc(=O)[n-]c2[O-])c2ncnnc12 (protonated)
C=c1s/c(=C\c2sc(=O)[n-]c2[O-])c2ncnnc12 (cis-trans isomerization)
C=c1s/c(=C\c2sc(=O)[n-]c2[O-])c2ncnnc12 (3D coordinates assigned)
C=c1s/c(=C\c2sc(=O)[n-]c2[O-])c2ncnnc12 (optimized conformer: 94.01443011984973 kcal/mol)

>  <smiles>  (61) 
C=c1sc(=Cc2sc(=O)[nH]c2O)c2ncnnc12

>  <score_type>  (61) 
oracle

>  <origin>  (61) 
adg

>  <m_score__min__energy>  (61) 
-14.26

>  <m_primary>  (61) 
energy

$$$$
61:0
     RDKit          3D

 41 43  0  0  0  0  0  0  0  0999 V2000
   57.4180   32.1930   44.8240 C   0  0  0  0  0  0  0  0  0  0  0  0
   58.1930   33.1830   45.6420 C   0  0  0  0  0  0  0  0  0  0  0  0
   58.8940   34.2230   45.0190 C   0  0  0  0  0  0  0  0  0  0  0  0
   59.6430   35.1060   45.7970 C   0  0  0  0  0  0  0  0  0  0  0  0
   59.6970   34.9510   47.1460 N   0  0  0  0  0  0  0  0  0  0  0  0
   59.0400   33.9490   47.7900 C   0  0  0  0  0  0  0  0  0  0  0  0
   59.1340   33.8810   49.0870 N   0  0  0  0  0  0  0  0  0  0  0  0
   59.9310   32.6360   50.0010 S   0  0  0  0  0  0  0  0  0  0  0  0
   60.9010   33.2700   50.9560 O   0  0  0  0  0  0  0  0  0  0  0  0
   60.6860   31.7440   49.0540 O   0  0  0  0  0  0  0  0  0  0  0  0
   58.7370   31.7220   50.9240 C   0  0  0  0  0  0  0  0  0  0  0  0
   58.7670   30.3220   50.8830 C   0  0  0  0  0  0  0  0  0  0  0  0
   57.8880   29.5730   51.6670 C   0  0  0  0  0  0  0  0  0  0  0  0
   56.9680   30.2140   52.5120 C   0  0  0  0  0  0  0  0  0  0  0  0
   56.0700   29.4270   53.3900 C   0  0  0  0  0  0  0  0  0  0  0  0
   56.4780   29.0690   54.5270 O   0  0  0  0  0  0  0  0  0  0  0  0
   54.7290   29.0960   53.0040 N   0  0  0  0  0  0  0  0  0  0  0  0
   53.7000   30.0250   52.6300 C   0  0  0  0  0  0  0  0  0  0  0  0
   53.6360   30.5800   51.3380 C   0  0  0  0  0  0  0  0  0  0  0  0
   52.6180   31.4810   51.0100 C   0  0  0  0  0  0  0  0  0  0  0  0
   51.6490   31.8190   51.9580 C   0  0  0  0  0  0  0  0  0  0  0  0
   50.6400   32.7170   51.6300 O   0  0  0  0  0  0  0  0  0  0  0  0
   51.6920   31.2500   53.2340 C   0  0  0  0  0  0  0  0  0  0  0  0
   52.7090   30.3500   53.5650 C   0  0  0  0  0  0  0  0  0  0  0  0
   56.9040   31.6180   52.5140 C   0  0  0  0  0  0  0  0  0  0  0  0
   57.7840   32.3690   51.7280 C   0  0  0  0  0  0  0  0  0  0  0  0
   57.7120   33.7230   51.7670 F   0  0  0  0  0  0  0  0  0  0  0  0
   58.2790   33.0320   47.0330 C   0  0  0  0  0  0  0  0  0  0  0  0
   56.8799   31.5056   45.4933 H   0  0  0  0  0  0  0  0  0  0  0  0
   56.6956   32.7273   44.1894 H   0  0  0  0  0  0  0  0  0  0  0  0
   58.1101   31.6200   44.1894 H   0  0  0  0  0  0  0  0  0  0  0  0
   58.8544   34.3425   43.9262 H   0  0  0  0  0  0  0  0  0  0  0  0
   60.1914   35.9300   45.3172 H   0  0  0  0  0  0  0  0  0  0  0  0
   59.4878   29.8097   50.2288 H   0  0  0  0  0  0  0  0  0  0  0  0
   57.9162   28.4743   51.6226 H   0  0  0  0  0  0  0  0  0  0  0  0
   54.3885   30.3043   50.5845 H   0  0  0  0  0  0  0  0  0  0  0  0
   52.5801   31.9243   50.0040 H   0  0  0  0  0  0  0  0  0  0  0  0
   50.9250   31.5106   53.9782 H   0  0  0  0  0  0  0  0  0  0  0  0
   52.7312   29.8942   54.5659 H   0  0  0  0  0  0  0  0  0  0  0  0
   56.1566   32.1298   53.1381 H   0  0  0  0  0  0  0  0  0  0  0  0
   57.7560   32.2030   47.5323 H   0  0  0  0  0  0  0  0  0  0  0  0
  1  2  1  0
  2  3  1  0
  3  4  2  0
  4  5  1  0
  5  6  1  0
  6  7  2  3
  7  8  1  0
  8  9  2  0
  8 10  2  0
  8 11  1  0
 11 12  2  0
 12 13  1  0
 13 14  2  0
 14 15  1  0
 15 16  2  0
 15 17  1  0
 17 18  1  0
 18 19  2  0
 19 20  1  0
 20 21  2  0
 21 22  1  0
 21 23  1  0
 23 24  2  0
 14 25  1  0
 25 26  2  0
 26 27  1  0
  6 28  1  0
 28  2  2  0
 26 11  1  0
 24 18  1  0
  1 29  1  0
  1 30  1  0
  1 31  1  0
  3 32  1  0
  4 33  1  0
 12 34  1  0
 13 35  1  0
 19 36  1  0
 20 37  1  0
 23 38  1  0
 24 39  1  0
 25 40  1  0
 28 41  1  0
M  CHG  3   5  -1  17  -1  22  -1
M  END
>  <UniqueID>  (62) 
58

>  <SMILES>  (62) 
Cc1cc[n-]c(=NS(=O)(=O)c2ccc(C(=O)[N-]c3ccc([O-])cc3)cc2F)c1

>  <Energy>  (62) 
55.01058883403091

>  <Genealogy>  (62) 
Cc1cc[n-]c(=NS(=O)(=O)c2ccc(C(=O)[N-]c3ccc([O-])cc3)cc2F)c1 (protonated)
Cc1cc[n-]c(=NS(=O)(=O)c2ccc(C(=O)[N-]c3ccc([O-])cc3)cc2F)c1 (3D coordinates assigned)
Cc1cc[n-]c(=NS(=O)(=O)c2ccc(C(=O)[N-]c3ccc([O-])cc3)cc2F)c1 (optimized conformer: 55.01058883403091 kcal/mol)

>  <smiles>  (62) 
Cc1cc[nH]c(=NS(=O)(=O)c2ccc(C(=O)Nc3ccc(O)cc3)cc2F)c1

>  <score_type>  (62) 
oracle

>  <origin>  (62) 
adg

>  <m_score__min__energy>  (62) 
-13.75

>  <m_primary>  (62) 
energy

$$$$
62:0
     RDKit          3D

 44 46  0  0  0  0  0  0  0  0999 V2000
   60.7970   30.6620   48.7640 O   0  0  0  0  0  0  0  0  0  0  0  0
   59.7400   30.7950   48.0940 C   0  0  0  0  0  0  0  0  0  0  0  0
   58.8630   29.6700   47.9560 N   0  0  0  0  0  0  0  0  0  0  0  0
   58.7200   28.8440   46.7910 C   0  0  0  0  0  0  0  0  0  0  0  0
   59.5100   29.1160   45.6690 C   0  0  0  0  0  0  0  0  0  0  0  0
   59.3840   28.3420   44.5120 C   0  0  0  0  0  0  0  0  0  0  0  0
   58.4550   27.3000   44.4630 C   0  0  0  0  0  0  0  0  0  0  0  0
   57.6270   27.0340   45.5670 C   0  0  0  0  0  0  0  0  0  0  0  0
   56.6490   25.9200   45.5360 C   0  0  0  0  0  0  0  0  0  0  0  0
   55.5080   26.1020   46.0400 O   0  0  0  0  0  0  0  0  0  0  0  0
   56.9680   24.6010   44.9360 C   0  0  0  0  0  0  0  0  0  0  0  0
   58.0960   23.8690   45.3520 C   0  0  0  0  0  0  0  0  0  0  0  0
   58.3950   22.6350   44.7660 C   0  0  0  0  0  0  0  0  0  0  0  0
   57.5780   22.1240   43.7550 C   0  0  0  0  0  0  0  0  0  0  0  0
   56.4650   22.8490   43.3230 C   0  0  0  0  0  0  0  0  0  0  0  0
   56.1620   24.0840   43.9060 C   0  0  0  0  0  0  0  0  0  0  0  0
   57.7650   27.8130   46.7290 C   0  0  0  0  0  0  0  0  0  0  0  0
   59.4060   32.1140   47.5200 C   0  0  0  0  0  0  0  0  0  0  0  0
   60.1750   33.0940   47.7180 O   0  0  0  0  0  0  0  0  0  0  0  0
   58.2150   32.2840   46.7420 N   0  0  0  0  0  0  0  0  0  0  0  0
   57.7840   33.6090   46.2920 C   0  0  0  0  0  0  0  0  0  0  0  0
   57.7020   33.6720   44.7920 C   0  0  0  0  0  0  0  0  0  0  0  0
   57.9400   32.6480   43.9570 C   0  0  0  0  0  0  0  0  0  0  0  0
   57.1360   31.4120   43.8340 C   0  0  0  0  0  0  0  0  0  0  0  0
   57.0210   30.7540   42.6600 N   0  0  0  0  0  0  0  0  0  0  0  0
   56.2320   29.7060   42.9490 C   0  0  0  0  0  0  0  0  0  0  0  0
   55.8870   29.7510   44.2770 C   0  0  0  0  0  0  0  0  0  0  0  0
   56.4540   30.8300   44.8430 N   0  0  0  0  0  0  0  0  0  0  0  0
   60.2342   29.9435   45.6975 H   0  0  0  0  0  0  0  0  0  0  0  0
   60.0177   28.5539   43.6382 H   0  0  0  0  0  0  0  0  0  0  0  0
   58.3710   26.6843   43.5554 H   0  0  0  0  0  0  0  0  0  0  0  0
   58.7465   24.2702   46.1431 H   0  0  0  0  0  0  0  0  0  0  0  0
   59.2746   22.0661   45.1017 H   0  0  0  0  0  0  0  0  0  0  0  0
   57.8111   21.1505   43.2989 H   0  0  0  0  0  0  0  0  0  0  0  0
   55.8255   22.4481   42.5228 H   0  0  0  0  0  0  0  0  0  0  0  0
   55.2884   24.6540   43.5568 H   0  0  0  0  0  0  0  0  0  0  0  0
   57.1202   27.6145   47.5978 H   0  0  0  0  0  0  0  0  0  0  0  0
   57.6120   31.4510   46.5470 H   0  0  0  0  0  0  0  0  0  0  0  0
   56.7924   33.8270   46.7153 H   0  0  0  0  0  0  0  0  0  0  0  0
   58.5218   34.3504   46.6326 H   0  0  0  0  0  0  0  0  0  0  0  0
   57.4242   34.6364   44.3417 H   0  0  0  0  0  0  0  0  0  0  0  0
   58.8181   32.7365   43.3004 H   0  0  0  0  0  0  0  0  0  0  0  0
   55.9126   28.9334   42.2341 H   0  0  0  0  0  0  0  0  0  0  0  0
   55.2484   29.0205   44.7951 H   0  0  0  0  0  0  0  0  0  0  0  0
  1  2  2  0
  2  3  1  0
  3  4  1  0
  4  5  2  0
  5  6  1  0
  6  7  2  0
  7  8  1  0
  8  9  1  0
  9 10  2  0
  9 11  1  0
 11 12  2  0
 12 13  1  0
 13 14  2  0
 14 15  1  0
 15 16  2  0
  8 17  2  0
  2 18  1  0
 18 19  2  0
 18 20  1  0
 20 21  1  0
 21 22  1  0
 22 23  2  3
 23 24  1  0
 24 25  2  0
 25 26  1  0
 26 27  2  0
 27 28  1  0
 17  4  1  0
 28 24  1  0
 16 11  1  0
  5 29  1  0
  6 30  1  0
  7 31  1  0
 12 32  1  0
 13 33  1  0
 14 34  1  0
 15 35  1  0
 16 36  1  0
 17 37  1  0
 20 38  1  0
 21 39  1  0
 21 40  1  0
 22 41  1  0
 23 42  1  0
 26 43  1  0
 27 44  1  0
M  CHG  2   3  -1  28  -1
M  END
>  <UniqueID>  (63) 
59

>  <SMILES>  (63) 
O=C([N-]c1cccc(C(=O)c2ccccc2)c1)C(=O)NCC=Cc1ncc[n-]1

>  <Energy>  (63) 
81.75831925412481

>  <Genealogy>  (63) 
O=C([N-]c1cccc(C(=O)c2ccccc2)c1)C(=O)NCC=Cc1ncc[n-]1 (protonated)
O=C([N-]c1cccc(C(=O)c2ccccc2)c1)C(=O)NCC=Cc1ncc[n-]1 (3D coordinates assigned)
O=C([N-]c1cccc(C(=O)c2ccccc2)c1)C(=O)NCC=Cc1ncc[n-]1 (optimized conformer: 81.75831925412481 kcal/mol)

>  <smiles>  (63) 
O=C(NCC=Cc1ncc[nH]1)C(=O)Nc1cccc(C(=O)c2ccccc2)c1

>  <score_type>  (63) 
oracle

>  <origin>  (63) 
adg

>  <m_score__min__energy>  (63) 
-13.06

>  <m_primary>  (63) 
energy

$$$$
63:0
     RDKit          3D

 44 46  0  0  0  0  0  0  0  0999 V2000
   55.7490   30.3560   44.1320 C   0  0  0  0  0  0  0  0  0  0  0  0
   56.5980   29.6400   44.8730 C   0  0  0  0  0  0  0  0  0  0  0  0
   56.3330   28.3630   45.2250 N   0  0  0  0  0  0  0  0  0  0  0  0
   57.3920   27.9900   45.9740 C   0  0  0  0  0  0  0  0  0  0  0  0
   57.5230   26.3730   46.7400 S   0  0  0  0  0  0  0  0  0  0  0  0
   57.6440   25.5010   45.1470 C   0  0  0  0  0  0  0  0  0  0  0  0
   58.3160   28.9650   46.0930 N   0  0  0  0  0  0  0  0  0  0  0  0
   57.8290   30.0210   45.4170 C   0  0  0  0  0  0  0  0  0  0  0  0
   58.5060   31.1850   45.3660 C   0  0  0  0  0  0  0  0  0  0  0  0
   58.0070   32.3400   44.6790 N   0  0  0  0  0  0  0  0  0  0  0  0
   58.1070   32.3660   43.2170 C   0  0  0  0  0  0  0  0  0  0  0  0
   57.6750   33.5220   45.4370 C   0  0  0  0  0  0  0  0  0  0  0  0
   56.6990   34.2390   45.0790 O   0  0  0  0  0  0  0  0  0  0  0  0
   58.5050   33.9550   46.6140 C   0  0  0  0  0  0  0  0  0  0  0  0
   59.8230   34.3040   46.1910 O   0  0  0  0  0  0  0  0  0  0  0  0
   60.9810   34.0930   46.9530 C   0  0  0  0  0  0  0  0  0  0  0  0
   62.2320   33.8100   46.3670 C   0  0  0  0  0  0  0  0  0  0  0  0
   63.3550   33.5990   47.1730 C   0  0  0  0  0  0  0  0  0  0  0  0
   63.2420   33.6710   48.5640 C   0  0  0  0  0  0  0  0  0  0  0  0
   62.0070   33.9560   49.1510 C   0  0  0  0  0  0  0  0  0  0  0  0
   60.8810   34.1680   48.3490 C   0  0  0  0  0  0  0  0  0  0  0  0
   59.7770   31.2640   46.0330 N   0  0  0  0  0  0  0  0  0  0  0  0
   60.4960   30.0500   46.4300 C   0  0  0  0  0  0  0  0  0  0  0  0
   59.5170   28.9770   46.9300 C   0  0  0  0  0  0  0  0  0  0  0  0
   55.9946   31.3938   43.8624 H   0  0  0  0  0  0  0  0  0  0  0  0
   54.8039   29.9081   43.7911 H   0  0  0  0  0  0  0  0  0  0  0  0
   57.7931   24.4262   45.3277 H   0  0  0  0  0  0  0  0  0  0  0  0
   56.7164   25.6514   44.5753 H   0  0  0  0  0  0  0  0  0  0  0  0
   58.4956   25.8983   44.5753 H   0  0  0  0  0  0  0  0  0  0  0  0
   59.1332   32.6328   42.9244 H   0  0  0  0  0  0  0  0  0  0  0  0
   57.8574   31.3731   42.8147 H   0  0  0  0  0  0  0  0  0  0  0  0
   57.4054   33.1116   42.8147 H   0  0  0  0  0  0  0  0  0  0  0  0
   58.0334   34.8281   47.0887 H   0  0  0  0  0  0  0  0  0  0  0  0
   58.5685   33.1236   47.3314 H   0  0  0  0  0  0  0  0  0  0  0  0
   62.3247   33.7551   45.2723 H   0  0  0  0  0  0  0  0  0  0  0  0
   64.3284   33.3761   46.7116 H   0  0  0  0  0  0  0  0  0  0  0  0
   64.1259   33.5032   49.1969 H   0  0  0  0  0  0  0  0  0  0  0  0
   61.9199   34.0138   50.2460 H   0  0  0  0  0  0  0  0  0  0  0  0
   59.9115   34.3949   48.8165 H   0  0  0  0  0  0  0  0  0  0  0  0
   60.2750   32.1810   46.0720 H   0  0  0  0  0  0  0  0  0  0  0  0
   61.0490   29.6584   45.5635 H   0  0  0  0  0  0  0  0  0  0  0  0
   61.1908   30.3015   47.2448 H   0  0  0  0  0  0  0  0  0  0  0  0
   60.0027   27.9911   46.8841 H   0  0  0  0  0  0  0  0  0  0  0  0
   59.2314   29.2046   47.9676 H   0  0  0  0  0  0  0  0  0  0  0  0
  1  2  2  0
  2  3  1  0
  3  4  2  0
  4  5  1  0
  5  6  1  0
  4  7  1  0
  7  8  1  0
  8  9  2  0
  9 10  1  0
 10 11  1  0
 10 12  1  0
 12 13  2  0
 12 14  1  0
 14 15  1  0
 15 16  1  0
 16 17  2  0
 17 18  1  0
 18 19  2  0
 19 20  1  0
 20 21  2  0
  9 22  1  0
 22 23  1  0
 23 24  1  0
  8  2  1  0
 21 16  1  0
 24  7  1  0
  1 25  1  0
  1 26  1  0
  6 27  1  0
  6 28  1  0
  6 29  1  0
 11 30  1  0
 11 31  1  0
 11 32  1  0
 14 33  1  0
 14 34  1  0
 17 35  1  0
 18 36  1  0
 19 37  1  0
 20 38  1  0
 21 39  1  0
 22 40  1  0
 23 41  1  0
 23 42  1  0
 24 43  1  0
 24 44  1  0
M  END
>  <UniqueID>  (64) 
60

>  <SMILES>  (64) 
C=c1nc(SC)n2c1=C(N(C)C(=O)COc1ccccc1)NCC2

>  <Energy>  (64) 
82.3019346870916

>  <Genealogy>  (64) 
C=c1nc(SC)n2c1=C(N(C)C(=O)COc1ccccc1)NCC2 (3D coordinates assigned)
C=c1nc(SC)n2c1=C(N(C)C(=O)COc1ccccc1)NCC2 (nonaromatic ring conformer: 82.3019346870916 kcal/mol)

>  <smiles>  (64) 
C=c1nc(SC)n2c1=C(N(C)C(=O)COc1ccccc1)NCC2

>  <score_type>  (64) 
oracle

>  <origin>  (64) 
adg

>  <m_score__min__energy>  (64) 
-7.4699999999999998

>  <m_primary>  (64) 
energy

$$$$
64:0
     RDKit          3D

 44 46  0  0  0  0  0  0  0  0999 V2000
   59.5940   25.5250   46.4000 O   0  0  0  0  0  0  0  0  0  0  0  0
   58.9580   26.6070   46.3010 C   0  0  0  0  0  0  0  0  0  0  0  0
   57.7440   26.8470   47.1490 C   0  0  0  0  0  0  0  0  0  0  0  0
   56.6010   25.9680   46.7030 C   0  0  0  0  0  0  0  0  0  0  0  0
   55.5250   26.5030   45.9720 C   0  0  0  0  0  0  0  0  0  0  0  0
   55.5200   27.8400   45.5930 O   0  0  0  0  0  0  0  0  0  0  0  0
   54.4710   25.7140   45.6370 N   0  0  0  0  0  0  0  0  0  0  0  0
   54.4280   24.4080   46.0020 C   0  0  0  0  0  0  0  0  0  0  0  0
   53.4400   23.6980   45.6820 O   0  0  0  0  0  0  0  0  0  0  0  0
   55.4500   23.8670   46.7130 N   0  0  0  0  0  0  0  0  0  0  0  0
   56.5270   24.6110   47.0740 C   0  0  0  0  0  0  0  0  0  0  0  0
   57.4470   24.0760   47.7470 O   0  0  0  0  0  0  0  0  0  0  0  0
   59.3970   27.6040   45.3780 N   0  0  0  0  0  0  0  0  0  0  0  0
   59.0940   29.0000   45.5070 C   0  0  0  0  0  0  0  0  0  0  0  0
   58.3860   29.6980   44.5120 C   0  0  0  0  0  0  0  0  0  0  0  0
   58.0430   31.0380   44.7020 C   0  0  0  0  0  0  0  0  0  0  0  0
   58.4100   31.7010   45.8790 C   0  0  0  0  0  0  0  0  0  0  0  0
   57.9210   33.3770   46.1430 S   0  0  0  0  0  0  0  0  0  0  0  0
   57.6250   34.0220   44.8180 O   0  0  0  0  0  0  0  0  0  0  0  0
   56.6620   33.4030   46.9650 O   0  0  0  0  0  0  0  0  0  0  0  0
   59.1730   34.2820   46.9630 N   0  0  0  0  0  0  0  0  0  0  0  0
   60.4330   34.3060   46.1790 C   0  0  0  0  0  0  0  0  0  0  0  0
   61.5210   33.3910   46.7600 C   0  0  0  0  0  0  0  0  0  0  0  0
   61.8520   33.7840   48.2100 C   0  0  0  0  0  0  0  0  0  0  0  0
   60.6260   34.3100   48.9790 C   0  0  0  0  0  0  0  0  0  0  0  0
   59.3200   33.8070   48.3570 C   0  0  0  0  0  0  0  0  0  0  0  0
   59.1520   31.0180   46.8530 C   0  0  0  0  0  0  0  0  0  0  0  0
   59.4920   29.6760   46.6650 C   0  0  0  0  0  0  0  0  0  0  0  0
   57.9856   26.6210   48.1981 H   0  0  0  0  0  0  0  0  0  0  0  0
   57.4424   27.8998   47.0458 H   0  0  0  0  0  0  0  0  0  0  0  0
   58.1015   29.1863   43.5808 H   0  0  0  0  0  0  0  0  0  0  0  0
   57.4818   31.5752   43.9232 H   0  0  0  0  0  0  0  0  0  0  0  0
   60.2126   33.9795   45.1519 H   0  0  0  0  0  0  0  0  0  0  0  0
   60.8191   35.3355   46.2098 H   0  0  0  0  0  0  0  0  0  0  0  0
   61.1644   32.3506   46.7413 H   0  0  0  0  0  0  0  0  0  0  0  0
   62.4309   33.4962   46.1509 H   0  0  0  0  0  0  0  0  0  0  0  0
   62.2426   32.8991   48.7338 H   0  0  0  0  0  0  0  0  0  0  0  0
   62.5935   34.5957   48.1727 H   0  0  0  0  0  0  0  0  0  0  0  0
   60.6822   33.9648   50.0219 H   0  0  0  0  0  0  0  0  0  0  0  0
   60.6321   35.4090   48.9314 H   0  0  0  0  0  0  0  0  0  0  0  0
   59.3201   32.7070   48.3631 H   0  0  0  0  0  0  0  0  0  0  0  0
   58.4792   34.1982   48.9486 H   0  0  0  0  0  0  0  0  0  0  0  0
   59.4675   31.5404   47.7682 H   0  0  0  0  0  0  0  0  0  0  0  0
   60.0765   29.1476   47.4326 H   0  0  0  0  0  0  0  0  0  0  0  0
  1  2  2  0
  2  3  1  0
  3  4  1  0
  4  5  2  0
  5  6  1  0
  5  7  1  0
  7  8  1  0
  8  9  2  0
  8 10  1  0
 10 11  1  0
 11 12  2  0
  2 13  1  0
 13 14  1  0
 14 15  2  0
 15 16  1  0
 16 17  2  0
 17 18  1  0
 18 19  2  0
 18 20  2  0
 18 21  1  0
 21 22  1  0
 22 23  1  0
 23 24  1  0
 24 25  1  0
 25 26  1  0
 17 27  1  0
 27 28  2  0
 11  4  1  0
 28 14  1  0
 26 21  1  0
  3 29  1  0
  3 30  1  0
 15 31  1  0
 16 32  1  0
 22 33  1  0
 22 34  1  0
 23 35  1  0
 23 36  1  0
 24 37  1  0
 24 38  1  0
 25 39  1  0
 25 40  1  0
 26 41  1  0
 26 42  1  0
 27 43  1  0
 28 44  1  0
M  CHG  4   6  -1   7  -1  10  -1  13  -1
M  END
>  <UniqueID>  (65) 
61

>  <SMILES>  (65) 
O=C(Cc1c([O-])[n-]c(=O)[n-]c1=O)[N-]c1ccc(S(=O)(=O)N2CCCCC2)cc1

>  <Energy>  (65) 
55.988690831878976

>  <Genealogy>  (65) 
O=C(Cc1c([O-])[n-]c(=O)[n-]c1=O)[N-]c1ccc(S(=O)(=O)N2CCCCC2)cc1 (protonated)
O=C(Cc1c([O-])[n-]c(=O)[n-]c1=O)[N-]c1ccc(S(=O)(=O)N2CCCCC2)cc1 (3D coordinates assigned)
O=C(Cc1c([O-])[n-]c(=O)[n-]c1=O)[N-]c1ccc(S(=O)(=O)N2CCCCC2)cc1 (nonaromatic ring conformer: 55.988690831878976 kcal/mol)

>  <smiles>  (65) 
O=C(Cc1c(O)[nH]c(=O)[nH]c1=O)Nc1ccc(S(=O)(=O)N2CCCCC2)cc1

>  <score_type>  (65) 
oracle

>  <origin>  (65) 
adg

>  <m_score__min__energy>  (65) 
-17.449999999999999

>  <m_primary>  (65) 
energy

$$$$
65:0
     RDKit          3D

 54 57  0  0  0  0  0  0  0  0999 V2000
   57.4464   31.1478   44.8971 H   0  0  0  0  0  0  0  0  0  0  0  0
   57.3900   32.2410   44.7890 C   0  0  0  0  0  0  0  0  0  0  0  0
   56.5374   32.6987   44.2660 H   0  0  0  0  0  0  0  0  0  0  0  0
   58.3610   33.0160   45.2950 C   0  0  0  0  0  0  0  0  0  0  0  0
   58.2730   34.4090   45.1480 C   0  0  0  0  0  0  0  0  0  0  0  0
   57.4135   34.8487   44.6209 H   0  0  0  0  0  0  0  0  0  0  0  0
   59.2650   35.2390   45.6640 C   0  0  0  0  0  0  0  0  0  0  0  0
   59.1831   36.3290   45.5412 H   0  0  0  0  0  0  0  0  0  0  0  0
   60.3610   34.6990   46.3350 C   0  0  0  0  0  0  0  0  0  0  0  0
   61.1355   35.3683   46.7378 H   0  0  0  0  0  0  0  0  0  0  0  0
   60.4890   33.3000   46.5040 C   0  0  0  0  0  0  0  0  0  0  0  0
   59.4750   32.4640   45.9760 C   0  0  0  0  0  0  0  0  0  0  0  0
   59.5840   31.1220   46.1320 N   0  0  0  0  0  0  0  0  0  0  0  0
   60.6220   30.5390   46.7810 C   0  0  0  0  0  0  0  0  0  0  0  0
   60.6780   29.1950   46.8860 C   0  0  0  0  0  0  0  0  0  0  0  0
   61.6330   28.7423   47.1910 H   0  0  0  0  0  0  0  0  0  0  0  0
   59.5360   28.2890   46.6170 C   0  0  0  0  0  0  0  0  0  0  0  0
   58.8650   28.3850   45.3900 C   0  0  0  0  0  0  0  0  0  0  0  0
   59.1834   29.1360   44.6520 H   0  0  0  0  0  0  0  0  0  0  0  0
   57.7960   27.5360   45.0960 C   0  0  0  0  0  0  0  0  0  0  0  0
   57.2731   27.6304   44.1328 H   0  0  0  0  0  0  0  0  0  0  0  0
   57.3830   26.5620   46.0210 C   0  0  0  0  0  0  0  0  0  0  0  0
   56.2540   25.6410   45.7260 C   0  0  0  0  0  0  0  0  0  0  0  0
   55.0790   26.0190   45.9980 O   0  0  0  0  0  0  0  0  0  0  0  0
   56.4740   24.3210   45.1670 N   0  0  0  0  0  0  0  0  0  0  0  0
   57.3610   23.9330   45.5630 H   0  0  0  0  0  0  0  0  0  0  0  0
   56.6460   24.3840   43.6910 C   0  0  0  0  0  0  0  0  0  0  0  0
   56.0806   25.2471   43.3097 H   0  0  0  0  0  0  0  0  0  0  0  0
   57.7238   24.4751   43.4911 H   0  0  0  0  0  0  0  0  0  0  0  0
   56.1500   23.1120   42.9650 C   0  0  0  0  0  0  0  0  0  0  0  0
   55.0837   23.2374   42.7255 H   0  0  0  0  0  0  0  0  0  0  0  0
   56.7607   22.9893   42.0583 H   0  0  0  0  0  0  0  0  0  0  0  0
   56.3100   21.8910   43.7760 N   0  0  0  0  0  0  0  0  0  0  0  0
   57.7170   21.4630   43.8580 C   0  0  0  0  0  0  0  0  0  0  0  0
   58.0120   21.3733   44.9139 H   0  0  0  0  0  0  0  0  0  0  0  0
   57.8335   20.4888   43.3607 H   0  0  0  0  0  0  0  0  0  0  0  0
   58.3563   22.2073   43.3607 H   0  0  0  0  0  0  0  0  0  0  0  0
   55.6620   21.9810   45.1090 C   0  0  0  0  0  0  0  0  0  0  0  0
   54.7113   21.4289   45.0717 H   0  0  0  0  0  0  0  0  0  0  0  0
   56.3648   21.5537   45.8394 H   0  0  0  0  0  0  0  0  0  0  0  0
   55.3690   23.4270   45.5550 C   0  0  0  0  0  0  0  0  0  0  0  0
   54.4399   23.7718   45.0776 H   0  0  0  0  0  0  0  0  0  0  0  0
   55.2631   23.4469   46.6497 H   0  0  0  0  0  0  0  0  0  0  0  0
   58.0840   26.4350   47.2320 C   0  0  0  0  0  0  0  0  0  0  0  0
   57.7896   25.6594   47.9543 H   0  0  0  0  0  0  0  0  0  0  0  0
   59.1530   27.2870   47.5260 C   0  0  0  0  0  0  0  0  0  0  0  0
   59.6979   27.1726   48.4747 H   0  0  0  0  0  0  0  0  0  0  0  0
   61.6390   31.3650   47.3030 C   0  0  0  0  0  0  0  0  0  0  0  0
   62.6200   30.8410   47.9050 O   0  0  0  0  0  0  0  0  0  0  0  0
   61.5630   32.7340   47.1620 N   0  0  0  0  0  0  0  0  0  0  0  0
   62.6340   33.5880   47.7170 C   0  0  0  0  0  0  0  0  0  0  0  0
   62.5952   33.5571   48.8159 H   0  0  0  0  0  0  0  0  0  0  0  0
   63.6119   33.2190   47.3741 H   0  0  0  0  0  0  0  0  0  0  0  0
   62.4920   34.6235   47.3741 H   0  0  0  0  0  0  0  0  0  0  0  0
  1  2  1  0
  2  3  1  0
  2  4  2  0
  4  5  1  0
  5  6  1  0
  5  7  2  0
  7  8  1  0
  7  9  1  0
  9 10  1  0
  9 11  2  0
 11 12  1  0
 12 13  2  0
 13 14  1  0
 14 15  2  0
 15 16  1  0
 15 17  1  0
 17 18  2  0
 18 19  1  0
 18 20  1  0
 20 21  1  0
 20 22  2  0
 22 23  1  0
 23 24  2  0
 23 25  1  0
 25 26  1  0
 25 27  1  0
 27 28  1  0
 27 29  1  0
 27 30  1  0
 30 31  1  0
 30 32  1  0
 30 33  1  0
 33 34  1  0
 34 35  1  0
 34 36  1  0
 34 37  1  0
 33 38  1  0
 38 39  1  0
 38 40  1  0
 38 41  1  0
 41 42  1  0
 41 43  1  0
 22 44  1  0
 44 45  1  0
 44 46  2  0
 46 47  1  0
 14 48  1  0
 48 49  2  0
 48 50  1  0
 50 51  1  0
 51 52  1  0
 51 53  1  0
 51 54  1  0
 12  4  1  0
 46 17  1  0
 50 11  1  0
 41 25  1  0
M  CHG  1  25   1
M  END
>  <UniqueID>  (66) 
62

>  <SMILES>  (66) 
C=c1cccc2c1n/c(=C\c1ccc(C(=O)[NH+]3CCN(C)CC3)cc1)c(=O)n2C

>  <Energy>  (66) 
93.73118648259846

>  <Genealogy>  (66) 
C=c1cccc2c1nc(=Cc1ccc(C(=O)[NH+]3CCN(C)CC3)cc1)c(=O)n2C (protonated)
C=c1cccc2c1n/c(=C\c1ccc(C(=O)[NH+]3CCN(C)CC3)cc1)c(=O)n2C (cis-trans isomerization)
C=c1cccc2c1n/c(=C\c1ccc(C(=O)[NH+]3CCN(C)CC3)cc1)c(=O)n2C (3D coordinates assigned)
C=c1cccc2c1n/c(=C\c1ccc(C(=O)[NH+]3CCN(C)CC3)cc1)c(=O)n2C (nonaromatic ring conformer: 93.73118648259846 kcal/mol)

>  <smiles>  (66) 
C=c1cccc2c1nc(=Cc1ccc(C(=O)N3CCN(C)CC3)cc1)c(=O)n2C

>  <score_type>  (66) 
oracle

>  <origin>  (66) 
adg

>  <m_score__min__energy>  (66) 
-7.5499999999999998

>  <m_primary>  (66) 
energy

$$$$
66:0
     RDKit          3D

 62 66  0  0  0  0  0  0  0  0999 V2000
   56.7650   34.5690   45.6030 O   0  0  0  0  0  0  0  0  0  0  0  0
   57.5170   33.5500   45.6180 C   0  0  0  0  0  0  0  0  0  0  0  0
   57.4160   32.5840   44.5050 C   0  0  0  0  0  0  0  0  0  0  0  0
   58.0270   32.7440   43.2660 C   0  0  0  0  0  0  0  0  0  0  0  0
   57.8660   31.6430   42.4170 C   0  0  0  0  0  0  0  0  0  0  0  0
   57.1300   30.6100   42.9750 C   0  0  0  0  0  0  0  0  0  0  0  0
   56.6570   31.0800   44.5160 S   0  0  0  0  0  0  0  0  0  0  0  0
   58.5730   33.4780   46.5910 N   0  0  0  0  0  0  0  0  0  0  0  0
   59.4850   34.6220   46.7020 C   0  0  0  0  0  0  0  0  0  0  0  0
   60.7890   34.2160   47.4050 C   0  0  0  0  0  0  0  0  0  0  0  0
   61.2900   32.9610   46.8260 N   0  0  0  0  0  0  0  0  0  0  0  0
   62.8590   32.5610   47.4840 S   0  0  0  0  0  0  0  0  0  0  0  0
   63.8050   33.7180   47.3050 O   0  0  0  0  0  0  0  0  0  0  0  0
   63.4150   31.3810   46.7370 O   0  0  0  0  0  0  0  0  0  0  0  0
   62.7700   32.1710   49.1990 C   0  0  0  0  0  0  0  0  0  0  0  0
   62.0760   31.1060   49.7510 C   0  0  0  0  0  0  0  0  0  0  0  0
   62.2360   31.0180   51.1440 C   0  0  0  0  0  0  0  0  0  0  0  0
   61.6040   29.9860   51.9990 C   0  0  0  0  0  0  0  0  0  0  0  0
   62.1490   29.7230   53.1090 O   0  0  0  0  0  0  0  0  0  0  0  0
   60.3160   29.4010   51.6550 N   0  0  0  0  0  0  0  0  0  0  0  0
   60.5430   28.0560   51.0680 C   0  0  0  0  0  0  0  0  0  0  0  0
   60.8050   28.1270   49.5580 C   0  0  0  0  0  0  0  0  0  0  0  0
   59.6920   28.8010   48.8730 N   0  0  0  0  0  0  0  0  0  0  0  0
   59.4800   28.5960   47.4560 C   0  0  0  0  0  0  0  0  0  0  0  0
   58.1890   28.3170   46.9620 C   0  0  0  0  0  0  0  0  0  0  0  0
   57.9680   28.1840   45.5900 C   0  0  0  0  0  0  0  0  0  0  0  0
   59.0300   28.3170   44.6950 C   0  0  0  0  0  0  0  0  0  0  0  0
   60.3110   28.5940   45.1700 C   0  0  0  0  0  0  0  0  0  0  0  0
   60.5420   28.7210   46.5400 C   0  0  0  0  0  0  0  0  0  0  0  0
   58.7360   29.5750   49.6810 C   0  0  0  0  0  0  0  0  0  0  0  0
   59.4870   30.3120   50.8010 C   0  0  0  0  0  0  0  0  0  0  0  0
   63.0530   32.0190   51.6720 C   0  0  0  0  0  0  0  0  0  0  0  0
   63.5610   33.0110   50.4190 S   0  0  0  0  0  0  0  0  0  0  0  0
   60.3440   31.8140   46.9200 C   0  0  0  0  0  0  0  0  0  0  0  0
   58.9170   32.2380   47.2970 C   0  0  0  0  0  0  0  0  0  0  0  0
   58.5834   33.6490   42.9806 H   0  0  0  0  0  0  0  0  0  0  0  0
   58.2850   31.6015   41.4008 H   0  0  0  0  0  0  0  0  0  0  0  0
   56.8963   29.6495   42.4925 H   0  0  0  0  0  0  0  0  0  0  0  0
   59.7200   34.9946   45.6941 H   0  0  0  0  0  0  0  0  0  0  0  0
   58.9944   35.4067   47.2965 H   0  0  0  0  0  0  0  0  0  0  0  0
   61.5404   35.0078   47.2689 H   0  0  0  0  0  0  0  0  0  0  0  0
   60.5965   34.0724   48.4785 H   0  0  0  0  0  0  0  0  0  0  0  0
   61.4658   30.4053   49.1621 H   0  0  0  0  0  0  0  0  0  0  0  0
   59.7760   29.2390   52.5370 H   0  0  0  0  0  0  0  0  0  0  0  0
   61.4136   27.5963   51.5587 H   0  0  0  0  0  0  0  0  0  0  0  0
   59.6347   27.4566   51.2283 H   0  0  0  0  0  0  0  0  0  0  0  0
   61.7338   28.6881   49.3778 H   0  0  0  0  0  0  0  0  0  0  0  0
   60.8974   27.1039   49.1646 H   0  0  0  0  0  0  0  0  0  0  0  0
   57.3493   28.2032   47.6634 H   0  0  0  0  0  0  0  0  0  0  0  0
   56.9557   27.9742   45.2143 H   0  0  0  0  0  0  0  0  0  0  0  0
   58.8565   28.2033   43.6147 H   0  0  0  0  0  0  0  0  0  0  0  0
   61.1437   28.7130   44.4612 H   0  0  0  0  0  0  0  0  0  0  0  0
   61.5598   28.9200   46.9067 H   0  0  0  0  0  0  0  0  0  0  0  0
   58.2236   30.3075   49.0401 H   0  0  0  0  0  0  0  0  0  0  0  0
   57.9957   28.8929   50.1245 H   0  0  0  0  0  0  0  0  0  0  0  0
   60.1498   31.0611   50.3433 H   0  0  0  0  0  0  0  0  0  0  0  0
   58.7306   30.7729   51.4533 H   0  0  0  0  0  0  0  0  0  0  0  0
   63.3192   32.1374   52.7327 H   0  0  0  0  0  0  0  0  0  0  0  0
   60.3120   31.3061   45.9448 H   0  0  0  0  0  0  0  0  0  0  0  0
   60.7105   31.1517   47.7181 H   0  0  0  0  0  0  0  0  0  0  0  0
   58.2109   31.4448   47.0104 H   0  0  0  0  0  0  0  0  0  0  0  0
   58.8588   32.4056   48.3826 H   0  0  0  0  0  0  0  0  0  0  0  0
  1  2  2  0
  2  3  1  0
  3  4  2  0
  4  5  1  0
  5  6  2  0
  6  7  1  0
  2  8  1  0
  8  9  1  0
  9 10  1  0
 10 11  1  0
 11 12  1  0
 12 13  2  0
 12 14  2  0
 12 15  1  0
 15 16  2  0
 16 17  1  0
 17 18  1  0
 18 19  2  0
 18 20  1  0
 20 21  1  0
 21 22  1  0
 22 23  1  0
 23 24  1  0
 24 25  2  0
 25 26  1  0
 26 27  2  0
 27 28  1  0
 28 29  2  0
 23 30  1  0
 30 31  1  0
 17 32  2  0
 32 33  1  0
 11 34  1  0
 34 35  1  0
  7  3  1  0
 35  8  1  0
 33 15  1  0
 31 20  1  0
 29 24  1  0
  4 36  1  0
  5 37  1  0
  6 38  1  0
  9 39  1  0
  9 40  1  0
 10 41  1  0
 10 42  1  0
 16 43  1  0
 20 44  1  0
 21 45  1  0
 21 46  1  0
 22 47  1  0
 22 48  1  0
 25 49  1  0
 26 50  1  0
 27 51  1  0
 28 52  1  0
 29 53  1  0
 30 54  1  0
 30 55  1  0
 31 56  1  0
 31 57  1  0
 32 58  1  0
 34 59  1  0
 34 60  1  0
 35 61  1  0
 35 62  1  0
M  CHG  1  20   1
M  END
>  <UniqueID>  (67) 
63

>  <SMILES>  (67) 
O=C(c1cccs1)N1CCN(S(=O)(=O)c2cc(C(=O)[NH+]3CCN(c4ccccc4)CC3)cs2)CC1

>  <Energy>  (67) 
150.95406355463805

>  <Genealogy>  (67) 
O=C(c1cccs1)N1CCN(S(=O)(=O)c2cc(C(=O)[NH+]3CCN(c4ccccc4)CC3)cs2)CC1 (protonated)
O=C(c1cccs1)N1CCN(S(=O)(=O)c2cc(C(=O)[NH+]3CCN(c4ccccc4)CC3)cs2)CC1 (3D coordinates assigned)
O=C(c1cccs1)N1CCN(S(=O)(=O)c2cc(C(=O)[NH+]3CCN(c4ccccc4)CC3)cs2)CC1 (nonaromatic ring conformer: 150.95406355463805 kcal/mol)

>  <smiles>  (67) 
O=C(c1csc(S(=O)(=O)N2CCN(C(=O)c3cccs3)CC2)c1)N1CCN(c2ccccc2)CC1

>  <score_type>  (67) 
oracle

>  <origin>  (67) 
adg

>  <m_score__min__energy>  (67) 
-8.5700000000000003

>  <m_primary>  (67) 
energy

$$$$
67:0
     RDKit          3D

 43 45  0  0  0  0  0  0  0  0999 V2000
   64.2350   31.8430   49.7500 C   0  0  0  0  0  0  0  0  0  0  0  0
   63.0190   32.4710   49.2300 N   0  0  0  0  0  0  0  0  0  0  0  0
   61.9200   32.4510   49.9860 N   0  0  0  0  0  0  0  0  0  0  0  0
   60.7470   33.0080   49.5900 C   0  0  0  0  0  0  0  0  0  0  0  0
   59.5990   32.9150   50.5070 C   0  0  0  0  0  0  0  0  0  0  0  0
   59.4600   33.8230   51.5680 C   0  0  0  0  0  0  0  0  0  0  0  0
   58.3660   33.7260   52.4340 C   0  0  0  0  0  0  0  0  0  0  0  0
   57.4170   32.7190   52.2530 C   0  0  0  0  0  0  0  0  0  0  0  0
   57.5670   31.7940   51.2160 C   0  0  0  0  0  0  0  0  0  0  0  0
   58.6610   31.8850   50.3510 C   0  0  0  0  0  0  0  0  0  0  0  0
   60.6640   33.6310   48.3250 C   0  0  0  0  0  0  0  0  0  0  0  0
   59.3430   34.1780   47.8000 C   0  0  0  0  0  0  0  0  0  0  0  0
   58.6870   33.1910   46.8680 C   0  0  0  0  0  0  0  0  0  0  0  0
   59.0910   31.8430   46.8690 C   0  0  0  0  0  0  0  0  0  0  0  0
   58.4600   30.9200   46.0330 C   0  0  0  0  0  0  0  0  0  0  0  0
   57.4150   31.3270   45.1910 C   0  0  0  0  0  0  0  0  0  0  0  0
   56.6020   30.1530   44.1640 S   0  0  0  0  0  0  0  0  0  0  0  0
   57.6380   28.7920   43.9040 N   0  0  0  0  0  0  0  0  0  0  0  0
   56.2690   30.7890   42.8430 O   0  0  0  0  0  0  0  0  0  0  0  0
   55.3240   29.6990   44.8120 O   0  0  0  0  0  0  0  0  0  0  0  0
   57.0120   32.6690   45.1890 C   0  0  0  0  0  0  0  0  0  0  0  0
   57.6510   33.5970   46.0110 C   0  0  0  0  0  0  0  0  0  0  0  0
   61.8240   33.6490   47.5150 C   0  0  0  0  0  0  0  0  0  0  0  0
   61.7900   34.2070   46.3400 N   0  0  0  0  0  0  0  0  0  0  0  0
   63.0060   33.0550   47.9940 C   0  0  0  0  0  0  0  0  0  0  0  0
   64.0480   33.0470   47.2830 O   0  0  0  0  0  0  0  0  0  0  0  0
   64.2123   31.8547   50.8497 H   0  0  0  0  0  0  0  0  0  0  0  0
   64.2911   30.8032   49.3955 H   0  0  0  0  0  0  0  0  0  0  0  0
   65.1153   32.3992   49.3955 H   0  0  0  0  0  0  0  0  0  0  0  0
   60.2120   34.6116   51.7186 H   0  0  0  0  0  0  0  0  0  0  0  0
   58.2535   34.4447   53.2591 H   0  0  0  0  0  0  0  0  0  0  0  0
   56.5502   32.6532   52.9270 H   0  0  0  0  0  0  0  0  0  0  0  0
   56.8239   30.9943   51.0806 H   0  0  0  0  0  0  0  0  0  0  0  0
   58.7863   31.1464   49.5456 H   0  0  0  0  0  0  0  0  0  0  0  0
   58.6711   34.3740   48.6486 H   0  0  0  0  0  0  0  0  0  0  0  0
   59.5416   35.1074   47.2461 H   0  0  0  0  0  0  0  0  0  0  0  0
   59.9065   31.5155   47.5306 H   0  0  0  0  0  0  0  0  0  0  0  0
   58.7839   29.8688   46.0348 H   0  0  0  0  0  0  0  0  0  0  0  0
   58.1690   28.9660   43.0210 H   0  0  0  0  0  0  0  0  0  0  0  0
   57.0150   27.9740   43.7190 H   0  0  0  0  0  0  0  0  0  0  0  0
   56.1878   32.9921   44.5361 H   0  0  0  0  0  0  0  0  0  0  0  0
   57.3420   34.6524   45.9880 H   0  0  0  0  0  0  0  0  0  0  0  0
   62.5940   34.2010   45.6720 H   0  0  0  0  0  0  0  0  0  0  0  0
  1  2  1  0
  2  3  1  0
  3  4  1  0
  4  5  1  0
  5  6  2  0
  6  7  1  0
  7  8  2  0
  8  9  1  0
  9 10  2  0
  4 11  2  0
 11 12  1  0
 12 13  1  0
 13 14  2  0
 14 15  1  0
 15 16  2  0
 16 17  1  0
 17 18  1  0
 17 19  2  0
 17 20  2  0
 16 21  1  0
 21 22  2  0
 11 23  1  0
 23 24  2  3
 23 25  1  0
 25 26  2  0
 25  2  1  0
 10  5  1  0
 22 13  1  0
  1 27  1  0
  1 28  1  0
  1 29  1  0
  6 30  1  0
  7 31  1  0
  8 32  1  0
  9 33  1  0
 10 34  1  0
 12 35  1  0
 12 36  1  0
 14 37  1  0
 15 38  1  0
 18 39  1  0
 18 40  1  0
 21 41  1  0
 22 42  1  0
 24 43  1  0
M  CHG  1   3  -1
M  END
>  <UniqueID>  (68) 
64

>  <SMILES>  (68) 
Cn1[n-]c(-c2ccccc2)c(Cc2ccc(S(N)(=O)=O)cc2)c(=N)c1=O

>  <Energy>  (68) 
54.41891358283042

>  <Genealogy>  (68) 
Cn1[n-]c(-c2ccccc2)c(Cc2ccc(S(N)(=O)=O)cc2)c(=N)c1=O (protonated)
Cn1[n-]c(-c2ccccc2)c(Cc2ccc(S(N)(=O)=O)cc2)c(=N)c1=O (3D coordinates assigned)
Cn1[n-]c(-c2ccccc2)c(Cc2ccc(S(N)(=O)=O)cc2)c(=N)c1=O (optimized conformer: 54.41891358283042 kcal/mol)

>  <smiles>  (68) 
Cn1[nH]c(-c2ccccc2)c(Cc2ccc(S(N)(=O)=O)cc2)c(=N)c1=O

>  <score_type>  (68) 
oracle

>  <origin>  (68) 
adg

>  <m_score__min__energy>  (68) 
-9.3100000000000005

>  <m_primary>  (68) 
energy

$$$$
68:0
     RDKit          3D

 62 64  0  0  0  0  0  0  0  0999 V2000
   61.2260   29.9227   45.6104 H   0  0  0  0  0  0  0  0  0  0  0  0
   60.4420   29.2390   45.9680 C   0  0  0  0  0  0  0  0  0  0  0  0
   60.2360   29.1050   47.4250 C   0  0  0  0  0  0  0  0  0  0  0  0
   60.6260   28.0450   47.9840 O   0  0  0  0  0  0  0  0  0  0  0  0
   59.5870   30.1520   48.2490 C   0  0  0  0  0  0  0  0  0  0  0  0
   59.0520   31.2980   47.6410 C   0  0  0  0  0  0  0  0  0  0  0  0
   59.1020   31.4115   46.5480 H   0  0  0  0  0  0  0  0  0  0  0  0
   58.4720   32.2690   48.3960 N   0  0  0  0  0  0  0  0  0  0  0  0
   58.4000   32.1740   49.7500 C   0  0  0  0  0  0  0  0  0  0  0  0
   57.9198   32.9740   50.3326 H   0  0  0  0  0  0  0  0  0  0  0  0
   58.9350   31.0620   50.4010 C   0  0  0  0  0  0  0  0  0  0  0  0
   58.8828   30.9820   51.4968 H   0  0  0  0  0  0  0  0  0  0  0  0
   59.5370   30.0520   49.6490 C   0  0  0  0  0  0  0  0  0  0  0  0
   59.9727   29.1769   50.1533 H   0  0  0  0  0  0  0  0  0  0  0  0
   59.7200   28.5680   45.0630 C   0  0  0  0  0  0  0  0  0  0  0  0
   59.7630   28.8770   44.0082 H   0  0  0  0  0  0  0  0  0  0  0  0
   58.8680   27.4250   45.4420 C   0  0  0  0  0  0  0  0  0  0  0  0
   59.4850   26.1830   45.6550 C   0  0  0  0  0  0  0  0  0  0  0  0
   60.5697   26.0793   45.5043 H   0  0  0  0  0  0  0  0  0  0  0  0
   58.7320   25.0770   46.0570 C   0  0  0  0  0  0  0  0  0  0  0  0
   59.2225   24.1041   46.2081 H   0  0  0  0  0  0  0  0  0  0  0  0
   57.3590   25.2050   46.2670 C   0  0  0  0  0  0  0  0  0  0  0  0
   56.7667   24.3309   46.5755 H   0  0  0  0  0  0  0  0  0  0  0  0
   56.7350   26.4420   46.0860 C   0  0  0  0  0  0  0  0  0  0  0  0
   55.6533   26.5385   46.2607 H   0  0  0  0  0  0  0  0  0  0  0  0
   57.4780   27.5620   45.6830 C   0  0  0  0  0  0  0  0  0  0  0  0
   56.7900   28.8630   45.5760 C   0  0  0  0  0  0  0  0  0  0  0  0
   57.3490   29.8970   46.0280 O   0  0  0  0  0  0  0  0  0  0  0  0
   55.5200   28.9910   44.9260 N   0  0  0  0  0  0  0  0  0  0  0  0
   55.2730   29.7290   43.6920 C   0  0  0  0  0  0  0  0  0  0  0  0
   54.9534   30.7518   43.9403 H   0  0  0  0  0  0  0  0  0  0  0  0
   54.4871   29.2126   43.1213 H   0  0  0  0  0  0  0  0  0  0  0  0
   56.5440   29.7920   42.8370 C   0  0  0  0  0  0  0  0  0  0  0  0
   56.2766   29.5692   41.7935 H   0  0  0  0  0  0  0  0  0  0  0  0
   57.2526   29.0556   43.2439 H   0  0  0  0  0  0  0  0  0  0  0  0
   57.2300   31.1690   42.8850 C   0  0  0  0  0  0  0  0  0  0  0  0
   56.7808   31.8051   42.1081 H   0  0  0  0  0  0  0  0  0  0  0  0
   58.3037   30.9922   42.7241 H   0  0  0  0  0  0  0  0  0  0  0  0
   57.1000   31.8930   44.2350 C   0  0  0  0  0  0  0  0  0  0  0  0
   57.2860   31.1688   45.0418 H   0  0  0  0  0  0  0  0  0  0  0  0
   56.0846   32.3123   44.2902 H   0  0  0  0  0  0  0  0  0  0  0  0
   58.0700   33.0330   44.3790 C   0  0  0  0  0  0  0  0  0  0  0  0
   58.6920   33.4520   43.3640 O   0  0  0  0  0  0  0  0  0  0  0  0
   58.3250   33.6050   45.6700 N   0  0  0  0  0  0  0  0  0  0  0  0
   57.8390   33.2110   46.5090 H   0  0  0  0  0  0  0  0  0  0  0  0
   59.3230   34.6520   45.8810 C   0  0  0  0  0  0  0  0  0  0  0  0
   60.2443   34.3844   45.3428 H   0  0  0  0  0  0  0  0  0  0  0  0
   58.9183   35.6027   45.5038 H   0  0  0  0  0  0  0  0  0  0  0  0
   59.6430   34.8150   47.3730 C   0  0  0  0  0  0  0  0  0  0  0  0
   59.7254   35.8869   47.6058 H   0  0  0  0  0  0  0  0  0  0  0  0
   58.8322   34.3494   47.9525 H   0  0  0  0  0  0  0  0  0  0  0  0
   60.9380   34.1330   47.7390 C   0  0  0  0  0  0  0  0  0  0  0  0
   61.3690   34.1080   49.0760 C   0  0  0  0  0  0  0  0  0  0  0  0
   60.7509   34.5708   49.8595 H   0  0  0  0  0  0  0  0  0  0  0  0
   62.5810   33.4970   49.4150 C   0  0  0  0  0  0  0  0  0  0  0  0
   62.9134   33.4801   50.4634 H   0  0  0  0  0  0  0  0  0  0  0  0
   63.3700   32.9080   48.4230 C   0  0  0  0  0  0  0  0  0  0  0  0
   64.3244   32.4309   48.6906 H   0  0  0  0  0  0  0  0  0  0  0  0
   62.9470   32.9250   47.0920 C   0  0  0  0  0  0  0  0  0  0  0  0
   63.5667   32.4570   46.3129 H   0  0  0  0  0  0  0  0  0  0  0  0
   61.7370   33.5360   46.7480 C   0  0  0  0  0  0  0  0  0  0  0  0
   61.4091   33.5496   45.6981 H   0  0  0  0  0  0  0  0  0  0  0  0
  1  2  1  0
  2  3  1  0
  3  4  2  0
  3  5  1  0
  5  6  2  0
  6  7  1  0
  6  8  1  0
  8  9  2  0
  9 10  1  0
  9 11  1  0
 11 12  1  0
 11 13  2  0
 13 14  1  0
  2 15  2  0
 15 16  1  0
 15 17  1  0
 17 18  2  0
 18 19  1  0
 18 20  1  0
 20 21  1  0
 20 22  2  0
 22 23  1  0
 22 24  1  0
 24 25  1  0
 24 26  2  0
 26 27  1  0
 27 28  2  0
 27 29  1  0
 29 30  1  0
 30 31  1  0
 30 32  1  0
 30 33  1  0
 33 34  1  0
 33 35  1  0
 33 36  1  0
 36 37  1  0
 36 38  1  0
 36 39  1  0
 39 40  1  0
 39 41  1  0
 39 42  1  0
 42 43  2  0
 42 44  1  0
 44 45  1  0
 44 46  1  0
 46 47  1  0
 46 48  1  0
 46 49  1  0
 49 50  1  0
 49 51  1  0
 49 52  1  0
 52 53  2  0
 53 54  1  0
 53 55  1  0
 55 56  1  0
 55 57  2  0
 57 58  1  0
 57 59  1  0
 59 60  1  0
 59 61  2  0
 61 62  1  0
 13  5  1  0
 26 17  1  0
 61 52  1  0
M  CHG  1  29  -1
M  END
>  <UniqueID>  (69) 
65

>  <SMILES>  (69) 
O=C(CCCC[N-]C(=O)c1ccccc1/C=C/C(=O)c1cccnc1)NCCc1ccccc1

>  <Energy>  (69) 
68.84529885039086

>  <Genealogy>  (69) 
O=C(CCCC[N-]C(=O)c1ccccc1C=CC(=O)c1cccnc1)NCCc1ccccc1 (protonated)
O=C(CCCC[N-]C(=O)c1ccccc1/C=C/C(=O)c1cccnc1)NCCc1ccccc1 (cis-trans isomerization)
O=C(CCCC[N-]C(=O)c1ccccc1/C=C/C(=O)c1cccnc1)NCCc1ccccc1 (3D coordinates assigned)
O=C(CCCC[N-]C(=O)c1ccccc1/C=C/C(=O)c1cccnc1)NCCc1ccccc1 (optimized conformer: 68.84529885039086 kcal/mol)

>  <smiles>  (69) 
O=C(CCCCNC(=O)c1ccccc1C=CC(=O)c1cccnc1)NCCc1ccccc1

>  <score_type>  (69) 
oracle

>  <origin>  (69) 
adg

>  <m_score__min__energy>  (69) 
-11.76

>  <m_primary>  (69) 
energy

$$$$
69:0
     RDKit          3D

 63 66  0  0  0  0  0  0  0  0999 V2000
   54.2100   25.2040   45.6220 C   0  0  0  0  0  0  0  0  0  0  0  0
   55.1160   26.2540   45.9500 O   0  0  0  0  0  0  0  0  0  0  0  0
   56.5150   26.1220   45.9710 C   0  0  0  0  0  0  0  0  0  0  0  0
   57.1400   24.9020   46.2960 C   0  0  0  0  0  0  0  0  0  0  0  0
   58.5340   24.8100   46.3280 C   0  0  0  0  0  0  0  0  0  0  0  0
   59.3190   25.9310   46.0420 C   0  0  0  0  0  0  0  0  0  0  0  0
   58.7120   27.1430   45.7100 C   0  0  0  0  0  0  0  0  0  0  0  0
   57.3120   27.2470   45.6620 C   0  0  0  0  0  0  0  0  0  0  0  0
   56.6690   28.5680   45.3130 C   0  0  0  0  0  0  0  0  0  0  0  0
   57.5220   29.3430   44.3870 N   0  0  0  0  0  0  0  0  0  0  0  0
   58.6950   29.9270   45.0880 C   0  0  0  0  0  0  0  0  0  0  0  0
   58.4810   31.4060   45.4380 C   0  0  0  0  0  0  0  0  0  0  0  0
   58.2890   32.2270   44.2190 N   0  0  0  0  0  0  0  0  0  0  0  0
   57.6050   33.4930   44.5520 C   0  0  0  0  0  0  0  0  0  0  0  0
   57.7730   33.8120   46.0040 C   0  0  0  0  0  0  0  0  0  0  0  0
   56.8510   33.5310   46.8170 O   0  0  0  0  0  0  0  0  0  0  0  0
   58.9530   34.4990   46.4420 N   0  0  0  0  0  0  0  0  0  0  0  0
   60.0420   33.9400   47.1920 C   0  0  0  0  0  0  0  0  0  0  0  0
   59.8140   33.5520   48.5160 C   0  0  0  0  0  0  0  0  0  0  0  0
   60.8530   33.0380   49.2960 C   0  0  0  0  0  0  0  0  0  0  0  0
   62.1520   32.9240   48.7690 C   0  0  0  0  0  0  0  0  0  0  0  0
   63.2710   32.3970   49.5920 C   0  0  0  0  0  0  0  0  0  0  0  0
   63.0140   31.7090   50.6190 O   0  0  0  0  0  0  0  0  0  0  0  0
   64.6380   32.6090   49.2000 N   0  0  0  0  0  0  0  0  0  0  0  0
   65.7590   32.4670   50.0920 C   0  0  0  0  0  0  0  0  0  0  0  0
   65.9140   31.2760   50.8180 C   0  0  0  0  0  0  0  0  0  0  0  0
   67.0010   31.1080   51.6830 C   0  0  0  0  0  0  0  0  0  0  0  0
   67.9490   32.1250   51.8200 C   0  0  0  0  0  0  0  0  0  0  0  0
   69.0000   31.9650   52.6620 F   0  0  0  0  0  0  0  0  0  0  0  0
   67.8160   33.3070   51.0840 C   0  0  0  0  0  0  0  0  0  0  0  0
   66.7330   33.4760   50.2170 C   0  0  0  0  0  0  0  0  0  0  0  0
   62.3790   33.3200   47.4390 C   0  0  0  0  0  0  0  0  0  0  0  0
   61.3380   33.8320   46.6600 C   0  0  0  0  0  0  0  0  0  0  0  0
   57.6080   31.4970   43.1200 C   0  0  0  0  0  0  0  0  0  0  0  0
   56.7280   30.3510   43.6400 C   0  0  0  0  0  0  0  0  0  0  0  0
   53.8210   24.7531   46.5469 H   0  0  0  0  0  0  0  0  0  0  0  0
   53.3749   25.6109   45.0330 H   0  0  0  0  0  0  0  0  0  0  0  0
   54.7349   24.4375   45.0330 H   0  0  0  0  0  0  0  0  0  0  0  0
   56.5277   24.0175   46.5257 H   0  0  0  0  0  0  0  0  0  0  0  0
   59.0150   23.8531   46.5789 H   0  0  0  0  0  0  0  0  0  0  0  0
   60.4159   25.8576   46.0787 H   0  0  0  0  0  0  0  0  0  0  0  0
   59.3336   28.0221   45.4846 H   0  0  0  0  0  0  0  0  0  0  0  0
   55.6967   28.3797   44.8343 H   0  0  0  0  0  0  0  0  0  0  0  0
   56.5367   29.1490   46.2376 H   0  0  0  0  0  0  0  0  0  0  0  0
   58.8693   29.3643   46.0170 H   0  0  0  0  0  0  0  0  0  0  0  0
   59.5608   29.8606   44.4127 H   0  0  0  0  0  0  0  0  0  0  0  0
   57.5893   31.4977   46.0756 H   0  0  0  0  0  0  0  0  0  0  0  0
   59.3756   31.7706   45.9641 H   0  0  0  0  0  0  0  0  0  0  0  0
   58.0360   34.3067   43.9502 H   0  0  0  0  0  0  0  0  0  0  0  0
   56.5324   33.3868   44.3324 H   0  0  0  0  0  0  0  0  0  0  0  0
   58.8071   33.6524   48.9475 H   0  0  0  0  0  0  0  0  0  0  0  0
   60.6536   32.7201   50.3300 H   0  0  0  0  0  0  0  0  0  0  0  0
   64.8420   32.7510   48.1850 H   0  0  0  0  0  0  0  0  0  0  0  0
   65.1754   30.4685   50.7062 H   0  0  0  0  0  0  0  0  0  0  0  0
   67.1091   30.1749   52.2553 H   0  0  0  0  0  0  0  0  0  0  0  0
   68.5656   34.1054   51.1878 H   0  0  0  0  0  0  0  0  0  0  0  0
   66.6411   34.4015   49.6296 H   0  0  0  0  0  0  0  0  0  0  0  0
   63.3864   33.2258   47.0074 H   0  0  0  0  0  0  0  0  0  0  0  0
   61.5340   34.1518   45.6259 H   0  0  0  0  0  0  0  0  0  0  0  0
   56.9754   32.2046   42.5639 H   0  0  0  0  0  0  0  0  0  0  0  0
   58.3840   31.0596   42.4747 H   0  0  0  0  0  0  0  0  0  0  0  0
   55.9602   30.7668   44.3090 H   0  0  0  0  0  0  0  0  0  0  0  0
   56.2687   29.8519   42.7740 H   0  0  0  0  0  0  0  0  0  0  0  0
  1  2  1  0
  2  3  1  0
  3  4  2  0
  4  5  1  0
  5  6  2  0
  6  7  1  0
  7  8  2  0
  8  9  1  0
  9 10  1  0
 10 11  1  0
 11 12  1  0
 12 13  1  0
 13 14  1  0
 14 15  1  0
 15 16  2  0
 15 17  1  0
 17 18  1  0
 18 19  2  0
 19 20  1  0
 20 21  2  0
 21 22  1  0
 22 23  2  0
 22 24  1  0
 24 25  1  0
 25 26  2  0
 26 27  1  0
 27 28  2  0
 28 29  1  0
 28 30  1  0
 30 31  2  0
 21 32  1  0
 32 33  2  0
 13 34  1  0
 34 35  1  0
  8  3  1  0
 35 10  1  0
 33 18  1  0
 31 25  1  0
  1 36  1  0
  1 37  1  0
  1 38  1  0
  4 39  1  0
  5 40  1  0
  6 41  1  0
  7 42  1  0
  9 43  1  0
  9 44  1  0
 11 45  1  0
 11 46  1  0
 12 47  1  0
 12 48  1  0
 14 49  1  0
 14 50  1  0
 19 51  1  0
 20 52  1  0
 24 53  1  0
 26 54  1  0
 27 55  1  0
 30 56  1  0
 31 57  1  0
 32 58  1  0
 33 59  1  0
 34 60  1  0
 34 61  1  0
 35 62  1  0
 35 63  1  0
M  CHG  1  17  -1
M  END
>  <UniqueID>  (70) 
66

>  <SMILES>  (70) 
COc1ccccc1CN1CCN(CC(=O)[N-]c2ccc(C(=O)Nc3ccc(F)cc3)cc2)CC1

>  <Energy>  (70) 
87.48022131553971

>  <Genealogy>  (70) 
COc1ccccc1CN1CCN(CC(=O)[N-]c2ccc(C(=O)Nc3ccc(F)cc3)cc2)CC1 (protonated)
COc1ccccc1CN1CCN(CC(=O)[N-]c2ccc(C(=O)Nc3ccc(F)cc3)cc2)CC1 (3D coordinates assigned)
COc1ccccc1CN1CCN(CC(=O)[N-]c2ccc(C(=O)Nc3ccc(F)cc3)cc2)CC1 (nonaromatic ring conformer: 87.48022131553971 kcal/mol)

>  <smiles>  (70) 
COc1ccccc1CN1CCN(CC(=O)Nc2ccc(C(=O)Nc3ccc(F)cc3)cc2)CC1

>  <score_type>  (70) 
oracle

>  <origin>  (70) 
adg

>  <m_score__min__energy>  (70) 
-11.050000000000001

>  <m_primary>  (70) 
energy

$$$$
70:0
     RDKit          3D

 44 46  0  0  0  0  0  0  0  0999 V2000
   54.6700   27.0900   46.7460 H   0  0  0  0  0  0  0  0  0  0  0  0
   55.1280   26.5300   45.9940 N   0  0  0  0  0  0  0  0  0  0  0  0
   56.5460   26.3880   45.9470 C   0  0  0  0  0  0  0  0  0  0  0  0
   57.0580   25.2410   46.0460 O   0  0  0  0  0  0  0  0  0  0  0  0
   57.3990   27.5800   45.7880 C   0  0  0  0  0  0  0  0  0  0  0  0
   56.8350   28.7590   45.4050 N   0  0  0  0  0  0  0  0  0  0  0  0
   57.5570   29.9000   45.2320 C   0  0  0  0  0  0  0  0  0  0  0  0
   56.9210   30.9820   44.8750 N   0  0  0  0  0  0  0  0  0  0  0  0
   57.4380   32.3160   44.7400 C   0  0  0  0  0  0  0  0  0  0  0  0
   58.1270   32.6300   43.7290 O   0  0  0  0  0  0  0  0  0  0  0  0
   57.1340   33.2960   45.7620 N   0  0  2  0  0  0  0  0  0  0  0  0
   56.1030   33.4700   45.7160 H   0  0  0  0  0  0  0  0  0  0  0  0
   57.8000   34.5990   45.5410 C   0  0  0  0  0  0  0  0  0  0  0  0
   57.7171   34.8613   44.4760 H   0  0  0  0  0  0  0  0  0  0  0  0
   57.3011   35.3419   46.1808 H   0  0  0  0  0  0  0  0  0  0  0  0
   59.2570   34.5740   45.9200 C   0  0  0  0  0  0  0  0  0  0  0  0
   60.0330   35.4380   45.4290 O   0  0  0  0  0  0  0  0  0  0  0  0
   59.7450   33.6240   46.8830 N   0  0  0  0  0  0  0  0  0  0  0  0
   61.1000   33.7090   47.3470 C   0  0  0  0  0  0  0  0  0  0  0  0
   62.1450   33.5240   46.4300 C   0  0  0  0  0  0  0  0  0  0  0  0
   61.9160   33.3060   45.3764 H   0  0  0  0  0  0  0  0  0  0  0  0
   63.4740   33.6150   46.8470 C   0  0  0  0  0  0  0  0  0  0  0  0
   64.2887   33.4669   46.1229 H   0  0  0  0  0  0  0  0  0  0  0  0
   63.7700   33.8940   48.1830 C   0  0  0  0  0  0  0  0  0  0  0  0
   64.8180   33.9691   48.5087 H   0  0  0  0  0  0  0  0  0  0  0  0
   62.7380   34.0780   49.1070 C   0  0  0  0  0  0  0  0  0  0  0  0
   62.9777   34.3064   50.1560 H   0  0  0  0  0  0  0  0  0  0  0  0
   61.3950   33.9730   48.7040 C   0  0  0  0  0  0  0  0  0  0  0  0
   60.3020   34.1950   49.7130 C   0  0  0  0  0  0  0  0  0  0  0  0
   60.7174   34.1106   50.7281 H   0  0  0  0  0  0  0  0  0  0  0  0
   59.8734   35.1985   49.5745 H   0  0  0  0  0  0  0  0  0  0  0  0
   59.5158   33.4382   49.5745 H   0  0  0  0  0  0  0  0  0  0  0  0
   58.9260   32.4860   47.3070 C   0  0  0  0  0  0  0  0  0  0  0  0
   59.2069   31.6031   46.7140 H   0  0  0  0  0  0  0  0  0  0  0  0
   59.1056   32.3124   48.3783 H   0  0  0  0  0  0  0  0  0  0  0  0
   57.4270   32.7640   47.1090 C   0  0  0  0  0  0  0  0  0  0  0  0
   56.8706   31.8254   47.2485 H   0  0  0  0  0  0  0  0  0  0  0  0
   57.1225   33.5215   47.8462 H   0  0  0  0  0  0  0  0  0  0  0  0
   58.9450   29.8730   45.4850 C   0  0  0  0  0  0  0  0  0  0  0  0
   59.5467   30.7875   45.3772 H   0  0  0  0  0  0  0  0  0  0  0  0
   59.5470   28.6760   45.8730 C   0  0  0  0  0  0  0  0  0  0  0  0
   60.6305   28.6426   46.0596 H   0  0  0  0  0  0  0  0  0  0  0  0
   58.7800   27.5220   46.0250 C   0  0  0  0  0  0  0  0  0  0  0  0
   59.2529   26.5760   46.3276 H   0  0  0  0  0  0  0  0  0  0  0  0
  1  2  1  0
  2  3  1  0
  3  4  2  0
  3  5  1  0
  5  6  1  0
  6  7  1  0
  7  8  2  0
  8  9  1  0
  9 10  2  0
  9 11  1  0
 11 12  1  1
 11 13  1  0
 13 14  1  0
 13 15  1  0
 13 16  1  0
 16 17  2  0
 16 18  1  0
 18 19  1  0
 19 20  2  0
 20 21  1  0
 20 22  1  0
 22 23  1  0
 22 24  2  0
 24 25  1  0
 24 26  1  0
 26 27  1  0
 26 28  2  0
 28 29  1  0
 29 30  1  0
 29 31  1  0
 29 32  1  0
 18 33  1  0
 33 34  1  0
 33 35  1  0
 33 36  1  0
 36 37  1  0
 36 38  1  0
  7 39  1  0
 39 40  1  0
 39 41  2  0
 41 42  1  0
 41 43  1  0
 43 44  1  0
 43  5  2  0
 36 11  1  0
 28 19  1  0
M  CHG  3   2  -1   6  -1  11   1
M  END
>  <UniqueID>  (71) 
67

>  <SMILES>  (71) 
Cc1ccccc1N1CC[N@H+](C(=O)/N=c2\cccc(C([NH-])=O)[n-]2)CC1=O

>  <Energy>  (71) 
64.68669699853567

>  <Genealogy>  (71) 
Cc1ccccc1N1CC[NH+](C(=O)N=c2cccc(C([NH-])=O)[n-]2)CC1=O (protonated)
Cc1ccccc1N1CC[N@H+](C(=O)N=c2cccc(C([NH-])=O)[n-]2)CC1=O (chirality)
Cc1ccccc1N1CC[N@H+](C(=O)/N=c2\cccc(C([NH-])=O)[n-]2)CC1=O (cis-trans isomerization)
Cc1ccccc1N1CC[N@H+](C(=O)/N=c2\cccc(C([NH-])=O)[n-]2)CC1=O (3D coordinates assigned)
Cc1ccccc1N1CC[N@H+](C(=O)/N=c2\cccc(C([NH-])=O)[n-]2)CC1=O (nonaromatic ring conformer: 64.68669699853567 kcal/mol)

>  <smiles>  (71) 
Cc1ccccc1N1CCN(C(=O)N=c2cccc(C(N)=O)[nH]2)CC1=O

>  <score_type>  (71) 
oracle

>  <origin>  (71) 
adg

>  <m_score__min__energy>  (71) 
-11.960000000000001

>  <m_primary>  (71) 
energy

$$$$
71:0
     RDKit          3D

 58 61  0  0  0  0  0  0  0  0999 V2000
   65.0510   32.0880   50.0630 C   0  0  0  0  0  0  0  0  0  0  0  0
   64.8800   32.7170   48.7970 O   0  0  0  0  0  0  0  0  0  0  0  0
   63.6380   33.0740   48.2520 C   0  0  0  0  0  0  0  0  0  0  0  0
   63.4780   33.4050   46.8950 C   0  0  0  0  0  0  0  0  0  0  0  0
   62.2220   33.7690   46.3990 C   0  0  0  0  0  0  0  0  0  0  0  0
   61.1080   33.8210   47.2540 C   0  0  0  0  0  0  0  0  0  0  0  0
   59.8120   34.1870   46.7370 N   0  0  0  0  0  0  0  0  0  0  0  0
   58.6110   34.0980   47.5690 C   0  0  0  0  0  0  0  0  0  0  0  0
   57.6770   33.0610   46.9470 C   0  0  0  0  0  0  0  0  0  0  0  0
   57.3630   33.3510   45.5260 N   0  0  0  0  0  0  0  0  0  0  0  0
   57.3010   31.8890   44.5640 S   0  0  0  0  0  0  0  0  0  0  0  0
   57.7390   32.2040   43.1620 O   0  0  0  0  0  0  0  0  0  0  0  0
   55.8830   31.3950   44.4970 O   0  0  0  0  0  0  0  0  0  0  0  0
   58.3200   30.6080   45.2430 C   0  0  0  0  0  0  0  0  0  0  0  0
   59.5080   30.9420   45.8920 C   0  0  0  0  0  0  0  0  0  0  0  0
   60.3030   29.9670   46.3960 N   0  0  0  0  0  0  0  0  0  0  0  0
   59.9740   28.6570   46.2880 C   0  0  0  0  0  0  0  0  0  0  0  0
   60.7430   27.7910   46.7850 O   0  0  0  0  0  0  0  0  0  0  0  0
   58.8170   28.2850   45.6520 N   0  0  0  0  0  0  0  0  0  0  0  0
   58.4200   26.8620   45.6090 C   0  0  0  0  0  0  0  0  0  0  0  0
   57.4920   26.5720   46.7460 C   0  0  0  0  0  0  0  0  0  0  0  0
   57.7670   26.9900   47.9050 O   0  0  0  0  0  0  0  0  0  0  0  0
   56.2640   25.8830   46.4930 N   0  0  0  0  0  0  0  0  0  0  0  0
   56.1200   24.7240   45.6600 C   0  0  0  0  0  0  0  0  0  0  0  0
   57.2320   23.8940   45.4610 C   0  0  0  0  0  0  0  0  0  0  0  0
   57.1540   22.8080   44.5830 C   0  0  0  0  0  0  0  0  0  0  0  0
   55.9680   22.5490   43.8910 C   0  0  0  0  0  0  0  0  0  0  0  0
   55.8960   21.4810   43.0040 O   0  0  0  0  0  0  0  0  0  0  0  0
   54.8530   23.3710   44.0830 C   0  0  0  0  0  0  0  0  0  0  0  0
   54.9250   24.4540   44.9620 C   0  0  0  0  0  0  0  0  0  0  0  0
   57.9820   29.2490   45.1380 C   0  0  0  0  0  0  0  0  0  0  0  0
   56.9080   28.9160   44.5620 O   0  0  0  0  0  0  0  0  0  0  0  0
   58.1660   34.4150   44.8810 C   0  0  0  0  0  0  0  0  0  0  0  0
   59.6510   34.4020   45.2950 C   0  0  0  0  0  0  0  0  0  0  0  0
   61.2670   33.4700   48.6070 C   0  0  0  0  0  0  0  0  0  0  0  0
   62.5220   33.0990   49.0970 C   0  0  0  0  0  0  0  0  0  0  0  0
   64.8531   32.8158   50.8637 H   0  0  0  0  0  0  0  0  0  0  0  0
   64.3493   31.2455   50.1516 H   0  0  0  0  0  0  0  0  0  0  0  0
   66.0827   31.7168   50.1516 H   0  0  0  0  0  0  0  0  0  0  0  0
   64.3457   33.3775   46.2195 H   0  0  0  0  0  0  0  0  0  0  0  0
   62.1055   34.0160   45.3334 H   0  0  0  0  0  0  0  0  0  0  0  0
   58.8858   33.7883   48.5881 H   0  0  0  0  0  0  0  0  0  0  0  0
   58.1116   35.0766   47.6223 H   0  0  0  0  0  0  0  0  0  0  0  0
   58.1582   32.0736   47.0065 H   0  0  0  0  0  0  0  0  0  0  0  0
   56.7311   33.0875   47.5079 H   0  0  0  0  0  0  0  0  0  0  0  0
   59.8001   31.9975   45.9950 H   0  0  0  0  0  0  0  0  0  0  0  0
   57.9112   26.6513   44.6568 H   0  0  0  0  0  0  0  0  0  0  0  0
   59.3147   26.2276   45.6931 H   0  0  0  0  0  0  0  0  0  0  0  0
   58.1703   24.0977   45.9978 H   0  0  0  0  0  0  0  0  0  0  0  0
   58.0281   22.1564   44.4369 H   0  0  0  0  0  0  0  0  0  0  0  0
   53.9183   23.1644   43.5412 H   0  0  0  0  0  0  0  0  0  0  0  0
   54.0462   25.0987   45.1103 H   0  0  0  0  0  0  0  0  0  0  0  0
   58.1075   34.2825   43.7906 H   0  0  0  0  0  0  0  0  0  0  0  0
   57.7478   35.3785   45.2076 H   0  0  0  0  0  0  0  0  0  0  0  0
   60.1643   33.5929   44.7548 H   0  0  0  0  0  0  0  0  0  0  0  0
   60.0846   35.3814   45.0445 H   0  0  0  0  0  0  0  0  0  0  0  0
   60.3991   33.4877   49.2826 H   0  0  0  0  0  0  0  0  0  0  0  0
   62.6341   32.8241   50.1562 H   0  0  0  0  0  0  0  0  0  0  0  0
  1  2  1  0
  2  3  1  0
  3  4  2  0
  4  5  1  0
  5  6  2  0
  6  7  1  0
  7  8  1  0
  8  9  1  0
  9 10  1  0
 10 11  1  0
 11 12  2  0
 11 13  2  0
 11 14  1  0
 14 15  2  0
 15 16  1  0
 16 17  1  0
 17 18  2  0
 17 19  1  0
 19 20  1  0
 20 21  1  0
 21 22  2  0
 21 23  1  0
 23 24  1  0
 24 25  2  0
 25 26  1  0
 26 27  2  0
 27 28  1  0
 27 29  1  0
 29 30  2  0
 19 31  1  0
 31 32  2  0
 10 33  1  0
 33 34  1  0
  6 35  1  0
 35 36  2  0
 36  3  1  0
 34  7  1  0
 31 14  1  0
 30 24  1  0
  1 37  1  0
  1 38  1  0
  1 39  1  0
  4 40  1  0
  5 41  1  0
  8 42  1  0
  8 43  1  0
  9 44  1  0
  9 45  1  0
 15 46  1  0
 20 47  1  0
 20 48  1  0
 25 49  1  0
 26 50  1  0
 29 51  1  0
 30 52  1  0
 33 53  1  0
 33 54  1  0
 34 55  1  0
 34 56  1  0
 35 57  1  0
 36 58  1  0
M  CHG  3  16  -1  23  -1  28  -1
M  END
>  <UniqueID>  (72) 
68

>  <SMILES>  (72) 
COc1ccc(N2CCN(S(=O)(=O)c3c[n-]c(=O)n(CC(=O)[N-]c4ccc([O-])cc4)c3=O)CC2)cc1

>  <Energy>  (72) 
79.67581555289232

>  <Genealogy>  (72) 
COc1ccc(N2CCN(S(=O)(=O)c3c[n-]c(=O)n(CC(=O)[N-]c4ccc([O-])cc4)c3=O)CC2)cc1 (protonated)
COc1ccc(N2CCN(S(=O)(=O)c3c[n-]c(=O)n(CC(=O)[N-]c4ccc([O-])cc4)c3=O)CC2)cc1 (3D coordinates assigned)
COc1ccc(N2CCN(S(=O)(=O)c3c[n-]c(=O)n(CC(=O)[N-]c4ccc([O-])cc4)c3=O)CC2)cc1 (nonaromatic ring conformer: 79.67581555289232 kcal/mol)

>  <smiles>  (72) 
COc1ccc(N2CCN(S(=O)(=O)c3c[nH]c(=O)n(CC(=O)Nc4ccc(O)cc4)c3=O)CC2)cc1

>  <score_type>  (72) 
oracle

>  <origin>  (72) 
adg

>  <m_score__min__energy>  (72) 
-14.84

>  <m_primary>  (72) 
energy

$$$$
72:0
     RDKit          3D

 64 68  0  0  1  0  0  0  0  0999 V2000
   56.8160   27.6370   46.2890 O   0  0  0  0  0  0  0  0  0  0  0  0
   56.9970   27.0340   45.2220 C   0  0  0  0  0  0  0  0  0  0  0  0
   57.4090   27.8220   44.1000 N   0  0  0  0  0  0  0  0  0  0  0  0
   57.5490   29.2310   44.3860 C   0  0  0  0  0  0  0  0  0  0  0  0
   56.7990   30.1940   43.7610 C   0  0  0  0  0  0  0  0  0  0  0  0
   57.0230   31.5120   44.1600 C   0  0  0  0  0  0  0  0  0  0  0  0
   57.9370   31.8540   45.1220 C   0  0  0  0  0  0  0  0  0  0  0  0
   58.2040   33.1960   45.5890 C   0  0  0  0  0  0  0  0  0  0  0  0
   57.2360   34.0240   45.4650 O   0  0  0  0  0  0  0  0  0  0  0  0
   59.3860   33.6710   46.1540 N   0  0  0  0  0  0  0  0  0  0  0  0
   60.5950   32.8910   46.3690 C   0  0  0  0  0  0  0  0  0  0  0  0
   61.4960   33.7570   47.2520 C   0  0  0  0  0  0  0  0  0  0  0  0
   60.8340   34.2360   48.3730 O   0  0  0  0  0  0  0  0  0  0  0  0
   59.6930   34.9480   48.1130 C   0  0  0  0  0  0  0  0  0  0  0  0
   59.4680   35.0740   46.6020 C   0  0  0  0  0  0  0  0  0  0  0  0
   58.6850   30.8370   45.7350 C   0  0  0  0  0  0  0  0  0  0  0  0
   58.4950   29.5220   45.3700 C   0  0  0  0  0  0  0  0  0  0  0  0
   56.8150   25.6370   45.1000 N   0  0  0  0  0  0  0  0  0  0  0  0
   56.4340   24.7570   46.1350 C   0  0  0  0  0  0  0  0  0  0  0  0
   57.1650   24.4610   47.2480 C   0  0  0  0  0  0  0  0  0  0  0  0
   56.7280   23.5780   48.2400 C   0  0  0  0  0  0  0  0  0  0  0  0
   55.5090   22.9740   48.1000 C   0  0  0  0  0  0  0  0  0  0  0  0
   55.0640   22.0310   49.1210 C   0  0  0  0  0  0  0  0  0  0  0  0
   53.7520   21.6850   49.4400 C   0  0  0  0  0  0  0  0  0  0  0  0
   53.7870   20.7540   50.4780 C   0  0  0  0  0  0  0  0  0  0  0  0
   52.7530   20.2350   51.0150 N   0  0  0  0  0  0  0  0  0  0  0  0
   51.7030   21.0880   51.4850 C   0  0  0  0  0  0  0  0  0  0  0  0
   50.5450   20.6520   51.5060 O   0  0  0  0  0  0  0  0  0  0  0  0
   51.9980   22.4710   51.9370 C   0  0  0  0  0  0  0  0  0  0  0  0
   51.3640   23.5380   51.3100 C   0  0  0  0  0  0  0  0  0  0  0  0
   51.6420   24.8010   51.7340 C   0  0  0  0  0  0  0  0  0  0  0  0
   52.5370   25.0490   52.7730 C   0  0  0  0  0  0  0  0  0  0  0  0
   53.1730   23.9790   53.4030 C   0  0  0  0  0  0  0  0  0  0  0  0
   52.8910   22.6860   52.9720 C   0  0  0  0  0  0  0  0  0  0  0  0
   55.0970   20.5650   50.7540 N   0  0  0  0  0  0  0  0  0  0  0  0
   55.8520   21.3080   49.9640 N   0  0  0  0  0  0  0  0  0  0  0  0
   54.7480   23.2440   47.0030 C   0  0  0  0  0  0  0  0  0  0  0  0
   55.1960   24.1230   46.0270 C   0  0  0  0  0  0  0  0  0  0  0  0
   57.5940   27.4290   43.1560 H   0  0  0  0  0  0  0  0  0  0  0  0
   56.0602   29.9408   42.9864 H   0  0  0  0  0  0  0  0  0  0  0  0
   56.4399   32.3123   43.6810 H   0  0  0  0  0  0  0  0  0  0  0  0
   60.3557   31.9450   46.8767 H   0  0  0  0  0  0  0  0  0  0  0  0
   61.0855   32.6328   45.4189 H   0  0  0  0  0  0  0  0  0  0  0  0
   62.3550   33.1533   47.5800 H   0  0  0  0  0  0  0  0  0  0  0  0
   61.8172   34.6239   46.6558 H   0  0  0  0  0  0  0  0  0  0  0  0
   58.8335   34.4310   48.5646 H   0  0  0  0  0  0  0  0  0  0  0  0
   59.7987   35.9558   48.5410 H   0  0  0  0  0  0  0  0  0  0  0  0
   58.5332   35.6120   46.3861 H   0  0  0  0  0  0  0  0  0  0  0  0
   60.2609   35.6428   46.0943 H   0  0  0  0  0  0  0  0  0  0  0  0
   59.4247   31.0903   46.5087 H   0  0  0  0  0  0  0  0  0  0  0  0
   59.0769   28.7181   45.8444 H   0  0  0  0  0  0  0  0  0  0  0  0
   56.9890   25.2390   44.1410 H   0  0  0  0  0  0  0  0  0  0  0  0
   58.1471   24.9409   47.3712 H   0  0  0  0  0  0  0  0  0  0  0  0
   57.3552   23.3722   49.1199 H   0  0  0  0  0  0  0  0  0  0  0  0
   52.8455   22.0783   48.9566 H   0  0  0  0  0  0  0  0  0  0  0  0
   50.6529   23.3649   50.4888 H   0  0  0  0  0  0  0  0  0  0  0  0
   51.1458   25.6507   51.2423 H   0  0  0  0  0  0  0  0  0  0  0  0
   52.7406   26.0812   53.0941 H   0  0  0  0  0  0  0  0  0  0  0  0
   53.8835   24.1538   54.2244 H   0  0  0  0  0  0  0  0  0  0  0  0
   53.3813   21.8292   53.4574 H   0  0  0  0  0  0  0  0  0  0  0  0
   55.4150   19.8970   51.5110 H   0  0  0  0  0  0  0  0  0  0  0  0
   56.8730   21.3350   49.9890 H   0  0  0  0  0  0  0  0  0  0  0  0
   53.7669   22.7597   46.8894 H   0  0  0  0  0  0  0  0  0  0  0  0
   54.5622   24.3239   45.1506 H   0  0  0  0  0  0  0  0  0  0  0  0
  1  2  2  0
  2  3  1  0
  3  4  1  0
  4  5  2  0
  5  6  1  0
  6  7  2  0
  7  8  1  0
  8  9  2  0
  8 10  1  0
 10 11  1  0
 11 12  1  0
 12 13  1  0
 13 14  1  0
 14 15  1  0
  7 16  1  0
 16 17  2  0
  2 18  1  0
 18 19  1  0
 19 20  2  0
 20 21  1  0
 21 22  2  0
 22 23  1  0
 23 24  2  0
 24 25  1  0
 25 26  2  0
 26 27  1  0
 27 28  2  0
 27 29  1  0
 29 30  2  0
 30 31  1  0
 31 32  2  0
 32 33  1  0
 33 34  2  0
 25 35  1  0
 35 36  1  0
 22 37  1  0
 37 38  2  0
 17  4  1  0
 38 19  1  0
 15 10  1  0
 36 23  1  0
 34 29  1  0
  3 39  1  0
  5 40  1  0
  6 41  1  0
 11 42  1  0
 11 43  1  0
 12 44  1  0
 12 45  1  0
 14 46  1  0
 14 47  1  0
 15 48  1  0
 15 49  1  0
 16 50  1  0
 17 51  1  0
 18 52  1  0
 20 53  1  0
 21 54  1  0
 24 55  1  0
 30 56  1  0
 31 57  1  0
 32 58  1  0
 33 59  1  0
 34 60  1  0
 35 61  1  0
 36 62  1  0
 37 63  1  0
 38 64  1  0
M  END
>  <smiles>  (73) 
O=C(Nc1ccc(C(=O)N2CCOCC2)cc1)Nc1ccc(-c2cc(=NC(=O)c3ccccc3)[nH][nH]2)cc1

>  <score_type>  (73) 
oracle

>  <origin>  (73) 
adg

>  <m_score__min__energy>  (73) 
-8.3599999999999994

>  <m_primary>  (73) 
energy

$$$$
73:0
     RDKit          3D

 46 48  0  0  0  0  0  0  0  0999 V2000
   57.4080   31.5600   42.5540 C   0  0  0  0  0  0  0  0  0  0  0  0
   56.6670   30.4600   42.6810 C   0  0  0  0  0  0  0  0  0  0  0  0
   56.0710   30.0300   43.9630 C   0  0  0  0  0  0  0  0  0  0  0  0
   55.0200   29.3380   43.9340 O   0  0  0  0  0  0  0  0  0  0  0  0
   56.6140   30.4060   45.2380 N   0  0  0  0  0  0  0  0  0  0  0  0
   57.8060   29.8790   45.8360 C   0  0  0  0  0  0  0  0  0  0  0  0
   58.5530   30.7090   46.6810 C   0  0  0  0  0  0  0  0  0  0  0  0
   59.7570   30.2590   47.2430 C   0  0  0  0  0  0  0  0  0  0  0  0
   60.5540   31.1400   48.0530 N   0  0  0  0  0  0  0  0  0  0  0  0
   61.8180   31.5970   47.5450 C   0  0  0  0  0  0  0  0  0  0  0  0
   62.4870   30.8730   46.7570 O   0  0  0  0  0  0  0  0  0  0  0  0
   62.3070   32.8920   47.9330 N   0  0  0  0  0  0  0  0  0  0  0  0
   63.6410   33.3250   47.5110 C   0  0  0  0  0  0  0  0  0  0  0  0
   61.3780   33.8510   48.5450 C   0  0  0  0  0  0  0  0  0  0  0  0
   60.3850   33.1640   49.4400 C   0  0  0  0  0  0  0  0  0  0  0  0
   59.8230   33.8660   50.4600 N   0  0  0  0  0  0  0  0  0  0  0  0
   58.9060   33.3150   51.2970 C   0  0  0  0  0  0  0  0  0  0  0  0
   58.3320   34.0670   52.3260 O   0  0  0  0  0  0  0  0  0  0  0  0
   59.0160   34.3590   53.5380 C   0  0  0  0  0  0  0  0  0  0  0  0
   58.5360   31.9810   51.1360 C   0  0  0  0  0  0  0  0  0  0  0  0
   59.0950   31.2130   50.1040 C   0  0  0  0  0  0  0  0  0  0  0  0
   58.7460   29.7510   50.0280 C   0  0  0  0  0  0  0  0  0  0  0  0
   59.9890   31.8350   49.1900 C   0  0  0  0  0  0  0  0  0  0  0  0
   60.1920   28.9510   46.9880 C   0  0  0  0  0  0  0  0  0  0  0  0
   59.4290   28.1010   46.1840 C   0  0  0  0  0  0  0  0  0  0  0  0
   58.2320   28.5530   45.6120 C   0  0  0  0  0  0  0  0  0  0  0  0
   57.4600   27.6830   44.8430 O   0  0  0  0  0  0  0  0  0  0  0  0
   57.8265   31.8310   41.5735 H   0  0  0  0  0  0  0  0  0  0  0  0
   57.6012   32.1971   43.4296 H   0  0  0  0  0  0  0  0  0  0  0  0
   56.4903   29.8420   41.7883 H   0  0  0  0  0  0  0  0  0  0  0  0
   58.1923   31.7235   46.9062 H   0  0  0  0  0  0  0  0  0  0  0  0
   64.2592   33.5257   48.3985 H   0  0  0  0  0  0  0  0  0  0  0  0
   64.1101   32.5330   46.9088 H   0  0  0  0  0  0  0  0  0  0  0  0
   63.5556   34.2415   46.9088 H   0  0  0  0  0  0  0  0  0  0  0  0
   61.9533   34.5757   49.1398 H   0  0  0  0  0  0  0  0  0  0  0  0
   60.8242   34.3559   47.7398 H   0  0  0  0  0  0  0  0  0  0  0  0
   58.3794   34.0872   54.3929 H   0  0  0  0  0  0  0  0  0  0  0  0
   59.9515   33.7818   53.5793 H   0  0  0  0  0  0  0  0  0  0  0  0
   59.2462   35.4338   53.5793 H   0  0  0  0  0  0  0  0  0  0  0  0
   57.8032   31.5289   51.8205 H   0  0  0  0  0  0  0  0  0  0  0  0
   58.6488   29.3439   51.0453 H   0  0  0  0  0  0  0  0  0  0  0  0
   57.7935   29.6288   49.4916 H   0  0  0  0  0  0  0  0  0  0  0  0
   59.5406   29.2117   49.4916 H   0  0  0  0  0  0  0  0  0  0  0  0
   61.1370   28.5929   47.4224 H   0  0  0  0  0  0  0  0  0  0  0  0
   59.7694   27.0715   45.9988 H   0  0  0  0  0  0  0  0  0  0  0  0
   56.6490   28.0050   44.3270 H   0  0  0  0  0  0  0  0  0  0  0  0
  1  2  2  0
  2  3  1  0
  3  4  2  0
  3  5  1  0
  5  6  1  0
  6  7  2  0
  7  8  1  0
  8  9  1  0
  9 10  1  0
 10 11  2  0
 10 12  1  0
 12 13  1  0
 12 14  1  0
 14 15  1  0
 15 16  2  0
 16 17  1  0
 17 18  1  0
 18 19  1  0
 17 20  2  0
 20 21  1  0
 21 22  1  0
 21 23  2  0
  8 24  2  0
 24 25  1  0
 25 26  2  0
 26 27  1  0
 26  6  1  0
 23  9  1  0
 23 15  1  0
  1 28  1  0
  1 29  1  0
  2 30  1  0
  7 31  1  0
 13 32  1  0
 13 33  1  0
 13 34  1  0
 14 35  1  0
 14 36  1  0
 19 37  1  0
 19 38  1  0
 19 39  1  0
 20 40  1  0
 22 41  1  0
 22 42  1  0
 22 43  1  0
 24 44  1  0
 25 45  1  0
 27 46  1  0
M  CHG  1   5  -1
M  END
>  <UniqueID>  (74) 
69

>  <SMILES>  (74) 
C=CC(=O)[N-]c1cc(N2C(=O)N(C)Cc3nc(OC)cc(C)c32)ccc1O

>  <Energy>  (74) 
63.899197728556906

>  <Genealogy>  (74) 
C=CC(=O)[N-]c1cc(N2C(=O)N(C)Cc3nc(OC)cc(C)c32)ccc1O (protonated)
C=CC(=O)[N-]c1cc(N2C(=O)N(C)Cc3nc(OC)cc(C)c32)ccc1O (3D coordinates assigned)
C=CC(=O)[N-]c1cc(N2C(=O)N(C)Cc3nc(OC)cc(C)c32)ccc1O (nonaromatic ring conformer: 63.899197728556906 kcal/mol)

>  <smiles>  (74) 
C=CC(=O)Nc1cc(N2C(=O)N(C)Cc3nc(OC)cc(C)c32)ccc1O

>  <score_type>  (74) 
oracle

>  <origin>  (74) 
adg

>  <m_score__min__energy>  (74) 
-9

>  <m_primary>  (74) 
energy

$$$$
74:0
     RDKit          3D

 59 62  0  0  0  0  0  0  0  0999 V2000
   55.4620   28.9940   45.0450 O   0  0  0  0  0  0  0  0  0  0  0  0
   56.6840   28.7420   45.2320 C   0  0  0  0  0  0  0  0  0  0  0  0
   57.0900   27.3750   45.6340 C   0  0  0  0  0  0  0  0  0  0  0  0
   58.4560   27.0440   45.7040 C   0  0  0  0  0  0  0  0  0  0  0  0
   58.8550   25.7540   46.0720 C   0  0  0  0  0  0  0  0  0  0  0  0
   57.8950   24.7830   46.3790 C   0  0  0  0  0  0  0  0  0  0  0  0
   58.2930   23.4990   46.7330 O   0  0  0  0  0  0  0  0  0  0  0  0
   56.5360   25.1070   46.3370 C   0  0  0  0  0  0  0  0  0  0  0  0
   56.1290   26.3980   45.9810 C   0  0  0  0  0  0  0  0  0  0  0  0
   54.7710   26.7050   45.9990 O   0  0  0  0  0  0  0  0  0  0  0  0
   57.6530   29.7910   45.0660 N   0  0  0  0  0  0  0  0  0  0  0  0
   58.6110   30.0670   46.1500 C   0  0  0  0  0  0  0  0  0  0  0  0
   59.4060   31.3510   45.8820 C   0  0  0  0  0  0  0  0  0  0  0  0
   58.4520   32.5040   45.4940 C   0  0  0  0  0  0  0  0  0  0  0  0
   59.2070   33.8450   45.2870 C   0  0  0  0  0  0  0  0  0  0  0  0
   59.8180   34.3660   46.5370 N   0  0  0  0  0  0  0  0  0  0  0  0
   58.9850   34.0660   47.7290 C   0  0  0  0  0  0  0  0  0  0  0  0
   59.8100   34.0760   49.0230 C   0  0  0  0  0  0  0  0  0  0  0  0
   60.8900   33.0630   48.9870 N   0  0  0  0  0  0  0  0  0  0  0  0
   60.6550   31.8750   49.8390 C   0  0  0  0  0  0  0  0  0  0  0  0
   59.4350   31.9860   50.7330 C   0  0  0  0  0  0  0  0  0  0  0  0
   58.2740   31.2450   50.4510 C   0  0  0  0  0  0  0  0  0  0  0  0
   57.1460   31.3550   51.2680 C   0  0  0  0  0  0  0  0  0  0  0  0
   57.1720   32.1890   52.3870 C   0  0  0  0  0  0  0  0  0  0  0  0
   58.3310   32.9040   52.6980 C   0  0  0  0  0  0  0  0  0  0  0  0
   59.4610   32.8000   51.8790 C   0  0  0  0  0  0  0  0  0  0  0  0
   61.3730   32.7310   47.6280 C   0  0  0  0  0  0  0  0  0  0  0  0
   61.2360   33.9380   46.6920 C   0  0  0  0  0  0  0  0  0  0  0  0
   57.5010   32.1400   44.3160 C   0  0  0  0  0  0  0  0  0  0  0  0
   57.5920   30.6680   43.8890 C   0  0  0  0  0  0  0  0  0  0  0  0
   59.2152   27.8042   45.4679 H   0  0  0  0  0  0  0  0  0  0  0  0
   59.9249   25.5029   46.1200 H   0  0  0  0  0  0  0  0  0  0  0  0
   55.7832   24.3442   46.5848 H   0  0  0  0  0  0  0  0  0  0  0  0
   58.0594   30.1785   47.0951 H   0  0  0  0  0  0  0  0  0  0  0  0
   59.3193   29.2274   46.2076 H   0  0  0  0  0  0  0  0  0  0  0  0
   59.9612   31.6298   46.7898 H   0  0  0  0  0  0  0  0  0  0  0  0
   60.1050   31.1714   45.0519 H   0  0  0  0  0  0  0  0  0  0  0  0
   57.7872   32.6605   46.3563 H   0  0  0  0  0  0  0  0  0  0  0  0
   60.0047   33.6875   44.5461 H   0  0  0  0  0  0  0  0  0  0  0  0
   58.4709   34.5879   44.9461 H   0  0  0  0  0  0  0  0  0  0  0  0
   58.1914   34.8237   47.8077 H   0  0  0  0  0  0  0  0  0  0  0  0
   58.5616   33.0586   47.6033 H   0  0  0  0  0  0  0  0  0  0  0  0
   60.2585   35.0720   49.1531 H   0  0  0  0  0  0  0  0  0  0  0  0
   59.1395   33.8355   49.8612 H   0  0  0  0  0  0  0  0  0  0  0  0
   60.5252   31.0006   49.1844 H   0  0  0  0  0  0  0  0  0  0  0  0
   61.5274   31.7829   50.5027 H   0  0  0  0  0  0  0  0  0  0  0  0
   58.2535   30.5733   49.5802 H   0  0  0  0  0  0  0  0  0  0  0  0
   56.2367   30.7839   51.0292 H   0  0  0  0  0  0  0  0  0  0  0  0
   56.2800   32.2832   53.0238 H   0  0  0  0  0  0  0  0  0  0  0  0
   58.3555   33.5498   53.5881 H   0  0  0  0  0  0  0  0  0  0  0  0
   60.3742   33.3580   52.1332 H   0  0  0  0  0  0  0  0  0  0  0  0
   62.4312   32.4357   47.6834 H   0  0  0  0  0  0  0  0  0  0  0  0
   60.7656   31.9049   47.2297 H   0  0  0  0  0  0  0  0  0  0  0  0
   61.8166   34.7758   47.1056 H   0  0  0  0  0  0  0  0  0  0  0  0
   61.6122   33.6438   45.7011 H   0  0  0  0  0  0  0  0  0  0  0  0
   56.4666   32.3495   44.6259 H   0  0  0  0  0  0  0  0  0  0  0  0
   57.8083   32.7475   43.4520 H   0  0  0  0  0  0  0  0  0  0  0  0
   56.7056   30.4096   43.2912 H   0  0  0  0  0  0  0  0  0  0  0  0
   58.5065   30.5272   43.2941 H   0  0  0  0  0  0  0  0  0  0  0  0
  1  2  2  0
  2  3  1  0
  3  4  2  0
  4  5  1  0
  5  6  2  0
  6  7  1  0
  6  8  1  0
  8  9  2  0
  9 10  1  0
  2 11  1  0
 11 12  1  0
 12 13  1  0
 13 14  1  0
 14 15  1  0
 15 16  1  0
 16 17  1  0
 17 18  1  0
 18 19  1  0
 19 20  1  0
 20 21  1  0
 21 22  2  0
 22 23  1  0
 23 24  2  0
 24 25  1  0
 25 26  2  0
 19 27  1  0
 27 28  1  0
 14 29  1  0
 29 30  1  0
  9  3  1  0
 30 11  1  0
 28 16  1  0
 26 21  1  0
  4 31  1  0
  5 32  1  0
  8 33  1  0
 12 34  1  0
 12 35  1  0
 13 36  1  0
 13 37  1  0
 14 38  1  0
 15 39  1  0
 15 40  1  0
 17 41  1  0
 17 42  1  0
 18 43  1  0
 18 44  1  0
 20 45  1  0
 20 46  1  0
 22 47  1  0
 23 48  1  0
 24 49  1  0
 25 50  1  0
 26 51  1  0
 27 52  1  0
 27 53  1  0
 28 54  1  0
 28 55  1  0
 29 56  1  0
 29 57  1  0
 30 58  1  0
 30 59  1  0
M  CHG  2   7  -1  10  -1
M  END
>  <UniqueID>  (75) 
70

>  <SMILES>  (75) 
O=C(c1ccc([O-])cc1[O-])N1CCC(CN2CCN(Cc3ccccc3)CC2)CC1

>  <Energy>  (75) 
88.75085437316282

>  <Genealogy>  (75) 
O=C(c1ccc([O-])cc1[O-])N1CCC(CN2CCN(Cc3ccccc3)CC2)CC1 (protonated)
O=C(c1ccc([O-])cc1[O-])N1CCC(CN2CCN(Cc3ccccc3)CC2)CC1 (3D coordinates assigned)
O=C(c1ccc([O-])cc1[O-])N1CCC(CN2CCN(Cc3ccccc3)CC2)CC1 (nonaromatic ring conformer: 88.75085437316282 kcal/mol)

>  <smiles>  (75) 
O=C(c1ccc(O)cc1O)N1CCC(CN2CCN(Cc3ccccc3)CC2)CC1

>  <score_type>  (75) 
oracle

>  <origin>  (75) 
adg

>  <m_score__min__energy>  (75) 
-15.43

>  <m_primary>  (75) 
energy

$$$$
75:0
     RDKit          3D

 64 67  0  0  0  0  0  0  0  0999 V2000
   53.8490   21.8860   45.6630 O   0  0  0  0  0  0  0  0  0  0  0  0
   54.6460   22.9520   44.9630 S   0  0  0  0  0  0  0  0  0  0  0  0
   53.6970   23.9860   44.4260 O   0  0  0  0  0  0  0  0  0  0  0  0
   55.7270   23.6900   46.1440 C   0  0  0  0  0  0  0  0  0  0  0  0
   56.1080   22.9660   47.2800 C   0  0  0  0  0  0  0  0  0  0  0  0
   56.9540   23.5430   48.2300 C   0  0  0  0  0  0  0  0  0  0  0  0
   57.4140   24.8520   48.0550 C   0  0  0  0  0  0  0  0  0  0  0  0
   57.0210   25.5970   46.9310 C   0  0  0  0  0  0  0  0  0  0  0  0
   57.4820   26.9440   46.7340 N   0  0  0  0  0  0  0  0  0  0  0  0
   57.5020   27.6050   45.4570 C   0  0  0  0  0  0  0  0  0  0  0  0
   57.9050   26.7380   44.1090 S   0  0  0  0  0  0  0  0  0  0  0  0
   57.4070   29.0520   45.4070 N   0  0  0  0  0  0  0  0  0  0  0  0
   57.1300   29.5260   44.0290 C   0  0  0  0  0  0  0  0  0  0  0  0
   57.3790   31.0410   43.8790 C   0  0  0  0  0  0  0  0  0  0  0  0
   57.3270   31.6950   45.2010 N   0  0  0  0  0  0  0  0  0  0  0  0
   57.3480   33.1660   45.0770 C   0  0  0  0  0  0  0  0  0  0  0  0
   57.8800   33.7910   46.3390 C   0  0  0  0  0  0  0  0  0  0  0  0
   58.9770   34.5570   46.4140 C   0  0  0  0  0  0  0  0  0  0  0  0
   60.2250   34.1840   47.1120 C   0  0  0  0  0  0  0  0  0  0  0  0
   61.3370   33.7900   46.3510 C   0  0  0  0  0  0  0  0  0  0  0  0
   62.5430   33.4690   46.9790 C   0  0  0  0  0  0  0  0  0  0  0  0
   62.6570   33.5570   48.3710 C   0  0  0  0  0  0  0  0  0  0  0  0
   61.5610   33.9690   49.1340 C   0  0  0  0  0  0  0  0  0  0  0  0
   60.3500   34.2910   48.5090 C   0  0  0  0  0  0  0  0  0  0  0  0
   58.4470   31.2240   46.0450 C   0  0  0  0  0  0  0  0  0  0  0  0
   58.6150   29.6890   45.9700 C   0  0  0  0  0  0  0  0  0  0  0  0
   56.1950   25.0010   45.9670 C   0  0  0  0  0  0  0  0  0  0  0  0
   55.5750   22.2330   43.6630 N   0  0  0  0  0  0  0  0  0  0  0  0
   56.3100   21.0260   44.0910 C   0  0  0  0  0  0  0  0  0  0  0  0
   57.6360   21.3670   44.7870 C   0  0  0  0  0  0  0  0  0  0  0  0
   58.4350   22.1940   43.9680 O   0  0  0  0  0  0  0  0  0  0  0  0
   57.7750   23.4250   43.7530 C   0  0  0  0  0  0  0  0  0  0  0  0
   56.4530   23.2140   42.9970 C   0  0  0  0  0  0  0  0  0  0  0  0
   55.7400   21.9396   47.4249 H   0  0  0  0  0  0  0  0  0  0  0  0
   57.2586   22.9673   49.1164 H   0  0  0  0  0  0  0  0  0  0  0  0
   58.0867   25.3002   48.8010 H   0  0  0  0  0  0  0  0  0  0  0  0
   57.8370   27.4710   47.5650 H   0  0  0  0  0  0  0  0  0  0  0  0
   56.5920   29.3340   46.0030 H   0  0  0  0  0  0  0  0  0  0  0  0
   57.7858   28.9871   43.3293 H   0  0  0  0  0  0  0  0  0  0  0  0
   56.0697   29.3321   43.8093 H   0  0  0  0  0  0  0  0  0  0  0  0
   58.3700   31.2045   43.4306 H   0  0  0  0  0  0  0  0  0  0  0  0
   56.6007   31.4723   43.2322 H   0  0  0  0  0  0  0  0  0  0  0  0
   57.9930   33.4494   44.2323 H   0  0  0  0  0  0  0  0  0  0  0  0
   56.3222   33.5246   44.9060 H   0  0  0  0  0  0  0  0  0  0  0  0
   57.3259   33.6047   47.2708 H   0  0  0  0  0  0  0  0  0  0  0  0
   58.9462   35.5384   45.9181 H   0  0  0  0  0  0  0  0  0  0  0  0
   61.2584   33.7338   45.2553 H   0  0  0  0  0  0  0  0  0  0  0  0
   63.4055   33.1461   46.3775 H   0  0  0  0  0  0  0  0  0  0  0  0
   63.6071   33.3025   48.8635 H   0  0  0  0  0  0  0  0  0  0  0  0
   61.6499   34.0405   50.2281 H   0  0  0  0  0  0  0  0  0  0  0  0
   59.4942   34.6285   49.1121 H   0  0  0  0  0  0  0  0  0  0  0  0
   59.3768   31.7013   45.7020 H   0  0  0  0  0  0  0  0  0  0  0  0
   58.2264   31.4937   47.0884 H   0  0  0  0  0  0  0  0  0  0  0  0
   59.4780   29.4523   45.3304 H   0  0  0  0  0  0  0  0  0  0  0  0
   58.7730   29.3032   46.9879 H   0  0  0  0  0  0  0  0  0  0  0  0
   55.9121   25.5651   45.0660 H   0  0  0  0  0  0  0  0  0  0  0  0
   55.6795   20.4573   44.7903 H   0  0  0  0  0  0  0  0  0  0  0  0
   56.5438   20.4378   43.1914 H   0  0  0  0  0  0  0  0  0  0  0  0
   57.4235   21.8913   45.7304 H   0  0  0  0  0  0  0  0  0  0  0  0
   58.1817   20.4321   44.9824 H   0  0  0  0  0  0  0  0  0  0  0  0
   57.5631   23.8946   44.7249 H   0  0  0  0  0  0  0  0  0  0  0  0
   58.4267   24.0721   43.1476 H   0  0  0  0  0  0  0  0  0  0  0  0
   55.9241   24.1765   42.9347 H   0  0  0  0  0  0  0  0  0  0  0  0
   56.6964   22.8227   41.9982 H   0  0  0  0  0  0  0  0  0  0  0  0
  1  2  2  0
  2  3  2  0
  2  4  1  0
  4  5  2  0
  5  6  1  0
  6  7  2  0
  7  8  1  0
  8  9  1  0
  9 10  1  0
 10 11  2  0
 10 12  1  0
 12 13  1  0
 13 14  1  0
 14 15  1  0
 15 16  1  0
 16 17  1  0
 17 18  2  3
 18 19  1  0
 19 20  2  0
 20 21  1  0
 21 22  2  0
 22 23  1  0
 23 24  2  0
 15 25  1  0
 25 26  1  0
  8 27  2  0
  2 28  1  0
 28 29  1  0
 29 30  1  0
 30 31  1  0
 31 32  1  0
 32 33  1  0
 27  4  1  0
 33 28  1  0
 26 12  1  0
 24 19  1  0
  5 34  1  0
  6 35  1  0
  7 36  1  0
  9 37  1  0
 12 38  1  0
 13 39  1  0
 13 40  1  0
 14 41  1  0
 14 42  1  0
 16 43  1  0
 16 44  1  0
 17 45  1  0
 18 46  1  0
 20 47  1  0
 21 48  1  0
 22 49  1  0
 23 50  1  0
 24 51  1  0
 25 52  1  0
 25 53  1  0
 26 54  1  0
 26 55  1  0
 27 56  1  0
 29 57  1  0
 29 58  1  0
 30 59  1  0
 30 60  1  0
 32 61  1  0
 32 62  1  0
 33 63  1  0
 33 64  1  0
M  CHG  1  12   1
M  END
>  <UniqueID>  (76) 
71

>  <SMILES>  (76) 
O=S(=O)(c1cccc(NC(=S)[NH+]2CCN(CC=Cc3ccccc3)CC2)c1)N1CCOCC1

>  <Energy>  (76) 
92.62799824569368

>  <Genealogy>  (76) 
O=S(=O)(c1cccc(NC(=S)[NH+]2CCN(CC=Cc3ccccc3)CC2)c1)N1CCOCC1 (protonated)
O=S(=O)(c1cccc(NC(=S)[NH+]2CCN(CC=Cc3ccccc3)CC2)c1)N1CCOCC1 (3D coordinates assigned)
O=S(=O)(c1cccc(NC(=S)[NH+]2CCN(CC=Cc3ccccc3)CC2)c1)N1CCOCC1 (nonaromatic ring conformer: 92.62799824569368 kcal/mol)

>  <smiles>  (76) 
O=S(=O)(c1cccc(NC(=S)N2CCN(CC=Cc3ccccc3)CC2)c1)N1CCOCC1

>  <score_type>  (76) 
oracle

>  <origin>  (76) 
adg

>  <m_score__min__energy>  (76) 
-8.3200000000000003

>  <m_primary>  (76) 
energy

$$$$
76:0
     RDKit          3D

 60 64  0  0  0  0  0  0  0  0999 V2000
   60.6170   27.2260   47.1430 C   0  0  0  0  0  0  0  0  0  0  0  0
   59.4710   27.1730   46.1770 C   0  0  0  0  0  0  0  0  0  0  0  0
   59.1210   25.9990   45.4910 C   0  0  0  0  0  0  0  0  0  0  0  0
   58.0280   26.1560   44.6500 C   0  0  0  0  0  0  0  0  0  0  0  0
   57.3900   25.0760   43.8340 C   0  0  0  0  0  0  0  0  0  0  0  0
   57.0000   23.9500   44.7030 N   0  0  0  0  0  0  0  0  0  0  0  0
   55.6460   23.4730   44.3810 C   0  0  0  0  0  0  0  0  0  0  0  0
   55.0730   23.9290   45.7180 C   0  0  0  0  0  0  0  0  0  0  0  0
   54.0610   25.0370   45.6080 C   0  0  0  0  0  0  0  0  0  0  0  0
   52.8690   24.7790   45.2970 O   0  0  0  0  0  0  0  0  0  0  0  0
   54.4110   26.3400   45.9430 O   0  0  0  0  0  0  0  0  0  0  0  0
   56.4900   24.4060   46.0070 C   0  0  0  0  0  0  0  0  0  0  0  0
   57.4790   27.7390   44.7650 S   0  0  0  0  0  0  0  0  0  0  0  0
   58.6370   28.2580   45.8730 C   0  0  0  0  0  0  0  0  0  0  0  0
   58.7030   29.6260   46.4190 C   0  0  0  0  0  0  0  0  0  0  0  0
   59.2710   29.9460   47.6040 N   0  0  0  0  0  0  0  0  0  0  0  0
   59.1800   31.2750   47.8780 C   0  0  0  0  0  0  0  0  0  0  0  0
   58.5190   32.0280   46.9110 C   0  0  0  0  0  0  0  0  0  0  0  0
   58.2980   33.4840   46.9600 C   0  0  0  0  0  0  0  0  0  0  0  0
   57.4580   34.0050   46.1790 O   0  0  0  0  0  0  0  0  0  0  0  0
   58.9700   34.3250   47.9060 N   0  0  0  0  0  0  0  0  0  0  0  0
   60.1300   33.9650   48.6640 C   0  0  0  0  0  0  0  0  0  0  0  0
   61.4110   33.9180   48.1570 C   0  0  0  0  0  0  0  0  0  0  0  0
   62.2130   33.5050   49.2050 C   0  0  0  0  0  0  0  0  0  0  0  0
   63.6370   33.3150   49.1070 C   0  0  0  0  0  0  0  0  0  0  0  0
   64.7820   33.1630   49.0290 N   0  0  0  0  0  0  0  0  0  0  0  0
   61.4750   33.2770   50.3170 N   0  0  0  0  0  0  0  0  0  0  0  0
   61.9470   32.7470   51.5950 C   0  0  0  0  0  0  0  0  0  0  0  0
   60.1950   33.5640   49.9920 C   0  0  0  0  0  0  0  0  0  0  0  0
   59.0730   33.3020   50.8540 N   0  0  0  0  0  0  0  0  0  0  0  0
   58.8250   34.1410   52.0300 C   0  0  0  0  0  0  0  0  0  0  0  0
   58.6670   33.2600   53.2690 C   0  0  0  0  0  0  0  0  0  0  0  0
   57.7360   32.1600   53.0180 N   0  0  0  0  0  0  0  0  0  0  0  0
   57.5780   31.5780   51.7180 C   0  0  0  0  0  0  0  0  0  0  0  0
   56.9480   30.4940   51.5920 O   0  0  0  0  0  0  0  0  0  0  0  0
   58.0870   32.2810   50.4920 C   0  0  0  0  0  0  0  0  0  0  0  0
   58.0720   30.9900   45.6620 S   0  0  0  0  0  0  0  0  0  0  0  0
   60.2299   27.2081   48.1725 H   0  0  0  0  0  0  0  0  0  0  0  0
   61.2723   26.3572   46.9825 H   0  0  0  0  0  0  0  0  0  0  0  0
   61.1893   28.1516   46.9825 H   0  0  0  0  0  0  0  0  0  0  0  0
   59.6604   25.0476   45.6086 H   0  0  0  0  0  0  0  0  0  0  0  0
   56.4958   25.4771   43.3344 H   0  0  0  0  0  0  0  0  0  0  0  0
   58.1093   24.7192   43.0822 H   0  0  0  0  0  0  0  0  0  0  0  0
   55.1973   23.9849   43.5169 H   0  0  0  0  0  0  0  0  0  0  0  0
   55.5143   22.4228   44.0816 H   0  0  0  0  0  0  0  0  0  0  0  0
   54.5118   23.2644   46.3913 H   0  0  0  0  0  0  0  0  0  0  0  0
   56.5635   25.4945   46.1475 H   0  0  0  0  0  0  0  0  0  0  0  0
   56.9891   24.0523   46.9212 H   0  0  0  0  0  0  0  0  0  0  0  0
   59.5966   31.7209   48.7932 H   0  0  0  0  0  0  0  0  0  0  0  0
   61.7291   34.1589   47.1319 H   0  0  0  0  0  0  0  0  0  0  0  0
   61.4624   33.2912   52.4191 H   0  0  0  0  0  0  0  0  0  0  0  0
   61.6962   31.6782   51.6638 H   0  0  0  0  0  0  0  0  0  0  0  0
   63.0376   32.8728   51.6638 H   0  0  0  0  0  0  0  0  0  0  0  0
   59.6728   34.8268   52.1750 H   0  0  0  0  0  0  0  0  0  0  0  0
   57.9027   34.7202   51.8756 H   0  0  0  0  0  0  0  0  0  0  0  0
   59.6484   32.8448   53.5421 H   0  0  0  0  0  0  0  0  0  0  0  0
   58.2667   33.8766   54.0873 H   0  0  0  0  0  0  0  0  0  0  0  0
   57.3300   31.6630   53.8420 H   0  0  0  0  0  0  0  0  0  0  0  0
   58.5575   31.5455   49.8229 H   0  0  0  0  0  0  0  0  0  0  0  0
   57.2407   32.7693   49.9866 H   0  0  0  0  0  0  0  0  0  0  0  0
  1  2  1  0
  2  3  1  0
  3  4  2  0
  4  5  1  0
  5  6  1  0
  6  7  1  0
  7  8  1  0
  8  9  1  0
  9 10  2  0
  9 11  1  0
  8 12  1  0
  4 13  1  0
 13 14  1  0
 14 15  1  0
 15 16  2  0
 16 17  1  0
 17 18  2  0
 18 19  1  0
 19 20  2  0
 19 21  1  0
 21 22  1  0
 22 23  1  0
 23 24  2  0
 24 25  1  0
 25 26  3  0
 24 27  1  0
 27 28  1  0
 27 29  1  0
 29 30  1  0
 30 31  1  0
 31 32  1  0
 32 33  1  0
 33 34  1  0
 34 35  2  0
 34 36  1  0
 18 37  1  0
 14  2  2  0
 37 15  1  0
 12  6  1  0
 29 22  2  0
 36 30  1  0
  1 38  1  0
  1 39  1  0
  1 40  1  0
  3 41  1  0
  5 42  1  0
  5 43  1  0
  7 44  1  0
  7 45  1  0
  8 46  1  0
 12 47  1  0
 12 48  1  0
 17 49  1  0
 23 50  1  0
 28 51  1  0
 28 52  1  0
 28 53  1  0
 31 54  1  0
 31 55  1  0
 32 56  1  0
 32 57  1  0
 33 58  1  0
 36 59  1  0
 36 60  1  0
M  CHG  2  11  -1  21  -1
M  END
>  <UniqueID>  (77) 
72

>  <SMILES>  (77) 
Cc1cc(CN2CC(C(=O)[O-])C2)sc1-c1ncc(C(=O)[N-]c2cc(C#N)n(C)c2N2CCNC(=O)C2)s1

>  <Energy>  (77) 
222.3697395427585

>  <Genealogy>  (77) 
Cc1cc(CN2CC(C(=O)[O-])C2)sc1-c1ncc(C(=O)[N-]c2cc(C#N)n(C)c2N2CCNC(=O)C2)s1 (protonated)
Cc1cc(CN2CC(C(=O)[O-])C2)sc1-c1ncc(C(=O)[N-]c2cc(C#N)n(C)c2N2CCNC(=O)C2)s1 (3D coordinates assigned)
Cc1cc(CN2CC(C(=O)[O-])C2)sc1-c1ncc(C(=O)[N-]c2cc(C#N)n(C)c2N2CCNC(=O)C2)s1 (nonaromatic ring conformer: 222.3697395427585 kcal/mol)

>  <smiles>  (77) 
Cc1cc(CN2CC(C(=O)O)C2)sc1-c1ncc(C(=O)Nc2cc(C#N)n(C)c2N2CCNC(=O)C2)s1

>  <score_type>  (77) 
oracle

>  <origin>  (77) 
adg

>  <m_score__min__energy>  (77) 
-13.16

>  <m_primary>  (77) 
energy

$$$$
77:0
     RDKit          3D

 50 52  0  0  0  0  0  0  0  0999 V2000
   60.2390   26.7830   46.4300 C   0  0  0  0  0  0  0  0  0  0  0  0
   59.1090   27.4600   46.1640 C   0  0  0  0  0  0  0  0  0  0  0  0
   57.8090   26.9330   46.1630 C   0  0  0  0  0  0  0  0  0  0  0  0
   57.3290   25.7590   46.6180 C   0  0  0  0  0  0  0  0  0  0  0  0
   56.3830   24.8850   45.9050 C   0  0  0  0  0  0  0  0  0  0  0  0
   56.6470   23.6240   45.5160 N   0  0  0  0  0  0  0  0  0  0  0  0
   55.4600   23.1910   45.0380 C   0  0  0  0  0  0  0  0  0  0  0  0
   55.3020   22.0380   44.5610 O   0  0  0  0  0  0  0  0  0  0  0  0
   54.4530   24.0860   45.1240 N   0  0  0  0  0  0  0  0  0  0  0  0
   55.0530   25.1480   45.6880 C   0  0  0  0  0  0  0  0  0  0  0  0
   54.3980   26.3350   45.9920 O   0  0  0  0  0  0  0  0  0  0  0  0
   57.0050   27.8900   45.5760 C   0  0  0  0  0  0  0  0  0  0  0  0
   57.8000   28.9860   45.3050 C   0  0  0  0  0  0  0  0  0  0  0  0
   57.3120   30.2100   44.6200 C   0  0  0  0  0  0  0  0  0  0  0  0
   56.1430   30.6300   44.8270 O   0  0  0  0  0  0  0  0  0  0  0  0
   58.1790   30.9490   43.7460 N   0  0  0  0  0  0  0  0  0  0  0  0
   57.9230   32.3460   43.4040 C   0  0  0  0  0  0  0  0  0  0  0  0
   58.2540   33.2300   44.5760 C   0  0  0  0  0  0  0  0  0  0  0  0
   59.2950   34.1690   44.4760 C   0  0  0  0  0  0  0  0  0  0  0  0
   59.6430   34.9560   45.5780 C   0  0  0  0  0  0  0  0  0  0  0  0
   58.9620   34.8040   46.7900 C   0  0  0  0  0  0  0  0  0  0  0  0
   57.9320   33.8650   46.9000 C   0  0  0  0  0  0  0  0  0  0  0  0
   57.5790   33.0790   45.7990 C   0  0  0  0  0  0  0  0  0  0  0  0
   59.0850   28.7340   45.6790 N   0  0  0  0  0  0  0  0  0  0  0  0
   60.2310   29.6430   45.5110 C   0  0  0  0  0  0  0  0  0  0  0  0
   60.6990   30.1730   46.8370 C   0  0  0  0  0  0  0  0  0  0  0  0
   61.7900   30.8010   46.9070 O   0  0  0  0  0  0  0  0  0  0  0  0
   59.9000   30.0150   48.0130 N   0  0  0  0  0  0  0  0  0  0  0  0
   58.9070   31.0320   48.3540 C   0  0  0  0  0  0  0  0  0  0  0  0
   60.2870   29.0080   49.0000 C   0  0  0  0  0  0  0  0  0  0  0  0
   61.2095   27.3001   46.4019 H   0  0  0  0  0  0  0  0  0  0  0  0
   60.1934   25.7118   46.6759 H   0  0  0  0  0  0  0  0  0  0  0  0
   57.6738   25.4248   47.6077 H   0  0  0  0  0  0  0  0  0  0  0  0
   55.9298   27.7965   45.3635 H   0  0  0  0  0  0  0  0  0  0  0  0
   59.0350   30.4970   43.3580 H   0  0  0  0  0  0  0  0  0  0  0  0
   58.5473   32.6312   42.5444 H   0  0  0  0  0  0  0  0  0  0  0  0
   56.8600   32.4670   43.1484 H   0  0  0  0  0  0  0  0  0  0  0  0
   59.8383   34.2852   43.5266 H   0  0  0  0  0  0  0  0  0  0  0  0
   60.4530   35.6952   45.4916 H   0  0  0  0  0  0  0  0  0  0  0  0
   59.2367   35.4232   47.6567 H   0  0  0  0  0  0  0  0  0  0  0  0
   57.3985   33.7444   47.8544 H   0  0  0  0  0  0  0  0  0  0  0  0
   56.7698   32.3396   45.8906 H   0  0  0  0  0  0  0  0  0  0  0  0
   61.0561   29.0963   45.0310 H   0  0  0  0  0  0  0  0  0  0  0  0
   59.9154   30.4919   44.8867 H   0  0  0  0  0  0  0  0  0  0  0  0
   58.8269   31.1140   49.4480 H   0  0  0  0  0  0  0  0  0  0  0  0
   59.2160   32.0011   47.9353 H   0  0  0  0  0  0  0  0  0  0  0  0
   57.9308   30.7462   47.9353 H   0  0  0  0  0  0  0  0  0  0  0  0
   60.1329   29.4089   50.0127 H   0  0  0  0  0  0  0  0  0  0  0  0
   59.6712   28.1066   48.8649 H   0  0  0  0  0  0  0  0  0  0  0  0
   61.3480   28.7509   48.8649 H   0  0  0  0  0  0  0  0  0  0  0  0
  1  2  2  0
  2  3  1  0
  3  4  2  3
  4  5  1  0
  5  6  1  0
  6  7  1  0
  7  8  2  0
  7  9  1  0
  9 10  1  0
 10 11  1  0
  3 12  1  0
 12 13  2  0
 13 14  1  0
 14 15  2  0
 14 16  1  0
 16 17  1  0
 17 18  1  0
 18 19  2  0
 19 20  1  0
 20 21  2  0
 21 22  1  0
 22 23  2  0
 13 24  1  0
 24 25  1  0
 25 26  1  0
 26 27  2  0
 26 28  1  0
 28 29  1  0
 28 30  1  0
 24  2  1  0
 10  5  2  0
 23 18  1  0
  1 31  1  0
  1 32  1  0
  4 33  1  0
 12 34  1  0
 16 35  1  0
 17 36  1  0
 17 37  1  0
 19 38  1  0
 20 39  1  0
 21 40  1  0
 22 41  1  0
 23 42  1  0
 25 43  1  0
 25 44  1  0
 29 45  1  0
 29 46  1  0
 29 47  1  0
 30 48  1  0
 30 49  1  0
 30 50  1  0
M  CHG  3   6  -1   9  -1  11  -1
M  END
>  <UniqueID>  (78) 
73

>  <SMILES>  (78) 
C=c1c(=Cc2[n-]c(=O)[n-]c2[O-])cc(C(=O)NCc2ccccc2)n1CC(=O)N(C)C

>  <Energy>  (78) 
122.77754410421838

>  <Genealogy>  (78) 
C=c1c(=Cc2[n-]c(=O)[n-]c2[O-])cc(C(=O)NCc2ccccc2)n1CC(=O)N(C)C (protonated)
C=c1c(=Cc2[n-]c(=O)[n-]c2[O-])cc(C(=O)NCc2ccccc2)n1CC(=O)N(C)C (3D coordinates assigned)
C=c1c(=Cc2[n-]c(=O)[n-]c2[O-])cc(C(=O)NCc2ccccc2)n1CC(=O)N(C)C (optimized conformer: 122.77754410421838 kcal/mol)

>  <smiles>  (78) 
C=c1c(=Cc2[nH]c(=O)[nH]c2O)cc(C(=O)NCc2ccccc2)n1CC(=O)N(C)C

>  <score_type>  (78) 
oracle

>  <origin>  (78) 
adg

>  <m_score__min__energy>  (78) 
-17.199999999999999

>  <m_primary>  (78) 
energy

$$$$
78:0
     RDKit          3D

 42 44  0  0  0  0  0  0  0  0999 V2000
   56.0190   26.0540   46.7080 O   0  0  0  0  0  0  0  0  0  0  0  0
   57.1300   26.4900   46.3090 C   0  0  0  0  0  0  0  0  0  0  0  0
   57.3420   26.7190   44.8360 C   0  0  0  0  0  0  0  0  0  0  0  0
   57.7340   28.1050   44.5880 N   0  0  0  0  0  0  0  0  0  0  0  0
   56.7840   29.1830   44.6170 C   0  0  0  0  0  0  0  0  0  0  0  0
   55.5750   28.9470   44.8850 O   0  0  0  0  0  0  0  0  0  0  0  0
   57.1900   30.5710   44.3380 C   0  0  0  0  0  0  0  0  0  0  0  0
   57.4190   31.1400   43.0960 C   0  0  0  0  0  0  0  0  0  0  0  0
   57.7730   32.4490   43.3430 C   0  0  0  0  0  0  0  0  0  0  0  0
   57.7360   32.5970   44.7130 C   0  0  0  0  0  0  0  0  0  0  0  0
   58.1300   34.1990   45.6670 Br  0  0  0  0  0  0  0  0  0  0  0  0
   57.3870   31.4660   45.2800 O   0  0  0  0  0  0  0  0  0  0  0  0
   58.1410   26.7980   47.2770 N   0  0  0  0  0  0  0  0  0  0  0  0
   58.8900   28.0180   47.3700 C   0  0  0  0  0  0  0  0  0  0  0  0
   58.5190   29.0460   48.2460 C   0  0  0  0  0  0  0  0  0  0  0  0
   59.2510   30.2350   48.2930 C   0  0  0  0  0  0  0  0  0  0  0  0
   60.3700   30.4390   47.4520 C   0  0  0  0  0  0  0  0  0  0  0  0
   61.1410   31.6800   47.5030 N   0  0  0  0  0  0  0  0  0  0  0  0
   62.5980   31.6370   47.2590 C   0  0  0  0  0  0  0  0  0  0  0  0
   63.2600   33.0170   47.2550 C   0  0  0  0  0  0  0  0  0  0  0  0
   62.6990   33.8490   48.2430 O   0  0  0  0  0  0  0  0  0  0  0  0
   61.3810   34.1620   47.8610 C   0  0  0  0  0  0  0  0  0  0  0  0
   60.4780   32.9270   47.9400 C   0  0  0  0  0  0  0  0  0  0  0  0
   60.7050   29.4030   46.5480 C   0  0  0  0  0  0  0  0  0  0  0  0
   59.9690   28.2160   46.5060 C   0  0  0  0  0  0  0  0  0  0  0  0
   58.1352   26.0477   44.4751 H   0  0  0  0  0  0  0  0  0  0  0  0
   56.4018   26.5130   44.3035 H   0  0  0  0  0  0  0  0  0  0  0  0
   58.7430   28.3010   44.4110 H   0  0  0  0  0  0  0  0  0  0  0  0
   57.3356   30.6487   42.1153 H   0  0  0  0  0  0  0  0  0  0  0  0
   58.0318   33.2175   42.5997 H   0  0  0  0  0  0  0  0  0  0  0  0
   57.6452   28.9163   48.9015 H   0  0  0  0  0  0  0  0  0  0  0  0
   58.9520   31.0263   48.9962 H   0  0  0  0  0  0  0  0  0  0  0  0
   63.0649   31.0297   48.0484 H   0  0  0  0  0  0  0  0  0  0  0  0
   62.7446   31.2062   46.2575 H   0  0  0  0  0  0  0  0  0  0  0  0
   64.3360   32.9003   47.4516 H   0  0  0  0  0  0  0  0  0  0  0  0
   63.0959   33.4814   46.2714 H   0  0  0  0  0  0  0  0  0  0  0  0
   60.9869   34.9392   48.5324 H   0  0  0  0  0  0  0  0  0  0  0  0
   61.3935   34.5208   46.8212 H   0  0  0  0  0  0  0  0  0  0  0  0
   60.1523   32.8005   48.9830 H   0  0  0  0  0  0  0  0  0  0  0  0
   59.6340   33.1003   47.2561 H   0  0  0  0  0  0  0  0  0  0  0  0
   61.5589   29.5344   45.8671 H   0  0  0  0  0  0  0  0  0  0  0  0
   60.2420   27.4305   45.7859 H   0  0  0  0  0  0  0  0  0  0  0  0
  1  2  2  0
  2  3  1  0
  3  4  1  0
  4  5  1  0
  5  6  2  0
  5  7  1  0
  7  8  2  0
  8  9  1  0
  9 10  2  0
 10 11  1  0
 10 12  1  0
  2 13  1  0
 13 14  1  0
 14 15  2  0
 15 16  1  0
 16 17  2  0
 17 18  1  0
 18 19  1  0
 19 20  1  0
 20 21  1  0
 21 22  1  0
 22 23  1  0
 17 24  1  0
 24 25  2  0
 12  7  1  0
 25 14  1  0
 23 18  1  0
  3 26  1  0
  3 27  1  0
  4 28  1  0
  8 29  1  0
  9 30  1  0
 15 31  1  0
 16 32  1  0
 19 33  1  0
 19 34  1  0
 20 35  1  0
 20 36  1  0
 22 37  1  0
 22 38  1  0
 23 39  1  0
 23 40  1  0
 24 41  1  0
 25 42  1  0
M  CHG  1  13  -1
M  END
>  <UniqueID>  (79) 
74

>  <SMILES>  (79) 
O=C(CNC(=O)c1ccc(Br)o1)[N-]c1ccc(N2CCOCC2)cc1

>  <Energy>  (79) 
78.75610370619235

>  <Genealogy>  (79) 
O=C(CNC(=O)c1ccc(Br)o1)[N-]c1ccc(N2CCOCC2)cc1 (protonated)
O=C(CNC(=O)c1ccc(Br)o1)[N-]c1ccc(N2CCOCC2)cc1 (3D coordinates assigned)
O=C(CNC(=O)c1ccc(Br)o1)[N-]c1ccc(N2CCOCC2)cc1 (nonaromatic ring conformer: 78.75610370619235 kcal/mol)

>  <smiles>  (79) 
O=C(CNC(=O)c1ccc(Br)o1)Nc1ccc(N2CCOCC2)cc1

>  <score_type>  (79) 
oracle

>  <origin>  (79) 
adg

>  <m_score__min__energy>  (79) 
-9.5299999999999994

>  <m_primary>  (79) 
energy

$$$$
79:0
     RDKit          3D

 46 47  0  0  0  0  0  0  0  0999 V2000
   57.8050   27.3290   43.1800 C   0  0  0  0  0  0  0  0  0  0  0  0
   58.4740   27.5010   44.5450 C   0  0  1  0  0  0  0  0  0  0  0  0
   59.7430   28.3200   44.4250 C   0  0  0  0  0  0  0  0  0  0  0  0
   60.0020   29.3400   45.2430 C   0  0  0  0  0  0  0  0  0  0  0  0
   59.0340   29.7010   46.3160 C   0  0  0  0  0  0  0  0  0  0  0  0
   57.6100   29.2990   45.9100 C   0  0  1  0  0  0  0  0  0  0  0  0
   56.8840   30.4120   44.7010 S   0  0  0  0  0  0  0  0  0  0  0  0
   57.6620   30.3070   43.4190 O   0  0  0  0  0  0  0  0  0  0  0  0
   55.4470   30.0510   44.4460 O   0  0  0  0  0  0  0  0  0  0  0  0
   56.9850   32.0330   45.3050 N   0  0  0  0  0  0  0  0  0  0  0  0
   58.0760   32.5650   46.0670 C   0  0  0  0  0  0  0  0  0  0  0  0
   59.1030   33.2340   45.3910 C   0  0  0  0  0  0  0  0  0  0  0  0
   60.1860   33.7680   46.0960 C   0  0  0  0  0  0  0  0  0  0  0  0
   60.2530   33.6500   47.4930 C   0  0  0  0  0  0  0  0  0  0  0  0
   61.4310   34.2240   48.2580 C   0  0  0  0  0  0  0  0  0  0  0  0
   62.6920   33.4290   48.1410 N   0  0  0  0  0  0  0  0  0  0  0  0
   63.3910   33.8500   46.9040 C   0  0  0  0  0  0  0  0  0  0  0  0
   63.5900   33.6790   49.2940 C   0  0  0  0  0  0  0  0  0  0  0  0
   62.4030   31.9780   48.0440 C   0  0  0  0  0  0  0  0  0  0  0  0
   59.2290   32.9670   48.1700 C   0  0  0  0  0  0  0  0  0  0  0  0
   58.1460   32.4340   47.4660 C   0  0  0  0  0  0  0  0  0  0  0  0
   57.5160   27.9380   45.5130 O   0  0  0  0  0  0  0  0  0  0  0  0
   56.7484   27.0574   43.3211 H   0  0  0  0  0  0  0  0  0  0  0  0
   57.8691   28.2728   42.6187 H   0  0  0  0  0  0  0  0  0  0  0  0
   58.3164   26.5331   42.6187 H   0  0  0  0  0  0  0  0  0  0  0  0
   58.8289   26.5349   44.9331 H   0  0  0  0  0  0  0  0  0  0  0  0
   60.4711   28.0657   43.6407 H   0  0  0  0  0  0  0  0  0  0  0  0
   60.9318   29.9159   45.1255 H   0  0  0  0  0  0  0  0  0  0  0  0
   59.3083   29.1762   47.2430 H   0  0  0  0  0  0  0  0  0  0  0  0
   59.0660   30.7892   46.4737 H   0  0  0  0  0  0  0  0  0  0  0  0
   57.0031   29.4002   46.8218 H   0  0  0  0  0  0  0  0  0  0  0  0
   59.0577   33.3404   44.2971 H   0  0  0  0  0  0  0  0  0  0  0  0
   60.9909   34.2841   45.5521 H   0  0  0  0  0  0  0  0  0  0  0  0
   61.6270   35.2374   47.8776 H   0  0  0  0  0  0  0  0  0  0  0  0
   61.1501   34.2111   49.3215 H   0  0  0  0  0  0  0  0  0  0  0  0
   64.3055   34.4008   47.1690 H   0  0  0  0  0  0  0  0  0  0  0  0
   63.6565   32.9615   46.3124 H   0  0  0  0  0  0  0  0  0  0  0  0
   62.7298   34.5002   46.3124 H   0  0  0  0  0  0  0  0  0  0  0  0
   63.0351   33.5245   50.2311 H   0  0  0  0  0  0  0  0  0  0  0  0
   64.4414   32.9837   49.2531 H   0  0  0  0  0  0  0  0  0  0  0  0
   63.9597   34.7142   49.2531 H   0  0  0  0  0  0  0  0  0  0  0  0
   62.3183   31.5526   49.0549 H   0  0  0  0  0  0  0  0  0  0  0  0
   61.4573   31.8279   47.5026 H   0  0  0  0  0  0  0  0  0  0  0  0
   63.2190   31.4770   47.5026 H   0  0  0  0  0  0  0  0  0  0  0  0
   59.2801   32.8509   49.2627 H   0  0  0  0  0  0  0  0  0  0  0  0
   57.3449   31.9099   48.0079 H   0  0  0  0  0  0  0  0  0  0  0  0
  1  2  1  0
  2  3  1  0
  3  4  2  0
  4  5  1  0
  5  6  1  0
  6  7  1  0
  7  8  2  0
  7  9  2  0
  7 10  1  0
 10 11  1  0
 11 12  2  0
 12 13  1  0
 13 14  2  0
 14 15  1  0
 15 16  1  0
 16 17  1  0
 16 18  1  0
 16 19  1  0
 14 20  1  0
 20 21  2  0
  6 22  1  0
 22  2  1  0
 21 11  1  0
  1 23  1  0
  1 24  1  0
  1 25  1  0
  2 26  1  1
  3 27  1  0
  4 28  1  0
  5 29  1  0
  5 30  1  0
  6 31  1  1
 12 32  1  0
 13 33  1  0
 15 34  1  0
 15 35  1  0
 17 36  1  0
 17 37  1  0
 17 38  1  0
 18 39  1  0
 18 40  1  0
 18 41  1  0
 19 42  1  0
 19 43  1  0
 19 44  1  0
 20 45  1  0
 21 46  1  0
M  CHG  2  10  -1  16   1
M  END
>  <UniqueID>  (80) 
75

>  <SMILES>  (80) 
C[C@H]1C=CC[C@@H](S(=O)(=O)[N-]c2ccc(C[N+](C)(C)C)cc2)O1

>  <Energy>  (80) 
57.87568566119062

>  <Genealogy>  (80) 
CC1C=CCC(S(=O)(=O)[N-]c2ccc(C[N+](C)(C)C)cc2)O1 (protonated)
C[C@H]1C=CC[C@@H](S(=O)(=O)[N-]c2ccc(C[N+](C)(C)C)cc2)O1 (chirality)
C[C@H]1C=CC[C@@H](S(=O)(=O)[N-]c2ccc(C[N+](C)(C)C)cc2)O1 (3D coordinates assigned)
C[C@H]1C=CC[C@@H](S(=O)(=O)[N-]c2ccc(C[N+](C)(C)C)cc2)O1 (nonaromatic ring conformer: 57.87568566119062 kcal/mol)

>  <smiles>  (80) 
CC1C=CCC(S(=O)(=O)Nc2ccc(C[N+](C)(C)C)cc2)O1

>  <score_type>  (80) 
oracle

>  <origin>  (80) 
adg

>  <m_score__min__energy>  (80) 
-7.6900000000000004

>  <m_primary>  (80) 
energy

$$$$
80:0
     RDKit          3D

 48 50  0  0  0  0  0  0  0  0999 V2000
   54.7730   29.3350   44.1960 N   0  0  0  0  0  0  0  0  0  0  0  0
   56.4050   29.8770   44.0380 S   0  0  0  0  0  0  0  0  0  0  0  0
   56.7720   29.9430   42.5820 O   0  0  0  0  0  0  0  0  0  0  0  0
   56.5380   31.2510   44.6320 O   0  0  0  0  0  0  0  0  0  0  0  0
   57.4780   28.7610   44.8770 C   0  0  0  0  0  0  0  0  0  0  0  0
   57.9150   27.5870   44.2460 C   0  0  0  0  0  0  0  0  0  0  0  0
   58.7620   26.7020   44.9190 C   0  0  0  0  0  0  0  0  0  0  0  0
   59.1720   26.9790   46.2250 C   0  0  0  0  0  0  0  0  0  0  0  0
   58.7310   28.1440   46.8720 C   0  0  0  0  0  0  0  0  0  0  0  0
   59.1920   28.4670   48.2690 C   0  0  0  0  0  0  0  0  0  0  0  0
   59.7550   29.8310   48.3250 N   0  0  0  0  0  0  0  0  0  0  0  0
   61.0550   29.9110   47.6150 C   0  0  0  0  0  0  0  0  0  0  0  0
   61.9040   31.1360   48.0220 C   0  0  0  0  0  0  0  0  0  0  0  0
   61.0860   32.1720   48.6660 N   0  0  0  0  0  0  0  0  0  0  0  0
   61.3790   33.5610   48.4240 C   0  0  0  0  0  0  0  0  0  0  0  0
   62.5610   33.9150   48.1660 O   0  0  0  0  0  0  0  0  0  0  0  0
   60.2910   34.5980   48.4140 C   0  0  0  0  0  0  0  0  0  0  0  0
   59.3740   34.3920   47.2350 C   0  0  0  0  0  0  0  0  0  0  0  0
   59.6840   34.9630   45.9890 C   0  0  0  0  0  0  0  0  0  0  0  0
   58.8410   34.7630   44.8920 C   0  0  0  0  0  0  0  0  0  0  0  0
   57.6810   33.9990   45.0310 C   0  0  0  0  0  0  0  0  0  0  0  0
   57.3590   33.4340   46.2670 C   0  0  0  0  0  0  0  0  0  0  0  0
   58.1990   33.6320   47.3680 C   0  0  0  0  0  0  0  0  0  0  0  0
   60.1210   31.7970   49.7090 C   0  0  0  0  0  0  0  0  0  0  0  0
   59.8850   30.2870   49.7170 C   0  0  0  0  0  0  0  0  0  0  0  0
   57.8840   29.0330   46.1910 C   0  0  0  0  0  0  0  0  0  0  0  0
   54.5350   29.3770   45.2120 H   0  0  0  0  0  0  0  0  0  0  0  0
   57.5904   27.3623   43.2193 H   0  0  0  0  0  0  0  0  0  0  0  0
   59.1066   25.7849   44.4187 H   0  0  0  0  0  0  0  0  0  0  0  0
   59.8428   26.2818   46.7484 H   0  0  0  0  0  0  0  0  0  0  0  0
   58.3365   28.3999   48.9572 H   0  0  0  0  0  0  0  0  0  0  0  0
   59.9713   27.7480   48.5618 H   0  0  0  0  0  0  0  0  0  0  0  0
   61.6297   28.9997   47.8368 H   0  0  0  0  0  0  0  0  0  0  0  0
   60.8327   30.0128   46.5425 H   0  0  0  0  0  0  0  0  0  0  0  0
   62.6858   30.8109   48.7243 H   0  0  0  0  0  0  0  0  0  0  0  0
   62.3471   31.5649   47.1111 H   0  0  0  0  0  0  0  0  0  0  0  0
   59.7081   34.5197   49.3436 H   0  0  0  0  0  0  0  0  0  0  0  0
   60.7507   35.5943   48.3365 H   0  0  0  0  0  0  0  0  0  0  0  0
   60.5943   35.5702   45.8764 H   0  0  0  0  0  0  0  0  0  0  0  0
   59.0920   35.2082   43.9180 H   0  0  0  0  0  0  0  0  0  0  0  0
   57.0198   33.8418   44.1661 H   0  0  0  0  0  0  0  0  0  0  0  0
   56.4441   32.8328   46.3748 H   0  0  0  0  0  0  0  0  0  0  0  0
   57.9390   33.1912   48.3417 H   0  0  0  0  0  0  0  0  0  0  0  0
   60.5127   32.1054   50.6896 H   0  0  0  0  0  0  0  0  0  0  0  0
   59.1655   32.3007   49.5009 H   0  0  0  0  0  0  0  0  0  0  0  0
   60.7358   29.7804   50.1961 H   0  0  0  0  0  0  0  0  0  0  0  0
   58.9700   30.0501   50.2797 H   0  0  0  0  0  0  0  0  0  0  0  0
   57.5368   29.9488   46.6917 H   0  0  0  0  0  0  0  0  0  0  0  0
  1  2  1  0
  2  3  2  0
  2  4  2  0
  2  5  1  0
  5  6  2  0
  6  7  1  0
  7  8  2  0
  8  9  1  0
  9 10  1  0
 10 11  1  0
 11 12  1  0
 12 13  1  0
 13 14  1  0
 14 15  1  0
 15 16  2  0
 15 17  1  0
 17 18  1  0
 18 19  2  0
 19 20  1  0
 20 21  2  0
 21 22  1  0
 22 23  2  0
 14 24  1  0
 24 25  1  0
  9 26  2  0
 26  5  1  0
 25 11  1  0
 23 18  1  0
  1 27  1  0
  6 28  1  0
  7 29  1  0
  8 30  1  0
 10 31  1  0
 10 32  1  0
 12 33  1  0
 12 34  1  0
 13 35  1  0
 13 36  1  0
 17 37  1  0
 17 38  1  0
 19 39  1  0
 20 40  1  0
 21 41  1  0
 22 42  1  0
 23 43  1  0
 24 44  1  0
 24 45  1  0
 25 46  1  0
 25 47  1  0
 26 48  1  0
M  CHG  1   1  -1
M  END
>  <UniqueID>  (81) 
76

>  <SMILES>  (81) 
[NH-]S(=O)(=O)c1cccc(CN2CCN(C(=O)Cc3ccccc3)CC2)c1

>  <Energy>  (81) 
52.72117218431501

>  <Genealogy>  (81) 
[NH-]S(=O)(=O)c1cccc(CN2CCN(C(=O)Cc3ccccc3)CC2)c1 (protonated)
[NH-]S(=O)(=O)c1cccc(CN2CCN(C(=O)Cc3ccccc3)CC2)c1 (3D coordinates assigned)
[NH-]S(=O)(=O)c1cccc(CN2CCN(C(=O)Cc3ccccc3)CC2)c1 (nonaromatic ring conformer: 52.72117218431501 kcal/mol)

>  <smiles>  (81) 
NS(=O)(=O)c1cccc(CN2CCN(C(=O)Cc3ccccc3)CC2)c1

>  <score_type>  (81) 
oracle

>  <origin>  (81) 
adg

>  <m_score__min__energy>  (81) 
-11.65

>  <m_primary>  (81) 
energy

$$$$
81:0
     RDKit          3D

 52 55  0  0  0  0  0  0  0  0999 V2000
   55.5670   28.8830   45.0150 O   0  0  0  0  0  0  0  0  0  0  0  0
   56.6760   28.3540   45.3040 C   0  0  0  0  0  0  0  0  0  0  0  0
   56.8090   26.8690   45.2830 C   0  0  0  0  0  0  0  0  0  0  0  0
   55.7790   26.2850   46.1380 N   0  0  0  0  0  0  0  0  0  0  0  0
   56.2650   24.6970   46.6460 S   0  0  0  0  0  0  0  0  0  0  0  0
   55.1680   24.0870   47.4740 O   0  0  0  0  0  0  0  0  0  0  0  0
   57.5110   24.7990   47.4830 O   0  0  0  0  0  0  0  0  0  0  0  0
   56.5590   23.6760   45.2420 C   0  0  0  0  0  0  0  0  0  0  0  0
   57.6170   22.7560   45.2380 C   0  0  0  0  0  0  0  0  0  0  0  0
   57.8450   21.9510   44.1170 C   0  0  0  0  0  0  0  0  0  0  0  0
   57.0140   22.0610   42.9970 C   0  0  0  0  0  0  0  0  0  0  0  0
   55.9550   22.9730   42.9980 C   0  0  0  0  0  0  0  0  0  0  0  0
   55.7250   23.7780   44.1190 C   0  0  0  0  0  0  0  0  0  0  0  0
   57.8310   29.1550   45.6050 N   0  0  0  0  0  0  0  0  0  0  0  0
   58.4370   29.2530   46.7520 C   0  0  0  0  0  0  0  0  0  0  0  0
   59.0120   28.1110   47.3220 C   0  0  0  0  0  0  0  0  0  0  0  0
   59.6750   28.2130   48.5470 C   0  0  0  0  0  0  0  0  0  0  0  0
   59.7520   29.4450   49.1950 C   0  0  0  0  0  0  0  0  0  0  0  0
   59.1460   30.5660   48.6130 C   0  0  0  0  0  0  0  0  0  0  0  0
   59.2390   31.8880   49.2490 C   0  0  0  0  0  0  0  0  0  0  0  0
   58.9150   31.9670   50.4640 O   0  0  0  0  0  0  0  0  0  0  0  0
   59.6650   33.0730   48.5230 N   0  0  0  0  0  0  0  0  0  0  0  0
   60.9060   33.7830   48.8560 C   0  0  0  0  0  0  0  0  0  0  0  0
   61.8860   33.6170   47.6970 C   0  0  0  0  0  0  0  0  0  0  0  0
   61.3090   34.2290   46.4090 C   0  0  0  0  0  0  0  0  0  0  0  0
   59.8280   33.9680   46.2240 C   0  0  0  0  0  0  0  0  0  0  0  0
   59.2220   34.3350   45.0130 C   0  0  0  0  0  0  0  0  0  0  0  0
   57.8400   34.2230   44.8500 C   0  0  0  0  0  0  0  0  0  0  0  0
   57.0470   33.7720   45.9050 C   0  0  0  0  0  0  0  0  0  0  0  0
   57.6330   33.4060   47.1190 C   0  0  0  0  0  0  0  0  0  0  0  0
   59.0310   33.4660   47.2830 C   0  0  0  0  0  0  0  0  0  0  0  0
   58.5240   30.4450   47.4100 N   0  0  0  0  0  0  0  0  0  0  0  0
   56.6844   26.5025   44.2534 H   0  0  0  0  0  0  0  0  0  0  0  0
   57.8043   26.5807   45.6520 H   0  0  0  0  0  0  0  0  0  0  0  0
   58.2697   22.6670   46.1190 H   0  0  0  0  0  0  0  0  0  0  0  0
   58.6773   21.2318   44.1161 H   0  0  0  0  0  0  0  0  0  0  0  0
   57.1942   21.4291   42.1148 H   0  0  0  0  0  0  0  0  0  0  0  0
   55.3019   23.0580   42.1169 H   0  0  0  0  0  0  0  0  0  0  0  0
   54.8884   24.4923   44.1196 H   0  0  0  0  0  0  0  0  0  0  0  0
   58.9422   27.1405   46.8089 H   0  0  0  0  0  0  0  0  0  0  0  0
   60.1357   27.3227   48.9998 H   0  0  0  0  0  0  0  0  0  0  0  0
   60.2834   29.5360   50.1538 H   0  0  0  0  0  0  0  0  0  0  0  0
   60.6922   34.8509   49.0109 H   0  0  0  0  0  0  0  0  0  0  0  0
   61.3402   33.3700   49.7784 H   0  0  0  0  0  0  0  0  0  0  0  0
   62.8302   34.1232   47.9465 H   0  0  0  0  0  0  0  0  0  0  0  0
   62.0621   32.5438   47.5320 H   0  0  0  0  0  0  0  0  0  0  0  0
   61.4693   35.3168   46.4387 H   0  0  0  0  0  0  0  0  0  0  0  0
   61.8285   33.7525   45.5646 H   0  0  0  0  0  0  0  0  0  0  0  0
   59.8404   34.7138   44.1859 H   0  0  0  0  0  0  0  0  0  0  0  0
   57.3763   34.4906   43.8891 H   0  0  0  0  0  0  0  0  0  0  0  0
   55.9562   33.7043   45.7806 H   0  0  0  0  0  0  0  0  0  0  0  0
   56.9989   33.0688   47.9522 H   0  0  0  0  0  0  0  0  0  0  0  0
  1  2  2  0
  2  3  1  0
  3  4  1  0
  4  5  1  0
  5  6  2  0
  5  7  2  0
  5  8  1  0
  8  9  2  0
  9 10  1  0
 10 11  2  0
 11 12  1  0
 12 13  2  0
  2 14  1  0
 14 15  2  3
 15 16  1  0
 16 17  2  0
 17 18  1  0
 18 19  2  0
 19 20  1  0
 20 21  2  0
 20 22  1  0
 22 23  1  0
 23 24  1  0
 24 25  1  0
 25 26  1  0
 26 27  2  0
 27 28  1  0
 28 29  2  0
 29 30  1  0
 30 31  2  0
 19 32  1  0
 13  8  1  0
 32 15  1  0
 31 22  1  0
 31 26  1  0
  3 33  1  0
  3 34  1  0
  9 35  1  0
 10 36  1  0
 11 37  1  0
 12 38  1  0
 13 39  1  0
 16 40  1  0
 17 41  1  0
 18 42  1  0
 23 43  1  0
 23 44  1  0
 24 45  1  0
 24 46  1  0
 25 47  1  0
 25 48  1  0
 27 49  1  0
 28 50  1  0
 29 51  1  0
 30 52  1  0
M  CHG  2   4  -1  32  -1
M  END
>  <UniqueID>  (82) 
77

>  <SMILES>  (82) 
O=C(C[N-]S(=O)(=O)c1ccccc1)N=c1cccc(C(=O)N2CCCc3ccccc32)[n-]1

>  <Energy>  (82) 
70.70758417473053

>  <Genealogy>  (82) 
O=C(C[N-]S(=O)(=O)c1ccccc1)N=c1cccc(C(=O)N2CCCc3ccccc32)[n-]1 (protonated)
O=C(C[N-]S(=O)(=O)c1ccccc1)N=c1cccc(C(=O)N2CCCc3ccccc32)[n-]1 (3D coordinates assigned)
O=C(C[N-]S(=O)(=O)c1ccccc1)N=c1cccc(C(=O)N2CCCc3ccccc32)[n-]1 (nonaromatic ring conformer: 70.70758417473053 kcal/mol)

>  <smiles>  (82) 
O=C(CNS(=O)(=O)c1ccccc1)N=c1cccc(C(=O)N2CCCc3ccccc32)[nH]1

>  <score_type>  (82) 
oracle

>  <origin>  (82) 
adg

>  <m_score__min__energy>  (82) 
-14.15

>  <m_primary>  (82) 
energy

$$$$
82:0
     RDKit          3D

 55 58  0  0  0  0  0  0  0  0999 V2000
   54.5580   26.1710   45.9590 N   0  0  0  0  0  0  0  0  0  0  0  0
   56.0050   25.2300   46.0410 S   0  0  0  0  0  0  0  0  0  0  0  0
   56.0080   24.4230   47.3080 O   0  0  0  0  0  0  0  0  0  0  0  0
   56.0560   24.2890   44.8700 O   0  0  0  0  0  0  0  0  0  0  0  0
   57.4050   26.2980   46.0060 C   0  0  0  0  0  0  0  0  0  0  0  0
   57.8350   26.8560   44.7970 C   0  0  0  0  0  0  0  0  0  0  0  0
   58.9530   27.6920   44.7690 C   0  0  0  0  0  0  0  0  0  0  0  0
   59.6520   27.9710   45.9470 C   0  0  0  0  0  0  0  0  0  0  0  0
   59.2390   27.4110   47.1690 C   0  0  0  0  0  0  0  0  0  0  0  0
   59.9650   27.6830   48.4310 C   0  0  0  0  0  0  0  0  0  0  0  0
   60.4500   26.7480   49.3360 C   0  0  0  0  0  0  0  0  0  0  0  0
   61.0430   27.4730   50.3480 C   0  0  0  0  0  0  0  0  0  0  0  0
   60.8890   28.7990   49.9990 C   0  0  0  0  0  0  0  0  0  0  0  0
   61.3460   29.9780   50.8000 C   0  0  0  0  0  0  0  0  0  0  0  0
   61.8450   31.0790   49.9010 C   0  0  0  0  0  0  0  0  0  0  0  0
   63.0910   31.2340   49.7610 O   0  0  0  0  0  0  0  0  0  0  0  0
   60.9350   31.9170   49.1560 N   0  0  0  0  0  0  0  0  0  0  0  0
   61.4260   33.1430   48.5180 C   0  0  0  0  0  0  0  0  0  0  0  0
   60.3250   34.2140   48.5120 C   0  0  0  0  0  0  0  0  0  0  0  0
   59.0190   33.7320   47.9790 N   0  0  0  0  0  0  0  0  0  0  0  0
   58.5110   34.5900   46.8730 C   0  0  0  0  0  0  0  0  0  0  0  0
   59.5980   35.0150   45.8690 C   0  0  0  0  0  0  0  0  0  0  0  0
   59.2130   34.4320   44.5130 C   0  0  0  0  0  0  0  0  0  0  0  0
   58.0590   33.4690   44.7540 C   0  0  0  0  0  0  0  0  0  0  0  0
   57.4080   33.9110   46.0540 C   0  0  0  0  0  0  0  0  0  0  0  0
   58.9430   32.2700   47.7350 C   0  0  0  0  0  0  0  0  0  0  0  0
   59.5570   31.4830   48.8950 C   0  0  0  0  0  0  0  0  0  0  0  0
   60.2430   28.8940   48.8610 O   0  0  0  0  0  0  0  0  0  0  0  0
   58.1110   26.5700   47.1860 C   0  0  0  0  0  0  0  0  0  0  0  0
   54.7730   27.0950   46.3980 H   0  0  0  0  0  0  0  0  0  0  0  0
   57.2911   26.6356   43.8666 H   0  0  0  0  0  0  0  0  0  0  0  0
   59.2847   28.1324   43.8171 H   0  0  0  0  0  0  0  0  0  0  0  0
   60.5304   28.6326   45.9179 H   0  0  0  0  0  0  0  0  0  0  0  0
   60.3762   25.6530   49.2609 H   0  0  0  0  0  0  0  0  0  0  0  0
   61.5367   27.0763   51.2474 H   0  0  0  0  0  0  0  0  0  0  0  0
   60.5033   30.3555   51.3978 H   0  0  0  0  0  0  0  0  0  0  0  0
   62.1701   29.6591   51.4552 H   0  0  0  0  0  0  0  0  0  0  0  0
   62.2964   33.5195   49.0754 H   0  0  0  0  0  0  0  0  0  0  0  0
   61.7140   32.9178   47.4805 H   0  0  0  0  0  0  0  0  0  0  0  0
   60.1717   34.5594   49.5451 H   0  0  0  0  0  0  0  0  0  0  0  0
   60.6655   35.0194   47.8447 H   0  0  0  0  0  0  0  0  0  0  0  0
   58.1218   35.4733   47.4005 H   0  0  0  0  0  0  0  0  0  0  0  0
   59.6459   36.1122   45.8075 H   0  0  0  0  0  0  0  0  0  0  0  0
   60.5859   34.6487   46.1850 H   0  0  0  0  0  0  0  0  0  0  0  0
   58.8980   35.2362   43.8318 H   0  0  0  0  0  0  0  0  0  0  0  0
   60.0668   33.9140   44.0517 H   0  0  0  0  0  0  0  0  0  0  0  0
   57.3362   33.5242   43.9267 H   0  0  0  0  0  0  0  0  0  0  0  0
   58.4091   32.4279   44.8128 H   0  0  0  0  0  0  0  0  0  0  0  0
   56.5922   34.6203   45.8505 H   0  0  0  0  0  0  0  0  0  0  0  0
   56.9729   33.0581   46.5956 H   0  0  0  0  0  0  0  0  0  0  0  0
   57.8881   31.9793   47.6227 H   0  0  0  0  0  0  0  0  0  0  0  0
   59.5082   32.0396   46.8198 H   0  0  0  0  0  0  0  0  0  0  0  0
   58.9518   31.6447   49.7992 H   0  0  0  0  0  0  0  0  0  0  0  0
   59.5712   30.4166   48.6255 H   0  0  0  0  0  0  0  0  0  0  0  0
   57.7800   26.1217   48.1344 H   0  0  0  0  0  0  0  0  0  0  0  0
  1  2  1  0
  2  3  2  0
  2  4  2  0
  2  5  1  0
  5  6  2  0
  6  7  1  0
  7  8  2  0
  8  9  1  0
  9 10  1  0
 10 11  2  0
 11 12  1  0
 12 13  2  0
 13 14  1  0
 14 15  1  0
 15 16  2  0
 15 17  1  0
 17 18  1  0
 18 19  1  0
 19 20  1  0
 20 21  1  0
 21 22  1  0
 22 23  1  0
 23 24  1  0
 24 25  1  0
 20 26  1  0
 26 27  1  0
 13 28  1  0
  9 29  2  0
 29  5  1  0
 28 10  1  0
 27 17  1  0
 25 21  1  0
  1 30  1  0
  6 31  1  0
  7 32  1  0
  8 33  1  0
 11 34  1  0
 12 35  1  0
 14 36  1  0
 14 37  1  0
 18 38  1  0
 18 39  1  0
 19 40  1  0
 19 41  1  0
 21 42  1  0
 22 43  1  0
 22 44  1  0
 23 45  1  0
 23 46  1  0
 24 47  1  0
 24 48  1  0
 25 49  1  0
 25 50  1  0
 26 51  1  0
 26 52  1  0
 27 53  1  0
 27 54  1  0
 29 55  1  0
M  CHG  1   1  -1
M  END
>  <UniqueID>  (83) 
78

>  <SMILES>  (83) 
[NH-]S(=O)(=O)c1cccc(-c2ccc(CC(=O)N3CCN(C4CCCC4)CC3)o2)c1

>  <Energy>  (83) 
95.56144018506447

>  <Genealogy>  (83) 
[NH-]S(=O)(=O)c1cccc(-c2ccc(CC(=O)N3CCN(C4CCCC4)CC3)o2)c1 (protonated)
[NH-]S(=O)(=O)c1cccc(-c2ccc(CC(=O)N3CCN(C4CCCC4)CC3)o2)c1 (3D coordinates assigned)
[NH-]S(=O)(=O)c1cccc(-c2ccc(CC(=O)N3CCN(C4CCCC4)CC3)o2)c1 (nonaromatic ring conformer: 95.56144018506447 kcal/mol)

>  <smiles>  (83) 
NS(=O)(=O)c1cccc(-c2ccc(CC(=O)N3CCN(C4CCCC4)CC3)o2)c1

>  <score_type>  (83) 
oracle

>  <origin>  (83) 
adg

>  <m_score__min__energy>  (83) 
-13.119999999999999

>  <m_primary>  (83) 
energy

$$$$
83:0
     RDKit          3D

 41 43  0  0  0  0  0  0  0  0999 V2000
   59.5620   29.1120   45.0390 O   0  0  0  0  0  0  0  0  0  0  0  0
   58.4070   29.2000   45.5400 C   0  0  0  0  0  0  0  0  0  0  0  0
   57.7780   30.4880   45.6550 N   0  0  0  0  0  0  0  0  0  0  0  0
   58.5010   31.7300   45.6830 C   0  0  0  0  0  0  0  0  0  0  0  0
   57.9350   32.8710   45.0940 C   0  0  0  0  0  0  0  0  0  0  0  0
   58.6080   34.0950   45.1320 C   0  0  0  0  0  0  0  0  0  0  0  0
   59.8470   34.1940   45.7690 C   0  0  0  0  0  0  0  0  0  0  0  0
   60.4190   33.0690   46.3740 C   0  0  0  0  0  0  0  0  0  0  0  0
   61.9640   33.2200   47.2070 S   0  0  0  0  0  0  0  0  0  0  0  0
   62.8060   34.2260   46.4710 O   0  0  0  0  0  0  0  0  0  0  0  0
   62.6800   31.8970   47.1960 O   0  0  0  0  0  0  0  0  0  0  0  0
   61.6800   33.7550   48.8500 N   0  0  0  0  0  0  0  0  0  0  0  0
   60.2870   34.2160   49.0480 C   0  0  0  0  0  0  0  0  0  0  0  0
   59.3950   33.1500   49.7100 C   0  0  0  0  0  0  0  0  0  0  0  0
   59.8070   31.8590   49.3230 O   0  0  0  0  0  0  0  0  0  0  0  0
   61.0690   31.5550   49.8920 C   0  0  0  0  0  0  0  0  0  0  0  0
   62.0740   32.7310   49.8320 C   0  0  0  0  0  0  0  0  0  0  0  0
   59.7420   31.8410   46.3400 C   0  0  0  0  0  0  0  0  0  0  0  0
   57.6970   27.9670   45.9560 C   0  0  0  0  0  0  0  0  0  0  0  0
   56.3600   27.7400   45.5830 C   0  0  0  0  0  0  0  0  0  0  0  0
   55.7140   26.5730   45.9970 C   0  0  0  0  0  0  0  0  0  0  0  0
   54.3940   26.3410   45.6330 O   0  0  0  0  0  0  0  0  0  0  0  0
   56.3730   25.6610   46.7600 N   0  0  0  0  0  0  0  0  0  0  0  0
   57.6620   25.8530   47.1450 C   0  0  0  0  0  0  0  0  0  0  0  0
   58.2380   24.9870   47.8540 O   0  0  0  0  0  0  0  0  0  0  0  0
   58.3460   27.0090   46.7550 C   0  0  0  0  0  0  0  0  0  0  0  0
   56.7350   30.5310   45.6050 H   0  0  0  0  0  0  0  0  0  0  0  0
   56.9551   32.8014   44.5991 H   0  0  0  0  0  0  0  0  0  0  0  0
   58.1612   34.9821   44.6594 H   0  0  0  0  0  0  0  0  0  0  0  0
   60.3747   35.1588   45.7953 H   0  0  0  0  0  0  0  0  0  0  0  0
   60.3003   35.1103   49.6883 H   0  0  0  0  0  0  0  0  0  0  0  0
   59.8649   34.4316   48.0554 H   0  0  0  0  0  0  0  0  0  0  0  0
   59.4699   33.2423   50.8036 H   0  0  0  0  0  0  0  0  0  0  0  0
   58.3542   33.3048   49.3893 H   0  0  0  0  0  0  0  0  0  0  0  0
   60.9182   31.2796   50.9462 H   0  0  0  0  0  0  0  0  0  0  0  0
   61.4993   30.7319   49.3027 H   0  0  0  0  0  0  0  0  0  0  0  0
   62.1312   33.1982   50.8262 H   0  0  0  0  0  0  0  0  0  0  0  0
   63.0480   32.3250   49.5215 H   0  0  0  0  0  0  0  0  0  0  0  0
   60.1827   30.9598   46.8291 H   0  0  0  0  0  0  0  0  0  0  0  0
   55.8253   28.4786   44.9677 H   0  0  0  0  0  0  0  0  0  0  0  0
   59.3873   27.1681   47.0720 H   0  0  0  0  0  0  0  0  0  0  0  0
  1  2  2  0
  2  3  1  0
  3  4  1  0
  4  5  2  0
  5  6  1  0
  6  7  2  0
  7  8  1  0
  8  9  1  0
  9 10  2  0
  9 11  2  0
  9 12  1  0
 12 13  1  0
 13 14  1  0
 14 15  1  0
 15 16  1  0
 16 17  1  0
  8 18  2  0
  2 19  1  0
 19 20  1  0
 20 21  2  0
 21 22  1  0
 21 23  1  0
 23 24  1  0
 24 25  2  0
 24 26  1  0
 18  4  1  0
 26 19  2  0
 17 12  1  0
  3 27  1  0
  5 28  1  0
  6 29  1  0
  7 30  1  0
 13 31  1  0
 13 32  1  0
 14 33  1  0
 14 34  1  0
 16 35  1  0
 16 36  1  0
 17 37  1  0
 17 38  1  0
 18 39  1  0
 20 40  1  0
 26 41  1  0
M  CHG  2  22  -1  23  -1
M  END
>  <UniqueID>  (84) 
79

>  <SMILES>  (84) 
O=C(Nc1cccc(S(=O)(=O)N2CCOCC2)c1)c1cc([O-])[n-]c(=O)c1

>  <Energy>  (84) 
59.894924089906496

>  <Genealogy>  (84) 
O=C(Nc1cccc(S(=O)(=O)N2CCOCC2)c1)c1cc([O-])[n-]c(=O)c1 (protonated)
O=C(Nc1cccc(S(=O)(=O)N2CCOCC2)c1)c1cc([O-])[n-]c(=O)c1 (3D coordinates assigned)
O=C(Nc1cccc(S(=O)(=O)N2CCOCC2)c1)c1cc([O-])[n-]c(=O)c1 (nonaromatic ring conformer: 59.894924089906496 kcal/mol)

>  <smiles>  (84) 
O=C(Nc1cccc(S(=O)(=O)N2CCOCC2)c1)c1cc(O)[nH]c(=O)c1

>  <score_type>  (84) 
oracle

>  <origin>  (84) 
adg

>  <m_score__min__energy>  (84) 
-14.25

>  <m_primary>  (84) 
energy

$$$$
84:0
     RDKit          3D

 41 43  0  0  0  0  0  0  0  0999 V2000
   55.0370   29.3430   44.3520 N   0  0  0  0  0  0  0  0  0  0  0  0
   56.2130   29.8760   44.3010 C   0  0  0  0  0  0  0  0  0  0  0  0
   57.1200   29.7410   45.2890 N   0  0  0  0  0  0  0  0  0  0  0  0
   58.2740   30.3990   44.9920 C   0  0  0  0  0  0  0  0  0  0  0  0
   59.4580   30.3660   45.9080 C   0  0  0  0  0  0  0  0  0  0  0  0
   59.0090   30.0740   47.3040 C   0  0  0  0  0  0  0  0  0  0  0  0
   58.5460   31.0040   48.0190 O   0  0  0  0  0  0  0  0  0  0  0  0
   59.1060   28.7370   47.8100 N   0  0  0  0  0  0  0  0  0  0  0  0
   58.7530   27.5370   47.1080 C   0  0  0  0  0  0  0  0  0  0  0  0
   59.7530   26.6060   46.8310 C   0  0  0  0  0  0  0  0  0  0  0  0
   59.4520   25.4080   46.1830 C   0  0  0  0  0  0  0  0  0  0  0  0
   58.1230   25.0970   45.8230 C   0  0  0  0  0  0  0  0  0  0  0  0
   57.7830   23.8850   45.1760 C   0  0  0  0  0  0  0  0  0  0  0  0
   58.7950   22.9120   44.8560 N   0  0  0  0  0  0  0  0  0  0  0  0
   56.4390   23.6460   44.8120 C   0  0  0  0  0  0  0  0  0  0  0  0
   56.0250   22.3680   44.1840 C   0  0  0  0  0  0  0  0  0  0  0  0
   55.8820   22.2950   42.9330 O   0  0  0  0  0  0  0  0  0  0  0  0
   55.8080   21.2100   44.9990 N   0  0  0  0  0  0  0  0  0  0  0  0
   55.6340   21.2630   46.4460 C   0  0  0  0  0  0  0  0  0  0  0  0
   56.9590   21.4290   47.1200 C   0  0  0  0  0  0  0  0  0  0  0  0
   57.9770   20.8340   46.6770 O   0  0  0  0  0  0  0  0  0  0  0  0
   57.0750   22.2560   48.2300 O   0  0  0  0  0  0  0  0  0  0  0  0
   55.4660   24.6220   45.1030 C   0  0  0  0  0  0  0  0  0  0  0  0
   54.2580   24.4200   44.8010 O   0  0  0  0  0  0  0  0  0  0  0  0
   55.8100   25.7810   45.7320 N   0  0  0  0  0  0  0  0  0  0  0  0
   54.8160   26.7010   45.9970 O   0  0  0  0  0  0  0  0  0  0  0  0
   57.1000   26.0410   46.0990 C   0  0  0  0  0  0  0  0  0  0  0  0
   57.4260   27.2470   46.7540 C   0  0  0  0  0  0  0  0  0  0  0  0
   58.2870   31.0460   43.7560 C   0  0  0  0  0  0  0  0  0  0  0  0
   56.7920   30.7990   43.0200 S   0  0  0  0  0  0  0  0  0  0  0  0
   54.9160   28.3130   44.4680 H   0  0  0  0  0  0  0  0  0  0  0  0
   60.1546   29.5818   45.5767 H   0  0  0  0  0  0  0  0  0  0  0  0
   59.9628   31.3431   45.8852 H   0  0  0  0  0  0  0  0  0  0  0  0
   60.7910   26.8185   47.1267 H   0  0  0  0  0  0  0  0  0  0  0  0
   60.2591   24.6979   45.9500 H   0  0  0  0  0  0  0  0  0  0  0  0
   59.7780   23.1890   44.6440 H   0  0  0  0  0  0  0  0  0  0  0  0
   58.5950   21.8890   44.9030 H   0  0  0  0  0  0  0  0  0  0  0  0
   54.9864   22.1142   46.7031 H   0  0  0  0  0  0  0  0  0  0  0  0
   55.1732   20.3241   46.7867 H   0  0  0  0  0  0  0  0  0  0  0  0
   56.6305   27.9691   46.9903 H   0  0  0  0  0  0  0  0  0  0  0  0
   59.1272   31.6179   43.3353 H   0  0  0  0  0  0  0  0  0  0  0  0
  1  2  2  3
  2  3  1  0
  3  4  1  0
  4  5  1  0
  5  6  1  0
  6  7  2  0
  6  8  1  0
  8  9  1  0
  9 10  2  0
 10 11  1  0
 11 12  2  0
 12 13  1  0
 13 14  1  0
 13 15  2  0
 15 16  1  0
 16 17  2  0
 16 18  1  0
 18 19  1  0
 19 20  1  0
 20 21  2  0
 20 22  1  0
 15 23  1  0
 23 24  2  0
 23 25  1  0
 25 26  1  0
 25 27  1  0
 27 28  2  0
  4 29  2  0
 29 30  1  0
 30  2  1  0
 28  9  1  0
 27 12  1  0
  1 31  1  0
  5 32  1  0
  5 33  1  0
 10 34  1  0
 11 35  1  0
 14 36  1  0
 14 37  1  0
 19 38  1  0
 19 39  1  0
 28 40  1  0
 29 41  1  0
M  CHG  5   3  -1   8  -1  18  -1  22  -1  26  -1
M  END
>  <UniqueID>  (85) 
80

>  <SMILES>  (85) 
N=c1[n-]c(CC(=O)[N-]c2ccc3c(N)c(C(=O)[N-]CC(=O)[O-])c(=O)n([O-])c3c2)cs1

>  <Energy>  (85) 
88.11160300369824

>  <Genealogy>  (85) 
N=c1[n-]c(CC(=O)[N-]c2ccc3c(N)c(C(=O)[N-]CC(=O)[O-])c(=O)n([O-])c3c2)cs1 (protonated)
N=c1[n-]c(CC(=O)[N-]c2ccc3c(N)c(C(=O)[N-]CC(=O)[O-])c(=O)n([O-])c3c2)cs1 (3D coordinates assigned)
N=c1[n-]c(CC(=O)[N-]c2ccc3c(N)c(C(=O)[N-]CC(=O)[O-])c(=O)n([O-])c3c2)cs1 (optimized conformer: 88.11160300369824 kcal/mol)

>  <smiles>  (85) 
N=c1[nH]c(CC(=O)Nc2ccc3c(N)c(C(=O)NCC(=O)O)c(=O)n(O)c3c2)cs1

>  <score_type>  (85) 
oracle

>  <origin>  (85) 
adg

>  <m_score__min__energy>  (85) 
-17.73

>  <m_primary>  (85) 
energy

$$$$
85:0
     RDKit          3D

 49 51  0  0  0  0  0  0  0  0999 V2000
   63.0840   33.8290   46.4020 C   0  0  0  0  0  0  0  0  0  0  0  0
   63.4220   32.8900   47.5540 C   0  0  0  0  0  0  0  0  0  0  0  0
   62.1980   32.4580   48.2390 N   0  0  0  0  0  0  0  0  0  0  0  0
   61.6250   31.3210   47.8390 N   0  0  0  0  0  0  0  0  0  0  0  0
   60.4820   30.8350   48.3880 C   0  0  0  0  0  0  0  0  0  0  0  0
   59.9910   29.5330   47.8940 C   0  0  0  0  0  0  0  0  0  0  0  0
   60.5610   28.4780   48.2820 O   0  0  0  0  0  0  0  0  0  0  0  0
   58.8280   29.4560   47.0560 N   0  0  0  0  0  0  0  0  0  0  0  0
   58.3050   28.1830   46.5620 C   0  0  0  0  0  0  0  0  0  0  0  0
   57.0370   28.3850   45.7750 C   0  0  0  0  0  0  0  0  0  0  0  0
   56.4030   27.3830   45.3490 O   0  0  0  0  0  0  0  0  0  0  0  0
   56.5610   29.6940   45.4330 N   0  0  0  0  0  0  0  0  0  0  0  0
   57.1300   30.5650   44.4080 C   0  0  0  0  0  0  0  0  0  0  0  0
   57.7350   31.7950   45.0310 C   0  0  0  0  0  0  0  0  0  0  0  0
   56.9520   32.9430   45.2260 C   0  0  0  0  0  0  0  0  0  0  0  0
   57.5110   34.0900   45.7980 C   0  0  0  0  0  0  0  0  0  0  0  0
   58.8620   34.1060   46.1760 C   0  0  0  0  0  0  0  0  0  0  0  0
   59.4510   35.3250   46.8240 C   0  0  0  0  0  0  0  0  0  0  0  0
   59.6390   32.9500   46.0080 C   0  0  0  0  0  0  0  0  0  0  0  0
   59.0800   31.8030   45.4360 C   0  0  0  0  0  0  0  0  0  0  0  0
   59.8360   31.5810   49.3970 C   0  0  0  0  0  0  0  0  0  0  0  0
   58.5940   31.1980   49.9480 C   0  0  0  0  0  0  0  0  0  0  0  0
   57.9950   31.9630   50.9500 C   0  0  0  0  0  0  0  0  0  0  0  0
   58.6120   33.1280   51.4060 C   0  0  0  0  0  0  0  0  0  0  0  0
   59.8220   33.5430   50.8510 C   0  0  0  0  0  0  0  0  0  0  0  0
   60.4390   32.7850   49.8360 C   0  0  0  0  0  0  0  0  0  0  0  0
   61.6360   33.2100   49.2340 C   0  0  0  0  0  0  0  0  0  0  0  0
   62.1840   34.2870   49.6030 O   0  0  0  0  0  0  0  0  0  0  0  0
   62.7372   34.7924   46.8039 H   0  0  0  0  0  0  0  0  0  0  0  0
   63.9805   33.9903   45.7853 H   0  0  0  0  0  0  0  0  0  0  0  0
   62.2904   33.3819   45.7853 H   0  0  0  0  0  0  0  0  0  0  0  0
   63.9473   32.0075   47.1599 H   0  0  0  0  0  0  0  0  0  0  0  0
   64.0631   33.4228   48.2718 H   0  0  0  0  0  0  0  0  0  0  0  0
   58.2850   30.3260   46.8540 H   0  0  0  0  0  0  0  0  0  0  0  0
   59.0588   27.7125   45.9136 H   0  0  0  0  0  0  0  0  0  0  0  0
   58.0808   27.5394   47.4254 H   0  0  0  0  0  0  0  0  0  0  0  0
   57.9105   30.0163   43.8605 H   0  0  0  0  0  0  0  0  0  0  0  0
   56.3280   30.8742   43.7215 H   0  0  0  0  0  0  0  0  0  0  0  0
   55.8933   32.9406   44.9274 H   0  0  0  0  0  0  0  0  0  0  0  0
   56.8887   34.9838   45.9523 H   0  0  0  0  0  0  0  0  0  0  0  0
   59.4001   35.2196   47.9178 H   0  0  0  0  0  0  0  0  0  0  0  0
   60.5010   35.4336   46.5146 H   0  0  0  0  0  0  0  0  0  0  0  0
   58.8836   36.2151   46.5146 H   0  0  0  0  0  0  0  0  0  0  0  0
   60.6916   32.9459   46.3274 H   0  0  0  0  0  0  0  0  0  0  0  0
   59.6969   30.9021   45.3025 H   0  0  0  0  0  0  0  0  0  0  0  0
   58.0937   30.2883   49.5843 H   0  0  0  0  0  0  0  0  0  0  0  0
   57.0339   31.6464   51.3812 H   0  0  0  0  0  0  0  0  0  0  0  0
   58.1429   33.7206   52.2052 H   0  0  0  0  0  0  0  0  0  0  0  0
   60.2980   34.4682   51.2079 H   0  0  0  0  0  0  0  0  0  0  0  0
  1  2  1  0
  2  3  1  0
  3  4  1  0
  4  5  2  0
  5  6  1  0
  6  7  2  0
  6  8  1  0
  8  9  1  0
  9 10  1  0
 10 11  2  0
 10 12  1  0
 12 13  1  0
 13 14  1  0
 14 15  2  0
 15 16  1  0
 16 17  2  0
 17 18  1  0
 17 19  1  0
 19 20  2  0
  5 21  1  0
 21 22  2  0
 22 23  1  0
 23 24  2  0
 24 25  1  0
 25 26  2  0
 26 27  1  0
 27 28  2  0
 27  3  1  0
 20 14  1  0
 26 21  1  0
  1 29  1  0
  1 30  1  0
  1 31  1  0
  2 32  1  0
  2 33  1  0
  8 34  1  0
  9 35  1  0
  9 36  1  0
 13 37  1  0
 13 38  1  0
 15 39  1  0
 16 40  1  0
 18 41  1  0
 18 42  1  0
 18 43  1  0
 19 44  1  0
 20 45  1  0
 22 46  1  0
 23 47  1  0
 24 48  1  0
 25 49  1  0
M  CHG  1  12  -1
M  END
>  <UniqueID>  (86) 
81

>  <SMILES>  (86) 
CCn1nc(C(=O)NCC(=O)[N-]Cc2ccc(C)cc2)c2ccccc2c1=O

>  <Energy>  (86) 
55.601470919630344

>  <Genealogy>  (86) 
CCn1nc(C(=O)NCC(=O)[N-]Cc2ccc(C)cc2)c2ccccc2c1=O (protonated)
CCn1nc(C(=O)NCC(=O)[N-]Cc2ccc(C)cc2)c2ccccc2c1=O (3D coordinates assigned)
CCn1nc(C(=O)NCC(=O)[N-]Cc2ccc(C)cc2)c2ccccc2c1=O (optimized conformer: 55.601470919630344 kcal/mol)

>  <smiles>  (86) 
CCn1nc(C(=O)NCC(=O)NCc2ccc(C)cc2)c2ccccc2c1=O

>  <score_type>  (86) 
oracle

>  <origin>  (86) 
adg

>  <m_score__min__energy>  (86) 
-9.8599999999999994

>  <m_primary>  (86) 
energy

$$$$
