0:0
     RDKit          3D

 62 65  0  0  0  0  0  0  0  0999 V2000
   60.9200   29.1000   51.1540 C   0  0  0  0  0  0  0  0  0  0  0  0
   59.6090   29.5040   50.8870 C   0  0  0  0  0  0  0  0  0  0  0  0
   59.3640   30.5430   49.9830 C   0  0  0  0  0  0  0  0  0  0  0  0
   60.4310   31.1900   49.3300 C   0  0  0  0  0  0  0  0  0  0  0  0
   60.1830   32.2780   48.4080 N   0  0  0  0  0  0  0  0  0  0  0  0
   59.2720   33.3730   48.7760 C   0  0  0  0  0  0  0  0  0  0  0  0
   58.6960   34.0310   47.5210 C   0  0  0  0  0  0  0  0  0  0  0  0
   59.7730   34.5440   46.6480 N   0  0  0  0  0  0  0  0  0  0  0  0
   59.2920   35.0520   45.3450 C   0  0  0  0  0  0  0  0  0  0  0  0
   58.0240   34.3370   44.8240 C   0  0  0  0  0  0  0  0  0  0  0  0
   58.3360   32.9340   44.2560 C   0  0  0  0  0  0  0  0  0  0  0  0
   57.2130   31.9060   44.4850 C   0  0  0  0  0  0  0  0  0  0  0  0
   57.1200   30.7950   43.4210 C   0  0  0  0  0  0  0  0  0  0  0  0
   56.3860   29.5300   43.8940 C   0  0  0  0  0  0  0  0  0  0  0  0
   56.5680   29.3200   45.3320 N   0  0  0  0  0  0  0  0  0  0  0  0
   57.7460   28.6960   45.8750 C   0  0  0  0  0  0  0  0  0  0  0  0
   58.6560   29.4600   46.6300 C   0  0  0  0  0  0  0  0  0  0  0  0
   59.8010   28.8790   47.1710 C   0  0  0  0  0  0  0  0  0  0  0  0
   60.0620   27.5240   46.9710 C   0  0  0  0  0  0  0  0  0  0  0  0
   59.1690   26.7380   46.2310 C   0  0  0  0  0  0  0  0  0  0  0  0
   59.4250   25.3770   46.0210 C   0  0  0  0  0  0  0  0  0  0  0  0
   58.5340   24.6080   45.2760 C   0  0  0  0  0  0  0  0  0  0  0  0
   57.3930   25.2050   44.7400 C   0  0  0  0  0  0  0  0  0  0  0  0
   57.1490   26.5290   44.9400 N   0  0  0  0  0  0  0  0  0  0  0  0
   57.9970   27.3150   45.6780 C   0  0  0  0  0  0  0  0  0  0  0  0
   60.9970   33.7090   46.5670 C   0  0  0  0  0  0  0  0  0  0  0  0
   60.7820   32.2730   47.0640 C   0  0  0  0  0  0  0  0  0  0  0  0
   61.7490   30.7790   49.6160 C   0  0  0  0  0  0  0  0  0  0  0  0
   61.9890   29.7390   50.5230 C   0  0  0  0  0  0  0  0  0  0  0  0
   61.1095   28.2789   51.8610 H   0  0  0  0  0  0  0  0  0  0  0  0
   58.7677   29.0037   51.3890 H   0  0  0  0  0  0  0  0  0  0  0  0
   58.3295   30.8573   49.7805 H   0  0  0  0  0  0  0  0  0  0  0  0
   58.4489   32.9707   49.3848 H   0  0  0  0  0  0  0  0  0  0  0  0
   59.8323   34.1264   49.3491 H   0  0  0  0  0  0  0  0  0  0  0  0
   58.1054   33.2883   46.9646 H   0  0  0  0  0  0  0  0  0  0  0  0
   58.0627   34.8762   47.8285 H   0  0  0  0  0  0  0  0  0  0  0  0
   59.0662   36.1232   45.4527 H   0  0  0  0  0  0  0  0  0  0  0  0
   60.0904   34.8606   44.6129 H   0  0  0  0  0  0  0  0  0  0  0  0
   57.3101   34.2322   45.6543 H   0  0  0  0  0  0  0  0  0  0  0  0
   57.6043   34.9453   44.0092 H   0  0  0  0  0  0  0  0  0  0  0  0
   58.5043   33.0280   43.1730 H   0  0  0  0  0  0  0  0  0  0  0  0
   59.2233   32.5628   44.7898 H   0  0  0  0  0  0  0  0  0  0  0  0
   57.3807   31.4295   45.4621 H   0  0  0  0  0  0  0  0  0  0  0  0
   56.2677   32.4657   44.4284 H   0  0  0  0  0  0  0  0  0  0  0  0
   56.5860   31.1975   42.5476 H   0  0  0  0  0  0  0  0  0  0  0  0
   58.1518   30.4934   43.1877 H   0  0  0  0  0  0  0  0  0  0  0  0
   55.3123   29.6366   43.6798 H   0  0  0  0  0  0  0  0  0  0  0  0
   56.8034   28.6640   43.3594 H   0  0  0  0  0  0  0  0  0  0  0  0
   55.8600   29.7270   45.9850 H   0  0  0  0  0  0  0  0  0  0  0  0
   58.4605   30.5298   46.7950 H   0  0  0  0  0  0  0  0  0  0  0  0
   60.5014   29.4913   47.7579 H   0  0  0  0  0  0  0  0  0  0  0  0
   60.9705   27.0714   47.3949 H   0  0  0  0  0  0  0  0  0  0  0  0
   60.3294   24.9156   46.4443 H   0  0  0  0  0  0  0  0  0  0  0  0
   58.7287   23.5379   45.1116 H   0  0  0  0  0  0  0  0  0  0  0  0
   56.6858   24.6018   44.1518 H   0  0  0  0  0  0  0  0  0  0  0  0
   56.2860   26.9230   44.5020 H   0  0  0  0  0  0  0  0  0  0  0  0
   61.3254   33.6706   45.5179 H   0  0  0  0  0  0  0  0  0  0  0  0
   61.7525   34.1715   47.2192 H   0  0  0  0  0  0  0  0  0  0  0  0
   60.1103   31.7464   46.3701 H   0  0  0  0  0  0  0  0  0  0  0  0
   61.7553   31.7625   47.1098 H   0  0  0  0  0  0  0  0  0  0  0  0
   62.5956   31.2791   49.1229 H   0  0  0  0  0  0  0  0  0  0  0  0
   63.0211   29.4253   50.7384 H   0  0  0  0  0  0  0  0  0  0  0  0
  1  2  2  0
  2  3  1  0
  3  4  2  0
  4  5  1  0
  5  6  1  0
  6  7  1  0
  7  8  1  0
  8  9  1  0
  9 10  1  0
 10 11  1  0
 11 12  1  0
 12 13  1  0
 13 14  1  0
 14 15  1  0
 15 16  1  0
 16 17  2  0
 17 18  1  0
 18 19  2  0
 19 20  1  0
 20 21  2  0
 21 22  1  0
 22 23  2  0
 23 24  1  0
 24 25  2  0
  8 26  1  0
 26 27  1  0
  4 28  1  0
 28 29  2  0
 29  1  1  0
 27  5  1  0
 25 16  1  0
 25 20  1  0
  1 30  1  0
  2 31  1  0
  3 32  1  0
  6 33  1  0
  6 34  1  0
  7 35  1  0
  7 36  1  0
  9 37  1  0
  9 38  1  0
 10 39  1  0
 10 40  1  0
 11 41  1  0
 11 42  1  0
 12 43  1  0
 12 44  1  0
 13 45  1  0
 13 46  1  0
 14 47  1  0
 14 48  1  0
 15 49  1  0
 17 50  1  0
 18 51  1  0
 19 52  1  0
 21 53  1  0
 22 54  1  0
 23 55  1  0
 24 56  1  0
 26 57  1  0
 26 58  1  0
 27 59  1  0
 27 60  1  0
 28 61  1  0
 29 62  1  0
M  CHG  1  24   1
M  END
>  <UniqueID>  (1) 
1

>  <SMILES>  (1) 
c1ccc(N2CCN(CCCCCCNc3cccc4ccc[nH+]c34)CC2)cc1

>  <Energy>  (1) 
79.3825422105116

>  <Genealogy>  (1) 
c1ccc(N2CCN(CCCCCCNc3cccc4ccc[nH+]c34)CC2)cc1 (protonated)
c1ccc(N2CCN(CCCCCCNc3cccc4ccc[nH+]c34)CC2)cc1 (3D coordinates assigned)
c1ccc(N2CCN(CCCCCCNc3cccc4ccc[nH+]c34)CC2)cc1 (nonaromatic ring conformer: 79.3825422105116 kcal/mol)

>  <smiles>  (1) 
c1ccc(N2CCN(CCCCCCNc3cccc4cccnc34)CC2)cc1

>  <score_type>  (1) 
oracle

>  <origin>  (1) 
adg

>  <m_score__min__energy>  (1) 
-8.0099999999999998

>  <m_primary>  (1) 
energy

$$$$
1:0
     RDKit          3D

 57 60  0  0  0  0  0  0  0  0999 V2000
   58.5559   27.3638   47.5326 H   0  0  0  0  0  0  0  0  0  0  0  0
   58.1880   27.8500   46.6170 C   0  0  0  0  0  0  0  0  0  0  0  0
   57.4670   27.1040   45.7580 C   0  0  0  0  0  0  0  0  0  0  0  0
   57.8100   27.1600   44.3570 C   0  0  0  0  0  0  0  0  0  0  0  0
   58.0850   27.2030   43.2340 N   0  0  0  0  0  0  0  0  0  0  0  0
   56.3150   26.2610   46.1570 C   0  0  0  0  0  0  0  0  0  0  0  0
   55.1420   26.6940   45.9920 O   0  0  0  0  0  0  0  0  0  0  0  0
   56.5190   24.9830   46.7720 N   0  0  0  0  0  0  0  0  0  0  0  0
   57.6020   24.0740   46.4200 C   0  0  0  0  0  0  0  0  0  0  0  0
   58.5248   24.6517   46.2629 H   0  0  0  0  0  0  0  0  0  0  0  0
   57.7454   23.3526   47.2379 H   0  0  0  0  0  0  0  0  0  0  0  0
   57.2630   23.3260   45.1590 C   0  0  0  0  0  0  0  0  0  0  0  0
   57.9560   22.1540   44.8140 C   0  0  0  0  0  0  0  0  0  0  0  0
   58.7430   21.7669   45.4780 H   0  0  0  0  0  0  0  0  0  0  0  0
   57.6490   21.4780   43.6300 C   0  0  0  0  0  0  0  0  0  0  0  0
   58.1922   20.5587   43.3659 H   0  0  0  0  0  0  0  0  0  0  0  0
   56.6530   21.9680   42.7810 C   0  0  0  0  0  0  0  0  0  0  0  0
   56.4128   21.4338   41.8499 H   0  0  0  0  0  0  0  0  0  0  0  0
   55.9620   23.1360   43.1140 C   0  0  0  0  0  0  0  0  0  0  0  0
   55.1785   23.5209   42.4447 H   0  0  0  0  0  0  0  0  0  0  0  0
   56.2660   23.8160   44.2980 C   0  0  0  0  0  0  0  0  0  0  0  0
   55.7230   24.7372   44.5561 H   0  0  0  0  0  0  0  0  0  0  0  0
   58.5200   29.2790   46.4150 C   0  0  0  0  0  0  0  0  0  0  0  0
   59.7090   29.7920   46.9300 C   0  0  0  0  0  0  0  0  0  0  0  0
   60.5940   28.9340   47.6040 O   0  0  0  0  0  0  0  0  0  0  0  0
   60.5790   28.6820   48.9820 C   0  0  0  0  0  0  0  0  0  0  0  0
   60.3920   29.7540   49.8600 C   0  0  0  0  0  0  0  0  0  0  0  0
   60.2542   30.7696   49.4605 H   0  0  0  0  0  0  0  0  0  0  0  0
   60.3790   29.5440   51.2420 C   0  0  0  0  0  0  0  0  0  0  0  0
   60.2198   30.3942   51.9216 H   0  0  0  0  0  0  0  0  0  0  0  0
   60.5670   28.2600   51.7680 C   0  0  0  0  0  0  0  0  0  0  0  0
   60.5400   28.1010   53.1610 O   0  0  0  0  0  0  0  0  0  0  0  0
   60.5590   26.8410   53.8260 C   0  0  0  0  0  0  0  0  0  0  0  0
   60.5566   27.0007   54.9143 H   0  0  0  0  0  0  0  0  0  0  0  0
   59.6695   26.2612   53.5385 H   0  0  0  0  0  0  0  0  0  0  0  0
   61.4656   26.2883   53.5385 H   0  0  0  0  0  0  0  0  0  0  0  0
   60.7760   27.1820   50.8870 C   0  0  0  0  0  0  0  0  0  0  0  0
   60.9304   26.1691   51.2874 H   0  0  0  0  0  0  0  0  0  0  0  0
   60.7880   27.3940   49.5050 C   0  0  0  0  0  0  0  0  0  0  0  0
   60.9619   26.5484   48.8233 H   0  0  0  0  0  0  0  0  0  0  0  0
   60.0230   31.1010   46.7290 N   0  0  0  0  0  0  0  0  0  0  0  0
   60.9530   31.4340   47.0640 H   0  0  0  0  0  0  0  0  0  0  0  0
   59.1740   31.9510   46.0750 C   0  0  0  0  0  0  0  0  0  0  0  0
   59.5200   33.3160   45.8900 C   0  0  0  0  0  0  0  0  0  0  0  0
   60.8150   33.8930   46.4020 C   0  0  0  0  0  0  0  0  0  0  0  0
   60.8082   33.8900   47.5020 H   0  0  0  0  0  0  0  0  0  0  0  0
   61.6564   33.2846   46.0388 H   0  0  0  0  0  0  0  0  0  0  0  0
   60.9254   34.9254   46.0388 H   0  0  0  0  0  0  0  0  0  0  0  0
   58.6270   34.1560   45.2150 C   0  0  0  0  0  0  0  0  0  0  0  0
   58.8805   35.2153   45.0613 H   0  0  0  0  0  0  0  0  0  0  0  0
   57.4230   33.6570   44.7390 C   0  0  0  0  0  0  0  0  0  0  0  0
   56.7217   34.3183   44.2090 H   0  0  0  0  0  0  0  0  0  0  0  0
   57.1070   32.3170   44.9350 C   0  0  0  0  0  0  0  0  0  0  0  0
   56.1508   31.9256   44.5574 H   0  0  0  0  0  0  0  0  0  0  0  0
   57.9690   31.4750   45.5920 N   0  0  0  0  0  0  0  0  0  0  0  0
   57.6360   30.1540   45.7650 C   0  0  0  0  0  0  0  0  0  0  0  0
   56.5270   29.7110   45.3510 O   0  0  0  0  0  0  0  0  0  0  0  0
  1  2  1  0
  2  3  2  0
  3  4  1  0
  4  5  3  0
  3  6  1  0
  6  7  2  0
  6  8  1  0
  8  9  1  0
  9 10  1  0
  9 11  1  0
  9 12  1  0
 12 13  2  0
 13 14  1  0
 13 15  1  0
 15 16  1  0
 15 17  2  0
 17 18  1  0
 17 19  1  0
 19 20  1  0
 19 21  2  0
 21 22  1  0
  2 23  1  0
 23 24  2  0
 24 25  1  0
 25 26  1  0
 26 27  2  0
 27 28  1  0
 27 29  1  0
 29 30  1  0
 29 31  2  0
 31 32  1  0
 32 33  1  0
 33 34  1  0
 33 35  1  0
 33 36  1  0
 31 37  1  0
 37 38  1  0
 37 39  2  0
 39 40  1  0
 24 41  1  0
 41 42  1  0
 41 43  2  0
 43 44  1  0
 44 45  1  0
 45 46  1  0
 45 47  1  0
 45 48  1  0
 44 49  2  0
 49 50  1  0
 49 51  1  0
 51 52  1  0
 51 53  2  0
 53 54  1  0
 53 55  1  0
 55 56  1  0
 56 57  2  0
 21 12  1  0
 56 23  1  0
 39 26  1  0
 55 43  1  0
M  CHG  2   8  -1  41   1
M  END
>  <UniqueID>  (2) 
2

>  <SMILES>  (2) 
COc1ccc(Oc2[nH+]c3c(C)cccn3c(=O)c2/C=C(/C#N)C(=O)[N-]Cc2ccccc2)cc1

>  <Energy>  (2) 
80.07873295313394

>  <Genealogy>  (2) 
COc1ccc(Oc2[nH+]c3c(C)cccn3c(=O)c2C=C(C#N)C(=O)[N-]Cc2ccccc2)cc1 (protonated)
COc1ccc(Oc2[nH+]c3c(C)cccn3c(=O)c2/C=C(/C#N)C(=O)[N-]Cc2ccccc2)cc1 (cis-trans isomerization)
COc1ccc(Oc2[nH+]c3c(C)cccn3c(=O)c2/C=C(/C#N)C(=O)[N-]Cc2ccccc2)cc1 (3D coordinates assigned)
COc1ccc(Oc2[nH+]c3c(C)cccn3c(=O)c2/C=C(/C#N)C(=O)[N-]Cc2ccccc2)cc1 (optimized conformer: 80.07873295313394 kcal/mol)

>  <smiles>  (2) 
COc1ccc(Oc2nc3c(C)cccn3c(=O)c2C=C(C#N)C(=O)NCc2ccccc2)cc1

>  <score_type>  (2) 
oracle

>  <origin>  (2) 
adg

>  <m_score__min__energy>  (2) 
-9.0299999999999994

>  <m_primary>  (2) 
energy

$$$$
2:0
     RDKit          3D

 40 42  0  0  0  0  0  0  0  0999 V2000
   58.3990   32.7000   51.2500 C   0  0  0  0  0  0  0  0  0  0  0  0
   57.9890   32.3510   49.8900 N   0  0  0  0  0  0  0  0  0  0  0  0
   58.9030   32.9530   48.9050 C   0  0  0  0  0  0  0  0  0  0  0  0
   59.5100   31.9010   47.9070 C   0  0  2  0  0  0  0  0  0  0  0  0
   58.7950   31.8740   46.5290 C   0  0  0  0  0  0  0  0  0  0  0  0
   58.0980   33.0300   46.1030 C   0  0  0  0  0  0  0  0  0  0  0  0
   57.4330   33.0630   44.8750 C   0  0  0  0  0  0  0  0  0  0  0  0
   57.4390   31.9430   44.0460 C   0  0  0  0  0  0  0  0  0  0  0  0
   58.1030   30.7860   44.4480 C   0  0  0  0  0  0  0  0  0  0  0  0
   58.7710   30.7440   45.6760 C   0  0  0  0  0  0  0  0  0  0  0  0
   59.4450   30.5260   48.4900 N   0  0  0  0  0  0  0  0  0  0  0  0
   60.3370   30.3430   49.6430 C   0  0  0  0  0  0  0  0  0  0  0  0
   61.7970   30.4550   49.2090 C   0  0  0  0  0  0  0  0  0  0  0  0
   62.0360   31.6660   48.3470 C   0  0  0  0  0  0  0  0  0  0  0  0
   63.3550   32.1020   48.1520 C   0  0  0  0  0  0  0  0  0  0  0  0
   63.6260   33.2060   47.3440 C   0  0  0  0  0  0  0  0  0  0  0  0
   62.5810   33.8860   46.7200 C   0  0  0  0  0  0  0  0  0  0  0  0
   61.2650   33.4560   46.8930 C   0  0  0  0  0  0  0  0  0  0  0  0
   60.9720   32.3220   47.6810 C   0  0  0  0  0  0  0  0  0  0  0  0
   57.7675   32.1625   51.9727 H   0  0  0  0  0  0  0  0  0  0  0  0
   59.4511   32.4161   51.4000 H   0  0  0  0  0  0  0  0  0  0  0  0
   58.2867   33.7839   51.4000 H   0  0  0  0  0  0  0  0  0  0  0  0
   57.0190   32.7120   49.7480 H   0  0  0  0  0  0  0  0  0  0  0  0
   58.3479   33.7057   48.3260 H   0  0  0  0  0  0  0  0  0  0  0  0
   59.7400   33.3988   49.4624 H   0  0  0  0  0  0  0  0  0  0  0  0
   58.0797   33.9188   46.7509 H   0  0  0  0  0  0  0  0  0  0  0  0
   56.9036   33.9749   44.5618 H   0  0  0  0  0  0  0  0  0  0  0  0
   56.9206   31.9723   43.0763 H   0  0  0  0  0  0  0  0  0  0  0  0
   58.1018   29.9003   43.7957 H   0  0  0  0  0  0  0  0  0  0  0  0
   59.2845   29.8210   45.9833 H   0  0  0  0  0  0  0  0  0  0  0  0
   59.7100   29.8060   47.7780 H   0  0  0  0  0  0  0  0  0  0  0  0
   58.4680   30.2890   48.7770 H   0  0  0  0  0  0  0  0  0  0  0  0
   60.1217   31.1170   50.3944 H   0  0  0  0  0  0  0  0  0  0  0  0
   60.1673   29.3439   50.0707 H   0  0  0  0  0  0  0  0  0  0  0  0
   62.4299   30.5265   50.1058 H   0  0  0  0  0  0  0  0  0  0  0  0
   62.0460   29.5615   48.6176 H   0  0  0  0  0  0  0  0  0  0  0  0
   64.1832   31.5682   48.6409 H   0  0  0  0  0  0  0  0  0  0  0  0
   64.6640   33.5401   47.1991 H   0  0  0  0  0  0  0  0  0  0  0  0
   62.7943   34.7625   46.0906 H   0  0  0  0  0  0  0  0  0  0  0  0
   60.4454   34.0076   46.4092 H   0  0  0  0  0  0  0  0  0  0  0  0
  1  2  1  0
  2  3  1  0
  4  3  1  1
  4  5  1  0
  5  6  2  0
  6  7  1  0
  7  8  2  0
  8  9  1  0
  9 10  2  0
  4 11  1  0
 11 12  1  0
 12 13  1  0
 13 14  1  0
 14 15  2  0
 15 16  1  0
 16 17  2  0
 17 18  1  0
 18 19  2  0
 19  4  1  0
 10  5  1  0
 19 14  1  0
  1 20  1  0
  1 21  1  0
  1 22  1  0
  2 23  1  0
  3 24  1  0
  3 25  1  0
  6 26  1  0
  7 27  1  0
  8 28  1  0
  9 29  1  0
 10 30  1  0
 11 31  1  0
 11 32  1  0
 12 33  1  0
 12 34  1  0
 13 35  1  0
 13 36  1  0
 15 37  1  0
 16 38  1  0
 17 39  1  0
 18 40  1  0
M  CHG  1  11   1
M  END
>  <UniqueID>  (3) 
3

>  <SMILES>  (3) 
CNC[C@]1(c2ccccc2)[NH2+]CCc2ccccc21

>  <Energy>  (3) 
55.14598343951247

>  <Genealogy>  (3) 
CNCC1(c2ccccc2)[NH2+]CCc2ccccc21 (protonated)
CNC[C@]1(c2ccccc2)[NH2+]CCc2ccccc21 (chirality)
CNC[C@]1(c2ccccc2)[NH2+]CCc2ccccc21 (3D coordinates assigned)
CNC[C@]1(c2ccccc2)[NH2+]CCc2ccccc21 (nonaromatic ring conformer: 55.14598343951247 kcal/mol)

>  <smiles>  (3) 
CNCC1(c2ccccc2)NCCc2ccccc21

>  <score_type>  (3) 
oracle

>  <origin>  (3) 
adg

>  <m_score__min__energy>  (3) 
-5.7000000000000002

>  <m_primary>  (3) 
energy

$$$$
3:0
     RDKit          3D

 45 47  0  0  0  0  0  0  0  0999 V2000
   62.9960   34.2770   49.3830 C   0  0  0  0  0  0  0  0  0  0  0  0
   62.1930   34.4330   48.2180 O   0  0  0  0  0  0  0  0  0  0  0  0
   60.9670   33.7860   47.9930 C   0  0  0  0  0  0  0  0  0  0  0  0
   59.7900   34.5280   47.7750 C   0  0  0  0  0  0  0  0  0  0  0  0
   58.5750   33.8860   47.5470 C   0  0  0  0  0  0  0  0  0  0  0  0
   58.5150   32.4960   47.5110 C   0  0  0  0  0  0  0  0  0  0  0  0
   59.6720   31.7280   47.7030 C   0  0  0  0  0  0  0  0  0  0  0  0
   59.5710   30.2540   47.6190 C   0  0  0  0  0  0  0  0  0  0  0  0
   58.4710   29.6910   47.8750 O   0  0  0  0  0  0  0  0  0  0  0  0
   60.6990   29.4690   47.2100 N   0  0  0  0  0  0  0  0  0  0  0  0
   60.6830   28.0090   47.2870 C   0  0  0  0  0  0  0  0  0  0  0  0
   60.1780   27.3700   45.9840 C   0  0  0  0  0  0  0  0  0  0  0  0
   58.6720   27.5010   45.8350 C   0  0  0  0  0  0  0  0  0  0  0  0
   57.8840   26.4520   46.3390 C   0  0  0  0  0  0  0  0  0  0  0  0
   56.4950   26.4950   46.2250 C   0  0  0  0  0  0  0  0  0  0  0  0
   55.7940   25.5530   46.6790 O   0  0  0  0  0  0  0  0  0  0  0  0
   55.8940   27.5490   45.6220 N   0  0  0  0  0  0  0  0  0  0  0  0
   56.6060   28.5880   45.1130 C   0  0  0  0  0  0  0  0  0  0  0  0
   55.9240   29.6400   44.4920 C   0  0  0  0  0  0  0  0  0  0  0  0
   56.6320   30.7120   43.9490 C   0  0  0  0  0  0  0  0  0  0  0  0
   58.0230   30.7430   44.0290 C   0  0  0  0  0  0  0  0  0  0  0  0
   58.7180   29.7020   44.6520 C   0  0  0  0  0  0  0  0  0  0  0  0
   58.0240   28.6000   45.2010 C   0  0  0  0  0  0  0  0  0  0  0  0
   60.9040   32.3650   47.9800 C   0  0  0  0  0  0  0  0  0  0  0  0
   62.0140   31.5410   48.2610 O   0  0  0  0  0  0  0  0  0  0  0  0
   63.2820   31.5710   47.6160 C   0  0  0  0  0  0  0  0  0  0  0  0
   62.3697   34.3987   50.2790 H   0  0  0  0  0  0  0  0  0  0  0  0
   63.4481   33.2742   49.3851 H   0  0  0  0  0  0  0  0  0  0  0  0
   63.7907   35.0375   49.3851 H   0  0  0  0  0  0  0  0  0  0  0  0
   59.8306   35.6272   47.7849 H   0  0  0  0  0  0  0  0  0  0  0  0
   57.6610   34.4789   47.3951 H   0  0  0  0  0  0  0  0  0  0  0  0
   57.5520   31.9960   47.3304 H   0  0  0  0  0  0  0  0  0  0  0  0
   61.5270   29.9610   46.8130 H   0  0  0  0  0  0  0  0  0  0  0  0
   61.7046   27.6525   47.4848 H   0  0  0  0  0  0  0  0  0  0  0  0
   59.9969   27.7187   48.0963 H   0  0  0  0  0  0  0  0  0  0  0  0
   60.6642   27.8679   45.1321 H   0  0  0  0  0  0  0  0  0  0  0  0
   60.4258   26.2986   46.0116 H   0  0  0  0  0  0  0  0  0  0  0  0
   58.3660   25.5917   46.8264 H   0  0  0  0  0  0  0  0  0  0  0  0
   54.8258   29.6216   44.4318 H   0  0  0  0  0  0  0  0  0  0  0  0
   56.0917   31.5342   43.4569 H   0  0  0  0  0  0  0  0  0  0  0  0
   58.5770   31.5909   43.5998 H   0  0  0  0  0  0  0  0  0  0  0  0
   59.8155   29.7411   44.7155 H   0  0  0  0  0  0  0  0  0  0  0  0
   64.0787   31.5898   48.3742 H   0  0  0  0  0  0  0  0  0  0  0  0
   63.3950   30.6753   46.9876 H   0  0  0  0  0  0  0  0  0  0  0  0
   63.3525   32.4711   46.9876 H   0  0  0  0  0  0  0  0  0  0  0  0
  1  2  1  0
  2  3  1  0
  3  4  2  0
  4  5  1  0
  5  6  2  0
  6  7  1  0
  7  8  1  0
  8  9  2  0
  8 10  1  0
 10 11  1  0
 11 12  1  0
 12 13  1  0
 13 14  2  0
 14 15  1  0
 15 16  2  0
 15 17  1  0
 17 18  1  0
 18 19  2  0
 19 20  1  0
 20 21  2  0
 21 22  1  0
 22 23  2  0
  7 24  2  0
 24 25  1  0
 25 26  1  0
 24  3  1  0
 23 13  1  0
 23 18  1  0
  1 27  1  0
  1 28  1  0
  1 29  1  0
  4 30  1  0
  5 31  1  0
  6 32  1  0
 10 33  1  0
 11 34  1  0
 11 35  1  0
 12 36  1  0
 12 37  1  0
 14 38  1  0
 19 39  1  0
 20 40  1  0
 21 41  1  0
 22 42  1  0
 26 43  1  0
 26 44  1  0
 26 45  1  0
M  CHG  1  17  -1
M  END
>  <UniqueID>  (4) 
4

>  <SMILES>  (4) 
COc1cccc(C(=O)NCCc2cc(=O)[n-]c3ccccc23)c1OC

>  <Energy>  (4) 
54.536968128371825

>  <Genealogy>  (4) 
COc1cccc(C(=O)NCCc2cc(=O)[n-]c3ccccc23)c1OC (protonated)
COc1cccc(C(=O)NCCc2cc(=O)[n-]c3ccccc23)c1OC (3D coordinates assigned)
COc1cccc(C(=O)NCCc2cc(=O)[n-]c3ccccc23)c1OC (optimized conformer: 54.536968128371825 kcal/mol)

>  <smiles>  (4) 
COc1cccc(C(=O)NCCc2cc(=O)[nH]c3ccccc23)c1OC

>  <score_type>  (4) 
oracle

>  <origin>  (4) 
adg

>  <m_score__min__energy>  (4) 
-9.9700000000000006

>  <m_primary>  (4) 
energy

$$$$
4:0
     RDKit          3D

 42 44  0  0  1  0  0  0  0  0999 V2000
   58.5020   30.0780   49.1990 F   0  0  0  0  0  0  0  0  0  0  0  0
   59.7830   29.8290   49.7110 C   0  0  0  0  0  0  0  0  0  0  0  0
   60.3130   31.0410   50.0620 F   0  0  0  0  0  0  0  0  0  0  0  0
   59.6180   29.0180   50.8100 F   0  0  0  0  0  0  0  0  0  0  0  0
   60.6040   29.1440   48.6060 C   0  0  0  0  0  0  0  0  0  0  0  0
   58.2730   32.8020   43.7620 N   0  0  0  0  0  0  0  0  0  0  0  0
   57.7790   31.6280   43.6800 C   0  0  0  0  0  0  0  0  0  0  0  0
   58.8220   28.5890   46.5570 C   0  0  0  0  0  0  0  0  0  0  0  0
   57.5690   26.2040   46.4950 C   0  0  0  0  0  0  0  0  0  0  0  0
   57.2850   27.1620   45.5740 N   0  0  0  0  0  0  0  0  0  0  0  0
   57.8870   28.3640   45.5700 C   0  0  0  0  0  0  0  0  0  0  0  0
   57.5680   29.3790   44.5730 C   0  0  0  0  0  0  0  0  0  0  0  0
   58.5080   26.4120   47.4970 C   0  0  0  0  0  0  0  0  0  0  0  0
   59.1350   27.6210   47.5180 C   0  0  0  0  0  0  0  0  0  0  0  0
   60.0160   27.8670   48.4270 N   0  0  0  0  0  0  0  0  0  0  0  0
   57.8270   33.8180   44.6620 C   0  0  0  0  0  0  0  0  0  0  0  0
   58.4280   33.7820   46.0000 C   0  0  0  0  0  0  0  0  0  0  0  0
   57.9130   32.9490   47.0010 C   0  0  0  0  0  0  0  0  0  0  0  0
   58.5220   32.9550   48.2550 C   0  0  0  0  0  0  0  0  0  0  0  0
   59.6160   33.7610   48.5250 C   0  0  0  0  0  0  0  0  0  0  0  0
   60.1260   34.5810   47.5400 C   0  0  0  0  0  0  0  0  0  0  0  0
   59.5340   34.5890   46.2890 C   0  0  0  0  0  0  0  0  0  0  0  0
   56.9580   31.3310   42.6590 N   0  0  0  0  0  0  0  0  0  0  0  0
   56.4560   30.0880   42.6020 C   0  0  0  0  0  0  0  0  0  0  0  0
   56.7500   29.1340   43.5310 N   0  0  0  0  0  0  0  0  0  0  0  0
   58.0890   30.6700   44.6320 C   0  0  0  0  0  0  0  0  0  0  0  0
   60.5513   29.7246   47.6732 H   0  0  0  0  0  0  0  0  0  0  0  0
   61.6669   29.0669   48.8786 H   0  0  0  0  0  0  0  0  0  0  0  0
   59.3384   29.5597   46.5905 H   0  0  0  0  0  0  0  0  0  0  0  0
   57.0420   25.2397   46.4457 H   0  0  0  0  0  0  0  0  0  0  0  0
   56.5640   26.8940   44.8700 H   0  0  0  0  0  0  0  0  0  0  0  0
   58.7354   25.6344   48.2411 H   0  0  0  0  0  0  0  0  0  0  0  0
   58.0582   34.7949   44.2124 H   0  0  0  0  0  0  0  0  0  0  0  0
   56.7511   33.6420   44.8084 H   0  0  0  0  0  0  0  0  0  0  0  0
   57.0453   32.3029   46.8018 H   0  0  0  0  0  0  0  0  0  0  0  0
   58.1248   32.3048   49.0484 H   0  0  0  0  0  0  0  0  0  0  0  0
   60.0773   33.7471   49.5235 H   0  0  0  0  0  0  0  0  0  0  0  0
   60.9952   35.2226   47.7469 H   0  0  0  0  0  0  0  0  0  0  0  0
   59.9418   35.2439   45.5049 H   0  0  0  0  0  0  0  0  0  0  0  0
   55.7808   29.8283   41.7734 H   0  0  0  0  0  0  0  0  0  0  0  0
   56.3080   28.2200   43.3830 H   0  0  0  0  0  0  0  0  0  0  0  0
   58.7655   30.9362   45.4576 H   0  0  0  0  0  0  0  0  0  0  0  0
  1  2  1  0
  2  3  1  0
  2  4  1  0
  2  5  1  0
  5  6  1  0
  6  7  2  0
  7  8  1  0
  8  9  2  0
  9 10  1  0
 10 11  1  0
 11 12  1  0
 12 13  2  0
 13 14  1  0
 14 15  2  0
 15 16  1  0
 16 17  1  0
 17 18  2  0
 18 19  1  0
 19 20  2  0
 20 21  1  0
 21 22  2  0
 14 23  1  0
 23 24  2  0
 24 25  1  0
 11 26  2  0
 26  7  1  0
 25 12  1  0
 22 17  1  0
  5 27  1  0
  5 28  1  0
  8 29  1  0
  9 30  1  0
 10 31  1  0
 13 32  1  0
 16 33  1  0
 16 34  1  0
 18 35  1  0
 19 36  1  0
 20 37  1  0
 21 38  1  0
 22 39  1  0
 24 40  1  0
 25 41  1  0
 26 42  1  0
M  END
>  <smiles>  (5) 
FC(F)(F)CN=c1cc[nH]c(-c2cc(=NCc3ccccc3)nc[nH]2)c1

>  <score_type>  (5) 
oracle

>  <origin>  (5) 
adg

>  <m_score__min__energy>  (5) 
-7.0999999999999996

>  <m_primary>  (5) 
energy

$$$$
5:0
     RDKit          3D

 30 31  0  0  0  0  0  0  0  0999 V2000
   59.6630   35.5440   45.6360 C   0  0  0  0  0  0  0  0  0  0  0  0
   58.7970   34.3610   45.3440 C   0  0  0  0  0  0  0  0  0  0  0  0
   57.8570   33.9210   46.2840 C   0  0  0  0  0  0  0  0  0  0  0  0
   57.0450   32.8270   45.9790 C   0  0  0  0  0  0  0  0  0  0  0  0
   57.1790   32.1720   44.7510 C   0  0  0  0  0  0  0  0  0  0  0  0
   56.3150   31.0640   44.4590 N   0  0  0  0  0  0  0  0  0  0  0  0
   56.4940   29.7030   44.8700 C   0  0  0  0  0  0  0  0  0  0  0  0
   55.5160   28.9070   44.8680 O   0  0  0  0  0  0  0  0  0  0  0  0
   57.8300   29.2120   45.2960 C   0  0  0  0  0  0  0  0  0  0  0  0
   58.3950   29.7570   46.4650 C   0  0  0  0  0  0  0  0  0  0  0  0
   59.6610   29.3630   46.8990 C   0  0  0  0  0  0  0  0  0  0  0  0
   60.3840   28.4170   46.1750 C   0  0  0  0  0  0  0  0  0  0  0  0
   59.8380   27.8510   45.0220 C   0  0  0  0  0  0  0  0  0  0  0  0
   58.5560   28.2220   44.5770 C   0  0  0  0  0  0  0  0  0  0  0  0
   58.0000   27.5430   43.3520 C   0  0  0  0  0  0  0  0  0  0  0  0
   58.1130   32.6640   43.8230 C   0  0  0  0  0  0  0  0  0  0  0  0
   58.8900   33.7340   44.1400 N   0  0  0  0  0  0  0  0  0  0  0  0
   59.7557   35.6707   46.7247 H   0  0  0  0  0  0  0  0  0  0  0  0
   60.6600   35.3854   45.1991 H   0  0  0  0  0  0  0  0  0  0  0  0
   59.2105   36.4464   45.1991 H   0  0  0  0  0  0  0  0  0  0  0  0
   57.7593   34.4322   47.2531 H   0  0  0  0  0  0  0  0  0  0  0  0
   56.2974   32.4792   46.7071 H   0  0  0  0  0  0  0  0  0  0  0  0
   57.8308   30.5032   47.0436 H   0  0  0  0  0  0  0  0  0  0  0  0
   60.0889   29.7995   47.8135 H   0  0  0  0  0  0  0  0  0  0  0  0
   61.3866   28.1159   46.5128 H   0  0  0  0  0  0  0  0  0  0  0  0
   60.4164   27.1067   44.4550 H   0  0  0  0  0  0  0  0  0  0  0  0
   57.3306   26.7255   43.6579 H   0  0  0  0  0  0  0  0  0  0  0  0
   57.4369   28.2729   42.7519 H   0  0  0  0  0  0  0  0  0  0  0  0
   58.8267   27.1349   42.7519 H   0  0  0  0  0  0  0  0  0  0  0  0
   58.2155   32.1829   42.8391 H   0  0  0  0  0  0  0  0  0  0  0  0
  1  2  1  0
  2  3  2  0
  3  4  1  0
  4  5  2  0
  5  6  1  0
  6  7  1  0
  7  8  2  0
  7  9  1  0
  9 10  2  0
 10 11  1  0
 11 12  2  0
 12 13  1  0
 13 14  2  0
 14 15  1  0
  5 16  1  0
 16 17  2  0
 17  2  1  0
 14  9  1  0
  1 18  1  0
  1 19  1  0
  1 20  1  0
  3 21  1  0
  4 22  1  0
 10 23  1  0
 11 24  1  0
 12 25  1  0
 13 26  1  0
 15 27  1  0
 15 28  1  0
 15 29  1  0
 16 30  1  0
M  CHG  1   6  -1
M  END
>  <UniqueID>  (6) 
5

>  <SMILES>  (6) 
Cc1ccc([N-]C(=O)c2ccccc2C)cn1

>  <Energy>  (6) 
38.28621323555942

>  <Genealogy>  (6) 
Cc1ccc([N-]C(=O)c2ccccc2C)cn1 (protonated)
Cc1ccc([N-]C(=O)c2ccccc2C)cn1 (3D coordinates assigned)
Cc1ccc([N-]C(=O)c2ccccc2C)cn1 (optimized conformer: 38.28621323555942 kcal/mol)

>  <smiles>  (6) 
Cc1ccc(NC(=O)c2ccccc2C)cn1

>  <score_type>  (6) 
oracle

>  <origin>  (6) 
adg

>  <m_score__min__energy>  (6) 
-8.4600000000000009

>  <m_primary>  (6) 
energy

$$$$
6:0
     RDKit          3D

 37 39  0  0  0  0  0  0  0  0999 V2000
   59.8610   26.4080   48.5720 N   0  0  0  0  0  0  0  0  0  0  0  0
   59.2870   27.0130   47.7940 C   0  0  0  0  0  0  0  0  0  0  0  0
   58.5940   27.7760   46.8110 C   0  0  0  0  0  0  0  0  0  0  0  0
   57.5990   27.2640   46.0210 C   0  0  0  0  0  0  0  0  0  0  0  0
   57.1100   25.9210   46.0060 C   0  0  0  0  0  0  0  0  0  0  0  0
   58.0720   24.8990   46.1240 C   0  0  0  0  0  0  0  0  0  0  0  0
   57.7540   23.5770   46.2050 C   0  0  0  0  0  0  0  0  0  0  0  0
   56.4480   23.1570   46.1740 C   0  0  0  0  0  0  0  0  0  0  0  0
   55.4800   24.1270   46.0600 C   0  0  0  0  0  0  0  0  0  0  0  0
   55.8150   25.4920   45.9790 C   0  0  0  0  0  0  0  0  0  0  0  0
   54.7380   26.3450   45.8810 O   0  0  0  0  0  0  0  0  0  0  0  0
   56.9690   28.1610   45.2100 N   0  0  0  0  0  0  0  0  0  0  0  0
   57.2700   29.4590   45.1540 C   0  0  0  0  0  0  0  0  0  0  0  0
   56.4030   30.5880   44.0660 S   0  0  0  0  0  0  0  0  0  0  0  0
   57.5710   31.8540   43.5040 C   0  0  0  0  0  0  0  0  0  0  0  0
   58.0080   32.7180   44.6350 C   0  0  0  0  0  0  0  0  0  0  0  0
   57.2600   33.7710   45.1120 C   0  0  0  0  0  0  0  0  0  0  0  0
   57.7410   34.5350   46.1770 C   0  0  0  0  0  0  0  0  0  0  0  0
   58.9690   34.2410   46.7600 C   0  0  0  0  0  0  0  0  0  0  0  0
   59.4660   34.9680   47.8000 F   0  0  0  0  0  0  0  0  0  0  0  0
   59.7200   33.1910   46.2880 C   0  0  0  0  0  0  0  0  0  0  0  0
   59.2270   32.4450   45.2320 C   0  0  0  0  0  0  0  0  0  0  0  0
   58.2590   29.9550   45.9380 N   0  0  0  0  0  0  0  0  0  0  0  0
   58.9330   29.1400   46.7700 C   0  0  0  0  0  0  0  0  0  0  0  0
   59.8440   29.6210   47.4870 O   0  0  0  0  0  0  0  0  0  0  0  0
   59.1343   25.1829   46.1522 H   0  0  0  0  0  0  0  0  0  0  0  0
   58.5587   22.8326   46.2969 H   0  0  0  0  0  0  0  0  0  0  0  0
   56.1867   22.0904   46.2376 H   0  0  0  0  0  0  0  0  0  0  0  0
   54.4212   23.8300   46.0315 H   0  0  0  0  0  0  0  0  0  0  0  0
   54.3410   26.7110   46.7540 H   0  0  0  0  0  0  0  0  0  0  0  0
   56.1900   27.8510   44.5570 H   0  0  0  0  0  0  0  0  0  0  0  0
   58.4520   31.3616   43.0665 H   0  0  0  0  0  0  0  0  0  0  0  0
   57.0698   32.4848   42.7550 H   0  0  0  0  0  0  0  0  0  0  0  0
   56.2877   34.0093   44.6560 H   0  0  0  0  0  0  0  0  0  0  0  0
   57.1438   35.3765   46.5581 H   0  0  0  0  0  0  0  0  0  0  0  0
   60.6929   32.9487   46.7404 H   0  0  0  0  0  0  0  0  0  0  0  0
   59.8258   31.6038   44.8528 H   0  0  0  0  0  0  0  0  0  0  0  0
  1  2  3  0
  2  3  1  0
  3  4  2  0
  4  5  1  0
  5  6  2  0
  6  7  1  0
  7  8  2  0
  8  9  1  0
  9 10  2  0
 10 11  1  0
  4 12  1  0
 12 13  1  0
 13 14  1  0
 14 15  1  0
 15 16  1  0
 16 17  2  0
 17 18  1  0
 18 19  2  0
 19 20  1  0
 19 21  1  0
 21 22  2  0
 13 23  2  0
 23 24  1  0
 24 25  2  0
 24  3  1  0
 10  5  1  0
 22 16  1  0
  6 26  1  0
  7 27  1  0
  8 28  1  0
  9 29  1  0
 11 30  1  0
 12 31  1  0
 15 32  1  0
 15 33  1  0
 17 34  1  0
 18 35  1  0
 21 36  1  0
 22 37  1  0
M  END
>  <smiles>  (7) 
N#Cc1c(-c2ccccc2O)[nH]c(SCc2ccc(F)cc2)nc1=O

>  <score_type>  (7) 
oracle

>  <origin>  (7) 
adg

>  <m_score__min__energy>  (7) 
-9.6500000000000004

>  <m_primary>  (7) 
energy

$$$$
7:0
     RDKit          3D

 36 37  0  0  0  0  0  0  0  0999 V2000
   58.0834   29.6949   43.3106 H   0  0  0  0  0  0  0  0  0  0  0  0
   57.3370   30.1430   43.9830 C   0  0  0  0  0  0  0  0  0  0  0  0
   56.6930   29.2890   45.0030 C   0  0  0  0  0  0  0  0  0  0  0  0
   55.4420   29.3360   45.1690 O   0  0  0  0  0  0  0  0  0  0  0  0
   57.4980   28.3510   45.8220 C   0  0  0  0  0  0  0  0  0  0  0  0
   56.9490   27.1060   46.2020 C   0  0  0  0  0  0  0  0  0  0  0  0
   55.6490   26.7760   45.7800 O   0  0  0  0  0  0  0  0  0  0  0  0
   55.1580   25.4470   45.6310 C   0  0  0  0  0  0  0  0  0  0  0  0
   54.9940   25.0032   46.6241 H   0  0  0  0  0  0  0  0  0  0  0  0
   54.2079   25.4671   45.0769 H   0  0  0  0  0  0  0  0  0  0  0  0
   55.8929   24.8446   45.0769 H   0  0  0  0  0  0  0  0  0  0  0  0
   57.7170   26.2190   46.9800 C   0  0  0  0  0  0  0  0  0  0  0  0
   57.2936   25.2496   47.2817 H   0  0  0  0  0  0  0  0  0  0  0  0
   59.0090   26.5610   47.3700 C   0  0  0  0  0  0  0  0  0  0  0  0
   59.6039   25.8569   47.9703 H   0  0  0  0  0  0  0  0  0  0  0  0
   59.5520   27.7900   47.0040 C   0  0  0  0  0  0  0  0  0  0  0  0
   60.5741   28.0500   47.3167 H   0  0  0  0  0  0  0  0  0  0  0  0
   58.8030   28.7020   46.2370 C   0  0  0  0  0  0  0  0  0  0  0  0
   59.3160   29.9640   45.8910 O   0  0  0  0  0  0  0  0  0  0  0  0
   60.3600   30.6350   46.5900 C   0  0  0  0  0  0  0  0  0  0  0  0
   60.2006   30.5326   47.6736 H   0  0  0  0  0  0  0  0  0  0  0  0
   61.3284   30.1898   46.3181 H   0  0  0  0  0  0  0  0  0  0  0  0
   60.3572   31.7009   46.3181 H   0  0  0  0  0  0  0  0  0  0  0  0
   57.0440   31.4440   43.8480 C   0  0  0  0  0  0  0  0  0  0  0  0
   56.2888   31.7324   43.1021 H   0  0  0  0  0  0  0  0  0  0  0  0
   57.6830   32.5160   44.6500 C   0  0  0  0  0  0  0  0  0  0  0  0
   57.4430   32.5550   46.0350 C   0  0  0  0  0  0  0  0  0  0  0  0
   56.7846   31.8042   46.4963 H   0  0  0  0  0  0  0  0  0  0  0  0
   58.0350   33.5410   46.8300 C   0  0  0  0  0  0  0  0  0  0  0  0
   57.8350   33.5672   47.9113 H   0  0  0  0  0  0  0  0  0  0  0  0
   58.8790   34.4920   46.2550 C   0  0  0  0  0  0  0  0  0  0  0  0
   59.3384   35.2708   46.8814 H   0  0  0  0  0  0  0  0  0  0  0  0
   59.1400   34.4540   44.8830 C   0  0  0  0  0  0  0  0  0  0  0  0
   59.8108   35.1997   44.4313 H   0  0  0  0  0  0  0  0  0  0  0  0
   58.5510   33.4710   44.0830 C   0  0  0  0  0  0  0  0  0  0  0  0
   58.7660   33.4424   43.0046 H   0  0  0  0  0  0  0  0  0  0  0  0
  1  2  1  0
  2  3  1  0
  3  4  2  0
  3  5  1  0
  5  6  2  0
  6  7  1  0
  7  8  1  0
  8  9  1  0
  8 10  1  0
  8 11  1  0
  6 12  1  0
 12 13  1  0
 12 14  2  0
 14 15  1  0
 14 16  1  0
 16 17  1  0
 16 18  2  0
 18 19  1  0
 19 20  1  0
 20 21  1  0
 20 22  1  0
 20 23  1  0
  2 24  2  0
 24 25  1  0
 24 26  1  0
 26 27  2  0
 27 28  1  0
 27 29  1  0
 29 30  1  0
 29 31  2  0
 31 32  1  0
 31 33  1  0
 33 34  1  0
 33 35  2  0
 35 36  1  0
 18  5  1  0
 35 26  1  0
M  END
>  <UniqueID>  (8) 
6

>  <SMILES>  (8) 
COc1cccc(OC)c1C(=O)/C=C/c1ccccc1

>  <Energy>  (8) 
43.03888090997905

>  <Genealogy>  (8) 
COc1cccc(OC)c1C(=O)/C=C/c1ccccc1 (cis-trans isomerization)
COc1cccc(OC)c1C(=O)/C=C/c1ccccc1 (3D coordinates assigned)
COc1cccc(OC)c1C(=O)/C=C/c1ccccc1 (optimized conformer: 43.03888090997905 kcal/mol)

>  <smiles>  (8) 
COc1cccc(OC)c1C(=O)C=Cc1ccccc1

>  <score_type>  (8) 
oracle

>  <origin>  (8) 
adg

>  <m_score__min__energy>  (8) 
-7.1900000000000004

>  <m_primary>  (8) 
energy

$$$$
8:0
     RDKit          3D

 44 47  0  0  0  0  0  0  0  0999 V2000
   65.9390   32.7150   49.8480 C   0  0  0  0  0  0  0  0  0  0  0  0
   64.5520   33.1480   49.4870 C   0  0  0  0  0  0  0  0  0  0  0  0
   64.0000   32.7890   48.2490 C   0  0  0  0  0  0  0  0  0  0  0  0
   62.6850   33.1400   47.9340 C   0  0  0  0  0  0  0  0  0  0  0  0
   61.9050   33.8760   48.8470 C   0  0  0  0  0  0  0  0  0  0  0  0
   60.5400   34.2380   48.5630 N   0  0  0  0  0  0  0  0  0  0  0  0
   60.0050   34.4390   47.2490 C   0  0  0  0  0  0  0  0  0  0  0  0
   60.7680   34.6930   46.2790 O   0  0  0  0  0  0  0  0  0  0  0  0
   58.5260   34.3660   47.0140 C   0  0  0  0  0  0  0  0  0  0  0  0
   58.1630   33.0400   46.4610 N   0  0  0  0  0  0  0  0  0  0  0  0
   58.3650   31.8820   47.1860 C   0  0  0  0  0  0  0  0  0  0  0  0
   58.8560   31.8750   48.5810 C   0  0  0  0  0  0  0  0  0  0  0  0
   59.7330   30.9470   49.1090 C   0  0  0  0  0  0  0  0  0  0  0  0
   59.8950   31.2920   50.4310 C   0  0  0  0  0  0  0  0  0  0  0  0
   59.1000   32.4000   50.6350 C   0  0  0  0  0  0  0  0  0  0  0  0
   58.4910   32.7190   49.5160 O   0  0  0  0  0  0  0  0  0  0  0  0
   58.1430   30.6720   46.6110 N   0  0  0  0  0  0  0  0  0  0  0  0
   57.7100   30.5490   45.3410 C   0  0  0  0  0  0  0  0  0  0  0  0
   57.4930   29.2790   44.7930 C   0  0  0  0  0  0  0  0  0  0  0  0
   57.0450   29.1530   43.4760 C   0  0  0  0  0  0  0  0  0  0  0  0
   56.8060   30.2960   42.7040 C   0  0  0  0  0  0  0  0  0  0  0  0
   57.0220   31.5660   43.2450 C   0  0  0  0  0  0  0  0  0  0  0  0
   57.4780   31.7000   44.5720 C   0  0  0  0  0  0  0  0  0  0  0  0
   57.7230   32.9530   45.1580 C   0  0  0  0  0  0  0  0  0  0  0  0
   57.5450   33.9990   44.4720 O   0  0  0  0  0  0  0  0  0  0  0  0
   62.4490   34.1960   50.1020 C   0  0  0  0  0  0  0  0  0  0  0  0
   63.7590   33.8320   50.4240 C   0  0  0  0  0  0  0  0  0  0  0  0
   66.0400   32.6835   50.9429 H   0  0  0  0  0  0  0  0  0  0  0  0
   66.1304   31.7144   49.4332 H   0  0  0  0  0  0  0  0  0  0  0  0
   66.6657   33.4290   49.4332 H   0  0  0  0  0  0  0  0  0  0  0  0
   64.6056   32.2280   47.5220 H   0  0  0  0  0  0  0  0  0  0  0  0
   62.2560   32.8396   46.9667 H   0  0  0  0  0  0  0  0  0  0  0  0
   59.8930   34.3680   49.3700 H   0  0  0  0  0  0  0  0  0  0  0  0
   57.9982   34.5197   47.9668 H   0  0  0  0  0  0  0  0  0  0  0  0
   58.2367   35.1471   46.2956 H   0  0  0  0  0  0  0  0  0  0  0  0
   60.2048   30.1053   48.5809 H   0  0  0  0  0  0  0  0  0  0  0  0
   60.5296   30.7868   51.1740 H   0  0  0  0  0  0  0  0  0  0  0  0
   58.9922   32.9354   51.5899 H   0  0  0  0  0  0  0  0  0  0  0  0
   57.6754   28.3799   45.4000 H   0  0  0  0  0  0  0  0  0  0  0  0
   56.8798   28.1545   43.0450 H   0  0  0  0  0  0  0  0  0  0  0  0
   56.4473   30.1941   41.6691 H   0  0  0  0  0  0  0  0  0  0  0  0
   56.8360   32.4621   42.6348 H   0  0  0  0  0  0  0  0  0  0  0  0
   61.8378   34.7384   50.8383 H   0  0  0  0  0  0  0  0  0  0  0  0
   64.1705   34.0814   51.4132 H   0  0  0  0  0  0  0  0  0  0  0  0
  1  2  1  0
  2  3  2  0
  3  4  1  0
  4  5  2  0
  5  6  1  0
  6  7  1  0
  7  8  2  0
  7  9  1  0
  9 10  1  0
 10 11  1  0
 11 12  1  0
 12 13  2  0
 13 14  1  0
 14 15  2  0
 15 16  1  0
 11 17  2  0
 17 18  1  0
 18 19  2  0
 19 20  1  0
 20 21  2  0
 21 22  1  0
 22 23  2  0
 23 24  1  0
 24 25  2  0
  5 26  1  0
 26 27  2  0
 27  2  1  0
 24 10  1  0
 16 12  1  0
 23 18  1  0
  1 28  1  0
  1 29  1  0
  1 30  1  0
  3 31  1  0
  4 32  1  0
  6 33  1  0
  9 34  1  0
  9 35  1  0
 13 36  1  0
 14 37  1  0
 15 38  1  0
 19 39  1  0
 20 40  1  0
 21 41  1  0
 22 42  1  0
 26 43  1  0
 27 44  1  0
M  END
>  <UniqueID>  (9) 
7

>  <SMILES>  (9) 
Cc1ccc(NC(=O)Cn2c(-c3ccco3)nc3ccccc3c2=O)cc1

>  <Energy>  (9) 
88.40871456035094

>  <Genealogy>  (9) 
Cc1ccc(NC(=O)Cn2c(-c3ccco3)nc3ccccc3c2=O)cc1 (3D coordinates assigned)
Cc1ccc(NC(=O)Cn2c(-c3ccco3)nc3ccccc3c2=O)cc1 (optimized conformer: 88.40871456035094 kcal/mol)

>  <smiles>  (9) 
Cc1ccc(NC(=O)Cn2c(-c3ccco3)nc3ccccc3c2=O)cc1

>  <score_type>  (9) 
oracle

>  <origin>  (9) 
adg

>  <m_score__min__energy>  (9) 
-7.4699999999999998

>  <m_primary>  (9) 
energy

$$$$
9:0
     RDKit          3D

 44 47  0  0  0  0  0  0  0  0999 V2000
   58.8710   33.6690   51.8900 C   0  0  0  0  0  0  0  0  0  0  0  0
   59.8110   33.5330   50.8290 O   0  0  0  0  0  0  0  0  0  0  0  0
   59.4700   33.2480   49.4970 C   0  0  0  0  0  0  0  0  0  0  0  0
   59.6750   34.1760   48.4590 C   0  0  0  0  0  0  0  0  0  0  0  0
   59.3270   33.8600   47.1380 C   0  0  0  0  0  0  0  0  0  0  0  0
   58.8210   32.5740   46.8400 C   0  0  0  0  0  0  0  0  0  0  0  0
   58.5580   31.6760   47.8840 C   0  0  0  0  0  0  0  0  0  0  0  0
   58.9020   31.9980   49.2090 C   0  0  0  0  0  0  0  0  0  0  0  0
   58.6920   31.1010   50.2700 O   0  0  0  0  0  0  0  0  0  0  0  0
   59.1250   29.7440   50.2760 C   0  0  0  0  0  0  0  0  0  0  0  0
   58.4700   32.2970   45.4280 C   0  0  0  0  0  0  0  0  0  0  0  0
   58.3390   33.3150   44.5250 C   0  0  0  0  0  0  0  0  0  0  0  0
   57.9090   32.7270   43.3560 C   0  0  0  0  0  0  0  0  0  0  0  0
   57.8370   31.3920   43.5480 N   0  0  0  0  0  0  0  0  0  0  0  0
   58.1870   31.1310   44.8020 N   0  0  0  0  0  0  0  0  0  0  0  0
   58.3580   29.7930   45.2900 C   0  0  0  0  0  0  0  0  0  0  0  0
   57.2470   28.9590   45.4910 C   0  0  0  0  0  0  0  0  0  0  0  0
   57.4210   27.6560   45.9650 C   0  0  0  0  0  0  0  0  0  0  0  0
   58.7050   27.1820   46.2750 C   0  0  0  0  0  0  0  0  0  0  0  0
   58.8950   25.7690   46.7400 C   0  0  0  0  0  0  0  0  0  0  0  0
   59.8140   28.0200   46.0850 C   0  0  0  0  0  0  0  0  0  0  0  0
   59.6390   29.3240   45.6090 C   0  0  0  0  0  0  0  0  0  0  0  0
   58.5480   34.7560   44.8700 C   0  0  0  0  0  0  0  0  0  0  0  0
   59.5690   34.8740   46.0260 C   0  0  0  0  0  0  0  0  0  0  0  0
   59.3937   33.5934   52.8549 H   0  0  0  0  0  0  0  0  0  0  0  0
   58.3752   34.6482   51.8173 H   0  0  0  0  0  0  0  0  0  0  0  0
   58.1180   32.8704   51.8173 H   0  0  0  0  0  0  0  0  0  0  0  0
   60.1127   35.1592   48.6863 H   0  0  0  0  0  0  0  0  0  0  0  0
   58.0782   30.7108   47.6647 H   0  0  0  0  0  0  0  0  0  0  0  0
   59.2351   29.3989   51.3146 H   0  0  0  0  0  0  0  0  0  0  0  0
   58.3815   29.1196   49.7590 H   0  0  0  0  0  0  0  0  0  0  0  0
   60.0928   29.6656   49.7590 H   0  0  0  0  0  0  0  0  0  0  0  0
   57.6652   33.2558   42.4228 H   0  0  0  0  0  0  0  0  0  0  0  0
   56.2353   29.3326   45.2745 H   0  0  0  0  0  0  0  0  0  0  0  0
   56.5482   26.9994   46.0956 H   0  0  0  0  0  0  0  0  0  0  0  0
   58.8986   25.7422   47.8397 H   0  0  0  0  0  0  0  0  0  0  0  0
   58.0727   25.1445   46.3607 H   0  0  0  0  0  0  0  0  0  0  0  0
   59.8530   25.3838   46.3607 H   0  0  0  0  0  0  0  0  0  0  0  0
   60.8251   27.6504   46.3111 H   0  0  0  0  0  0  0  0  0  0  0  0
   60.5106   29.9835   45.4848 H   0  0  0  0  0  0  0  0  0  0  0  0
   58.9308   35.2910   43.9884 H   0  0  0  0  0  0  0  0  0  0  0  0
   57.5906   35.1974   45.1839 H   0  0  0  0  0  0  0  0  0  0  0  0
   60.5788   34.7149   45.6198 H   0  0  0  0  0  0  0  0  0  0  0  0
   59.4568   35.8768   46.4640 H   0  0  0  0  0  0  0  0  0  0  0  0
  1  2  1  0
  2  3  1  0
  3  4  2  0
  4  5  1  0
  5  6  2  0
  6  7  1  0
  7  8  2  0
  8  9  1  0
  9 10  1  0
  6 11  1  0
 11 12  2  0
 12 13  1  0
 13 14  2  0
 14 15  1  0
 15 16  1  0
 16 17  2  0
 17 18  1  0
 18 19  2  0
 19 20  1  0
 19 21  1  0
 21 22  2  0
 12 23  1  0
 23 24  1  0
  8  3  1  0
 15 11  1  0
 22 16  1  0
 24  5  1  0
  1 25  1  0
  1 26  1  0
  1 27  1  0
  4 28  1  0
  7 29  1  0
 10 30  1  0
 10 31  1  0
 10 32  1  0
 13 33  1  0
 17 34  1  0
 18 35  1  0
 20 36  1  0
 20 37  1  0
 20 38  1  0
 21 39  1  0
 22 40  1  0
 23 41  1  0
 23 42  1  0
 24 43  1  0
 24 44  1  0
M  END
>  <UniqueID>  (10) 
8

>  <SMILES>  (10) 
COc1cc2c(cc1OC)-c1c(cnn1-c1ccc(C)cc1)CC2

>  <Energy>  (10) 
90.23209129267157

>  <Genealogy>  (10) 
COc1cc2c(cc1OC)-c1c(cnn1-c1ccc(C)cc1)CC2 (3D coordinates assigned)
COc1cc2c(cc1OC)-c1c(cnn1-c1ccc(C)cc1)CC2 (nonaromatic ring conformer: 90.23209129267157 kcal/mol)

>  <smiles>  (10) 
COc1cc2c(cc1OC)-c1c(cnn1-c1ccc(C)cc1)CC2

>  <score_type>  (10) 
oracle

>  <origin>  (10) 
adg

>  <m_score__min__energy>  (10) 
-7.0700000000000003

>  <m_primary>  (10) 
energy

$$$$
10:0
     RDKit          3D

 34 37  0  0  0  0  0  0  0  0999 V2000
   59.9600   29.0010   45.5250 F   0  0  0  0  0  0  0  0  0  0  0  0
   58.8530   29.6100   45.0300 C   0  0  0  0  0  0  0  0  0  0  0  0
   58.0470   28.9120   44.1240 C   0  0  0  0  0  0  0  0  0  0  0  0
   56.9250   29.5250   43.5630 C   0  0  0  0  0  0  0  0  0  0  0  0
   56.6070   30.8430   43.9010 C   0  0  0  0  0  0  0  0  0  0  0  0
   57.4070   31.5470   44.8060 C   0  0  0  0  0  0  0  0  0  0  0  0
   58.5320   30.9350   45.3880 C   0  0  0  0  0  0  0  0  0  0  0  0
   59.3730   31.6970   46.3480 C   0  0  0  0  0  0  0  0  0  0  0  0
   59.6740   32.9300   46.0410 N   0  0  0  0  0  0  0  0  0  0  0  0
   60.4830   33.8370   46.8420 C   0  0  0  0  0  0  0  0  0  0  0  0
   61.8480   33.2620   46.9910 C   0  0  0  0  0  0  0  0  0  0  0  0
   63.0420   33.8270   46.5940 C   0  0  0  0  0  0  0  0  0  0  0  0
   64.0340   32.9750   46.9170 N   0  0  0  0  0  0  0  0  0  0  0  0
   63.4360   31.9170   47.5000 C   0  0  0  0  0  0  0  0  0  0  0  0
   62.0940   32.0630   47.5480 N   0  0  0  0  0  0  0  0  0  0  0  0
   61.1280   31.1840   48.1520 C   0  0  0  0  0  0  0  0  0  0  0  0
   61.4840   30.4660   49.3080 C   0  0  0  0  0  0  0  0  0  0  0  0
   60.5570   29.6490   49.9540 C   0  0  0  0  0  0  0  0  0  0  0  0
   59.2610   29.5390   49.4600 C   0  0  0  0  0  0  0  0  0  0  0  0
   58.8880   30.2350   48.3100 C   0  0  0  0  0  0  0  0  0  0  0  0
   59.8090   31.0560   47.6300 C   0  0  0  0  0  0  0  0  0  0  0  0
   58.2983   27.8761   43.8526 H   0  0  0  0  0  0  0  0  0  0  0  0
   56.2915   28.9705   42.8551 H   0  0  0  0  0  0  0  0  0  0  0  0
   55.7261   31.3273   43.4544 H   0  0  0  0  0  0  0  0  0  0  0  0
   57.1551   32.5861   45.0646 H   0  0  0  0  0  0  0  0  0  0  0  0
   60.5467   34.8145   46.3417 H   0  0  0  0  0  0  0  0  0  0  0  0
   60.0241   33.9692   47.8329 H   0  0  0  0  0  0  0  0  0  0  0  0
   63.1629   34.8024   46.1002 H   0  0  0  0  0  0  0  0  0  0  0  0
   65.0560   33.1090   46.7550 H   0  0  0  0  0  0  0  0  0  0  0  0
   63.9754   31.0410   47.8894 H   0  0  0  0  0  0  0  0  0  0  0  0
   62.5056   30.5500   49.7070 H   0  0  0  0  0  0  0  0  0  0  0  0
   60.8506   29.0908   50.8552 H   0  0  0  0  0  0  0  0  0  0  0  0
   58.5288   28.9017   49.9774 H   0  0  0  0  0  0  0  0  0  0  0  0
   57.8604   30.1415   47.9288 H   0  0  0  0  0  0  0  0  0  0  0  0
  1  2  1  0
  2  3  2  0
  3  4  1  0
  4  5  2  0
  5  6  1  0
  6  7  2  0
  7  8  1  0
  8  9  2  0
  9 10  1  0
 10 11  1  0
 11 12  2  0
 12 13  1  0
 13 14  2  0
 14 15  1  0
 15 16  1  0
 16 17  2  0
 17 18  1  0
 18 19  2  0
 19 20  1  0
 20 21  2  0
  7  2  1  0
 21  8  1  0
 15 11  1  0
 21 16  1  0
  3 22  1  0
  4 23  1  0
  5 24  1  0
  6 25  1  0
 10 26  1  0
 10 27  1  0
 12 28  1  0
 13 29  1  0
 14 30  1  0
 17 31  1  0
 18 32  1  0
 19 33  1  0
 20 34  1  0
M  CHG  1  13   1
M  END
>  <UniqueID>  (11) 
9

>  <SMILES>  (11) 
Fc1ccccc1C1=NCc2c[nH+]cn2-c2ccccc21

>  <Energy>  (11) 
85.65038013472783

>  <Genealogy>  (11) 
Fc1ccccc1C1=NCc2c[nH+]cn2-c2ccccc21 (protonated)
Fc1ccccc1C1=NCc2c[nH+]cn2-c2ccccc21 (3D coordinates assigned)
Fc1ccccc1C1=NCc2c[nH+]cn2-c2ccccc21 (nonaromatic ring conformer: 85.65038013472783 kcal/mol)

>  <smiles>  (11) 
Fc1ccccc1C1=NCc2cncn2-c2ccccc21

>  <score_type>  (11) 
oracle

>  <origin>  (11) 
adg

>  <m_score__min__energy>  (11) 
-5.6900000000000004

>  <m_primary>  (11) 
energy

$$$$
11:0
     RDKit          3D

 37 40  0  0  0  0  0  0  0  0999 V2000
   55.1520   30.1780   44.2220 O   0  0  0  0  0  0  0  0  0  0  0  0
   56.3560   29.9270   44.4940 C   0  0  0  0  0  0  0  0  0  0  0  0
   57.0740   30.7700   45.3850 N   0  0  0  0  0  0  0  0  0  0  0  0
   58.4540   30.5250   45.6540 C   0  0  0  0  0  0  0  0  0  0  0  0
   59.1740   31.4340   46.4260 C   0  0  0  0  0  0  0  0  0  0  0  0
   60.5400   31.2030   46.6610 C   0  0  0  0  0  0  0  0  0  0  0  0
   61.3640   32.1350   47.4710 C   0  0  0  0  0  0  0  0  0  0  0  0
   62.7630   31.9830   47.4900 C   0  0  0  0  0  0  0  0  0  0  0  0
   63.5620   32.8520   48.2410 C   0  0  0  0  0  0  0  0  0  0  0  0
   62.9760   33.8850   48.9740 C   0  0  0  0  0  0  0  0  0  0  0  0
   61.5900   34.0560   48.9540 C   0  0  0  0  0  0  0  0  0  0  0  0
   60.7870   33.1900   48.2060 C   0  0  0  0  0  0  0  0  0  0  0  0
   61.1150   30.1150   46.1520 O   0  0  0  0  0  0  0  0  0  0  0  0
   60.4640   29.2190   45.4170 C   0  0  0  0  0  0  0  0  0  0  0  0
   61.0880   28.2150   44.9810 O   0  0  0  0  0  0  0  0  0  0  0  0
   59.0950   29.3890   45.1320 C   0  0  0  0  0  0  0  0  0  0  0  0
   58.3220   28.3330   44.3520 C   0  0  1  0  0  0  0  0  0  0  0  0
   58.1390   27.0860   45.1900 C   0  0  0  0  0  0  0  0  0  0  0  0
   58.2990   27.1330   46.5870 C   0  0  0  0  0  0  0  0  0  0  0  0
   58.1300   25.9780   47.3570 C   0  0  0  0  0  0  0  0  0  0  0  0
   57.8000   24.7680   46.7410 C   0  0  0  0  0  0  0  0  0  0  0  0
   57.6370   23.6490   47.4890 F   0  0  0  0  0  0  0  0  0  0  0  0
   57.6370   24.7110   45.3540 C   0  0  0  0  0  0  0  0  0  0  0  0
   57.8050   25.8640   44.5800 C   0  0  0  0  0  0  0  0  0  0  0  0
   57.0110   28.8090   43.8940 N   0  0  0  0  0  0  0  0  0  0  0  0
   58.6792   32.3219   46.8465 H   0  0  0  0  0  0  0  0  0  0  0  0
   63.2320   31.1746   46.9098 H   0  0  0  0  0  0  0  0  0  0  0  0
   64.6541   32.7208   48.2537 H   0  0  0  0  0  0  0  0  0  0  0  0
   63.6056   34.5644   49.5674 H   0  0  0  0  0  0  0  0  0  0  0  0
   61.1294   34.8736   49.5279 H   0  0  0  0  0  0  0  0  0  0  0  0
   59.6965   33.3331   48.1910 H   0  0  0  0  0  0  0  0  0  0  0  0
   58.9222   28.1038   43.4591 H   0  0  0  0  0  0  0  0  0  0  0  0
   58.5584   28.0835   47.0762 H   0  0  0  0  0  0  0  0  0  0  0  0
   58.2570   26.0220   48.4488 H   0  0  0  0  0  0  0  0  0  0  0  0
   57.3762   23.7581   44.8704 H   0  0  0  0  0  0  0  0  0  0  0  0
   57.6752   25.8144   43.4888 H   0  0  0  0  0  0  0  0  0  0  0  0
   56.4860   28.2300   43.1990 H   0  0  0  0  0  0  0  0  0  0  0  0
  1  2  2  0
  2  3  1  0
  3  4  1  0
  4  5  1  0
  5  6  2  0
  6  7  1  0
  7  8  2  0
  8  9  1  0
  9 10  2  0
 10 11  1  0
 11 12  2  0
  6 13  1  0
 13 14  1  0
 14 15  2  0
 14 16  1  0
 16 17  1  0
 17 18  1  0
 18 19  2  0
 19 20  1  0
 20 21  2  0
 21 22  1  0
 21 23  1  0
 23 24  2  0
 17 25  1  0
 25  2  1  0
 16  4  2  0
 24 18  1  0
 12  7  1  0
  5 26  1  0
  8 27  1  0
  9 28  1  0
 10 29  1  0
 11 30  1  0
 12 31  1  0
 17 32  1  6
 19 33  1  0
 20 34  1  0
 23 35  1  0
 24 36  1  0
 25 37  1  0
M  CHG  1   3  -1
M  END
>  <UniqueID>  (12) 
10

>  <SMILES>  (12) 
O=C1[N-]c2cc(-c3ccccc3)oc(=O)c2[C@@H](c2ccc(F)cc2)N1

>  <Energy>  (12) 
48.252566287119095

>  <Genealogy>  (12) 
O=C1[N-]c2cc(-c3ccccc3)oc(=O)c2C(c2ccc(F)cc2)N1 (protonated)
O=C1[N-]c2cc(-c3ccccc3)oc(=O)c2[C@@H](c2ccc(F)cc2)N1 (chirality)
O=C1[N-]c2cc(-c3ccccc3)oc(=O)c2[C@@H](c2ccc(F)cc2)N1 (3D coordinates assigned)
O=C1[N-]c2cc(-c3ccccc3)oc(=O)c2[C@@H](c2ccc(F)cc2)N1 (nonaromatic ring conformer: 48.252566287119095 kcal/mol)

>  <smiles>  (12) 
O=C1Nc2cc(-c3ccccc3)oc(=O)c2C(c2ccc(F)cc2)N1

>  <score_type>  (12) 
oracle

>  <origin>  (12) 
adg

>  <m_score__min__energy>  (12) 
-9.6400000000000006

>  <m_primary>  (12) 
energy

$$$$
12:0
     RDKit          3D

 24 25  0  0  0  0  0  0  0  0999 V2000
   59.6000   29.3900   44.8540 C   0  0  0  0  0  0  0  0  0  0  0  0
   58.1370   29.4120   44.8100 N   0  0  0  0  0  0  0  0  0  0  0  0
   57.3120   30.4860   44.7420 C   0  0  0  0  0  0  0  0  0  0  0  0
   57.7460   31.9020   44.7190 C   0  0  0  0  0  0  0  0  0  0  0  0
   57.4080   32.6340   43.7500 O   0  0  0  0  0  0  0  0  0  0  0  0
   58.6040   32.4740   45.7840 C   0  0  0  0  0  0  0  0  0  0  0  0
   58.8110   31.7600   46.9780 C   0  0  0  0  0  0  0  0  0  0  0  0
   59.6270   32.2840   47.9850 C   0  0  0  0  0  0  0  0  0  0  0  0
   60.2540   33.5210   47.8070 C   0  0  0  0  0  0  0  0  0  0  0  0
   61.3720   34.2330   49.1840 Br  0  0  0  0  0  0  0  0  0  0  0  0
   60.0690   34.2320   46.6190 C   0  0  0  0  0  0  0  0  0  0  0  0
   59.2530   33.7110   45.6100 C   0  0  0  0  0  0  0  0  0  0  0  0
   56.0140   30.1110   44.7670 N   0  0  0  0  0  0  0  0  0  0  0  0
   56.0060   28.7900   44.8500 N   0  0  0  0  0  0  0  0  0  0  0  0
   57.2800   28.3710   44.8830 C   0  0  0  0  0  0  0  0  0  0  0  0
   57.7120   26.7960   45.0220 S   0  0  0  0  0  0  0  0  0  0  0  0
   59.9353   29.3850   45.9016 H   0  0  0  0  0  0  0  0  0  0  0  0
   59.9685   28.4862   44.3467 H   0  0  0  0  0  0  0  0  0  0  0  0
   59.9955   30.2823   44.3467 H   0  0  0  0  0  0  0  0  0  0  0  0
   58.3274   30.7823   47.1205 H   0  0  0  0  0  0  0  0  0  0  0  0
   59.7760   31.7222   48.9189 H   0  0  0  0  0  0  0  0  0  0  0  0
   60.5659   35.2031   46.4770 H   0  0  0  0  0  0  0  0  0  0  0  0
   59.1172   34.2718   44.6735 H   0  0  0  0  0  0  0  0  0  0  0  0
   55.1440   28.2030   44.8940 H   0  0  0  0  0  0  0  0  0  0  0  0
  1  2  1  0
  2  3  1  0
  3  4  1  0
  4  5  2  0
  4  6  1  0
  6  7  2  0
  7  8  1  0
  8  9  2  0
  9 10  1  0
  9 11  1  0
 11 12  2  0
  3 13  2  0
 13 14  1  0
 14 15  1  0
 15 16  2  0
 15  2  1  0
 12  6  1  0
  1 17  1  0
  1 18  1  0
  1 19  1  0
  7 20  1  0
  8 21  1  0
 11 22  1  0
 12 23  1  0
 14 24  1  0
M  END
>  <UniqueID>  (13) 
11

>  <SMILES>  (13) 
Cn1c(C(=O)c2ccc(Br)cc2)n[nH]c1=S

>  <Energy>  (13) 
65.77434685556086

>  <Genealogy>  (13) 
Cn1c(C(=O)c2ccc(Br)cc2)n[nH]c1=S (3D coordinates assigned)
Cn1c(C(=O)c2ccc(Br)cc2)n[nH]c1=S (optimized conformer: 65.77434685556086 kcal/mol)

>  <smiles>  (13) 
Cn1c(C(=O)c2ccc(Br)cc2)n[nH]c1=S

>  <score_type>  (13) 
oracle

>  <origin>  (13) 
adg

>  <m_score__min__energy>  (13) 
-6.9900000000000002

>  <m_primary>  (13) 
energy

$$$$
13:0
     RDKit          3D

 30 31  0  0  0  0  0  0  0  0999 V2000
   57.9810   27.2470   44.7700 C   0  0  0  0  0  0  0  0  0  0  0  0
   58.5180   28.5390   45.2940 C   0  0  0  0  0  0  0  0  0  0  0  0
   59.7610   28.6750   45.8060 N   0  0  0  0  0  0  0  0  0  0  0  0
   59.9130   29.9400   46.1710 N   0  0  0  0  0  0  0  0  0  0  0  0
   61.1450   30.4860   46.7270 C   0  0  0  0  0  0  0  0  0  0  0  0
   58.7910   30.6280   45.8910 C   0  0  0  0  0  0  0  0  0  0  0  0
   58.6350   32.0320   46.1230 N   0  0  0  0  0  0  0  0  0  0  0  0
   58.3780   32.5230   47.4760 C   0  0  0  0  0  0  0  0  0  0  0  0
   58.9870   33.9200   47.6330 C   0  0  0  0  0  0  0  0  0  0  0  0
   58.5660   34.7740   46.5850 O   0  0  0  0  0  0  0  0  0  0  0  0
   59.0760   34.3070   45.3490 C   0  0  0  0  0  0  0  0  0  0  0  0
   58.4750   32.9450   44.9920 C   0  0  0  0  0  0  0  0  0  0  0  0
   57.8690   29.7680   45.3290 C   0  0  0  0  0  0  0  0  0  0  0  0
   56.5430   30.0770   44.8700 N   0  0  0  0  0  0  0  0  0  0  0  0
   56.2620   31.2280   44.4760 O   0  0  0  0  0  0  0  0  0  0  0  0
   55.5620   29.1140   44.8600 O   0  0  0  0  0  0  0  0  0  0  0  0
   57.7096   26.5941   45.6126 H   0  0  0  0  0  0  0  0  0  0  0  0
   57.0896   27.4426   44.1558 H   0  0  0  0  0  0  0  0  0  0  0  0
   58.7484   26.7531   44.1558 H   0  0  0  0  0  0  0  0  0  0  0  0
   61.0932   30.4631   47.8255 H   0  0  0  0  0  0  0  0  0  0  0  0
   61.9996   29.8823   46.3875 H   0  0  0  0  0  0  0  0  0  0  0  0
   61.2718   31.5246   46.3875 H   0  0  0  0  0  0  0  0  0  0  0  0
   57.2928   32.5740   47.6482 H   0  0  0  0  0  0  0  0  0  0  0  0
   58.8321   31.8391   48.2082 H   0  0  0  0  0  0  0  0  0  0  0  0
   58.6678   34.3462   48.5955 H   0  0  0  0  0  0  0  0  0  0  0  0
   60.0829   33.8324   47.5970 H   0  0  0  0  0  0  0  0  0  0  0  0
   58.8248   35.0301   44.5590 H   0  0  0  0  0  0  0  0  0  0  0  0
   60.1671   34.1986   45.4365 H   0  0  0  0  0  0  0  0  0  0  0  0
   57.4053   33.0640   44.7649 H   0  0  0  0  0  0  0  0  0  0  0  0
   58.9922   32.5344   44.1123 H   0  0  0  0  0  0  0  0  0  0  0  0
  1  2  1  0
  2  3  2  0
  3  4  1  0
  4  5  1  0
  4  6  1  0
  6  7  1  0
  7  8  1  0
  8  9  1  0
  9 10  1  0
 10 11  1  0
 11 12  1  0
  6 13  2  0
 13 14  1  0
 14 15  2  0
 14 16  1  0
 13  2  1  0
 12  7  1  0
  1 17  1  0
  1 18  1  0
  1 19  1  0
  5 20  1  0
  5 21  1  0
  5 22  1  0
  8 23  1  0
  8 24  1  0
  9 25  1  0
  9 26  1  0
 11 27  1  0
 11 28  1  0
 12 29  1  0
 12 30  1  0
M  CHG  2  14   1  16  -1
M  END
>  <UniqueID>  (14) 
12

>  <SMILES>  (14) 
Cc1nn(C)c(N2CCOCC2)c1[N+](=O)[O-]

>  <Energy>  (14) 
66.95037720242381

>  <Genealogy>  (14) 
Cc1nn(C)c(N2CCOCC2)c1[N+](=O)[O-] (3D coordinates assigned)
Cc1nn(C)c(N2CCOCC2)c1[N+](=O)[O-] (nonaromatic ring conformer: 66.95037720242381 kcal/mol)

>  <smiles>  (14) 
Cc1nn(C)c(N2CCOCC2)c1[N+](=O)[O-]

>  <score_type>  (14) 
oracle

>  <origin>  (14) 
adg

>  <m_score__min__energy>  (14) 
-5.8799999999999999

>  <m_primary>  (14) 
energy

$$$$
14:0
     RDKit          3D

 31 33  0  0  0  0  0  0  0  0999 V2000
   58.1450   27.0660   42.6470 C   0  0  0  0  0  0  0  0  0  0  0  0
   58.4650   27.4120   43.8970 C   0  0  0  0  0  0  0  0  0  0  0  0
   57.4340   27.9240   44.8660 C   0  0  0  0  0  0  0  0  0  0  0  0
   57.5600   29.3880   45.0440 N   0  0  0  0  0  0  0  0  0  0  0  0
   56.6010   30.2530   44.5350 C   0  0  0  0  0  0  0  0  0  0  0  0
   55.2750   29.7120   43.7270 S   0  0  0  0  0  0  0  0  0  0  0  0
   56.7370   31.5990   44.6830 N   0  0  0  0  0  0  0  0  0  0  0  0
   57.8090   32.0950   45.3330 C   0  0  0  0  0  0  0  0  0  0  0  0
   58.1560   33.7170   45.5880 S   0  0  0  0  0  0  0  0  0  0  0  0
   59.6100   33.4010   46.3850 C   0  0  0  0  0  0  0  0  0  0  0  0
   59.8140   32.0210   46.4910 C   0  0  0  0  0  0  0  0  0  0  0  0
   58.7900   31.2850   45.8590 C   0  0  0  0  0  0  0  0  0  0  0  0
   58.6630   29.9000   45.6980 C   0  0  0  0  0  0  0  0  0  0  0  0
   59.5600   29.1320   46.1440 O   0  0  0  0  0  0  0  0  0  0  0  0
   61.0560   31.4490   47.1290 C   0  0  0  0  0  0  0  0  0  0  0  0
   61.7920   32.4920   47.9900 C   0  0  0  0  0  0  0  0  0  0  0  0
   61.9010   33.8450   47.2700 C   0  0  0  0  0  0  0  0  0  0  0  0
   60.5100   34.4340   46.9910 C   0  0  0  0  0  0  0  0  0  0  0  0
   58.9224   26.6951   41.9629 H   0  0  0  0  0  0  0  0  0  0  0  0
   57.1041   27.1520   42.3019 H   0  0  0  0  0  0  0  0  0  0  0  0
   59.5104   27.3201   44.2268 H   0  0  0  0  0  0  0  0  0  0  0  0
   56.4303   27.6929   44.4799 H   0  0  0  0  0  0  0  0  0  0  0  0
   57.5922   27.4360   45.8391 H   0  0  0  0  0  0  0  0  0  0  0  0
   60.7693   30.5999   47.7668 H   0  0  0  0  0  0  0  0  0  0  0  0
   61.7358   31.1297   46.3253 H   0  0  0  0  0  0  0  0  0  0  0  0
   61.2397   32.6319   48.9309 H   0  0  0  0  0  0  0  0  0  0  0  0
   62.8098   32.1222   48.1830 H   0  0  0  0  0  0  0  0  0  0  0  0
   62.4675   34.5444   47.9024 H   0  0  0  0  0  0  0  0  0  0  0  0
   62.4151   33.6905   46.3099 H   0  0  0  0  0  0  0  0  0  0  0  0
   60.0707   34.7862   47.9360 H   0  0  0  0  0  0  0  0  0  0  0  0
   60.6151   35.2703   46.2842 H   0  0  0  0  0  0  0  0  0  0  0  0
  1  2  2  0
  2  3  1  0
  3  4  1  0
  4  5  1  0
  5  6  2  0
  5  7  1  0
  7  8  1  0
  8  9  1  0
  9 10  1  0
 10 11  2  0
 11 12  1  0
 12 13  1  0
 13 14  2  0
 11 15  1  0
 15 16  1  0
 16 17  1  0
 17 18  1  0
 13  4  1  0
 12  8  2  0
 18 10  1  0
  1 19  1  0
  1 20  1  0
  2 21  1  0
  3 22  1  0
  3 23  1  0
 15 24  1  0
 15 25  1  0
 16 26  1  0
 16 27  1  0
 17 28  1  0
 17 29  1  0
 18 30  1  0
 18 31  1  0
M  CHG  1   7  -1
M  END
>  <UniqueID>  (15) 
13

>  <SMILES>  (15) 
C=CCn1c(=S)[n-]c2sc3c(c2c1=O)CCCC3

>  <Energy>  (15) 
68.45086924409281

>  <Genealogy>  (15) 
C=CCn1c(=S)[n-]c2sc3c(c2c1=O)CCCC3 (protonated)
C=CCn1c(=S)[n-]c2sc3c(c2c1=O)CCCC3 (3D coordinates assigned)
C=CCn1c(=S)[n-]c2sc3c(c2c1=O)CCCC3 (nonaromatic ring conformer: 68.45086924409281 kcal/mol)

>  <smiles>  (15) 
C=CCn1c(=S)[nH]c2sc3c(c2c1=O)CCCC3

>  <score_type>  (15) 
oracle

>  <origin>  (15) 
adg

>  <m_score__min__energy>  (15) 
-8.3300000000000001

>  <m_primary>  (15) 
energy

$$$$
15:0
     RDKit          3D

 42 45  0  0  1  0  0  0  0  0999 V2000
   60.6100   28.7550   48.9740 C   0  0  0  0  0  0  0  0  0  0  0  0
   59.6860   28.2960   47.9080 C   0  0  0  0  0  0  0  0  0  0  0  0
   58.7340   29.0940   47.3210 C   0  0  0  0  0  0  0  0  0  0  0  0
   57.9300   28.5540   46.3210 C   0  0  0  0  0  0  0  0  0  0  0  0
   57.0650   29.3120   45.8030 N   0  0  0  0  0  0  0  0  0  0  0  0
   57.1110   30.0970   44.6510 C   0  0  0  0  0  0  0  0  0  0  0  0
   56.5080   29.7050   43.4450 C   0  0  0  0  0  0  0  0  0  0  0  0
   56.6450   30.4930   42.3110 C   0  0  0  0  0  0  0  0  0  0  0  0
   57.3830   31.6660   42.3960 C   0  0  0  0  0  0  0  0  0  0  0  0
   57.9670   32.0440   43.5730 C   0  0  0  0  0  0  0  0  0  0  0  0
   57.8520   31.2850   44.7170 C   0  0  0  0  0  0  0  0  0  0  0  0
   58.0340   27.2950   45.9010 N   0  0  0  0  0  0  0  0  0  0  0  0
   57.4170   26.5670   45.0030 N   0  0  0  0  0  0  0  0  0  0  0  0
   57.9830   25.3390   45.0370 C   0  0  0  0  0  0  0  0  0  0  0  0
   57.7020   24.1890   44.2530 N   0  0  0  0  0  0  0  0  0  0  0  0
   56.9020   24.1970   43.0480 C   0  0  0  0  0  0  0  0  0  0  0  0
   55.8710   23.0830   43.0630 C   0  0  0  0  0  0  0  0  0  0  0  0
   56.3640   21.8250   43.5290 N   0  0  0  0  0  0  0  0  0  0  0  0
   56.9860   21.9570   44.8120 C   0  0  0  0  0  0  0  0  0  0  0  0
   58.2150   22.8670   44.6600 C   0  0  0  0  0  0  0  0  0  0  0  0
   58.9670   25.3160   45.9780 N   0  0  0  0  0  0  0  0  0  0  0  0
   58.9750   26.5360   46.4940 C   0  0  0  0  0  0  0  0  0  0  0  0
   59.7840   27.0260   47.4770 N   0  0  0  0  0  0  0  0  0  0  0  0
   60.1710   28.5369   49.9587 H   0  0  0  0  0  0  0  0  0  0  0  0
   61.5717   28.2298   48.8768 H   0  0  0  0  0  0  0  0  0  0  0  0
   60.7725   29.8386   48.8768 H   0  0  0  0  0  0  0  0  0  0  0  0
   58.6093   30.1407   47.6355 H   0  0  0  0  0  0  0  0  0  0  0  0
   55.9265   28.7724   43.3991 H   0  0  0  0  0  0  0  0  0  0  0  0
   56.1772   30.1936   41.3615 H   0  0  0  0  0  0  0  0  0  0  0  0
   57.4994   32.2997   41.5044 H   0  0  0  0  0  0  0  0  0  0  0  0
   58.5444   32.9796   43.6075 H   0  0  0  0  0  0  0  0  0  0  0  0
   58.3285   31.6025   45.6562 H   0  0  0  0  0  0  0  0  0  0  0  0
   56.6450   26.7600   44.3420 H   0  0  0  0  0  0  0  0  0  0  0  0
   56.3836   25.1639   42.9685 H   0  0  0  0  0  0  0  0  0  0  0  0
   57.5691   24.0411   42.1874 H   0  0  0  0  0  0  0  0  0  0  0  0
   55.0421   23.3908   43.7174 H   0  0  0  0  0  0  0  0  0  0  0  0
   55.5608   22.9299   42.0188 H   0  0  0  0  0  0  0  0  0  0  0  0
   55.5120   21.2070   43.6510 H   0  0  0  0  0  0  0  0  0  0  0  0
   56.2776   22.4044   45.5247 H   0  0  0  0  0  0  0  0  0  0  0  0
   57.2895   20.9695   45.1899 H   0  0  0  0  0  0  0  0  0  0  0  0
   58.7523   22.9447   45.6167 H   0  0  0  0  0  0  0  0  0  0  0  0
   58.9209   22.4657   43.9179 H   0  0  0  0  0  0  0  0  0  0  0  0
  1  2  1  0
  2  3  2  0
  3  4  1  0
  4  5  2  0
  5  6  1  0
  6  7  2  0
  7  8  1  0
  8  9  2  0
  9 10  1  0
 10 11  2  0
  4 12  1  0
 12 13  1  0
 13 14  1  0
 14 15  1  0
 15 16  1  0
 16 17  1  0
 17 18  1  0
 18 19  1  0
 19 20  1  0
 14 21  2  0
 21 22  1  0
 22 23  2  0
 23  2  1  0
 11  6  1  0
 22 12  1  0
 20 15  1  0
  1 24  1  0
  1 25  1  0
  1 26  1  0
  3 27  1  0
  7 28  1  0
  8 29  1  0
  9 30  1  0
 10 31  1  0
 11 32  1  0
 13 33  1  0
 16 34  1  0
 16 35  1  0
 17 36  1  0
 17 37  1  0
 18 38  1  0
 19 39  1  0
 19 40  1  0
 20 41  1  0
 20 42  1  0
M  END
>  <smiles>  (16) 
Cc1cc(=Nc2ccccc2)n2[nH]c(N3CCNCC3)nc2n1

>  <score_type>  (16) 
oracle

>  <origin>  (16) 
adg

>  <m_score__min__energy>  (16) 
-7.5899999999999999

>  <m_primary>  (16) 
energy

$$$$
16:0
     RDKit          3D

 27 28  0  0  0  0  0  0  0  0999 V2000
   56.6150   29.4250   42.9950 C   0  0  0  0  0  0  0  0  0  0  0  0
   55.9900   30.0410   44.2100 C   0  0  0  0  0  0  0  0  0  0  0  0
   55.1570   29.3700   44.8730 O   0  0  0  0  0  0  0  0  0  0  0  0
   56.2810   31.3850   44.6180 N   0  0  0  0  0  0  0  0  0  0  0  0
   57.4660   31.8400   45.2850 C   0  0  0  0  0  0  0  0  0  0  0  0
   57.6090   33.2060   45.5520 C   0  0  0  0  0  0  0  0  0  0  0  0
   58.7370   33.6830   46.2250 C   0  0  0  0  0  0  0  0  0  0  0  0
   59.7360   32.7950   46.6630 C   0  0  0  0  0  0  0  0  0  0  0  0
   60.9370   33.2980   47.3780 C   0  0  0  0  0  0  0  0  0  0  0  0
   60.8400   33.7610   48.7030 C   0  0  0  0  0  0  0  0  0  0  0  0
   61.9830   34.2300   49.3560 C   0  0  0  0  0  0  0  0  0  0  0  0
   63.1810   34.2380   48.7160 N   0  0  0  0  0  0  0  0  0  0  0  0
   63.3070   33.7980   47.4370 C   0  0  0  0  0  0  0  0  0  0  0  0
   62.1910   33.3200   46.7460 C   0  0  0  0  0  0  0  0  0  0  0  0
   59.5740   31.4180   46.4200 C   0  0  0  0  0  0  0  0  0  0  0  0
   58.4440   30.9450   45.7460 C   0  0  0  0  0  0  0  0  0  0  0  0
   57.3667   28.6841   43.3050 H   0  0  0  0  0  0  0  0  0  0  0  0
   55.8381   28.9297   42.3941 H   0  0  0  0  0  0  0  0  0  0  0  0
   57.0990   30.2091   42.3941 H   0  0  0  0  0  0  0  0  0  0  0  0
   56.8275   33.9098   45.2297 H   0  0  0  0  0  0  0  0  0  0  0  0
   58.8445   34.7614   46.4137 H   0  0  0  0  0  0  0  0  0  0  0  0
   59.8701   33.7539   49.2219 H   0  0  0  0  0  0  0  0  0  0  0  0
   61.9123   34.5939   50.3917 H   0  0  0  0  0  0  0  0  0  0  0  0
   64.2902   33.8182   46.9442 H   0  0  0  0  0  0  0  0  0  0  0  0
   62.2940   32.9622   45.7109 H   0  0  0  0  0  0  0  0  0  0  0  0
   60.3419   30.7090   46.7628 H   0  0  0  0  0  0  0  0  0  0  0  0
   58.3207   29.8652   45.5760 H   0  0  0  0  0  0  0  0  0  0  0  0
  1  2  1  0
  2  3  2  0
  2  4  1  0
  4  5  1  0
  5  6  2  0
  6  7  1  0
  7  8  2  0
  8  9  1  0
  9 10  2  0
 10 11  1  0
 11 12  2  0
 12 13  1  0
 13 14  2  0
  8 15  1  0
 15 16  2  0
 16  5  1  0
 14  9  1  0
  1 17  1  0
  1 18  1  0
  1 19  1  0
  6 20  1  0
  7 21  1  0
 10 22  1  0
 11 23  1  0
 13 24  1  0
 14 25  1  0
 15 26  1  0
 16 27  1  0
M  CHG  1   4  -1
M  END
>  <UniqueID>  (17) 
14

>  <SMILES>  (17) 
CC(=O)[N-]c1ccc(-c2ccncc2)cc1

>  <Energy>  (17) 
37.008576053662

>  <Genealogy>  (17) 
CC(=O)[N-]c1ccc(-c2ccncc2)cc1 (protonated)
CC(=O)[N-]c1ccc(-c2ccncc2)cc1 (3D coordinates assigned)
CC(=O)[N-]c1ccc(-c2ccncc2)cc1 (optimized conformer: 37.008576053662 kcal/mol)

>  <smiles>  (17) 
CC(=O)Nc1ccc(-c2ccncc2)cc1

>  <score_type>  (17) 
oracle

>  <origin>  (17) 
adg

>  <m_score__min__energy>  (17) 
-8.2400000000000002

>  <m_primary>  (17) 
energy

$$$$
17:0
     RDKit          3D

 42 44  0  0  0  0  0  0  0  0999 V2000
   63.0610   31.9680   47.1350 N   0  0  0  0  0  0  0  0  0  0  0  0
   62.7650   33.3610   47.2640 C   0  0  0  0  0  0  0  0  0  0  0  0
   63.3300   34.1950   46.5040 O   0  0  0  0  0  0  0  0  0  0  0  0
   61.7570   33.8330   48.2690 C   0  0  0  0  0  0  0  0  0  0  0  0
   60.4250   33.3360   47.9170 N   0  0  0  0  0  0  0  0  0  0  0  0
   59.6310   32.5120   48.6500 C   0  0  0  0  0  0  0  0  0  0  0  0
   60.1220   31.7570   50.2050 S   0  0  0  0  0  0  0  0  0  0  0  0
   61.1240   30.4480   49.4190 C   0  0  0  0  0  0  0  0  0  0  0  0
   60.4320   29.8990   48.2010 C   0  0  0  0  0  0  0  0  0  0  0  0
   59.4540   29.1150   48.3560 O   0  0  0  0  0  0  0  0  0  0  0  0
   60.8830   30.1930   46.8690 N   0  0  0  0  0  0  0  0  0  0  0  0
   60.6660   29.3300   45.7120 C   0  0  0  0  0  0  0  0  0  0  0  0
   59.2060   29.3250   45.3580 C   0  0  0  0  0  0  0  0  0  0  0  0
   58.4090   28.2180   45.6920 C   0  0  0  0  0  0  0  0  0  0  0  0
   57.0410   28.2220   45.3980 C   0  0  0  0  0  0  0  0  0  0  0  0
   56.4570   29.3350   44.7780 C   0  0  0  0  0  0  0  0  0  0  0  0
   55.1300   29.3400   44.5010 F   0  0  0  0  0  0  0  0  0  0  0  0
   57.2420   30.4450   44.4560 C   0  0  0  0  0  0  0  0  0  0  0  0
   58.6100   30.4450   44.7540 C   0  0  0  0  0  0  0  0  0  0  0  0
   58.3910   32.3390   48.1210 N   0  0  0  0  0  0  0  0  0  0  0  0
   58.4280   33.0990   47.0110 C   0  0  0  0  0  0  0  0  0  0  0  0
   57.3980   33.3130   46.0970 C   0  0  0  0  0  0  0  0  0  0  0  0
   57.6470   34.1820   45.0190 C   0  0  0  0  0  0  0  0  0  0  0  0
   58.9040   34.8120   44.8850 C   0  0  0  0  0  0  0  0  0  0  0  0
   59.9240   34.5800   45.8290 C   0  0  0  0  0  0  0  0  0  0  0  0
   59.6440   33.7080   46.8860 C   0  0  0  0  0  0  0  0  0  0  0  0
   62.5670   31.2530   47.7190 H   0  0  0  0  0  0  0  0  0  0  0  0
   63.7380   31.6390   46.4090 H   0  0  0  0  0  0  0  0  0  0  0  0
   62.0336   33.4582   49.2655 H   0  0  0  0  0  0  0  0  0  0  0  0
   61.7413   34.9329   48.2741 H   0  0  0  0  0  0  0  0  0  0  0  0
   62.0961   30.8684   49.1218 H   0  0  0  0  0  0  0  0  0  0  0  0
   61.2630   29.6307   50.1419 H   0  0  0  0  0  0  0  0  0  0  0  0
   61.2489   29.7071   44.8588 H   0  0  0  0  0  0  0  0  0  0  0  0
   60.9886   28.3062   45.9525 H   0  0  0  0  0  0  0  0  0  0  0  0
   58.8614   27.3455   46.1860 H   0  0  0  0  0  0  0  0  0  0  0  0
   56.4223   27.3493   45.6542 H   0  0  0  0  0  0  0  0  0  0  0  0
   56.7853   31.3189   43.9684 H   0  0  0  0  0  0  0  0  0  0  0  0
   59.2219   31.3270   44.5139 H   0  0  0  0  0  0  0  0  0  0  0  0
   56.4224   32.8187   46.2146 H   0  0  0  0  0  0  0  0  0  0  0  0
   56.8582   34.3719   44.2762 H   0  0  0  0  0  0  0  0  0  0  0  0
   59.0880   35.4887   44.0375 H   0  0  0  0  0  0  0  0  0  0  0  0
   60.9058   35.0675   45.7378 H   0  0  0  0  0  0  0  0  0  0  0  0
  1  2  1  0
  2  3  2  0
  2  4  1  0
  4  5  1  0
  5  6  1  0
  6  7  1  0
  7  8  1  0
  8  9  1  0
  9 10  2  0
  9 11  1  0
 11 12  1  0
 12 13  1  0
 13 14  2  0
 14 15  1  0
 15 16  2  0
 16 17  1  0
 16 18  1  0
 18 19  2  0
  6 20  2  0
 20 21  1  0
 21 22  2  0
 22 23  1  0
 23 24  2  0
 24 25  1  0
 25 26  2  0
 26  5  1  0
 19 13  1  0
 26 21  1  0
  1 27  1  0
  1 28  1  0
  4 29  1  0
  4 30  1  0
  8 31  1  0
  8 32  1  0
 12 33  1  0
 12 34  1  0
 14 35  1  0
 15 36  1  0
 18 37  1  0
 19 38  1  0
 22 39  1  0
 23 40  1  0
 24 41  1  0
 25 42  1  0
M  CHG  1  11  -1
M  END
>  <UniqueID>  (18) 
15

>  <SMILES>  (18) 
NC(=O)Cn1c(SCC(=O)[N-]Cc2ccc(F)cc2)nc2ccccc21

>  <Energy>  (18) 
71.55155715892205

>  <Genealogy>  (18) 
NC(=O)Cn1c(SCC(=O)[N-]Cc2ccc(F)cc2)nc2ccccc21 (protonated)
NC(=O)Cn1c(SCC(=O)[N-]Cc2ccc(F)cc2)nc2ccccc21 (3D coordinates assigned)
NC(=O)Cn1c(SCC(=O)[N-]Cc2ccc(F)cc2)nc2ccccc21 (optimized conformer: 71.55155715892205 kcal/mol)

>  <smiles>  (18) 
NC(=O)Cn1c(SCC(=O)NCc2ccc(F)cc2)nc2ccccc21

>  <score_type>  (18) 
oracle

>  <origin>  (18) 
adg

>  <m_score__min__energy>  (18) 
-10.76

>  <m_primary>  (18) 
energy

$$$$
18:0
     RDKit          3D

 33 35  0  0  0  0  0  0  0  0999 V2000
   58.8434   32.8870   47.8941 H   0  0  0  0  0  0  0  0  0  0  0  0
   58.4880   32.9640   46.8560 C   0  0  0  0  0  0  0  0  0  0  0  0
   58.7500   31.8330   45.6390 S   0  0  0  0  0  0  0  0  0  0  0  0
   57.9120   32.6610   44.4380 C   0  0  0  0  0  0  0  0  0  0  0  0
   57.7690   32.2130   43.0160 C   0  0  0  0  0  0  0  0  0  0  0  0
   58.7180   31.7699   42.6799 H   0  0  0  0  0  0  0  0  0  0  0  0
   57.5133   33.0841   42.3948 H   0  0  0  0  0  0  0  0  0  0  0  0
   56.7050   31.2190   42.8920 N   0  0  0  0  0  0  0  0  0  0  0  0
   56.4960   30.2420   43.7250 C   0  0  0  0  0  0  0  0  0  0  0  0
   57.3980   29.2390   43.9950 C   0  0  0  0  0  0  0  0  0  0  0  0
   58.4047   29.0984   43.5746 H   0  0  0  0  0  0  0  0  0  0  0  0
   56.7360   28.4450   44.9250 C   0  0  0  0  0  0  0  0  0  0  0  0
   57.2480   27.2090   45.5660 C   0  0  0  0  0  0  0  0  0  0  0  0
   58.6340   26.9790   45.6350 C   0  0  0  0  0  0  0  0  0  0  0  0
   59.3311   27.7209   45.2182 H   0  0  0  0  0  0  0  0  0  0  0  0
   59.1330   25.8170   46.2280 C   0  0  0  0  0  0  0  0  0  0  0  0
   60.2189   25.6472   46.2734 H   0  0  0  0  0  0  0  0  0  0  0  0
   58.2580   24.8710   46.7630 C   0  0  0  0  0  0  0  0  0  0  0  0
   58.6555   23.9523   47.2190 H   0  0  0  0  0  0  0  0  0  0  0  0
   56.8740   25.0880   46.7210 C   0  0  0  0  0  0  0  0  0  0  0  0
   55.9310   24.0540   47.2620 C   0  0  0  0  0  0  0  0  0  0  0  0
   55.9525   24.0776   48.3615 H   0  0  0  0  0  0  0  0  0  0  0  0
   54.9109   24.2684   46.9106 H   0  0  0  0  0  0  0  0  0  0  0  0
   56.2382   23.0579   46.9106 H   0  0  0  0  0  0  0  0  0  0  0  0
   56.3720   26.2480   46.1090 C   0  0  0  0  0  0  0  0  0  0  0  0
   55.2851   26.4079   46.0530 H   0  0  0  0  0  0  0  0  0  0  0  0
   55.5150   28.9680   45.1790 N   0  0  0  0  0  0  0  0  0  0  0  0
   55.3750   30.0600   44.4460 N   0  0  0  0  0  0  0  0  0  0  0  0
   54.5200   30.6600   44.4580 H   0  0  0  0  0  0  0  0  0  0  0  0
   57.4270   33.8480   44.9730 C   0  0  0  0  0  0  0  0  0  0  0  0
   56.8511   34.5838   44.3925 H   0  0  0  0  0  0  0  0  0  0  0  0
   57.7460   34.0120   46.3260 C   0  0  0  0  0  0  0  0  0  0  0  0
   57.4379   34.8888   46.9146 H   0  0  0  0  0  0  0  0  0  0  0  0
  1  2  1  0
  2  3  1  0
  3  4  1  0
  4  5  1  0
  5  6  1  0
  5  7  1  0
  5  8  1  0
  8  9  2  0
  9 10  1  0
 10 11  1  0
 10 12  2  0
 12 13  1  0
 13 14  2  0
 14 15  1  0
 14 16  1  0
 16 17  1  0
 16 18  2  0
 18 19  1  0
 18 20  1  0
 20 21  1  0
 21 22  1  0
 21 23  1  0
 21 24  1  0
 20 25  2  0
 25 26  1  0
 12 27  1  0
 27 28  1  0
 28 29  1  0
  4 30  2  0
 30 31  1  0
 30 32  1  0
 32 33  1  0
 32  2  2  0
 28  9  1  0
 25 13  1  0
M  CHG  1  27  -1
M  END
>  <UniqueID>  (19) 
16

>  <SMILES>  (19) 
Cc1cccc(-c2c/c(=N/Cc3cccs3)[nH][n-]2)c1

>  <Energy>  (19) 
91.3770429512043

>  <Genealogy>  (19) 
Cc1cccc(-c2cc(=NCc3cccs3)[nH][n-]2)c1 (protonated)
Cc1cccc(-c2c/c(=N/Cc3cccs3)[nH][n-]2)c1 (cis-trans isomerization)
Cc1cccc(-c2c/c(=N/Cc3cccs3)[nH][n-]2)c1 (3D coordinates assigned)
Cc1cccc(-c2c/c(=N/Cc3cccs3)[nH][n-]2)c1 (optimized conformer: 91.3770429512043 kcal/mol)

>  <smiles>  (19) 
Cc1cccc(-c2cc(=NCc3cccs3)[nH][nH]2)c1

>  <score_type>  (19) 
oracle

>  <origin>  (19) 
adg

>  <m_score__min__energy>  (19) 
-9.4900000000000002

>  <m_primary>  (19) 
energy

$$$$
19:0
     RDKit          3D

 46 48  0  0  0  0  0  0  0  0999 V2000
   58.3760   34.4710   45.5560 O   0  0  0  0  0  0  0  0  0  0  0  0
   58.4100   33.2260   45.7570 C   0  0  0  0  0  0  0  0  0  0  0  0
   58.9280   32.7230   47.0000 N   0  0  0  0  0  0  0  0  0  0  0  0
   59.0010   33.5620   48.2020 C   0  0  2  0  0  0  0  0  0  0  0  0
   60.1830   34.5450   48.0940 C   0  0  0  0  0  0  0  0  0  0  0  0
   61.5130   33.8350   48.1600 C   0  0  0  0  0  0  0  0  0  0  0  0
   62.2430   33.8020   49.3600 C   0  0  0  0  0  0  0  0  0  0  0  0
   63.4870   33.1630   49.4090 C   0  0  0  0  0  0  0  0  0  0  0  0
   64.0120   32.5600   48.2620 C   0  0  0  0  0  0  0  0  0  0  0  0
   63.2950   32.5990   47.0620 C   0  0  0  0  0  0  0  0  0  0  0  0
   62.0510   33.2360   47.0090 C   0  0  0  0  0  0  0  0  0  0  0  0
   59.1500   32.6840   49.4150 C   0  0  0  0  0  0  0  0  0  0  0  0
   59.2260   33.2080   50.5610 O   0  0  0  0  0  0  0  0  0  0  0  0
   59.2190   31.2620   49.2520 N   0  0  0  0  0  0  0  0  0  0  0  0
   60.2510   30.6290   48.7810 C   0  0  0  0  0  0  0  0  0  0  0  0
   60.1090   29.6930   47.6540 C   0  0  0  0  0  0  0  0  0  0  0  0
   59.6150   28.3880   47.8360 C   0  0  0  0  0  0  0  0  0  0  0  0
   59.5210   27.5330   46.7360 C   0  0  0  0  0  0  0  0  0  0  0  0
   59.9190   27.9770   45.4730 C   0  0  0  0  0  0  0  0  0  0  0  0
   60.4010   29.2790   45.3270 C   0  0  0  0  0  0  0  0  0  0  0  0
   60.4850   30.0980   46.4090 N   0  0  0  0  0  0  0  0  0  0  0  0
   57.9120   32.3030   44.7110 C   0  0  0  0  0  0  0  0  0  0  0  0
   57.4120   31.0300   45.0480 C   0  0  0  0  0  0  0  0  0  0  0  0
   56.9280   30.1750   44.0530 C   0  0  0  0  0  0  0  0  0  0  0  0
   56.9310   30.5790   42.7170 C   0  0  0  0  0  0  0  0  0  0  0  0
   57.4120   31.8440   42.3700 C   0  0  0  0  0  0  0  0  0  0  0  0
   57.4080   32.3550   40.6910 Cl  0  0  0  0  0  0  0  0  0  0  0  0
   57.8960   32.7050   43.3620 C   0  0  0  0  0  0  0  0  0  0  0  0
   59.2360   31.7260   47.0510 H   0  0  0  0  0  0  0  0  0  0  0  0
   58.0753   34.1487   48.2961 H   0  0  0  0  0  0  0  0  0  0  0  0
   60.1132   35.0812   47.1361 H   0  0  0  0  0  0  0  0  0  0  0  0
   60.1258   35.2416   48.9434 H   0  0  0  0  0  0  0  0  0  0  0  0
   61.8356   34.2797   50.2633 H   0  0  0  0  0  0  0  0  0  0  0  0
   64.0530   33.1351   50.3518 H   0  0  0  0  0  0  0  0  0  0  0  0
   64.9885   32.0552   48.3035 H   0  0  0  0  0  0  0  0  0  0  0  0
   63.7099   32.1281   46.1586 H   0  0  0  0  0  0  0  0  0  0  0  0
   61.4918   33.2680   46.0623 H   0  0  0  0  0  0  0  0  0  0  0  0
   61.2418   30.7943   49.2293 H   0  0  0  0  0  0  0  0  0  0  0  0
   59.3061   28.0450   48.8344 H   0  0  0  0  0  0  0  0  0  0  0  0
   59.1341   26.5113   46.8640 H   0  0  0  0  0  0  0  0  0  0  0  0
   59.8533   27.3078   44.6025 H   0  0  0  0  0  0  0  0  0  0  0  0
   60.7128   29.6423   44.3366 H   0  0  0  0  0  0  0  0  0  0  0  0
   57.4022   30.7068   46.0994 H   0  0  0  0  0  0  0  0  0  0  0  0
   56.5436   29.1806   44.3241 H   0  0  0  0  0  0  0  0  0  0  0  0
   56.5545   29.9011   41.9369 H   0  0  0  0  0  0  0  0  0  0  0  0
   58.2666   33.7031   43.0853 H   0  0  0  0  0  0  0  0  0  0  0  0
  1  2  2  0
  2  3  1  0
  3  4  1  0
  4  5  1  0
  5  6  1  0
  6  7  2  0
  7  8  1  0
  8  9  2  0
  9 10  1  0
 10 11  2  0
  4 12  1  0
 12 13  2  0
 12 14  1  0
 14 15  2  3
 15 16  1  0
 16 17  2  0
 17 18  1  0
 18 19  2  0
 19 20  1  0
 20 21  2  0
  2 22  1  0
 22 23  2  0
 23 24  1  0
 24 25  2  0
 25 26  1  0
 26 27  1  0
 26 28  2  0
 11  6  1  0
 21 16  1  0
 28 22  1  0
  3 29  1  0
  4 30  1  1
  5 31  1  0
  5 32  1  0
  7 33  1  0
  8 34  1  0
  9 35  1  0
 10 36  1  0
 11 37  1  0
 15 38  1  0
 17 39  1  0
 18 40  1  0
 19 41  1  0
 20 42  1  0
 23 43  1  0
 24 44  1  0
 25 45  1  0
 28 46  1  0
M  END
>  <UniqueID>  (20) 
17

>  <SMILES>  (20) 
O=C(N[C@H](Cc1ccccc1)C(=O)N=Cc1ccccn1)c1cccc(Cl)c1

>  <Energy>  (20) 
46.26718597778498

>  <Genealogy>  (20) 
O=C(N[C@H](Cc1ccccc1)C(=O)N=Cc1ccccn1)c1cccc(Cl)c1 (chirality)
O=C(N[C@H](Cc1ccccc1)C(=O)N=Cc1ccccn1)c1cccc(Cl)c1 (3D coordinates assigned)
O=C(N[C@H](Cc1ccccc1)C(=O)N=Cc1ccccn1)c1cccc(Cl)c1 (optimized conformer: 46.26718597778498 kcal/mol)

>  <smiles>  (20) 
O=C(NC(Cc1ccccc1)C(=O)N=Cc1ccccn1)c1cccc(Cl)c1

>  <score_type>  (20) 
oracle

>  <origin>  (20) 
adg

>  <m_score__min__energy>  (20) 
-8.3800000000000008

>  <m_primary>  (20) 
energy

$$$$
20:0
     RDKit          3D

 46 49  0  0  0  0  0  0  0  0999 V2000
   57.8704   33.7873   42.9128 H   0  0  0  0  0  0  0  0  0  0  0  0
   58.2230   33.2910   43.8290 C   0  0  0  0  0  0  0  0  0  0  0  0
   58.9120   34.0060   44.7480 N   0  0  0  0  0  0  0  0  0  0  0  0
   59.3650   33.4280   45.8860 C   0  0  0  0  0  0  0  0  0  0  0  0
   60.0040   34.1120   46.7880 N   0  0  0  0  0  0  0  0  0  0  0  0
   61.2860   33.8000   47.3630 C   0  0  0  0  0  0  0  0  0  0  0  0
   62.4540   33.7490   46.5750 C   0  0  0  0  0  0  0  0  0  0  0  0
   62.4000   33.9779   45.5004 H   0  0  0  0  0  0  0  0  0  0  0  0
   63.6800   33.4090   47.1530 C   0  0  0  0  0  0  0  0  0  0  0  0
   64.5904   33.3871   46.5359 H   0  0  0  0  0  0  0  0  0  0  0  0
   63.7520   33.0970   48.5120 C   0  0  0  0  0  0  0  0  0  0  0  0
   64.7196   32.8379   48.9666 H   0  0  0  0  0  0  0  0  0  0  0  0
   62.5950   33.1140   49.2940 C   0  0  0  0  0  0  0  0  0  0  0  0
   62.6522   32.8600   50.3627 H   0  0  0  0  0  0  0  0  0  0  0  0
   61.3630   33.4530   48.7230 C   0  0  0  0  0  0  0  0  0  0  0  0
   59.9250   33.4580   49.7350 Cl  0  0  0  0  0  0  0  0  0  0  0  0
   59.1090   32.1180   46.1100 N   0  0  0  0  0  0  0  0  0  0  0  0
   58.4320   31.3270   45.2320 C   0  0  0  0  0  0  0  0  0  0  0  0
   57.9490   31.9250   44.0230 C   0  0  0  0  0  0  0  0  0  0  0  0
   57.1250   31.2880   42.9090 C   0  0  0  0  0  0  0  0  0  0  0  0
   57.6559   31.4838   41.9657 H   0  0  0  0  0  0  0  0  0  0  0  0
   56.1323   31.7474   43.0253 H   0  0  0  0  0  0  0  0  0  0  0  0
   56.8360   29.7900   42.9540 C   0  0  0  0  0  0  0  0  0  0  0  0
   57.7842   29.2409   42.8569 H   0  0  0  0  0  0  0  0  0  0  0  0
   56.1535   29.5473   42.1262 H   0  0  0  0  0  0  0  0  0  0  0  0
   56.1620   29.3850   44.2600 C   0  0  0  0  0  0  0  0  0  0  0  0
   55.5190   28.5084   44.0924 H   0  0  0  0  0  0  0  0  0  0  0  0
   55.5378   30.2073   44.6398 H   0  0  0  0  0  0  0  0  0  0  0  0
   57.2290   29.0490   45.2410 C   0  0  0  0  0  0  0  0  0  0  0  0
   57.4200   27.8430   45.9060 C   0  0  0  0  0  0  0  0  0  0  0  0
   56.6560   26.5910   45.7810 C   0  0  0  0  0  0  0  0  0  0  0  0
   55.4130   26.6060   46.0020 O   0  0  0  0  0  0  0  0  0  0  0  0
   57.3150   25.3540   45.4830 N   0  0  0  0  0  0  0  0  0  0  0  0
   58.3590   25.3090   45.5000 H   0  0  0  0  0  0  0  0  0  0  0  0
   56.5690   24.1320   45.2170 C   0  0  0  0  0  0  0  0  0  0  0  0
   56.2825   23.6626   46.1697 H   0  0  0  0  0  0  0  0  0  0  0  0
   55.6639   24.3731   44.6402 H   0  0  0  0  0  0  0  0  0  0  0  0
   57.1971   23.4372   44.6402 H   0  0  0  0  0  0  0  0  0  0  0  0
   58.5250   28.0120   46.7100 C   0  0  0  0  0  0  0  0  0  0  0  0
   58.9306   27.2515   47.3935 H   0  0  0  0  0  0  0  0  0  0  0  0
   59.0360   29.2460   46.5360 N   0  0  0  0  0  0  0  0  0  0  0  0
   60.2430   29.7320   47.2040 C   0  0  0  0  0  0  0  0  0  0  0  0
   60.1062   29.6769   48.2941 H   0  0  0  0  0  0  0  0  0  0  0  0
   61.1007   29.1092   46.9102 H   0  0  0  0  0  0  0  0  0  0  0  0
   60.4298   30.7754   46.9102 H   0  0  0  0  0  0  0  0  0  0  0  0
   58.2490   29.9000   45.6390 C   0  0  0  0  0  0  0  0  0  0  0  0
  1  2  1  0
  2  3  2  0
  3  4  1  0
  4  5  2  0
  5  6  1  0
  6  7  2  0
  7  8  1  0
  7  9  1  0
  9 10  1  0
  9 11  2  0
 11 12  1  0
 11 13  1  0
 13 14  1  0
 13 15  2  0
 15 16  1  0
  4 17  1  0
 17 18  1  0
 18 19  2  0
 19 20  1  0
 20 21  1  0
 20 22  1  0
 20 23  1  0
 23 24  1  0
 23 25  1  0
 23 26  1  0
 26 27  1  0
 26 28  1  0
 26 29  1  0
 29 30  1  0
 30 31  1  0
 31 32  2  0
 31 33  1  0
 33 34  1  0
 33 35  1  0
 35 36  1  0
 35 37  1  0
 35 38  1  0
 30 39  2  0
 39 40  1  0
 39 41  1  0
 41 42  1  0
 42 43  1  0
 42 44  1  0
 42 45  1  0
 41 46  1  0
 19  2  1  0
 46 29  2  0
 15  6  1  0
 46 18  1  0
M  CHG  1  17  -1
M  END
>  <UniqueID>  (21) 
18

>  <SMILES>  (21) 
CNC(=O)c1cn(C)c2c1CCCc1cn/c(=N\c3ccccc3Cl)[n-]c1-2

>  <Energy>  (21) 
98.80386321829097

>  <Genealogy>  (21) 
CNC(=O)c1cn(C)c2c1CCCc1cnc(=Nc3ccccc3Cl)[n-]c1-2 (protonated)
CNC(=O)c1cn(C)c2c1CCCc1cn/c(=N\c3ccccc3Cl)[n-]c1-2 (cis-trans isomerization)
CNC(=O)c1cn(C)c2c1CCCc1cn/c(=N\c3ccccc3Cl)[n-]c1-2 (3D coordinates assigned)
CNC(=O)c1cn(C)c2c1CCCc1cn/c(=N\c3ccccc3Cl)[n-]c1-2 (nonaromatic ring conformer: 98.80386321829097 kcal/mol)

>  <smiles>  (21) 
CNC(=O)c1cn(C)c2c1CCCc1cnc(=Nc3ccccc3Cl)[nH]c1-2

>  <score_type>  (21) 
oracle

>  <origin>  (21) 
adg

>  <m_score__min__energy>  (21) 
-9.0600000000000005

>  <m_primary>  (21) 
energy

$$$$
21:0
     RDKit          3D

 31 33  0  0  0  0  0  0  0  0999 V2000
   56.8210   24.4590   43.3760 N   0  0  0  0  0  0  0  0  0  0  0  0
   55.9130   23.4810   43.8830 C   0  0  0  0  0  0  0  0  0  0  0  0
   55.8490   22.3460   43.3390 O   0  0  0  0  0  0  0  0  0  0  0  0
   55.0660   23.7790   45.0870 C   0  0  0  0  0  0  0  0  0  0  0  0
   55.9100   24.3050   46.2540 C   0  0  0  0  0  0  0  0  0  0  0  0
   56.4970   25.6480   45.9450 C   0  0  0  0  0  0  0  0  0  0  0  0
   57.8260   25.8660   45.8540 N   0  0  0  0  0  0  0  0  0  0  0  0
   57.9060   27.1900   45.6340 C   0  0  0  0  0  0  0  0  0  0  0  0
   56.6530   27.7320   45.5830 C   0  0  0  0  0  0  0  0  0  0  0  0
   55.7460   26.7590   45.7780 N   0  0  0  0  0  0  0  0  0  0  0  0
   56.3000   29.1040   45.2240 C   0  0  0  0  0  0  0  0  0  0  0  0
   55.1290   29.3400   44.8250 O   0  0  0  0  0  0  0  0  0  0  0  0
   57.2130   30.1970   45.3400 N   0  0  0  0  0  0  0  0  0  0  0  0
   58.5410   30.2510   45.8780 C   0  0  0  0  0  0  0  0  0  0  0  0
   58.9730   31.5030   46.3430 C   0  0  0  0  0  0  0  0  0  0  0  0
   60.2650   31.6820   46.8350 C   0  0  0  0  0  0  0  0  0  0  0  0
   61.1560   30.6130   46.8500 C   0  0  0  0  0  0  0  0  0  0  0  0
   60.7560   29.3660   46.3730 C   0  0  0  0  0  0  0  0  0  0  0  0
   59.4510   29.1590   45.8870 C   0  0  0  0  0  0  0  0  0  0  0  0
   59.1330   27.8610   45.3670 N   0  0  0  0  0  0  0  0  0  0  0  0
   57.4210   24.2430   42.5500 H   0  0  0  0  0  0  0  0  0  0  0  0
   56.9050   25.3960   43.8310 H   0  0  0  0  0  0  0  0  0  0  0  0
   54.3168   24.5381   44.8175 H   0  0  0  0  0  0  0  0  0  0  0  0
   54.5810   22.8448   45.4065 H   0  0  0  0  0  0  0  0  0  0  0  0
   55.2725   24.3902   47.1463 H   0  0  0  0  0  0  0  0  0  0  0  0
   56.7355   23.5993   46.4287 H   0  0  0  0  0  0  0  0  0  0  0  0
   58.2804   32.3572   46.3188 H   0  0  0  0  0  0  0  0  0  0  0  0
   60.5798   32.6667   47.2108 H   0  0  0  0  0  0  0  0  0  0  0  0
   62.1757   30.7522   47.2382 H   0  0  0  0  0  0  0  0  0  0  0  0
   61.4713   28.5303   46.3763 H   0  0  0  0  0  0  0  0  0  0  0  0
   59.9320   27.2490   45.0850 H   0  0  0  0  0  0  0  0  0  0  0  0
  1  2  1  0
  2  3  2  0
  2  4  1  0
  4  5  1  0
  5  6  1  0
  6  7  2  0
  7  8  1  0
  8  9  2  0
  9 10  1  0
  9 11  1  0
 11 12  2  0
 11 13  1  0
 13 14  1  0
 14 15  2  0
 15 16  1  0
 16 17  2  0
 17 18  1  0
 18 19  2  0
 19 20  1  0
 10  6  1  0
 19 14  1  0
 20  8  1  0
  1 21  1  0
  1 22  1  0
  4 23  1  0
  4 24  1  0
  5 25  1  0
  5 26  1  0
 15 27  1  0
 16 28  1  0
 17 29  1  0
 18 30  1  0
 20 31  1  0
M  CHG  2  10  -1  13  -1
M  END
>  <UniqueID>  (22) 
19

>  <SMILES>  (22) 
NC(=O)CCc1nc2c([n-]1)C(=O)[N-]c1ccccc1N2

>  <Energy>  (22) 
70.03936380772728

>  <Genealogy>  (22) 
NC(=O)CCc1nc2c([n-]1)C(=O)[N-]c1ccccc1N2 (protonated)
NC(=O)CCc1nc2c([n-]1)C(=O)[N-]c1ccccc1N2 (3D coordinates assigned)
NC(=O)CCc1nc2c([n-]1)C(=O)[N-]c1ccccc1N2 (nonaromatic ring conformer: 70.03936380772728 kcal/mol)

>  <smiles>  (22) 
NC(=O)CCc1nc2c([nH]1)C(=O)Nc1ccccc1N2

>  <score_type>  (22) 
oracle

>  <origin>  (22) 
adg

>  <m_score__min__energy>  (22) 
-10.109999999999999

>  <m_primary>  (22) 
energy

$$$$
22:0
     RDKit          3D

 37 39  0  0  0  0  0  0  0  0999 V2000
   58.3622   27.7373   42.9836 H   0  0  0  0  0  0  0  0  0  0  0  0
   58.2310   27.8280   44.0720 C   0  0  0  0  0  0  0  0  0  0  0  0
   59.0130   26.9030   45.2440 S   0  0  0  0  0  0  0  0  0  0  0  0
   58.2450   27.6820   46.5150 C   0  0  0  0  0  0  0  0  0  0  0  0
   58.5140   27.4650   47.7690 N   0  0  0  0  0  0  0  0  0  0  0  0
   59.2920   28.3210   48.6240 C   0  0  0  0  0  0  0  0  0  0  0  0
   58.9450   29.6730   48.7170 C   0  0  0  0  0  0  0  0  0  0  0  0
   58.1024   30.0687   48.1310 H   0  0  0  0  0  0  0  0  0  0  0  0
   59.6730   30.5180   49.5570 C   0  0  0  0  0  0  0  0  0  0  0  0
   59.3931   31.5782   49.6445 H   0  0  0  0  0  0  0  0  0  0  0  0
   60.7280   30.0340   50.2680 N   0  0  0  0  0  0  0  0  0  0  0  0
   61.2620   30.6780   50.8930 H   0  0  0  0  0  0  0  0  0  0  0  0
   61.1090   28.7320   50.1720 C   0  0  0  0  0  0  0  0  0  0  0  0
   61.9733   28.3698   50.7480 H   0  0  0  0  0  0  0  0  0  0  0  0
   60.4060   27.8530   49.3440 C   0  0  0  0  0  0  0  0  0  0  0  0
   60.7214   26.8029   49.2559 H   0  0  0  0  0  0  0  0  0  0  0  0
   57.4010   28.6390   46.0800 N   0  0  0  0  0  0  0  0  0  0  0  0
   57.3890   28.7280   44.7230 C   0  0  0  0  0  0  0  0  0  0  0  0
   56.5430   29.7500   44.0070 C   0  0  1  0  0  0  0  0  0  0  0  0
   56.1108   29.2725   43.1152 H   0  0  0  0  0  0  0  0  0  0  0  0
   55.4410   30.1840   44.8700 N   0  0  0  0  0  0  0  0  0  0  0  0
   55.5550   29.7470   45.8140 H   0  0  0  0  0  0  0  0  0  0  0  0
   54.5270   29.8640   44.4770 H   0  0  0  0  0  0  0  0  0  0  0  0
   57.3820   30.9420   43.4780 C   0  0  0  0  0  0  0  0  0  0  0  0
   58.2745   30.5395   42.9766 H   0  0  0  0  0  0  0  0  0  0  0  0
   56.7293   31.5096   42.7984 H   0  0  0  0  0  0  0  0  0  0  0  0
   57.8360   31.9080   44.5500 C   0  0  0  0  0  0  0  0  0  0  0  0
   58.6960   31.4760   45.5770 C   0  0  0  0  0  0  0  0  0  0  0  0
   59.0798   30.4452   45.5720 H   0  0  0  0  0  0  0  0  0  0  0  0
   59.0650   32.3510   46.6040 C   0  0  0  0  0  0  0  0  0  0  0  0
   59.7268   32.0032   47.4109 H   0  0  0  0  0  0  0  0  0  0  0  0
   58.5940   33.6660   46.6060 C   0  0  0  0  0  0  0  0  0  0  0  0
   58.8811   34.3519   47.4166 H   0  0  0  0  0  0  0  0  0  0  0  0
   57.7580   34.1100   45.5780 C   0  0  0  0  0  0  0  0  0  0  0  0
   57.3933   35.1478   45.5771 H   0  0  0  0  0  0  0  0  0  0  0  0
   57.3840   33.2390   44.5510 C   0  0  0  0  0  0  0  0  0  0  0  0
   56.7329   33.5967   43.7397 H   0  0  0  0  0  0  0  0  0  0  0  0
  1  2  1  0
  2  3  1  0
  3  4  1  0
  4  5  2  0
  5  6  1  0
  6  7  2  0
  7  8  1  0
  7  9  1  0
  9 10  1  0
  9 11  2  0
 11 12  1  0
 11 13  1  0
 13 14  1  0
 13 15  2  0
 15 16  1  0
  4 17  1  0
 17 18  1  0
 18 19  1  0
 19 20  1  6
 19 21  1  0
 21 22  1  0
 21 23  1  0
 19 24  1  0
 24 25  1  0
 24 26  1  0
 24 27  1  0
 27 28  2  0
 28 29  1  0
 28 30  1  0
 30 31  1  0
 30 32  2  0
 32 33  1  0
 32 34  1  0
 34 35  1  0
 34 36  2  0
 36 37  1  0
 18  2  2  0
 36 27  1  0
 15  6  1  0
M  CHG  2  11   1  17  -1
M  END
>  <UniqueID>  (23) 
20

>  <SMILES>  (23) 
N[C@@H](Cc1ccccc1)c1cs/c(=N/c2cc[nH+]cc2)[n-]1

>  <Energy>  (23) 
70.59706128235018

>  <Genealogy>  (23) 
NC(Cc1ccccc1)c1csc(=Nc2cc[nH+]cc2)[n-]1 (protonated)
N[C@@H](Cc1ccccc1)c1csc(=Nc2cc[nH+]cc2)[n-]1 (chirality)
N[C@@H](Cc1ccccc1)c1cs/c(=N/c2cc[nH+]cc2)[n-]1 (cis-trans isomerization)
N[C@@H](Cc1ccccc1)c1cs/c(=N/c2cc[nH+]cc2)[n-]1 (3D coordinates assigned)
N[C@@H](Cc1ccccc1)c1cs/c(=N/c2cc[nH+]cc2)[n-]1 (optimized conformer: 70.59706128235018 kcal/mol)

>  <smiles>  (23) 
NC(Cc1ccccc1)c1csc(=Nc2ccncc2)[nH]1

>  <score_type>  (23) 
oracle

>  <origin>  (23) 
adg

>  <m_score__min__energy>  (23) 
-8.2100000000000009

>  <m_primary>  (23) 
energy

$$$$
23:0
     RDKit          3D

 18 19  0  0  0  0  0  0  0  0999 V2000
   59.2440   34.9420   46.8260 C   0  0  0  0  0  0  0  0  0  0  0  0
   58.6650   33.8580   47.4900 C   0  0  0  0  0  0  0  0  0  0  0  0
   58.1190   32.7980   46.7580 C   0  0  0  0  0  0  0  0  0  0  0  0
   58.1510   32.8170   45.3530 C   0  0  0  0  0  0  0  0  0  0  0  0
   57.5780   31.7030   44.5710 C   0  0  0  0  0  0  0  0  0  0  0  0
   58.1410   31.1810   43.4620 N   0  0  0  0  0  0  0  0  0  0  0  0
   57.3240   30.2170   43.0750 N   0  0  0  0  0  0  0  0  0  0  0  0
   56.2980   30.1740   43.9410 C   0  0  0  0  0  0  0  0  0  0  0  0
   56.4520   31.0900   44.8670 O   0  0  0  0  0  0  0  0  0  0  0  0
   58.7360   33.9120   44.6940 C   0  0  0  0  0  0  0  0  0  0  0  0
   59.2810   34.9700   45.4290 C   0  0  0  0  0  0  0  0  0  0  0  0
   59.6715   35.7749   47.4034 H   0  0  0  0  0  0  0  0  0  0  0  0
   58.6383   33.8377   48.5895 H   0  0  0  0  0  0  0  0  0  0  0  0
   57.6629   31.9464   47.2842 H   0  0  0  0  0  0  0  0  0  0  0  0
   57.4680   29.6080   42.2400 H   0  0  0  0  0  0  0  0  0  0  0  0
   55.4523   29.4730   43.8821 H   0  0  0  0  0  0  0  0  0  0  0  0
   58.7654   33.9371   43.5947 H   0  0  0  0  0  0  0  0  0  0  0  0
   59.7386   35.8238   44.9078 H   0  0  0  0  0  0  0  0  0  0  0  0
  1  2  2  0
  2  3  1  0
  3  4  2  0
  4  5  1  0
  5  6  2  0
  6  7  1  0
  7  8  2  0
  8  9  1  0
  4 10  1  0
 10 11  2  0
 11  1  1  0
  9  5  1  0
  1 12  1  0
  2 13  1  0
  3 14  1  0
  7 15  1  0
  8 16  1  0
 10 17  1  0
 11 18  1  0
M  CHG  1   7   1
M  END
>  <UniqueID>  (24) 
21

>  <SMILES>  (24) 
c1ccc(-c2n[nH+]co2)cc1

>  <Energy>  (24) 
53.752150655411484

>  <Genealogy>  (24) 
c1ccc(-c2n[nH+]co2)cc1 (protonated)
c1ccc(-c2n[nH+]co2)cc1 (3D coordinates assigned)
c1ccc(-c2n[nH+]co2)cc1 (optimized conformer: 53.752150655411484 kcal/mol)

>  <smiles>  (24) 
c1ccc(-c2nnco2)cc1

>  <score_type>  (24) 
oracle

>  <origin>  (24) 
adg

>  <m_score__min__energy>  (24) 
-4.1600000000000001

>  <m_primary>  (24) 
energy

$$$$
24:0
     RDKit          3D

 30 32  0  0  0  0  0  0  0  0999 V2000
   57.6150   32.2540   45.1750 C   0  0  0  0  0  0  0  0  0  0  0  0
   58.1820   31.4200   46.1410 C   0  0  0  0  0  0  0  0  0  0  0  0
   58.1640   30.0330   45.9690 C   0  0  0  0  0  0  0  0  0  0  0  0
   57.5750   29.4620   44.8220 C   0  0  0  0  0  0  0  0  0  0  0  0
   57.5550   27.9900   44.6370 C   0  0  0  0  0  0  0  0  0  0  0  0
   57.2530   27.1690   45.6780 N   0  0  0  0  0  0  0  0  0  0  0  0
   57.2260   25.8200   45.5320 C   0  0  0  0  0  0  0  0  0  0  0  0
   57.5160   25.2390   44.2890 C   0  0  0  0  0  0  0  0  0  0  0  0
   57.4950   23.7650   44.1010 C   0  0  0  0  0  0  0  0  0  0  0  0
   58.3140   22.9310   44.8820 C   0  0  0  0  0  0  0  0  0  0  0  0
   58.2780   21.5480   44.6900 C   0  0  0  0  0  0  0  0  0  0  0  0
   57.4530   21.0070   43.7530 N   0  0  0  0  0  0  0  0  0  0  0  0
   56.6490   21.7880   42.9820 C   0  0  0  0  0  0  0  0  0  0  0  0
   56.6540   23.1760   43.1420 C   0  0  0  0  0  0  0  0  0  0  0  0
   57.8270   26.1030   43.2280 C   0  0  0  0  0  0  0  0  0  0  0  0
   57.8380   27.4460   43.4210 N   0  0  0  0  0  0  0  0  0  0  0  0
   57.0080   30.3160   43.8560 C   0  0  0  0  0  0  0  0  0  0  0  0
   57.0290   31.7030   44.0340 C   0  0  0  0  0  0  0  0  0  0  0  0
   57.6301   33.3452   45.3132 H   0  0  0  0  0  0  0  0  0  0  0  0
   58.6438   31.8556   47.0393 H   0  0  0  0  0  0  0  0  0  0  0  0
   58.6126   29.3821   46.7339 H   0  0  0  0  0  0  0  0  0  0  0  0
   56.9759   25.1804   46.3913 H   0  0  0  0  0  0  0  0  0  0  0  0
   58.9806   23.3659   45.6413 H   0  0  0  0  0  0  0  0  0  0  0  0
   58.9192   20.8936   45.2988 H   0  0  0  0  0  0  0  0  0  0  0  0
   57.4370   19.9720   43.6220 H   0  0  0  0  0  0  0  0  0  0  0  0
   55.9928   21.3252   42.2302 H   0  0  0  0  0  0  0  0  0  0  0  0
   56.0016   23.8056   42.5191 H   0  0  0  0  0  0  0  0  0  0  0  0
   58.0628   25.6900   42.2361 H   0  0  0  0  0  0  0  0  0  0  0  0
   56.5450   29.8886   42.9544 H   0  0  0  0  0  0  0  0  0  0  0  0
   56.5830   32.3609   43.2736 H   0  0  0  0  0  0  0  0  0  0  0  0
  1  2  2  0
  2  3  1  0
  3  4  2  0
  4  5  1  0
  5  6  2  0
  6  7  1  0
  7  8  2  0
  8  9  1  0
  9 10  2  0
 10 11  1  0
 11 12  2  0
 12 13  1  0
 13 14  2  0
  8 15  1  0
 15 16  2  0
  4 17  1  0
 17 18  2  0
 18  1  1  0
 16  5  1  0
 14  9  1  0
  1 19  1  0
  2 20  1  0
  3 21  1  0
  7 22  1  0
 10 23  1  0
 11 24  1  0
 12 25  1  0
 13 26  1  0
 14 27  1  0
 15 28  1  0
 17 29  1  0
 18 30  1  0
M  CHG  1  12   1
M  END
>  <UniqueID>  (25) 
22

>  <SMILES>  (25) 
c1ccc(-c2ncc(-c3cc[nH+]cc3)cn2)cc1

>  <Energy>  (25) 
40.69898231264085

>  <Genealogy>  (25) 
c1ccc(-c2ncc(-c3cc[nH+]cc3)cn2)cc1 (protonated)
c1ccc(-c2ncc(-c3cc[nH+]cc3)cn2)cc1 (3D coordinates assigned)
c1ccc(-c2ncc(-c3cc[nH+]cc3)cn2)cc1 (optimized conformer: 40.69898231264085 kcal/mol)

>  <smiles>  (25) 
c1ccc(-c2ncc(-c3ccncc3)cn2)cc1

>  <score_type>  (25) 
oracle

>  <origin>  (25) 
adg

>  <m_score__min__energy>  (25) 
-5.3499999999999996

>  <m_primary>  (25) 
energy

$$$$
25:0
     RDKit          3D

 42 44  0  0  0  0  0  0  0  0999 V2000
   58.1400   32.2040   43.4210 C   0  0  0  0  0  0  0  0  0  0  0  0
   57.8330   33.3070   44.3430 N   0  0  0  0  0  0  0  0  0  0  0  0
   58.9900   34.2250   44.4950 C   0  0  0  0  0  0  0  0  0  0  0  0
   59.7550   33.9840   45.8040 C   0  0  0  0  0  0  0  0  0  0  0  0
   58.8880   34.1920   46.9870 N   0  0  0  0  0  0  0  0  0  0  0  0
   59.4580   33.5120   48.1690 C   0  0  0  0  0  0  0  0  0  0  0  0
   60.9070   33.1460   47.9220 C   0  0  0  0  0  0  0  0  0  0  0  0
   61.8840   34.1380   48.1170 C   0  0  0  0  0  0  0  0  0  0  0  0
   63.2400   33.8450   47.9650 C   0  0  0  0  0  0  0  0  0  0  0  0
   63.6410   32.5560   47.6180 C   0  0  0  0  0  0  0  0  0  0  0  0
   62.6880   31.5570   47.4140 C   0  0  0  0  0  0  0  0  0  0  0  0
   61.3170   31.8380   47.5500 C   0  0  0  0  0  0  0  0  0  0  0  0
   60.3520   30.7500   47.2950 C   0  0  0  0  0  0  0  0  0  0  0  0
   59.9740   30.4280   45.9820 C   0  0  0  0  0  0  0  0  0  0  0  0
   59.0660   29.3920   45.7460 C   0  0  0  0  0  0  0  0  0  0  0  0
   58.5370   28.6650   46.8150 C   0  0  0  0  0  0  0  0  0  0  0  0
   57.6560   27.6620   46.5850 F   0  0  0  0  0  0  0  0  0  0  0  0
   58.9210   28.9710   48.1250 C   0  0  0  0  0  0  0  0  0  0  0  0
   59.8300   30.0060   48.3650 C   0  0  0  0  0  0  0  0  0  0  0  0
   57.4700   33.8100   46.7530 C   0  0  0  0  0  0  0  0  0  0  0  0
   57.3250   32.7770   45.6290 C   0  0  0  0  0  0  0  0  0  0  0  0
   58.3910   31.3022   43.9988 H   0  0  0  0  0  0  0  0  0  0  0  0
   57.2641   32.0014   42.7872 H   0  0  0  0  0  0  0  0  0  0  0  0
   58.9946   32.4830   42.7872 H   0  0  0  0  0  0  0  0  0  0  0  0
   59.6772   34.0714   43.6499 H   0  0  0  0  0  0  0  0  0  0  0  0
   58.6032   35.2545   44.5152 H   0  0  0  0  0  0  0  0  0  0  0  0
   60.1301   32.9500   45.8134 H   0  0  0  0  0  0  0  0  0  0  0  0
   60.5859   34.7030   45.8550 H   0  0  0  0  0  0  0  0  0  0  0  0
   59.3972   34.1840   49.0377 H   0  0  0  0  0  0  0  0  0  0  0  0
   58.8861   32.5922   48.3609 H   0  0  0  0  0  0  0  0  0  0  0  0
   61.5759   35.1574   48.3927 H   0  0  0  0  0  0  0  0  0  0  0  0
   63.9929   34.6320   48.1192 H   0  0  0  0  0  0  0  0  0  0  0  0
   64.7106   32.3257   47.5047 H   0  0  0  0  0  0  0  0  0  0  0  0
   63.0122   30.5410   47.1445 H   0  0  0  0  0  0  0  0  0  0  0  0
   60.3936   30.9927   45.1364 H   0  0  0  0  0  0  0  0  0  0  0  0
   58.7672   29.1485   44.7157 H   0  0  0  0  0  0  0  0  0  0  0  0
   58.5074   28.3968   48.9671 H   0  0  0  0  0  0  0  0  0  0  0  0
   60.1371   30.2380   49.3955 H   0  0  0  0  0  0  0  0  0  0  0  0
   57.0605   33.3836   47.6806 H   0  0  0  0  0  0  0  0  0  0  0  0
   56.9223   34.7151   46.4518 H   0  0  0  0  0  0  0  0  0  0  0  0
   57.8955   31.8750   45.8954 H   0  0  0  0  0  0  0  0  0  0  0  0
   56.2573   32.5408   45.5099 H   0  0  0  0  0  0  0  0  0  0  0  0
  1  2  1  0
  2  3  1  0
  3  4  1  0
  4  5  1  0
  5  6  1  0
  6  7  1  0
  7  8  2  0
  8  9  1  0
  9 10  2  0
 10 11  1  0
 11 12  2  0
 12 13  1  0
 13 14  2  0
 14 15  1  0
 15 16  2  0
 16 17  1  0
 16 18  1  0
 18 19  2  0
  5 20  1  0
 20 21  1  0
 21  2  1  0
 12  7  1  0
 19 13  1  0
  1 22  1  0
  1 23  1  0
  1 24  1  0
  3 25  1  0
  3 26  1  0
  4 27  1  0
  4 28  1  0
  6 29  1  0
  6 30  1  0
  8 31  1  0
  9 32  1  0
 10 33  1  0
 11 34  1  0
 14 35  1  0
 15 36  1  0
 18 37  1  0
 19 38  1  0
 20 39  1  0
 20 40  1  0
 21 41  1  0
 21 42  1  0
M  END
>  <UniqueID>  (26) 
23

>  <SMILES>  (26) 
CN1CCN(Cc2ccccc2-c2ccc(F)cc2)CC1

>  <Energy>  (26) 
63.08435440623469

>  <Genealogy>  (26) 
CN1CCN(Cc2ccccc2-c2ccc(F)cc2)CC1 (3D coordinates assigned)
CN1CCN(Cc2ccccc2-c2ccc(F)cc2)CC1 (nonaromatic ring conformer: 63.08435440623469 kcal/mol)

>  <smiles>  (26) 
CN1CCN(Cc2ccccc2-c2ccc(F)cc2)CC1

>  <score_type>  (26) 
oracle

>  <origin>  (26) 
adg

>  <m_score__min__energy>  (26) 
-6.7699999999999996

>  <m_primary>  (26) 
energy

$$$$
26:0
     RDKit          3D

 48 51  0  0  0  0  0  0  0  0999 V2000
   66.9180   33.6180   51.5070 O   0  0  0  0  0  0  0  0  0  0  0  0
   65.9380   32.6150   50.9670 S   0  0  0  0  0  0  0  0  0  0  0  0
   66.5410   31.2390   50.9920 O   0  0  0  0  0  0  0  0  0  0  0  0
   64.4510   32.6370   51.9320 C   0  0  0  0  0  0  0  0  0  0  0  0
   63.5930   33.8240   51.4990 C   0  0  0  0  0  0  0  0  0  0  0  0
   63.2090   33.7560   50.0360 C   0  0  0  0  0  0  0  0  0  0  0  0
   61.9070   34.1300   49.6600 C   0  0  0  0  0  0  0  0  0  0  0  0
   61.5290   34.1650   48.3090 C   0  0  0  0  0  0  0  0  0  0  0  0
   60.1350   34.5720   47.9090 C   0  0  0  0  0  0  0  0  0  0  0  0
   59.5260   33.5430   47.0420 N   0  0  0  0  0  0  0  0  0  0  0  0
   60.0980   33.5520   45.6690 C   0  0  0  0  0  0  0  0  0  0  0  0
   59.1770   34.2460   44.6520 C   0  0  0  0  0  0  0  0  0  0  0  0
   57.8390   33.6070   44.5760 N   0  0  0  0  0  0  0  0  0  0  0  0
   57.7510   32.6700   43.4370 C   0  0  0  0  0  0  0  0  0  0  0  0
   57.5100   31.2690   43.9120 C   0  0  0  0  0  0  0  0  0  0  0  0
   56.2850   30.6120   43.9100 C   0  0  0  0  0  0  0  0  0  0  0  0
   56.3510   29.3250   44.4560 C   0  0  0  0  0  0  0  0  0  0  0  0
   57.6230   28.9810   44.8870 C   0  0  0  0  0  0  0  0  0  0  0  0
   58.0740   27.4590   45.6270 Cl  0  0  0  0  0  0  0  0  0  0  0  0
   58.6710   30.2630   44.6010 S   0  0  0  0  0  0  0  0  0  0  0  0
   57.4270   32.9570   45.8480 C   0  0  0  0  0  0  0  0  0  0  0  0
   58.0490   33.6530   47.0620 C   0  0  0  0  0  0  0  0  0  0  0  0
   62.4690   33.8380   47.3240 C   0  0  0  0  0  0  0  0  0  0  0  0
   63.7690   33.4770   47.6800 C   0  0  0  0  0  0  0  0  0  0  0  0
   64.1530   33.4300   49.0280 C   0  0  0  0  0  0  0  0  0  0  0  0
   65.4950   33.0380   49.3530 N   0  0  0  0  0  0  0  0  0  0  0  0
   63.8941   31.7020   51.7722 H   0  0  0  0  0  0  0  0  0  0  0  0
   64.7024   32.7305   52.9988 H   0  0  0  0  0  0  0  0  0  0  0  0
   62.6750   33.8359   52.1049 H   0  0  0  0  0  0  0  0  0  0  0  0
   64.1862   34.7383   51.6477 H   0  0  0  0  0  0  0  0  0  0  0  0
   61.1746   34.3989   50.4354 H   0  0  0  0  0  0  0  0  0  0  0  0
   59.5200   34.6945   48.8127 H   0  0  0  0  0  0  0  0  0  0  0  0
   60.1860   35.5206   47.3545 H   0  0  0  0  0  0  0  0  0  0  0  0
   61.0615   34.0823   45.6917 H   0  0  0  0  0  0  0  0  0  0  0  0
   60.2194   32.5061   45.3506 H   0  0  0  0  0  0  0  0  0  0  0  0
   59.0505   35.2975   44.9492 H   0  0  0  0  0  0  0  0  0  0  0  0
   59.6467   34.1625   43.6608 H   0  0  0  0  0  0  0  0  0  0  0  0
   56.9213   32.9758   42.7828 H   0  0  0  0  0  0  0  0  0  0  0  0
   58.7038   32.6951   42.8879 H   0  0  0  0  0  0  0  0  0  0  0  0
   55.3585   31.0580   43.5193 H   0  0  0  0  0  0  0  0  0  0  0  0
   55.4823   28.6548   44.5351 H   0  0  0  0  0  0  0  0  0  0  0  0
   56.3312   33.0013   45.9333 H   0  0  0  0  0  0  0  0  0  0  0  0
   57.7770   31.9143   45.8315 H   0  0  0  0  0  0  0  0  0  0  0  0
   57.7679   34.7164   47.0493 H   0  0  0  0  0  0  0  0  0  0  0  0
   57.6750   33.1646   47.9739 H   0  0  0  0  0  0  0  0  0  0  0  0
   62.1808   33.8659   46.2628 H   0  0  0  0  0  0  0  0  0  0  0  0
   64.4992   33.2270   46.8962 H   0  0  0  0  0  0  0  0  0  0  0  0
   66.2030   32.9020   48.5960 H   0  0  0  0  0  0  0  0  0  0  0  0
  1  2  2  0
  2  3  2  0
  2  4  1  0
  4  5  1  0
  5  6  1  0
  6  7  2  0
  7  8  1  0
  8  9  1  0
  9 10  1  0
 10 11  1  0
 11 12  1  0
 12 13  1  0
 13 14  1  0
 14 15  1  0
 15 16  2  0
 16 17  1  0
 17 18  2  0
 18 19  1  0
 18 20  1  0
 13 21  1  0
 21 22  1  0
  8 23  2  0
 23 24  1  0
 24 25  2  0
 25 26  1  0
 26  2  1  0
 25  6  1  0
 22 10  1  0
 20 15  1  0
  4 27  1  0
  4 28  1  0
  5 29  1  0
  5 30  1  0
  7 31  1  0
  9 32  1  0
  9 33  1  0
 11 34  1  0
 11 35  1  0
 12 36  1  0
 12 37  1  0
 14 38  1  0
 14 39  1  0
 16 40  1  0
 17 41  1  0
 21 42  1  0
 21 43  1  0
 22 44  1  0
 22 45  1  0
 23 46  1  0
 24 47  1  0
 26 48  1  0
M  END
>  <UniqueID>  (27) 
24

>  <SMILES>  (27) 
O=S1(=O)CCc2cc(CN3CCN(Cc4ccc(Cl)s4)CC3)ccc2N1

>  <Energy>  (27) 
88.97213100711329

>  <Genealogy>  (27) 
O=S1(=O)CCc2cc(CN3CCN(Cc4ccc(Cl)s4)CC3)ccc2N1 (3D coordinates assigned)
O=S1(=O)CCc2cc(CN3CCN(Cc4ccc(Cl)s4)CC3)ccc2N1 (nonaromatic ring conformer: 88.97213100711329 kcal/mol)

>  <smiles>  (27) 
O=S1(=O)CCc2cc(CN3CCN(Cc4ccc(Cl)s4)CC3)ccc2N1

>  <score_type>  (27) 
oracle

>  <origin>  (27) 
adg

>  <m_score__min__energy>  (27) 
-9.1500000000000004

>  <m_primary>  (27) 
energy

$$$$
27:0
     RDKit          3D

 31 32  0  0  0  0  0  0  0  0999 V2000
   59.9730   28.1630   46.6270 C   0  0  0  0  0  0  0  0  0  0  0  0
   60.0430   29.5930   47.1480 C   0  0  0  0  0  0  0  0  0  0  0  0
   59.3690   30.5050   46.2240 N   0  0  0  0  0  0  0  0  0  0  0  0
   58.6260   30.1370   45.1540 C   0  0  0  0  0  0  0  0  0  0  0  0
   58.0730   31.2580   44.5450 C   0  0  0  0  0  0  0  0  0  0  0  0
   57.1330   31.2590   43.3740 C   0  0  0  0  0  0  0  0  0  0  0  0
   56.1550   30.0760   43.4290 C   0  0  0  0  0  0  0  0  0  0  0  0
   56.5980   28.9610   42.5890 N   0  0  0  0  0  0  0  0  0  0  0  0
   58.4840   32.3410   45.3000 C   0  0  0  0  0  0  0  0  0  0  0  0
   58.2010   33.7030   45.1850 C   0  0  0  0  0  0  0  0  0  0  0  0
   58.7520   34.5730   46.1410 C   0  0  0  0  0  0  0  0  0  0  0  0
   59.5590   34.0710   47.1850 C   0  0  0  0  0  0  0  0  0  0  0  0
   59.8230   32.6920   47.2820 C   0  0  0  0  0  0  0  0  0  0  0  0
   59.2700   31.8490   46.3140 C   0  0  0  0  0  0  0  0  0  0  0  0
   59.9388   27.4646   47.4762 H   0  0  0  0  0  0  0  0  0  0  0  0
   59.0678   28.0399   46.0143 H   0  0  0  0  0  0  0  0  0  0  0  0
   60.8619   27.9520   46.0143 H   0  0  0  0  0  0  0  0  0  0  0  0
   59.5526   29.6451   48.1312 H   0  0  0  0  0  0  0  0  0  0  0  0
   61.0985   29.8897   47.2364 H   0  0  0  0  0  0  0  0  0  0  0  0
   58.4807   29.1006   44.8152 H   0  0  0  0  0  0  0  0  0  0  0  0
   56.5584   32.1970   43.3790 H   0  0  0  0  0  0  0  0  0  0  0  0
   57.7304   31.1673   42.4549 H   0  0  0  0  0  0  0  0  0  0  0  0
   56.0763   29.7279   44.4695 H   0  0  0  0  0  0  0  0  0  0  0  0
   55.1812   30.4212   43.0513 H   0  0  0  0  0  0  0  0  0  0  0  0
   55.9150   28.7950   41.8160 H   0  0  0  0  0  0  0  0  0  0  0  0
   57.5450   29.1600   42.1920 H   0  0  0  0  0  0  0  0  0  0  0  0
   56.6530   28.0960   43.1740 H   0  0  0  0  0  0  0  0  0  0  0  0
   57.5663   34.0835   44.3712 H   0  0  0  0  0  0  0  0  0  0  0  0
   58.5532   35.6529   46.0755 H   0  0  0  0  0  0  0  0  0  0  0  0
   59.9842   34.7622   47.9275 H   0  0  0  0  0  0  0  0  0  0  0  0
   60.4456   32.2899   48.0949 H   0  0  0  0  0  0  0  0  0  0  0  0
  1  2  1  0
  2  3  1  0
  3  4  1  0
  4  5  2  0
  5  6  1  0
  6  7  1  0
  7  8  1  0
  5  9  1  0
  9 10  2  0
 10 11  1  0
 11 12  2  0
 12 13  1  0
 13 14  2  0
 14  3  1  0
 14  9  1  0
  1 15  1  0
  1 16  1  0
  1 17  1  0
  2 18  1  0
  2 19  1  0
  4 20  1  0
  6 21  1  0
  6 22  1  0
  7 23  1  0
  7 24  1  0
  8 25  1  0
  8 26  1  0
  8 27  1  0
 10 28  1  0
 11 29  1  0
 12 30  1  0
 13 31  1  0
M  CHG  1   8   1
M  END
>  <UniqueID>  (28) 
25

>  <SMILES>  (28) 
CCn1cc(CC[NH3+])c2ccccc21

>  <Energy>  (28) 
56.73163955868433

>  <Genealogy>  (28) 
CCn1cc(CC[NH3+])c2ccccc21 (protonated)
CCn1cc(CC[NH3+])c2ccccc21 (3D coordinates assigned)
CCn1cc(CC[NH3+])c2ccccc21 (optimized conformer: 56.73163955868433 kcal/mol)

>  <smiles>  (28) 
CCn1cc(CCN)c2ccccc21

>  <score_type>  (28) 
oracle

>  <origin>  (28) 
adg

>  <m_score__min__energy>  (28) 
-4.4299999999999997

>  <m_primary>  (28) 
energy

$$$$
28:0
     RDKit          3D

 53 57  0  0  0  0  0  0  0  0999 V2000
   59.6630   36.2160   45.5890 O   0  0  0  0  0  0  0  0  0  0  0  0
   59.5940   35.0670   46.1010 C   0  0  0  0  0  0  0  0  0  0  0  0
   58.4030   34.2960   45.9090 N   0  0  0  0  0  0  0  0  0  0  0  0
   58.3530   32.8680   45.7920 C   0  0  0  0  0  0  0  0  0  0  0  0
   58.0480   32.2990   44.5500 C   0  0  0  0  0  0  0  0  0  0  0  0
   58.0100   30.9100   44.3980 C   0  0  0  0  0  0  0  0  0  0  0  0
   58.2910   30.0650   45.4870 C   0  0  0  0  0  0  0  0  0  0  0  0
   58.2510   28.5890   45.3200 C   0  0  0  0  0  0  0  0  0  0  0  0
   57.7720   28.0330   44.1970 C   0  0  0  0  0  0  0  0  0  0  0  0
   57.7860   26.5430   44.0360 C   0  0  0  0  0  0  0  0  0  0  0  0
   57.4190   25.9000   45.3080 N   0  0  0  0  0  0  0  0  0  0  0  0
   56.4100   24.8710   45.3200 C   0  0  0  0  0  0  0  0  0  0  0  0
   55.3600   25.0440   45.9980 O   0  0  0  0  0  0  0  0  0  0  0  0
   56.5730   23.6190   44.5500 C   0  0  0  0  0  0  0  0  0  0  0  0
   55.7100   23.3050   43.4870 C   0  0  0  0  0  0  0  0  0  0  0  0
   55.9000   22.1560   42.7850 N   0  0  0  0  0  0  0  0  0  0  0  0
   56.9160   21.3050   43.0870 C   0  0  0  0  0  0  0  0  0  0  0  0
   57.7820   21.6170   44.1360 C   0  0  0  0  0  0  0  0  0  0  0  0
   57.5930   22.7650   44.8380 N   0  0  0  0  0  0  0  0  0  0  0  0
   57.9400   26.4310   46.5830 C   0  0  0  0  0  0  0  0  0  0  0  0
   58.8210   27.6780   46.3840 C   0  0  0  0  0  0  0  0  0  0  0  0
   58.6230   30.6420   46.7270 C   0  0  0  0  0  0  0  0  0  0  0  0
   58.6620   32.0300   46.8760 C   0  0  0  0  0  0  0  0  0  0  0  0
   60.6790   34.5800   46.9080 N   0  0  0  0  0  0  0  0  0  0  0  0
   60.6060   34.4900   48.3690 C   0  0  0  0  0  0  0  0  0  0  0  0
   61.8060   33.6920   48.7170 C   0  0  0  0  0  0  0  0  0  0  0  0
   62.2510   33.3130   49.9820 C   0  0  0  0  0  0  0  0  0  0  0  0
   63.4240   32.5450   50.0590 C   0  0  0  0  0  0  0  0  0  0  0  0
   64.0920   32.1890   48.9200 N   0  0  0  0  0  0  0  0  0  0  0  0
   63.6550   32.5650   47.6830 C   0  0  0  0  0  0  0  0  0  0  0  0
   62.4930   33.3270   47.5860 C   0  0  0  0  0  0  0  0  0  0  0  0
   61.8360   33.8580   46.3690 C   0  0  0  0  0  0  0  0  0  0  0  0
   57.8369   32.9491   43.6881 H   0  0  0  0  0  0  0  0  0  0  0  0
   57.7585   30.4745   43.4197 H   0  0  0  0  0  0  0  0  0  0  0  0
   57.3695   28.6698   43.3955 H   0  0  0  0  0  0  0  0  0  0  0  0
   57.0638   26.2530   43.2586 H   0  0  0  0  0  0  0  0  0  0  0  0
   58.7957   26.2190   43.7437 H   0  0  0  0  0  0  0  0  0  0  0  0
   54.8857   23.9843   43.2241 H   0  0  0  0  0  0  0  0  0  0  0  0
   57.0544   20.3789   42.5098 H   0  0  0  0  0  0  0  0  0  0  0  0
   58.6101   20.9397   44.3922 H   0  0  0  0  0  0  0  0  0  0  0  0
   57.0899   26.6985   47.2278 H   0  0  0  0  0  0  0  0  0  0  0  0
   58.5639   25.6496   47.0414 H   0  0  0  0  0  0  0  0  0  0  0  0
   58.8809   28.2298   47.3337 H   0  0  0  0  0  0  0  0  0  0  0  0
   59.8200   27.3496   46.0613 H   0  0  0  0  0  0  0  0  0  0  0  0
   58.8536   29.9944   47.5858 H   0  0  0  0  0  0  0  0  0  0  0  0
   58.9359   32.4690   47.8467 H   0  0  0  0  0  0  0  0  0  0  0  0
   60.6487   35.4884   48.8288 H   0  0  0  0  0  0  0  0  0  0  0  0
   59.6686   34.0404   48.7282 H   0  0  0  0  0  0  0  0  0  0  0  0
   61.7021   33.6055   50.8893 H   0  0  0  0  0  0  0  0  0  0  0  0
   63.8074   32.2282   51.0401 H   0  0  0  0  0  0  0  0  0  0  0  0
   64.2099   32.2718   46.7796 H   0  0  0  0  0  0  0  0  0  0  0  0
   62.5064   34.5373   45.8221 H   0  0  0  0  0  0  0  0  0  0  0  0
   61.5608   33.0745   45.6476 H   0  0  0  0  0  0  0  0  0  0  0  0
  1  2  2  0
  2  3  1  0
  3  4  1  0
  4  5  2  0
  5  6  1  0
  6  7  2  0
  7  8  1  0
  8  9  2  0
  9 10  1  0
 10 11  1  0
 11 12  1  0
 12 13  2  0
 12 14  1  0
 14 15  2  0
 15 16  1  0
 16 17  2  0
 17 18  1  0
 18 19  2  0
 11 20  1  0
 20 21  1  0
  7 22  1  0
 22 23  2  0
  2 24  1  0
 24 25  1  0
 25 26  1  0
 26 27  2  0
 27 28  1  0
 28 29  2  0
 29 30  1  0
 30 31  2  0
 31 32  1  0
 23  4  1  0
 32 24  1  0
 21  8  1  0
 31 26  1  0
 19 14  1  0
  5 33  1  0
  6 34  1  0
  9 35  1  0
 10 36  1  0
 10 37  1  0
 15 38  1  0
 17 39  1  0
 18 40  1  0
 20 41  1  0
 20 42  1  0
 21 43  1  0
 21 44  1  0
 22 45  1  0
 23 46  1  0
 25 47  1  0
 25 48  1  0
 27 49  1  0
 28 50  1  0
 30 51  1  0
 32 52  1  0
 32 53  1  0
M  CHG  1   3  -1
M  END
>  <UniqueID>  (29) 
26

>  <SMILES>  (29) 
O=C([N-]c1ccc(C2=CCN(C(=O)c3cnccn3)CC2)cc1)N1Cc2ccncc2C1

>  <Energy>  (29) 
87.52011063508375

>  <Genealogy>  (29) 
O=C([N-]c1ccc(C2=CCN(C(=O)c3cnccn3)CC2)cc1)N1Cc2ccncc2C1 (protonated)
O=C([N-]c1ccc(C2=CCN(C(=O)c3cnccn3)CC2)cc1)N1Cc2ccncc2C1 (3D coordinates assigned)
O=C([N-]c1ccc(C2=CCN(C(=O)c3cnccn3)CC2)cc1)N1Cc2ccncc2C1 (nonaromatic ring conformer: 87.52011063508375 kcal/mol)

>  <smiles>  (29) 
O=C(Nc1ccc(C2=CCN(C(=O)c3cnccn3)CC2)cc1)N1Cc2ccncc2C1

>  <score_type>  (29) 
oracle

>  <origin>  (29) 
adg

>  <m_score__min__energy>  (29) 
-11.31

>  <m_primary>  (29) 
energy

$$$$
29:0
     RDKit          3D

 50 52  0  0  0  0  0  0  0  0999 V2000
   57.0490   26.6700   46.7520 O   0  0  0  0  0  0  0  0  0  0  0  0
   57.3770   27.7010   45.7060 S   0  0  0  0  0  0  0  0  0  0  0  0
   57.9340   26.9920   44.5030 O   0  0  0  0  0  0  0  0  0  0  0  0
   55.9280   28.5490   45.2480 N   0  0  0  0  0  0  0  0  0  0  0  0
   56.1440   29.3590   44.0470 C   0  0  0  0  0  0  0  0  0  0  0  0
   56.2830   30.8370   44.4280 C   0  0  0  0  0  0  0  0  0  0  0  0
   57.4510   31.5280   43.7150 C   0  0  0  0  0  0  0  0  0  0  0  0
   58.3880   32.1210   44.7030 N   0  0  0  0  0  0  0  0  0  0  0  0
   57.7610   32.3030   46.0200 C   0  0  0  0  0  0  0  0  0  0  0  0
   57.1040   33.6720   46.0260 C   0  0  0  0  0  0  0  0  0  0  0  0
   57.8490   34.4680   44.9700 C   0  0  0  0  0  0  0  0  0  0  0  0
   58.8040   33.4780   44.3130 C   0  0  0  0  0  0  0  0  0  0  0  0
   58.5850   28.8240   46.3270 C   0  0  0  0  0  0  0  0  0  0  0  0
   58.4300   29.4070   47.5860 C   0  0  0  0  0  0  0  0  0  0  0  0
   59.3600   30.3370   48.0550 C   0  0  0  0  0  0  0  0  0  0  0  0
   60.4760   30.7140   47.2690 C   0  0  0  0  0  0  0  0  0  0  0  0
   61.4470   31.6950   47.7520 N   0  0  0  0  0  0  0  0  0  0  0  0
   60.9690   32.8910   48.4790 C   0  0  0  0  0  0  0  0  0  0  0  0
   62.0970   33.7880   48.9930 C   0  0  0  0  0  0  0  0  0  0  0  0
   63.1540   33.8530   48.0660 O   0  0  0  0  0  0  0  0  0  0  0  0
   63.7830   32.5950   48.0220 C   0  0  0  0  0  0  0  0  0  0  0  0
   62.8700   31.5480   47.3800 C   0  0  0  0  0  0  0  0  0  0  0  0
   60.6190   30.1020   46.0010 C   0  0  0  0  0  0  0  0  0  0  0  0
   59.6830   29.1740   45.5380 C   0  0  0  0  0  0  0  0  0  0  0  0
   57.0630   29.0250   43.5431 H   0  0  0  0  0  0  0  0  0  0  0  0
   55.2834   29.2400   43.3723 H   0  0  0  0  0  0  0  0  0  0  0  0
   55.3513   31.3576   44.1615 H   0  0  0  0  0  0  0  0  0  0  0  0
   56.4817   30.8826   45.5089 H   0  0  0  0  0  0  0  0  0  0  0  0
   57.9898   30.7890   43.1038 H   0  0  0  0  0  0  0  0  0  0  0  0
   57.0527   32.3308   43.0771 H   0  0  0  0  0  0  0  0  0  0  0  0
   57.0043   31.5223   46.1871 H   0  0  0  0  0  0  0  0  0  0  0  0
   58.5118   32.2295   46.8206 H   0  0  0  0  0  0  0  0  0  0  0  0
   56.0377   33.5906   45.7684 H   0  0  0  0  0  0  0  0  0  0  0  0
   57.1526   34.1501   47.0155 H   0  0  0  0  0  0  0  0  0  0  0  0
   57.1461   34.8746   44.2279 H   0  0  0  0  0  0  0  0  0  0  0  0
   58.3847   35.3240   45.4063 H   0  0  0  0  0  0  0  0  0  0  0  0
   58.7571   33.5833   43.2191 H   0  0  0  0  0  0  0  0  0  0  0  0
   59.8375   33.6699   44.6372 H   0  0  0  0  0  0  0  0  0  0  0  0
   57.5691   29.1318   48.2130 H   0  0  0  0  0  0  0  0  0  0  0  0
   59.2236   30.7839   49.0508 H   0  0  0  0  0  0  0  0  0  0  0  0
   60.3376   33.4818   47.7991 H   0  0  0  0  0  0  0  0  0  0  0  0
   60.4155   32.5329   49.3596 H   0  0  0  0  0  0  0  0  0  0  0  0
   61.7027   34.8012   49.1601 H   0  0  0  0  0  0  0  0  0  0  0  0
   62.4811   33.3633   49.9322 H   0  0  0  0  0  0  0  0  0  0  0  0
   64.7081   32.6757   47.4324 H   0  0  0  0  0  0  0  0  0  0  0  0
   64.0086   32.2796   49.0514 H   0  0  0  0  0  0  0  0  0  0  0  0
   62.9545   31.6365   46.2868 H   0  0  0  0  0  0  0  0  0  0  0  0
   63.1992   30.5647   47.7471 H   0  0  0  0  0  0  0  0  0  0  0  0
   61.4815   30.3613   45.3695 H   0  0  0  0  0  0  0  0  0  0  0  0
   59.8116   28.7162   44.5461 H   0  0  0  0  0  0  0  0  0  0  0  0
  1  2  2  0
  2  3  2  0
  2  4  1  0
  4  5  1  0
  5  6  1  0
  6  7  1  0
  7  8  1  0
  8  9  1  0
  9 10  1  0
 10 11  1  0
 11 12  1  0
  2 13  1  0
 13 14  2  0
 14 15  1  0
 15 16  2  0
 16 17  1  0
 17 18  1  0
 18 19  1  0
 19 20  1  0
 20 21  1  0
 21 22  1  0
 16 23  1  0
 23 24  2  0
 12  8  1  0
 24 13  1  0
 22 17  1  0
  5 25  1  0
  5 26  1  0
  6 27  1  0
  6 28  1  0
  7 29  1  0
  7 30  1  0
  9 31  1  0
  9 32  1  0
 10 33  1  0
 10 34  1  0
 11 35  1  0
 11 36  1  0
 12 37  1  0
 12 38  1  0
 14 39  1  0
 15 40  1  0
 18 41  1  0
 18 42  1  0
 19 43  1  0
 19 44  1  0
 21 45  1  0
 21 46  1  0
 22 47  1  0
 22 48  1  0
 23 49  1  0
 24 50  1  0
M  CHG  1   4  -1
M  END
>  <UniqueID>  (30) 
27

>  <SMILES>  (30) 
O=S(=O)([N-]CCCN1CCCC1)c1ccc(N2CCOCC2)cc1

>  <Energy>  (30) 
58.10071674310912

>  <Genealogy>  (30) 
O=S(=O)([N-]CCCN1CCCC1)c1ccc(N2CCOCC2)cc1 (protonated)
O=S(=O)([N-]CCCN1CCCC1)c1ccc(N2CCOCC2)cc1 (3D coordinates assigned)
O=S(=O)([N-]CCCN1CCCC1)c1ccc(N2CCOCC2)cc1 (nonaromatic ring conformer: 58.10071674310912 kcal/mol)

>  <smiles>  (30) 
O=S(=O)(NCCCN1CCCC1)c1ccc(N2CCOCC2)cc1

>  <score_type>  (30) 
oracle

>  <origin>  (30) 
adg

>  <m_score__min__energy>  (30) 
-9.1300000000000008

>  <m_primary>  (30) 
energy

$$$$
30:0
     RDKit          3D

 24 25  0  0  0  0  0  0  0  0999 V2000
   58.2197   33.4568   48.1211 H   0  0  0  0  0  0  0  0  0  0  0  0
   58.2990   33.4550   47.0240 C   0  0  0  0  0  0  0  0  0  0  0  0
   57.8680   32.3420   46.2960 C   0  0  0  0  0  0  0  0  0  0  0  0
   57.4463   31.4730   46.8223 H   0  0  0  0  0  0  0  0  0  0  0  0
   57.9710   32.3290   44.8990 C   0  0  0  0  0  0  0  0  0  0  0  0
   57.4340   30.9210   43.9890 S   0  0  0  0  0  0  0  0  0  0  0  0
   56.1110   30.4630   44.5350 O   0  0  0  0  0  0  0  0  0  0  0  0
   57.2720   31.2610   42.5330 O   0  0  0  0  0  0  0  0  0  0  0  0
   58.5870   29.6350   44.1440 N   0  0  0  0  0  0  0  0  0  0  0  0
   58.3660   28.5260   44.7810 C   0  0  0  0  0  0  0  0  0  0  0  0
   59.5160   27.6370   45.5760 S   0  0  0  0  0  0  0  0  0  0  0  0
   58.5090   26.4200   46.1000 N   0  0  0  0  0  0  0  0  0  0  0  0
   57.2730   26.7500   45.6280 C   0  0  0  0  0  0  0  0  0  0  0  0
   56.3961   26.1154   45.8238 H   0  0  0  0  0  0  0  0  0  0  0  0
   57.1700   27.9050   44.9000 N   0  0  0  0  0  0  0  0  0  0  0  0
   56.2690   28.2440   44.4980 H   0  0  0  0  0  0  0  0  0  0  0  0
   58.4990   33.4450   44.2340 C   0  0  0  0  0  0  0  0  0  0  0  0
   58.5751   33.4439   43.1366 H   0  0  0  0  0  0  0  0  0  0  0  0
   58.9290   34.5590   44.9610 C   0  0  0  0  0  0  0  0  0  0  0  0
   59.3447   35.4305   44.4340 H   0  0  0  0  0  0  0  0  0  0  0  0
   58.8320   34.5690   46.3600 C   0  0  0  0  0  0  0  0  0  0  0  0
   59.2730   35.7070   47.1030 N   0  0  0  0  0  0  0  0  0  0  0  0
   59.9220   36.4060   46.6780 H   0  0  0  0  0  0  0  0  0  0  0  0
   58.9540   35.8610   48.0860 H   0  0  0  0  0  0  0  0  0  0  0  0
  1  2  1  0
  2  3  2  0
  3  4  1  0
  3  5  1  0
  5  6  1  0
  6  7  2  0
  6  8  2  0
  6  9  1  0
  9 10  2  0
 10 11  1  0
 11 12  1  0
 12 13  2  0
 13 14  1  0
 13 15  1  0
 15 16  1  0
  5 17  2  0
 17 18  1  0
 17 19  1  0
 19 20  1  0
 19 21  2  0
 21 22  1  0
 22 23  1  0
 22 24  1  0
 21  2  1  0
 15 10  1  0
M  END
>  <UniqueID>  (31) 
28

>  <SMILES>  (31) 
Nc1ccc(S(=O)(=O)/N=c2\[nH]cns2)cc1

>  <Energy>  (31) 
64.42139001585936

>  <Genealogy>  (31) 
Nc1ccc(S(=O)(=O)/N=c2\[nH]cns2)cc1 (cis-trans isomerization)
Nc1ccc(S(=O)(=O)/N=c2\[nH]cns2)cc1 (3D coordinates assigned)
Nc1ccc(S(=O)(=O)/N=c2\[nH]cns2)cc1 (optimized conformer: 64.42139001585936 kcal/mol)

>  <smiles>  (31) 
Nc1ccc(S(=O)(=O)N=c2[nH]cns2)cc1

>  <score_type>  (31) 
oracle

>  <origin>  (31) 
adg

>  <m_score__min__energy>  (31) 
-6.6399999999999997

>  <m_primary>  (31) 
energy

$$$$
31:0
     RDKit          3D

 24 26  0  0  0  0  0  0  0  0999 V2000
   57.3020   30.5730   44.5030 Cl  0  0  0  0  0  0  0  0  0  0  0  0
   57.9360   32.1260   45.0170 C   0  0  0  0  0  0  0  0  0  0  0  0
   57.3970   33.3060   44.4940 C   0  0  0  0  0  0  0  0  0  0  0  0
   57.9000   34.5430   44.9030 C   0  0  0  0  0  0  0  0  0  0  0  0
   58.9410   34.6060   45.8330 C   0  0  0  0  0  0  0  0  0  0  0  0
   59.4930   33.4260   46.3670 C   0  0  0  0  0  0  0  0  0  0  0  0
   60.5960   33.5000   47.3530 C   0  0  0  0  0  0  0  0  0  0  0  0
   61.8390   33.0050   47.1150 N   0  0  0  0  0  0  0  0  0  0  0  0
   62.6630   33.2000   48.1760 C   0  0  0  0  0  0  0  0  0  0  0  0
   63.9980   32.7980   48.2220 C   0  0  0  0  0  0  0  0  0  0  0  0
   64.7420   33.0610   49.3850 C   0  0  0  0  0  0  0  0  0  0  0  0
   64.1480   33.7210   50.4800 C   0  0  0  0  0  0  0  0  0  0  0  0
   62.8040   34.1210   50.4220 C   0  0  0  0  0  0  0  0  0  0  0  0
   62.0890   33.8470   49.2580 C   0  0  0  0  0  0  0  0  0  0  0  0
   60.4900   34.1990   48.8990 S   0  0  0  0  0  0  0  0  0  0  0  0
   58.9780   32.1840   45.9490 C   0  0  0  0  0  0  0  0  0  0  0  0
   56.5778   33.2597   43.7613 H   0  0  0  0  0  0  0  0  0  0  0  0
   57.4753   35.4706   44.4917 H   0  0  0  0  0  0  0  0  0  0  0  0
   59.3319   35.5841   46.1500 H   0  0  0  0  0  0  0  0  0  0  0  0
   64.4593   32.2853   47.3650 H   0  0  0  0  0  0  0  0  0  0  0  0
   65.7955   32.7496   49.4413 H   0  0  0  0  0  0  0  0  0  0  0  0
   64.7408   33.9234   51.3842 H   0  0  0  0  0  0  0  0  0  0  0  0
   62.3292   34.6356   51.2704 H   0  0  0  0  0  0  0  0  0  0  0  0
   59.3977   31.2530   46.3579 H   0  0  0  0  0  0  0  0  0  0  0  0
  1  2  1  0
  2  3  2  0
  3  4  1  0
  4  5  2  0
  5  6  1  0
  6  7  1  0
  7  8  2  0
  8  9  1  0
  9 10  2  0
 10 11  1  0
 11 12  2  0
 12 13  1  0
 13 14  2  0
 14 15  1  0
  6 16  2  0
 16  2  1  0
 15  7  1  0
 14  9  1  0
  3 17  1  0
  4 18  1  0
  5 19  1  0
 10 20  1  0
 11 21  1  0
 12 22  1  0
 13 23  1  0
 16 24  1  0
M  END
>  <UniqueID>  (32) 
29

>  <SMILES>  (32) 
Clc1cccc(-c2nc3ccccc3s2)c1

>  <Energy>  (32) 
62.23831825930532

>  <Genealogy>  (32) 
Clc1cccc(-c2nc3ccccc3s2)c1 (3D coordinates assigned)
Clc1cccc(-c2nc3ccccc3s2)c1 (optimized conformer: 62.23831825930532 kcal/mol)

>  <smiles>  (32) 
Clc1cccc(-c2nc3ccccc3s2)c1

>  <score_type>  (32) 
oracle

>  <origin>  (32) 
adg

>  <m_score__min__energy>  (32) 
-6.5700000000000003

>  <m_primary>  (32) 
energy

$$$$
32:0
     RDKit          3D

 39 40  0  0  0  0  0  0  0  0999 V2000
   58.2285   32.3588   42.7155 H   0  0  0  0  0  0  0  0  0  0  0  0
   57.7020   32.3090   43.6800 C   0  0  0  0  0  0  0  0  0  0  0  0
   57.9780   33.2440   44.6130 C   0  0  0  0  0  0  0  0  0  0  0  0
   59.2130   34.1090   44.5240 C   0  0  0  0  0  0  0  0  0  0  0  0
   59.5629   34.3540   45.5377 H   0  0  0  0  0  0  0  0  0  0  0  0
   60.0030   33.5658   43.9847 H   0  0  0  0  0  0  0  0  0  0  0  0
   58.9725   35.0371   43.9847 H   0  0  0  0  0  0  0  0  0  0  0  0
   57.0250   33.4200   45.7660 C   0  0  0  0  0  0  0  0  0  0  0  0
   57.5737   33.3187   46.7140 H   0  0  0  0  0  0  0  0  0  0  0  0
   56.5658   34.4181   45.7130 H   0  0  0  0  0  0  0  0  0  0  0  0
   56.2395   32.6517   45.7130 H   0  0  0  0  0  0  0  0  0  0  0  0
   56.7040   31.1980   43.8990 C   0  0  0  0  0  0  0  0  0  0  0  0
   55.7957   31.6147   44.3586 H   0  0  0  0  0  0  0  0  0  0  0  0
   56.4664   30.7410   42.9270 H   0  0  0  0  0  0  0  0  0  0  0  0
   57.2740   30.1370   44.8050 C   0  0  0  0  0  0  0  0  0  0  0  0
   58.6310   30.1890   45.1700 C   0  0  0  0  0  0  0  0  0  0  0  0
   59.2659   31.0043   44.7929 H   0  0  0  0  0  0  0  0  0  0  0  0
   59.1840   29.2080   46.0130 C   0  0  0  0  0  0  0  0  0  0  0  0
   60.6110   29.2410   46.4050 C   0  0  0  0  0  0  0  0  0  0  0  0
   61.2797   28.5016   45.9401 H   0  0  0  0  0  0  0  0  0  0  0  0
   61.1560   30.1000   47.2820 C   0  0  0  0  0  0  0  0  0  0  0  0
   61.9840   29.7296   47.9043 H   0  0  0  0  0  0  0  0  0  0  0  0
   60.7330   31.5040   47.4790 C   0  0  0  0  0  0  0  0  0  0  0  0
   59.5090   31.8250   48.0960 C   0  0  0  0  0  0  0  0  0  0  0  0
   58.8366   31.0214   48.4306 H   0  0  0  0  0  0  0  0  0  0  0  0
   59.1450   33.1620   48.2850 C   0  0  0  0  0  0  0  0  0  0  0  0
   58.1801   33.4077   48.7525 H   0  0  0  0  0  0  0  0  0  0  0  0
   60.0050   34.1860   47.8810 C   0  0  0  0  0  0  0  0  0  0  0  0
   59.7136   35.2372   48.0224 H   0  0  0  0  0  0  0  0  0  0  0  0
   61.2360   33.8740   47.2970 C   0  0  0  0  0  0  0  0  0  0  0  0
   61.9167   34.6808   46.9878 H   0  0  0  0  0  0  0  0  0  0  0  0
   61.6040   32.5400   47.1050 C   0  0  0  0  0  0  0  0  0  0  0  0
   62.5804   32.3002   46.6588 H   0  0  0  0  0  0  0  0  0  0  0  0
   58.3860   28.1350   46.4300 C   0  0  0  0  0  0  0  0  0  0  0  0
   58.8195   27.3435   47.0589 H   0  0  0  0  0  0  0  0  0  0  0  0
   57.0430   28.0640   46.0520 C   0  0  0  0  0  0  0  0  0  0  0  0
   56.4222   27.2221   46.3923 H   0  0  0  0  0  0  0  0  0  0  0  0
   56.4850   29.0570   45.2440 C   0  0  0  0  0  0  0  0  0  0  0  0
   55.1470   28.9610   44.8730 O   0  0  0  0  0  0  0  0  0  0  0  0
  1  2  1  0
  2  3  2  3
  3  4  1  0
  4  5  1  0
  4  6  1  0
  4  7  1  0
  3  8  1  0
  8  9  1  0
  8 10  1  0
  8 11  1  0
  2 12  1  0
 12 13  1  0
 12 14  1  0
 12 15  1  0
 15 16  2  0
 16 17  1  0
 16 18  1  0
 18 19  1  0
 19 20  1  0
 19 21  2  0
 21 22  1  0
 21 23  1  0
 23 24  2  0
 24 25  1  0
 24 26  1  0
 26 27  1  0
 26 28  2  0
 28 29  1  0
 28 30  1  0
 30 31  1  0
 30 32  2  0
 32 33  1  0
 18 34  2  0
 34 35  1  0
 34 36  1  0
 36 37  1  0
 36 38  2  0
 38 39  1  0
 38 15  1  0
 32 23  1  0
M  CHG  1  39  -1
M  END
>  <UniqueID>  (33) 
30

>  <SMILES>  (33) 
CC(C)=CCc1cc(/C=C\c2ccccc2)ccc1[O-]

>  <Energy>  (33) 
43.525515781464826

>  <Genealogy>  (33) 
CC(C)=CCc1cc(C=Cc2ccccc2)ccc1[O-] (protonated)
CC(C)=CCc1cc(/C=C\c2ccccc2)ccc1[O-] (cis-trans isomerization)
CC(C)=CCc1cc(/C=C\c2ccccc2)ccc1[O-] (3D coordinates assigned)
CC(C)=CCc1cc(/C=C\c2ccccc2)ccc1[O-] (optimized conformer: 43.525515781464826 kcal/mol)

>  <smiles>  (33) 
CC(C)=CCc1cc(C=Cc2ccccc2)ccc1O

>  <score_type>  (33) 
oracle

>  <origin>  (33) 
adg

>  <m_score__min__energy>  (33) 
-10.74

>  <m_primary>  (33) 
energy

$$$$
33:0
     RDKit          3D

 21 21  0  0  0  0  0  0  0  0999 V2000
   59.6410   35.2370   46.7530 C   0  0  0  0  0  0  0  0  0  0  0  0
   58.7490   34.2130   46.1080 C   0  0  0  0  0  0  0  0  0  0  0  0
   58.6060   34.1870   44.7730 C   0  0  0  0  0  0  0  0  0  0  0  0
   57.7690   33.1080   44.1420 C   0  0  0  0  0  0  0  0  0  0  0  0
   58.1310   31.7440   44.7620 C   0  0  2  0  0  0  0  0  0  0  0  0
   57.1900   30.6860   44.2510 C   0  0  0  0  0  0  0  0  0  0  0  0
   56.1650   30.4220   44.8590 O   0  0  0  0  0  0  0  0  0  0  0  0
   58.1450   31.7690   46.3230 C   0  0  0  0  0  0  0  0  0  0  0  0
   58.0150   33.1810   46.9340 C   0  0  0  0  0  0  0  0  0  0  0  0
   59.5663   35.1512   47.8471 H   0  0  0  0  0  0  0  0  0  0  0  0
   60.6819   35.0646   46.4419 H   0  0  0  0  0  0  0  0  0  0  0  0
   59.3274   36.2444   46.4419 H   0  0  0  0  0  0  0  0  0  0  0  0
   59.0961   34.9472   44.1470 H   0  0  0  0  0  0  0  0  0  0  0  0
   56.7043   33.3198   44.3194 H   0  0  0  0  0  0  0  0  0  0  0  0
   57.9636   33.0806   43.0597 H   0  0  0  0  0  0  0  0  0  0  0  0
   59.1585   31.5049   44.4503 H   0  0  0  0  0  0  0  0  0  0  0  0
   57.4279   30.1465   43.3224 H   0  0  0  0  0  0  0  0  0  0  0  0
   57.3055   31.1575   46.6855 H   0  0  0  0  0  0  0  0  0  0  0  0
   59.1238   31.3774   46.6369 H   0  0  0  0  0  0  0  0  0  0  0  0
   56.9502   33.4530   46.9816 H   0  0  0  0  0  0  0  0  0  0  0  0
   58.4606   33.1638   47.9395 H   0  0  0  0  0  0  0  0  0  0  0  0
  1  2  1  0
  2  3  2  0
  3  4  1  0
  4  5  1  0
  5  6  1  0
  6  7  2  0
  5  8  1  0
  8  9  1  0
  9  2  1  0
  1 10  1  0
  1 11  1  0
  1 12  1  0
  3 13  1  0
  4 14  1  0
  4 15  1  0
  5 16  1  6
  6 17  1  0
  8 18  1  0
  8 19  1  0
  9 20  1  0
  9 21  1  0
M  END
>  <UniqueID>  (34) 
31

>  <SMILES>  (34) 
CC1=CC[C@H](C=O)CC1

>  <Energy>  (34) 
17.832616572596788

>  <Genealogy>  (34) 
CC1=CC[C@H](C=O)CC1 (chirality)
CC1=CC[C@H](C=O)CC1 (3D coordinates assigned)
CC1=CC[C@H](C=O)CC1 (nonaromatic ring conformer: 17.832616572596788 kcal/mol)

>  <smiles>  (34) 
CC1=CCC(C=O)CC1

>  <score_type>  (34) 
oracle

>  <origin>  (34) 
adg

>  <m_score__min__energy>  (34) 
-5.0800000000000001

>  <m_primary>  (34) 
energy

$$$$
34:0
     RDKit          3D

 45 48  0  0  1  0  0  0  0  0999 V2000
   59.2990   34.8360   45.7350 C   0  0  0  0  0  0  0  0  0  0  0  0
   58.8640   34.4260   44.4530 O   0  0  0  0  0  0  0  0  0  0  0  0
   58.3080   33.1690   44.2860 C   0  0  0  0  0  0  0  0  0  0  0  0
   58.1300   32.7200   43.0030 C   0  0  0  0  0  0  0  0  0  0  0  0
   57.5760   31.4700   42.8380 C   0  0  0  0  0  0  0  0  0  0  0  0
   57.2400   30.7610   43.9620 C   0  0  0  0  0  0  0  0  0  0  0  0
   56.6350   29.3480   43.8610 C   0  0  0  0  0  0  0  0  0  0  0  0
   57.0800   28.8320   45.0240 N   0  0  0  0  0  0  0  0  0  0  0  0
   57.6470   27.7850   45.3880 C   0  0  0  0  0  0  0  0  0  0  0  0
   57.3850   26.6240   44.7990 N   0  0  0  0  0  0  0  0  0  0  0  0
   57.9470   25.4450   45.1470 C   0  0  0  0  0  0  0  0  0  0  0  0
   57.6720   24.1870   44.5190 C   0  0  0  0  0  0  0  0  0  0  0  0
   56.7000   24.0000   43.5790 C   0  0  0  0  0  0  0  0  0  0  0  0
   56.4910   22.7400   43.0120 C   0  0  0  0  0  0  0  0  0  0  0  0
   57.2710   21.6530   43.3930 C   0  0  0  0  0  0  0  0  0  0  0  0
   58.2480   21.8360   44.3360 C   0  0  0  0  0  0  0  0  0  0  0  0
   58.4270   23.0730   44.8700 C   0  0  0  0  0  0  0  0  0  0  0  0
   58.8350   25.5180   46.1800 N   0  0  0  0  0  0  0  0  0  0  0  0
   59.1250   26.6560   46.7940 C   0  0  0  0  0  0  0  0  0  0  0  0
   60.0350   26.6390   47.8250 C   0  0  0  0  0  0  0  0  0  0  0  0
   60.2940   27.8530   48.4210 C   0  0  0  0  0  0  0  0  0  0  0  0
   59.7340   29.0380   48.0720 C   0  0  0  0  0  0  0  0  0  0  0  0
   58.7920   29.0600   47.0050 C   0  0  0  0  0  0  0  0  0  0  0  0
   58.5430   27.8720   46.4290 C   0  0  0  0  0  0  0  0  0  0  0  0
   57.4220   31.2210   45.2480 C   0  0  0  0  0  0  0  0  0  0  0  0
   57.9760   32.4700   45.4190 C   0  0  0  0  0  0  0  0  0  0  0  0
   58.7278   34.2976   46.5056 H   0  0  0  0  0  0  0  0  0  0  0  0
   60.3698   34.6110   45.8482 H   0  0  0  0  0  0  0  0  0  0  0  0
   59.1377   35.9182   45.8482 H   0  0  0  0  0  0  0  0  0  0  0  0
   58.4188   33.3350   42.1379 H   0  0  0  0  0  0  0  0  0  0  0  0
   57.4081   31.0529   41.8341 H   0  0  0  0  0  0  0  0  0  0  0  0
   55.5362   29.3742   43.8175 H   0  0  0  0  0  0  0  0  0  0  0  0
   56.9148   28.7821   42.9602 H   0  0  0  0  0  0  0  0  0  0  0  0
   56.7030   26.5740   44.0060 H   0  0  0  0  0  0  0  0  0  0  0  0
   56.0753   24.8492   43.2649 H   0  0  0  0  0  0  0  0  0  0  0  0
   55.7021   22.6064   42.2571 H   0  0  0  0  0  0  0  0  0  0  0  0
   57.1060   20.6623   42.9443 H   0  0  0  0  0  0  0  0  0  0  0  0
   58.8787   20.9936   44.6564 H   0  0  0  0  0  0  0  0  0  0  0  0
   59.2165   23.2007   45.6252 H   0  0  0  0  0  0  0  0  0  0  0  0
   60.5264   25.7114   48.1538 H   0  0  0  0  0  0  0  0  0  0  0  0
   61.0163   27.8626   49.2505 H   0  0  0  0  0  0  0  0  0  0  0  0
   60.0023   29.9634   48.6028 H   0  0  0  0  0  0  0  0  0  0  0  0
   58.3010   29.9872   46.6744 H   0  0  0  0  0  0  0  0  0  0  0  0
   57.1328   30.6075   46.1140 H   0  0  0  0  0  0  0  0  0  0  0  0
   58.1452   32.8896   46.4216 H   0  0  0  0  0  0  0  0  0  0  0  0
  1  2  1  0
  2  3  1  0
  3  4  2  0
  4  5  1  0
  5  6  2  0
  6  7  1  0
  7  8  1  0
  8  9  2  0
  9 10  1  0
 10 11  1  0
 11 12  1  0
 12 13  2  0
 13 14  1  0
 14 15  2  0
 15 16  1  0
 16 17  2  0
 11 18  2  0
 18 19  1  0
 19 20  2  0
 20 21  1  0
 21 22  2  0
 22 23  1  0
 23 24  2  0
  6 25  1  0
 25 26  2  0
 26  3  1  0
 24  9  1  0
 17 12  1  0
 24 19  1  0
  1 27  1  0
  1 28  1  0
  1 29  1  0
  4 30  1  0
  5 31  1  0
  7 32  1  0
  7 33  1  0
 10 34  1  0
 13 35  1  0
 14 36  1  0
 15 37  1  0
 16 38  1  0
 17 39  1  0
 20 40  1  0
 21 41  1  0
 22 42  1  0
 23 43  1  0
 25 44  1  0
 26 45  1  0
M  END
>  <smiles>  (35) 
COc1ccc(CN=c2[nH]c(-c3ccccc3)nc3ccccc23)cc1

>  <score_type>  (35) 
oracle

>  <origin>  (35) 
adg

>  <m_score__min__energy>  (35) 
-8.2400000000000002

>  <m_primary>  (35) 
energy

$$$$
35:0
     RDKit          3D

 34 35  0  0  0  0  0  0  0  0999 V2000
   57.8960   31.2170   44.7570 C   0  0  0  0  0  0  0  0  0  0  0  0
   56.8930   30.1110   44.6220 C   0  0  0  0  0  0  0  0  0  0  0  0
   55.6720   30.4170   44.5310 O   0  0  0  0  0  0  0  0  0  0  0  0
   57.2990   28.6800   44.5900 C   0  0  0  0  0  0  0  0  0  0  0  0
   57.7730   28.1100   43.3930 C   0  0  0  0  0  0  0  0  0  0  0  0
   58.1480   26.7650   43.3450 C   0  0  0  0  0  0  0  0  0  0  0  0
   58.0590   25.9700   44.4880 C   0  0  0  0  0  0  0  0  0  0  0  0
   57.5980   26.5170   45.6940 C   0  0  0  0  0  0  0  0  0  0  0  0
   57.4780   25.6450   46.9140 C   0  0  0  0  0  0  0  0  0  0  0  0
   56.4160   24.6640   46.7310 N   0  0  0  0  0  0  0  0  0  0  0  0
   55.3180   24.8440   45.8310 C   0  0  0  0  0  0  0  0  0  0  0  0
   54.7050   25.9450   45.7790 O   0  0  0  0  0  0  0  0  0  0  0  0
   54.8580   23.6990   44.9880 C   0  0  0  0  0  0  0  0  0  0  0  0
   55.9990   22.8780   44.5980 N   0  0  0  0  0  0  0  0  0  0  0  0
   56.6340   22.8890   43.4110 C   0  0  0  0  0  0  0  0  0  0  0  0
   57.6020   21.9060   43.4340 C   0  0  0  0  0  0  0  0  0  0  0  0
   57.5560   21.2850   44.6290 N   0  0  0  0  0  0  0  0  0  0  0  0
   56.5700   21.8900   45.3160 C   0  0  0  0  0  0  0  0  0  0  0  0
   57.2160   27.8680   45.7390 C   0  0  0  0  0  0  0  0  0  0  0  0
   58.0786   31.4183   45.8229 H   0  0  0  0  0  0  0  0  0  0  0  0
   58.8380   30.9187   44.2736 H   0  0  0  0  0  0  0  0  0  0  0  0
   57.5074   32.1254   44.2736 H   0  0  0  0  0  0  0  0  0  0  0  0
   57.8488   28.7294   42.4872 H   0  0  0  0  0  0  0  0  0  0  0  0
   58.5146   26.3314   42.4029 H   0  0  0  0  0  0  0  0  0  0  0  0
   58.3514   24.9105   44.4430 H   0  0  0  0  0  0  0  0  0  0  0  0
   58.4309   25.1215   47.0812 H   0  0  0  0  0  0  0  0  0  0  0  0
   57.2374   26.2755   47.7827 H   0  0  0  0  0  0  0  0  0  0  0  0
   54.1473   23.0862   45.5620 H   0  0  0  0  0  0  0  0  0  0  0  0
   54.3678   24.0896   44.0840 H   0  0  0  0  0  0  0  0  0  0  0  0
   56.4187   23.5639   42.5695 H   0  0  0  0  0  0  0  0  0  0  0  0
   58.2955   21.6689   42.6137 H   0  0  0  0  0  0  0  0  0  0  0  0
   58.1520   20.4910   44.9500 H   0  0  0  0  0  0  0  0  0  0  0  0
   56.2674   21.6130   46.3366 H   0  0  0  0  0  0  0  0  0  0  0  0
   56.8476   28.2974   46.6824 H   0  0  0  0  0  0  0  0  0  0  0  0
  1  2  1  0
  2  3  2  0
  2  4  1  0
  4  5  2  0
  5  6  1  0
  6  7  2  0
  7  8  1  0
  8  9  1  0
  9 10  1  0
 10 11  1  0
 11 12  2  0
 11 13  1  0
 13 14  1  0
 14 15  1  0
 15 16  2  0
 16 17  1  0
 17 18  2  0
  8 19  2  0
 19  4  1  0
 18 14  1  0
  1 20  1  0
  1 21  1  0
  1 22  1  0
  5 23  1  0
  6 24  1  0
  7 25  1  0
  9 26  1  0
  9 27  1  0
 13 28  1  0
 13 29  1  0
 15 30  1  0
 16 31  1  0
 17 32  1  0
 18 33  1  0
 19 34  1  0
M  CHG  2  10  -1  17   1
M  END
>  <UniqueID>  (36) 
32

>  <SMILES>  (36) 
CC(=O)c1cccc(C[N-]C(=O)Cn2cc[nH+]c2)c1

>  <Energy>  (36) 
59.72164453825467

>  <Genealogy>  (36) 
CC(=O)c1cccc(C[N-]C(=O)Cn2cc[nH+]c2)c1 (protonated)
CC(=O)c1cccc(C[N-]C(=O)Cn2cc[nH+]c2)c1 (3D coordinates assigned)
CC(=O)c1cccc(C[N-]C(=O)Cn2cc[nH+]c2)c1 (optimized conformer: 59.72164453825467 kcal/mol)

>  <smiles>  (36) 
CC(=O)c1cccc(CNC(=O)Cn2ccnc2)c1

>  <score_type>  (36) 
oracle

>  <origin>  (36) 
adg

>  <m_score__min__energy>  (36) 
-7.04

>  <m_primary>  (36) 
energy

$$$$
36:0
     RDKit          3D

 26 26  0  0  0  0  0  0  0  0999 V2000
   59.3750   30.5680   48.2170 C   0  0  0  0  0  0  0  0  0  0  0  0
   59.6040   30.8110   46.7890 N   0  0  0  0  0  0  0  0  0  0  0  0
   60.2990   29.8000   45.9890 C   0  0  0  0  0  0  0  0  0  0  0  0
   59.0810   31.9840   46.1300 C   0  0  0  0  0  0  0  0  0  0  0  0
   59.8260   33.1250   46.1330 N   0  0  0  0  0  0  0  0  0  0  0  0
   59.4120   34.2690   45.5290 C   0  0  0  0  0  0  0  0  0  0  0  0
   58.1840   34.3040   44.8760 C   0  0  0  0  0  0  0  0  0  0  0  0
   57.3850   33.1640   44.8620 C   0  0  0  0  0  0  0  0  0  0  0  0
   57.8160   31.9840   45.4960 C   0  0  0  0  0  0  0  0  0  0  0  0
   57.0200   30.8300   45.5470 O   0  0  0  0  0  0  0  0  0  0  0  0
   56.5070   29.9120   44.1960 S   0  0  0  0  0  0  0  0  0  0  0  0
   57.6300   28.5600   43.9090 C   0  0  0  0  0  0  0  0  0  0  0  0
   55.1430   29.3530   44.4830 O   0  0  0  0  0  0  0  0  0  0  0  0
   56.4290   30.7860   42.9760 O   0  0  0  0  0  0  0  0  0  0  0  0
   60.0103   31.2422   48.8102 H   0  0  0  0  0  0  0  0  0  0  0  0
   58.3178   30.7558   48.4560 H   0  0  0  0  0  0  0  0  0  0  0  0
   59.6251   29.5238   48.4560 H   0  0  0  0  0  0  0  0  0  0  0  0
   60.7939   29.0801   46.6574 H   0  0  0  0  0  0  0  0  0  0  0  0
   59.5724   29.2715   45.3544 H   0  0  0  0  0  0  0  0  0  0  0  0
   61.0527   30.2891   45.3544 H   0  0  0  0  0  0  0  0  0  0  0  0
   60.0470   35.1668   45.5561 H   0  0  0  0  0  0  0  0  0  0  0  0
   57.8475   35.2239   44.3754 H   0  0  0  0  0  0  0  0  0  0  0  0
   56.4106   33.1858   44.3521 H   0  0  0  0  0  0  0  0  0  0  0  0
   57.9680   28.1531   44.8734 H   0  0  0  0  0  0  0  0  0  0  0  0
   57.1169   27.7720   43.3381 H   0  0  0  0  0  0  0  0  0  0  0  0
   58.4987   28.9198   43.3381 H   0  0  0  0  0  0  0  0  0  0  0  0
  1  2  1  0
  2  3  1  0
  2  4  1  0
  4  5  2  0
  5  6  1  0
  6  7  2  0
  7  8  1  0
  8  9  2  0
  9 10  1  0
 10 11  1  0
 11 12  1  0
 11 13  2  0
 11 14  2  0
  9  4  1  0
  1 15  1  0
  1 16  1  0
  1 17  1  0
  3 18  1  0
  3 19  1  0
  3 20  1  0
  6 21  1  0
  7 22  1  0
  8 23  1  0
 12 24  1  0
 12 25  1  0
 12 26  1  0
M  END
>  <UniqueID>  (37) 
33

>  <SMILES>  (37) 
CN(C)c1ncccc1OS(C)(=O)=O

>  <Energy>  (37) 
22.737609455948434

>  <Genealogy>  (37) 
CN(C)c1ncccc1OS(C)(=O)=O (3D coordinates assigned)
CN(C)c1ncccc1OS(C)(=O)=O (optimized conformer: 22.737609455948434 kcal/mol)

>  <smiles>  (37) 
CN(C)c1ncccc1OS(C)(=O)=O

>  <score_type>  (37) 
oracle

>  <origin>  (37) 
adg

>  <m_score__min__energy>  (37) 
-5.3099999999999996

>  <m_primary>  (37) 
energy

$$$$
37:0
     RDKit          3D

 41 43  0  0  0  0  0  0  0  0999 V2000
   59.5980   29.8200   49.6550 C   0  0  0  0  0  0  0  0  0  0  0  0
   58.7960   30.4310   48.6490 O   0  0  0  0  0  0  0  0  0  0  0  0
   58.9880   31.7350   48.1690 C   0  0  0  0  0  0  0  0  0  0  0  0
   59.4100   32.7280   49.0830 C   0  0  0  0  0  0  0  0  0  0  0  0
   59.6460   34.0470   48.6580 C   0  0  0  0  0  0  0  0  0  0  0  0
   59.4450   34.3430   47.3120 C   0  0  0  0  0  0  0  0  0  0  0  0
   59.6390   35.5260   46.7030 N   0  0  0  0  0  0  0  0  0  0  0  0
   59.3430   35.3270   45.3980 C   0  0  0  0  0  0  0  0  0  0  0  0
   58.9520   34.0090   45.1840 C   0  0  0  0  0  0  0  0  0  0  0  0
   58.6200   33.3810   43.8580 C   0  0  0  0  0  0  0  0  0  0  0  0
   57.4760   32.3630   43.9800 C   0  0  0  0  0  0  0  0  0  0  0  0
   57.6640   31.2040   43.0900 N   0  0  0  0  0  0  0  0  0  0  0  0
   56.9610   29.7850   43.8040 S   0  0  0  0  0  0  0  0  0  0  0  0
   55.6850   30.1550   44.5090 O   0  0  0  0  0  0  0  0  0  0  0  0
   56.6440   28.7870   42.7260 O   0  0  0  0  0  0  0  0  0  0  0  0
   58.1070   29.0680   44.9380 C   0  0  0  0  0  0  0  0  0  0  0  0
   57.6420   28.2080   45.9420 C   0  0  0  0  0  0  0  0  0  0  0  0
   58.5440   27.6030   46.8220 C   0  0  0  0  0  0  0  0  0  0  0  0
   59.9140   27.8510   46.7020 C   0  0  0  0  0  0  0  0  0  0  0  0
   60.7890   27.2570   47.5510 F   0  0  0  0  0  0  0  0  0  0  0  0
   60.3830   28.7010   45.6960 C   0  0  0  0  0  0  0  0  0  0  0  0
   59.4840   29.3080   44.8140 C   0  0  0  0  0  0  0  0  0  0  0  0
   59.0260   33.3930   46.4190 C   0  0  0  0  0  0  0  0  0  0  0  0
   58.7820   32.0760   46.8100 C   0  0  0  0  0  0  0  0  0  0  0  0
   59.2218   30.1066   50.6481 H   0  0  0  0  0  0  0  0  0  0  0  0
   59.5515   28.7263   49.5469 H   0  0  0  0  0  0  0  0  0  0  0  0
   60.6401   30.1552   49.5469 H   0  0  0  0  0  0  0  0  0  0  0  0
   59.5556   32.4647   50.1411 H   0  0  0  0  0  0  0  0  0  0  0  0
   59.9787   34.8205   49.3658 H   0  0  0  0  0  0  0  0  0  0  0  0
   59.9680   36.4150   47.1400 H   0  0  0  0  0  0  0  0  0  0  0  0
   59.4030   36.0985   44.6162 H   0  0  0  0  0  0  0  0  0  0  0  0
   58.3197   34.1717   43.1547 H   0  0  0  0  0  0  0  0  0  0  0  0
   59.5134   32.8501   43.4976 H   0  0  0  0  0  0  0  0  0  0  0  0
   57.4282   32.0070   45.0197 H   0  0  0  0  0  0  0  0  0  0  0  0
   56.5435   32.8666   43.6856 H   0  0  0  0  0  0  0  0  0  0  0  0
   58.6800   30.9890   42.9710 H   0  0  0  0  0  0  0  0  0  0  0  0
   56.5645   28.0085   46.0378 H   0  0  0  0  0  0  0  0  0  0  0  0
   58.1747   26.9305   47.6103 H   0  0  0  0  0  0  0  0  0  0  0  0
   61.4618   28.8926   45.5982 H   0  0  0  0  0  0  0  0  0  0  0  0
   59.8565   29.9744   44.0220 H   0  0  0  0  0  0  0  0  0  0  0  0
   58.4395   31.3243   46.0836 H   0  0  0  0  0  0  0  0  0  0  0  0
  1  2  1  0
  2  3  1  0
  3  4  2  0
  4  5  1  0
  5  6  2  0
  6  7  1  0
  7  8  1  0
  8  9  2  0
  9 10  1  0
 10 11  1  0
 11 12  1  0
 12 13  1  0
 13 14  2  0
 13 15  2  0
 13 16  1  0
 16 17  2  0
 17 18  1  0
 18 19  2  0
 19 20  1  0
 19 21  1  0
 21 22  2  0
  9 23  1  0
 23 24  2  0
 24  3  1  0
 23  6  1  0
 22 16  1  0
  1 25  1  0
  1 26  1  0
  1 27  1  0
  4 28  1  0
  5 29  1  0
  7 30  1  0
  8 31  1  0
 10 32  1  0
 10 33  1  0
 11 34  1  0
 11 35  1  0
 12 36  1  0
 17 37  1  0
 18 38  1  0
 21 39  1  0
 22 40  1  0
 24 41  1  0
M  END
>  <UniqueID>  (38) 
34

>  <SMILES>  (38) 
COc1ccc2[nH]cc(CCNS(=O)(=O)c3ccc(F)cc3)c2c1

>  <Energy>  (38) 
66.71479566940468

>  <Genealogy>  (38) 
COc1ccc2[nH]cc(CCNS(=O)(=O)c3ccc(F)cc3)c2c1 (3D coordinates assigned)
COc1ccc2[nH]cc(CCNS(=O)(=O)c3ccc(F)cc3)c2c1 (optimized conformer: 66.71479566940468 kcal/mol)

>  <smiles>  (38) 
COc1ccc2[nH]cc(CCNS(=O)(=O)c3ccc(F)cc3)c2c1

>  <score_type>  (38) 
oracle

>  <origin>  (38) 
adg

>  <m_score__min__energy>  (38) 
-8.8100000000000005

>  <m_primary>  (38) 
energy

$$$$
38:0
     RDKit          3D

 27 28  0  0  0  0  0  0  0  0999 V2000
   59.4883   34.2541   45.8283 H   0  0  0  0  0  0  0  0  0  0  0  0
   58.9350   33.3340   45.5890 C   0  0  0  0  0  0  0  0  0  0  0  0
   58.1290   33.2800   44.4480 C   0  0  0  0  0  0  0  0  0  0  0  0
   58.0502   34.1571   43.7888 H   0  0  0  0  0  0  0  0  0  0  0  0
   57.4230   32.1120   44.1440 C   0  0  0  0  0  0  0  0  0  0  0  0
   56.7912   32.0707   43.2445 H   0  0  0  0  0  0  0  0  0  0  0  0
   57.5190   30.9930   44.9840 C   0  0  0  0  0  0  0  0  0  0  0  0
   56.6230   29.5220   44.6170 S   0  0  0  0  0  0  0  0  0  0  0  0
   56.9110   29.1180   43.1990 O   0  0  0  0  0  0  0  0  0  0  0  0
   55.1450   29.7490   44.7710 O   0  0  0  0  0  0  0  0  0  0  0  0
   57.1130   28.2440   45.6830 N   0  0  0  0  0  0  0  0  0  0  0  0
   56.6550   27.0300   45.6270 C   0  0  0  0  0  0  0  0  0  0  0  0
   55.4270   26.7020   46.0790 N   0  0  0  0  0  0  0  0  0  0  0  0
   55.1410   25.4100   45.9220 N   0  0  0  0  0  0  0  0  0  0  0  0
   56.1460   24.7040   45.3550 C   0  0  0  0  0  0  0  0  0  0  0  0
   56.0450   23.2520   45.0140 C   0  0  0  0  0  0  0  0  0  0  0  0
   55.0116   22.9130   45.1791 H   0  0  0  0  0  0  0  0  0  0  0  0
   56.7379   22.6882   45.6559 H   0  0  0  0  0  0  0  0  0  0  0  0
   56.4230   23.0150   43.5560 C   0  0  0  0  0  0  0  0  0  0  0  0
   57.3541   22.4312   43.5089 H   0  0  0  0  0  0  0  0  0  0  0  0
   55.6167   22.4605   43.0536 H   0  0  0  0  0  0  0  0  0  0  0  0
   56.5709   23.9824   43.0536 H   0  0  0  0  0  0  0  0  0  0  0  0
   57.4650   25.6900   44.9910 S   0  0  0  0  0  0  0  0  0  0  0  0
   58.3320   31.0500   46.1240 C   0  0  0  0  0  0  0  0  0  0  0  0
   58.4151   30.1732   46.7830 H   0  0  0  0  0  0  0  0  0  0  0  0
   59.0380   32.2190   46.4260 C   0  0  0  0  0  0  0  0  0  0  0  0
   59.6744   32.2611   47.3222 H   0  0  0  0  0  0  0  0  0  0  0  0
  1  2  1  0
  2  3  2  0
  3  4  1  0
  3  5  1  0
  5  6  1  0
  5  7  2  0
  7  8  1  0
  8  9  2  0
  8 10  2  0
  8 11  1  0
 11 12  2  0
 12 13  1  0
 13 14  1  0
 14 15  2  0
 15 16  1  0
 16 17  1  0
 16 18  1  0
 16 19  1  0
 19 20  1  0
 19 21  1  0
 19 22  1  0
 15 23  1  0
  7 24  1  0
 24 25  1  0
 24 26  2  0
 26 27  1  0
 26  2  1  0
 23 12  1  0
M  CHG  1  13  -1
M  END
>  <UniqueID>  (39) 
35

>  <SMILES>  (39) 
CCc1n[n-]/c(=N/S(=O)(=O)c2ccccc2)s1

>  <Energy>  (39) 
60.5828629197745

>  <Genealogy>  (39) 
CCc1n[n-]c(=NS(=O)(=O)c2ccccc2)s1 (protonated)
CCc1n[n-]/c(=N/S(=O)(=O)c2ccccc2)s1 (cis-trans isomerization)
CCc1n[n-]/c(=N/S(=O)(=O)c2ccccc2)s1 (3D coordinates assigned)
CCc1n[n-]/c(=N/S(=O)(=O)c2ccccc2)s1 (optimized conformer: 60.5828629197745 kcal/mol)

>  <smiles>  (39) 
CCc1n[nH]c(=NS(=O)(=O)c2ccccc2)s1

>  <score_type>  (39) 
oracle

>  <origin>  (39) 
adg

>  <m_score__min__energy>  (39) 
-9.1500000000000004

>  <m_primary>  (39) 
energy

$$$$
39:0
     RDKit          3D

 26 27  0  0  0  0  0  0  0  0999 V2000
   56.6690   30.8410   44.8630 O   0  0  0  0  0  0  0  0  0  0  0  0
   57.8470   31.0100   45.2800 C   0  0  0  0  0  0  0  0  0  0  0  0
   58.7270   29.8830   45.4450 N   0  0  0  0  0  0  0  0  0  0  0  0
   58.3770   28.5310   45.1060 C   0  0  0  0  0  0  0  0  0  0  0  0
   58.4450   28.0650   43.7790 C   0  0  0  0  0  0  0  0  0  0  0  0
   58.1250   26.7370   43.4820 C   0  0  0  0  0  0  0  0  0  0  0  0
   57.7480   25.8610   44.5020 C   0  0  0  0  0  0  0  0  0  0  0  0
   57.7010   26.3080   45.8260 C   0  0  0  0  0  0  0  0  0  0  0  0
   57.2440   25.2030   47.1100 Cl  0  0  0  0  0  0  0  0  0  0  0  0
   58.0240   27.6370   46.1270 C   0  0  0  0  0  0  0  0  0  0  0  0
   58.3040   32.3790   45.6010 C   0  0  0  0  0  0  0  0  0  0  0  0
   58.5030   33.3340   44.5830 C   0  0  0  0  0  0  0  0  0  0  0  0
   58.3290   33.0100   43.2770 F   0  0  0  0  0  0  0  0  0  0  0  0
   58.9370   34.6250   44.9050 C   0  0  0  0  0  0  0  0  0  0  0  0
   59.1830   34.9730   46.2340 C   0  0  0  0  0  0  0  0  0  0  0  0
   59.0030   34.0290   47.2480 C   0  0  0  0  0  0  0  0  0  0  0  0
   58.5710   32.7360   46.9370 C   0  0  0  0  0  0  0  0  0  0  0  0
   58.3890   31.8430   47.9430 F   0  0  0  0  0  0  0  0  0  0  0  0
   59.6620   30.0390   45.8850 H   0  0  0  0  0  0  0  0  0  0  0  0
   58.7510   28.7484   42.9732 H   0  0  0  0  0  0  0  0  0  0  0  0
   58.1703   26.3812   42.4421 H   0  0  0  0  0  0  0  0  0  0  0  0
   57.4879   24.8191   44.2638 H   0  0  0  0  0  0  0  0  0  0  0  0
   58.0006   27.9819   47.1713 H   0  0  0  0  0  0  0  0  0  0  0  0
   59.0848   35.3682   44.1076 H   0  0  0  0  0  0  0  0  0  0  0  0
   59.5186   35.9905   46.4831 H   0  0  0  0  0  0  0  0  0  0  0  0
   59.2018   34.3038   48.2944 H   0  0  0  0  0  0  0  0  0  0  0  0
  1  2  2  0
  2  3  1  0
  3  4  1  0
  4  5  2  0
  5  6  1  0
  6  7  2  0
  7  8  1  0
  8  9  1  0
  8 10  2  0
  2 11  1  0
 11 12  2  0
 12 13  1  0
 12 14  1  0
 14 15  2  0
 15 16  1  0
 16 17  2  0
 17 18  1  0
 10  4  1  0
 17 11  1  0
  3 19  1  0
  5 20  1  0
  6 21  1  0
  7 22  1  0
 10 23  1  0
 14 24  1  0
 15 25  1  0
 16 26  1  0
M  END
>  <UniqueID>  (40) 
36

>  <SMILES>  (40) 
O=C(Nc1cccc(Cl)c1)c1c(F)cccc1F

>  <Energy>  (40) 
35.8662781306546

>  <Genealogy>  (40) 
O=C(Nc1cccc(Cl)c1)c1c(F)cccc1F (3D coordinates assigned)
O=C(Nc1cccc(Cl)c1)c1c(F)cccc1F (optimized conformer: 35.8662781306546 kcal/mol)

>  <smiles>  (40) 
O=C(Nc1cccc(Cl)c1)c1c(F)cccc1F

>  <score_type>  (40) 
oracle

>  <origin>  (40) 
adg

>  <m_score__min__energy>  (40) 
-6.4199999999999999

>  <m_primary>  (40) 
energy

$$$$
40:0
     RDKit          3D

 78 83  0  0  0  0  0  0  0  0999 V2000
   58.1150   32.8770   51.9490 C   0  0  0  0  0  0  0  0  0  0  0  0
   58.9820   33.9380   51.5590 O   0  0  0  0  0  0  0  0  0  0  0  0
   59.9750   33.8350   50.5710 C   0  0  0  0  0  0  0  0  0  0  0  0
   59.7060   34.0880   49.2120 C   0  0  0  0  0  0  0  0  0  0  0  0
   60.7150   33.9450   48.2440 C   0  0  0  0  0  0  0  0  0  0  0  0
   60.4900   34.1360   46.8630 C   0  0  0  0  0  0  0  0  0  0  0  0
   59.1690   34.3400   46.3230 N   0  0  0  0  0  0  0  0  0  0  0  0
   59.0330   34.6530   44.8920 C   0  0  0  0  0  0  0  0  0  0  0  0
   58.6770   33.3720   44.1190 C   0  0  0  0  0  0  0  0  0  0  0  0
   57.7680   32.5230   44.9040 N   0  0  0  0  0  0  0  0  0  0  0  0
   57.7680   31.1030   44.6810 C   0  0  0  0  0  0  0  0  0  0  0  0
   57.7430   30.6680   43.4980 O   0  0  0  0  0  0  0  0  0  0  0  0
   57.8140   30.1900   45.7920 N   0  0  0  0  0  0  0  0  0  0  0  0
   58.0330   28.7740   45.6770 C   0  0  0  0  0  0  0  0  0  0  0  0
   58.2400   27.9650   46.8080 C   0  0  0  0  0  0  0  0  0  0  0  0
   58.4010   26.5830   46.6680 C   0  0  0  0  0  0  0  0  0  0  0  0
   58.3240   25.9850   45.4060 C   0  0  0  0  0  0  0  0  0  0  0  0
   58.4920   24.5960   45.3020 O   0  0  0  0  0  0  0  0  0  0  0  0
   57.7590   23.7560   44.4510 C   0  0  0  0  0  0  0  0  0  0  0  0
   56.5690   24.1830   43.8320 C   0  0  0  0  0  0  0  0  0  0  0  0
   55.8580   23.3120   43.0010 C   0  0  0  0  0  0  0  0  0  0  0  0
   56.3200   22.0110   42.7900 C   0  0  0  0  0  0  0  0  0  0  0  0
   57.4910   21.5740   43.4160 C   0  0  0  0  0  0  0  0  0  0  0  0
   58.2040   22.4420   44.2490 C   0  0  0  0  0  0  0  0  0  0  0  0
   58.1180   26.7910   44.2750 C   0  0  0  0  0  0  0  0  0  0  0  0
   57.9620   28.1720   44.4130 C   0  0  0  0  0  0  0  0  0  0  0  0
   57.0250   33.1230   46.0200 C   0  0  0  0  0  0  0  0  0  0  0  0
   58.0140   33.7380   47.0200 C   0  0  0  0  0  0  0  0  0  0  0  0
   61.5430   34.0580   46.0040 N   0  0  0  0  0  0  0  0  0  0  0  0
   62.7980   33.7830   46.4350 C   0  0  0  0  0  0  0  0  0  0  0  0
   63.0310   33.5570   47.7520 N   0  0  0  0  0  0  0  0  0  0  0  0
   62.0250   33.6270   48.6620 C   0  0  0  0  0  0  0  0  0  0  0  0
   62.2960   33.3870   50.0110 C   0  0  0  0  0  0  0  0  0  0  0  0
   61.2680   33.4640   50.9690 C   0  0  0  0  0  0  0  0  0  0  0  0
   61.4870   33.1870   52.3290 O   0  0  0  0  0  0  0  0  0  0  0  0
   61.1600   31.9650   52.9930 C   0  0  0  0  0  0  0  0  0  0  0  0
   61.4130   30.7560   52.0820 C   0  0  0  0  0  0  0  0  0  0  0  0
   60.5070   30.7780   50.9160 N   0  0  0  0  0  0  0  0  0  0  0  0
   59.3470   29.8910   51.0750 C   0  0  0  0  0  0  0  0  0  0  0  0
   58.9380   29.4360   49.6800 C   0  0  0  0  0  0  0  0  0  0  0  0
   60.0940   29.8180   48.7710 C   0  0  0  0  0  0  0  0  0  0  0  0
   61.1830   30.3130   49.7040 C   0  0  0  0  0  0  0  0  0  0  0  0
   58.0715   32.8238   53.0469 H   0  0  0  0  0  0  0  0  0  0  0  0
   57.1065   33.0623   51.5506 H   0  0  0  0  0  0  0  0  0  0  0  0
   58.4975   31.9257   51.5506 H   0  0  0  0  0  0  0  0  0  0  0  0
   58.6969   34.4004   48.9052 H   0  0  0  0  0  0  0  0  0  0  0  0
   58.2358   35.3983   44.7537 H   0  0  0  0  0  0  0  0  0  0  0  0
   59.9830   35.0580   44.5132 H   0  0  0  0  0  0  0  0  0  0  0  0
   58.1872   33.6462   43.1730 H   0  0  0  0  0  0  0  0  0  0  0  0
   59.6022   32.8103   43.9229 H   0  0  0  0  0  0  0  0  0  0  0  0
   57.6540   30.5670   46.7530 H   0  0  0  0  0  0  0  0  0  0  0  0
   58.2755   28.4215   47.8082 H   0  0  0  0  0  0  0  0  0  0  0  0
   58.5894   25.9621   47.5562 H   0  0  0  0  0  0  0  0  0  0  0  0
   56.1977   25.2043   44.0025 H   0  0  0  0  0  0  0  0  0  0  0  0
   54.9330   23.6521   42.5124 H   0  0  0  0  0  0  0  0  0  0  0  0
   55.7620   21.3297   42.1308 H   0  0  0  0  0  0  0  0  0  0  0  0
   57.8516   20.5476   43.2534 H   0  0  0  0  0  0  0  0  0  0  0  0
   59.1193   22.0917   44.7486 H   0  0  0  0  0  0  0  0  0  0  0  0
   58.0793   26.3327   43.2758 H   0  0  0  0  0  0  0  0  0  0  0  0
   57.7820   28.7923   43.5226 H   0  0  0  0  0  0  0  0  0  0  0  0
   56.3563   33.9074   45.6359 H   0  0  0  0  0  0  0  0  0  0  0  0
   56.4288   32.3475   46.5231 H   0  0  0  0  0  0  0  0  0  0  0  0
   57.4993   34.5170   47.6016 H   0  0  0  0  0  0  0  0  0  0  0  0
   58.3822   32.9410   47.6827 H   0  0  0  0  0  0  0  0  0  0  0  0
   63.6292   33.7430   45.7156 H   0  0  0  0  0  0  0  0  0  0  0  0
   63.3195   33.1362   50.3266 H   0  0  0  0  0  0  0  0  0  0  0  0
   61.7802   31.8700   53.8965 H   0  0  0  0  0  0  0  0  0  0  0  0
   60.0924   31.9859   53.2572 H   0  0  0  0  0  0  0  0  0  0  0  0
   62.4547   30.7820   51.7296 H   0  0  0  0  0  0  0  0  0  0  0  0
   61.2254   29.8369   52.6564 H   0  0  0  0  0  0  0  0  0  0  0  0
   59.6185   29.0213   51.6913 H   0  0  0  0  0  0  0  0  0  0  0  0
   58.5188   30.4145   51.5751 H   0  0  0  0  0  0  0  0  0  0  0  0
   58.7788   28.3477   49.6622 H   0  0  0  0  0  0  0  0  0  0  0  0
   57.9957   29.9039   49.3590 H   0  0  0  0  0  0  0  0  0  0  0  0
   60.4419   28.9442   48.2006 H   0  0  0  0  0  0  0  0  0  0  0  0
   59.8041   30.5814   48.0340 H   0  0  0  0  0  0  0  0  0  0  0  0
   61.8780   29.4953   49.9456 H   0  0  0  0  0  0  0  0  0  0  0  0
   61.7704   31.1191   49.2401 H   0  0  0  0  0  0  0  0  0  0  0  0
  1  2  1  0
  2  3  1  0
  3  4  2  0
  4  5  1  0
  5  6  2  0
  6  7  1  0
  7  8  1  0
  8  9  1  0
  9 10  1  0
 10 11  1  0
 11 12  2  0
 11 13  1  0
 13 14  1  0
 14 15  2  0
 15 16  1  0
 16 17  2  0
 17 18  1  0
 18 19  1  0
 19 20  2  0
 20 21  1  0
 21 22  2  0
 22 23  1  0
 23 24  2  0
 17 25  1  0
 25 26  2  0
 10 27  1  0
 27 28  1  0
  6 29  1  0
 29 30  2  0
 30 31  1  0
 31 32  2  0
 32 33  1  0
 33 34  2  0
 34 35  1  0
 35 36  1  0
 36 37  1  0
 37 38  1  0
 38 39  1  0
 39 40  1  0
 40 41  1  0
 41 42  1  0
 34  3  1  0
 42 38  1  0
 32  5  1  0
 28  7  1  0
 26 14  1  0
 24 19  1  0
  1 43  1  0
  1 44  1  0
  1 45  1  0
  4 46  1  0
  8 47  1  0
  8 48  1  0
  9 49  1  0
  9 50  1  0
 13 51  1  0
 15 52  1  0
 16 53  1  0
 20 54  1  0
 21 55  1  0
 22 56  1  0
 23 57  1  0
 24 58  1  0
 25 59  1  0
 26 60  1  0
 27 61  1  0
 27 62  1  0
 28 63  1  0
 28 64  1  0
 30 65  1  0
 33 66  1  0
 36 67  1  0
 36 68  1  0
 37 69  1  0
 37 70  1  0
 39 71  1  0
 39 72  1  0
 40 73  1  0
 40 74  1  0
 41 75  1  0
 41 76  1  0
 42 77  1  0
 42 78  1  0
M  END
>  <UniqueID>  (41) 
37

>  <SMILES>  (41) 
COc1cc2c(N3CCN(C(=O)Nc4ccc(Oc5ccccc5)cc4)CC3)ncnc2cc1OCCN1CCCC1

>  <Energy>  (41) 
110.50108072721306

>  <Genealogy>  (41) 
COc1cc2c(N3CCN(C(=O)Nc4ccc(Oc5ccccc5)cc4)CC3)ncnc2cc1OCCN1CCCC1 (3D coordinates assigned)
COc1cc2c(N3CCN(C(=O)Nc4ccc(Oc5ccccc5)cc4)CC3)ncnc2cc1OCCN1CCCC1 (nonaromatic ring conformer: 110.50108072721306 kcal/mol)

>  <smiles>  (41) 
COc1cc2c(N3CCN(C(=O)Nc4ccc(Oc5ccccc5)cc4)CC3)ncnc2cc1OCCN1CCCC1

>  <score_type>  (41) 
oracle

>  <origin>  (41) 
adg

>  <m_score__min__energy>  (41) 
-8.9000000000000004

>  <m_primary>  (41) 
energy

$$$$
41:0
     RDKit          3D

 40 42  0  0  0  0  0  0  0  0999 V2000
   57.1840   33.8770   45.5940 C   0  0  0  0  0  0  0  0  0  0  0  0
   58.2180   32.8750   46.0350 C   0  0  0  0  0  0  0  0  0  0  0  0
   59.3410   33.3250   46.7480 C   0  0  0  0  0  0  0  0  0  0  0  0
   60.3500   32.4310   47.1490 C   0  0  0  0  0  0  0  0  0  0  0  0
   61.5390   32.9170   47.8940 C   0  0  0  0  0  0  0  0  0  0  0  0
   61.3860   33.7410   49.0260 C   0  0  0  0  0  0  0  0  0  0  0  0
   62.5070   34.1980   49.7250 C   0  0  0  0  0  0  0  0  0  0  0  0
   63.7890   33.8390   49.3080 C   0  0  0  0  0  0  0  0  0  0  0  0
   63.9550   33.0210   48.1870 C   0  0  0  0  0  0  0  0  0  0  0  0
   62.8370   32.5620   47.4820 C   0  0  0  0  0  0  0  0  0  0  0  0
   60.2200   31.0710   46.8240 C   0  0  0  0  0  0  0  0  0  0  0  0
   59.0980   30.6110   46.1330 C   0  0  0  0  0  0  0  0  0  0  0  0
   58.0800   31.4940   45.7640 C   0  0  0  0  0  0  0  0  0  0  0  0
   56.9390   30.9700   45.0720 N   0  0  0  0  0  0  0  0  0  0  0  0
   56.7650   29.5940   44.7150 C   0  0  0  0  0  0  0  0  0  0  0  0
   56.3140   29.3200   43.5720 O   0  0  0  0  0  0  0  0  0  0  0  0
   57.1010   28.5440   45.6390 N   0  0  0  0  0  0  0  0  0  0  0  0
   56.9770   27.1430   45.3440 C   0  0  0  0  0  0  0  0  0  0  0  0
   57.7650   26.5840   44.3270 C   0  0  0  0  0  0  0  0  0  0  0  0
   57.6490   25.2280   44.0050 C   0  0  0  0  0  0  0  0  0  0  0  0
   56.7300   24.4220   44.6860 C   0  0  0  0  0  0  0  0  0  0  0  0
   56.5820   22.7220   44.2790 Cl  0  0  0  0  0  0  0  0  0  0  0  0
   55.9240   24.9760   45.6840 C   0  0  0  0  0  0  0  0  0  0  0  0
   56.0400   26.3310   46.0090 C   0  0  0  0  0  0  0  0  0  0  0  0
   56.7141   34.3323   46.4782 H   0  0  0  0  0  0  0  0  0  0  0  0
   57.6663   34.6603   44.9908 H   0  0  0  0  0  0  0  0  0  0  0  0
   56.4163   33.3703   44.9908 H   0  0  0  0  0  0  0  0  0  0  0  0
   59.4329   34.3926   46.9966 H   0  0  0  0  0  0  0  0  0  0  0  0
   60.3783   34.0266   49.3621 H   0  0  0  0  0  0  0  0  0  0  0  0
   62.3779   34.8428   50.6068 H   0  0  0  0  0  0  0  0  0  0  0  0
   64.6687   34.1996   49.8612 H   0  0  0  0  0  0  0  0  0  0  0  0
   64.9659   32.7377   47.8586 H   0  0  0  0  0  0  0  0  0  0  0  0
   62.9735   31.9193   46.5998 H   0  0  0  0  0  0  0  0  0  0  0  0
   61.0089   30.3624   47.1164 H   0  0  0  0  0  0  0  0  0  0  0  0
   59.0145   29.5445   45.8768 H   0  0  0  0  0  0  0  0  0  0  0  0
   57.3620   28.8040   46.6170 H   0  0  0  0  0  0  0  0  0  0  0  0
   58.4790   27.2165   43.7791 H   0  0  0  0  0  0  0  0  0  0  0  0
   58.2808   24.7947   43.2157 H   0  0  0  0  0  0  0  0  0  0  0  0
   55.1965   24.3446   46.2152 H   0  0  0  0  0  0  0  0  0  0  0  0
   55.3957   26.7642   46.7882 H   0  0  0  0  0  0  0  0  0  0  0  0
  1  2  1  0
  2  3  2  0
  3  4  1  0
  4  5  1  0
  5  6  2  0
  6  7  1  0
  7  8  2  0
  8  9  1  0
  9 10  2  0
  4 11  2  0
 11 12  1  0
 12 13  2  0
 13 14  1  0
 14 15  1  0
 15 16  2  0
 15 17  1  0
 17 18  1  0
 18 19  2  0
 19 20  1  0
 20 21  2  0
 21 22  1  0
 21 23  1  0
 23 24  2  0
 13  2  1  0
 24 18  1  0
 10  5  1  0
  1 25  1  0
  1 26  1  0
  1 27  1  0
  3 28  1  0
  6 29  1  0
  7 30  1  0
  8 31  1  0
  9 32  1  0
 10 33  1  0
 11 34  1  0
 12 35  1  0
 17 36  1  0
 19 37  1  0
 20 38  1  0
 23 39  1  0
 24 40  1  0
M  CHG  1  14  -1
M  END
>  <UniqueID>  (42) 
38

>  <SMILES>  (42) 
Cc1cc(-c2ccccc2)ccc1[N-]C(=O)Nc1ccc(Cl)cc1

>  <Energy>  (42) 
58.143114807736666

>  <Genealogy>  (42) 
Cc1cc(-c2ccccc2)ccc1[N-]C(=O)Nc1ccc(Cl)cc1 (protonated)
Cc1cc(-c2ccccc2)ccc1[N-]C(=O)Nc1ccc(Cl)cc1 (3D coordinates assigned)
Cc1cc(-c2ccccc2)ccc1[N-]C(=O)Nc1ccc(Cl)cc1 (optimized conformer: 58.143114807736666 kcal/mol)

>  <smiles>  (42) 
Cc1cc(-c2ccccc2)ccc1NC(=O)Nc1ccc(Cl)cc1

>  <score_type>  (42) 
oracle

>  <origin>  (42) 
adg

>  <m_score__min__energy>  (42) 
-10.07

>  <m_primary>  (42) 
energy

$$$$
42:0
     RDKit          3D

 44 47  0  0  0  0  0  0  0  0999 V2000
   58.1260   27.2910   42.9750 C   0  0  0  0  0  0  0  0  0  0  0  0
   57.3920   28.2370   43.8290 N   0  0  2  0  0  0  0  0  0  0  0  0
   56.8220   29.3590   43.0640 C   0  0  0  0  0  0  0  0  0  0  0  0
   56.9340   30.6150   43.9420 C   0  0  2  0  0  0  0  0  0  0  0  0
   57.8400   31.7080   43.3740 C   0  0  0  0  0  0  0  0  0  0  0  0
   58.5910   32.2860   44.4970 N   0  0  0  0  0  0  0  0  0  0  0  0
   58.1010   33.6160   44.9290 C   0  0  0  0  0  0  0  0  0  0  0  0
   59.2140   34.6100   45.3240 C   0  0  0  0  0  0  0  0  0  0  0  0
   59.7000   34.3190   46.7120 C   0  0  0  0  0  0  0  0  0  0  0  0
   58.9240   34.2490   47.8650 C   0  0  0  0  0  0  0  0  0  0  0  0
   59.6840   33.8910   48.9250 N   0  0  0  0  0  0  0  0  0  0  0  0
   60.9300   33.7210   48.4480 C   0  0  0  0  0  0  0  0  0  0  0  0
   62.0620   33.3300   49.1620 C   0  0  0  0  0  0  0  0  0  0  0  0
   63.2700   33.1920   48.4540 C   0  0  0  0  0  0  0  0  0  0  0  0
   63.3180   33.4410   47.0640 C   0  0  0  0  0  0  0  0  0  0  0  0
   62.1580   33.8330   46.3690 C   0  0  0  0  0  0  0  0  0  0  0  0
   60.9780   33.9670   47.1000 C   0  0  0  0  0  0  0  0  0  0  0  0
   58.6130   31.2820   45.5740 C   0  0  0  0  0  0  0  0  0  0  0  0
   57.6140   30.1760   45.2130 C   0  0  2  0  0  0  0  0  0  0  0  0
   58.2550   28.8380   44.8530 C   0  0  0  0  0  0  0  0  0  0  0  0
   58.6782   26.5794   43.6064 H   0  0  0  0  0  0  0  0  0  0  0  0
   57.4148   26.7425   42.3399 H   0  0  0  0  0  0  0  0  0  0  0  0
   58.8340   27.8436   42.3399 H   0  0  0  0  0  0  0  0  0  0  0  0
   56.6140   27.7200   44.3070 H   0  0  0  0  0  0  0  0  0  0  0  0
   55.7665   29.1568   42.8293 H   0  0  0  0  0  0  0  0  0  0  0  0
   57.3619   29.4976   42.1157 H   0  0  0  0  0  0  0  0  0  0  0  0
   55.9193   31.0267   44.0459 H   0  0  0  0  0  0  0  0  0  0  0  0
   57.2318   32.4857   42.8889 H   0  0  0  0  0  0  0  0  0  0  0  0
   58.5263   31.2909   42.6224 H   0  0  0  0  0  0  0  0  0  0  0  0
   57.5253   34.0557   44.1012 H   0  0  0  0  0  0  0  0  0  0  0  0
   57.4956   33.4486   45.8320 H   0  0  0  0  0  0  0  0  0  0  0  0
   60.0525   34.5157   44.6183 H   0  0  0  0  0  0  0  0  0  0  0  0
   58.8095   35.6325   45.2925 H   0  0  0  0  0  0  0  0  0  0  0  0
   57.8445   34.4557   47.9082 H   0  0  0  0  0  0  0  0  0  0  0  0
   59.3620   33.7590   49.9100 H   0  0  0  0  0  0  0  0  0  0  0  0
   62.0122   33.1358   50.2436 H   0  0  0  0  0  0  0  0  0  0  0  0
   64.1834   32.8881   48.9863 H   0  0  0  0  0  0  0  0  0  0  0  0
   64.2680   33.3278   46.5212 H   0  0  0  0  0  0  0  0  0  0  0  0
   62.1817   34.0269   45.2865 H   0  0  0  0  0  0  0  0  0  0  0  0
   58.3233   31.7501   46.5264 H   0  0  0  0  0  0  0  0  0  0  0  0
   59.6238   30.8622   45.6838 H   0  0  0  0  0  0  0  0  0  0  0  0
   56.9681   30.0342   46.0920 H   0  0  0  0  0  0  0  0  0  0  0  0
   58.3059   28.1881   45.7391 H   0  0  0  0  0  0  0  0  0  0  0  0
   59.2833   28.9704   44.4855 H   0  0  0  0  0  0  0  0  0  0  0  0
  1  2  1  0
  2  3  1  0
  3  4  1  0
  4  5  1  0
  5  6  1  0
  6  7  1  0
  7  8  1  0
  8  9  1  0
  9 10  2  0
 10 11  1  0
 11 12  1  0
 12 13  2  0
 13 14  1  0
 14 15  2  0
 15 16  1  0
 16 17  2  0
  6 18  1  0
 18 19  1  0
 19 20  1  0
 20  2  1  0
 19  4  1  0
 17  9  1  0
 17 12  1  0
  1 21  1  0
  1 22  1  0
  1 23  1  0
  2 24  1  1
  3 25  1  0
  3 26  1  0
  4 27  1  1
  5 28  1  0
  5 29  1  0
  7 30  1  0
  7 31  1  0
  8 32  1  0
  8 33  1  0
 10 34  1  0
 11 35  1  0
 13 36  1  0
 14 37  1  0
 15 38  1  0
 16 39  1  0
 18 40  1  0
 18 41  1  0
 19 42  1  1
 20 43  1  0
 20 44  1  0
M  CHG  1   2   1
M  END
>  <UniqueID>  (43) 
39

>  <SMILES>  (43) 
C[NH+]1C[C@H]2CN(CCc3c[nH]c4ccccc34)C[C@H]2C1

>  <Energy>  (43) 
88.53630533743477

>  <Genealogy>  (43) 
C[NH+]1CC2CN(CCc3c[nH]c4ccccc34)CC2C1 (protonated)
C[NH+]1C[C@H]2CN(CCc3c[nH]c4ccccc34)C[C@H]2C1 (chirality)
C[NH+]1C[C@H]2CN(CCc3c[nH]c4ccccc34)C[C@H]2C1 (3D coordinates assigned)
C[NH+]1C[C@H]2CN(CCc3c[nH]c4ccccc34)C[C@H]2C1 (nonaromatic ring conformer: 88.53630533743477 kcal/mol)

>  <smiles>  (43) 
CN1CC2CN(CCc3c[nH]c4ccccc34)CC2C1

>  <score_type>  (43) 
oracle

>  <origin>  (43) 
adg

>  <m_score__min__energy>  (43) 
-7

>  <m_primary>  (43) 
energy

$$$$
43:0
     RDKit          3D

 24 25  0  0  0  0  0  0  0  0999 V2000
   63.5370   32.8810   47.1650 C   0  0  0  0  0  0  0  0  0  0  0  0
   62.4290   33.8410   46.7420 C   0  0  0  0  0  0  0  0  0  0  0  0
   61.1470   33.4700   47.3730 N   0  0  0  0  0  0  0  0  0  0  0  0
   61.2060   32.8850   48.6110 C   0  0  0  0  0  0  0  0  0  0  0  0
   60.0490   32.5040   49.2870 C   0  0  0  0  0  0  0  0  0  0  0  0
   58.8090   32.7100   48.6970 C   0  0  0  0  0  0  0  0  0  0  0  0
   58.7300   33.2850   47.4270 C   0  0  0  0  0  0  0  0  0  0  0  0
   57.4790   33.4800   46.8220 C   0  0  0  0  0  0  0  0  0  0  0  0
   57.3950   34.0390   45.5480 C   0  0  0  0  0  0  0  0  0  0  0  0
   58.5550   34.4030   44.8680 C   0  0  0  0  0  0  0  0  0  0  0  0
   59.8080   34.2180   45.4570 C   0  0  0  0  0  0  0  0  0  0  0  0
   59.9250   33.6610   46.7530 C   0  0  0  0  0  0  0  0  0  0  0  0
   63.5860   32.8386   48.2631 H   0  0  0  0  0  0  0  0  0  0  0  0
   63.3238   31.8774   46.7684 H   0  0  0  0  0  0  0  0  0  0  0  0
   64.5000   33.2350   46.7684 H   0  0  0  0  0  0  0  0  0  0  0  0
   62.6998   34.8622   47.0482 H   0  0  0  0  0  0  0  0  0  0  0  0
   62.3135   33.7878   45.6494 H   0  0  0  0  0  0  0  0  0  0  0  0
   62.1860   32.7129   49.0800 H   0  0  0  0  0  0  0  0  0  0  0  0
   60.1174   32.0423   50.2831 H   0  0  0  0  0  0  0  0  0  0  0  0
   57.8907   32.4208   49.2291 H   0  0  0  0  0  0  0  0  0  0  0  0
   56.5614   33.1907   47.3551 H   0  0  0  0  0  0  0  0  0  0  0  0
   56.4119   34.1929   45.0791 H   0  0  0  0  0  0  0  0  0  0  0  0
   58.4838   34.8390   43.8606 H   0  0  0  0  0  0  0  0  0  0  0  0
   60.7151   34.5088   44.9068 H   0  0  0  0  0  0  0  0  0  0  0  0
  1  2  1  0
  2  3  1  0
  3  4  2  0
  4  5  1  0
  5  6  2  0
  6  7  1  0
  7  8  2  0
  8  9  1  0
  9 10  2  0
 10 11  1  0
 11 12  2  0
 12  3  1  0
 12  7  1  0
  1 13  1  0
  1 14  1  0
  1 15  1  0
  2 16  1  0
  2 17  1  0
  4 18  1  0
  5 19  1  0
  6 20  1  0
  8 21  1  0
  9 22  1  0
 10 23  1  0
 11 24  1  0
M  CHG  1   3   1
M  END
>  <UniqueID>  (44) 
40

>  <SMILES>  (44) 
CC[n+]1cccc2ccccc21

>  <Energy>  (44) 
29.679622805852677

>  <Genealogy>  (44) 
CC[n+]1cccc2ccccc21 (3D coordinates assigned)
CC[n+]1cccc2ccccc21 (optimized conformer: 29.679622805852677 kcal/mol)

>  <smiles>  (44) 
CC[n+]1cccc2ccccc21

>  <score_type>  (44) 
oracle

>  <origin>  (44) 
adg

>  <m_score__min__energy>  (44) 
-3.5699999999999998

>  <m_primary>  (44) 
energy

$$$$
44:0
     RDKit          3D

 29 30  0  0  0  0  0  0  0  0999 V2000
   58.1518   25.9978   46.8144 H   0  0  0  0  0  0  0  0  0  0  0  0
   57.7740   26.9140   46.3370 C   0  0  0  0  0  0  0  0  0  0  0  0
   56.4680   26.9630   45.8340 C   0  0  0  0  0  0  0  0  0  0  0  0
   55.5660   25.7770   45.9520 C   0  0  0  0  0  0  0  0  0  0  0  0
   55.3943   25.5512   47.0148 H   0  0  0  0  0  0  0  0  0  0  0  0
   54.6051   25.9972   45.4640 H   0  0  0  0  0  0  0  0  0  0  0  0
   56.0348   24.9098   45.4640 H   0  0  0  0  0  0  0  0  0  0  0  0
   56.0130   28.1040   45.2520 N   0  0  0  0  0  0  0  0  0  0  0  0
   56.7920   29.2170   45.1240 C   0  0  0  0  0  0  0  0  0  0  0  0
   56.3320   30.3050   44.5760 N   0  0  0  0  0  0  0  0  0  0  0  0
   57.0330   31.5510   44.4510 C   0  0  0  0  0  0  0  0  0  0  0  0
   57.7470   31.8890   43.0170 S   0  0  0  0  0  0  0  0  0  0  0  0
   56.8420   32.5990   45.4150 N   0  0  0  0  0  0  0  0  0  0  0  0
   55.8950   32.6930   45.8470 H   0  0  0  0  0  0  0  0  0  0  0  0
   57.8600   33.5420   45.7910 C   0  0  0  0  0  0  0  0  0  0  0  0
   58.4010   34.4480   44.8610 C   0  0  0  0  0  0  0  0  0  0  0  0
   58.0299   34.4563   43.8255 H   0  0  0  0  0  0  0  0  0  0  0  0
   59.4080   35.3380   45.2460 C   0  0  0  0  0  0  0  0  0  0  0  0
   59.8193   36.0507   44.5160 H   0  0  0  0  0  0  0  0  0  0  0  0
   59.8930   35.3240   46.5560 C   0  0  0  0  0  0  0  0  0  0  0  0
   60.6818   36.0286   46.8582 H   0  0  0  0  0  0  0  0  0  0  0  0
   59.3760   34.4150   47.4820 C   0  0  0  0  0  0  0  0  0  0  0  0
   59.7609   34.4012   48.5124 H   0  0  0  0  0  0  0  0  0  0  0  0
   58.3690   33.5220   47.1000 C   0  0  0  0  0  0  0  0  0  0  0  0
   57.9734   32.7998   47.8293 H   0  0  0  0  0  0  0  0  0  0  0  0
   58.1020   29.1990   45.6200 C   0  0  0  0  0  0  0  0  0  0  0  0
   58.7398   30.0909   45.5325 H   0  0  0  0  0  0  0  0  0  0  0  0
   58.5920   28.0410   46.2260 C   0  0  0  0  0  0  0  0  0  0  0  0
   59.6204   28.0159   46.6155 H   0  0  0  0  0  0  0  0  0  0  0  0
  1  2  1  0
  2  3  2  0
  3  4  1  0
  4  5  1  0
  4  6  1  0
  4  7  1  0
  3  8  1  0
  8  9  1  0
  9 10  2  0
 10 11  1  0
 11 12  2  0
 11 13  1  0
 13 14  1  0
 13 15  1  0
 15 16  2  0
 16 17  1  0
 16 18  1  0
 18 19  1  0
 18 20  2  0
 20 21  1  0
 20 22  1  0
 22 23  1  0
 22 24  2  0
 24 25  1  0
  9 26  1  0
 26 27  1  0
 26 28  2  0
 28 29  1  0
 28  2  1  0
 24 15  1  0
M  CHG  1   8  -1
M  END
>  <UniqueID>  (45) 
41

>  <SMILES>  (45) 
Cc1ccc/c(=N/C(=S)Nc2ccccc2)[n-]1

>  <Energy>  (45) 
36.63470570821178

>  <Genealogy>  (45) 
Cc1cccc(=NC(=S)Nc2ccccc2)[n-]1 (protonated)
Cc1ccc/c(=N/C(=S)Nc2ccccc2)[n-]1 (cis-trans isomerization)
Cc1ccc/c(=N/C(=S)Nc2ccccc2)[n-]1 (3D coordinates assigned)
Cc1ccc/c(=N/C(=S)Nc2ccccc2)[n-]1 (optimized conformer: 36.63470570821178 kcal/mol)

>  <smiles>  (45) 
Cc1cccc(=NC(=S)Nc2ccccc2)[nH]1

>  <score_type>  (45) 
oracle

>  <origin>  (45) 
adg

>  <m_score__min__energy>  (45) 
-8.6400000000000006

>  <m_primary>  (45) 
energy

$$$$
45:0
     RDKit          3D

 42 44  0  0  0  0  0  0  0  0999 V2000
   64.4250   31.7980   53.1470 C   0  0  0  0  0  0  0  0  0  0  0  0
   63.4750   32.7030   52.5930 O   0  0  0  0  0  0  0  0  0  0  0  0
   63.3560   32.9880   51.2250 C   0  0  0  0  0  0  0  0  0  0  0  0
   64.3950   32.6020   50.3750 C   0  0  0  0  0  0  0  0  0  0  0  0
   64.3240   32.8610   49.0070 C   0  0  0  0  0  0  0  0  0  0  0  0
   63.2100   33.5080   48.4610 C   0  0  0  0  0  0  0  0  0  0  0  0
   63.2150   33.8250   46.5680 Br  0  0  0  0  0  0  0  0  0  0  0  0
   62.1480   33.9080   49.3050 C   0  0  0  0  0  0  0  0  0  0  0  0
   60.9010   34.5820   48.7760 C   0  0  0  0  0  0  0  0  0  0  0  0
   60.1480   33.6610   47.9060 N   0  0  0  0  0  0  0  0  0  0  0  0
   60.0490   32.3460   48.2640 C   0  0  0  0  0  0  0  0  0  0  0  0
   59.3230   31.4490   47.4840 C   0  0  0  0  0  0  0  0  0  0  0  0
   58.7020   31.9150   46.3220 C   0  0  0  0  0  0  0  0  0  0  0  0
   57.9190   31.0390   45.4890 N   0  0  0  0  0  0  0  0  0  0  0  0
   57.0040   31.6230   44.4990 C   0  0  0  0  0  0  0  0  0  0  0  0
   56.1330   30.5360   43.8550 C   0  0  0  0  0  0  0  0  0  0  0  0
   55.6930   29.5660   44.8660 N   0  0  0  0  0  0  0  0  0  0  0  0
   56.8180   28.8190   45.4640 C   0  0  0  0  0  0  0  0  0  0  0  0
   58.1540   29.5890   45.4610 C   0  0  0  0  0  0  0  0  0  0  0  0
   58.8050   33.2320   46.0050 N   0  0  0  0  0  0  0  0  0  0  0  0
   59.5140   34.1010   46.7710 C   0  0  0  0  0  0  0  0  0  0  0  0
   59.5790   35.3100   46.4200 O   0  0  0  0  0  0  0  0  0  0  0  0
   62.2330   33.6430   50.6840 C   0  0  0  0  0  0  0  0  0  0  0  0
   64.3775   31.8433   54.2450 H   0  0  0  0  0  0  0  0  0  0  0  0
   64.1961   30.7756   52.8119 H   0  0  0  0  0  0  0  0  0  0  0  0
   65.4351   32.0762   52.8119 H   0  0  0  0  0  0  0  0  0  0  0  0
   65.2763   32.0896   50.7883 H   0  0  0  0  0  0  0  0  0  0  0  0
   65.1516   32.5538   48.3507 H   0  0  0  0  0  0  0  0  0  0  0  0
   60.2652   34.8827   49.6217 H   0  0  0  0  0  0  0  0  0  0  0  0
   61.1945   35.4657   48.1904 H   0  0  0  0  0  0  0  0  0  0  0  0
   60.5481   31.9920   49.1781 H   0  0  0  0  0  0  0  0  0  0  0  0
   59.2399   30.3922   47.7775 H   0  0  0  0  0  0  0  0  0  0  0  0
   56.3544   32.3575   44.9974 H   0  0  0  0  0  0  0  0  0  0  0  0
   57.5992   32.1101   43.7126 H   0  0  0  0  0  0  0  0  0  0  0  0
   55.2508   31.0044   43.3942 H   0  0  0  0  0  0  0  0  0  0  0  0
   56.7250   30.0109   43.0910 H   0  0  0  0  0  0  0  0  0  0  0  0
   55.1900   30.0840   45.6250 H   0  0  0  0  0  0  0  0  0  0  0  0
   56.5592   28.5794   46.5059 H   0  0  0  0  0  0  0  0  0  0  0  0
   56.9671   27.9204   44.8473 H   0  0  0  0  0  0  0  0  0  0  0  0
   58.7385   29.3010   46.3472 H   0  0  0  0  0  0  0  0  0  0  0  0
   58.7042   29.3381   44.5421 H   0  0  0  0  0  0  0  0  0  0  0  0
   61.4119   33.9513   51.3479 H   0  0  0  0  0  0  0  0  0  0  0  0
  1  2  1  0
  2  3  1  0
  3  4  2  0
  4  5  1  0
  5  6  2  0
  6  7  1  0
  6  8  1  0
  8  9  1  0
  9 10  1  0
 10 11  1  0
 11 12  2  0
 12 13  1  0
 13 14  1  0
 14 15  1  0
 15 16  1  0
 16 17  1  0
 17 18  1  0
 18 19  1  0
 13 20  2  0
 20 21  1  0
 21 22  2  0
  8 23  2  0
 23  3  1  0
 21 10  1  0
 19 14  1  0
  1 24  1  0
  1 25  1  0
  1 26  1  0
  4 27  1  0
  5 28  1  0
  9 29  1  0
  9 30  1  0
 11 31  1  0
 12 32  1  0
 15 33  1  0
 15 34  1  0
 16 35  1  0
 16 36  1  0
 17 37  1  0
 18 38  1  0
 18 39  1  0
 19 40  1  0
 19 41  1  0
 23 42  1  0
M  END
>  <UniqueID>  (46) 
42

>  <SMILES>  (46) 
COc1ccc(Br)c(Cn2ccc(N3CCNCC3)nc2=O)c1

>  <Energy>  (46) 
53.83963618187188

>  <Genealogy>  (46) 
COc1ccc(Br)c(Cn2ccc(N3CCNCC3)nc2=O)c1 (3D coordinates assigned)
COc1ccc(Br)c(Cn2ccc(N3CCNCC3)nc2=O)c1 (nonaromatic ring conformer: 53.83963618187188 kcal/mol)

>  <smiles>  (46) 
COc1ccc(Br)c(Cn2ccc(N3CCNCC3)nc2=O)c1

>  <score_type>  (46) 
oracle

>  <origin>  (46) 
adg

>  <m_score__min__energy>  (46) 
-7.1600000000000001

>  <m_primary>  (46) 
energy

$$$$
46:0
     RDKit          3D

 30 31  0  0  0  0  0  0  0  0999 V2000
   56.6510   30.4920   42.5270 C   0  0  0  0  0  0  0  0  0  0  0  0
   55.9760   29.7210   43.6540 C   0  0  0  0  0  0  0  0  0  0  0  0
   56.2970   30.3390   44.9470 N   0  0  0  0  0  0  0  0  0  0  0  0
   57.5640   29.8220   45.4860 C   0  0  0  0  0  0  0  0  0  0  0  0
   58.7490   30.5900   44.8980 C   0  0  0  0  0  0  0  0  0  0  0  0
   58.6050   32.0210   45.1650 N   0  0  0  0  0  0  0  0  0  0  0  0
   57.8140   32.8830   44.4800 C   0  0  0  0  0  0  0  0  0  0  0  0
   57.8720   34.1540   45.0430 C   0  0  0  0  0  0  0  0  0  0  0  0
   58.7270   34.0360   46.1190 C   0  0  0  0  0  0  0  0  0  0  0  0
   59.1390   34.9840   47.0530 C   0  0  0  0  0  0  0  0  0  0  0  0
   60.0160   34.5660   48.0700 C   0  0  0  0  0  0  0  0  0  0  0  0
   60.4530   33.2250   48.1310 C   0  0  0  0  0  0  0  0  0  0  0  0
   60.0190   32.2880   47.1740 C   0  0  0  0  0  0  0  0  0  0  0  0
   59.1520   32.7320   46.1720 C   0  0  0  0  0  0  0  0  0  0  0  0
   57.3189   31.2549   42.9534 H   0  0  0  0  0  0  0  0  0  0  0  0
   57.2365   29.7973   41.9069 H   0  0  0  0  0  0  0  0  0  0  0  0
   55.8850   30.9805   41.9069 H   0  0  0  0  0  0  0  0  0  0  0  0
   54.8864   29.7354   43.5037 H   0  0  0  0  0  0  0  0  0  0  0  0
   56.3392   28.6827   43.6496 H   0  0  0  0  0  0  0  0  0  0  0  0
   55.5360   30.0790   45.6180 H   0  0  0  0  0  0  0  0  0  0  0  0
   57.5655   29.9363   46.5800 H   0  0  0  0  0  0  0  0  0  0  0  0
   57.6588   28.7600   45.2157 H   0  0  0  0  0  0  0  0  0  0  0  0
   59.6809   30.2267   45.3559 H   0  0  0  0  0  0  0  0  0  0  0  0
   58.7777   30.4285   43.8103 H   0  0  0  0  0  0  0  0  0  0  0  0
   57.2099   32.6147   43.6007 H   0  0  0  0  0  0  0  0  0  0  0  0
   57.3481   35.0594   44.7028 H   0  0  0  0  0  0  0  0  0  0  0  0
   58.7898   36.0256   46.9969 H   0  0  0  0  0  0  0  0  0  0  0  0
   60.3637   35.2887   48.8228 H   0  0  0  0  0  0  0  0  0  0  0  0
   61.1377   32.9099   48.9322 H   0  0  0  0  0  0  0  0  0  0  0  0
   60.3516   31.2403   47.2137 H   0  0  0  0  0  0  0  0  0  0  0  0
  1  2  1  0
  2  3  1  0
  3  4  1  0
  4  5  1  0
  5  6  1  0
  6  7  1  0
  7  8  2  0
  8  9  1  0
  9 10  2  0
 10 11  1  0
 11 12  2  0
 12 13  1  0
 13 14  2  0
 14  6  1  0
 14  9  1  0
  1 15  1  0
  1 16  1  0
  1 17  1  0
  2 18  1  0
  2 19  1  0
  3 20  1  0
  4 21  1  0
  4 22  1  0
  5 23  1  0
  5 24  1  0
  7 25  1  0
  8 26  1  0
 10 27  1  0
 11 28  1  0
 12 29  1  0
 13 30  1  0
M  END
>  <UniqueID>  (47) 
43

>  <SMILES>  (47) 
CCNCCn1ccc2ccccc21

>  <Energy>  (47) 
56.975666039709296

>  <Genealogy>  (47) 
CCNCCn1ccc2ccccc21 (3D coordinates assigned)
CCNCCn1ccc2ccccc21 (optimized conformer: 56.975666039709296 kcal/mol)

>  <smiles>  (47) 
CCNCCn1ccc2ccccc21

>  <score_type>  (47) 
oracle

>  <origin>  (47) 
adg

>  <m_score__min__energy>  (47) 
-5.75

>  <m_primary>  (47) 
energy

$$$$
47:0
     RDKit          3D

 41 44  0  0  0  0  0  0  0  0999 V2000
   56.3030   29.6910   42.6810 C   0  0  0  0  0  0  0  0  0  0  0  0
   56.8250   30.7690   43.5090 N   0  0  0  0  0  0  0  0  0  0  0  0
   57.5810   31.7950   43.0780 C   0  0  0  0  0  0  0  0  0  0  0  0
   57.9480   32.5380   44.1790 C   0  0  0  0  0  0  0  0  0  0  0  0
   58.8570   33.7290   44.2070 C   0  0  0  0  0  0  0  0  0  0  0  0
   58.5400   34.6770   45.3800 C   0  0  0  0  0  0  0  0  0  0  0  0
   59.5930   34.6610   46.4370 N   0  0  1  0  0  0  0  0  0  0  0  0
   59.0460   34.1410   47.7190 C   0  0  0  0  0  0  0  0  0  0  0  0
   60.0580   34.2930   48.8760 C   0  0  0  0  0  0  0  0  0  0  0  0
   61.4350   33.8750   48.4490 C   0  0  0  0  0  0  0  0  0  0  0  0
   61.7660   33.7410   47.1070 C   0  0  0  0  0  0  0  0  0  0  0  0
   63.3900   33.3050   46.9480 S   0  0  0  0  0  0  0  0  0  0  0  0
   63.6940   33.3360   48.6030 C   0  0  0  0  0  0  0  0  0  0  0  0
   64.8980   33.0830   49.2570 C   0  0  0  0  0  0  0  0  0  0  0  0
   64.9250   33.1750   50.6570 C   0  0  0  0  0  0  0  0  0  0  0  0
   63.7600   33.5150   51.3710 C   0  0  0  0  0  0  0  0  0  0  0  0
   62.5550   33.7640   50.6910 C   0  0  0  0  0  0  0  0  0  0  0  0
   62.5350   33.6680   49.2950 C   0  0  0  0  0  0  0  0  0  0  0  0
   60.7590   33.8450   46.0070 C   0  0  0  0  0  0  0  0  0  0  0  0
   57.3890   31.8890   45.2630 C   0  0  0  0  0  0  0  0  0  0  0  0
   56.7140   30.8070   44.8280 N   0  0  0  0  0  0  0  0  0  0  0  0
   55.9145   28.8888   43.3256 H   0  0  0  0  0  0  0  0  0  0  0  0
   55.4917   30.0764   42.0459 H   0  0  0  0  0  0  0  0  0  0  0  0
   57.1084   29.2935   42.0459 H   0  0  0  0  0  0  0  0  0  0  0  0
   57.8568   32.0035   42.0337 H   0  0  0  0  0  0  0  0  0  0  0  0
   59.8954   33.3796   44.3048 H   0  0  0  0  0  0  0  0  0  0  0  0
   58.7088   34.2885   43.2716 H   0  0  0  0  0  0  0  0  0  0  0  0
   58.4495   35.7014   44.9895 H   0  0  0  0  0  0  0  0  0  0  0  0
   57.6028   34.3318   45.8409 H   0  0  0  0  0  0  0  0  0  0  0  0
   59.9250   35.6410   46.6150 H   0  0  0  0  0  0  0  0  0  0  0  0
   58.1321   34.6997   47.9692 H   0  0  0  0  0  0  0  0  0  0  0  0
   58.8308   33.0699   47.5904 H   0  0  0  0  0  0  0  0  0  0  0  0
   60.0847   35.3458   49.1938 H   0  0  0  0  0  0  0  0  0  0  0  0
   59.7386   33.6460   49.7063 H   0  0  0  0  0  0  0  0  0  0  0  0
   65.8033   32.8182   48.6910 H   0  0  0  0  0  0  0  0  0  0  0  0
   65.8617   32.9804   51.1998 H   0  0  0  0  0  0  0  0  0  0  0  0
   63.7929   33.5863   52.4682 H   0  0  0  0  0  0  0  0  0  0  0  0
   61.6436   34.0297   51.2467 H   0  0  0  0  0  0  0  0  0  0  0  0
   61.2279   34.3185   45.1318 H   0  0  0  0  0  0  0  0  0  0  0  0
   60.4083   32.8341   45.7521 H   0  0  0  0  0  0  0  0  0  0  0  0
   57.4803   32.2049   46.3127 H   0  0  0  0  0  0  0  0  0  0  0  0
  1  2  1  0
  2  3  1  0
  3  4  2  0
  4  5  1  0
  5  6  1  0
  6  7  1  0
  7  8  1  0
  8  9  1  0
  9 10  1  0
 10 11  2  0
 11 12  1  0
 12 13  1  0
 13 14  2  0
 14 15  1  0
 15 16  2  0
 16 17  1  0
 17 18  2  0
 11 19  1  0
  4 20  1  0
 20 21  2  0
 21  2  1  0
 19  7  1  0
 18 10  1  0
 18 13  1  0
  1 22  1  0
  1 23  1  0
  1 24  1  0
  3 25  1  0
  5 26  1  0
  5 27  1  0
  6 28  1  0
  6 29  1  0
  7 30  1  1
  8 31  1  0
  8 32  1  0
  9 33  1  0
  9 34  1  0
 14 35  1  0
 15 36  1  0
 16 37  1  0
 17 38  1  0
 19 39  1  0
 19 40  1  0
 20 41  1  0
M  CHG  1   7   1
M  END
>  <UniqueID>  (48) 
44

>  <SMILES>  (48) 
Cn1cc(CC[N@H+]2CCc3c(sc4ccccc34)C2)cn1

>  <Energy>  (48) 
108.30018772472704

>  <Genealogy>  (48) 
Cn1cc(CC[NH+]2CCc3c(sc4ccccc34)C2)cn1 (protonated)
Cn1cc(CC[N@H+]2CCc3c(sc4ccccc34)C2)cn1 (chirality)
Cn1cc(CC[N@H+]2CCc3c(sc4ccccc34)C2)cn1 (3D coordinates assigned)
Cn1cc(CC[N@H+]2CCc3c(sc4ccccc34)C2)cn1 (nonaromatic ring conformer: 108.30018772472704 kcal/mol)

>  <smiles>  (48) 
Cn1cc(CCN2CCc3c(sc4ccccc34)C2)cn1

>  <score_type>  (48) 
oracle

>  <origin>  (48) 
adg

>  <m_score__min__energy>  (48) 
-6.5800000000000001

>  <m_primary>  (48) 
energy

$$$$
48:0
     RDKit          3D

 37 39  0  0  0  0  0  0  0  0999 V2000
   54.1580   25.0690   45.6280 C   0  0  0  0  0  0  0  0  0  0  0  0
   54.8190   26.2820   45.9710 O   0  0  0  0  0  0  0  0  0  0  0  0
   56.2130   26.4490   45.9930 C   0  0  0  0  0  0  0  0  0  0  0  0
   57.0830   25.4100   46.3750 C   0  0  0  0  0  0  0  0  0  0  0  0
   58.4660   25.6020   46.3440 C   0  0  0  0  0  0  0  0  0  0  0  0
   58.9930   26.8150   45.9020 C   0  0  0  0  0  0  0  0  0  0  0  0
   58.1390   27.8520   45.5210 C   0  0  0  0  0  0  0  0  0  0  0  0
   56.7450   27.6950   45.6190 C   0  0  0  0  0  0  0  0  0  0  0  0
   55.8470   28.7510   45.2450 N   0  0  0  0  0  0  0  0  0  0  0  0
   55.9490   29.6410   44.1240 C   0  0  0  0  0  0  0  0  0  0  0  0
   54.9610   29.7480   43.3510 O   0  0  0  0  0  0  0  0  0  0  0  0
   57.1310   30.5450   43.9040 C   0  0  0  0  0  0  0  0  0  0  0  0
   56.9640   32.0920   44.8560 S   0  0  0  0  0  0  0  0  0  0  0  0
   58.5000   31.8820   45.7510 C   0  0  0  0  0  0  0  0  0  0  0  0
   58.7800   30.6920   46.3430 N   0  0  0  0  0  0  0  0  0  0  0  0
   59.9360   30.5010   47.0320 C   0  0  0  0  0  0  0  0  0  0  0  0
   60.1520   29.3860   47.5780 O   0  0  0  0  0  0  0  0  0  0  0  0
   60.8750   31.5420   47.1190 C   0  0  0  0  0  0  0  0  0  0  0  0
   62.1010   31.4030   47.7940 C   0  0  0  0  0  0  0  0  0  0  0  0
   63.0080   32.4660   47.8220 C   0  0  0  0  0  0  0  0  0  0  0  0
   62.7000   33.6730   47.1880 C   0  0  0  0  0  0  0  0  0  0  0  0
   61.4780   33.8260   46.5250 C   0  0  0  0  0  0  0  0  0  0  0  0
   60.5640   32.7670   46.4880 C   0  0  0  0  0  0  0  0  0  0  0  0
   59.3840   32.9100   45.8340 N   0  0  0  0  0  0  0  0  0  0  0  0
   53.8681   24.5371   46.5462 H   0  0  0  0  0  0  0  0  0  0  0  0
   53.2589   25.2960   45.0364 H   0  0  0  0  0  0  0  0  0  0  0  0
   54.8362   24.4365   45.0364 H   0  0  0  0  0  0  0  0  0  0  0  0
   56.6716   24.4427   46.6993 H   0  0  0  0  0  0  0  0  0  0  0  0
   59.1401   24.7956   46.6685 H   0  0  0  0  0  0  0  0  0  0  0  0
   60.0830   26.9552   45.8534 H   0  0  0  0  0  0  0  0  0  0  0  0
   58.5585   28.7958   45.1426 H   0  0  0  0  0  0  0  0  0  0  0  0
   58.0456   30.0240   44.2234 H   0  0  0  0  0  0  0  0  0  0  0  0
   57.1822   30.7977   42.8346 H   0  0  0  0  0  0  0  0  0  0  0  0
   62.3461   30.4575   48.3000 H   0  0  0  0  0  0  0  0  0  0  0  0
   63.9688   32.3522   48.3454 H   0  0  0  0  0  0  0  0  0  0  0  0
   63.4201   34.5042   47.2105 H   0  0  0  0  0  0  0  0  0  0  0  0
   61.2353   34.7792   46.0325 H   0  0  0  0  0  0  0  0  0  0  0  0
  1  2  1  0
  2  3  1  0
  3  4  2  0
  4  5  1  0
  5  6  2  0
  6  7  1  0
  7  8  2  0
  8  9  1  0
  9 10  1  0
 10 11  2  0
 10 12  1  0
 12 13  1  0
 13 14  1  0
 14 15  2  0
 15 16  1  0
 16 17  2  0
 16 18  1  0
 18 19  2  0
 19 20  1  0
 20 21  2  0
 21 22  1  0
 22 23  2  0
 23 24  1  0
  8  3  1  0
 24 14  1  0
 23 18  1  0
  1 25  1  0
  1 26  1  0
  1 27  1  0
  4 28  1  0
  5 29  1  0
  6 30  1  0
  7 31  1  0
 12 32  1  0
 12 33  1  0
 19 34  1  0
 20 35  1  0
 21 36  1  0
 22 37  1  0
M  CHG  2   9  -1  24  -1
M  END
>  <UniqueID>  (49) 
45

>  <SMILES>  (49) 
COc1ccccc1[N-]C(=O)CSc1nc(=O)c2ccccc2[n-]1

>  <Energy>  (49) 
40.394754116113646

>  <Genealogy>  (49) 
COc1ccccc1[N-]C(=O)CSc1nc(=O)c2ccccc2[n-]1 (protonated)
COc1ccccc1[N-]C(=O)CSc1nc(=O)c2ccccc2[n-]1 (3D coordinates assigned)
COc1ccccc1[N-]C(=O)CSc1nc(=O)c2ccccc2[n-]1 (optimized conformer: 40.394754116113646 kcal/mol)

>  <smiles>  (49) 
COc1ccccc1NC(=O)CSc1nc(=O)c2ccccc2[nH]1

>  <score_type>  (49) 
oracle

>  <origin>  (49) 
adg

>  <m_score__min__energy>  (49) 
-12.17

>  <m_primary>  (49) 
energy

$$$$
49:0
     RDKit          3D

 57 62  0  0  0  0  0  0  0  0999 V2000
   60.6350   27.0690   46.0160 C   0  0  0  0  0  0  0  0  0  0  0  0
   59.1300   27.0890   45.9390 C   0  0  0  0  0  0  0  0  0  0  0  0
   58.4270   26.0140   46.5060 C   0  0  0  0  0  0  0  0  0  0  0  0
   57.0360   25.9760   46.4740 C   0  0  0  0  0  0  0  0  0  0  0  0
   56.3250   27.0110   45.8750 C   0  0  0  0  0  0  0  0  0  0  0  0
   56.9940   28.0860   45.2840 C   0  0  0  0  0  0  0  0  0  0  0  0
   55.9960   29.3510   44.5690 Cl  0  0  0  0  0  0  0  0  0  0  0  0
   58.4140   28.1290   45.2790 C   0  0  0  0  0  0  0  0  0  0  0  0
   59.1490   29.2830   44.6090 C   0  0  0  0  0  0  0  0  0  0  0  0
   59.3340   30.4140   45.5230 N   0  0  0  0  0  0  0  0  0  0  0  0
   59.9900   30.3700   46.7070 C   0  0  0  0  0  0  0  0  0  0  0  0
   59.9450   31.6050   47.3400 C   0  0  0  0  0  0  0  0  0  0  0  0
   59.2170   32.4250   46.5000 C   0  0  0  0  0  0  0  0  0  0  0  0
   58.8310   33.7670   46.6340 C   0  0  0  0  0  0  0  0  0  0  0  0
   59.2330   34.5730   47.7520 N   0  0  0  0  0  0  0  0  0  0  0  0
   60.2440   34.1830   48.6970 C   0  0  0  0  0  0  0  0  0  0  0  0
   59.8740   33.9320   50.0440 C   0  0  0  0  0  0  0  0  0  0  0  0
   60.8390   33.5550   50.9980 C   0  0  0  0  0  0  0  0  0  0  0  0
   62.1580   33.4500   50.5730 C   0  0  0  0  0  0  0  0  0  0  0  0
   63.2210   33.1210   51.2630 O   0  0  0  0  0  0  0  0  0  0  0  0
   64.2400   33.1680   50.4160 C   0  0  0  0  0  0  0  0  0  0  0  0
   65.6340   32.8570   50.8110 C   0  0  0  0  0  0  0  0  0  0  0  0
   65.9850   31.5320   51.1280 C   0  0  0  0  0  0  0  0  0  0  0  0
   67.2940   31.2140   51.5020 C   0  0  0  0  0  0  0  0  0  0  0  0
   68.2670   32.2140   51.5640 C   0  0  0  0  0  0  0  0  0  0  0  0
   67.9330   33.5330   51.2520 C   0  0  0  0  0  0  0  0  0  0  0  0
   66.6240   33.8560   50.8760 C   0  0  0  0  0  0  0  0  0  0  0  0
   63.8490   33.5330   49.1640 N   0  0  0  0  0  0  0  0  0  0  0  0
   62.5250   33.7050   49.2880 C   0  0  0  0  0  0  0  0  0  0  0  0
   61.6060   34.0830   48.3160 C   0  0  0  0  0  0  0  0  0  0  0  0
   57.9880   34.3050   45.6420 C   0  0  0  0  0  0  0  0  0  0  0  0
   57.5890   33.5230   44.5380 C   0  0  0  0  0  0  0  0  0  0  0  0
   58.0170   32.1900   44.4150 C   0  0  0  0  0  0  0  0  0  0  0  0
   58.8390   31.6670   45.4170 C   0  0  0  0  0  0  0  0  0  0  0  0
   60.9482   27.0648   47.0705 H   0  0  0  0  0  0  0  0  0  0  0  0
   61.0157   26.1657   45.5169 H   0  0  0  0  0  0  0  0  0  0  0  0
   61.0396   27.9618   45.5169 H   0  0  0  0  0  0  0  0  0  0  0  0
   58.9822   25.1919   46.9812 H   0  0  0  0  0  0  0  0  0  0  0  0
   56.4987   25.1274   46.9225 H   0  0  0  0  0  0  0  0  0  0  0  0
   55.2254   26.9828   45.8666 H   0  0  0  0  0  0  0  0  0  0  0  0
   60.1358   28.9304   44.2744 H   0  0  0  0  0  0  0  0  0  0  0  0
   58.5427   29.6266   43.7579 H   0  0  0  0  0  0  0  0  0  0  0  0
   60.4901   29.4778   47.1119 H   0  0  0  0  0  0  0  0  0  0  0  0
   60.3946   31.8739   48.3072 H   0  0  0  0  0  0  0  0  0  0  0  0
   58.8260   35.5320   47.8310 H   0  0  0  0  0  0  0  0  0  0  0  0
   58.8212   34.0331   50.3464 H   0  0  0  0  0  0  0  0  0  0  0  0
   60.5588   33.3510   52.0420 H   0  0  0  0  0  0  0  0  0  0  0  0
   65.2233   30.7398   51.0812 H   0  0  0  0  0  0  0  0  0  0  0  0
   67.5580   30.1748   51.7478 H   0  0  0  0  0  0  0  0  0  0  0  0
   69.2965   31.9623   51.8587 H   0  0  0  0  0  0  0  0  0  0  0  0
   68.6999   34.3200   51.3017 H   0  0  0  0  0  0  0  0  0  0  0  0
   66.3671   34.8969   50.6297 H   0  0  0  0  0  0  0  0  0  0  0  0
   64.4200   33.6540   48.3000 H   0  0  0  0  0  0  0  0  0  0  0  0
   61.9249   34.2975   47.2853 H   0  0  0  0  0  0  0  0  0  0  0  0
   57.6378   35.3441   45.7291 H   0  0  0  0  0  0  0  0  0  0  0  0
   56.9375   33.9601   43.7670 H   0  0  0  0  0  0  0  0  0  0  0  0
   57.7136   31.5757   43.5544 H   0  0  0  0  0  0  0  0  0  0  0  0
  1  2  1  0
  2  3  2  0
  3  4  1  0
  4  5  2  0
  5  6  1  0
  6  7  1  0
  6  8  2  0
  8  9  1  0
  9 10  1  0
 10 11  1  0
 11 12  2  0
 12 13  1  0
 13 14  2  0
 14 15  1  0
 15 16  1  0
 16 17  2  0
 17 18  1  0
 18 19  2  0
 19 20  1  0
 20 21  1  0
 21 22  1  0
 22 23  2  0
 23 24  1  0
 24 25  2  0
 25 26  1  0
 26 27  2  0
 21 28  2  0
 28 29  1  0
 29 30  2  0
 14 31  1  0
 31 32  2  0
 32 33  1  0
 33 34  2  0
  8  2  1  0
 34 10  1  0
 34 13  1  0
 30 16  1  0
 29 19  1  0
 27 22  1  0
  1 35  1  0
  1 36  1  0
  1 37  1  0
  3 38  1  0
  4 39  1  0
  5 40  1  0
  9 41  1  0
  9 42  1  0
 11 43  1  0
 12 44  1  0
 15 45  1  0
 17 46  1  0
 18 47  1  0
 23 48  1  0
 24 49  1  0
 25 50  1  0
 26 51  1  0
 27 52  1  0
 28 53  1  0
 30 54  1  0
 31 55  1  0
 32 56  1  0
 33 57  1  0
M  CHG  1  28   1
M  END
>  <UniqueID>  (50) 
46

>  <SMILES>  (50) 
Cc1cccc(Cl)c1Cn1ccc2c(Nc3ccc4oc(-c5ccccc5)[nH+]c4c3)cccc21

>  <Energy>  (50) 
147.34074398804015

>  <Genealogy>  (50) 
Cc1cccc(Cl)c1Cn1ccc2c(Nc3ccc4oc(-c5ccccc5)[nH+]c4c3)cccc21 (protonated)
Cc1cccc(Cl)c1Cn1ccc2c(Nc3ccc4oc(-c5ccccc5)[nH+]c4c3)cccc21 (3D coordinates assigned)
Cc1cccc(Cl)c1Cn1ccc2c(Nc3ccc4oc(-c5ccccc5)[nH+]c4c3)cccc21 (optimized conformer: 147.34074398804015 kcal/mol)

>  <smiles>  (50) 
Cc1cccc(Cl)c1Cn1ccc2c(Nc3ccc4oc(-c5ccccc5)nc4c3)cccc21

>  <score_type>  (50) 
oracle

>  <origin>  (50) 
adg

>  <m_score__min__energy>  (50) 
-8.4800000000000004

>  <m_primary>  (50) 
energy

$$$$
50:0
     RDKit          3D

 31 33  0  0  0  0  0  0  0  0999 V2000
   55.7490   26.9650   45.6370 N   0  0  0  0  0  0  0  0  0  0  0  0
   56.4170   25.7100   45.7880 C   0  0  0  0  0  0  0  0  0  0  0  0
   56.3890   24.8000   47.1990 S   0  0  0  0  0  0  0  0  0  0  0  0
   57.3460   23.5440   46.6200 C   0  0  0  0  0  0  0  0  0  0  0  0
   57.6990   23.8280   45.3060 C   0  0  0  0  0  0  0  0  0  0  0  0
   57.1850   25.0450   44.8290 C   0  0  0  0  0  0  0  0  0  0  0  0
   57.4600   25.5280   43.4310 C   0  0  0  0  0  0  0  0  0  0  0  0
   58.4160   26.5850   43.4490 O   0  0  0  0  0  0  0  0  0  0  0  0
   58.0900   27.9170   43.7340 C   0  0  0  0  0  0  0  0  0  0  0  0
   57.0100   28.5330   43.2130 N   0  0  0  0  0  0  0  0  0  0  0  0
   56.8700   29.7980   43.6020 N   0  0  0  0  0  0  0  0  0  0  0  0
   57.8470   30.2110   44.4470 C   0  0  0  0  0  0  0  0  0  0  0  0
   57.9130   31.5760   45.0170 C   0  0  0  0  0  0  0  0  0  0  0  0
   57.7410   32.7100   44.2010 C   0  0  0  0  0  0  0  0  0  0  0  0
   57.8050   33.9940   44.7520 C   0  0  0  0  0  0  0  0  0  0  0  0
   58.0390   34.1610   46.1180 C   0  0  0  0  0  0  0  0  0  0  0  0
   58.2100   33.0440   46.9380 C   0  0  0  0  0  0  0  0  0  0  0  0
   58.4370   33.2080   48.2650 F   0  0  0  0  0  0  0  0  0  0  0  0
   58.1470   31.7580   46.3930 C   0  0  0  0  0  0  0  0  0  0  0  0
   58.9480   28.9610   44.7410 S   0  0  0  0  0  0  0  0  0  0  0  0
   56.2060   27.7870   45.1890 H   0  0  0  0  0  0  0  0  0  0  0  0
   54.7730   27.0760   45.9900 H   0  0  0  0  0  0  0  0  0  0  0  0
   57.6426   22.6486   47.1859 H   0  0  0  0  0  0  0  0  0  0  0  0
   58.3242   23.1602   44.6951 H   0  0  0  0  0  0  0  0  0  0  0  0
   57.8528   24.6944   42.8303 H   0  0  0  0  0  0  0  0  0  0  0  0
   56.5232   25.9019   42.9922 H   0  0  0  0  0  0  0  0  0  0  0  0
   56.3370   28.0710   42.5610 H   0  0  0  0  0  0  0  0  0  0  0  0
   57.5552   32.5857   43.1240 H   0  0  0  0  0  0  0  0  0  0  0  0
   57.6705   34.8748   44.1070 H   0  0  0  0  0  0  0  0  0  0  0  0
   58.0887   35.1722   46.5482 H   0  0  0  0  0  0  0  0  0  0  0  0
   58.2813   30.8819   47.0444 H   0  0  0  0  0  0  0  0  0  0  0  0
  1  2  1  0
  2  3  1  0
  3  4  1  0
  4  5  2  0
  5  6  1  0
  6  7  1  0
  7  8  1  0
  8  9  1  0
  9 10  2  0
 10 11  1  0
 11 12  2  0
 12 13  1  0
 13 14  2  0
 14 15  1  0
 15 16  2  0
 16 17  1  0
 17 18  1  0
 17 19  2  0
 12 20  1  0
  6  2  2  0
 20  9  1  0
 19 13  1  0
  1 21  1  0
  1 22  1  0
  4 23  1  0
  5 24  1  0
  7 25  1  0
  7 26  1  0
 10 27  1  0
 14 28  1  0
 15 29  1  0
 16 30  1  0
 19 31  1  0
M  CHG  1  10   1
M  END
>  <UniqueID>  (51) 
47

>  <SMILES>  (51) 
Nc1sccc1COc1[nH+]nc(-c2cccc(F)c2)s1

>  <Energy>  (51) 
92.33870157103087

>  <Genealogy>  (51) 
Nc1sccc1COc1[nH+]nc(-c2cccc(F)c2)s1 (protonated)
Nc1sccc1COc1[nH+]nc(-c2cccc(F)c2)s1 (3D coordinates assigned)
Nc1sccc1COc1[nH+]nc(-c2cccc(F)c2)s1 (optimized conformer: 92.33870157103087 kcal/mol)

>  <smiles>  (51) 
Nc1sccc1COc1nnc(-c2cccc(F)c2)s1

>  <score_type>  (51) 
oracle

>  <origin>  (51) 
adg

>  <m_score__min__energy>  (51) 
-6.4000000000000004

>  <m_primary>  (51) 
energy

$$$$
51:0
     RDKit          3D

 42 44  0  0  0  0  0  0  0  0999 V2000
   56.7030   30.3720   43.4930 C   0  0  0  0  0  0  0  0  0  0  0  0
   56.9710   30.6560   44.8610 O   0  0  0  0  0  0  0  0  0  0  0  0
   57.6280   31.8090   45.3230 C   0  0  0  0  0  0  0  0  0  0  0  0
   57.0510   33.0890   45.2020 C   0  0  0  0  0  0  0  0  0  0  0  0
   57.7380   34.2200   45.6500 C   0  0  0  0  0  0  0  0  0  0  0  0
   59.0040   34.0890   46.2220 C   0  0  0  0  0  0  0  0  0  0  0  0
   59.5850   32.8260   46.3510 C   0  0  0  0  0  0  0  0  0  0  0  0
   58.9050   31.6790   45.9070 C   0  0  0  0  0  0  0  0  0  0  0  0
   59.5120   30.3840   46.0720 N   0  0  0  0  0  0  0  0  0  0  0  0
   59.7680   29.8410   47.4080 C   0  0  0  0  0  0  0  0  0  0  0  0
   58.9740   28.5350   47.6230 C   0  0  0  0  0  0  0  0  0  0  0  0
   58.6780   27.7920   46.3690 N   0  0  0  0  0  0  0  0  0  0  0  0
   57.2890   28.0160   45.9080 C   0  0  0  0  0  0  0  0  0  0  0  0
   56.4980   26.7430   45.9270 C   0  0  0  0  0  0  0  0  0  0  0  0
   57.0130   25.4700   45.8150 C   0  0  0  0  0  0  0  0  0  0  0  0
   55.8950   24.6650   45.8510 C   0  0  0  0  0  0  0  0  0  0  0  0
   55.8830   23.1810   45.6950 C   0  0  0  0  0  0  0  0  0  0  0  0
   54.7850   25.4200   45.9520 N   0  0  0  0  0  0  0  0  0  0  0  0
   55.1530   26.6920   46.0030 N   0  0  0  0  0  0  0  0  0  0  0  0
   59.6920   28.0400   45.3160 C   0  0  0  0  0  0  0  0  0  0  0  0
   59.7470   29.5220   44.9090 C   0  0  0  0  0  0  0  0  0  0  0  0
   55.9495   29.5735   43.4251 H   0  0  0  0  0  0  0  0  0  0  0  0
   56.3229   31.2779   42.9981 H   0  0  0  0  0  0  0  0  0  0  0  0
   57.6294   30.0450   42.9981 H   0  0  0  0  0  0  0  0  0  0  0  0
   56.0533   33.1983   44.7519 H   0  0  0  0  0  0  0  0  0  0  0  0
   57.2802   35.2154   45.5517 H   0  0  0  0  0  0  0  0  0  0  0  0
   59.5445   34.9811   46.5714 H   0  0  0  0  0  0  0  0  0  0  0  0
   60.5827   32.7279   46.8037 H   0  0  0  0  0  0  0  0  0  0  0  0
   60.8429   29.6326   47.5140 H   0  0  0  0  0  0  0  0  0  0  0  0
   59.4485   30.5788   48.1587 H   0  0  0  0  0  0  0  0  0  0  0  0
   59.5601   27.8789   48.2833 H   0  0  0  0  0  0  0  0  0  0  0  0
   58.0054   28.8203   48.0593 H   0  0  0  0  0  0  0  0  0  0  0  0
   56.8051   28.7487   46.5706 H   0  0  0  0  0  0  0  0  0  0  0  0
   57.3219   28.3894   44.8739 H   0  0  0  0  0  0  0  0  0  0  0  0
   58.0664   25.1679   45.7195 H   0  0  0  0  0  0  0  0  0  0  0  0
   55.8792   22.7079   46.6881 H   0  0  0  0  0  0  0  0  0  0  0  0
   54.9824   22.8778   45.1410 H   0  0  0  0  0  0  0  0  0  0  0  0
   56.7786   22.8633   45.1410 H   0  0  0  0  0  0  0  0  0  0  0  0
   60.6795   27.7388   45.6955 H   0  0  0  0  0  0  0  0  0  0  0  0
   59.4118   27.4534   44.4286 H   0  0  0  0  0  0  0  0  0  0  0  0
   60.7384   29.7450   44.4878 H   0  0  0  0  0  0  0  0  0  0  0  0
   58.9644   29.7142   44.1603 H   0  0  0  0  0  0  0  0  0  0  0  0
  1  2  1  0
  2  3  1  0
  3  4  2  0
  4  5  1  0
  5  6  2  0
  6  7  1  0
  7  8  2  0
  8  9  1  0
  9 10  1  0
 10 11  1  0
 11 12  1  0
 12 13  1  0
 13 14  1  0
 14 15  2  0
 15 16  1  0
 16 17  1  0
 16 18  2  0
 18 19  1  0
 12 20  1  0
 20 21  1  0
  8  3  1  0
 21  9  1  0
 19 14  1  0
  1 22  1  0
  1 23  1  0
  1 24  1  0
  4 25  1  0
  5 26  1  0
  6 27  1  0
  7 28  1  0
 10 29  1  0
 10 30  1  0
 11 31  1  0
 11 32  1  0
 13 33  1  0
 13 34  1  0
 15 35  1  0
 17 36  1  0
 17 37  1  0
 17 38  1  0
 20 39  1  0
 20 40  1  0
 21 41  1  0
 21 42  1  0
M  CHG  1  19  -1
M  END
>  <UniqueID>  (52) 
48

>  <SMILES>  (52) 
COc1ccccc1N1CCN(Cc2cc(C)n[n-]2)CC1

>  <Energy>  (52) 
83.33478647591122

>  <Genealogy>  (52) 
COc1ccccc1N1CCN(Cc2cc(C)n[n-]2)CC1 (protonated)
COc1ccccc1N1CCN(Cc2cc(C)n[n-]2)CC1 (3D coordinates assigned)
COc1ccccc1N1CCN(Cc2cc(C)n[n-]2)CC1 (nonaromatic ring conformer: 83.33478647591122 kcal/mol)

>  <smiles>  (52) 
COc1ccccc1N1CCN(Cc2cc(C)n[nH]2)CC1

>  <score_type>  (52) 
oracle

>  <origin>  (52) 
adg

>  <m_score__min__energy>  (52) 
-10.359999999999999

>  <m_primary>  (52) 
energy

$$$$
52:0
     RDKit          3D

 33 34  0  0  0  0  0  0  0  0999 V2000
   52.4830   23.5850   45.2470 H   0  0  0  0  0  0  0  0  0  0  0  0
   53.5070   23.3800   45.1970 N   0  0  0  0  0  0  0  0  0  0  0  0
   54.3830   24.2920   45.4620 C   0  0  0  0  0  0  0  0  0  0  0  0
   54.0610   25.5700   45.7560 N   0  0  0  0  0  0  0  0  0  0  0  0
   55.1310   26.3250   45.9930 N   0  0  0  0  0  0  0  0  0  0  0  0
   56.2960   25.6470   45.8830 C   0  0  0  0  0  0  0  0  0  0  0  0
   57.9010   26.3970   46.1410 S   0  0  0  0  0  0  0  0  0  0  0  0
   58.1920   26.8270   44.3830 C   0  0  0  0  0  0  0  0  0  0  0  0
   58.8707   26.0780   43.9490 H   0  0  0  0  0  0  0  0  0  0  0  0
   57.2109   26.8383   43.8858 H   0  0  0  0  0  0  0  0  0  0  0  0
   58.8130   28.2160   44.1880 C   0  0  0  0  0  0  0  0  0  0  0  0
   59.1395   28.6022   45.1648 H   0  0  0  0  0  0  0  0  0  0  0  0
   59.6664   28.1198   43.5007 H   0  0  0  0  0  0  0  0  0  0  0  0
   57.8520   29.1550   43.6010 N   0  0  0  0  0  0  0  0  0  0  0  0
   58.3750   29.8680   43.0430 H   0  0  0  0  0  0  0  0  0  0  0  0
   57.0570   30.0410   44.8680 S   0  0  0  0  0  0  0  0  0  0  0  0
   57.1180   29.2600   46.1510 O   0  0  0  0  0  0  0  0  0  0  0  0
   55.6100   30.2120   44.5010 O   0  0  0  0  0  0  0  0  0  0  0  0
   57.7930   31.6520   45.0210 C   0  0  0  0  0  0  0  0  0  0  0  0
   58.0700   32.1060   46.3210 C   0  0  0  0  0  0  0  0  0  0  0  0
   57.8617   31.4519   47.1805 H   0  0  0  0  0  0  0  0  0  0  0  0
   58.6060   33.3760   46.5360 C   0  0  0  0  0  0  0  0  0  0  0  0
   58.8180   33.7167   47.5602 H   0  0  0  0  0  0  0  0  0  0  0  0
   58.8730   34.2130   45.4550 C   0  0  0  0  0  0  0  0  0  0  0  0
   59.2995   35.2124   45.6261 H   0  0  0  0  0  0  0  0  0  0  0  0
   58.6000   33.7850   44.1560 C   0  0  0  0  0  0  0  0  0  0  0  0
   58.8163   34.4509   43.3075 H   0  0  0  0  0  0  0  0  0  0  0  0
   58.0510   32.5110   43.9180 C   0  0  0  0  0  0  0  0  0  0  0  0
   57.7790   32.1020   42.4940 C   0  0  0  0  0  0  0  0  0  0  0  0
   57.1699   31.1861   42.4856 H   0  0  0  0  0  0  0  0  0  0  0  0
   57.2364   32.9080   41.9783 H   0  0  0  0  0  0  0  0  0  0  0  0
   58.7321   31.9133   41.9783 H   0  0  0  0  0  0  0  0  0  0  0  0
   56.0450   24.0280   45.4850 S   0  0  0  0  0  0  0  0  0  0  0  0
  1  2  1  0
  2  3  2  0
  3  4  1  0
  4  5  1  0
  5  6  2  0
  6  7  1  0
  7  8  1  0
  8  9  1  0
  8 10  1  0
  8 11  1  0
 11 12  1  0
 11 13  1  0
 11 14  1  0
 14 15  1  0
 14 16  1  0
 16 17  2  0
 16 18  2  0
 16 19  1  0
 19 20  2  0
 20 21  1  0
 20 22  1  0
 22 23  1  0
 22 24  2  0
 24 25  1  0
 24 26  1  0
 26 27  1  0
 26 28  2  0
 28 29  1  0
 29 30  1  0
 29 31  1  0
 29 32  1  0
  6 33  1  0
 33  3  1  0
 28 19  1  0
M  CHG  1   4  -1
M  END
>  <UniqueID>  (53) 
49

>  <SMILES>  (53) 
[H]/N=c1\[n-]nc(SCCNS(=O)(=O)c2ccccc2C)s1

>  <Energy>  (53) 
61.59611165235049

>  <Genealogy>  (53) 
Cc1ccccc1S(=O)(=O)NCCSc1n[n-]c(=N)s1 (protonated)
[H]/N=c1\[n-]nc(SCCNS(=O)(=O)c2ccccc2C)s1 (cis-trans isomerization)
[H]/N=c1\[n-]nc(SCCNS(=O)(=O)c2ccccc2C)s1 (3D coordinates assigned)
[H]/N=c1\[n-]nc(SCCNS(=O)(=O)c2ccccc2C)s1 (optimized conformer: 61.59611165235049 kcal/mol)

>  <smiles>  (53) 
Cc1ccccc1S(=O)(=O)NCCSc1n[nH]c(=N)s1

>  <score_type>  (53) 
oracle

>  <origin>  (53) 
adg

>  <m_score__min__energy>  (53) 
-10.48

>  <m_primary>  (53) 
energy

$$$$
53:0
     RDKit          3D

 32 33  0  0  0  0  0  0  0  0999 V2000
   60.7530   26.6500   46.5790 C   0  0  0  0  0  0  0  0  0  0  0  0
   59.6820   27.5170   45.9890 C   0  0  0  0  0  0  0  0  0  0  0  0
   58.3290   27.2360   46.2330 C   0  0  0  0  0  0  0  0  0  0  0  0
   57.3300   28.0200   45.6500 C   0  0  0  0  0  0  0  0  0  0  0  0
   57.6720   29.0840   44.8050 C   0  0  0  0  0  0  0  0  0  0  0  0
   56.4170   30.0630   44.0490 S   0  0  0  0  0  0  0  0  0  0  0  0
   56.7360   30.3100   42.6020 O   0  0  0  0  0  0  0  0  0  0  0  0
   55.1080   29.3320   44.1450 O   0  0  0  0  0  0  0  0  0  0  0  0
   56.2780   31.5860   44.8670 N   0  0  0  0  0  0  0  0  0  0  0  0
   57.3760   32.4400   45.2130 C   0  0  0  0  0  0  0  0  0  0  0  0
   58.0610   33.0990   44.1850 C   0  0  0  0  0  0  0  0  0  0  0  0
   59.1360   33.9430   44.4770 C   0  0  0  0  0  0  0  0  0  0  0  0
   59.5340   34.1390   45.8010 C   0  0  0  0  0  0  0  0  0  0  0  0
   58.8500   33.4980   46.8450 C   0  0  0  0  0  0  0  0  0  0  0  0
   59.2990   33.6770   48.2650 C   0  0  0  0  0  0  0  0  0  0  0  0
   57.7840   32.6340   46.5460 C   0  0  0  0  0  0  0  0  0  0  0  0
   59.0220   29.3600   44.5500 C   0  0  0  0  0  0  0  0  0  0  0  0
   60.0220   28.5760   45.1320 C   0  0  0  0  0  0  0  0  0  0  0  0
   60.6977   26.6948   47.6767 H   0  0  0  0  0  0  0  0  0  0  0  0
   60.6085   25.6114   46.2466 H   0  0  0  0  0  0  0  0  0  0  0  0
   61.7387   27.0076   46.2466 H   0  0  0  0  0  0  0  0  0  0  0  0
   58.0536   26.3948   46.8861 H   0  0  0  0  0  0  0  0  0  0  0  0
   56.2717   27.8011   45.8551 H   0  0  0  0  0  0  0  0  0  0  0  0
   57.7508   32.9514   43.1400 H   0  0  0  0  0  0  0  0  0  0  0  0
   59.6697   34.4540   43.6621 H   0  0  0  0  0  0  0  0  0  0  0  0
   60.3859   34.7975   46.0261 H   0  0  0  0  0  0  0  0  0  0  0  0
   58.4968   33.3572   48.9463 H   0  0  0  0  0  0  0  0  0  0  0  0
   60.1973   33.0682   48.4450 H   0  0  0  0  0  0  0  0  0  0  0  0
   59.5321   34.7368   48.4450 H   0  0  0  0  0  0  0  0  0  0  0  0
   57.2645   32.1054   47.3589 H   0  0  0  0  0  0  0  0  0  0  0  0
   59.2955   30.1962   43.8898 H   0  0  0  0  0  0  0  0  0  0  0  0
   61.0796   28.7894   44.9178 H   0  0  0  0  0  0  0  0  0  0  0  0
  1  2  1  0
  2  3  2  0
  3  4  1  0
  4  5  2  0
  5  6  1  0
  6  7  2  0
  6  8  2  0
  6  9  1  0
  9 10  1  0
 10 11  2  0
 11 12  1  0
 12 13  2  0
 13 14  1  0
 14 15  1  0
 14 16  2  0
  5 17  1  0
 17 18  2  0
 18  2  1  0
 16 10  1  0
  1 19  1  0
  1 20  1  0
  1 21  1  0
  3 22  1  0
  4 23  1  0
 11 24  1  0
 12 25  1  0
 13 26  1  0
 15 27  1  0
 15 28  1  0
 15 29  1  0
 16 30  1  0
 17 31  1  0
 18 32  1  0
M  CHG  1   9  -1
M  END
>  <UniqueID>  (54) 
50

>  <SMILES>  (54) 
Cc1ccc(S(=O)(=O)[N-]c2cccc(C)c2)cc1

>  <Energy>  (54) 
33.50689800099066

>  <Genealogy>  (54) 
Cc1ccc(S(=O)(=O)[N-]c2cccc(C)c2)cc1 (protonated)
Cc1ccc(S(=O)(=O)[N-]c2cccc(C)c2)cc1 (3D coordinates assigned)
Cc1ccc(S(=O)(=O)[N-]c2cccc(C)c2)cc1 (optimized conformer: 33.50689800099066 kcal/mol)

>  <smiles>  (54) 
Cc1ccc(S(=O)(=O)Nc2cccc(C)c2)cc1

>  <score_type>  (54) 
oracle

>  <origin>  (54) 
adg

>  <m_score__min__energy>  (54) 
-8.7799999999999994

>  <m_primary>  (54) 
energy

$$$$
54:0
     RDKit          3D

 59 64  0  0  0  0  0  0  0  0999 V2000
   56.6530   30.8870   45.1520 O   0  0  0  0  0  0  0  0  0  0  0  0
   57.3510   29.9160   44.7510 C   0  0  0  0  0  0  0  0  0  0  0  0
   56.8160   28.7920   44.1620 O   0  0  0  0  0  0  0  0  0  0  0  0
   57.8620   27.8710   43.8640 C   0  0  2  0  0  0  0  0  0  0  0  0
   57.7240   26.6080   44.7450 C   0  0  0  0  0  0  0  0  0  0  0  0
   58.4880   26.7170   45.9890 N   0  0  0  0  0  0  0  0  0  0  0  0
   58.3610   27.6570   46.9420 C   0  0  0  0  0  0  0  0  0  0  0  0
   59.3830   27.4310   47.8460 C   0  0  0  0  0  0  0  0  0  0  0  0
   59.7360   28.2460   49.0340 C   0  0  0  0  0  0  0  0  0  0  0  0
   58.9880   29.3990   49.3400 C   0  0  0  0  0  0  0  0  0  0  0  0
   59.3170   30.1590   50.4660 C   0  0  0  0  0  0  0  0  0  0  0  0
   60.3760   29.7660   51.2820 C   0  0  0  0  0  0  0  0  0  0  0  0
   61.0970   28.6120   50.9590 C   0  0  0  0  0  0  0  0  0  0  0  0
   60.7690   27.8820   49.8550 N   0  0  0  0  0  0  0  0  0  0  0  0
   60.0830   26.3580   47.4240 N   0  0  0  0  0  0  0  0  0  0  0  0
   59.5190   25.9460   46.2990 N   0  0  0  0  0  0  0  0  0  0  0  0
   59.1770   28.6600   44.1240 C   0  0  0  0  0  0  0  0  0  0  0  0
   58.7630   29.8660   44.8430 N   0  0  0  0  0  0  0  0  0  0  0  0
   59.5680   30.5140   45.8450 C   0  0  0  0  0  0  0  0  0  0  0  0
   60.7510   29.9190   46.3170 C   0  0  0  0  0  0  0  0  0  0  0  0
   61.5700   30.5930   47.2250 C   0  0  0  0  0  0  0  0  0  0  0  0
   61.2080   31.8630   47.6900 C   0  0  0  0  0  0  0  0  0  0  0  0
   62.0570   32.5570   48.6130 N   0  0  0  0  0  0  0  0  0  0  0  0
   61.4480   33.1950   49.7890 C   0  0  0  0  0  0  0  0  0  0  0  0
   62.2770   34.3950   50.2440 C   0  0  0  0  0  0  0  0  0  0  0  0
   63.7020   33.9760   50.4600 C   0  0  0  0  0  0  0  0  0  0  0  0
   64.4590   34.5250   51.5090 C   0  0  0  0  0  0  0  0  0  0  0  0
   65.7950   34.1490   51.6840 C   0  0  0  0  0  0  0  0  0  0  0  0
   66.3880   33.2450   50.7990 C   0  0  0  0  0  0  0  0  0  0  0  0
   65.6450   32.7080   49.7400 C   0  0  0  0  0  0  0  0  0  0  0  0
   64.2950   33.0580   49.5720 C   0  0  0  0  0  0  0  0  0  0  0  0
   63.5150   32.4970   48.4060 C   0  0  0  0  0  0  0  0  0  0  0  0
   60.0170   32.4540   47.2400 C   0  0  0  0  0  0  0  0  0  0  0  0
   59.6550   33.6840   47.6810 F   0  0  0  0  0  0  0  0  0  0  0  0
   59.2090   31.7870   46.3140 C   0  0  0  0  0  0  0  0  0  0  0  0
   57.8377   27.5024   42.8279 H   0  0  0  0  0  0  0  0  0  0  0  0
   56.6621   26.4628   44.9927 H   0  0  0  0  0  0  0  0  0  0  0  0
   58.1222   25.7542   44.1771 H   0  0  0  0  0  0  0  0  0  0  0  0
   57.5974   28.4472   46.9925 H   0  0  0  0  0  0  0  0  0  0  0  0
   58.1487   29.7002   48.6960 H   0  0  0  0  0  0  0  0  0  0  0  0
   58.7415   31.0649   50.7073 H   0  0  0  0  0  0  0  0  0  0  0  0
   60.6420   30.3571   52.1707 H   0  0  0  0  0  0  0  0  0  0  0  0
   61.9327   28.2917   51.5986 H   0  0  0  0  0  0  0  0  0  0  0  0
   61.3370   27.0270   49.6540 H   0  0  0  0  0  0  0  0  0  0  0  0
   59.8700   28.0643   44.7362 H   0  0  0  0  0  0  0  0  0  0  0  0
   59.7058   28.8987   43.1894 H   0  0  0  0  0  0  0  0  0  0  0  0
   61.0336   28.9147   45.9683 H   0  0  0  0  0  0  0  0  0  0  0  0
   62.5017   30.1251   47.5758 H   0  0  0  0  0  0  0  0  0  0  0  0
   60.4339   33.5340   49.5310 H   0  0  0  0  0  0  0  0  0  0  0  0
   61.4092   32.4617   50.6080 H   0  0  0  0  0  0  0  0  0  0  0  0
   62.2396   35.1783   49.4726 H   0  0  0  0  0  0  0  0  0  0  0  0
   61.8658   34.7838   51.1873 H   0  0  0  0  0  0  0  0  0  0  0  0
   63.9997   35.2525   52.1944 H   0  0  0  0  0  0  0  0  0  0  0  0
   66.3787   34.5651   52.5184 H   0  0  0  0  0  0  0  0  0  0  0  0
   67.4403   32.9545   50.9341 H   0  0  0  0  0  0  0  0  0  0  0  0
   66.1209   32.0089   49.0366 H   0  0  0  0  0  0  0  0  0  0  0  0
   63.7661   33.0750   47.5044 H   0  0  0  0  0  0  0  0  0  0  0  0
   63.7915   31.4375   48.3014 H   0  0  0  0  0  0  0  0  0  0  0  0
   58.2862   32.2631   45.9509 H   0  0  0  0  0  0  0  0  0  0  0  0
  1  2  2  0
  2  3  1  0
  3  4  1  0
  4  5  1  0
  5  6  1  0
  6  7  1  0
  7  8  2  0
  8  9  1  0
  9 10  2  0
 10 11  1  0
 11 12  2  0
 12 13  1  0
 13 14  2  0
  8 15  1  0
 15 16  2  0
  4 17  1  0
 17 18  1  0
 18 19  1  0
 19 20  2  0
 20 21  1  0
 21 22  2  0
 22 23  1  0
 23 24  1  0
 24 25  1  0
 25 26  1  0
 26 27  2  0
 27 28  1  0
 28 29  2  0
 29 30  1  0
 30 31  2  0
 31 32  1  0
 22 33  1  0
 33 34  1  0
 33 35  2  0
 18  2  1  0
 35 19  1  0
 16  6  1  0
 32 23  1  0
 14  9  1  0
 31 26  1  0
  4 36  1  6
  5 37  1  0
  5 38  1  0
  7 39  1  0
 10 40  1  0
 11 41  1  0
 12 42  1  0
 13 43  1  0
 14 44  1  0
 17 45  1  0
 17 46  1  0
 20 47  1  0
 21 48  1  0
 24 49  1  0
 24 50  1  0
 25 51  1  0
 25 52  1  0
 27 53  1  0
 28 54  1  0
 29 55  1  0
 30 56  1  0
 32 57  1  0
 32 58  1  0
 35 59  1  0
M  CHG  1  14   1
M  END
>  <UniqueID>  (55) 
51

>  <SMILES>  (55) 
O=C1O[C@H](Cn2cc(-c3cccc[nH+]3)nn2)CN1c1ccc(N2CCc3ccccc3C2)c(F)c1

>  <Energy>  (55) 
124.74671377707705

>  <Genealogy>  (55) 
O=C1OC(Cn2cc(-c3cccc[nH+]3)nn2)CN1c1ccc(N2CCc3ccccc3C2)c(F)c1 (protonated)
O=C1O[C@H](Cn2cc(-c3cccc[nH+]3)nn2)CN1c1ccc(N2CCc3ccccc3C2)c(F)c1 (chirality)
O=C1O[C@H](Cn2cc(-c3cccc[nH+]3)nn2)CN1c1ccc(N2CCc3ccccc3C2)c(F)c1 (3D coordinates assigned)
O=C1O[C@H](Cn2cc(-c3cccc[nH+]3)nn2)CN1c1ccc(N2CCc3ccccc3C2)c(F)c1 (nonaromatic ring conformer: 124.74671377707705 kcal/mol)

>  <smiles>  (55) 
O=C1OC(Cn2cc(-c3ccccn3)nn2)CN1c1ccc(N2CCc3ccccc3C2)c(F)c1

>  <score_type>  (55) 
oracle

>  <origin>  (55) 
adg

>  <m_score__min__energy>  (55) 
-9.5299999999999994

>  <m_primary>  (55) 
energy

$$$$
55:0
     RDKit          3D

 57 58  0  0  0  0  0  0  0  0999 V2000
   58.6850   32.1920   49.0490 C   0  0  0  0  0  0  0  0  0  0  0  0
   59.1830   30.7500   48.9530 C   0  0  0  0  0  0  0  0  0  0  0  0
   60.5520   30.6350   48.2690 C   0  0  0  0  0  0  0  0  0  0  0  0
   60.4640   30.7440   46.7400 C   0  0  0  0  0  0  0  0  0  0  0  0
   59.3440   29.8810   46.2080 C   0  0  0  0  0  0  0  0  0  0  0  0
   59.4210   28.4880   46.3710 C   0  0  0  0  0  0  0  0  0  0  0  0
   58.4560   27.6520   45.8060 C   0  0  0  0  0  0  0  0  0  0  0  0
   57.4080   28.1940   45.0670 C   0  0  0  0  0  0  0  0  0  0  0  0
   57.2890   29.5870   44.9030 C   0  0  0  0  0  0  0  0  0  0  0  0
   56.1780   30.1190   44.0220 C   0  0  0  0  0  0  0  0  0  0  0  0
   56.6150   30.3510   42.5650 C   0  0  0  0  0  0  0  0  0  0  0  0
   57.4240   31.6300   42.3740 C   0  0  0  0  0  0  0  0  0  0  0  0
   58.2710   30.4390   45.4770 C   0  0  0  0  0  0  0  0  0  0  0  0
   58.2480   31.8250   45.2730 O   0  0  0  0  0  0  0  0  0  0  0  0
   57.3960   32.7190   45.9890 C   0  0  0  0  0  0  0  0  0  0  0  0
   57.5010   34.1360   45.4170 C   0  0  0  0  0  0  0  0  0  0  0  0
   58.9300   34.5180   44.9970 C   0  0  0  0  0  0  0  0  0  0  0  0
   59.6530   35.3640   46.0520 C   0  0  0  0  0  0  0  0  0  0  0  0
   59.9550   34.5700   47.2010 O   0  0  0  0  0  0  0  0  0  0  0  0
   61.2260   34.0800   47.5410 C   0  0  0  0  0  0  0  0  0  0  0  0
   62.1680   33.6720   46.5770 C   0  0  0  0  0  0  0  0  0  0  0  0
   63.4210   33.2000   46.9750 C   0  0  0  0  0  0  0  0  0  0  0  0
   63.7450   33.1270   48.3310 C   0  0  0  0  0  0  0  0  0  0  0  0
   62.8130   33.5210   49.2920 C   0  0  0  0  0  0  0  0  0  0  0  0
   61.5580   33.9900   48.8990 C   0  0  0  0  0  0  0  0  0  0  0  0
   58.5868   32.4763   50.1071 H   0  0  0  0  0  0  0  0  0  0  0  0
   59.4039   32.8619   48.5545 H   0  0  0  0  0  0  0  0  0  0  0  0
   57.7060   32.2755   48.5545 H   0  0  0  0  0  0  0  0  0  0  0  0
   59.2630   30.3379   49.9698 H   0  0  0  0  0  0  0  0  0  0  0  0
   58.4601   30.1913   48.3404 H   0  0  0  0  0  0  0  0  0  0  0  0
   61.2002   31.4416   48.6422 H   0  0  0  0  0  0  0  0  0  0  0  0
   60.9590   29.6413   48.5074 H   0  0  0  0  0  0  0  0  0  0  0  0
   60.2758   31.7917   46.4627 H   0  0  0  0  0  0  0  0  0  0  0  0
   61.4138   30.3995   46.3051 H   0  0  0  0  0  0  0  0  0  0  0  0
   60.2490   28.0518   46.9490 H   0  0  0  0  0  0  0  0  0  0  0  0
   58.5239   26.5629   45.9450 H   0  0  0  0  0  0  0  0  0  0  0  0
   56.6649   27.5265   44.6063 H   0  0  0  0  0  0  0  0  0  0  0  0
   55.3508   29.3940   44.0272 H   0  0  0  0  0  0  0  0  0  0  0  0
   55.8766   31.0946   44.4311 H   0  0  0  0  0  0  0  0  0  0  0  0
   57.2307   29.4974   42.2450 H   0  0  0  0  0  0  0  0  0  0  0  0
   55.7001   30.4512   41.9625 H   0  0  0  0  0  0  0  0  0  0  0  0
   57.6879   32.0472   43.3570 H   0  0  0  0  0  0  0  0  0  0  0  0
   58.3428   31.4025   41.8136 H   0  0  0  0  0  0  0  0  0  0  0  0
   56.8247   32.3627   41.8136 H   0  0  0  0  0  0  0  0  0  0  0  0
   56.3556   32.3716   45.9060 H   0  0  0  0  0  0  0  0  0  0  0  0
   57.7072   32.7379   47.0439 H   0  0  0  0  0  0  0  0  0  0  0  0
   56.8474   34.2058   44.5350 H   0  0  0  0  0  0  0  0  0  0  0  0
   57.1984   34.8320   46.2132 H   0  0  0  0  0  0  0  0  0  0  0  0
   59.5060   33.5957   44.8310 H   0  0  0  0  0  0  0  0  0  0  0  0
   58.8557   35.1229   44.0813 H   0  0  0  0  0  0  0  0  0  0  0  0
   60.5882   35.7553   45.6251 H   0  0  0  0  0  0  0  0  0  0  0  0
   58.9997   36.1962   46.3532 H   0  0  0  0  0  0  0  0  0  0  0  0
   61.9164   33.7251   45.5075 H   0  0  0  0  0  0  0  0  0  0  0  0
   64.1543   32.8850   46.2180 H   0  0  0  0  0  0  0  0  0  0  0  0
   64.7341   32.7592   48.6416 H   0  0  0  0  0  0  0  0  0  0  0  0
   63.0674   33.4620   50.3605 H   0  0  0  0  0  0  0  0  0  0  0  0
   60.8245   34.2911   49.6614 H   0  0  0  0  0  0  0  0  0  0  0  0
  1  2  1  0
  2  3  1  0
  3  4  1  0
  4  5  1  0
  5  6  2  0
  6  7  1  0
  7  8  2  0
  8  9  1  0
  9 10  1  0
 10 11  1  0
 11 12  1  0
  9 13  2  0
 13 14  1  0
 14 15  1  0
 15 16  1  0
 16 17  1  0
 17 18  1  0
 18 19  1  0
 19 20  1  0
 20 21  2  0
 21 22  1  0
 22 23  2  0
 23 24  1  0
 24 25  2  0
 13  5  1  0
 25 20  1  0
  1 26  1  0
  1 27  1  0
  1 28  1  0
  2 29  1  0
  2 30  1  0
  3 31  1  0
  3 32  1  0
  4 33  1  0
  4 34  1  0
  6 35  1  0
  7 36  1  0
  8 37  1  0
 10 38  1  0
 10 39  1  0
 11 40  1  0
 11 41  1  0
 12 42  1  0
 12 43  1  0
 12 44  1  0
 15 45  1  0
 15 46  1  0
 16 47  1  0
 16 48  1  0
 17 49  1  0
 17 50  1  0
 18 51  1  0
 18 52  1  0
 21 53  1  0
 22 54  1  0
 23 55  1  0
 24 56  1  0
 25 57  1  0
M  END
>  <UniqueID>  (56) 
52

>  <SMILES>  (56) 
CCCCc1cccc(CCC)c1OCCCCOc1ccccc1

>  <Energy>  (56) 
49.444825761451504

>  <Genealogy>  (56) 
CCCCc1cccc(CCC)c1OCCCCOc1ccccc1 (3D coordinates assigned)
CCCCc1cccc(CCC)c1OCCCCOc1ccccc1 (optimized conformer: 49.444825761451504 kcal/mol)

>  <smiles>  (56) 
CCCCc1cccc(CCC)c1OCCCCOc1ccccc1

>  <score_type>  (56) 
oracle

>  <origin>  (56) 
adg

>  <m_score__min__energy>  (56) 
-7.2699999999999996

>  <m_primary>  (56) 
energy

$$$$
56:0
     RDKit          3D

 17 18  0  0  0  0  0  0  0  0999 V2000
   53.5300   26.3340   46.1320 H   0  0  0  0  0  0  0  0  0  0  0  0
   54.4150   25.9720   45.7100 N   0  0  0  0  0  0  0  0  0  0  0  0
   55.5640   26.4880   46.0020 C   0  0  0  0  0  0  0  0  0  0  0  0
   56.4390   25.8070   46.7910 N   0  0  0  0  0  0  0  0  0  0  0  0
   57.6520   26.3270   47.1130 C   0  0  0  0  0  0  0  0  0  0  0  0
   58.4330   25.6620   47.8470 O   0  0  0  0  0  0  0  0  0  0  0  0
   58.0200   27.5920   46.6260 C   0  0  0  0  0  0  0  0  0  0  0  0
   59.2590   28.1860   46.9210 C   0  0  0  0  0  0  0  0  0  0  0  0
   59.9841   27.6569   47.5568 H   0  0  0  0  0  0  0  0  0  0  0  0
   59.5720   29.4500   46.4070 C   0  0  0  0  0  0  0  0  0  0  0  0
   61.1190   30.1890   46.7760 Cl  0  0  0  0  0  0  0  0  0  0  0  0
   58.6500   30.1260   45.5980 C   0  0  0  0  0  0  0  0  0  0  0  0
   58.8983   31.1196   45.1965 H   0  0  0  0  0  0  0  0  0  0  0  0
   57.4160   29.5430   45.2990 C   0  0  0  0  0  0  0  0  0  0  0  0
   56.6956   30.0773   44.6622 H   0  0  0  0  0  0  0  0  0  0  0  0
   57.0960   28.2800   45.8090 C   0  0  0  0  0  0  0  0  0  0  0  0
   55.8960   27.7120   45.5190 N   0  0  0  0  0  0  0  0  0  0  0  0
  1  2  1  0
  2  3  2  0
  3  4  1  0
  4  5  1  0
  5  6  2  0
  5  7  1  0
  7  8  2  0
  8  9  1  0
  8 10  1  0
 10 11  1  0
 10 12  2  0
 12 13  1  0
 12 14  1  0
 14 15  1  0
 14 16  2  0
 16 17  1  0
 17  3  1  0
 16  7  1  0
M  CHG  2   4  -1  17  -1
M  END
>  <UniqueID>  (57) 
53

>  <SMILES>  (57) 
[H]/N=c1\[n-]c(=O)c2cc(Cl)ccc2[n-]1

>  <Energy>  (57) 
22.161752712368177

>  <Genealogy>  (57) 
N=c1[n-]c(=O)c2cc(Cl)ccc2[n-]1 (protonated)
[H]/N=c1\[n-]c(=O)c2cc(Cl)ccc2[n-]1 (cis-trans isomerization)
[H]/N=c1\[n-]c(=O)c2cc(Cl)ccc2[n-]1 (3D coordinates assigned)
[H]/N=c1\[n-]c(=O)c2cc(Cl)ccc2[n-]1 (optimized conformer: 22.161752712368177 kcal/mol)

>  <smiles>  (57) 
N=c1[nH]c(=O)c2cc(Cl)ccc2[nH]1

>  <score_type>  (57) 
oracle

>  <origin>  (57) 
adg

>  <m_score__min__energy>  (57) 
-10.550000000000001

>  <m_primary>  (57) 
energy

$$$$
57:0
     RDKit          3D

 56 59  0  0  0  0  0  0  0  0999 V2000
   63.4110   34.5620   48.9680 O   0  0  0  0  0  0  0  0  0  0  0  0
   63.3940   33.0600   48.9180 S   0  0  0  0  0  0  0  0  0  0  0  0
   64.6050   32.5450   49.6460 O   0  0  0  0  0  0  0  0  0  0  0  0
   63.4430   32.5430   47.2590 N   0  0  0  0  0  0  0  0  0  0  0  0
   62.9470   33.6160   46.3920 C   0  0  0  0  0  0  0  0  0  0  0  0
   61.5520   34.0660   46.8430 C   0  0  0  0  0  0  0  0  0  0  0  0
   60.4940   33.4210   46.0310 N   0  0  0  0  0  0  0  0  0  0  0  0
   59.8020   32.3720   46.7910 C   0  0  0  0  0  0  0  0  0  0  0  0
   58.6220   33.0160   47.4960 C   0  0  0  0  0  0  0  0  0  0  0  0
   58.3030   34.2510   46.6760 C   0  0  0  0  0  0  0  0  0  0  0  0
   59.4340   34.3750   45.6620 C   0  0  0  0  0  0  0  0  0  0  0  0
   61.9250   32.4760   49.6960 C   0  0  0  0  0  0  0  0  0  0  0  0
   61.6100   31.1110   49.6890 C   0  0  0  0  0  0  0  0  0  0  0  0
   60.4270   30.6580   50.2790 C   0  0  0  0  0  0  0  0  0  0  0  0
   59.5370   31.5650   50.8840 C   0  0  0  0  0  0  0  0  0  0  0  0
   58.2760   31.0850   51.5060 C   0  0  0  0  0  0  0  0  0  0  0  0
   58.1950   29.7890   52.0470 C   0  0  0  0  0  0  0  0  0  0  0  0
   57.0080   29.3370   52.6310 C   0  0  0  0  0  0  0  0  0  0  0  0
   55.8820   30.1710   52.6830 C   0  0  0  0  0  0  0  0  0  0  0  0
   54.6060   29.6980   53.3290 C   0  0  0  0  0  0  0  0  0  0  0  0
   53.5170   29.6640   52.3530 N   0  0  0  0  0  0  0  0  0  0  0  0
   52.7060   30.6500   52.1090 C   0  0  0  0  0  0  0  0  0  0  0  0
   52.6270   31.2040   50.8670 N   0  0  0  0  0  0  0  0  0  0  0  0
   51.7750   32.2310   50.6300 C   0  0  0  0  0  0  0  0  0  0  0  0
   50.9970   32.7110   51.6320 N   0  0  0  0  0  0  0  0  0  0  0  0
   51.0740   32.1650   52.8710 C   0  0  0  0  0  0  0  0  0  0  0  0
   51.9270   31.1360   53.1080 N   0  0  0  0  0  0  0  0  0  0  0  0
   55.9590   31.4660   52.1480 C   0  0  0  0  0  0  0  0  0  0  0  0
   57.1450   31.9180   51.5640 C   0  0  0  0  0  0  0  0  0  0  0  0
   59.8590   32.9340   50.8830 C   0  0  0  0  0  0  0  0  0  0  0  0
   61.0430   33.3850   50.2910 C   0  0  0  0  0  0  0  0  0  0  0  0
   64.4490   32.3750   47.0320 H   0  0  0  0  0  0  0  0  0  0  0  0
   63.6374   34.4709   46.4422 H   0  0  0  0  0  0  0  0  0  0  0  0
   62.8845   33.2406   45.3599 H   0  0  0  0  0  0  0  0  0  0  0  0
   61.4106   33.7930   47.8992 H   0  0  0  0  0  0  0  0  0  0  0  0
   61.4773   35.1556   46.7114 H   0  0  0  0  0  0  0  0  0  0  0  0
   59.4471   31.5864   46.1077 H   0  0  0  0  0  0  0  0  0  0  0  0
   60.4835   31.9121   47.5217 H   0  0  0  0  0  0  0  0  0  0  0  0
   57.7615   32.3310   47.5144 H   0  0  0  0  0  0  0  0  0  0  0  0
   58.8501   33.2624   48.5435 H   0  0  0  0  0  0  0  0  0  0  0  0
   57.3380   34.1314   46.1617 H   0  0  0  0  0  0  0  0  0  0  0  0
   58.2228   35.1483   47.3071 H   0  0  0  0  0  0  0  0  0  0  0  0
   59.0578   34.1415   44.6550 H   0  0  0  0  0  0  0  0  0  0  0  0
   59.8313   35.4008   45.6615 H   0  0  0  0  0  0  0  0  0  0  0  0
   62.2967   30.3928   49.2171 H   0  0  0  0  0  0  0  0  0  0  0  0
   60.1895   29.5840   50.2705 H   0  0  0  0  0  0  0  0  0  0  0  0
   59.0722   29.1263   52.0102 H   0  0  0  0  0  0  0  0  0  0  0  0
   56.9571   28.3220   53.0519 H   0  0  0  0  0  0  0  0  0  0  0  0
   54.7594   28.6872   53.7350 H   0  0  0  0  0  0  0  0  0  0  0  0
   54.3373   30.3954   54.1361 H   0  0  0  0  0  0  0  0  0  0  0  0
   51.7145   32.6751   49.6254 H   0  0  0  0  0  0  0  0  0  0  0  0
   50.4450   32.5561   53.6842 H   0  0  0  0  0  0  0  0  0  0  0  0
   55.0816   32.1282   52.1886 H   0  0  0  0  0  0  0  0  0  0  0  0
   57.1943   32.9343   51.1460 H   0  0  0  0  0  0  0  0  0  0  0  0
   59.1740   33.6559   51.3517 H   0  0  0  0  0  0  0  0  0  0  0  0
   61.2820   34.4587   50.2931 H   0  0  0  0  0  0  0  0  0  0  0  0
  1  2  2  0
  2  3  2  0
  2  4  1  0
  4  5  1  0
  5  6  1  0
  6  7  1  0
  7  8  1  0
  8  9  1  0
  9 10  1  0
 10 11  1  0
  2 12  1  0
 12 13  2  0
 13 14  1  0
 14 15  2  0
 15 16  1  0
 16 17  2  0
 17 18  1  0
 18 19  2  0
 19 20  1  0
 20 21  1  0
 21 22  2  3
 22 23  1  0
 23 24  2  0
 24 25  1  0
 25 26  1  0
 26 27  2  0
 19 28  1  0
 28 29  2  0
 15 30  1  0
 30 31  2  0
 11  7  1  0
 31 12  1  0
 29 16  1  0
 27 22  1  0
  4 32  1  0
  5 33  1  0
  5 34  1  0
  6 35  1  0
  6 36  1  0
  8 37  1  0
  8 38  1  0
  9 39  1  0
  9 40  1  0
 10 41  1  0
 10 42  1  0
 11 43  1  0
 11 44  1  0
 13 45  1  0
 14 46  1  0
 17 47  1  0
 18 48  1  0
 20 49  1  0
 20 50  1  0
 24 51  1  0
 26 52  1  0
 28 53  1  0
 29 54  1  0
 30 55  1  0
 31 56  1  0
M  CHG  1  25  -1
M  END
>  <UniqueID>  (58) 
54

>  <SMILES>  (58) 
O=S(=O)(NCCN1CCCC1)c1ccc(-c2ccc(CN=c3nc[n-]cn3)cc2)cc1

>  <Energy>  (58) 
63.76012339937208

>  <Genealogy>  (58) 
O=S(=O)(NCCN1CCCC1)c1ccc(-c2ccc(CN=c3nc[n-]cn3)cc2)cc1 (protonated)
O=S(=O)(NCCN1CCCC1)c1ccc(-c2ccc(CN=c3nc[n-]cn3)cc2)cc1 (3D coordinates assigned)
O=S(=O)(NCCN1CCCC1)c1ccc(-c2ccc(CN=c3nc[n-]cn3)cc2)cc1 (nonaromatic ring conformer: 63.76012339937208 kcal/mol)

>  <smiles>  (58) 
O=S(=O)(NCCN1CCCC1)c1ccc(-c2ccc(CN=c3nc[nH]cn3)cc2)cc1

>  <score_type>  (58) 
oracle

>  <origin>  (58) 
adg

>  <m_score__min__energy>  (58) 
-10.42

>  <m_primary>  (58) 
energy

$$$$
58:0
     RDKit          3D

 45 48  0  0  0  0  0  0  0  0999 V2000
   59.9590   30.2910   47.9900 C   0  0  0  0  0  0  0  0  0  0  0  0
   58.5400   30.7240   47.6270 C   0  0  0  0  0  0  0  0  0  0  0  0
   58.5440   31.6500   46.4270 C   0  0  0  0  0  0  0  0  0  0  0  0
   58.8150   33.0520   46.5540 C   0  0  0  0  0  0  0  0  0  0  0  0
   59.2670   33.6950   47.8440 C   0  0  0  0  0  0  0  0  0  0  0  0
   60.7610   33.6150   48.0240 C   0  0  0  0  0  0  0  0  0  0  0  0
   61.3350   33.7870   49.2960 C   0  0  0  0  0  0  0  0  0  0  0  0
   62.7210   33.7060   49.4620 C   0  0  0  0  0  0  0  0  0  0  0  0
   63.5430   33.4390   48.3640 C   0  0  0  0  0  0  0  0  0  0  0  0
   64.8870   33.3620   48.5270 F   0  0  0  0  0  0  0  0  0  0  0  0
   62.9810   33.2470   47.1000 C   0  0  0  0  0  0  0  0  0  0  0  0
   61.5950   33.3270   46.9290 C   0  0  0  0  0  0  0  0  0  0  0  0
   58.6600   33.8760   45.4690 N   0  0  0  0  0  0  0  0  0  0  0  0
   58.2610   33.4290   44.2750 N   0  0  0  0  0  0  0  0  0  0  0  0
   58.0110   32.1130   44.1250 C   0  0  0  0  0  0  0  0  0  0  0  0
   57.6050   31.4140   43.0170 C   0  0  0  0  0  0  0  0  0  0  0  0
   57.3900   31.9500   41.6410 C   0  0  0  0  0  0  0  0  0  0  0  0
   57.5460   30.1060   43.3500 N   0  0  0  0  0  0  0  0  0  0  0  0
   57.8710   29.9860   44.6350 N   0  0  0  0  0  0  0  0  0  0  0  0
   58.0190   28.7020   45.2500 C   0  0  0  0  0  0  0  0  0  0  0  0
   56.8790   27.9730   45.6160 C   0  0  0  0  0  0  0  0  0  0  0  0
   57.0070   26.7000   46.1770 C   0  0  0  0  0  0  0  0  0  0  0  0
   58.2720   26.1370   46.3520 C   0  0  0  0  0  0  0  0  0  0  0  0
   59.4130   26.8400   45.9560 C   0  0  0  0  0  0  0  0  0  0  0  0
   59.2930   28.1160   45.3940 C   0  0  0  0  0  0  0  0  0  0  0  0
   60.7430   28.9690   44.8820 Cl  0  0  0  0  0  0  0  0  0  0  0  0
   58.1600   31.2160   45.1370 C   0  0  0  0  0  0  0  0  0  0  0  0
   60.0639   30.2590   49.0845 H   0  0  0  0  0  0  0  0  0  0  0  0
   60.1554   29.2920   47.5735 H   0  0  0  0  0  0  0  0  0  0  0  0
   60.6797   31.0101   47.5735 H   0  0  0  0  0  0  0  0  0  0  0  0
   57.9412   29.8320   47.3909 H   0  0  0  0  0  0  0  0  0  0  0  0
   58.1084   31.2627   48.4835 H   0  0  0  0  0  0  0  0  0  0  0  0
   58.9667   34.7532   47.8371 H   0  0  0  0  0  0  0  0  0  0  0  0
   58.7959   33.1519   48.6765 H   0  0  0  0  0  0  0  0  0  0  0  0
   60.6905   33.9863   50.1648 H   0  0  0  0  0  0  0  0  0  0  0  0
   63.1647   33.8526   50.4578 H   0  0  0  0  0  0  0  0  0  0  0  0
   63.6293   33.0325   46.2376 H   0  0  0  0  0  0  0  0  0  0  0  0
   61.1556   33.1639   45.9338 H   0  0  0  0  0  0  0  0  0  0  0  0
   56.9812   32.9692   41.7043 H   0  0  0  0  0  0  0  0  0  0  0  0
   58.3488   31.9723   41.1022 H   0  0  0  0  0  0  0  0  0  0  0  0
   56.6816   31.3036   41.1022 H   0  0  0  0  0  0  0  0  0  0  0  0
   55.8794   28.4051   45.4608 H   0  0  0  0  0  0  0  0  0  0  0  0
   56.1099   26.1408   46.4811 H   0  0  0  0  0  0  0  0  0  0  0  0
   58.3711   25.1383   46.8024 H   0  0  0  0  0  0  0  0  0  0  0  0
   60.4079   26.3893   46.0864 H   0  0  0  0  0  0  0  0  0  0  0  0
  1  2  1  0
  2  3  1  0
  3  4  2  0
  4  5  1  0
  5  6  1  0
  6  7  2  0
  7  8  1  0
  8  9  2  0
  9 10  1  0
  9 11  1  0
 11 12  2  0
  4 13  1  0
 13 14  2  0
 14 15  1  0
 15 16  1  0
 16 17  1  0
 16 18  2  0
 18 19  1  0
 19 20  1  0
 20 21  2  0
 21 22  1  0
 22 23  2  0
 23 24  1  0
 24 25  2  0
 25 26  1  0
 19 27  1  0
 27  3  1  0
 12  6  1  0
 27 15  2  0
 25 20  1  0
  1 28  1  0
  1 29  1  0
  1 30  1  0
  2 31  1  0
  2 32  1  0
  5 33  1  0
  5 34  1  0
  7 35  1  0
  8 36  1  0
 11 37  1  0
 12 38  1  0
 17 39  1  0
 17 40  1  0
 17 41  1  0
 21 42  1  0
 22 43  1  0
 23 44  1  0
 24 45  1  0
M  END
>  <UniqueID>  (59) 
55

>  <SMILES>  (59) 
CCc1c(Cc2ccc(F)cc2)nnc2c(C)nn(-c3ccccc3Cl)c12

>  <Energy>  (59) 
99.2585960715211

>  <Genealogy>  (59) 
CCc1c(Cc2ccc(F)cc2)nnc2c(C)nn(-c3ccccc3Cl)c12 (3D coordinates assigned)
CCc1c(Cc2ccc(F)cc2)nnc2c(C)nn(-c3ccccc3Cl)c12 (optimized conformer: 99.2585960715211 kcal/mol)

>  <smiles>  (59) 
CCc1c(Cc2ccc(F)cc2)nnc2c(C)nn(-c3ccccc3Cl)c12

>  <score_type>  (59) 
oracle

>  <origin>  (59) 
adg

>  <m_score__min__energy>  (59) 
-8.8300000000000001

>  <m_primary>  (59) 
energy

$$$$
59:0
     RDKit          3D

 41 43  0  0  0  0  0  0  0  0999 V2000
   64.1360   32.9810   48.4810 C   0  0  0  0  0  0  0  0  0  0  0  0
   62.9490   33.8650   48.0870 C   0  0  2  0  0  0  0  0  0  0  0  0
   62.0000   34.1320   49.2560 C   0  0  0  0  0  0  0  0  0  0  0  0
   60.6180   34.2570   48.6280 C   0  0  0  0  0  0  0  0  0  0  0  0
   60.7120   33.6140   47.3240 N   0  0  0  0  0  0  0  0  0  0  0  0
   59.5780   33.3760   46.4570 C   0  0  0  0  0  0  0  0  0  0  0  0
   58.9090   34.4490   45.8380 C   0  0  0  0  0  0  0  0  0  0  0  0
   57.8200   34.2180   44.9980 C   0  0  0  0  0  0  0  0  0  0  0  0
   57.3750   32.9170   44.7630 C   0  0  0  0  0  0  0  0  0  0  0  0
   58.0130   31.8270   45.3770 C   0  0  0  0  0  0  0  0  0  0  0  0
   57.5590   30.4340   45.1390 C   0  0  0  0  0  0  0  0  0  0  0  0
   56.3450   30.2270   44.8680 O   0  0  0  0  0  0  0  0  0  0  0  0
   58.4770   29.3260   45.2220 N   0  0  0  0  0  0  0  0  0  0  0  0
   58.1240   27.9700   44.9040 C   0  0  0  0  0  0  0  0  0  0  0  0
   57.7000   27.0680   45.8990 C   0  0  0  0  0  0  0  0  0  0  0  0
   57.3380   25.7610   45.5570 C   0  0  0  0  0  0  0  0  0  0  0  0
   57.3790   25.3480   44.2230 C   0  0  0  0  0  0  0  0  0  0  0  0
   57.7750   26.2440   43.2270 C   0  0  0  0  0  0  0  0  0  0  0  0
   58.1380   27.5510   43.5640 C   0  0  0  0  0  0  0  0  0  0  0  0
   59.1200   32.0660   46.2120 C   0  0  0  0  0  0  0  0  0  0  0  0
   62.0810   33.2360   46.9980 C   0  0  0  0  0  0  0  0  0  0  0  0
   64.2062   32.9287   49.5775 H   0  0  0  0  0  0  0  0  0  0  0  0
   63.9907   31.9694   48.0742 H   0  0  0  0  0  0  0  0  0  0  0  0
   65.0636   33.4100   48.0742 H   0  0  0  0  0  0  0  0  0  0  0  0
   63.4209   34.7940   47.7344 H   0  0  0  0  0  0  0  0  0  0  0  0
   62.0245   33.2967   49.9713 H   0  0  0  0  0  0  0  0  0  0  0  0
   62.2808   35.0367   49.8151 H   0  0  0  0  0  0  0  0  0  0  0  0
   59.8671   33.7496   49.2515 H   0  0  0  0  0  0  0  0  0  0  0  0
   60.3090   35.3089   48.5381 H   0  0  0  0  0  0  0  0  0  0  0  0
   59.2485   35.4796   46.0187 H   0  0  0  0  0  0  0  0  0  0  0  0
   57.3094   35.0660   44.5183 H   0  0  0  0  0  0  0  0  0  0  0  0
   56.5198   32.7439   44.0932 H   0  0  0  0  0  0  0  0  0  0  0  0
   59.4430   29.4910   45.5770 H   0  0  0  0  0  0  0  0  0  0  0  0
   57.6534   27.3926   46.9490 H   0  0  0  0  0  0  0  0  0  0  0  0
   57.0203   25.0568   46.3400 H   0  0  0  0  0  0  0  0  0  0  0  0
   57.0996   24.3178   43.9570 H   0  0  0  0  0  0  0  0  0  0  0  0
   57.8012   25.9204   42.1760 H   0  0  0  0  0  0  0  0  0  0  0  0
   58.4366   28.2560   42.7742 H   0  0  0  0  0  0  0  0  0  0  0  0
   59.6367   31.2159   46.6815 H   0  0  0  0  0  0  0  0  0  0  0  0
   62.1894   32.1414   47.0045 H   0  0  0  0  0  0  0  0  0  0  0  0
   62.3716   33.5810   45.9947 H   0  0  0  0  0  0  0  0  0  0  0  0
  1  2  1  0
  2  3  1  0
  3  4  1  0
  4  5  1  0
  5  6  1  0
  6  7  2  0
  7  8  1  0
  8  9  2  0
  9 10  1  0
 10 11  1  0
 11 12  2  0
 11 13  1  0
 13 14  1  0
 14 15  2  0
 15 16  1  0
 16 17  2  0
 17 18  1  0
 18 19  2  0
 10 20  2  0
  5 21  1  0
 21  2  1  0
 20  6  1  0
 19 14  1  0
  1 22  1  0
  1 23  1  0
  1 24  1  0
  2 25  1  6
  3 26  1  0
  3 27  1  0
  4 28  1  0
  4 29  1  0
  7 30  1  0
  8 31  1  0
  9 32  1  0
 13 33  1  0
 15 34  1  0
 16 35  1  0
 17 36  1  0
 18 37  1  0
 19 38  1  0
 20 39  1  0
 21 40  1  0
 21 41  1  0
M  END
>  <UniqueID>  (60) 
56

>  <SMILES>  (60) 
C[C@@H]1CCN(c2cccc(C(=O)Nc3ccccc3)c2)C1

>  <Energy>  (60) 
49.4685877351235

>  <Genealogy>  (60) 
C[C@@H]1CCN(c2cccc(C(=O)Nc3ccccc3)c2)C1 (chirality)
C[C@@H]1CCN(c2cccc(C(=O)Nc3ccccc3)c2)C1 (3D coordinates assigned)
C[C@@H]1CCN(c2cccc(C(=O)Nc3ccccc3)c2)C1 (nonaromatic ring conformer: 49.4685877351235 kcal/mol)

>  <smiles>  (60) 
CC1CCN(c2cccc(C(=O)Nc3ccccc3)c2)C1

>  <score_type>  (60) 
oracle

>  <origin>  (60) 
adg

>  <m_score__min__energy>  (60) 
-8.0199999999999996

>  <m_primary>  (60) 
energy

$$$$
60:0
     RDKit          3D

 19 20  0  0  0  0  0  0  0  0999 V2000
   55.2590   29.3290   44.6200 N   0  0  0  0  0  0  0  0  0  0  0  0
   56.6450   29.3650   44.9830 C   0  0  0  0  0  0  0  0  0  0  0  0
   57.3500   28.1630   45.1430 C   0  0  0  0  0  0  0  0  0  0  0  0
   58.7030   28.1740   45.4950 C   0  0  0  0  0  0  0  0  0  0  0  0
   59.3690   29.3860   45.6930 C   0  0  0  0  0  0  0  0  0  0  0  0
   58.6820   30.5960   45.5370 C   0  0  0  0  0  0  0  0  0  0  0  0
   59.3300   31.8250   45.7300 C   0  0  0  0  0  0  0  0  0  0  0  0
   58.6200   33.0170   45.5690 C   0  0  0  0  0  0  0  0  0  0  0  0
   57.2700   32.9700   45.2170 C   0  0  0  0  0  0  0  0  0  0  0  0
   56.6530   31.7730   45.0330 N   0  0  0  0  0  0  0  0  0  0  0  0
   57.3120   30.5900   45.1800 C   0  0  0  0  0  0  0  0  0  0  0  0
   54.7090   30.2050   44.4760 H   0  0  0  0  0  0  0  0  0  0  0  0
   54.7670   28.4170   44.4920 H   0  0  0  0  0  0  0  0  0  0  0  0
   56.8340   27.2036   44.9902 H   0  0  0  0  0  0  0  0  0  0  0  0
   59.2452   27.2247   45.6165 H   0  0  0  0  0  0  0  0  0  0  0  0
   60.4332   29.3897   45.9715 H   0  0  0  0  0  0  0  0  0  0  0  0
   60.3942   31.8499   46.0073 H   0  0  0  0  0  0  0  0  0  0  0  0
   59.1206   33.9850   45.7184 H   0  0  0  0  0  0  0  0  0  0  0  0
   56.7040   33.9043   45.0882 H   0  0  0  0  0  0  0  0  0  0  0  0
  1  2  1  0
  2  3  2  0
  3  4  1  0
  4  5  2  0
  5  6  1  0
  6  7  2  0
  7  8  1  0
  8  9  2  0
  9 10  1  0
 10 11  2  0
 11  2  1  0
 11  6  1  0
  1 12  1  0
  1 13  1  0
  3 14  1  0
  4 15  1  0
  5 16  1  0
  7 17  1  0
  8 18  1  0
  9 19  1  0
M  END
>  <UniqueID>  (61) 
57

>  <SMILES>  (61) 
Nc1cccc2cccnc12

>  <Energy>  (61) 
22.88870421478663

>  <Genealogy>  (61) 
Nc1cccc2cccnc12 (3D coordinates assigned)
Nc1cccc2cccnc12 (optimized conformer: 22.88870421478663 kcal/mol)

>  <smiles>  (61) 
Nc1cccc2cccnc12

>  <score_type>  (61) 
oracle

>  <origin>  (61) 
adg

>  <m_score__min__energy>  (61) 
-5.54

>  <m_primary>  (61) 
energy

$$$$
61:0
     RDKit          3D

 51 53  0  0  0  0  0  0  0  0999 V2000
   60.8210   27.9480   50.0230 C   0  0  0  0  0  0  0  0  0  0  0  0
   60.9660   28.0200   48.6090 O   0  0  0  0  0  0  0  0  0  0  0  0
   60.0220   28.5840   47.7360 C   0  0  0  0  0  0  0  0  0  0  0  0
   58.7990   27.9430   47.4620 C   0  0  0  0  0  0  0  0  0  0  0  0
   57.8830   28.5100   46.5750 C   0  0  0  0  0  0  0  0  0  0  0  0
   58.1810   29.7110   45.9280 C   0  0  0  0  0  0  0  0  0  0  0  0
   57.0270   30.4110   44.7990 S   0  0  0  0  0  0  0  0  0  0  0  0
   57.6100   30.3600   43.4160 O   0  0  0  0  0  0  0  0  0  0  0  0
   55.7350   29.6430   44.8150 O   0  0  0  0  0  0  0  0  0  0  0  0
   56.7070   32.0630   45.2180 N   0  0  0  0  0  0  0  0  0  0  0  0
   57.7040   33.0460   45.5250 C   0  0  0  0  0  0  0  0  0  0  0  0
   58.3670   33.7800   44.5220 C   0  0  0  0  0  0  0  0  0  0  0  0
   59.3230   34.7400   44.8690 C   0  0  0  0  0  0  0  0  0  0  0  0
   59.6280   34.9730   46.2130 C   0  0  0  0  0  0  0  0  0  0  0  0
   58.9800   34.2420   47.2130 C   0  0  0  0  0  0  0  0  0  0  0  0
   59.2780   34.4670   48.5170 F   0  0  0  0  0  0  0  0  0  0  0  0
   58.0220   33.2830   46.8690 C   0  0  0  0  0  0  0  0  0  0  0  0
   59.3940   30.3570   46.1900 C   0  0  0  0  0  0  0  0  0  0  0  0
   60.3090   29.8260   47.1200 C   0  0  0  0  0  0  0  0  0  0  0  0
   61.5320   30.5440   47.4180 N   0  0  0  0  0  0  0  0  0  0  0  0
   61.3620   31.9860   47.7470 C   0  0  0  0  0  0  0  0  0  0  0  0
   62.3500   32.9210   47.0080 C   0  0  0  0  0  0  0  0  0  0  0  0
   63.7130   33.1080   47.7140 C   0  0  0  0  0  0  0  0  0  0  0  0
   63.7760   32.4090   49.0120 N   0  0  0  0  0  0  0  0  0  0  0  0
   65.0470   32.7020   49.6900 C   0  0  0  0  0  0  0  0  0  0  0  0
   62.6350   32.7900   49.8610 C   0  0  0  0  0  0  0  0  0  0  0  0
   61.3080   32.2790   49.2710 C   0  0  0  0  0  0  0  0  0  0  0  0
   61.7065   28.3877   50.5053 H   0  0  0  0  0  0  0  0  0  0  0  0
   59.9228   28.5048   50.3283 H   0  0  0  0  0  0  0  0  0  0  0  0
   60.7217   26.8959   50.3283 H   0  0  0  0  0  0  0  0  0  0  0  0
   58.5633   26.9865   47.9515 H   0  0  0  0  0  0  0  0  0  0  0  0
   56.9224   28.0089   46.3847 H   0  0  0  0  0  0  0  0  0  0  0  0
   58.1322   33.5976   43.4630 H   0  0  0  0  0  0  0  0  0  0  0  0
   59.8360   35.3129   44.0825 H   0  0  0  0  0  0  0  0  0  0  0  0
   60.3776   35.7312   46.4837 H   0  0  0  0  0  0  0  0  0  0  0  0
   57.5144   32.7105   47.6593 H   0  0  0  0  0  0  0  0  0  0  0  0
   59.6363   31.2916   45.6629 H   0  0  0  0  0  0  0  0  0  0  0  0
   62.0340   30.0770   48.2090 H   0  0  0  0  0  0  0  0  0  0  0  0
   62.1800   30.4620   46.5990 H   0  0  0  0  0  0  0  0  0  0  0  0
   60.3643   32.2305   47.3535 H   0  0  0  0  0  0  0  0  0  0  0  0
   62.5365   32.5013   46.0085 H   0  0  0  0  0  0  0  0  0  0  0  0
   61.8762   33.9133   46.9790 H   0  0  0  0  0  0  0  0  0  0  0  0
   64.5057   32.7131   47.0615 H   0  0  0  0  0  0  0  0  0  0  0  0
   63.8462   34.1830   47.9057 H   0  0  0  0  0  0  0  0  0  0  0  0
   64.8979   32.6676   50.7793 H   0  0  0  0  0  0  0  0  0  0  0  0
   65.7988   31.9536   49.3990 H   0  0  0  0  0  0  0  0  0  0  0  0
   65.3953   33.7040   49.3990 H   0  0  0  0  0  0  0  0  0  0  0  0
   62.7727   32.3571   50.8628 H   0  0  0  0  0  0  0  0  0  0  0  0
   62.5924   33.8878   49.9158 H   0  0  0  0  0  0  0  0  0  0  0  0
   61.0337   31.3497   49.7918 H   0  0  0  0  0  0  0  0  0  0  0  0
   60.5683   33.0806   49.4135 H   0  0  0  0  0  0  0  0  0  0  0  0
  1  2  1  0
  2  3  1  0
  3  4  2  0
  4  5  1  0
  5  6  2  0
  6  7  1  0
  7  8  2  0
  7  9  2  0
  7 10  1  0
 10 11  1  0
 11 12  2  0
 12 13  1  0
 13 14  2  0
 14 15  1  0
 15 16  1  0
 15 17  2  0
  6 18  1  0
 18 19  2  0
 19 20  1  0
 20 21  1  0
 21 22  1  0
 22 23  1  0
 23 24  1  0
 24 25  1  0
 24 26  1  0
 26 27  1  0
 19  3  1  0
 27 21  1  0
 17 11  1  0
  1 28  1  0
  1 29  1  0
  1 30  1  0
  4 31  1  0
  5 32  1  0
 12 33  1  0
 13 34  1  0
 14 35  1  0
 17 36  1  0
 18 37  1  0
 20 38  1  0
 20 39  1  0
 21 40  1  0
 22 41  1  0
 22 42  1  0
 23 43  1  0
 23 44  1  0
 25 45  1  0
 25 46  1  0
 25 47  1  0
 26 48  1  0
 26 49  1  0
 27 50  1  0
 27 51  1  0
M  CHG  2  10  -1  20   1
M  END
>  <UniqueID>  (62) 
58

>  <SMILES>  (62) 
COc1ccc(S(=O)(=O)[N-]c2cccc(F)c2)cc1[NH2+]C1CCN(C)CC1

>  <Energy>  (62) 
65.79267163522762

>  <Genealogy>  (62) 
COc1ccc(S(=O)(=O)[N-]c2cccc(F)c2)cc1[NH2+]C1CCN(C)CC1 (protonated)
COc1ccc(S(=O)(=O)[N-]c2cccc(F)c2)cc1[NH2+]C1CCN(C)CC1 (3D coordinates assigned)
COc1ccc(S(=O)(=O)[N-]c2cccc(F)c2)cc1[NH2+]C1CCN(C)CC1 (nonaromatic ring conformer: 65.79267163522762 kcal/mol)

>  <smiles>  (62) 
COc1ccc(S(=O)(=O)Nc2cccc(F)c2)cc1NC1CCN(C)CC1

>  <score_type>  (62) 
oracle

>  <origin>  (62) 
adg

>  <m_score__min__energy>  (62) 
-8.0800000000000001

>  <m_primary>  (62) 
energy

$$$$
62:0
     RDKit          3D

 26 27  0  0  0  0  0  0  0  0999 V2000
   55.1760   29.7840   44.8490 N   0  0  0  0  0  0  0  0  0  0  0  0
   56.6610   29.7800   44.3820 S   0  0  2  0  0  0  0  0  0  0  0  0
   56.6850   29.7000   42.8800 O   0  0  0  0  0  0  0  0  0  0  0  0
   57.5020   28.3940   45.0680 C   0  0  0  0  0  0  0  0  0  0  0  0
   58.9040   28.3460   45.0670 C   0  0  0  0  0  0  0  0  0  0  0  0
   59.5690   27.2520   45.6310 C   0  0  0  0  0  0  0  0  0  0  0  0
   58.8390   26.2070   46.2040 C   0  0  0  0  0  0  0  0  0  0  0  0
   57.4420   26.2560   46.2150 C   0  0  0  0  0  0  0  0  0  0  0  0
   56.7740   27.3480   45.6520 C   0  0  0  0  0  0  0  0  0  0  0  0
   57.4610   31.2540   44.9140 C   0  0  0  0  0  0  0  0  0  0  0  0
   58.0920   31.3000   46.1660 C   0  0  0  0  0  0  0  0  0  0  0  0
   58.7460   32.4640   46.5810 C   0  0  0  0  0  0  0  0  0  0  0  0
   58.7780   33.5860   45.7470 C   0  0  0  0  0  0  0  0  0  0  0  0
   59.6730   35.1760   46.3140 Br  0  0  0  0  0  0  0  0  0  0  0  0
   58.1580   33.5420   44.4940 C   0  0  0  0  0  0  0  0  0  0  0  0
   57.5030   32.3780   44.0760 C   0  0  0  0  0  0  0  0  0  0  0  0
   54.7690   28.9570   45.3090 H   0  0  0  0  0  0  0  0  0  0  0  0
   59.4814   29.1698   44.6221 H   0  0  0  0  0  0  0  0  0  0  0  0
   60.6683   27.2142   45.6235 H   0  0  0  0  0  0  0  0  0  0  0  0
   59.3632   25.3468   46.6459 H   0  0  0  0  0  0  0  0  0  0  0  0
   56.8673   25.4343   46.6672 H   0  0  0  0  0  0  0  0  0  0  0  0
   55.6748   27.3863   45.6674 H   0  0  0  0  0  0  0  0  0  0  0  0
   58.0722   30.4180   46.8230 H   0  0  0  0  0  0  0  0  0  0  0  0
   59.2362   32.4972   47.5652 H   0  0  0  0  0  0  0  0  0  0  0  0
   58.1853   34.4233   43.8363 H   0  0  0  0  0  0  0  0  0  0  0  0
   57.0201   32.3445   43.0882 H   0  0  0  0  0  0  0  0  0  0  0  0
  1  2  2  0
  2  3  2  0
  2  4  1  1
  4  5  2  0
  5  6  1  0
  6  7  2  0
  7  8  1  0
  8  9  2  0
  2 10  1  0
 10 11  2  0
 11 12  1  0
 12 13  2  0
 13 14  1  0
 13 15  1  0
 15 16  2  0
  9  4  1  0
 16 10  1  0
  1 17  1  0
  5 18  1  0
  6 19  1  0
  7 20  1  0
  8 21  1  0
  9 22  1  0
 11 23  1  0
 12 24  1  0
 15 25  1  0
 16 26  1  0
M  END
>  <UniqueID>  (63) 
59

>  <SMILES>  (63) 
N=[S@](=O)(c1ccccc1)c1ccc(Br)cc1

>  <Energy>  (63) 
27.68902947228622

>  <Genealogy>  (63) 
N=[S@](=O)(c1ccccc1)c1ccc(Br)cc1 (chirality)
N=[S@](=O)(c1ccccc1)c1ccc(Br)cc1 (3D coordinates assigned)
N=[S@](=O)(c1ccccc1)c1ccc(Br)cc1 (optimized conformer: 27.68902947228622 kcal/mol)

>  <smiles>  (63) 
N=S(=O)(c1ccccc1)c1ccc(Br)cc1

>  <score_type>  (63) 
oracle

>  <origin>  (63) 
adg

>  <m_score__min__energy>  (63) 
-7.4199999999999999

>  <m_primary>  (63) 
energy

$$$$
63:0
     RDKit          3D

 18 18  0  0  0  0  0  0  0  0999 V2000
   53.6420   26.5230   46.3700 H   0  0  0  0  0  0  0  0  0  0  0  0
   54.4180   25.9440   45.9790 N   0  0  0  0  0  0  0  0  0  0  0  0
   55.6420   26.3570   45.9920 C   0  0  0  0  0  0  0  0  0  0  0  0
   55.9290   27.6310   45.6150 N   0  0  0  0  0  0  0  0  0  0  0  0
   57.2070   28.0980   45.6220 C   0  0  0  0  0  0  0  0  0  0  0  0
   57.4830   29.5050   45.1750 C   0  0  0  0  0  0  0  0  0  0  0  0
   57.9854   30.0515   45.9868 H   0  0  0  0  0  0  0  0  0  0  0  0
   58.1272   29.4769   44.2838 H   0  0  0  0  0  0  0  0  0  0  0  0
   56.2750   30.1630   44.8480 O   0  0  0  0  0  0  0  0  0  0  0  0
   55.9900   30.0110   43.4750 C   0  0  0  0  0  0  0  0  0  0  0  0
   55.0252   29.4964   43.3556 H   0  0  0  0  0  0  0  0  0  0  0  0
   55.9386   31.0015   42.9993 H   0  0  0  0  0  0  0  0  0  0  0  0
   56.7840   29.4165   42.9993 H   0  0  0  0  0  0  0  0  0  0  0  0
   58.2480   27.2480   46.0130 C   0  0  0  0  0  0  0  0  0  0  0  0
   59.2898   27.6012   46.0182 H   0  0  0  0  0  0  0  0  0  0  0  0
   57.9360   25.9430   46.3960 C   0  0  0  0  0  0  0  0  0  0  0  0
   58.8470   25.1530   46.7570 O   0  0  0  0  0  0  0  0  0  0  0  0
   56.6440   25.5230   46.3800 N   0  0  0  0  0  0  0  0  0  0  0  0
  1  2  1  0
  2  3  2  0
  3  4  1  0
  4  5  1  0
  5  6  1  0
  6  7  1  0
  6  8  1  0
  6  9  1  0
  9 10  1  0
 10 11  1  0
 10 12  1  0
 10 13  1  0
  5 14  2  0
 14 15  1  0
 14 16  1  0
 16 17  2  0
 16 18  1  0
 18  3  1  0
M  CHG  2   4  -1  18  -1
M  END
>  <UniqueID>  (64) 
60

>  <SMILES>  (64) 
[H]/N=c1/[n-]c(COC)cc(=O)[n-]1

>  <Energy>  (64) 
18.229039780420514

>  <Genealogy>  (64) 
COCc1cc(=O)[n-]c(=N)[n-]1 (protonated)
[H]/N=c1/[n-]c(COC)cc(=O)[n-]1 (cis-trans isomerization)
[H]/N=c1/[n-]c(COC)cc(=O)[n-]1 (3D coordinates assigned)
[H]/N=c1/[n-]c(COC)cc(=O)[n-]1 (optimized conformer: 18.229039780420514 kcal/mol)

>  <smiles>  (64) 
COCc1cc(=O)[nH]c(=N)[nH]1

>  <score_type>  (64) 
oracle

>  <origin>  (64) 
adg

>  <m_score__min__energy>  (64) 
-10.380000000000001

>  <m_primary>  (64) 
energy

$$$$
64:0
     RDKit          3D

 36 38  0  0  0  0  0  0  0  0999 V2000
   55.1350   26.7220   46.0070 O   0  0  0  0  0  0  0  0  0  0  0  0
   55.8970   25.7230   46.0750 C   0  0  0  0  0  0  0  0  0  0  0  0
   55.4830   24.5870   46.7600 O   0  0  0  0  0  0  0  0  0  0  0  0
   57.2210   25.7370   45.3800 C   0  0  0  0  0  0  0  0  0  0  0  0
   58.1490   26.7170   46.0500 C   0  0  0  0  0  0  0  0  0  0  0  0
   57.6930   28.0130   46.3490 C   0  0  0  0  0  0  0  0  0  0  0  0
   58.5500   28.9500   46.9570 C   0  0  0  0  0  0  0  0  0  0  0  0
   58.1310   30.2520   47.2710 O   0  0  0  0  0  0  0  0  0  0  0  0
   58.4640   31.4090   46.5520 C   0  0  0  0  0  0  0  0  0  0  0  0
   59.5020   32.1270   46.8840 N   0  0  0  0  0  0  0  0  0  0  0  0
   59.9180   33.3080   46.1800 C   0  0  0  0  0  0  0  0  0  0  0  0
   61.0380   33.9230   46.6000 C   0  0  0  0  0  0  0  0  0  0  0  0
   62.1770   33.2730   47.2710 C   0  0  0  0  0  0  0  0  0  0  0  0
   63.3950   33.8760   47.5110 C   0  0  0  0  0  0  0  0  0  0  0  0
   64.1260   32.9830   48.2680 C   0  0  0  0  0  0  0  0  0  0  0  0
   63.3130   31.8860   48.4780 C   0  0  0  0  0  0  0  0  0  0  0  0
   62.1230   32.0720   47.8810 N   0  0  0  0  0  0  0  0  0  0  0  0
   59.0550   33.7910   45.0690 C   0  0  0  0  0  0  0  0  0  0  0  0
   59.2210   34.9150   44.5280 O   0  0  0  0  0  0  0  0  0  0  0  0
   57.9550   32.9780   44.6610 N   0  0  0  0  0  0  0  0  0  0  0  0
   57.6520   31.7820   45.3800 C   0  0  0  0  0  0  0  0  0  0  0  0
   56.6870   31.0590   45.0170 O   0  0  0  0  0  0  0  0  0  0  0  0
   59.8760   28.5940   47.2210 C   0  0  0  0  0  0  0  0  0  0  0  0
   60.3410   27.3140   46.9130 C   0  0  0  0  0  0  0  0  0  0  0  0
   59.4850   26.3760   46.3290 C   0  0  0  0  0  0  0  0  0  0  0  0
   59.9740   25.1090   46.0220 O   0  0  0  0  0  0  0  0  0  0  0  0
   57.6637   24.7309   45.4209 H   0  0  0  0  0  0  0  0  0  0  0  0
   57.0739   26.0397   44.3328 H   0  0  0  0  0  0  0  0  0  0  0  0
   56.6585   28.2971   46.1059 H   0  0  0  0  0  0  0  0  0  0  0  0
   61.1098   35.0070   46.4272 H   0  0  0  0  0  0  0  0  0  0  0  0
   63.7185   34.8697   47.1676 H   0  0  0  0  0  0  0  0  0  0  0  0
   65.1549   33.1183   48.6328 H   0  0  0  0  0  0  0  0  0  0  0  0
   63.5979   30.9908   49.0503 H   0  0  0  0  0  0  0  0  0  0  0  0
   61.3040   31.4260   47.9280 H   0  0  0  0  0  0  0  0  0  0  0  0
   60.5582   29.3280   47.6748 H   0  0  0  0  0  0  0  0  0  0  0  0
   61.3846   27.0428   47.1307 H   0  0  0  0  0  0  0  0  0  0  0  0
  1  2  2  0
  2  3  1  0
  2  4  1  0
  4  5  1  0
  5  6  2  0
  6  7  1  0
  7  8  1  0
  8  9  1  0
  9 10  2  0
 10 11  1  0
 11 12  2  3
 12 13  1  0
 13 14  2  0
 14 15  1  0
 15 16  2  0
 16 17  1  0
 11 18  1  0
 18 19  2  0
 18 20  1  0
 20 21  1  0
 21 22  2  0
  7 23  2  0
 23 24  1  0
 24 25  2  0
 25 26  1  0
 25  5  1  0
 21  9  1  0
 17 13  1  0
  4 27  1  0
  4 28  1  0
  6 29  1  0
 12 30  1  0
 14 31  1  0
 15 32  1  0
 16 33  1  0
 17 34  1  0
 23 35  1  0
 24 36  1  0
M  CHG  3   3  -1  20  -1  26  -1
M  END
>  <UniqueID>  (65) 
61

>  <SMILES>  (65) 
O=C([O-])Cc1cc(OC2=NC(=Cc3ccc[nH]3)C(=O)[N-]C2=O)ccc1[O-]

>  <Energy>  (65) 
74.25716929680839

>  <Genealogy>  (65) 
O=C([O-])Cc1cc(OC2=NC(=Cc3ccc[nH]3)C(=O)[N-]C2=O)ccc1[O-] (protonated)
O=C([O-])Cc1cc(OC2=NC(=Cc3ccc[nH]3)C(=O)[N-]C2=O)ccc1[O-] (3D coordinates assigned)
O=C([O-])Cc1cc(OC2=NC(=Cc3ccc[nH]3)C(=O)[N-]C2=O)ccc1[O-] (nonaromatic ring conformer: 74.25716929680839 kcal/mol)

>  <smiles>  (65) 
O=C(O)Cc1cc(OC2=NC(=Cc3ccc[nH]3)C(=O)NC2=O)ccc1O

>  <score_type>  (65) 
oracle

>  <origin>  (65) 
adg

>  <m_score__min__energy>  (65) 
-13.43

>  <m_primary>  (65) 
energy

$$$$
65:0
     RDKit          3D

 23 23  0  0  0  0  0  0  0  0999 V2000
   59.3000   32.4700   46.0110 C   0  0  0  0  0  0  0  0  0  0  0  0
   58.3460   31.7780   45.0820 C   0  0  0  0  0  0  0  0  0  0  0  0
   58.2700   32.1610   43.7350 C   0  0  0  0  0  0  0  0  0  0  0  0
   57.4060   31.4950   42.8550 C   0  0  0  0  0  0  0  0  0  0  0  0
   57.2770   31.9540   41.4330 C   0  0  0  0  0  0  0  0  0  0  0  0
   56.6070   30.4440   43.3310 C   0  0  0  0  0  0  0  0  0  0  0  0
   56.7060   30.0230   44.6690 C   0  0  0  0  0  0  0  0  0  0  0  0
   55.8960   28.9500   45.1800 N   0  0  0  0  0  0  0  0  0  0  0  0
   56.4140   27.6880   45.6230 C   0  0  0  0  0  0  0  0  0  0  0  0
   55.5130   26.6310   45.9420 N   0  0  0  0  0  0  0  0  0  0  0  0
   57.6540   27.5130   45.7700 O   0  0  0  0  0  0  0  0  0  0  0  0
   57.5710   30.7030   45.5390 C   0  0  0  0  0  0  0  0  0  0  0  0
   59.0134   32.2621   47.0525 H   0  0  0  0  0  0  0  0  0  0  0  0
   60.3203   32.1005   45.8308 H   0  0  0  0  0  0  0  0  0  0  0  0
   59.2656   33.5546   45.8308 H   0  0  0  0  0  0  0  0  0  0  0  0
   58.8926   32.9896   43.3667 H   0  0  0  0  0  0  0  0  0  0  0  0
   56.9794   33.0128   41.4150 H   0  0  0  0  0  0  0  0  0  0  0  0
   58.2431   31.8359   40.9205 H   0  0  0  0  0  0  0  0  0  0  0  0
   56.5138   31.3499   40.9205 H   0  0  0  0  0  0  0  0  0  0  0  0
   55.8984   29.9461   42.6527 H   0  0  0  0  0  0  0  0  0  0  0  0
   54.8760   29.1250   45.3220 H   0  0  0  0  0  0  0  0  0  0  0  0
   54.8160   26.7340   46.7130 H   0  0  0  0  0  0  0  0  0  0  0  0
   57.6419   30.3894   46.5910 H   0  0  0  0  0  0  0  0  0  0  0  0
  1  2  1  0
  2  3  2  0
  3  4  1  0
  4  5  1  0
  4  6  2  0
  6  7  1  0
  7  8  1  0
  8  9  1  0
  9 10  1  0
  9 11  2  0
  7 12  2  0
 12  2  1  0
  1 13  1  0
  1 14  1  0
  1 15  1  0
  3 16  1  0
  5 17  1  0
  5 18  1  0
  5 19  1  0
  6 20  1  0
  8 21  1  0
 10 22  1  0
 12 23  1  0
M  CHG  1  10  -1
M  END
>  <UniqueID>  (66) 
62

>  <SMILES>  (66) 
Cc1cc(C)cc(NC([NH-])=O)c1

>  <Energy>  (66) 
21.887312329092126

>  <Genealogy>  (66) 
Cc1cc(C)cc(NC([NH-])=O)c1 (protonated)
Cc1cc(C)cc(NC([NH-])=O)c1 (3D coordinates assigned)
Cc1cc(C)cc(NC([NH-])=O)c1 (optimized conformer: 21.887312329092126 kcal/mol)

>  <smiles>  (66) 
Cc1cc(C)cc(NC(N)=O)c1

>  <score_type>  (66) 
oracle

>  <origin>  (66) 
adg

>  <m_score__min__energy>  (66) 
-7.8099999999999996

>  <m_primary>  (66) 
energy

$$$$
66:0
     RDKit          3D

 39 41  0  0  0  0  0  0  0  0999 V2000
   64.6250   33.4470   50.4510 C   0  0  0  0  0  0  0  0  0  0  0  0
   64.4830   33.0880   48.9760 C   0  0  0  0  0  0  0  0  0  0  0  0
   63.2370   32.2760   48.7400 C   0  0  0  0  0  0  0  0  0  0  0  0
   62.7700   31.3960   49.7250 C   0  0  0  0  0  0  0  0  0  0  0  0
   61.6270   30.6230   49.5000 C   0  0  0  0  0  0  0  0  0  0  0  0
   60.9370   30.7030   48.2740 C   0  0  0  0  0  0  0  0  0  0  0  0
   59.7330   29.8710   48.0000 C   0  0  0  0  0  0  0  0  0  0  0  0
   58.7140   29.9930   48.7340 O   0  0  0  0  0  0  0  0  0  0  0  0
   59.6650   28.8890   46.8610 C   0  0  0  0  0  0  0  0  0  0  0  0
   59.9900   29.6980   45.2540 S   0  0  0  0  0  0  0  0  0  0  0  0
   58.2750   30.1210   44.9290 C   0  0  0  0  0  0  0  0  0  0  0  0
   57.1090   29.0600   44.3930 S   0  0  0  0  0  0  0  0  0  0  0  0
   55.8190   30.1030   44.4340 N   0  0  0  0  0  0  0  0  0  0  0  0
   56.2630   31.2810   44.8610 N   0  0  0  0  0  0  0  0  0  0  0  0
   57.6050   31.3340   45.1350 C   0  0  0  0  0  0  0  0  0  0  0  0
   58.2310   32.5780   45.6340 C   0  0  0  0  0  0  0  0  0  0  0  0
   58.3330   32.8480   47.0110 C   0  0  0  0  0  0  0  0  0  0  0  0
   58.9360   34.0290   47.4570 C   0  0  0  0  0  0  0  0  0  0  0  0
   59.4580   34.9400   46.5370 C   0  0  0  0  0  0  0  0  0  0  0  0
   59.3760   34.6750   45.1700 C   0  0  0  0  0  0  0  0  0  0  0  0
   58.7710   33.4990   44.7170 C   0  0  0  0  0  0  0  0  0  0  0  0
   61.4200   31.5830   47.2860 C   0  0  0  0  0  0  0  0  0  0  0  0
   62.5600   32.3580   47.5170 C   0  0  0  0  0  0  0  0  0  0  0  0
   64.2901   32.6004   51.0683 H   0  0  0  0  0  0  0  0  0  0  0  0
   65.6788   33.6695   50.6744 H   0  0  0  0  0  0  0  0  0  0  0  0
   64.0085   34.3302   50.6744 H   0  0  0  0  0  0  0  0  0  0  0  0
   64.4280   34.0132   48.3835 H   0  0  0  0  0  0  0  0  0  0  0  0
   65.3555   32.4903   48.6734 H   0  0  0  0  0  0  0  0  0  0  0  0
   63.3062   31.3127   50.6818 H   0  0  0  0  0  0  0  0  0  0  0  0
   61.2630   29.9463   50.2871 H   0  0  0  0  0  0  0  0  0  0  0  0
   60.4164   28.1021   47.0229 H   0  0  0  0  0  0  0  0  0  0  0  0
   58.6507   28.4642   46.8333 H   0  0  0  0  0  0  0  0  0  0  0  0
   57.9365   32.1267   47.7408 H   0  0  0  0  0  0  0  0  0  0  0  0
   58.9989   34.2401   48.5347 H   0  0  0  0  0  0  0  0  0  0  0  0
   59.9339   35.8667   46.8901 H   0  0  0  0  0  0  0  0  0  0  0  0
   59.7886   35.3934   44.4464 H   0  0  0  0  0  0  0  0  0  0  0  0
   58.7167   33.2924   43.6379 H   0  0  0  0  0  0  0  0  0  0  0  0
   60.8946   31.6611   46.3227 H   0  0  0  0  0  0  0  0  0  0  0  0
   62.9277   33.0366   46.7332 H   0  0  0  0  0  0  0  0  0  0  0  0
  1  2  1  0
  2  3  1  0
  3  4  2  0
  4  5  1  0
  5  6  2  0
  6  7  1  0
  7  8  2  0
  7  9  1  0
  9 10  1  0
 10 11  1  0
 11 12  1  0
 12 13  1  0
 13 14  2  0
 14 15  1  0
 15 16  1  0
 16 17  2  0
 17 18  1  0
 18 19  2  0
 19 20  1  0
 20 21  2  0
  6 22  1  0
 22 23  2  0
 23  3  1  0
 15 11  2  0
 21 16  1  0
  1 24  1  0
  1 25  1  0
  1 26  1  0
  2 27  1  0
  2 28  1  0
  4 29  1  0
  5 30  1  0
  9 31  1  0
  9 32  1  0
 17 33  1  0
 18 34  1  0
 19 35  1  0
 20 36  1  0
 21 37  1  0
 22 38  1  0
 23 39  1  0
M  END
>  <UniqueID>  (67) 
63

>  <SMILES>  (67) 
CCc1ccc(C(=O)CSc2snnc2-c2ccccc2)cc1

>  <Energy>  (67) 
72.196646905055

>  <Genealogy>  (67) 
CCc1ccc(C(=O)CSc2snnc2-c2ccccc2)cc1 (3D coordinates assigned)
CCc1ccc(C(=O)CSc2snnc2-c2ccccc2)cc1 (optimized conformer: 72.196646905055 kcal/mol)

>  <smiles>  (67) 
CCc1ccc(C(=O)CSc2snnc2-c2ccccc2)cc1

>  <score_type>  (67) 
oracle

>  <origin>  (67) 
adg

>  <m_score__min__energy>  (67) 
-8.5700000000000003

>  <m_primary>  (67) 
energy

$$$$
67:0
     RDKit          3D

 38 40  0  0  0  0  0  0  0  0999 V2000
   56.2950   23.7880   44.0490 C   0  0  0  0  0  0  0  0  0  0  0  0
   57.0190   24.5930   45.0340 N   0  0  0  0  0  0  0  0  0  0  0  0
   58.3960   24.2310   45.3820 C   0  0  0  0  0  0  0  0  0  0  0  0
   56.3420   25.6820   45.6860 C   0  0  0  0  0  0  0  0  0  0  0  0
   55.1270   25.5570   45.9970 O   0  0  0  0  0  0  0  0  0  0  0  0
   57.0230   26.9560   45.9850 C   0  0  0  0  0  0  0  0  0  0  0  0
   58.1130   27.1370   46.8330 C   0  0  0  0  0  0  0  0  0  0  0  0
   58.5710   28.4590   46.8760 C   0  0  0  0  0  0  0  0  0  0  0  0
   57.8510   29.3170   46.0540 C   0  0  0  0  0  0  0  0  0  0  0  0
   58.1050   30.7530   45.8820 C   0  0  0  0  0  0  0  0  0  0  0  0
   57.2620   31.5880   45.2320 N   0  0  0  0  0  0  0  0  0  0  0  0
   57.7200   32.8670   45.2180 C   0  0  0  0  0  0  0  0  0  0  0  0
   58.9440   33.0530   45.8510 C   0  0  0  0  0  0  0  0  0  0  0  0
   59.6380   34.3630   46.0530 C   0  0  0  0  0  0  0  0  0  0  0  0
   60.8260   34.1830   46.9550 C   0  0  0  0  0  0  0  0  0  0  0  0
   60.6800   34.2830   48.3490 C   0  0  0  0  0  0  0  0  0  0  0  0
   61.7790   34.0800   49.1890 C   0  0  0  0  0  0  0  0  0  0  0  0
   63.0280   33.7660   48.6450 C   0  0  0  0  0  0  0  0  0  0  0  0
   63.1780   33.6510   47.2610 C   0  0  0  0  0  0  0  0  0  0  0  0
   62.0820   33.8530   46.4170 C   0  0  0  0  0  0  0  0  0  0  0  0
   59.4530   31.5760   46.4720 S   0  0  0  0  0  0  0  0  0  0  0  0
   56.6510   28.4350   45.2720 S   0  0  0  0  0  0  0  0  0  0  0  0
   55.6469   23.0674   44.5694 H   0  0  0  0  0  0  0  0  0  0  0  0
   55.6792   24.4464   43.4187 H   0  0  0  0  0  0  0  0  0  0  0  0
   57.0148   23.2452   43.4187 H   0  0  0  0  0  0  0  0  0  0  0  0
   58.5023   24.2030   46.4765 H   0  0  0  0  0  0  0  0  0  0  0  0
   58.6312   23.2405   44.9653 H   0  0  0  0  0  0  0  0  0  0  0  0
   59.0879   24.9778   44.9653 H   0  0  0  0  0  0  0  0  0  0  0  0
   58.5693   26.3208   47.4123 H   0  0  0  0  0  0  0  0  0  0  0  0
   59.4168   28.7860   47.4986 H   0  0  0  0  0  0  0  0  0  0  0  0
   57.1662   33.6904   44.7434 H   0  0  0  0  0  0  0  0  0  0  0  0
   59.9750   34.7503   45.0801 H   0  0  0  0  0  0  0  0  0  0  0  0
   58.9381   35.0741   46.5162 H   0  0  0  0  0  0  0  0  0  0  0  0
   59.6970   34.5220   48.7811 H   0  0  0  0  0  0  0  0  0  0  0  0
   61.6608   34.1674   50.2791 H   0  0  0  0  0  0  0  0  0  0  0  0
   63.8926   33.6095   49.3068 H   0  0  0  0  0  0  0  0  0  0  0  0
   64.1606   33.4010   46.8343 H   0  0  0  0  0  0  0  0  0  0  0  0
   62.2029   33.7534   45.3282 H   0  0  0  0  0  0  0  0  0  0  0  0
  1  2  1  0
  2  3  1  0
  2  4  1  0
  4  5  2  0
  4  6  1  0
  6  7  2  0
  7  8  1  0
  8  9  2  0
  9 10  1  0
 10 11  2  0
 11 12  1  0
 12 13  2  0
 13 14  1  0
 14 15  1  0
 15 16  2  0
 16 17  1  0
 17 18  2  0
 18 19  1  0
 19 20  2  0
 13 21  1  0
  9 22  1  0
 22  6  1  0
 21 10  1  0
 20 15  1  0
  1 23  1  0
  1 24  1  0
  1 25  1  0
  3 26  1  0
  3 27  1  0
  3 28  1  0
  7 29  1  0
  8 30  1  0
 12 31  1  0
 14 32  1  0
 14 33  1  0
 16 34  1  0
 17 35  1  0
 18 36  1  0
 19 37  1  0
 20 38  1  0
M  END
>  <UniqueID>  (68) 
64

>  <SMILES>  (68) 
CN(C)C(=O)c1ccc(-c2ncc(Cc3ccccc3)s2)s1

>  <Energy>  (68) 
94.57924155810461

>  <Genealogy>  (68) 
CN(C)C(=O)c1ccc(-c2ncc(Cc3ccccc3)s2)s1 (3D coordinates assigned)
CN(C)C(=O)c1ccc(-c2ncc(Cc3ccccc3)s2)s1 (optimized conformer: 94.57924155810461 kcal/mol)

>  <smiles>  (68) 
CN(C)C(=O)c1ccc(-c2ncc(Cc3ccccc3)s2)s1

>  <score_type>  (68) 
oracle

>  <origin>  (68) 
adg

>  <m_score__min__energy>  (68) 
-8.1099999999999994

>  <m_primary>  (68) 
energy

$$$$
68:0
     RDKit          3D

 49 52  0  0  0  0  0  0  0  0999 V2000
   55.5480   29.0860   45.0210 O   0  0  0  0  0  0  0  0  0  0  0  0
   56.3790   29.8000   44.4000 C   0  0  0  0  0  0  0  0  0  0  0  0
   56.2820   31.2240   44.4960 N   0  0  0  0  0  0  0  0  0  0  0  0
   57.2650   32.0840   45.0870 C   0  0  0  0  0  0  0  0  0  0  0  0
   57.4060   33.4270   44.6890 C   0  0  0  0  0  0  0  0  0  0  0  0
   58.3920   34.2320   45.2660 C   0  0  0  0  0  0  0  0  0  0  0  0
   59.2570   33.7000   46.2270 C   0  0  0  0  0  0  0  0  0  0  0  0
   59.1400   32.3610   46.6060 C   0  0  0  0  0  0  0  0  0  0  0  0
   58.1530   31.5520   46.0320 C   0  0  0  0  0  0  0  0  0  0  0  0
   57.3670   29.1890   43.5580 N   0  0  0  0  0  0  0  0  0  0  0  0
   57.8670   27.8380   43.8010 C   0  0  0  0  0  0  0  0  0  0  0  0
   58.5240   27.7870   45.1500 C   0  0  0  0  0  0  0  0  0  0  0  0
   59.7130   28.4950   45.3800 C   0  0  0  0  0  0  0  0  0  0  0  0
   60.2720   28.5370   46.6600 C   0  0  0  0  0  0  0  0  0  0  0  0
   59.6440   27.8800   47.7300 C   0  0  0  0  0  0  0  0  0  0  0  0
   60.2110   27.9440   49.0490 N   0  0  0  0  0  0  0  0  0  0  0  0
   60.7420   26.7080   49.6560 C   0  0  0  0  0  0  0  0  0  0  0  0
   61.2280   26.9150   51.0990 C   0  0  0  0  0  0  0  0  0  0  0  0
   61.9840   28.2080   51.2320 C   0  0  0  0  0  0  0  0  0  0  0  0
   63.1220   28.3050   52.0450 C   0  0  0  0  0  0  0  0  0  0  0  0
   63.7720   29.5330   52.1930 C   0  0  0  0  0  0  0  0  0  0  0  0
   63.2800   30.6700   51.5460 C   0  0  0  0  0  0  0  0  0  0  0  0
   62.1360   30.5830   50.7480 C   0  0  0  0  0  0  0  0  0  0  0  0
   61.4880   29.3500   50.5840 C   0  0  0  0  0  0  0  0  0  0  0  0
   60.2340   29.2310   49.7640 C   0  0  0  0  0  0  0  0  0  0  0  0
   58.4540   27.1730   47.5000 C   0  0  0  0  0  0  0  0  0  0  0  0
   57.8930   27.1330   46.2200 C   0  0  0  0  0  0  0  0  0  0  0  0
   56.7378   33.8442   43.9212 H   0  0  0  0  0  0  0  0  0  0  0  0
   58.4876   35.2853   44.9637 H   0  0  0  0  0  0  0  0  0  0  0  0
   60.0294   34.3358   46.6843 H   0  0  0  0  0  0  0  0  0  0  0  0
   59.8251   31.9414   47.3573 H   0  0  0  0  0  0  0  0  0  0  0  0
   58.0737   30.4943   46.3236 H   0  0  0  0  0  0  0  0  0  0  0  0
   57.8750   29.7800   42.8620 H   0  0  0  0  0  0  0  0  0  0  0  0
   57.0293   27.1257   43.7732 H   0  0  0  0  0  0  0  0  0  0  0  0
   58.5989   27.5708   43.0245 H   0  0  0  0  0  0  0  0  0  0  0  0
   60.2075   29.0194   44.5491 H   0  0  0  0  0  0  0  0  0  0  0  0
   61.2089   29.0877   46.8301 H   0  0  0  0  0  0  0  0  0  0  0  0
   59.9469   25.9479   49.6585 H   0  0  0  0  0  0  0  0  0  0  0  0
   61.6081   26.3902   49.0570 H   0  0  0  0  0  0  0  0  0  0  0  0
   60.3583   26.9358   51.7721 H   0  0  0  0  0  0  0  0  0  0  0  0
   61.9008   26.0864   51.3648 H   0  0  0  0  0  0  0  0  0  0  0  0
   63.5031   27.4145   52.5663 H   0  0  0  0  0  0  0  0  0  0  0  0
   64.6729   29.6050   52.8201 H   0  0  0  0  0  0  0  0  0  0  0  0
   63.7942   31.6351   51.6651 H   0  0  0  0  0  0  0  0  0  0  0  0
   61.7439   31.4813   50.2487 H   0  0  0  0  0  0  0  0  0  0  0  0
   59.3591   29.2930   50.4279 H   0  0  0  0  0  0  0  0  0  0  0  0
   60.2081   30.0491   49.0291 H   0  0  0  0  0  0  0  0  0  0  0  0
   57.9601   26.6477   48.3307 H   0  0  0  0  0  0  0  0  0  0  0  0
   56.9533   26.5868   46.0506 H   0  0  0  0  0  0  0  0  0  0  0  0
  1  2  2  0
  2  3  1  0
  3  4  1  0
  4  5  2  0
  5  6  1  0
  6  7  2  0
  7  8  1  0
  8  9  2  0
  2 10  1  0
 10 11  1  0
 11 12  1  0
 12 13  2  0
 13 14  1  0
 14 15  2  0
 15 16  1  0
 16 17  1  0
 17 18  1  0
 18 19  1  0
 19 20  2  0
 20 21  1  0
 21 22  2  0
 22 23  1  0
 23 24  2  0
 24 25  1  0
 15 26  1  0
 26 27  2  0
  9  4  1  0
 27 12  1  0
 25 16  1  0
 24 19  1  0
  5 28  1  0
  6 29  1  0
  7 30  1  0
  8 31  1  0
  9 32  1  0
 10 33  1  0
 11 34  1  0
 11 35  1  0
 13 36  1  0
 14 37  1  0
 17 38  1  0
 17 39  1  0
 18 40  1  0
 18 41  1  0
 20 42  1  0
 21 43  1  0
 22 44  1  0
 23 45  1  0
 25 46  1  0
 25 47  1  0
 26 48  1  0
 27 49  1  0
M  CHG  1   3  -1
M  END
>  <UniqueID>  (69) 
65

>  <SMILES>  (69) 
O=C([N-]c1ccccc1)NCc1ccc(N2CCc3ccccc3C2)cc1

>  <Energy>  (69) 
61.24839150071363

>  <Genealogy>  (69) 
O=C([N-]c1ccccc1)NCc1ccc(N2CCc3ccccc3C2)cc1 (protonated)
O=C([N-]c1ccccc1)NCc1ccc(N2CCc3ccccc3C2)cc1 (3D coordinates assigned)
O=C([N-]c1ccccc1)NCc1ccc(N2CCc3ccccc3C2)cc1 (nonaromatic ring conformer: 61.24839150071363 kcal/mol)

>  <smiles>  (69) 
O=C(NCc1ccc(N2CCc3ccccc3C2)cc1)Nc1ccccc1

>  <score_type>  (69) 
oracle

>  <origin>  (69) 
adg

>  <m_score__min__energy>  (69) 
-10.220000000000001

>  <m_primary>  (69) 
energy

$$$$
69:0
     RDKit          3D

 37 38  0  0  0  0  0  0  0  0999 V2000
   60.7790   33.8440   46.7560 C   0  0  0  0  0  0  0  0  0  0  0  0
   59.4080   34.4380   46.5710 C   0  0  0  0  0  0  0  0  0  0  0  0
   59.0120   34.4590   45.1060 C   0  0  0  0  0  0  0  0  0  0  0  0
   57.3700   33.7450   44.8520 S   0  0  0  0  0  0  0  0  0  0  0  0
   57.4370   31.9520   44.8190 C   0  0  0  0  0  0  0  0  0  0  0  0
   56.2830   31.2940   44.5580 N   0  0  0  0  0  0  0  0  0  0  0  0
   56.2300   29.9490   44.5100 C   0  0  0  0  0  0  0  0  0  0  0  0
   55.1680   29.3470   44.2700 O   0  0  0  0  0  0  0  0  0  0  0  0
   57.4290   29.2660   44.7440 C   0  0  0  0  0  0  0  0  0  0  0  0
   57.3950   27.7860   44.7000 C   0  0  0  0  0  0  0  0  0  0  0  0
   58.6060   29.8960   45.0080 C   0  0  0  0  0  0  0  0  0  0  0  0
   59.9020   29.2700   45.2660 C   0  0  0  0  0  0  0  0  0  0  0  0
   60.1200   28.7480   46.6180 C   0  0  0  0  0  0  0  0  0  0  0  0
   60.2350   29.6300   47.6920 C   0  0  0  0  0  0  0  0  0  0  0  0
   60.1710   30.9750   47.5340 F   0  0  0  0  0  0  0  0  0  0  0  0
   60.4220   29.1790   48.9910 C   0  0  0  0  0  0  0  0  0  0  0  0
   60.5020   27.8370   49.2780 C   0  0  0  0  0  0  0  0  0  0  0  0
   60.3910   26.9520   48.2330 C   0  0  0  0  0  0  0  0  0  0  0  0
   60.2040   27.4060   46.9390 C   0  0  0  0  0  0  0  0  0  0  0  0
   60.0900   26.4600   45.9790 F   0  0  0  0  0  0  0  0  0  0  0  0
   58.5640   31.2640   45.0370 N   0  0  0  0  0  0  0  0  0  0  0  0
   60.9960   33.7500   47.8303 H   0  0  0  0  0  0  0  0  0  0  0  0
   60.8143   32.8499   46.2864 H   0  0  0  0  0  0  0  0  0  0  0  0
   61.5284   34.4981   46.2864 H   0  0  0  0  0  0  0  0  0  0  0  0
   58.6776   33.8361   47.1315 H   0  0  0  0  0  0  0  0  0  0  0  0
   59.4240   35.4733   46.9423 H   0  0  0  0  0  0  0  0  0  0  0  0
   59.0074   35.5005   44.7520 H   0  0  0  0  0  0  0  0  0  0  0  0
   59.7406   33.8569   44.5432 H   0  0  0  0  0  0  0  0  0  0  0  0
   57.3859   27.3888   45.7257 H   0  0  0  0  0  0  0  0  0  0  0  0
   56.4890   27.4556   44.1708 H   0  0  0  0  0  0  0  0  0  0  0  0
   58.2848   27.4144   44.1708 H   0  0  0  0  0  0  0  0  0  0  0  0
   60.0140   28.4319   44.5624 H   0  0  0  0  0  0  0  0  0  0  0  0
   60.6427   30.0738   45.1420 H   0  0  0  0  0  0  0  0  0  0  0  0
   60.5080   29.9105   49.8080 H   0  0  0  0  0  0  0  0  0  0  0  0
   60.6498   27.4838   50.3092 H   0  0  0  0  0  0  0  0  0  0  0  0
   60.4514   25.8709   48.4269 H   0  0  0  0  0  0  0  0  0  0  0  0
   59.4240   31.8300   45.2350 H   0  0  0  0  0  0  0  0  0  0  0  0
  1  2  1  0
  2  3  1  0
  3  4  1  0
  4  5  1  0
  5  6  2  0
  6  7  1  0
  7  8  2  0
  7  9  1  0
  9 10  1  0
  9 11  2  0
 11 12  1  0
 12 13  1  0
 13 14  2  0
 14 15  1  0
 14 16  1  0
 16 17  2  0
 17 18  1  0
 18 19  2  0
 19 20  1  0
 11 21  1  0
 21  5  1  0
 19 13  1  0
  1 22  1  0
  1 23  1  0
  1 24  1  0
  2 25  1  0
  2 26  1  0
  3 27  1  0
  3 28  1  0
 10 29  1  0
 10 30  1  0
 10 31  1  0
 12 32  1  0
 12 33  1  0
 16 34  1  0
 17 35  1  0
 18 36  1  0
 21 37  1  0
M  END
>  <smiles>  (70) 
CCCSc1nc(=O)c(C)c(Cc2c(F)cccc2F)[nH]1

>  <score_type>  (70) 
oracle

>  <origin>  (70) 
adg

>  <m_score__min__energy>  (70) 
-6.8600000000000003

>  <m_primary>  (70) 
energy

$$$$
70:0
     RDKit          3D

 62 66  0  0  1  0  0  0  0  0999 V2000
   58.7620   32.2980   50.1640 C   0  0  0  0  0  0  0  0  0  0  0  0
   59.5160   33.4740   50.7200 C   0  0  0  0  0  0  0  0  0  0  0  0
   60.1500   34.2350   49.7220 O   0  0  0  0  0  0  0  0  0  0  0  0
   61.4340   33.9880   49.2880 C   0  0  0  0  0  0  0  0  0  0  0  0
   62.5620   34.0880   50.0680 C   0  0  0  0  0  0  0  0  0  0  0  0
   63.8380   33.8320   49.6010 C   0  0  0  0  0  0  0  0  0  0  0  0
   64.0390   33.4550   48.2900 C   0  0  0  0  0  0  0  0  0  0  0  0
   62.9300   33.3470   47.4900 C   0  0  0  0  0  0  0  0  0  0  0  0
   61.6370   33.6050   47.9620 C   0  0  0  0  0  0  0  0  0  0  0  0
   60.5640   33.4530   47.0080 C   0  0  0  0  0  0  0  0  0  0  0  0
   60.1780   34.4250   46.1090 C   0  0  0  0  0  0  0  0  0  0  0  0
   59.1300   34.2170   45.2090 C   0  0  0  0  0  0  0  0  0  0  0  0
   58.4610   33.0130   45.2100 C   0  0  0  0  0  0  0  0  0  0  0  0
   57.4480   32.7460   44.3730 N   0  0  0  0  0  0  0  0  0  0  0  0
   56.7970   31.5490   44.3860 C   0  0  0  0  0  0  0  0  0  0  0  0
   57.1300   30.5660   45.2400 N   0  0  0  0  0  0  0  0  0  0  0  0
   58.1410   30.8000   46.0930 C   0  0  0  0  0  0  0  0  0  0  0  0
   58.5300   29.9230   46.9430 N   0  0  0  0  0  0  0  0  0  0  0  0
   59.4640   28.8970   46.6420 C   0  0  0  0  0  0  0  0  0  0  0  0
   58.9210   27.6220   46.1720 C   0  0  0  0  0  0  0  0  0  0  0  0
   57.5990   27.6050   45.7390 C   0  0  0  0  0  0  0  0  0  0  0  0
   57.0160   26.4220   45.2730 C   0  0  0  0  0  0  0  0  0  0  0  0
   57.7080   25.2360   45.2200 C   0  0  0  0  0  0  0  0  0  0  0  0
   57.1480   24.0230   44.7550 N   0  0  0  0  0  0  0  0  0  0  0  0
   55.7330   23.7500   44.6690 C   0  0  0  0  0  0  0  0  0  0  0  0
   55.3570   23.2870   43.2790 C   0  0  0  0  0  0  0  0  0  0  0  0
   56.2570   22.3230   42.7450 N   0  0  0  0  0  0  0  0  0  0  0  0
   57.2280   21.8330   43.6930 C   0  0  0  0  0  0  0  0  0  0  0  0
   58.0400   22.9420   44.3200 C   0  0  0  0  0  0  0  0  0  0  0  0
   59.0190   25.2590   45.6520 C   0  0  0  0  0  0  0  0  0  0  0  0
   59.6150   26.4330   46.1200 C   0  0  0  0  0  0  0  0  0  0  0  0
   58.8260   32.0180   46.1000 C   0  0  0  0  0  0  0  0  0  0  0  0
   59.8640   32.2510   46.9790 C   0  0  0  0  0  0  0  0  0  0  0  0
   58.3711   31.6884   50.9920 H   0  0  0  0  0  0  0  0  0  0  0  0
   57.9255   32.6574   49.5466 H   0  0  0  0  0  0  0  0  0  0  0  0
   59.4377   31.6879   49.5466 H   0  0  0  0  0  0  0  0  0  0  0  0
   58.8093   34.1213   51.2600 H   0  0  0  0  0  0  0  0  0  0  0  0
   60.2991   33.0813   51.3852 H   0  0  0  0  0  0  0  0  0  0  0  0
   62.4429   34.3877   51.1197 H   0  0  0  0  0  0  0  0  0  0  0  0
   64.6982   33.9297   50.2796 H   0  0  0  0  0  0  0  0  0  0  0  0
   65.0474   33.2493   47.9016 H   0  0  0  0  0  0  0  0  0  0  0  0
   63.0610   33.0469   46.4399 H   0  0  0  0  0  0  0  0  0  0  0  0
   60.7088   35.3884   46.1004 H   0  0  0  0  0  0  0  0  0  0  0  0
   58.8408   35.0100   44.5037 H   0  0  0  0  0  0  0  0  0  0  0  0
   57.1280   33.4670   43.6730 H   0  0  0  0  0  0  0  0  0  0  0  0
   55.9737   31.3821   43.6758 H   0  0  0  0  0  0  0  0  0  0  0  0
   60.1369   29.2795   45.8604 H   0  0  0  0  0  0  0  0  0  0  0  0
   59.9517   28.6642   47.6001 H   0  0  0  0  0  0  0  0  0  0  0  0
   57.0062   28.5313   45.7633 H   0  0  0  0  0  0  0  0  0  0  0  0
   55.9685   26.4417   44.9377 H   0  0  0  0  0  0  0  0  0  0  0  0
   55.4730   22.9639   45.3932 H   0  0  0  0  0  0  0  0  0  0  0  0
   55.1819   24.6754   44.8927 H   0  0  0  0  0  0  0  0  0  0  0  0
   54.3519   22.8419   43.3191 H   0  0  0  0  0  0  0  0  0  0  0  0
   55.3940   24.1676   42.6208 H   0  0  0  0  0  0  0  0  0  0  0  0
   56.6340   22.5240   41.8050 H   0  0  0  0  0  0  0  0  0  0  0  0
   56.6990   21.2900   44.4901 H   0  0  0  0  0  0  0  0  0  0  0  0
   57.9239   21.1781   43.1482 H   0  0  0  0  0  0  0  0  0  0  0  0
   58.5876   22.5479   45.1888 H   0  0  0  0  0  0  0  0  0  0  0  0
   58.7536   23.3340   43.5803 H   0  0  0  0  0  0  0  0  0  0  0  0
   59.6086   24.3307   45.6272 H   0  0  0  0  0  0  0  0  0  0  0  0
   60.6625   26.4073   46.4546 H   0  0  0  0  0  0  0  0  0  0  0  0
   60.1489   31.4559   47.6837 H   0  0  0  0  0  0  0  0  0  0  0  0
  1  2  1  0
  2  3  1  0
  3  4  1  0
  4  5  2  0
  5  6  1  0
  6  7  2  0
  7  8  1  0
  8  9  2  0
  9 10  1  0
 10 11  2  0
 11 12  1  0
 12 13  2  0
 13 14  1  0
 14 15  1  0
 15 16  2  0
 16 17  1  0
 17 18  2  0
 18 19  1  0
 19 20  1  0
 20 21  2  0
 21 22  1  0
 22 23  2  0
 23 24  1  0
 24 25  1  0
 25 26  1  0
 26 27  1  0
 27 28  1  0
 28 29  1  0
 23 30  1  0
 30 31  2  0
 17 32  1  0
 32 33  2  0
  9  4  1  0
 33 10  1  0
 32 13  1  0
 31 20  1  0
 29 24  1  0
  1 34  1  0
  1 35  1  0
  1 36  1  0
  2 37  1  0
  2 38  1  0
  5 39  1  0
  6 40  1  0
  7 41  1  0
  8 42  1  0
 11 43  1  0
 12 44  1  0
 14 45  1  0
 15 46  1  0
 19 47  1  0
 19 48  1  0
 21 49  1  0
 22 50  1  0
 25 51  1  0
 25 52  1  0
 26 53  1  0
 26 54  1  0
 27 55  1  0
 28 56  1  0
 28 57  1  0
 29 58  1  0
 29 59  1  0
 30 60  1  0
 31 61  1  0
 33 62  1  0
M  END
>  <smiles>  (71) 
CCOc1ccccc1-c1ccc2[nH]cnc(=NCc3ccc(N4CCNCC4)cc3)c2c1

>  <score_type>  (71) 
oracle

>  <origin>  (71) 
adg

>  <m_score__min__energy>  (71) 
-10.06

>  <m_primary>  (71) 
energy

$$$$
71:0
     RDKit          3D

 40 42  0  0  0  0  0  0  0  0999 V2000
   56.9590   30.4240   43.7240 C   0  0  0  0  0  0  0  0  0  0  0  0
   57.0060   31.0640   44.9970 O   0  0  0  0  0  0  0  0  0  0  0  0
   57.7670   32.2070   45.2810 C   0  0  0  0  0  0  0  0  0  0  0  0
   57.3960   33.4880   44.8370 C   0  0  0  0  0  0  0  0  0  0  0  0
   58.2050   34.5890   45.1190 C   0  0  0  0  0  0  0  0  0  0  0  0
   59.3740   34.4300   45.8640 C   0  0  0  0  0  0  0  0  0  0  0  0
   59.7340   33.1680   46.3730 C   0  0  0  0  0  0  0  0  0  0  0  0
   61.0600   33.0190   47.1200 C   0  0  2  0  0  0  0  0  0  0  0  0
   61.6100   31.6420   47.1150 N   0  0  0  0  0  0  0  0  0  0  0  0
   60.8710   30.7260   48.0110 C   0  0  0  0  0  0  0  0  0  0  0  0
   63.0450   31.6800   47.4940 C   0  0  0  0  0  0  0  0  0  0  0  0
   63.3200   32.5580   48.7060 C   0  0  0  0  0  0  0  0  0  0  0  0
   64.5660   32.4900   49.3450 C   0  0  0  0  0  0  0  0  0  0  0  0
   64.8440   33.3120   50.4400 C   0  0  0  0  0  0  0  0  0  0  0  0
   63.8840   34.2170   50.8980 C   0  0  0  0  0  0  0  0  0  0  0  0
   62.6410   34.3040   50.2640 C   0  0  0  0  0  0  0  0  0  0  0  0
   62.3500   33.4800   49.1620 C   0  0  0  0  0  0  0  0  0  0  0  0
   61.0700   33.5380   48.5030 N   0  0  0  0  0  0  0  0  0  0  0  0
   59.8550   33.7230   49.3110 C   0  0  0  0  0  0  0  0  0  0  0  0
   58.9410   32.0540   46.0290 C   0  0  0  0  0  0  0  0  0  0  0  0
   56.8791   29.3358   43.8634 H   0  0  0  0  0  0  0  0  0  0  0  0
   56.0851   30.7870   43.1632 H   0  0  0  0  0  0  0  0  0  0  0  0
   57.8766   30.6554   43.1632 H   0  0  0  0  0  0  0  0  0  0  0  0
   56.4656   33.6227   44.2659 H   0  0  0  0  0  0  0  0  0  0  0  0
   57.9202   35.5863   44.7526 H   0  0  0  0  0  0  0  0  0  0  0  0
   60.0204   35.2992   46.0554 H   0  0  0  0  0  0  0  0  0  0  0  0
   61.7191   33.6652   46.5216 H   0  0  0  0  0  0  0  0  0  0  0  0
   61.0823   30.9879   49.0583 H   0  0  0  0  0  0  0  0  0  0  0  0
   59.7916   30.8184   47.8205 H   0  0  0  0  0  0  0  0  0  0  0  0
   61.1896   29.6905   47.8205 H   0  0  0  0  0  0  0  0  0  0  0  0
   63.3739   30.6554   47.7222 H   0  0  0  0  0  0  0  0  0  0  0  0
   63.5967   32.1107   46.6454 H   0  0  0  0  0  0  0  0  0  0  0  0
   65.3290   31.7856   48.9822 H   0  0  0  0  0  0  0  0  0  0  0  0
   65.8205   33.2463   50.9421 H   0  0  0  0  0  0  0  0  0  0  0  0
   64.1065   34.8632   51.7600 H   0  0  0  0  0  0  0  0  0  0  0  0
   61.8885   35.0189   50.6281 H   0  0  0  0  0  0  0  0  0  0  0  0
   60.1153   33.6834   50.3790 H   0  0  0  0  0  0  0  0  0  0  0  0
   59.4057   34.6999   49.0791 H   0  0  0  0  0  0  0  0  0  0  0  0
   59.1353   32.9241   49.0791 H   0  0  0  0  0  0  0  0  0  0  0  0
   59.2493   31.0491   46.3532 H   0  0  0  0  0  0  0  0  0  0  0  0
  1  2  1  0
  2  3  1  0
  3  4  2  0
  4  5  1  0
  5  6  2  0
  6  7  1  0
  7  8  1  0
  8  9  1  0
  9 10  1  0
  9 11  1  0
 11 12  1  0
 12 13  2  0
 13 14  1  0
 14 15  2  0
 15 16  1  0
 16 17  2  0
 17 18  1  0
 18 19  1  0
  7 20  2  0
 20  3  1  0
 18  8  1  0
 17 12  1  0
  1 21  1  0
  1 22  1  0
  1 23  1  0
  4 24  1  0
  5 25  1  0
  6 26  1  0
  8 27  1  6
 10 28  1  0
 10 29  1  0
 10 30  1  0
 11 31  1  0
 11 32  1  0
 13 33  1  0
 14 34  1  0
 15 35  1  0
 16 36  1  0
 19 37  1  0
 19 38  1  0
 19 39  1  0
 20 40  1  0
M  END
>  <UniqueID>  (72) 
66

>  <SMILES>  (72) 
COc1cccc([C@@H]2N(C)Cc3ccccc3N2C)c1

>  <Energy>  (72) 
58.38600711448192

>  <Genealogy>  (72) 
COc1cccc([C@@H]2N(C)Cc3ccccc3N2C)c1 (chirality)
COc1cccc([C@@H]2N(C)Cc3ccccc3N2C)c1 (3D coordinates assigned)
COc1cccc([C@@H]2N(C)Cc3ccccc3N2C)c1 (nonaromatic ring conformer: 58.38600711448192 kcal/mol)

>  <smiles>  (72) 
COc1cccc(C2N(C)Cc3ccccc3N2C)c1

>  <score_type>  (72) 
oracle

>  <origin>  (72) 
adg

>  <m_score__min__energy>  (72) 
-7.1200000000000001

>  <m_primary>  (72) 
energy

$$$$
72:0
     RDKit          3D

 33 33  0  0  0  0  0  0  0  0999 V2000
   58.4500   32.5040   47.4250 C   0  0  0  0  0  0  0  0  0  0  0  0
   58.8640   32.2340   45.9730 C   0  0  0  0  0  0  0  0  0  0  0  0
   57.7950   32.5890   45.0080 N   0  0  0  0  0  0  0  0  0  0  0  0
   57.8740   34.0170   44.6110 C   0  0  0  0  0  0  0  0  0  0  0  0
   59.2450   34.6320   44.9230 C   0  0  0  0  0  0  0  0  0  0  0  0
   57.8440   31.7040   43.8530 C   0  0  0  0  0  0  0  0  0  0  0  0
   57.7710   32.3400   42.3420 S   0  0  0  0  0  0  0  0  0  0  0  0
   58.0740   30.2930   43.9850 N   0  0  0  0  0  0  0  0  0  0  0  0
   57.2250   29.4250   44.7480 C   0  0  0  0  0  0  0  0  0  0  0  0
   56.0010   29.7010   44.8640 O   0  0  0  0  0  0  0  0  0  0  0  0
   57.7510   28.1690   45.3390 C   0  0  0  0  0  0  0  0  0  0  0  0
   59.1410   27.9850   45.4620 C   0  0  0  0  0  0  0  0  0  0  0  0
   59.6590   26.8110   46.0190 C   0  0  0  0  0  0  0  0  0  0  0  0
   58.7980   25.7990   46.4440 C   0  0  0  0  0  0  0  0  0  0  0  0
   57.4180   25.9550   46.3070 C   0  0  0  0  0  0  0  0  0  0  0  0
   56.8890   27.1330   45.7640 C   0  0  0  0  0  0  0  0  0  0  0  0
   55.5430   27.2360   45.6270 F   0  0  0  0  0  0  0  0  0  0  0  0
   59.1734   32.0322   48.1063 H   0  0  0  0  0  0  0  0  0  0  0  0
   58.4305   33.5890   47.6050 H   0  0  0  0  0  0  0  0  0  0  0  0
   57.4492   32.0844   47.6050 H   0  0  0  0  0  0  0  0  0  0  0  0
   59.7597   32.8300   45.7438 H   0  0  0  0  0  0  0  0  0  0  0  0
   59.0625   31.1566   45.8743 H   0  0  0  0  0  0  0  0  0  0  0  0
   56.8680   32.4480   45.4790 H   0  0  0  0  0  0  0  0  0  0  0  0
   57.6892   34.0944   43.5294 H   0  0  0  0  0  0  0  0  0  0  0  0
   57.1176   34.5695   45.1877 H   0  0  0  0  0  0  0  0  0  0  0  0
   59.3802   34.6926   46.0130 H   0  0  0  0  0  0  0  0  0  0  0  0
   60.0363   34.0026   44.4898 H   0  0  0  0  0  0  0  0  0  0  0  0
   59.3012   35.6416   44.4898 H   0  0  0  0  0  0  0  0  0  0  0  0
   58.7800   29.8500   43.3540 H   0  0  0  0  0  0  0  0  0  0  0  0
   59.8270   28.7724   45.1166 H   0  0  0  0  0  0  0  0  0  0  0  0
   60.7470   26.6856   46.1220 H   0  0  0  0  0  0  0  0  0  0  0  0
   59.2066   24.8787   46.8868 H   0  0  0  0  0  0  0  0  0  0  0  0
   56.7419   25.1485   46.6272 H   0  0  0  0  0  0  0  0  0  0  0  0
  1  2  1  0
  2  3  1  0
  3  4  1  0
  4  5  1  0
  3  6  1  0
  6  7  2  0
  6  8  1  0
  8  9  1  0
  9 10  2  0
  9 11  1  0
 11 12  2  0
 12 13  1  0
 13 14  2  0
 14 15  1  0
 15 16  2  0
 16 17  1  0
 16 11  1  0
  1 18  1  0
  1 19  1  0
  1 20  1  0
  2 21  1  0
  2 22  1  0
  3 23  1  0
  4 24  1  0
  4 25  1  0
  5 26  1  0
  5 27  1  0
  5 28  1  0
  8 29  1  0
 12 30  1  0
 13 31  1  0
 14 32  1  0
 15 33  1  0
M  CHG  1   3   1
M  END
>  <UniqueID>  (73) 
67

>  <SMILES>  (73) 
CC[NH+](CC)C(=S)NC(=O)c1ccccc1F

>  <Energy>  (73) 
40.820489222845715

>  <Genealogy>  (73) 
CC[NH+](CC)C(=S)NC(=O)c1ccccc1F (protonated)
CC[NH+](CC)C(=S)NC(=O)c1ccccc1F (3D coordinates assigned)
CC[NH+](CC)C(=S)NC(=O)c1ccccc1F (optimized conformer: 40.820489222845715 kcal/mol)

>  <smiles>  (73) 
CCN(CC)C(=S)NC(=O)c1ccccc1F

>  <score_type>  (73) 
oracle

>  <origin>  (73) 
adg

>  <m_score__min__energy>  (73) 
-5.3899999999999997

>  <m_primary>  (73) 
energy

$$$$
73:0
     RDKit          3D

 22 24  0  0  0  0  0  0  0  0999 V2000
   55.3940   25.2100   45.5060 O   0  0  0  0  0  0  0  0  0  0  0  0
   56.5770   24.7720   45.5310 C   0  0  0  0  0  0  0  0  0  0  0  0
   56.8940   23.4470   44.9480 C   0  0  0  0  0  0  0  0  0  0  0  0
   55.8990   22.6570   44.3580 C   0  0  0  0  0  0  0  0  0  0  0  0
   56.2220   21.4480   43.8320 N   0  0  0  0  0  0  0  0  0  0  0  0
   57.4730   20.9850   43.8590 N   0  0  0  0  0  0  0  0  0  0  0  0
   58.4820   21.7050   44.4160 C   0  0  0  0  0  0  0  0  0  0  0  0
   58.2140   22.9600   44.9770 C   0  0  0  0  0  0  0  0  0  0  0  0
   59.2890   23.7720   45.5920 C   0  0  0  0  0  0  0  0  0  0  0  0
   60.4750   23.3440   45.6230 O   0  0  0  0  0  0  0  0  0  0  0  0
   58.9740   25.0910   46.1740 C   0  0  0  0  0  0  0  0  0  0  0  0
   59.9640   25.8360   46.7400 N   0  0  0  0  0  0  0  0  0  0  0  0
   59.7220   27.0560   47.2870 C   0  0  0  0  0  0  0  0  0  0  0  0
   58.4280   27.5800   47.2820 C   0  0  0  0  0  0  0  0  0  0  0  0
   57.3920   26.8410   46.7100 C   0  0  0  0  0  0  0  0  0  0  0  0
   57.6540   25.5820   46.1470 C   0  0  0  0  0  0  0  0  0  0  0  0
   54.8596   23.0151   44.3211 H   0  0  0  0  0  0  0  0  0  0  0  0
   57.6790   20.0490   43.4430 H   0  0  0  0  0  0  0  0  0  0  0  0
   59.5060   21.3034   44.4262 H   0  0  0  0  0  0  0  0  0  0  0  0
   60.5462   27.6312   47.7341 H   0  0  0  0  0  0  0  0  0  0  0  0
   58.2270   28.5666   47.7250 H   0  0  0  0  0  0  0  0  0  0  0  0
   56.3690   27.2452   46.7002 H   0  0  0  0  0  0  0  0  0  0  0  0
  1  2  2  0
  2  3  1  0
  3  4  2  0
  4  5  1  0
  5  6  2  0
  6  7  1  0
  7  8  2  0
  8  9  1  0
  9 10  2  0
  9 11  1  0
 11 12  2  0
 12 13  1  0
 13 14  2  0
 14 15  1  0
 15 16  2  0
 16  2  1  0
  8  3  1  0
 16 11  1  0
  4 17  1  0
  6 18  1  0
  7 19  1  0
 13 20  1  0
 14 21  1  0
 15 22  1  0
M  CHG  1   6   1
M  END
>  <UniqueID>  (74) 
68

>  <SMILES>  (74) 
O=C1c2cn[nH+]cc2C(=O)c2ncccc21

>  <Energy>  (74) 
29.70648053201371

>  <Genealogy>  (74) 
O=C1c2cn[nH+]cc2C(=O)c2ncccc21 (protonated)
O=C1c2cn[nH+]cc2C(=O)c2ncccc21 (3D coordinates assigned)
O=C1c2cn[nH+]cc2C(=O)c2ncccc21 (nonaromatic ring conformer: 29.70648053201371 kcal/mol)

>  <smiles>  (74) 
O=C1c2cnncc2C(=O)c2ncccc21

>  <score_type>  (74) 
oracle

>  <origin>  (74) 
adg

>  <m_score__min__energy>  (74) 
-5.3899999999999997

>  <m_primary>  (74) 
energy

$$$$
74:0
     RDKit          3D

 28 30  0  0  0  0  0  0  0  0999 V2000
   57.2750   30.7310   45.2440 O   0  0  0  0  0  0  0  0  0  0  0  0
   57.7830   31.8310   45.5970 C   0  0  0  0  0  0  0  0  0  0  0  0
   57.3770   32.9910   44.9470 C   0  0  0  0  0  0  0  0  0  0  0  0
   57.8990   34.2080   45.3430 C   0  0  0  0  0  0  0  0  0  0  0  0
   58.8240   34.2490   46.3790 C   0  0  0  0  0  0  0  0  0  0  0  0
   59.2720   35.3700   46.7470 O   0  0  0  0  0  0  0  0  0  0  0  0
   59.2310   33.0840   46.9880 N   0  0  0  0  0  0  0  0  0  0  0  0
   58.7130   31.8950   46.6080 N   0  0  0  0  0  0  0  0  0  0  0  0
   59.0950   30.6630   47.3280 C   0  0  0  0  0  0  0  0  0  0  0  0
   58.5390   30.6770   48.6770 N   0  0  0  0  0  0  0  0  0  0  0  0
   58.7570   31.7040   49.6680 C   0  0  0  0  0  0  0  0  0  0  0  0
   58.1650   31.5320   50.9320 C   0  0  0  0  0  0  0  0  0  0  0  0
   58.3140   32.4910   51.9330 C   0  0  0  0  0  0  0  0  0  0  0  0
   59.0560   33.6440   51.6900 C   0  0  0  0  0  0  0  0  0  0  0  0
   59.1990   34.5750   52.6640 F   0  0  0  0  0  0  0  0  0  0  0  0
   59.6540   33.8390   50.4450 C   0  0  0  0  0  0  0  0  0  0  0  0
   59.5150   32.8840   49.4190 C   0  0  0  0  0  0  0  0  0  0  0  0
   60.2020   33.1460   48.1020 C   0  0  0  0  0  0  0  0  0  0  0  0
   56.6473   32.9407   44.1254 H   0  0  0  0  0  0  0  0  0  0  0  0
   57.5849   35.1358   44.8425 H   0  0  0  0  0  0  0  0  0  0  0  0
   58.7077   29.7889   46.7840 H   0  0  0  0  0  0  0  0  0  0  0  0
   60.1918   30.6089   47.3915 H   0  0  0  0  0  0  0  0  0  0  0  0
   57.9310   29.8660   48.9340 H   0  0  0  0  0  0  0  0  0  0  0  0
   57.5748   30.6261   51.1342 H   0  0  0  0  0  0  0  0  0  0  0  0
   57.8448   32.3366   52.9159 H   0  0  0  0  0  0  0  0  0  0  0  0
   60.2419   34.7506   50.2620 H   0  0  0  0  0  0  0  0  0  0  0  0
   60.6614   34.1452   48.1262 H   0  0  0  0  0  0  0  0  0  0  0  0
   60.9727   32.3771   47.9444 H   0  0  0  0  0  0  0  0  0  0  0  0
  1  2  2  0
  2  3  1  0
  3  4  2  0
  4  5  1  0
  5  6  2  0
  5  7  1  0
  7  8  1  0
  8  9  1  0
  9 10  1  0
 10 11  1  0
 11 12  2  0
 12 13  1  0
 13 14  2  0
 14 15  1  0
 14 16  1  0
 16 17  2  0
 17 18  1  0
  8  2  1  0
 17 11  1  0
 18  7  1  0
  3 19  1  0
  4 20  1  0
  9 21  1  0
  9 22  1  0
 10 23  1  0
 12 24  1  0
 13 25  1  0
 16 26  1  0
 18 27  1  0
 18 28  1  0
M  END
>  <UniqueID>  (75) 
69

>  <SMILES>  (75) 
O=c1ccc(=O)n2n1CNc1ccc(F)cc1C2

>  <Energy>  (75) 
44.404608030854206

>  <Genealogy>  (75) 
O=c1ccc(=O)n2n1CNc1ccc(F)cc1C2 (3D coordinates assigned)
O=c1ccc(=O)n2n1CNc1ccc(F)cc1C2 (nonaromatic ring conformer: 44.404608030854206 kcal/mol)

>  <smiles>  (75) 
O=c1ccc(=O)n2n1CNc1ccc(F)cc1C2

>  <score_type>  (75) 
oracle

>  <origin>  (75) 
adg

>  <m_score__min__energy>  (75) 
-5.5899999999999999

>  <m_primary>  (75) 
energy

$$$$
75:0
     RDKit          3D

 36 37  0  0  0  0  0  0  0  0999 V2000
   60.2990   30.4170   48.7220 C   0  0  0  0  0  0  0  0  0  0  0  0
   58.8930   30.5330   48.1400 C   0  0  0  0  0  0  0  0  0  0  0  0
   58.7500   31.7890   47.3130 C   0  0  0  0  0  0  0  0  0  0  0  0
   58.9230   33.0340   47.9390 C   0  0  0  0  0  0  0  0  0  0  0  0
   58.8300   34.2160   47.2080 C   0  0  0  0  0  0  0  0  0  0  0  0
   58.5670   34.1760   45.8390 C   0  0  0  0  0  0  0  0  0  0  0  0
   58.3880   32.9470   45.1850 C   0  0  0  0  0  0  0  0  0  0  0  0
   58.1180   32.9240   43.7050 C   0  0  0  0  0  0  0  0  0  0  0  0
   58.4950   31.7430   45.9190 C   0  0  0  0  0  0  0  0  0  0  0  0
   58.3350   30.4770   45.2470 N   0  0  0  0  0  0  0  0  0  0  0  0
   59.3980   29.6200   45.1370 C   0  0  0  0  0  0  0  0  0  0  0  0
   60.5240   29.9290   45.6160 O   0  0  0  0  0  0  0  0  0  0  0  0
   59.2460   28.3930   44.4920 C   0  0  0  0  0  0  0  0  0  0  0  0
   57.9960   28.0580   43.9640 C   0  0  0  0  0  0  0  0  0  0  0  0
   57.7840   26.7910   43.3180 N   0  0  0  0  0  0  0  0  0  0  0  0
   57.7620   25.7170   44.3130 C   0  0  0  0  0  0  0  0  0  0  0  0
   56.9590   28.9250   44.1100 N   0  0  0  0  0  0  0  0  0  0  0  0
   57.1140   30.1180   44.7390 C   0  0  0  0  0  0  0  0  0  0  0  0
   56.1190   30.8860   44.8510 O   0  0  0  0  0  0  0  0  0  0  0  0
   60.2426   30.4217   49.8205 H   0  0  0  0  0  0  0  0  0  0  0  0
   60.7600   29.4778   48.3825 H   0  0  0  0  0  0  0  0  0  0  0  0
   60.9077   31.2680   48.3825 H   0  0  0  0  0  0  0  0  0  0  0  0
   58.6944   29.6585   47.5029 H   0  0  0  0  0  0  0  0  0  0  0  0
   58.1731   30.5770   48.9705 H   0  0  0  0  0  0  0  0  0  0  0  0
   59.1341   33.0763   49.0177 H   0  0  0  0  0  0  0  0  0  0  0  0
   58.9645   35.1843   47.7122 H   0  0  0  0  0  0  0  0  0  0  0  0
   58.4994   35.1137   45.2680 H   0  0  0  0  0  0  0  0  0  0  0  0
   57.0358   32.8318   43.5311 H   0  0  0  0  0  0  0  0  0  0  0  0
   58.4842   33.8566   43.2509 H   0  0  0  0  0  0  0  0  0  0  0  0
   58.6367   32.0668   43.2509 H   0  0  0  0  0  0  0  0  0  0  0  0
   60.0956   27.7004   44.4003 H   0  0  0  0  0  0  0  0  0  0  0  0
   56.8690   26.8060   42.8110 H   0  0  0  0  0  0  0  0  0  0  0  0
   58.5440   26.6060   42.6230 H   0  0  0  0  0  0  0  0  0  0  0  0
   57.7709   26.1526   45.3230 H   0  0  0  0  0  0  0  0  0  0  0  0
   56.8513   25.1141   44.1817 H   0  0  0  0  0  0  0  0  0  0  0  0
   58.6472   25.0774   44.1817 H   0  0  0  0  0  0  0  0  0  0  0  0
  1  2  1  0
  2  3  1  0
  3  4  2  0
  4  5  1  0
  5  6  2  0
  6  7  1  0
  7  8  1  0
  7  9  2  0
  9 10  1  0
 10 11  1  0
 11 12  2  0
 11 13  1  0
 13 14  2  0
 14 15  1  0
 15 16  1  0
 14 17  1  0
 17 18  1  0
 18 19  2  0
  9  3  1  0
 18 10  1  0
  1 20  1  0
  1 21  1  0
  1 22  1  0
  2 23  1  0
  2 24  1  0
  4 25  1  0
  5 26  1  0
  6 27  1  0
  8 28  1  0
  8 29  1  0
  8 30  1  0
 13 31  1  0
 15 32  1  0
 15 33  1  0
 16 34  1  0
 16 35  1  0
 16 36  1  0
M  CHG  2  15   1  17  -1
M  END
>  <UniqueID>  (76) 
70

>  <SMILES>  (76) 
CCc1cccc(C)c1-n1c(=O)cc([NH2+]C)[n-]c1=O

>  <Energy>  (76) 
43.167673214942724

>  <Genealogy>  (76) 
CCc1cccc(C)c1-n1c(=O)cc([NH2+]C)[n-]c1=O (protonated)
CCc1cccc(C)c1-n1c(=O)cc([NH2+]C)[n-]c1=O (3D coordinates assigned)
CCc1cccc(C)c1-n1c(=O)cc([NH2+]C)[n-]c1=O (optimized conformer: 43.167673214942724 kcal/mol)

>  <smiles>  (76) 
CCc1cccc(C)c1-n1c(=O)cc(NC)[nH]c1=O

>  <score_type>  (76) 
oracle

>  <origin>  (76) 
adg

>  <m_score__min__energy>  (76) 
-6.6200000000000001

>  <m_primary>  (76) 
energy

$$$$
76:0
     RDKit          3D

 46 48  0  0  0  0  0  0  0  0999 V2000
   58.0351   30.7491   45.5097 H   0  0  0  0  0  0  0  0  0  0  0  0
   57.7570   29.7230   45.7920 C   0  0  0  0  0  0  0  0  0  0  0  0
   58.5300   29.0020   46.7130 C   0  0  0  0  0  0  0  0  0  0  0  0
   59.7190   29.5650   47.2990 N   0  0  0  0  0  0  0  0  0  0  0  0
   59.9930   29.4700   48.7380 C   0  0  0  0  0  0  0  0  0  0  0  0
   59.0766   29.1603   49.2617 H   0  0  0  0  0  0  0  0  0  0  0  0
   60.7903   28.7299   48.9011 H   0  0  0  0  0  0  0  0  0  0  0  0
   60.4560   30.8320   49.2880 C   0  0  0  0  0  0  0  0  0  0  0  0
   59.5658   31.4055   49.5856 H   0  0  0  0  0  0  0  0  0  0  0  0
   61.1271   30.6221   50.1339 H   0  0  0  0  0  0  0  0  0  0  0  0
   61.2320   31.6450   48.3150 N   0  0  0  0  0  0  0  0  0  0  0  0
   60.4410   32.7720   47.7890 C   0  0  0  0  0  0  0  0  0  0  0  0
   60.0316   33.3553   48.6270 H   0  0  0  0  0  0  0  0  0  0  0  0
   61.0857   33.4169   47.1737 H   0  0  0  0  0  0  0  0  0  0  0  0
   59.6154   32.3849   47.1737 H   0  0  0  0  0  0  0  0  0  0  0  0
   61.8360   30.8440   47.2300 C   0  0  0  0  0  0  0  0  0  0  0  0
   62.3843   31.5166   46.5539 H   0  0  0  0  0  0  0  0  0  0  0  0
   62.5111   30.1050   47.6862 H   0  0  0  0  0  0  0  0  0  0  0  0
   60.7730   30.0840   46.4210 C   0  0  0  0  0  0  0  0  0  0  0  0
   60.3244   30.7670   45.6846 H   0  0  0  0  0  0  0  0  0  0  0  0
   61.2570   29.2363   45.9139 H   0  0  0  0  0  0  0  0  0  0  0  0
   58.1710   27.7270   47.0200 N   0  0  0  0  0  0  0  0  0  0  0  0
   57.0620   27.1450   46.4840 C   0  0  0  0  0  0  0  0  0  0  0  0
   56.7370   25.9190   46.7710 N   0  0  0  0  0  0  0  0  0  0  0  0
   56.4950   24.8500   45.8400 C   0  0  0  0  0  0  0  0  0  0  0  0
   55.1950   24.4570   45.4740 C   0  0  0  0  0  0  0  0  0  0  0  0
   54.3252   24.9601   45.9216 H   0  0  0  0  0  0  0  0  0  0  0  0
   55.0020   23.4300   44.5440 C   0  0  0  0  0  0  0  0  0  0  0  0
   53.9818   23.1189   44.2750 H   0  0  0  0  0  0  0  0  0  0  0  0
   56.1090   22.7930   43.9510 C   0  0  0  0  0  0  0  0  0  0  0  0
   55.9680   21.7550   43.0170 O   0  0  0  0  0  0  0  0  0  0  0  0
   56.9830   20.8050   42.7130 C   0  0  0  0  0  0  0  0  0  0  0  0
   57.4063   20.4088   43.6478 H   0  0  0  0  0  0  0  0  0  0  0  0
   56.5499   19.9802   42.1281 H   0  0  0  0  0  0  0  0  0  0  0  0
   57.7774   21.2917   42.1281 H   0  0  0  0  0  0  0  0  0  0  0  0
   57.4000   23.2080   44.2950 C   0  0  0  0  0  0  0  0  0  0  0  0
   58.2713   22.7218   43.8318 H   0  0  0  0  0  0  0  0  0  0  0  0
   57.5910   24.2360   45.2230 C   0  0  0  0  0  0  0  0  0  0  0  0
   58.6111   24.5650   45.4703 H   0  0  0  0  0  0  0  0  0  0  0  0
   56.3060   27.8430   45.5970 N   0  0  0  0  0  0  0  0  0  0  0  0
   56.6290   29.1160   45.2400 C   0  0  0  0  0  0  0  0  0  0  0  0
   55.8490   29.8220   44.3200 O   0  0  0  0  0  0  0  0  0  0  0  0
   56.2730   30.0760   42.9860 C   0  0  0  0  0  0  0  0  0  0  0  0
   57.2165   30.6412   43.0025 H   0  0  0  0  0  0  0  0  0  0  0  0
   56.4267   29.1211   42.4620 H   0  0  0  0  0  0  0  0  0  0  0  0
   55.5036   30.6621   42.4620 H   0  0  0  0  0  0  0  0  0  0  0  0
  1  2  1  0
  2  3  1  0
  3  4  1  0
  4  5  1  0
  5  6  1  0
  5  7  1  0
  5  8  1  0
  8  9  1  0
  8 10  1  0
  8 11  1  0
 11 12  1  0
 12 13  1  0
 12 14  1  0
 12 15  1  0
 11 16  1  0
 16 17  1  0
 16 18  1  0
 16 19  1  0
 19 20  1  0
 19 21  1  0
  3 22  2  0
 22 23  1  0
 23 24  2  0
 24 25  1  0
 25 26  2  0
 26 27  1  0
 26 28  1  0
 28 29  1  0
 28 30  2  0
 30 31  1  0
 31 32  1  0
 32 33  1  0
 32 34  1  0
 32 35  1  0
 30 36  1  0
 36 37  1  0
 36 38  2  0
 38 39  1  0
 23 40  1  0
 40 41  1  0
 41 42  1  0
 42 43  1  0
 43 44  1  0
 43 45  1  0
 43 46  1  0
 41  2  2  0
 19  4  1  0
 38 25  1  0
M  CHG  1  40  -1
M  END
>  <UniqueID>  (77) 
71

>  <SMILES>  (77) 
COc1ccc(/N=c2\nc(N3CCN(C)CC3)cc(OC)[n-]2)cc1

>  <Energy>  (77) 
61.13138291778111

>  <Genealogy>  (77) 
COc1ccc(N=c2nc(N3CCN(C)CC3)cc(OC)[n-]2)cc1 (protonated)
COc1ccc(/N=c2\nc(N3CCN(C)CC3)cc(OC)[n-]2)cc1 (cis-trans isomerization)
COc1ccc(/N=c2\nc(N3CCN(C)CC3)cc(OC)[n-]2)cc1 (3D coordinates assigned)
COc1ccc(/N=c2\nc(N3CCN(C)CC3)cc(OC)[n-]2)cc1 (nonaromatic ring conformer: 61.13138291778111 kcal/mol)

>  <smiles>  (77) 
COc1ccc(N=c2nc(N3CCN(C)CC3)cc(OC)[nH]2)cc1

>  <score_type>  (77) 
oracle

>  <origin>  (77) 
adg

>  <m_score__min__energy>  (77) 
-8.5700000000000003

>  <m_primary>  (77) 
energy

$$$$
77:0
     RDKit          3D

 41 44  0  0  0  0  0  0  0  0999 V2000
   57.3810   24.4100   43.8200 C   0  0  0  0  0  0  0  0  0  0  0  0
   57.6400   25.4520   44.8680 C   0  0  0  0  0  0  0  0  0  0  0  0
   57.8100   25.0780   46.2090 C   0  0  0  0  0  0  0  0  0  0  0  0
   58.0010   26.0520   47.1920 C   0  0  0  0  0  0  0  0  0  0  0  0
   58.0140   27.4050   46.8450 C   0  0  0  0  0  0  0  0  0  0  0  0
   57.8430   27.7960   45.5110 C   0  0  0  0  0  0  0  0  0  0  0  0
   57.8250   29.1940   45.1820 N   0  0  0  0  0  0  0  0  0  0  0  0
   56.6220   29.9100   44.8540 C   0  0  0  0  0  0  0  0  0  0  0  0
   55.5090   29.3190   44.8690 O   0  0  0  0  0  0  0  0  0  0  0  0
   56.6490   31.3090   44.5460 N   0  0  0  0  0  0  0  0  0  0  0  0
   57.3670   32.3380   45.2400 C   0  0  0  0  0  0  0  0  0  0  0  0
   57.7660   33.4720   44.5230 C   0  0  0  0  0  0  0  0  0  0  0  0
   58.5390   34.4620   45.1360 C   0  0  0  0  0  0  0  0  0  0  0  0
   58.9240   34.3220   46.4720 C   0  0  0  0  0  0  0  0  0  0  0  0
   58.5310   33.1970   47.2050 C   0  0  0  0  0  0  0  0  0  0  0  0
   58.9470   33.0820   48.5380 O   0  0  0  0  0  0  0  0  0  0  0  0
   58.6480   31.9910   49.3620 C   0  0  0  0  0  0  0  0  0  0  0  0
   57.8290   32.1110   50.4510 N   0  0  0  0  0  0  0  0  0  0  0  0
   57.5790   31.0460   51.2780 C   0  0  0  0  0  0  0  0  0  0  0  0
   58.1440   29.8260   51.0290 N   0  0  0  0  0  0  0  0  0  0  0  0
   58.9550   29.7070   49.9500 C   0  0  0  0  0  0  0  0  0  0  0  0
   59.6040   28.6050   49.5490 N   0  0  0  0  0  0  0  0  0  0  0  0
   60.2900   28.9430   48.4580 N   0  0  0  0  0  0  0  0  0  0  0  0
   60.0740   30.2520   48.1750 C   0  0  0  0  0  0  0  0  0  0  0  0
   59.2190   30.7500   49.1270 C   0  0  0  0  0  0  0  0  0  0  0  0
   57.7710   32.1920   46.5800 C   0  0  0  0  0  0  0  0  0  0  0  0
   57.6350   26.8140   44.5260 C   0  0  0  0  0  0  0  0  0  0  0  0
   57.1430   23.4524   44.3061 H   0  0  0  0  0  0  0  0  0  0  0  0
   56.5335   24.7235   43.1928 H   0  0  0  0  0  0  0  0  0  0  0  0
   58.2767   24.2902   43.1928 H   0  0  0  0  0  0  0  0  0  0  0  0
   57.7929   24.0140   46.4877 H   0  0  0  0  0  0  0  0  0  0  0  0
   58.1414   25.7529   48.2412 H   0  0  0  0  0  0  0  0  0  0  0  0
   58.1594   28.1679   47.6240 H   0  0  0  0  0  0  0  0  0  0  0  0
   58.7430   29.6890   45.1360 H   0  0  0  0  0  0  0  0  0  0  0  0
   57.4691   33.5848   43.4698 H   0  0  0  0  0  0  0  0  0  0  0  0
   58.8445   35.3520   44.5664 H   0  0  0  0  0  0  0  0  0  0  0  0
   59.5386   35.0995   46.9493 H   0  0  0  0  0  0  0  0  0  0  0  0
   56.9188   31.1742   52.1485 H   0  0  0  0  0  0  0  0  0  0  0  0
   60.5063   30.8137   47.3338 H   0  0  0  0  0  0  0  0  0  0  0  0
   57.4913   31.2881   47.1410 H   0  0  0  0  0  0  0  0  0  0  0  0
   57.4674   27.1146   43.4812 H   0  0  0  0  0  0  0  0  0  0  0  0
  1  2  1  0
  2  3  2  0
  3  4  1  0
  4  5  2  0
  5  6  1  0
  6  7  1  0
  7  8  1  0
  8  9  2  0
  8 10  1  0
 10 11  1  0
 11 12  2  0
 12 13  1  0
 13 14  2  0
 14 15  1  0
 15 16  1  0
 16 17  1  0
 17 18  2  0
 18 19  1  0
 19 20  2  0
 20 21  1  0
 21 22  1  0
 22 23  1  0
 23 24  2  0
 24 25  1  0
 15 26  2  0
  6 27  2  0
 27  2  1  0
 26 11  1  0
 25 17  1  0
 25 21  2  0
  1 28  1  0
  1 29  1  0
  1 30  1  0
  3 31  1  0
  4 32  1  0
  5 33  1  0
  7 34  1  0
 12 35  1  0
 13 36  1  0
 14 37  1  0
 19 38  1  0
 24 39  1  0
 26 40  1  0
 27 41  1  0
M  CHG  2  10  -1  22  -1
M  END
>  <UniqueID>  (78) 
72

>  <SMILES>  (78) 
Cc1cccc(NC(=O)[N-]c2cccc(Oc3ncnc4[n-]ncc34)c2)c1

>  <Energy>  (78) 
98.71233527281878

>  <Genealogy>  (78) 
Cc1cccc(NC(=O)[N-]c2cccc(Oc3ncnc4[n-]ncc34)c2)c1 (protonated)
Cc1cccc(NC(=O)[N-]c2cccc(Oc3ncnc4[n-]ncc34)c2)c1 (3D coordinates assigned)
Cc1cccc(NC(=O)[N-]c2cccc(Oc3ncnc4[n-]ncc34)c2)c1 (optimized conformer: 98.71233527281878 kcal/mol)

>  <smiles>  (78) 
Cc1cccc(NC(=O)Nc2cccc(Oc3ncnc4[nH]ncc34)c2)c1

>  <score_type>  (78) 
oracle

>  <origin>  (78) 
adg

>  <m_score__min__energy>  (78) 
-11.59

>  <m_primary>  (78) 
energy

$$$$
78:0
     RDKit          3D

 29 31  0  0  0  0  0  0  0  0999 V2000
   49.9070   32.6310   48.5490 O   0  0  0  0  0  0  0  0  0  0  0  0
   50.6450   31.7570   49.0720 C   0  0  0  0  0  0  0  0  0  0  0  0
   51.1620   31.9590   50.3120 N   0  0  0  0  0  0  0  0  0  0  0  0
   51.9670   31.0310   50.8980 C   0  0  0  0  0  0  0  0  0  0  0  0
   52.4840   31.2680   52.2890 C   0  0  0  0  0  0  0  0  0  0  0  0
   53.3790   30.1170   52.7620 C   0  0  0  0  0  0  0  0  0  0  0  0
   54.8240   30.4000   52.4850 C   0  0  0  0  0  0  0  0  0  0  0  0
   55.2850   31.5960   52.0370 N   0  0  0  0  0  0  0  0  0  0  0  0
   56.6110   31.4140   51.9810 C   0  0  0  0  0  0  0  0  0  0  0  0
   57.5980   32.3180   51.5960 C   0  0  0  0  0  0  0  0  0  0  0  0
   58.9340   31.8750   51.6340 C   0  0  0  0  0  0  0  0  0  0  0  0
   59.2420   30.5580   52.0510 C   0  0  0  0  0  0  0  0  0  0  0  0
   58.2160   29.6730   52.4360 C   0  0  0  0  0  0  0  0  0  0  0  0
   56.9070   30.1460   52.3870 C   0  0  0  0  0  0  0  0  0  0  0  0
   55.7960   29.5260   52.6980 O   0  0  0  0  0  0  0  0  0  0  0  0
   52.2540   29.8400   50.2160 C   0  0  0  0  0  0  0  0  0  0  0  0
   51.7120   29.6520   48.9460 C   0  0  0  0  0  0  0  0  0  0  0  0
   50.9200   30.6100   48.3970 N   0  0  0  0  0  0  0  0  0  0  0  0
   53.0669   32.2008   52.2991 H   0  0  0  0  0  0  0  0  0  0  0  0
   51.6224   31.3358   52.9694 H   0  0  0  0  0  0  0  0  0  0  0  0
   53.2423   29.9788   53.8447 H   0  0  0  0  0  0  0  0  0  0  0  0
   53.0926   29.2074   52.2137 H   0  0  0  0  0  0  0  0  0  0  0  0
   54.7380   32.4560   51.8090 H   0  0  0  0  0  0  0  0  0  0  0  0
   57.3436   33.3388   51.2746 H   0  0  0  0  0  0  0  0  0  0  0  0
   59.7442   32.5574   51.3375 H   0  0  0  0  0  0  0  0  0  0  0  0
   60.2896   30.2233   52.0746 H   0  0  0  0  0  0  0  0  0  0  0  0
   58.4402   28.6470   52.7630 H   0  0  0  0  0  0  0  0  0  0  0  0
   52.8932   29.0706   50.6736 H   0  0  0  0  0  0  0  0  0  0  0  0
   51.9253   28.7283   48.3881 H   0  0  0  0  0  0  0  0  0  0  0  0
  1  2  2  0
  2  3  1  0
  3  4  2  0
  4  5  1  0
  5  6  1  0
  6  7  1  0
  7  8  2  0
  8  9  1  0
  9 10  2  0
 10 11  1  0
 11 12  2  0
 12 13  1  0
 13 14  2  0
 14 15  1  0
  4 16  1  0
 16 17  2  0
 17 18  1  0
 18  2  1  0
 15  7  1  0
 14  9  1  0
  5 19  1  0
  5 20  1  0
  6 21  1  0
  6 22  1  0
  8 23  1  0
 10 24  1  0
 11 25  1  0
 12 26  1  0
 13 27  1  0
 16 28  1  0
 17 29  1  0
M  CHG  2   8   1  18  -1
M  END
>  <UniqueID>  (79) 
73

>  <SMILES>  (79) 
O=c1nc(CCc2[nH+]c3ccccc3o2)cc[n-]1

>  <Energy>  (79) 
66.90490988152119

>  <Genealogy>  (79) 
O=c1nc(CCc2[nH+]c3ccccc3o2)cc[n-]1 (protonated)
O=c1nc(CCc2[nH+]c3ccccc3o2)cc[n-]1 (3D coordinates assigned)
O=c1nc(CCc2[nH+]c3ccccc3o2)cc[n-]1 (optimized conformer: 66.90490988152119 kcal/mol)

>  <smiles>  (79) 
O=c1nc(CCc2nc3ccccc3o2)cc[nH]1

>  <score_type>  (79) 
oracle

>  <origin>  (79) 
adg

>  <m_score__min__energy>  (79) 
-7.6299999999999999

>  <m_primary>  (79) 
energy

$$$$
79:0
     RDKit          3D

 36 38  0  0  0  0  0  0  0  0999 V2000
   58.7140   29.3270   44.1180 O   0  0  0  0  0  0  0  0  0  0  0  0
   57.8090   29.2800   44.9930 C   0  0  0  0  0  0  0  0  0  0  0  0
   57.3370   30.5140   45.5530 N   0  0  0  0  0  0  0  0  0  0  0  0
   58.0320   31.7680   45.5330 C   0  0  0  0  0  0  0  0  0  0  0  0
   57.6390   32.7310   44.5950 C   0  0  0  0  0  0  0  0  0  0  0  0
   58.2530   33.9850   44.5660 C   0  0  0  0  0  0  0  0  0  0  0  0
   59.2780   34.2820   45.4660 C   0  0  0  0  0  0  0  0  0  0  0  0
   59.7030   33.3190   46.3840 C   0  0  0  0  0  0  0  0  0  0  0  0
   59.0980   32.0520   46.4220 C   0  0  0  0  0  0  0  0  0  0  0  0
   59.6300   31.0460   47.3020 N   0  0  0  0  0  0  0  0  0  0  0  0
   58.9570   30.7640   48.5740 C   0  0  0  0  0  0  0  0  0  0  0  0
   59.2590   29.3310   49.0180 C   0  0  0  0  0  0  0  0  0  0  0  0
   59.1900   28.4730   47.8970 O   0  0  0  0  0  0  0  0  0  0  0  0
   60.3040   28.6730   47.0390 C   0  0  0  0  0  0  0  0  0  0  0  0
   60.7050   30.1550   46.8500 C   0  0  0  0  0  0  0  0  0  0  0  0
   57.2290   27.9710   45.3720 C   0  0  0  0  0  0  0  0  0  0  0  0
   58.0340   26.8290   45.4770 C   0  0  0  0  0  0  0  0  0  0  0  0
   57.4540   25.6160   45.8430 C   0  0  0  0  0  0  0  0  0  0  0  0
   56.0830   25.5640   46.0840 C   0  0  0  0  0  0  0  0  0  0  0  0
   55.5330   24.4820   46.4170 O   0  0  0  0  0  0  0  0  0  0  0  0
   55.3380   26.6930   45.9570 N   0  0  0  0  0  0  0  0  0  0  0  0
   55.8930   27.8560   45.6100 N   0  0  0  0  0  0  0  0  0  0  0  0
   56.8404   32.4977   43.8754 H   0  0  0  0  0  0  0  0  0  0  0  0
   57.9288   34.7390   43.8337 H   0  0  0  0  0  0  0  0  0  0  0  0
   59.7512   35.2749   45.4522 H   0  0  0  0  0  0  0  0  0  0  0  0
   60.5186   33.5549   47.0833 H   0  0  0  0  0  0  0  0  0  0  0  0
   59.3167   31.4665   49.3403 H   0  0  0  0  0  0  0  0  0  0  0  0
   57.8712   30.8805   48.4422 H   0  0  0  0  0  0  0  0  0  0  0  0
   60.2677   29.2859   49.4544 H   0  0  0  0  0  0  0  0  0  0  0  0
   58.5227   29.0146   49.7715 H   0  0  0  0  0  0  0  0  0  0  0  0
   61.1651   28.1345   47.4615 H   0  0  0  0  0  0  0  0  0  0  0  0
   60.0091   28.2980   46.0478 H   0  0  0  0  0  0  0  0  0  0  0  0
   61.6138   30.3604   47.4347 H   0  0  0  0  0  0  0  0  0  0  0  0
   60.8890   30.3375   45.7810 H   0  0  0  0  0  0  0  0  0  0  0  0
   59.1131   26.8894   45.2725 H   0  0  0  0  0  0  0  0  0  0  0  0
   58.0712   24.7107   45.9404 H   0  0  0  0  0  0  0  0  0  0  0  0
  1  2  2  0
  2  3  1  0
  3  4  1  0
  4  5  2  0
  5  6  1  0
  6  7  2  0
  7  8  1  0
  8  9  2  0
  9 10  1  0
 10 11  1  0
 11 12  1  0
 12 13  1  0
 13 14  1  0
 14 15  1  0
  2 16  1  0
 16 17  1  0
 17 18  2  0
 18 19  1  0
 19 20  2  0
 19 21  1  0
 21 22  1  0
  9  4  1  0
 15 10  1  0
 22 16  2  0
  5 23  1  0
  6 24  1  0
  7 25  1  0
  8 26  1  0
 11 27  1  0
 11 28  1  0
 12 29  1  0
 12 30  1  0
 14 31  1  0
 14 32  1  0
 15 33  1  0
 15 34  1  0
 17 35  1  0
 18 36  1  0
M  CHG  2   3  -1  21  -1
M  END
>  <UniqueID>  (80) 
74

>  <SMILES>  (80) 
O=C([N-]c1ccccc1N1CCOCC1)c1ccc(=O)[n-]n1

>  <Energy>  (80) 
57.143901799158655

>  <Genealogy>  (80) 
O=C([N-]c1ccccc1N1CCOCC1)c1ccc(=O)[n-]n1 (protonated)
O=C([N-]c1ccccc1N1CCOCC1)c1ccc(=O)[n-]n1 (3D coordinates assigned)
O=C([N-]c1ccccc1N1CCOCC1)c1ccc(=O)[n-]n1 (nonaromatic ring conformer: 57.143901799158655 kcal/mol)

>  <smiles>  (80) 
O=C(Nc1ccccc1N1CCOCC1)c1ccc(=O)[nH]n1

>  <score_type>  (80) 
oracle

>  <origin>  (80) 
adg

>  <m_score__min__energy>  (80) 
-11.039999999999999

>  <m_primary>  (80) 
energy

$$$$
80:0
     RDKit          3D

 34 36  0  0  0  0  0  0  0  0999 V2000
   56.8150   33.5430   46.1950 O   0  0  0  0  0  0  0  0  0  0  0  0
   57.2910   32.7780   45.3170 C   0  0  0  0  0  0  0  0  0  0  0  0
   58.3310   33.3100   44.3690 C   0  0  0  0  0  0  0  0  0  0  0  0
   58.8990   34.9720   44.8760 S   0  0  0  0  0  0  0  0  0  0  0  0
   59.8410   34.4010   46.2920 C   0  0  0  0  0  0  0  0  0  0  0  0
   61.1660   34.1640   46.1660 N   0  0  0  0  0  0  0  0  0  0  0  0
   61.8930   33.7360   47.2270 C   0  0  0  0  0  0  0  0  0  0  0  0
   63.2610   33.4920   47.0670 C   0  0  0  0  0  0  0  0  0  0  0  0
   64.0110   33.0500   48.1540 C   0  0  0  0  0  0  0  0  0  0  0  0
   63.3930   32.8560   49.3870 C   0  0  0  0  0  0  0  0  0  0  0  0
   62.0260   33.1070   49.5200 C   0  0  0  0  0  0  0  0  0  0  0  0
   61.2870   33.5420   48.4490 N   0  0  0  0  0  0  0  0  0  0  0  0
   59.9440   33.7930   48.5670 C   0  0  0  0  0  0  0  0  0  0  0  0
   59.3500   33.6310   49.6700 O   0  0  0  0  0  0  0  0  0  0  0  0
   59.2320   34.2220   47.4920 N   0  0  0  0  0  0  0  0  0  0  0  0
   56.7420   31.4600   45.1810 N   0  0  0  0  0  0  0  0  0  0  0  0
   57.4880   30.2420   45.0810 C   0  0  0  0  0  0  0  0  0  0  0  0
   58.8870   30.3030   45.0440 C   0  0  0  0  0  0  0  0  0  0  0  0
   59.6410   29.1310   44.9300 C   0  0  0  0  0  0  0  0  0  0  0  0
   59.0010   27.8930   44.8300 C   0  0  0  0  0  0  0  0  0  0  0  0
   57.6060   27.8270   44.8310 C   0  0  0  0  0  0  0  0  0  0  0  0
   56.8470   28.9960   44.9450 C   0  0  0  0  0  0  0  0  0  0  0  0
   55.4950   28.9180   44.8710 F   0  0  0  0  0  0  0  0  0  0  0  0
   59.1912   32.6245   44.3586 H   0  0  0  0  0  0  0  0  0  0  0  0
   57.8831   33.3855   43.3671 H   0  0  0  0  0  0  0  0  0  0  0  0
   63.7409   33.6481   46.0896 H   0  0  0  0  0  0  0  0  0  0  0  0
   65.0874   32.8548   48.0392 H   0  0  0  0  0  0  0  0  0  0  0  0
   63.9782   32.5072   50.2506 H   0  0  0  0  0  0  0  0  0  0  0  0
   61.5366   32.9545   50.4932 H   0  0  0  0  0  0  0  0  0  0  0  0
   58.2090   34.4120   47.5860 H   0  0  0  0  0  0  0  0  0  0  0  0
   59.3945   31.2770   45.1049 H   0  0  0  0  0  0  0  0  0  0  0  0
   60.7397   29.1837   44.9190 H   0  0  0  0  0  0  0  0  0  0  0  0
   59.5955   26.9709   44.7505 H   0  0  0  0  0  0  0  0  0  0  0  0
   57.1029   26.8529   44.7419 H   0  0  0  0  0  0  0  0  0  0  0  0
  1  2  2  0
  2  3  1  0
  3  4  1  0
  4  5  1  0
  5  6  1  0
  6  7  2  0
  7  8  1  0
  8  9  2  0
  9 10  1  0
 10 11  2  0
 11 12  1  0
 12 13  1  0
 13 14  2  0
 13 15  1  0
  2 16  1  0
 16 17  1  0
 17 18  2  0
 18 19  1  0
 19 20  2  0
 20 21  1  0
 21 22  2  0
 22 23  1  0
 15  5  2  0
 22 17  1  0
 12  7  1  0
  3 24  1  0
  3 25  1  0
  8 26  1  0
  9 27  1  0
 10 28  1  0
 11 29  1  0
 15 30  1  0
 18 31  1  0
 19 32  1  0
 20 33  1  0
 21 34  1  0
M  CHG  2  15   1  16  -1
M  END
>  <UniqueID>  (81) 
75

>  <SMILES>  (81) 
O=C(CSc1nc2ccccn2c(=O)[nH+]1)[N-]c1ccccc1F

>  <Energy>  (81) 
44.466389377377226

>  <Genealogy>  (81) 
O=C(CSc1nc2ccccn2c(=O)[nH+]1)[N-]c1ccccc1F (protonated)
O=C(CSc1nc2ccccn2c(=O)[nH+]1)[N-]c1ccccc1F (3D coordinates assigned)
O=C(CSc1nc2ccccn2c(=O)[nH+]1)[N-]c1ccccc1F (optimized conformer: 44.466389377377226 kcal/mol)

>  <smiles>  (81) 
O=C(CSc1nc(=O)n2ccccc2n1)Nc1ccccc1F

>  <score_type>  (81) 
oracle

>  <origin>  (81) 
adg

>  <m_score__min__energy>  (81) 
-8.1699999999999999

>  <m_primary>  (81) 
energy

$$$$
81:0
     RDKit          3D

 54 56  0  0  0  0  0  0  0  0999 V2000
   56.1040   29.3570   53.8130 C   0  0  0  0  0  0  0  0  0  0  0  0
   56.0620   29.7870   52.3750 C   0  0  0  0  0  0  0  0  0  0  0  0
   54.9460   29.9800   51.8230 O   0  0  0  0  0  0  0  0  0  0  0  0
   57.2560   29.9730   51.6010 N   0  0  0  0  0  0  0  0  0  0  0  0
   57.8360   31.2330   51.3660 N   0  0  0  0  0  0  0  0  0  0  0  0
   57.7540   32.2790   52.1950 C   0  0  0  0  0  0  0  0  0  0  0  0
   58.5110   33.2970   51.6370 C   0  0  0  0  0  0  0  0  0  0  0  0
   58.6810   34.5730   52.1680 O   0  0  0  0  0  0  0  0  0  0  0  0
   59.0950   32.8940   50.4900 N   0  0  0  0  0  0  0  0  0  0  0  0
   58.6700   31.6140   50.3550 C   0  0  0  0  0  0  0  0  0  0  0  0
   59.2310   30.6940   49.3050 C   0  0  0  0  0  0  0  0  0  0  0  0
   59.7610   31.5030   48.1420 C   0  0  0  0  0  0  0  0  0  0  0  0
   59.0520   31.6640   46.9440 C   0  0  0  0  0  0  0  0  0  0  0  0
   57.7780   31.0990   46.6330 N   0  0  0  0  0  0  0  0  0  0  0  0
   57.5630   30.1780   45.5510 C   0  0  0  0  0  0  0  0  0  0  0  0
   56.6200   30.3840   44.7320 O   0  0  0  0  0  0  0  0  0  0  0  0
   58.4440   28.9500   45.4240 C   0  0  0  0  0  0  0  0  0  0  0  0
   58.5830   28.2800   46.8060 C   0  0  0  0  0  0  0  0  0  0  0  0
   57.7940   27.9670   44.4330 C   0  0  0  0  0  0  0  0  0  0  0  0
   59.8530   29.3230   44.9110 C   0  0  0  0  0  0  0  0  0  0  0  0
   59.8180   32.7970   45.9770 S   0  0  0  0  0  0  0  0  0  0  0  0
   61.1010   33.0720   47.0280 C   0  0  0  0  0  0  0  0  0  0  0  0
   60.9210   32.3220   48.1990 C   0  0  0  0  0  0  0  0  0  0  0  0
   61.8800   32.3460   49.3840 C   0  0  0  0  0  0  0  0  0  0  0  0
   63.0670   33.3390   49.3130 C   0  0  0  0  0  0  0  0  0  0  0  0
   64.0960   33.0170   48.2150 C   0  0  0  0  0  0  0  0  0  0  0  0
   63.5880   33.3510   46.7970 C   0  0  0  0  0  0  0  0  0  0  0  0
   62.2130   34.0390   46.7530 C   0  0  0  0  0  0  0  0  0  0  0  0
   56.0177   30.2405   54.4626 H   0  0  0  0  0  0  0  0  0  0  0  0
   55.2686   28.6704   54.0150 H   0  0  0  0  0  0  0  0  0  0  0  0
   57.0564   28.8450   54.0150 H   0  0  0  0  0  0  0  0  0  0  0  0
   57.1926   32.3231   53.1399 H   0  0  0  0  0  0  0  0  0  0  0  0
   58.1640   35.3610   51.7900 H   0  0  0  0  0  0  0  0  0  0  0  0
   60.0490   30.1005   49.7394 H   0  0  0  0  0  0  0  0  0  0  0  0
   58.4350   30.0242   48.9475 H   0  0  0  0  0  0  0  0  0  0  0  0
   58.4273   29.0307   47.5948 H   0  0  0  0  0  0  0  0  0  0  0  0
   57.8310   27.4832   46.9045 H   0  0  0  0  0  0  0  0  0  0  0  0
   59.5899   27.8481   46.9045 H   0  0  0  0  0  0  0  0  0  0  0  0
   57.2711   27.1762   44.9908 H   0  0  0  0  0  0  0  0  0  0  0  0
   57.0741   28.5067   43.8001 H   0  0  0  0  0  0  0  0  0  0  0  0
   58.5725   27.5159   43.8001 H   0  0  0  0  0  0  0  0  0  0  0  0
   60.5202   29.4996   45.7675 H   0  0  0  0  0  0  0  0  0  0  0  0
   60.2508   28.4992   44.3001 H   0  0  0  0  0  0  0  0  0  0  0  0
   59.7911   30.2357   44.3001 H   0  0  0  0  0  0  0  0  0  0  0  0
   61.2928   32.5954   50.2801 H   0  0  0  0  0  0  0  0  0  0  0  0
   62.3442   31.3488   49.3938 H   0  0  0  0  0  0  0  0  0  0  0  0
   62.6641   34.3448   49.1235 H   0  0  0  0  0  0  0  0  0  0  0  0
   63.5975   33.2656   50.2738 H   0  0  0  0  0  0  0  0  0  0  0  0
   65.0082   33.6009   48.4072 H   0  0  0  0  0  0  0  0  0  0  0  0
   64.2869   31.9343   48.2499 H   0  0  0  0  0  0  0  0  0  0  0  0
   64.3204   34.0180   46.3188 H   0  0  0  0  0  0  0  0  0  0  0  0
   63.4719   32.3903   46.2740 H   0  0  0  0  0  0  0  0  0  0  0  0
   62.1884   34.8357   47.5111 H   0  0  0  0  0  0  0  0  0  0  0  0
   62.0676   34.4513   45.7436 H   0  0  0  0  0  0  0  0  0  0  0  0
  1  2  1  0
  2  3  2  0
  2  4  1  0
  4  5  1  0
  5  6  1  0
  6  7  2  0
  7  8  1  0
  7  9  1  0
  9 10  2  0
 10 11  1  0
 11 12  1  0
 12 13  2  0
 13 14  1  0
 14 15  1  0
 15 16  2  0
 15 17  1  0
 17 18  1  0
 17 19  1  0
 17 20  1  0
 13 21  1  0
 21 22  1  0
 22 23  2  0
 23 24  1  0
 24 25  1  0
 25 26  1  0
 26 27  1  0
 27 28  1  0
 10  5  1  0
 23 12  1  0
 28 22  1  0
  1 29  1  0
  1 30  1  0
  1 31  1  0
  6 32  1  0
  8 33  1  0
 11 34  1  0
 11 35  1  0
 18 36  1  0
 18 37  1  0
 18 38  1  0
 19 39  1  0
 19 40  1  0
 19 41  1  0
 20 42  1  0
 20 43  1  0
 20 44  1  0
 24 45  1  0
 24 46  1  0
 25 47  1  0
 25 48  1  0
 26 49  1  0
 26 50  1  0
 27 51  1  0
 27 52  1  0
 28 53  1  0
 28 54  1  0
M  CHG  2   4  -1  14  -1
M  END
>  <UniqueID>  (82) 
76

>  <SMILES>  (82) 
CC(=O)[N-]n1cc(O)nc1Cc1c([N-]C(=O)C(C)(C)C)sc2c1CCCCC2

>  <Energy>  (82) 
121.87448337353584

>  <Genealogy>  (82) 
CC(=O)[N-]n1cc(O)nc1Cc1c([N-]C(=O)C(C)(C)C)sc2c1CCCCC2 (protonated)
CC(=O)[N-]n1cc(O)nc1Cc1c([N-]C(=O)C(C)(C)C)sc2c1CCCCC2 (3D coordinates assigned)
CC(=O)[N-]n1cc(O)nc1Cc1c([N-]C(=O)C(C)(C)C)sc2c1CCCCC2 (nonaromatic ring conformer: 121.87448337353584 kcal/mol)

>  <smiles>  (82) 
CC(=O)Nn1cc(O)nc1Cc1c(NC(=O)C(C)(C)C)sc2c1CCCCC2

>  <score_type>  (82) 
oracle

>  <origin>  (82) 
adg

>  <m_score__min__energy>  (82) 
-9.0700000000000003

>  <m_primary>  (82) 
energy

$$$$
82:0
     RDKit          3D

 22 24  0  0  0  0  0  0  0  0999 V2000
   59.4940   31.0010   45.7910 C   0  0  0  0  0  0  0  0  0  0  0  0
   58.8250   32.1170   45.3290 C   0  0  0  0  0  0  0  0  0  0  0  0
   57.5690   31.9270   44.8860 N   0  0  0  0  0  0  0  0  0  0  0  0
   56.9770   30.7180   44.8870 C   0  0  0  0  0  0  0  0  0  0  0  0
   55.7680   30.2790   44.5230 N   0  0  0  0  0  0  0  0  0  0  0  0
   55.6560   28.9820   44.7290 N   0  0  0  0  0  0  0  0  0  0  0  0
   56.8120   28.4790   45.2530 C   0  0  0  0  0  0  0  0  0  0  0  0
   56.9720   27.0950   45.6050 C   0  0  0  0  0  0  0  0  0  0  0  0
   58.1170   26.3530   45.6260 C   0  0  0  0  0  0  0  0  0  0  0  0
   58.1520   25.0250   46.0350 C   0  0  0  0  0  0  0  0  0  0  0  0
   57.0070   24.4180   46.4340 N   0  0  0  0  0  0  0  0  0  0  0  0
   55.8860   25.1130   46.4210 N   0  0  0  0  0  0  0  0  0  0  0  0
   55.8240   26.4010   46.0320 C   0  0  0  0  0  0  0  0  0  0  0  0
   57.6350   29.5720   45.3510 C   0  0  0  0  0  0  0  0  0  0  0  0
   58.9090   29.7570   45.8020 C   0  0  0  0  0  0  0  0  0  0  0  0
   60.5242   31.1104   46.1607 H   0  0  0  0  0  0  0  0  0  0  0  0
   59.2953   33.1114   45.3234 H   0  0  0  0  0  0  0  0  0  0  0  0
   54.7710   28.4690   44.4980 H   0  0  0  0  0  0  0  0  0  0  0  0
   59.0557   26.8277   45.3044 H   0  0  0  0  0  0  0  0  0  0  0  0
   59.1019   24.4703   46.0350 H   0  0  0  0  0  0  0  0  0  0  0  0
   54.8553   26.9219   46.0483 H   0  0  0  0  0  0  0  0  0  0  0  0
   59.4783   28.8956   46.1812 H   0  0  0  0  0  0  0  0  0  0  0  0
  1  2  1  0
  2  3  2  0
  3  4  1  0
  4  5  2  0
  5  6  1  0
  6  7  1  0
  7  8  1  0
  8  9  2  0
  9 10  1  0
 10 11  2  0
 11 12  1  0
 12 13  2  0
  7 14  2  0
 14 15  1  0
 15  1  2  0
 14  4  1  0
 13  8  1  0
  1 16  1  0
  2 17  1  0
  6 18  1  0
  9 19  1  0
 10 20  1  0
 13 21  1  0
 15 22  1  0
M  END
>  <smiles>  (83) 
c1cnc2n[nH]c(-c3ccnnc3)c2c1

>  <score_type>  (83) 
oracle

>  <origin>  (83) 
adg

>  <m_score__min__energy>  (83) 
-6.1399999999999997

>  <m_primary>  (83) 
energy

$$$$
83:0
     RDKit          3D

 32 34  0  0  0  0  0  0  0  0999 V2000
   57.5040   27.2310   46.6870 C   0  0  0  0  0  0  0  0  0  0  0  0
   57.5670   26.7180   45.2720 C   0  0  0  0  0  0  0  0  0  0  0  0
   57.1370   25.4070   45.0030 C   0  0  0  0  0  0  0  0  0  0  0  0
   57.2190   24.8850   43.7100 C   0  0  0  0  0  0  0  0  0  0  0  0
   56.6920   23.2420   43.3930 Cl  0  0  0  0  0  0  0  0  0  0  0  0
   57.7310   25.6660   42.6720 C   0  0  0  0  0  0  0  0  0  0  0  0
   58.1420   26.9770   42.9210 C   0  0  0  0  0  0  0  0  0  0  0  0
   58.0390   27.5240   44.2080 C   0  0  0  0  0  0  0  0  0  0  0  0
   58.4570   28.8800   44.4170 N   0  0  0  0  0  0  0  0  0  0  0  0
   57.5420   29.9110   44.8180 C   0  0  0  0  0  0  0  0  0  0  0  0
   56.3040   29.6780   44.8530 O   0  0  0  0  0  0  0  0  0  0  0  0
   58.0340   31.2540   45.1750 C   0  0  0  0  0  0  0  0  0  0  0  0
   58.5210   31.6280   46.4300 C   0  0  0  0  0  0  0  0  0  0  0  0
   58.9290   32.9650   46.4680 C   0  0  0  0  0  0  0  0  0  0  0  0
   59.4600   33.6340   47.5750 C   0  0  0  0  0  0  0  0  0  0  0  0
   59.8210   34.9860   47.4380 C   0  0  0  0  0  0  0  0  0  0  0  0
   59.6520   35.6500   46.2080 C   0  0  0  0  0  0  0  0  0  0  0  0
   59.1190   34.9690   45.1020 C   0  0  0  0  0  0  0  0  0  0  0  0
   58.7680   33.6300   45.2620 C   0  0  0  0  0  0  0  0  0  0  0  0
   58.1190   32.5810   44.1240 S   0  0  0  0  0  0  0  0  0  0  0  0
   57.6074   26.3890   47.3872 H   0  0  0  0  0  0  0  0  0  0  0  0
   58.3207   27.9488   46.8535 H   0  0  0  0  0  0  0  0  0  0  0  0
   56.5379   27.7298   46.8535 H   0  0  0  0  0  0  0  0  0  0  0  0
   56.7328   24.7874   45.8171 H   0  0  0  0  0  0  0  0  0  0  0  0
   57.8106   25.2483   41.6575 H   0  0  0  0  0  0  0  0  0  0  0  0
   58.5500   27.5858   42.1007 H   0  0  0  0  0  0  0  0  0  0  0  0
   59.4080   29.1520   44.0820 H   0  0  0  0  0  0  0  0  0  0  0  0
   58.5772   30.9468   47.2919 H   0  0  0  0  0  0  0  0  0  0  0  0
   59.5928   33.1127   48.5345 H   0  0  0  0  0  0  0  0  0  0  0  0
   60.2387   35.5292   48.2985 H   0  0  0  0  0  0  0  0  0  0  0  0
   59.9390   36.7076   46.1131 H   0  0  0  0  0  0  0  0  0  0  0  0
   58.9823   35.4780   44.1365 H   0  0  0  0  0  0  0  0  0  0  0  0
  1  2  1  0
  2  3  2  0
  3  4  1  0
  4  5  1  0
  4  6  2  0
  6  7  1  0
  7  8  2  0
  8  9  1  0
  9 10  1  0
 10 11  2  0
 10 12  1  0
 12 13  2  0
 13 14  1  0
 14 15  2  0
 15 16  1  0
 16 17  2  0
 17 18  1  0
 18 19  2  0
 19 20  1  0
  8  2  1  0
 20 12  1  0
 19 14  1  0
  1 21  1  0
  1 22  1  0
  1 23  1  0
  3 24  1  0
  6 25  1  0
  7 26  1  0
  9 27  1  0
 13 28  1  0
 15 29  1  0
 16 30  1  0
 17 31  1  0
 18 32  1  0
M  END
>  <UniqueID>  (84) 
77

>  <SMILES>  (84) 
Cc1cc(Cl)ccc1NC(=O)c1cc2ccccc2s1

>  <Energy>  (84) 
70.63255483665682

>  <Genealogy>  (84) 
Cc1cc(Cl)ccc1NC(=O)c1cc2ccccc2s1 (3D coordinates assigned)
Cc1cc(Cl)ccc1NC(=O)c1cc2ccccc2s1 (optimized conformer: 70.63255483665682 kcal/mol)

>  <smiles>  (84) 
Cc1cc(Cl)ccc1NC(=O)c1cc2ccccc2s1

>  <score_type>  (84) 
oracle

>  <origin>  (84) 
adg

>  <m_score__min__energy>  (84) 
-7.8899999999999997

>  <m_primary>  (84) 
energy

$$$$
84:0
     RDKit          3D

 36 37  0  0  0  0  0  0  0  0999 V2000
   56.3640   29.2400   42.4420 N   0  0  0  0  0  0  0  0  0  0  0  0
   57.1370   29.8260   43.5410 C   0  0  1  0  0  0  0  0  0  0  0  0
   57.1530   31.3720   43.4010 C   0  0  0  0  0  0  0  0  0  0  0  0
   57.8040   32.0660   44.5710 C   0  0  0  0  0  0  0  0  0  0  0  0
   57.4000   33.3590   44.9460 C   0  0  0  0  0  0  0  0  0  0  0  0
   57.9740   33.9800   46.0600 C   0  0  0  0  0  0  0  0  0  0  0  0
   58.9520   33.3180   46.8050 C   0  0  0  0  0  0  0  0  0  0  0  0
   59.5030   33.9200   47.8890 F   0  0  0  0  0  0  0  0  0  0  0  0
   59.3620   32.0330   46.4360 C   0  0  0  0  0  0  0  0  0  0  0  0
   58.7900   31.4070   45.3230 C   0  0  0  0  0  0  0  0  0  0  0  0
   56.5470   29.3600   44.9020 C   0  0  1  0  0  0  0  0  0  0  0  0
   55.1430   29.3720   44.8500 O   0  0  0  0  0  0  0  0  0  0  0  0
   56.9840   27.9980   45.2240 N   0  0  0  0  0  0  0  0  0  0  0  0
   58.1450   27.6970   46.0190 C   0  0  0  0  0  0  0  0  0  0  0  0
   58.5200   28.4920   47.1200 C   0  0  0  0  0  0  0  0  0  0  0  0
   59.6610   28.1750   47.8640 C   0  0  0  0  0  0  0  0  0  0  0  0
   60.4360   27.0640   47.5230 C   0  0  0  0  0  0  0  0  0  0  0  0
   60.0680   26.2650   46.4380 C   0  0  0  0  0  0  0  0  0  0  0  0
   58.9280   26.5760   45.6930 C   0  0  0  0  0  0  0  0  0  0  0  0
   55.3450   29.3430   42.6500 H   0  0  0  0  0  0  0  0  0  0  0  0
   56.5720   28.2160   42.3780 H   0  0  0  0  0  0  0  0  0  0  0  0
   58.1807   29.4809   43.4998 H   0  0  0  0  0  0  0  0  0  0  0  0
   57.7053   31.6349   42.4867 H   0  0  0  0  0  0  0  0  0  0  0  0
   56.1064   31.7083   43.3615 H   0  0  0  0  0  0  0  0  0  0  0  0
   56.6301   33.8840   44.3616 H   0  0  0  0  0  0  0  0  0  0  0  0
   57.6544   34.9919   46.3498 H   0  0  0  0  0  0  0  0  0  0  0  0
   60.1351   31.5137   47.0214 H   0  0  0  0  0  0  0  0  0  0  0  0
   59.1137   30.3956   45.0362 H   0  0  0  0  0  0  0  0  0  0  0  0
   56.9066   30.0537   45.6762 H   0  0  0  0  0  0  0  0  0  0  0  0
   54.8850   29.7640   43.9750 H   0  0  0  0  0  0  0  0  0  0  0  0
   56.4310   27.1930   44.8500 H   0  0  0  0  0  0  0  0  0  0  0  0
   57.9123   29.3664   47.3958 H   0  0  0  0  0  0  0  0  0  0  0  0
   59.9490   28.8025   48.7203 H   0  0  0  0  0  0  0  0  0  0  0  0
   61.3347   26.8187   48.1080 H   0  0  0  0  0  0  0  0  0  0  0  0
   60.6771   25.3892   46.1697 H   0  0  0  0  0  0  0  0  0  0  0  0
   58.6406   25.9383   44.8441 H   0  0  0  0  0  0  0  0  0  0  0  0
  1  2  1  0
  2  3  1  0
  3  4  1  0
  4  5  2  0
  5  6  1  0
  6  7  2  0
  7  8  1  0
  7  9  1  0
  9 10  2  0
  2 11  1  0
 11 12  1  0
 11 13  1  0
 13 14  1  0
 14 15  2  0
 15 16  1  0
 16 17  2  0
 17 18  1  0
 18 19  2  0
 10  4  1  0
 19 14  1  0
  1 20  1  0
  1 21  1  0
  2 22  1  6
  3 23  1  0
  3 24  1  0
  5 25  1  0
  6 26  1  0
  9 27  1  0
 10 28  1  0
 11 29  1  1
 12 30  1  0
 13 31  1  0
 15 32  1  0
 16 33  1  0
 17 34  1  0
 18 35  1  0
 19 36  1  0
M  END
>  <UniqueID>  (85) 
78

>  <SMILES>  (85) 
N[C@@H](Cc1ccc(F)cc1)[C@@H](O)Nc1ccccc1

>  <Energy>  (85) 
33.44066620176577

>  <Genealogy>  (85) 
N[C@@H](Cc1ccc(F)cc1)[C@@H](O)Nc1ccccc1 (chirality)
N[C@@H](Cc1ccc(F)cc1)[C@@H](O)Nc1ccccc1 (3D coordinates assigned)
N[C@@H](Cc1ccc(F)cc1)[C@@H](O)Nc1ccccc1 (optimized conformer: 33.44066620176577 kcal/mol)

>  <smiles>  (85) 
NC(Cc1ccc(F)cc1)C(O)Nc1ccccc1

>  <score_type>  (85) 
oracle

>  <origin>  (85) 
adg

>  <m_score__min__energy>  (85) 
-7.2300000000000004

>  <m_primary>  (85) 
energy

$$$$
85:0
     RDKit          3D

 35 37  0  0  0  0  0  0  0  0999 V2000
   58.9440   28.6960   45.6410 C   0  0  0  0  0  0  0  0  0  0  0  0
   57.9770   29.8690   45.8350 C   0  0  2  0  0  0  0  0  0  0  0  0
   56.9950   30.0000   44.7010 C   0  0  0  0  0  0  0  0  0  0  0  0
   55.7980   29.9040   44.9270 O   0  0  0  0  0  0  0  0  0  0  0  0
   57.4500   30.3360   43.3150 C   0  0  0  0  0  0  0  0  0  0  0  0
   57.4780   31.7850   43.1380 N   0  0  0  0  0  0  0  0  0  0  0  0
   57.5350   32.3290   41.7800 C   0  0  0  0  0  0  0  0  0  0  0  0
   57.7780   32.6460   44.2490 C   0  0  0  0  0  0  0  0  0  0  0  0
   57.1300   33.7210   44.3830 O   0  0  0  0  0  0  0  0  0  0  0  0
   58.7240   32.2540   45.3190 C   0  0  0  0  0  0  0  0  0  0  0  0
   59.7480   33.0660   45.7670 C   0  0  0  0  0  0  0  0  0  0  0  0
   60.3500   32.3480   46.7850 C   0  0  0  0  0  0  0  0  0  0  0  0
   61.5130   32.7640   47.6060 C   0  0  0  0  0  0  0  0  0  0  0  0
   61.3610   33.5980   48.7290 C   0  0  0  0  0  0  0  0  0  0  0  0
   62.4750   33.9700   49.4810 C   0  0  0  0  0  0  0  0  0  0  0  0
   63.7390   33.5080   49.1110 C   0  0  0  0  0  0  0  0  0  0  0  0
   63.8780   32.7020   48.0250 N   0  0  0  0  0  0  0  0  0  0  0  0
   62.8070   32.3250   47.2740 C   0  0  0  0  0  0  0  0  0  0  0  0
   59.7230   31.1640   46.9240 N   0  0  0  0  0  0  0  0  0  0  0  0
   58.7290   31.1100   46.0500 N   0  0  0  0  0  0  0  0  0  0  0  0
   59.2589   28.3141   46.6233 H   0  0  0  0  0  0  0  0  0  0  0  0
   58.4406   27.8947   45.0802 H   0  0  0  0  0  0  0  0  0  0  0  0
   59.8266   29.0373   45.0802 H   0  0  0  0  0  0  0  0  0  0  0  0
   57.3752   29.6638   46.7326 H   0  0  0  0  0  0  0  0  0  0  0  0
   58.4594   29.9295   43.1540 H   0  0  0  0  0  0  0  0  0  0  0  0
   56.7513   29.8961   42.5882 H   0  0  0  0  0  0  0  0  0  0  0  0
   57.6495   33.4220   41.8274 H   0  0  0  0  0  0  0  0  0  0  0  0
   58.3924   31.8933   41.2461 H   0  0  0  0  0  0  0  0  0  0  0  0
   56.6059   32.0805   41.2461 H   0  0  0  0  0  0  0  0  0  0  0  0
   60.0240   34.0640   45.3959 H   0  0  0  0  0  0  0  0  0  0  0  0
   60.3613   33.9574   49.0144 H   0  0  0  0  0  0  0  0  0  0  0  0
   62.3584   34.6224   50.3589 H   0  0  0  0  0  0  0  0  0  0  0  0
   64.6232   33.7962   49.6984 H   0  0  0  0  0  0  0  0  0  0  0  0
   64.8310   32.3650   47.7600 H   0  0  0  0  0  0  0  0  0  0  0  0
   62.9549   31.6722   46.4011 H   0  0  0  0  0  0  0  0  0  0  0  0
  1  2  1  0
  2  3  1  0
  3  4  2  0
  3  5  1  0
  5  6  1  0
  6  7  1  0
  6  8  1  0
  8  9  2  0
  8 10  1  0
 10 11  2  0
 11 12  1  0
 12 13  1  0
 13 14  2  0
 14 15  1  0
 15 16  2  0
 16 17  1  0
 17 18  2  0
 12 19  2  0
 19 20  1  0
 20  2  1  0
 20 10  1  0
 18 13  1  0
  1 21  1  0
  1 22  1  0
  1 23  1  0
  2 24  1  1
  5 25  1  0
  5 26  1  0
  7 27  1  0
  7 28  1  0
  7 29  1  0
 11 30  1  0
 14 31  1  0
 15 32  1  0
 16 33  1  0
 17 34  1  0
 18 35  1  0
M  CHG  1  17   1
M  END
>  <UniqueID>  (86) 
79

>  <SMILES>  (86) 
C[C@@H]1C(=O)CN(C)C(=O)c2cc(-c3ccc[nH+]c3)nn21

>  <Energy>  (86) 
74.17624417432053

>  <Genealogy>  (86) 
CC1C(=O)CN(C)C(=O)c2cc(-c3ccc[nH+]c3)nn21 (protonated)
C[C@@H]1C(=O)CN(C)C(=O)c2cc(-c3ccc[nH+]c3)nn21 (chirality)
C[C@@H]1C(=O)CN(C)C(=O)c2cc(-c3ccc[nH+]c3)nn21 (3D coordinates assigned)
C[C@@H]1C(=O)CN(C)C(=O)c2cc(-c3ccc[nH+]c3)nn21 (nonaromatic ring conformer: 74.17624417432053 kcal/mol)

>  <smiles>  (86) 
CC1C(=O)CN(C)C(=O)c2cc(-c3cccnc3)nn21

>  <score_type>  (86) 
oracle

>  <origin>  (86) 
adg

>  <m_score__min__energy>  (86) 
-4.5

>  <m_primary>  (86) 
energy

$$$$
86:0
     RDKit          3D

 40 40  0  0  0  0  0  0  0  0999 V2000
   59.1941   25.2798   46.9756 H   0  0  0  0  0  0  0  0  0  0  0  0
   58.2900   25.7950   46.6190 C   0  0  0  0  0  0  0  0  0  0  0  0
   57.1220   25.0720   46.3870 C   0  0  0  0  0  0  0  0  0  0  0  0
   57.0982   23.9851   46.5548 H   0  0  0  0  0  0  0  0  0  0  0  0
   55.9840   25.7410   45.9400 C   0  0  0  0  0  0  0  0  0  0  0  0
   55.0558   25.1803   45.7554 H   0  0  0  0  0  0  0  0  0  0  0  0
   56.0170   27.0860   45.7310 N   0  0  0  0  0  0  0  0  0  0  0  0
   55.1440   27.5600   45.4040 H   0  0  0  0  0  0  0  0  0  0  0  0
   57.1490   27.8230   45.9360 C   0  0  0  0  0  0  0  0  0  0  0  0
   57.0960   29.1130   45.7440 N   0  0  0  0  0  0  0  0  0  0  0  0
   56.2100   29.8400   44.8770 C   0  0  0  0  0  0  0  0  0  0  0  0
   55.1070   29.3440   44.5260 O   0  0  0  0  0  0  0  0  0  0  0  0
   56.5540   31.1550   44.4370 N   0  0  0  0  0  0  0  0  0  0  0  0
   57.9180   31.6760   44.4560 C   0  0  0  0  0  0  0  0  0  0  0  0
   58.2038   31.9807   43.4384 H   0  0  0  0  0  0  0  0  0  0  0  0
   58.5954   30.8891   44.8194 H   0  0  0  0  0  0  0  0  0  0  0  0
   58.0150   32.8870   45.3920 C   0  0  0  0  0  0  0  0  0  0  0  0
   58.5351   32.5766   46.3102 H   0  0  0  0  0  0  0  0  0  0  0  0
   56.9875   33.2267   45.5891 H   0  0  0  0  0  0  0  0  0  0  0  0
   58.7790   34.0820   44.7770 C   0  0  0  0  0  0  0  0  0  0  0  0
   58.1027   34.6023   44.0828 H   0  0  0  0  0  0  0  0  0  0  0  0
   59.6664   33.6646   44.2788 H   0  0  0  0  0  0  0  0  0  0  0  0
   59.2940   35.1070   45.8080 C   0  0  0  0  0  0  0  0  0  0  0  0
   58.4240   35.5122   46.3456 H   0  0  0  0  0  0  0  0  0  0  0  0
   59.8511   35.8595   45.2307 H   0  0  0  0  0  0  0  0  0  0  0  0
   60.2850   34.5610   46.8540 C   0  0  0  0  0  0  0  0  0  0  0  0
   61.2023   35.1659   46.8030 H   0  0  0  0  0  0  0  0  0  0  0  0
   60.4448   33.5022   46.6021 H   0  0  0  0  0  0  0  0  0  0  0  0
   59.7770   34.5850   48.3090 C   0  0  0  0  0  0  0  0  0  0  0  0
   58.7417   34.9567   48.3137 H   0  0  0  0  0  0  0  0  0  0  0  0
   60.4484   35.2401   48.8835 H   0  0  0  0  0  0  0  0  0  0  0  0
   59.8040   33.2010   48.9710 C   0  0  0  0  0  0  0  0  0  0  0  0
   59.8690   33.3256   50.0620 H   0  0  0  0  0  0  0  0  0  0  0  0
   60.6772   32.6493   48.5926 H   0  0  0  0  0  0  0  0  0  0  0  0
   58.5450   32.4070   48.6340 C   0  0  0  0  0  0  0  0  0  0  0  0
   58.0488   32.0941   49.5645 H   0  0  0  0  0  0  0  0  0  0  0  0
   57.8603   33.0370   48.0473 H   0  0  0  0  0  0  0  0  0  0  0  0
   58.8185   31.5176   48.0473 H   0  0  0  0  0  0  0  0  0  0  0  0
   58.3130   27.1730   46.3990 C   0  0  0  0  0  0  0  0  0  0  0  0
   59.2318   27.7484   46.5851 H   0  0  0  0  0  0  0  0  0  0  0  0
  1  2  1  0
  2  3  1  0
  3  4  1  0
  3  5  2  0
  5  6  1  0
  5  7  1  0
  7  8  1  0
  7  9  1  0
  9 10  2  0
 10 11  1  0
 11 12  2  0
 11 13  1  0
 13 14  1  0
 14 15  1  0
 14 16  1  0
 14 17  1  0
 17 18  1  0
 17 19  1  0
 17 20  1  0
 20 21  1  0
 20 22  1  0
 20 23  1  0
 23 24  1  0
 23 25  1  0
 23 26  1  0
 26 27  1  0
 26 28  1  0
 26 29  1  0
 29 30  1  0
 29 31  1  0
 29 32  1  0
 32 33  1  0
 32 34  1  0
 32 35  1  0
 35 36  1  0
 35 37  1  0
 35 38  1  0
  9 39  1  0
 39 40  1  0
 39  2  2  0
M  CHG  1  13  -1
M  END
>  <UniqueID>  (87) 
80

>  <SMILES>  (87) 
CCCCCCCC[N-]C(=O)/N=c1\cccc[nH]1

>  <Energy>  (87) 
32.45928482962359

>  <Genealogy>  (87) 
CCCCCCCC[N-]C(=O)N=c1cccc[nH]1 (protonated)
CCCCCCCC[N-]C(=O)/N=c1\cccc[nH]1 (cis-trans isomerization)
CCCCCCCC[N-]C(=O)/N=c1\cccc[nH]1 (3D coordinates assigned)
CCCCCCCC[N-]C(=O)/N=c1\cccc[nH]1 (optimized conformer: 32.45928482962359 kcal/mol)

>  <smiles>  (87) 
CCCCCCCCNC(=O)N=c1cccc[nH]1

>  <score_type>  (87) 
oracle

>  <origin>  (87) 
adg

>  <m_score__min__energy>  (87) 
-8.4800000000000004

>  <m_primary>  (87) 
energy

$$$$
87:0
     RDKit          3D

 41 46  0  0  0  0  0  0  0  0999 V2000
   55.3150   26.6500   45.9810 O   0  0  0  0  0  0  0  0  0  0  0  0
   56.4340   26.1630   45.6640 C   0  0  0  0  0  0  0  0  0  0  0  0
   56.4710   24.8290   45.0420 C   0  0  0  0  0  0  0  0  0  0  0  0
   55.3520   24.3330   44.5490 N   0  0  0  0  0  0  0  0  0  0  0  0
   55.3130   23.0270   43.8500 C   0  0  1  0  0  0  0  0  0  0  0  0
   56.6520   22.8510   43.1760 C   0  0  0  0  0  0  0  0  0  0  0  0
   57.4990   22.7160   44.2110 C   0  0  0  0  0  0  0  0  0  0  0  0
   56.7580   21.7730   45.0790 C   0  0  0  0  0  0  0  0  0  0  0  0
   56.8700   21.3530   46.3930 C   0  0  0  0  0  0  0  0  0  0  0  0
   58.0550   21.0470   47.0480 O   0  0  0  0  0  0  0  0  0  0  0  0
   55.6560   21.2680   46.9840 N   0  0  0  0  0  0  0  0  0  0  0  0
   54.7880   21.6890   46.0370 C   0  0  0  0  0  0  0  0  0  0  0  0
   53.4340   21.8990   46.2750 O   0  0  0  0  0  0  0  0  0  0  0  0
   55.4440   21.9470   44.8530 C   0  0  0  0  0  0  0  0  0  0  0  0
   57.8060   24.1090   44.7740 C   0  0  2  0  0  0  0  0  0  0  0  0
   58.6720   24.0690   45.9990 C   0  0  0  0  0  0  0  0  0  0  0  0
   59.1570   25.1360   46.5560 N   0  0  0  0  0  0  0  0  0  0  0  0
   58.9010   26.5090   46.2190 C   0  0  0  0  0  0  0  0  0  0  0  0
   59.9450   27.4200   46.4050 C   0  0  0  0  0  0  0  0  0  0  0  0
   59.7540   28.7810   46.1790 C   0  0  0  0  0  0  0  0  0  0  0  0
   58.4900   29.2440   45.7930 C   0  0  0  0  0  0  0  0  0  0  0  0
   58.2240   30.6850   45.5450 C   0  0  0  0  0  0  0  0  0  0  0  0
   57.7420   31.1400   44.3020 C   0  0  0  0  0  0  0  0  0  0  0  0
   57.5060   32.5030   44.0880 C   0  0  0  0  0  0  0  0  0  0  0  0
   57.7550   33.4260   45.1060 C   0  0  0  0  0  0  0  0  0  0  0  0
   57.5200   34.7780   44.8910 O   0  0  0  0  0  0  0  0  0  0  0  0
   58.2440   32.9890   46.3390 C   0  0  0  0  0  0  0  0  0  0  0  0
   58.4810   31.6280   46.5580 C   0  0  0  0  0  0  0  0  0  0  0  0
   57.4810   28.3450   45.6340 N   0  0  0  0  0  0  0  0  0  0  0  0
   57.6340   27.0040   45.8240 C   0  0  0  0  0  0  0  0  0  0  0  0
   54.4129   22.9957   43.2185 H   0  0  0  0  0  0  0  0  0  0  0  0
   56.8794   22.8367   42.0998 H   0  0  0  0  0  0  0  0  0  0  0  0
   53.0970   22.0990   47.2090 H   0  0  0  0  0  0  0  0  0  0  0  0
   58.3915   24.6679   44.0292 H   0  0  0  0  0  0  0  0  0  0  0  0
   58.9062   23.0911   46.4449 H   0  0  0  0  0  0  0  0  0  0  0  0
   60.9300   27.0573   46.7341 H   0  0  0  0  0  0  0  0  0  0  0  0
   60.5890   29.4863   46.3027 H   0  0  0  0  0  0  0  0  0  0  0  0
   57.5497   30.4190   43.4938 H   0  0  0  0  0  0  0  0  0  0  0  0
   57.1236   32.8478   43.1160 H   0  0  0  0  0  0  0  0  0  0  0  0
   58.4432   33.7166   47.1396 H   0  0  0  0  0  0  0  0  0  0  0  0
   58.8714   31.2918   47.5299 H   0  0  0  0  0  0  0  0  0  0  0  0
  1  2  2  0
  2  3  1  0
  3  4  2  0
  4  5  1  0
  5  6  1  0
  6  7  2  0
  7  8  1  0
  8  9  2  0
  9 10  1  0
  9 11  1  0
 11 12  1  0
 12 13  1  0
 12 14  2  0
  7 15  1  0
 15 16  1  0
 16 17  2  0
 17 18  1  0
 18 19  2  0
 19 20  1  0
 20 21  2  0
 21 22  1  0
 22 23  2  0
 23 24  1  0
 24 25  2  0
 25 26  1  0
 25 27  1  0
 27 28  2  0
 21 29  1  0
 29 30  2  0
 30  2  1  0
 15  3  1  0
 30 18  1  0
 14  5  1  0
 28 22  1  0
 14  8  1  0
  5 31  1  6
  6 32  1  0
 13 33  1  0
 15 34  1  6
 16 35  1  0
 19 36  1  0
 20 37  1  0
 23 38  1  0
 24 39  1  0
 27 40  1  0
 28 41  1  0
M  CHG  3  10  -1  11  -1  26  -1
M  END
>  <UniqueID>  (88) 
81

>  <SMILES>  (88) 
O=C1C2=NC3C=C(c4c([O-])[n-]c(O)c43)C2C=Nc2ccc(-c3ccc([O-])cc3)nc21

>  <Energy>  (88) 
194.445468695274

>  <Genealogy>  (88) 
O=C1C2=NC3C=C(c4c([O-])[n-]c(O)c43)C2C=Nc2ccc(-c3ccc([O-])cc3)nc21 (protonated)
O=C1C2=NC3C=C(c4c([O-])[n-]c(O)c43)C2C=Nc2ccc(-c3ccc([O-])cc3)nc21 (3D coordinates assigned)
O=C1C2=NC3C=C(c4c([O-])[n-]c(O)c43)C2C=Nc2ccc(-c3ccc([O-])cc3)nc21 (nonaromatic ring conformer: 194.445468695274 kcal/mol)

>  <smiles>  (88) 
O=C1C2=NC3C=C(c4c(O)[nH]c(O)c43)C2C=Nc2ccc(-c3ccc(O)cc3)nc21

>  <score_type>  (88) 
oracle

>  <origin>  (88) 
adg

>  <m_score__min__energy>  (88) 
-10.76

>  <m_primary>  (88) 
energy

$$$$
88:0
     RDKit          3D

 25 27  0  0  0  0  0  0  0  0999 V2000
   57.4360   34.2310   44.9730 C   0  0  0  0  0  0  0  0  0  0  0  0
   57.1510   33.4550   46.1000 C   0  0  0  0  0  0  0  0  0  0  0  0
   58.0890   33.3500   47.1320 C   0  0  0  0  0  0  0  0  0  0  0  0
   59.3160   34.0280   47.0490 C   0  0  0  0  0  0  0  0  0  0  0  0
   60.2820   33.9030   48.1060 N   0  0  0  0  0  0  0  0  0  0  0  0
   60.0500   34.0620   49.4360 C   0  0  0  0  0  0  0  0  0  0  0  0
   61.1650   33.8670   50.1820 N   0  0  0  0  0  0  0  0  0  0  0  0
   62.1210   33.5870   49.2830 C   0  0  0  0  0  0  0  0  0  0  0  0
   63.4710   33.3390   49.4980 C   0  0  0  0  0  0  0  0  0  0  0  0
   64.2640   33.1270   48.4060 N   0  0  0  0  0  0  0  0  0  0  0  0
   63.7670   33.1610   47.1290 C   0  0  0  0  0  0  0  0  0  0  0  0
   62.4010   33.4160   46.9000 C   0  0  0  0  0  0  0  0  0  0  0  0
   61.5960   33.6090   48.0250 C   0  0  0  0  0  0  0  0  0  0  0  0
   59.6000   34.7930   45.9050 C   0  0  0  0  0  0  0  0  0  0  0  0
   58.6610   34.8960   44.8730 C   0  0  0  0  0  0  0  0  0  0  0  0
   56.6956   34.3183   44.1642 H   0  0  0  0  0  0  0  0  0  0  0  0
   56.1890   32.9269   46.1753 H   0  0  0  0  0  0  0  0  0  0  0  0
   57.8643   32.7325   48.0142 H   0  0  0  0  0  0  0  0  0  0  0  0
   59.0680   34.3199   49.8593 H   0  0  0  0  0  0  0  0  0  0  0  0
   61.2570   33.9330   51.2210 H   0  0  0  0  0  0  0  0  0  0  0  0
   63.8882   33.3141   50.5155 H   0  0  0  0  0  0  0  0  0  0  0  0
   64.4403   32.9878   46.2765 H   0  0  0  0  0  0  0  0  0  0  0  0
   61.9870   33.4611   45.8819 H   0  0  0  0  0  0  0  0  0  0  0  0
   60.5654   35.3134   45.8205 H   0  0  0  0  0  0  0  0  0  0  0  0
   58.8871   35.5008   43.9824 H   0  0  0  0  0  0  0  0  0  0  0  0
  1  2  2  0
  2  3  1  0
  3  4  2  0
  4  5  1  0
  5  6  1  0
  6  7  2  0
  7  8  1  0
  8  9  2  0
  9 10  1  0
 10 11  2  0
 11 12  1  0
 12 13  2  0
  4 14  1  0
 14 15  2  0
 15  1  1  0
 13  5  1  0
 13  8  1  0
  1 16  1  0
  2 17  1  0
  3 18  1  0
  6 19  1  0
  7 20  1  0
  9 21  1  0
 11 22  1  0
 12 23  1  0
 14 24  1  0
 15 25  1  0
M  CHG  1   7   1
M  END
>  <UniqueID>  (89) 
82

>  <SMILES>  (89) 
c1ccc(-n2c[nH+]c3cnccc32)cc1

>  <Energy>  (89) 
73.72925617822827

>  <Genealogy>  (89) 
c1ccc(-n2c[nH+]c3cnccc32)cc1 (protonated)
c1ccc(-n2c[nH+]c3cnccc32)cc1 (3D coordinates assigned)
c1ccc(-n2c[nH+]c3cnccc32)cc1 (optimized conformer: 73.72925617822827 kcal/mol)

>  <smiles>  (89) 
c1ccc(-n2cnc3cnccc32)cc1

>  <score_type>  (89) 
oracle

>  <origin>  (89) 
adg

>  <m_score__min__energy>  (89) 
-4.4699999999999998

>  <m_primary>  (89) 
energy

$$$$
89:0
     RDKit          3D

 21 22  0  0  0  0  0  0  0  0999 V2000
   56.1520   29.4920   43.2030 C   0  0  0  0  0  0  0  0  0  0  0  0
   56.9140   30.7310   43.5710 C   0  0  0  0  0  0  0  0  0  0  0  0
   57.4540   31.5450   42.5660 C   0  0  0  0  0  0  0  0  0  0  0  0
   58.1320   32.7140   42.9110 C   0  0  0  0  0  0  0  0  0  0  0  0
   58.2570   33.0730   44.2570 C   0  0  0  0  0  0  0  0  0  0  0  0
   58.9330   34.2450   44.6340 C   0  0  0  0  0  0  0  0  0  0  0  0
   59.0410   34.5860   45.9840 C   0  0  0  0  0  0  0  0  0  0  0  0
   58.4760   33.7650   46.9640 C   0  0  0  0  0  0  0  0  0  0  0  0
   57.8010   32.5960   46.6010 C   0  0  0  0  0  0  0  0  0  0  0  0
   57.6870   32.2400   45.2470 C   0  0  0  0  0  0  0  0  0  0  0  0
   57.0270   31.1020   44.8810 N   0  0  0  0  0  0  0  0  0  0  0  0
   55.8325   28.9725   44.1185 H   0  0  0  0  0  0  0  0  0  0  0  0
   55.2674   29.7681   42.6104 H   0  0  0  0  0  0  0  0  0  0  0  0
   56.7974   28.8270   42.6104 H   0  0  0  0  0  0  0  0  0  0  0  0
   57.3435   31.2628   41.5086 H   0  0  0  0  0  0  0  0  0  0  0  0
   58.5670   33.3515   42.1271 H   0  0  0  0  0  0  0  0  0  0  0  0
   59.3776   34.8946   43.8656 H   0  0  0  0  0  0  0  0  0  0  0  0
   59.5723   35.5035   46.2770 H   0  0  0  0  0  0  0  0  0  0  0  0
   58.5629   34.0400   48.0255 H   0  0  0  0  0  0  0  0  0  0  0  0
   57.3584   31.9539   47.3768 H   0  0  0  0  0  0  0  0  0  0  0  0
   56.6000   30.4960   45.6180 H   0  0  0  0  0  0  0  0  0  0  0  0
  1  2  1  0
  2  3  2  0
  3  4  1  0
  4  5  2  0
  5  6  1  0
  6  7  2  0
  7  8  1  0
  8  9  2  0
  9 10  1  0
 10 11  2  0
 11  2  1  0
 10  5  1  0
  1 12  1  0
  1 13  1  0
  1 14  1  0
  3 15  1  0
  4 16  1  0
  6 17  1  0
  7 18  1  0
  8 19  1  0
  9 20  1  0
 11 21  1  0
M  CHG  1  11   1
M  END
>  <UniqueID>  (90) 
83

>  <SMILES>  (90) 
Cc1ccc2ccccc2[nH+]1

>  <Energy>  (90) 
23.731985458337594

>  <Genealogy>  (90) 
Cc1ccc2ccccc2[nH+]1 (protonated)
Cc1ccc2ccccc2[nH+]1 (3D coordinates assigned)
Cc1ccc2ccccc2[nH+]1 (optimized conformer: 23.731985458337594 kcal/mol)

>  <smiles>  (90) 
Cc1ccc2ccccc2n1

>  <score_type>  (90) 
oracle

>  <origin>  (90) 
adg

>  <m_score__min__energy>  (90) 
-4.0099999999999998

>  <m_primary>  (90) 
energy

$$$$
90:0
     RDKit          3D

 37 39  0  0  0  0  0  0  0  0999 V2000
   57.7800   26.2540   46.9080 C   0  0  0  0  0  0  0  0  0  0  0  0
   58.4640   26.3370   45.5400 C   0  0  0  0  0  0  0  0  0  0  0  0
   57.6860   25.5540   44.4780 C   0  0  0  0  0  0  0  0  0  0  0  0
   58.6350   27.7370   45.1310 N   0  0  0  0  0  0  0  0  0  0  0  0
   59.8090   28.3870   44.9210 C   0  0  0  0  0  0  0  0  0  0  0  0
   59.6510   29.6960   44.5840 N   0  0  0  0  0  0  0  0  0  0  0  0
   58.3130   29.8450   44.5810 C   0  0  0  0  0  0  0  0  0  0  0  0
   57.5490   30.9860   44.3460 C   0  0  0  0  0  0  0  0  0  0  0  0
   58.1450   32.2540   44.0190 N   0  0  0  0  0  0  0  0  0  0  0  0
   58.1300   32.7130   42.6250 C   0  0  0  0  0  0  0  0  0  0  0  0
   58.5320   33.1540   45.0830 C   0  0  0  0  0  0  0  0  0  0  0  0
   58.2120   32.8740   46.4270 C   0  0  0  0  0  0  0  0  0  0  0  0
   58.5900   33.7560   47.4440 C   0  0  0  0  0  0  0  0  0  0  0  0
   59.2880   34.9260   47.1340 C   0  0  0  0  0  0  0  0  0  0  0  0
   59.6090   35.2170   45.8070 C   0  0  0  0  0  0  0  0  0  0  0  0
   59.2330   34.3390   44.7870 C   0  0  0  0  0  0  0  0  0  0  0  0
   56.1920   30.8720   44.4810 N   0  0  0  0  0  0  0  0  0  0  0  0
   55.6010   29.6810   44.8180 C   0  0  0  0  0  0  0  0  0  0  0  0
   56.3620   28.5700   45.0430 N   0  0  0  0  0  0  0  0  0  0  0  0
   57.7070   28.6810   44.9150 C   0  0  0  0  0  0  0  0  0  0  0  0
   58.5358   26.3457   47.7020 H   0  0  0  0  0  0  0  0  0  0  0  0
   57.0483   27.0699   47.0022 H   0  0  0  0  0  0  0  0  0  0  0  0
   57.2647   25.2867   47.0022 H   0  0  0  0  0  0  0  0  0  0  0  0
   59.4586   25.8765   45.6334 H   0  0  0  0  0  0  0  0  0  0  0  0
   56.9930   24.8565   44.9711 H   0  0  0  0  0  0  0  0  0  0  0  0
   57.1161   26.2546   43.8501 H   0  0  0  0  0  0  0  0  0  0  0  0
   58.3903   24.9886   43.8501 H   0  0  0  0  0  0  0  0  0  0  0  0
   60.7921   27.9024   45.0143 H   0  0  0  0  0  0  0  0  0  0  0  0
   58.0941   33.8122   42.6013 H   0  0  0  0  0  0  0  0  0  0  0  0
   59.0400   32.3648   42.1145 H   0  0  0  0  0  0  0  0  0  0  0  0
   57.2447   32.3061   42.1145 H   0  0  0  0  0  0  0  0  0  0  0  0
   57.6612   31.9554   46.6774 H   0  0  0  0  0  0  0  0  0  0  0  0
   58.3374   33.5283   48.4901 H   0  0  0  0  0  0  0  0  0  0  0  0
   59.5847   35.6181   47.9359 H   0  0  0  0  0  0  0  0  0  0  0  0
   60.1585   36.1384   45.5640 H   0  0  0  0  0  0  0  0  0  0  0  0
   59.4869   34.5756   43.7432 H   0  0  0  0  0  0  0  0  0  0  0  0
   54.5063   29.6205   44.9076 H   0  0  0  0  0  0  0  0  0  0  0  0
  1  2  1  0
  2  3  1  0
  2  4  1  0
  4  5  1  0
  5  6  2  0
  6  7  1  0
  7  8  2  0
  8  9  1  0
  9 10  1  0
  9 11  1  0
 11 12  2  0
 12 13  1  0
 13 14  2  0
 14 15  1  0
 15 16  2  0
  8 17  1  0
 17 18  2  0
 18 19  1  0
 19 20  2  0
 20  4  1  0
 20  7  1  0
 16 11  1  0
  1 21  1  0
  1 22  1  0
  1 23  1  0
  2 24  1  0
  3 25  1  0
  3 26  1  0
  3 27  1  0
  5 28  1  0
 10 29  1  0
 10 30  1  0
 10 31  1  0
 12 32  1  0
 13 33  1  0
 14 34  1  0
 15 35  1  0
 16 36  1  0
 18 37  1  0
M  END
>  <UniqueID>  (91) 
84

>  <SMILES>  (91) 
CC(C)n1cnc2c(N(C)c3ccccc3)ncnc21

>  <Energy>  (91) 
84.07602224199545

>  <Genealogy>  (91) 
CC(C)n1cnc2c(N(C)c3ccccc3)ncnc21 (3D coordinates assigned)
CC(C)n1cnc2c(N(C)c3ccccc3)ncnc21 (optimized conformer: 84.07602224199545 kcal/mol)

>  <smiles>  (91) 
CC(C)n1cnc2c(N(C)c3ccccc3)ncnc21

>  <score_type>  (91) 
oracle

>  <origin>  (91) 
adg

>  <m_score__min__energy>  (91) 
-6.6299999999999999

>  <m_primary>  (91) 
energy

$$$$
91:0
     RDKit          3D

 39 41  0  0  0  0  0  0  0  0999 V2000
   56.4710   30.7930   43.1540 O   0  0  0  0  0  0  0  0  0  0  0  0
   57.2800   31.0820   44.0750 C   0  0  0  0  0  0  0  0  0  0  0  0
   57.8220   32.4070   44.1260 N   0  0  0  0  0  0  0  0  0  0  0  0
   57.4260   33.4320   45.0870 C   0  0  0  0  0  0  0  0  0  0  0  0
   58.6520   34.2220   45.5480 C   0  0  0  0  0  0  0  0  0  0  0  0
   59.2610   33.6100   46.7770 C   0  0  0  0  0  0  0  0  0  0  0  0
   58.5760   32.9890   47.8170 C   0  0  0  0  0  0  0  0  0  0  0  0
   59.4460   32.4820   48.7200 N   0  0  0  0  0  0  0  0  0  0  0  0
   60.6750   32.7670   48.2520 C   0  0  0  0  0  0  0  0  0  0  0  0
   61.8970   32.4260   48.8300 C   0  0  0  0  0  0  0  0  0  0  0  0
   63.0720   32.8080   48.1550 C   0  0  0  0  0  0  0  0  0  0  0  0
   62.9980   33.5090   46.9300 C   0  0  0  0  0  0  0  0  0  0  0  0
   61.7490   33.8370   46.3700 C   0  0  0  0  0  0  0  0  0  0  0  0
   60.6030   33.4500   47.0660 C   0  0  0  0  0  0  0  0  0  0  0  0
   57.6130   30.0590   45.0850 C   0  0  0  0  0  0  0  0  0  0  0  0
   58.5950   30.3060   46.0540 C   0  0  0  0  0  0  0  0  0  0  0  0
   58.9220   29.3290   47.0090 C   0  0  0  0  0  0  0  0  0  0  0  0
   59.9250   29.5880   48.0100 N   0  0  0  0  0  0  0  0  0  0  0  0
   61.1380   29.5910   47.7100 O   0  0  0  0  0  0  0  0  0  0  0  0
   59.5650   29.8400   49.3140 O   0  0  0  0  0  0  0  0  0  0  0  0
   58.2610   28.0890   46.9720 C   0  0  0  0  0  0  0  0  0  0  0  0
   57.2920   27.8170   45.9910 C   0  0  0  0  0  0  0  0  0  0  0  0
   56.6290   26.5380   45.9580 N   0  0  0  0  0  0  0  0  0  0  0  0
   57.2890   25.4800   45.8970 O   0  0  0  0  0  0  0  0  0  0  0  0
   55.2550   26.4610   45.9940 O   0  0  0  0  0  0  0  0  0  0  0  0
   56.9800   28.8090   45.0450 C   0  0  0  0  0  0  0  0  0  0  0  0
   56.7086   34.1178   44.6126 H   0  0  0  0  0  0  0  0  0  0  0  0
   56.9610   32.9480   45.9585 H   0  0  0  0  0  0  0  0  0  0  0  0
   59.3998   34.2271   44.7413 H   0  0  0  0  0  0  0  0  0  0  0  0
   58.3354   35.2474   45.7894 H   0  0  0  0  0  0  0  0  0  0  0  0
   57.4809   32.9201   47.8939 H   0  0  0  0  0  0  0  0  0  0  0  0
   59.2090   31.9610   49.5930 H   0  0  0  0  0  0  0  0  0  0  0  0
   61.9417   31.8767   49.7820 H   0  0  0  0  0  0  0  0  0  0  0  0
   64.0540   32.5593   48.5838 H   0  0  0  0  0  0  0  0  0  0  0  0
   63.9229   33.8003   46.4106 H   0  0  0  0  0  0  0  0  0  0  0  0
   61.6786   34.3800   45.4160 H   0  0  0  0  0  0  0  0  0  0  0  0
   59.1152   31.2751   46.0669 H   0  0  0  0  0  0  0  0  0  0  0  0
   58.5054   27.3212   47.7209 H   0  0  0  0  0  0  0  0  0  0  0  0
   56.2317   28.6022   44.2657 H   0  0  0  0  0  0  0  0  0  0  0  0
  1  2  2  0
  2  3  1  0
  3  4  1  0
  4  5  1  0
  5  6  1  0
  6  7  2  0
  7  8  1  0
  8  9  1  0
  9 10  2  0
 10 11  1  0
 11 12  2  0
 12 13  1  0
 13 14  2  0
  2 15  1  0
 15 16  2  0
 16 17  1  0
 17 18  1  0
 18 19  2  0
 18 20  1  0
 17 21  2  0
 21 22  1  0
 22 23  1  0
 23 24  2  0
 23 25  1  0
 22 26  2  0
 14  6  1  0
 26 15  1  0
 14  9  1  0
  4 27  1  0
  4 28  1  0
  5 29  1  0
  5 30  1  0
  7 31  1  0
  8 32  1  0
 10 33  1  0
 11 34  1  0
 12 35  1  0
 13 36  1  0
 16 37  1  0
 21 38  1  0
 26 39  1  0
M  CHG  5   3  -1  18   1  20  -1  23   1  25  -1
M  END
>  <UniqueID>  (92) 
85

>  <SMILES>  (92) 
O=C([N-]CCc1c[nH]c2ccccc12)c1cc([N+](=O)[O-])cc([N+](=O)[O-])c1

>  <Energy>  (92) 
77.56156958541267

>  <Genealogy>  (92) 
O=C([N-]CCc1c[nH]c2ccccc12)c1cc([N+](=O)[O-])cc([N+](=O)[O-])c1 (protonated)
O=C([N-]CCc1c[nH]c2ccccc12)c1cc([N+](=O)[O-])cc([N+](=O)[O-])c1 (3D coordinates assigned)
O=C([N-]CCc1c[nH]c2ccccc12)c1cc([N+](=O)[O-])cc([N+](=O)[O-])c1 (optimized conformer: 77.56156958541267 kcal/mol)

>  <smiles>  (92) 
O=C(NCCc1c[nH]c2ccccc12)c1cc([N+](=O)[O-])cc([N+](=O)[O-])c1

>  <score_type>  (92) 
oracle

>  <origin>  (92) 
adg

>  <m_score__min__energy>  (92) 
-8.9299999999999997

>  <m_primary>  (92) 
energy

$$$$
92:0
     RDKit          3D

 32 34  0  0  0  0  0  0  0  0999 V2000
   54.7470   30.0440   44.9180 H   0  0  0  0  0  0  0  0  0  0  0  0
   55.6840   29.8610   44.4950 N   0  0  0  0  0  0  0  0  0  0  0  0
   56.7800   30.1000   45.1440 C   0  0  0  0  0  0  0  0  0  0  0  0
   57.2480   31.3740   45.2210 N   0  0  0  0  0  0  0  0  0  0  0  0
   58.3960   31.6980   45.8750 C   0  0  0  0  0  0  0  0  0  0  0  0
   58.8350   33.1170   45.9100 C   0  0  0  0  0  0  0  0  0  0  0  0
   58.8200   33.9200   44.7530 C   0  0  0  0  0  0  0  0  0  0  0  0
   58.4846   33.5001   43.7932 H   0  0  0  0  0  0  0  0  0  0  0  0
   59.2330   35.2520   44.8300 C   0  0  0  0  0  0  0  0  0  0  0  0
   59.2273   35.8811   43.9277 H   0  0  0  0  0  0  0  0  0  0  0  0
   59.6420   35.7730   46.0170 N   0  0  0  0  0  0  0  0  0  0  0  0
   59.6600   35.0280   47.1520 C   0  0  0  0  0  0  0  0  0  0  0  0
   59.9945   35.4780   48.0984 H   0  0  0  0  0  0  0  0  0  0  0  0
   59.2550   33.6920   47.1210 C   0  0  0  0  0  0  0  0  0  0  0  0
   59.2648   33.0913   48.0425 H   0  0  0  0  0  0  0  0  0  0  0  0
   59.1250   30.6840   46.5170 C   0  0  0  0  0  0  0  0  0  0  0  0
   60.0507   30.9316   47.0572 H   0  0  0  0  0  0  0  0  0  0  0  0
   58.6750   29.3550   46.4710 C   0  0  0  0  0  0  0  0  0  0  0  0
   59.4610   28.3100   47.1710 C   0  0  0  0  0  0  0  0  0  0  0  0
   59.6410   28.3620   48.5640 C   0  0  0  0  0  0  0  0  0  0  0  0
   59.1860   29.1779   49.1448 H   0  0  0  0  0  0  0  0  0  0  0  0
   60.3960   27.3810   49.2150 C   0  0  0  0  0  0  0  0  0  0  0  0
   60.5279   27.4235   50.3062 H   0  0  0  0  0  0  0  0  0  0  0  0
   60.9830   26.3470   48.4810 C   0  0  0  0  0  0  0  0  0  0  0  0
   61.5743   25.5747   48.9948 H   0  0  0  0  0  0  0  0  0  0  0  0
   60.8190   26.2940   47.0950 C   0  0  0  0  0  0  0  0  0  0  0  0
   61.2835   25.4808   46.5179 H   0  0  0  0  0  0  0  0  0  0  0  0
   60.0660   27.2720   46.4400 C   0  0  0  0  0  0  0  0  0  0  0  0
   59.9459   27.2298   45.3474 H   0  0  0  0  0  0  0  0  0  0  0  0
   57.4900   29.0530   45.7640 C   0  0  0  0  0  0  0  0  0  0  0  0
   57.0230   27.6880   45.6360 C   0  0  0  0  0  0  0  0  0  0  0  0
   56.6500   26.5970   45.5330 N   0  0  0  0  0  0  0  0  0  0  0  0
  1  2  1  0
  2  3  2  0
  3  4  1  0
  4  5  1  0
  5  6  1  0
  6  7  2  0
  7  8  1  0
  7  9  1  0
  9 10  1  0
  9 11  2  0
 11 12  1  0
 12 13  1  0
 12 14  2  0
 14 15  1  0
  5 16  2  0
 16 17  1  0
 16 18  1  0
 18 19  1  0
 19 20  2  0
 20 21  1  0
 20 22  1  0
 22 23  1  0
 22 24  2  0
 24 25  1  0
 24 26  1  0
 26 27  1  0
 26 28  2  0
 28 29  1  0
 18 30  2  0
 30 31  1  0
 31 32  3  0
 30  3  1  0
 14  6  1  0
 28 19  1  0
M  CHG  1   4  -1
M  END
>  <UniqueID>  (93) 
86

>  <SMILES>  (93) 
[H]/N=c1\[n-]c(-c2ccncc2)cc(-c2ccccc2)c1C#N

>  <Energy>  (93) 
48.41733022617794

>  <Genealogy>  (93) 
N#Cc1c(-c2ccccc2)cc(-c2ccncc2)[n-]c1=N (protonated)
[H]/N=c1\[n-]c(-c2ccncc2)cc(-c2ccccc2)c1C#N (cis-trans isomerization)
[H]/N=c1\[n-]c(-c2ccncc2)cc(-c2ccccc2)c1C#N (3D coordinates assigned)
[H]/N=c1\[n-]c(-c2ccncc2)cc(-c2ccccc2)c1C#N (optimized conformer: 48.41733022617794 kcal/mol)

>  <smiles>  (93) 
N#Cc1c(-c2ccccc2)cc(-c2ccncc2)[nH]c1=N

>  <score_type>  (93) 
oracle

>  <origin>  (93) 
adg

>  <m_score__min__energy>  (93) 
-7.9500000000000002

>  <m_primary>  (93) 
energy

$$$$
