0:0
     RDKit          3D

 42 43  0  0  1  0  0  0  0  0999 V2000
   59.1980   34.1520   45.4260 C   0  0  0  0  0  0  0  0  0  0  0  0
   57.8480   34.0010   44.7910 C   0  0  0  0  0  0  0  0  0  0  0  0
   57.8550   32.8020   43.8640 C   0  0  0  0  0  0  0  0  0  0  0  0
   57.3560   31.3310   44.7260 S   0  0  0  0  0  0  0  0  0  0  0  0
   57.6730   31.5600   46.1820 O   0  0  0  0  0  0  0  0  0  0  0  0
   55.8740   31.1990   44.5170 O   0  0  0  0  0  0  0  0  0  0  0  0
   58.2170   29.9620   44.1870 N   0  0  0  0  0  0  0  0  0  0  0  0
   58.3100   28.7350   44.8980 C   0  0  0  0  0  0  0  0  0  0  0  0
   59.5350   28.1690   45.2340 C   0  0  0  0  0  0  0  0  0  0  0  0
   59.6320   26.9730   45.9210 C   0  0  0  0  0  0  0  0  0  0  0  0
   58.5010   26.2840   46.3060 C   0  0  0  0  0  0  0  0  0  0  0  0
   58.6030   25.1250   46.9720 F   0  0  0  0  0  0  0  0  0  0  0  0
   57.2730   26.8250   45.9850 C   0  0  0  0  0  0  0  0  0  0  0  0
   55.7760   22.5050   43.5370 N   0  0  0  0  0  0  0  0  0  0  0  0
   55.8030   23.0350   44.7130 C   0  0  0  0  0  0  0  0  0  0  0  0
   55.8460   24.0490   47.2210 N   0  0  0  0  0  0  0  0  0  0  0  0
   55.7000   22.7320   47.0780 C   0  0  0  0  0  0  0  0  0  0  0  0
   55.6740   22.1820   45.7980 C   0  0  0  0  0  0  0  0  0  0  0  0
   55.4660   20.3000   45.5870 Br  0  0  0  0  0  0  0  0  0  0  0  0
   55.9670   24.8470   46.1410 C   0  0  0  0  0  0  0  0  0  0  0  0
   56.1050   26.1160   46.3820 N   0  0  0  0  0  0  0  0  0  0  0  0
   56.9810   21.8930   42.9560 C   0  0  0  0  0  0  0  0  0  0  0  0
   55.9490   24.3620   44.8810 N   0  0  0  0  0  0  0  0  0  0  0  0
   57.1930   28.0150   45.3020 C   0  0  0  0  0  0  0  0  0  0  0  0
   55.9370   28.5290   44.9950 O   0  0  0  0  0  0  0  0  0  0  0  0
   59.0917   34.1401   46.5208 H   0  0  0  0  0  0  0  0  0  0  0  0
   59.8462   33.3208   45.1115 H   0  0  0  0  0  0  0  0  0  0  0  0
   59.6465   35.1059   45.1115 H   0  0  0  0  0  0  0  0  0  0  0  0
   57.0893   33.8544   45.5738 H   0  0  0  0  0  0  0  0  0  0  0  0
   57.6112   34.9076   44.2148 H   0  0  0  0  0  0  0  0  0  0  0  0
   57.1588   32.9857   43.0324 H   0  0  0  0  0  0  0  0  0  0  0  0
   58.8773   32.6572   43.4846 H   0  0  0  0  0  0  0  0  0  0  0  0
   58.7380   29.9800   43.2590 H   0  0  0  0  0  0  0  0  0  0  0  0
   60.4587   28.6908   44.9432 H   0  0  0  0  0  0  0  0  0  0  0  0
   60.6245   26.5656   46.1637 H   0  0  0  0  0  0  0  0  0  0  0  0
   55.8620   24.4470   48.2040 H   0  0  0  0  0  0  0  0  0  0  0  0
   55.6009   22.0852   47.9622 H   0  0  0  0  0  0  0  0  0  0  0  0
   57.6465   21.5550   43.7640 H   0  0  0  0  0  0  0  0  0  0  0  0
   56.6920   21.0324   42.3348 H   0  0  0  0  0  0  0  0  0  0  0  0
   57.5055   22.6340   42.3348 H   0  0  0  0  0  0  0  0  0  0  0  0
   56.0430   24.9820   44.0640 H   0  0  0  0  0  0  0  0  0  0  0  0
   55.1150   27.9810   44.8730 H   0  0  0  0  0  0  0  0  0  0  0  0
  1  2  1  0
  2  3  1  0
  3  4  1  0
  4  5  2  0
  4  6  2  0
  4  7  1  0
  7  8  1  0
  8  9  2  0
  9 10  1  0
 10 11  2  0
 11 12  1  0
 11 13  1  0
 13 14  1  0
 14 15  2  0
 15 16  1  0
 16 17  1  0
 17 18  2  0
 18 19  1  0
 18 20  1  0
 20 21  2  0
 21 22  1  0
 20 23  1  0
 13 24  2  0
 24 25  1  0
 24  8  1  0
 23 15  1  0
  1 26  1  0
  1 27  1  0
  1 28  1  0
  2 29  1  0
  2 30  1  0
  3 31  1  0
  3 32  1  0
  7 33  1  0
  9 34  1  0
 10 35  1  0
 16 36  1  0
 17 37  1  0
 22 38  1  0
 22 39  1  0
 22 40  1  0
 23 41  1  0
 25 42  1  0
M  END
>  <smiles>  (1) 
CCCS(=O)(=O)Nc1ccc(F)c(N=c2[nH]cc(Br)c(=NC)[nH]2)c1O

>  <score_type>  (1) 
oracle

>  <origin>  (1) 
adg

>  <m_score__min__energy>  (1) 
-8.6799999999999997

>  <m_primary>  (1) 
energy

$$$$
1:0
     RDKit          3D

 48 50  0  0  0  0  0  0  0  0999 V2000
   55.4660   22.5350   47.5520 C   0  0  0  0  0  0  0  0  0  0  0  0
   55.7930   22.7230   46.0940 C   0  0  0  0  0  0  0  0  0  0  0  0
   55.9970   21.5870   45.2920 C   0  0  0  0  0  0  0  0  0  0  0  0
   56.3510   21.7220   43.9480 C   0  0  0  0  0  0  0  0  0  0  0  0
   56.5040   22.9910   43.3880 C   0  0  0  0  0  0  0  0  0  0  0  0
   56.2840   24.1290   44.1670 C   0  0  0  0  0  0  0  0  0  0  0  0
   55.8970   24.0090   45.5080 C   0  0  0  0  0  0  0  0  0  0  0  0
   55.6670   25.2080   46.2590 N   0  0  0  0  0  0  0  0  0  0  0  0
   56.6760   26.1850   46.5380 C   0  0  0  0  0  0  0  0  0  0  0  0
   57.4740   26.0170   47.5000 O   0  0  0  0  0  0  0  0  0  0  0  0
   56.7600   27.3600   45.7220 N   0  0  0  0  0  0  0  0  0  0  0  0
   57.7430   28.3820   45.9400 C   0  0  0  0  0  0  0  0  0  0  0  0
   58.9470   28.0250   46.5610 C   0  0  0  0  0  0  0  0  0  0  0  0
   59.9060   28.9910   46.8550 C   0  0  0  0  0  0  0  0  0  0  0  0
   59.6850   30.3220   46.5130 C   0  0  0  0  0  0  0  0  0  0  0  0
   58.5100   30.7020   45.8400 C   0  0  0  0  0  0  0  0  0  0  0  0
   58.3110   32.0710   45.4470 N   0  0  0  0  0  0  0  0  0  0  0  0
   58.4380   33.2230   46.2900 C   0  0  0  0  0  0  0  0  0  0  0  0
   57.5140   34.0810   46.2810 O   0  0  0  0  0  0  0  0  0  0  0  0
   59.6400   33.4590   47.1250 C   0  0  0  0  0  0  0  0  0  0  0  0
   60.9140   33.5530   46.5420 C   0  0  0  0  0  0  0  0  0  0  0  0
   62.0420   33.7780   47.3370 C   0  0  0  0  0  0  0  0  0  0  0  0
   61.9180   33.9260   48.7290 C   0  0  0  0  0  0  0  0  0  0  0  0
   63.0770   34.1570   49.5500 N   0  0  0  0  0  0  0  0  0  0  0  0
   63.0300   34.9550   50.5090 O   0  0  0  0  0  0  0  0  0  0  0  0
   64.2590   33.5000   49.2920 O   0  0  0  0  0  0  0  0  0  0  0  0
   60.6400   33.8480   49.3080 C   0  0  0  0  0  0  0  0  0  0  0  0
   59.5120   33.6220   48.5140 C   0  0  0  0  0  0  0  0  0  0  0  0
   57.5200   29.7310   45.5550 C   0  0  0  0  0  0  0  0  0  0  0  0
   56.3010   30.1080   44.7970 C   0  0  0  0  0  0  0  0  0  0  0  0
   55.1430   29.2770   44.8220 N   0  0  0  0  0  0  0  0  0  0  0  0
   56.2840   31.1690   44.1160 O   0  0  0  0  0  0  0  0  0  0  0  0
   56.2568   22.9897   48.1667 H   0  0  0  0  0  0  0  0  0  0  0  0
   54.5035   23.0176   47.7771 H   0  0  0  0  0  0  0  0  0  0  0  0
   55.3988   21.4604   47.7771 H   0  0  0  0  0  0  0  0  0  0  0  0
   55.8769   20.5836   45.7265 H   0  0  0  0  0  0  0  0  0  0  0  0
   56.5096   20.8263   43.3295 H   0  0  0  0  0  0  0  0  0  0  0  0
   56.7979   23.0949   42.3331 H   0  0  0  0  0  0  0  0  0  0  0  0
   56.4156   25.1273   43.7242 H   0  0  0  0  0  0  0  0  0  0  0  0
   56.2290   27.3680   44.8220 H   0  0  0  0  0  0  0  0  0  0  0  0
   59.1365   26.9725   46.8186 H   0  0  0  0  0  0  0  0  0  0  0  0
   60.8401   28.7016   47.3586 H   0  0  0  0  0  0  0  0  0  0  0  0
   60.4359   31.0832   46.7713 H   0  0  0  0  0  0  0  0  0  0  0  0
   61.0253   33.4489   45.4526 H   0  0  0  0  0  0  0  0  0  0  0  0
   63.0354   33.8397   46.8687 H   0  0  0  0  0  0  0  0  0  0  0  0
   60.5262   33.9658   50.3957 H   0  0  0  0  0  0  0  0  0  0  0  0
   58.5171   33.5715   48.9804 H   0  0  0  0  0  0  0  0  0  0  0  0
   54.4460   29.3510   45.5960 H   0  0  0  0  0  0  0  0  0  0  0  0
  1  2  1  0
  2  3  2  0
  3  4  1  0
  4  5  2  0
  5  6  1  0
  6  7  2  0
  7  8  1  0
  8  9  1  0
  9 10  2  0
  9 11  1  0
 11 12  1  0
 12 13  2  0
 13 14  1  0
 14 15  2  0
 15 16  1  0
 16 17  1  0
 17 18  1  0
 18 19  2  0
 18 20  1  0
 20 21  2  0
 21 22  1  0
 22 23  2  0
 23 24  1  0
 24 25  2  0
 24 26  1  0
 23 27  1  0
 27 28  2  0
 16 29  2  0
 29 30  1  0
 30 31  1  0
 30 32  2  0
  7  2  1  0
 29 12  1  0
 28 20  1  0
  1 33  1  0
  1 34  1  0
  1 35  1  0
  3 36  1  0
  4 37  1  0
  5 38  1  0
  6 39  1  0
 11 40  1  0
 13 41  1  0
 14 42  1  0
 15 43  1  0
 21 44  1  0
 22 45  1  0
 27 46  1  0
 28 47  1  0
 31 48  1  0
M  CHG  5   8  -1  17  -1  24   1  26  -1  31  -1
M  END
>  <UniqueID>  (2) 
1

>  <SMILES>  (2) 
Cc1ccccc1[N-]C(=O)Nc1cccc([N-]C(=O)c2ccc([N+](=O)[O-])cc2)c1C([NH-])=O

>  <Energy>  (2) 
76.08501853139062

>  <Genealogy>  (2) 
Cc1ccccc1[N-]C(=O)Nc1cccc([N-]C(=O)c2ccc([N+](=O)[O-])cc2)c1C([NH-])=O (protonated)
Cc1ccccc1[N-]C(=O)Nc1cccc([N-]C(=O)c2ccc([N+](=O)[O-])cc2)c1C([NH-])=O (3D coordinates assigned)
Cc1ccccc1[N-]C(=O)Nc1cccc([N-]C(=O)c2ccc([N+](=O)[O-])cc2)c1C([NH-])=O (optimized conformer: 76.08501853139062 kcal/mol)

>  <smiles>  (2) 
Cc1ccccc1NC(=O)Nc1cccc(NC(=O)c2ccc([N+](=O)[O-])cc2)c1C(N)=O

>  <score_type>  (2) 
oracle

>  <origin>  (2) 
adg

>  <m_score__min__energy>  (2) 
-15.380000000000001

>  <m_primary>  (2) 
energy

$$$$
2:0
     RDKit          3D

 50 53  0  0  0  0  0  0  0  0999 V2000
   56.0552   30.1515   45.0773 H   0  0  0  0  0  0  0  0  0  0  0  0
   56.6600   30.8880   44.5280 C   0  0  0  0  0  0  0  0  0  0  0  0
   57.0820   32.0210   45.1500 N   0  0  0  0  0  0  0  0  0  0  0  0
   57.8420   32.9610   44.5220 C   0  0  0  0  0  0  0  0  0  0  0  0
   58.1910   34.0200   45.2000 N   0  0  0  0  0  0  0  0  0  0  0  0
   58.8740   34.1060   46.4630 C   0  0  0  0  0  0  0  0  0  0  0  0
   58.5020   34.9380   47.3350 O   0  0  0  0  0  0  0  0  0  0  0  0
   60.0790   33.2770   46.7070 C   0  0  0  0  0  0  0  0  0  0  0  0
   61.2800   33.8730   47.1340 C   0  0  0  0  0  0  0  0  0  0  0  0
   61.3288   34.9624   47.2781 H   0  0  0  0  0  0  0  0  0  0  0  0
   62.4110   33.0890   47.3760 C   0  0  0  0  0  0  0  0  0  0  0  0
   63.3440   33.5628   47.7151 H   0  0  0  0  0  0  0  0  0  0  0  0
   62.3610   31.7070   47.1890 C   0  0  0  0  0  0  0  0  0  0  0  0
   63.2516   31.0936   47.3905 H   0  0  0  0  0  0  0  0  0  0  0  0
   61.1760   31.0970   46.7440 C   0  0  0  0  0  0  0  0  0  0  0  0
   61.0810   29.7090   46.5620 O   0  0  0  0  0  0  0  0  0  0  0  0
   59.8880   28.9750   46.4950 C   0  0  0  0  0  0  0  0  0  0  0  0
   59.3390   28.3440   47.6260 C   0  0  0  0  0  0  0  0  0  0  0  0
   59.8418   28.4306   48.6005 H   0  0  0  0  0  0  0  0  0  0  0  0
   58.1560   27.6070   47.5150 C   0  0  0  0  0  0  0  0  0  0  0  0
   57.7198   27.1369   48.4087 H   0  0  0  0  0  0  0  0  0  0  0  0
   57.5230   27.4630   46.2760 C   0  0  0  0  0  0  0  0  0  0  0  0
   56.2980   26.7200   46.2040 N   0  0  0  0  0  0  0  0  0  0  0  0
   56.1650   25.3580   45.7830 C   0  0  0  0  0  0  0  0  0  0  0  0
   55.0770   24.7600   45.9960 O   0  0  0  0  0  0  0  0  0  0  0  0
   57.2810   24.6500   45.2210 N   0  0  0  0  0  0  0  0  0  0  0  0
   58.2390   25.0020   45.4410 H   0  0  0  0  0  0  0  0  0  0  0  0
   57.1580   23.4310   44.4670 C   0  0  0  0  0  0  0  0  0  0  0  0
   56.3740   23.3730   43.2980 C   0  0  0  0  0  0  0  0  0  0  0  0
   55.8271   24.2658   42.9606 H   0  0  0  0  0  0  0  0  0  0  0  0
   56.2880   22.1860   42.5650 C   0  0  0  0  0  0  0  0  0  0  0  0
   55.6657   22.1450   41.6589 H   0  0  0  0  0  0  0  0  0  0  0  0
   56.9890   21.0530   42.9790 C   0  0  0  0  0  0  0  0  0  0  0  0
   56.9150   20.1191   42.4025 H   0  0  0  0  0  0  0  0  0  0  0  0
   57.7850   21.1050   44.1260 C   0  0  0  0  0  0  0  0  0  0  0  0
   58.3406   20.2124   44.4492 H   0  0  0  0  0  0  0  0  0  0  0  0
   57.8770   22.2890   44.8640 C   0  0  0  0  0  0  0  0  0  0  0  0
   58.6540   22.3200   45.9760 F   0  0  0  0  0  0  0  0  0  0  0  0
   58.0700   28.0970   45.1470 C   0  0  0  0  0  0  0  0  0  0  0  0
   57.5654   28.0130   44.1732 H   0  0  0  0  0  0  0  0  0  0  0  0
   59.2530   28.8340   45.2570 C   0  0  0  0  0  0  0  0  0  0  0  0
   59.6873   29.3063   44.3635 H   0  0  0  0  0  0  0  0  0  0  0  0
   60.0390   31.8820   46.5210 C   0  0  0  0  0  0  0  0  0  0  0  0
   59.1032   31.4035   46.1966 H   0  0  0  0  0  0  0  0  0  0  0  0
   58.1800   32.7660   43.1650 C   0  0  0  0  0  0  0  0  0  0  0  0
   58.7730   33.5204   42.6273 H   0  0  0  0  0  0  0  0  0  0  0  0
   57.7550   31.6070   42.5110 C   0  0  0  0  0  0  0  0  0  0  0  0
   58.0211   31.4418   41.4565 H   0  0  0  0  0  0  0  0  0  0  0  0
   56.9940   30.6600   43.1940 C   0  0  0  0  0  0  0  0  0  0  0  0
   56.6607   29.7430   42.6861 H   0  0  0  0  0  0  0  0  0  0  0  0
  1  2  1  0
  2  3  1  0
  3  4  1  0
  4  5  2  0
  5  6  1  0
  6  7  2  0
  6  8  1  0
  8  9  2  0
  9 10  1  0
  9 11  1  0
 11 12  1  0
 11 13  2  0
 13 14  1  0
 13 15  1  0
 15 16  1  0
 16 17  1  0
 17 18  2  0
 18 19  1  0
 18 20  1  0
 20 21  1  0
 20 22  2  0
 22 23  1  0
 23 24  1  0
 24 25  2  0
 24 26  1  0
 26 27  1  0
 26 28  1  0
 28 29  2  0
 29 30  1  0
 29 31  1  0
 31 32  1  0
 31 33  2  0
 33 34  1  0
 33 35  1  0
 35 36  1  0
 35 37  2  0
 37 38  1  0
 22 39  1  0
 39 40  1  0
 39 41  2  0
 41 42  1  0
 15 43  2  0
 43 44  1  0
  4 45  1  0
 45 46  1  0
 45 47  2  0
 47 48  1  0
 47 49  1  0
 49 50  1  0
 49  2  2  0
 43  8  1  0
 41 17  1  0
 37 28  1  0
M  CHG  2   3  -1  23  -1
M  END
>  <UniqueID>  (3) 
2

>  <SMILES>  (3) 
O=C([N-]c1ccc(Oc2cccc(C(=O)/N=c3\cccc[n-]3)c2)cc1)Nc1ccccc1F

>  <Energy>  (3) 
78.17209560403177

>  <Genealogy>  (3) 
O=C([N-]c1ccc(Oc2cccc(C(=O)N=c3cccc[n-]3)c2)cc1)Nc1ccccc1F (protonated)
O=C([N-]c1ccc(Oc2cccc(C(=O)/N=c3\cccc[n-]3)c2)cc1)Nc1ccccc1F (cis-trans isomerization)
O=C([N-]c1ccc(Oc2cccc(C(=O)/N=c3\cccc[n-]3)c2)cc1)Nc1ccccc1F (3D coordinates assigned)
O=C([N-]c1ccc(Oc2cccc(C(=O)/N=c3\cccc[n-]3)c2)cc1)Nc1ccccc1F (optimized conformer: 78.17209560403177 kcal/mol)

>  <smiles>  (3) 
O=C(Nc1ccc(Oc2cccc(C(=O)N=c3cccc[nH]3)c2)cc1)Nc1ccccc1F

>  <score_type>  (3) 
oracle

>  <origin>  (3) 
adg

>  <m_score__min__energy>  (3) 
-12.51

>  <m_primary>  (3) 
energy

$$$$
3:0
     RDKit          3D

 56 59  0  0  0  0  0  0  0  0999 V2000
   56.3890   30.1160   43.2280 C   0  0  0  0  0  0  0  0  0  0  0  0
   57.6730   29.7790   43.8600 N   0  0  0  0  0  0  0  0  0  0  0  0
   57.6500   28.4110   44.4470 C   0  0  0  0  0  0  0  0  0  0  0  0
   57.6960   28.3970   45.9810 C   0  0  0  0  0  0  0  0  0  0  0  0
   58.8320   29.1970   46.4590 N   0  0  0  0  0  0  0  0  0  0  0  0
   59.5070   28.8680   47.6930 C   0  0  0  0  0  0  0  0  0  0  0  0
   59.7670   29.8620   48.6540 C   0  0  0  0  0  0  0  0  0  0  0  0
   60.4370   29.5290   49.8380 C   0  0  0  0  0  0  0  0  0  0  0  0
   60.6830   30.5770   50.8890 C   0  0  0  0  0  0  0  0  0  0  0  0
   60.7030   31.9120   50.2890 N   0  0  0  0  0  0  0  0  0  0  0  0
   61.6040   32.2820   49.2240 C   0  0  0  0  0  0  0  0  0  0  0  0
   62.8520   31.6400   49.0880 C   0  0  0  0  0  0  0  0  0  0  0  0
   63.7510   32.0330   48.0950 C   0  0  0  0  0  0  0  0  0  0  0  0
   63.4230   33.0690   47.2220 C   0  0  0  0  0  0  0  0  0  0  0  0
   62.1910   33.7120   47.3360 C   0  0  0  0  0  0  0  0  0  0  0  0
   61.2720   33.3300   48.3280 C   0  0  0  0  0  0  0  0  0  0  0  0
   59.9500   33.9960   48.3670 C   0  0  0  0  0  0  0  0  0  0  0  0
   59.5460   34.4720   49.4630 O   0  0  0  0  0  0  0  0  0  0  0  0
   59.0850   34.0920   47.1630 C   0  0  0  0  0  0  0  0  0  0  0  0
   57.8100   33.4930   47.1350 C   0  0  0  0  0  0  0  0  0  0  0  0
   57.0130   33.5800   45.9890 C   0  0  0  0  0  0  0  0  0  0  0  0
   57.4780   34.2570   44.8600 C   0  0  0  0  0  0  0  0  0  0  0  0
   58.7440   34.8470   44.8720 C   0  0  0  0  0  0  0  0  0  0  0  0
   59.5460   34.7630   46.0140 C   0  0  0  0  0  0  0  0  0  0  0  0
   60.8160   28.2010   50.0600 C   0  0  0  0  0  0  0  0  0  0  0  0
   60.5470   27.2390   49.0870 C   0  0  0  0  0  0  0  0  0  0  0  0
   59.9110   27.5840   47.9350 N   0  0  0  0  0  0  0  0  0  0  0  0
   59.2240   30.3940   45.7060 C   0  0  0  0  0  0  0  0  0  0  0  0
   58.0800   30.8490   44.7970 C   0  0  0  0  0  0  0  0  0  0  0  0
   55.6376   30.3132   44.0068 H   0  0  0  0  0  0  0  0  0  0  0  0
   56.5124   31.0122   42.6022 H   0  0  0  0  0  0  0  0  0  0  0  0
   56.0564   29.2747   42.6022 H   0  0  0  0  0  0  0  0  0  0  0  0
   56.7263   27.9094   44.1227 H   0  0  0  0  0  0  0  0  0  0  0  0
   58.5545   27.8943   44.0936 H   0  0  0  0  0  0  0  0  0  0  0  0
   56.7609   28.8199   46.3770 H   0  0  0  0  0  0  0  0  0  0  0  0
   57.8142   27.3600   46.3284 H   0  0  0  0  0  0  0  0  0  0  0  0
   59.4448   30.8986   48.4759 H   0  0  0  0  0  0  0  0  0  0  0  0
   59.8815   30.5303   51.6409 H   0  0  0  0  0  0  0  0  0  0  0  0
   61.6580   30.3850   51.3606 H   0  0  0  0  0  0  0  0  0  0  0  0
   60.0350   32.6280   50.6560 H   0  0  0  0  0  0  0  0  0  0  0  0
   63.1200   30.8209   49.7715 H   0  0  0  0  0  0  0  0  0  0  0  0
   64.7214   31.5235   48.0011 H   0  0  0  0  0  0  0  0  0  0  0  0
   64.1357   33.3791   46.4436 H   0  0  0  0  0  0  0  0  0  0  0  0
   61.9359   34.5266   46.6423 H   0  0  0  0  0  0  0  0  0  0  0  0
   57.4394   32.9540   48.0193 H   0  0  0  0  0  0  0  0  0  0  0  0
   56.0168   33.1136   45.9772 H   0  0  0  0  0  0  0  0  0  0  0  0
   56.8475   34.3257   43.9612 H   0  0  0  0  0  0  0  0  0  0  0  0
   59.1105   35.3786   43.9815 H   0  0  0  0  0  0  0  0  0  0  0  0
   60.5445   35.2245   46.0150 H   0  0  0  0  0  0  0  0  0  0  0  0
   61.3222   27.9178   50.9946 H   0  0  0  0  0  0  0  0  0  0  0  0
   60.8509   26.1948   49.2520 H   0  0  0  0  0  0  0  0  0  0  0  0
   59.7160   26.8320   47.2380 H   0  0  0  0  0  0  0  0  0  0  0  0
   59.4702   31.2016   46.4111 H   0  0  0  0  0  0  0  0  0  0  0  0
   60.1002   30.1549   45.0854 H   0  0  0  0  0  0  0  0  0  0  0  0
   57.2168   31.1256   45.4202 H   0  0  0  0  0  0  0  0  0  0  0  0
   58.4294   31.7094   44.2073 H   0  0  0  0  0  0  0  0  0  0  0  0
  1  2  1  0
  2  3  1  0
  3  4  1  0
  4  5  1  0
  5  6  1  0
  6  7  2  0
  7  8  1  0
  8  9  1  0
  9 10  1  0
 10 11  1  0
 11 12  2  0
 12 13  1  0
 13 14  2  0
 14 15  1  0
 15 16  2  0
 16 17  1  0
 17 18  2  0
 17 19  1  0
 19 20  2  0
 20 21  1  0
 21 22  2  0
 22 23  1  0
 23 24  2  0
  8 25  2  0
 25 26  1  0
 26 27  2  0
  5 28  1  0
 28 29  1  0
 29  2  1  0
 27  6  1  0
 16 11  1  0
 24 19  1  0
  1 30  1  0
  1 31  1  0
  1 32  1  0
  3 33  1  0
  3 34  1  0
  4 35  1  0
  4 36  1  0
  7 37  1  0
  9 38  1  0
  9 39  1  0
 10 40  1  0
 12 41  1  0
 13 42  1  0
 14 43  1  0
 15 44  1  0
 20 45  1  0
 21 46  1  0
 22 47  1  0
 23 48  1  0
 24 49  1  0
 25 50  1  0
 26 51  1  0
 27 52  1  0
 28 53  1  0
 28 54  1  0
 29 55  1  0
 29 56  1  0
M  CHG  1  27   1
M  END
>  <UniqueID>  (4) 
3

>  <SMILES>  (4) 
CN1CCN(c2cc(CNc3ccccc3C(=O)c3ccccc3)cc[nH+]2)CC1

>  <Energy>  (4) 
76.95972330747863

>  <Genealogy>  (4) 
CN1CCN(c2cc(CNc3ccccc3C(=O)c3ccccc3)cc[nH+]2)CC1 (protonated)
CN1CCN(c2cc(CNc3ccccc3C(=O)c3ccccc3)cc[nH+]2)CC1 (3D coordinates assigned)
CN1CCN(c2cc(CNc3ccccc3C(=O)c3ccccc3)cc[nH+]2)CC1 (nonaromatic ring conformer: 76.95972330747863 kcal/mol)

>  <smiles>  (4) 
CN1CCN(c2cc(CNc3ccccc3C(=O)c3ccccc3)ccn2)CC1

>  <score_type>  (4) 
oracle

>  <origin>  (4) 
adg

>  <m_score__min__energy>  (4) 
-7.9800000000000004

>  <m_primary>  (4) 
energy

$$$$
4:0
     RDKit          3D

 34 36  0  0  0  0  0  0  0  0999 V2000
   55.3140   26.5170   45.9990 N   0  0  0  0  0  0  0  0  0  0  0  0
   56.7770   25.6540   46.3140 S   0  0  0  0  0  0  0  0  0  0  0  0
   56.9890   24.6180   45.2450 O   0  0  0  0  0  0  0  0  0  0  0  0
   56.6760   24.9610   47.6440 O   0  0  0  0  0  0  0  0  0  0  0  0
   58.1270   26.7830   46.3330 C   0  0  0  0  0  0  0  0  0  0  0  0
   58.5900   27.3020   47.5490 C   0  0  0  0  0  0  0  0  0  0  0  0
   59.6200   28.2460   47.5650 C   0  0  0  0  0  0  0  0  0  0  0  0
   60.1810   28.7010   46.3600 C   0  0  0  0  0  0  0  0  0  0  0  0
   61.1690   29.7430   46.3460 N   0  0  0  0  0  0  0  0  0  0  0  0
   60.9100   31.0990   46.7520 C   0  0  0  0  0  0  0  0  0  0  0  0
   62.1450   32.0070   47.3230 S   0  0  0  0  0  0  0  0  0  0  0  0
   59.5940   31.6770   46.6760 N   0  0  0  0  0  0  0  0  0  0  0  0
   58.5930   31.2760   45.7260 C   0  0  0  0  0  0  0  0  0  0  0  0
   58.5430   31.9160   44.4600 C   0  0  0  0  0  0  0  0  0  0  0  0
   57.5300   31.6010   43.5360 C   0  0  0  0  0  0  0  0  0  0  0  0
   56.6020   30.6350   43.9060 C   0  0  0  0  0  0  0  0  0  0  0  0
   55.5030   30.1150   43.2660 C   0  0  0  0  0  0  0  0  0  0  0  0
   54.9410   29.1920   44.0840 N   0  0  0  0  0  0  0  0  0  0  0  0
   55.6450   29.1150   45.2100 N   0  0  0  0  0  0  0  0  0  0  0  0
   56.6580   29.9920   45.1060 C   0  0  0  0  0  0  0  0  0  0  0  0
   57.6470   30.2720   46.0440 C   0  0  0  0  0  0  0  0  0  0  0  0
   59.7440   28.1490   45.1470 C   0  0  0  0  0  0  0  0  0  0  0  0
   58.7130   27.2050   45.1320 C   0  0  0  0  0  0  0  0  0  0  0  0
   55.5250   27.2130   45.2490 H   0  0  0  0  0  0  0  0  0  0  0  0
   58.1409   26.9650   48.4949 H   0  0  0  0  0  0  0  0  0  0  0  0
   59.9929   28.6342   48.5243 H   0  0  0  0  0  0  0  0  0  0  0  0
   62.1240   29.5110   45.9890 H   0  0  0  0  0  0  0  0  0  0  0  0
   59.3460   32.4200   47.3690 H   0  0  0  0  0  0  0  0  0  0  0  0
   59.3041   32.6660   44.1987 H   0  0  0  0  0  0  0  0  0  0  0  0
   57.4746   32.1005   42.5575 H   0  0  0  0  0  0  0  0  0  0  0  0
   55.1427   30.3980   42.2659 H   0  0  0  0  0  0  0  0  0  0  0  0
   57.6922   29.7312   47.0008 H   0  0  0  0  0  0  0  0  0  0  0  0
   60.2148   28.4604   44.2029 H   0  0  0  0  0  0  0  0  0  0  0  0
   58.3608   26.7924   44.1751 H   0  0  0  0  0  0  0  0  0  0  0  0
  1  2  1  0
  2  3  2  0
  2  4  2  0
  2  5  1  0
  5  6  2  0
  6  7  1  0
  7  8  2  0
  8  9  1  0
  9 10  1  0
 10 11  2  0
 10 12  1  0
 12 13  1  0
 13 14  1  0
 14 15  2  0
 15 16  1  0
 16 17  2  0
 17 18  1  0
 18 19  1  0
 19 20  2  0
 20 21  1  0
  8 22  1  0
 22 23  2  0
 23  5  1  0
 21 13  2  0
 20 16  1  0
  1 24  1  0
  6 25  1  0
  7 26  1  0
  9 27  1  0
 12 28  1  0
 14 29  1  0
 15 30  1  0
 17 31  1  0
 21 32  1  0
 22 33  1  0
 23 34  1  0
M  CHG  2   1  -1  18  -1
M  END
>  <UniqueID>  (5) 
4

>  <SMILES>  (5) 
[NH-]S(=O)(=O)c1ccc(NC(=S)Nc2ccc3c[n-]nc3c2)cc1

>  <Energy>  (5) 
79.56986043476451

>  <Genealogy>  (5) 
[NH-]S(=O)(=O)c1ccc(NC(=S)Nc2ccc3c[n-]nc3c2)cc1 (protonated)
[NH-]S(=O)(=O)c1ccc(NC(=S)Nc2ccc3c[n-]nc3c2)cc1 (3D coordinates assigned)
[NH-]S(=O)(=O)c1ccc(NC(=S)Nc2ccc3c[n-]nc3c2)cc1 (optimized conformer: 79.56986043476451 kcal/mol)

>  <smiles>  (5) 
NS(=O)(=O)c1ccc(NC(=S)Nc2ccc3c[nH]nc3c2)cc1

>  <score_type>  (5) 
oracle

>  <origin>  (5) 
adg

>  <m_score__min__energy>  (5) 
-11.890000000000001

>  <m_primary>  (5) 
energy

$$$$
5:0
     RDKit          3D

 50 53  0  0  0  0  0  0  0  0999 V2000
   56.4640   30.8910   51.3560 C   0  0  0  0  0  0  0  0  0  0  0  0
   56.5120   30.5020   52.6410 C   0  0  0  0  0  0  0  0  0  0  0  0
   57.5350   30.8030   53.5460 C   0  0  0  0  0  0  0  0  0  0  0  0
   58.6310   31.5570   53.3290 C   0  0  0  0  0  0  0  0  0  0  0  0
   59.4300   31.4930   52.0840 C   0  0  0  0  0  0  0  0  0  0  0  0
   60.5570   30.6680   52.0220 C   0  0  0  0  0  0  0  0  0  0  0  0
   60.9190   29.8830   53.1140 O   0  0  0  0  0  0  0  0  0  0  0  0
   61.2980   30.6220   50.8860 N   0  0  0  0  0  0  0  0  0  0  0  0
   60.9800   31.3700   49.8000 C   0  0  0  0  0  0  0  0  0  0  0  0
   61.6890   31.2700   48.7620 O   0  0  0  0  0  0  0  0  0  0  0  0
   59.8980   32.2120   49.8320 N   0  0  0  0  0  0  0  0  0  0  0  0
   59.5670   33.0100   48.6770 C   0  0  0  0  0  0  0  0  0  0  0  0
   58.4650   32.6720   47.8740 C   0  0  0  0  0  0  0  0  0  0  0  0
   58.1440   33.4490   46.7560 C   0  0  0  0  0  0  0  0  0  0  0  0
   58.9190   34.5660   46.4330 C   0  0  0  0  0  0  0  0  0  0  0  0
   60.0160   34.9100   47.2280 C   0  0  0  0  0  0  0  0  0  0  0  0
   60.3410   34.1360   48.3460 C   0  0  0  0  0  0  0  0  0  0  0  0
   59.1320   32.2960   50.9670 C   0  0  0  0  0  0  0  0  0  0  0  0
   58.1710   33.1140   51.0250 O   0  0  0  0  0  0  0  0  0  0  0  0
   57.1890   30.1940   54.7430 C   0  0  0  0  0  0  0  0  0  0  0  0
   55.9870   29.5540   54.5290 C   0  0  0  0  0  0  0  0  0  0  0  0
   55.2790   28.7300   55.5620 C   0  0  0  0  0  0  0  0  0  0  0  0
   55.5680   29.7350   53.2530 N   0  0  0  0  0  0  0  0  0  0  0  0
   54.3510   29.1480   52.6680 C   0  0  0  0  0  0  0  0  0  0  0  0
   53.2830   30.1970   52.4980 C   0  0  0  0  0  0  0  0  0  0  0  0
   53.1350   30.8680   51.2720 C   0  0  0  0  0  0  0  0  0  0  0  0
   52.1360   31.8330   51.1110 C   0  0  0  0  0  0  0  0  0  0  0  0
   51.2780   32.1370   52.1720 C   0  0  0  0  0  0  0  0  0  0  0  0
   50.2850   33.0970   52.0100 O   0  0  0  0  0  0  0  0  0  0  0  0
   51.4200   31.4770   53.3970 C   0  0  0  0  0  0  0  0  0  0  0  0
   52.4180   30.5120   53.5610 C   0  0  0  0  0  0  0  0  0  0  0  0
   55.6114   30.6002   50.7248 H   0  0  0  0  0  0  0  0  0  0  0  0
   57.2773   31.5003   50.9351 H   0  0  0  0  0  0  0  0  0  0  0  0
   58.9481   32.2557   54.1172 H   0  0  0  0  0  0  0  0  0  0  0  0
   61.8280   29.9860   53.5500 H   0  0  0  0  0  0  0  0  0  0  0  0
   57.8525   31.7935   48.1252 H   0  0  0  0  0  0  0  0  0  0  0  0
   57.2802   33.1803   46.1302 H   0  0  0  0  0  0  0  0  0  0  0  0
   58.6656   35.1749   45.5526 H   0  0  0  0  0  0  0  0  0  0  0  0
   60.6242   35.7906   46.9737 H   0  0  0  0  0  0  0  0  0  0  0  0
   61.2055   34.4090   48.9690 H   0  0  0  0  0  0  0  0  0  0  0  0
   57.7626   30.2172   55.6813 H   0  0  0  0  0  0  0  0  0  0  0  0
   55.5716   29.0705   56.5662 H   0  0  0  0  0  0  0  0  0  0  0  0
   54.1917   28.8428   55.4389 H   0  0  0  0  0  0  0  0  0  0  0  0
   55.5542   27.6721   55.4389 H   0  0  0  0  0  0  0  0  0  0  0  0
   54.5940   28.7175   51.6854 H   0  0  0  0  0  0  0  0  0  0  0  0
   53.9748   28.3664   53.3444 H   0  0  0  0  0  0  0  0  0  0  0  0
   53.8086   30.6328   50.4347 H   0  0  0  0  0  0  0  0  0  0  0  0
   52.0251   32.3536   50.1483 H   0  0  0  0  0  0  0  0  0  0  0  0
   50.7457   31.7175   54.2321 H   0  0  0  0  0  0  0  0  0  0  0  0
   52.5272   29.9964   54.5265 H   0  0  0  0  0  0  0  0  0  0  0  0
  1  2  2  0
  2  3  1  0
  3  4  2  3
  4  5  1  0
  5  6  2  0
  6  7  1  0
  6  8  1  0
  8  9  1  0
  9 10  2  0
  9 11  1  0
 11 12  1  0
 12 13  2  0
 13 14  1  0
 14 15  2  0
 15 16  1  0
 16 17  2  0
 11 18  1  0
 18 19  2  0
  3 20  1  0
 20 21  2  0
 21 22  1  0
 21 23  1  0
 23 24  1  0
 24 25  1  0
 25 26  2  0
 26 27  1  0
 27 28  2  0
 28 29  1  0
 28 30  1  0
 30 31  2  0
 23  2  1  0
 31 25  1  0
 18  5  1  0
 17 12  1  0
  1 32  1  0
  1 33  1  0
  4 34  1  0
  7 35  1  0
 13 36  1  0
 14 37  1  0
 15 38  1  0
 16 39  1  0
 17 40  1  0
 20 41  1  0
 22 42  1  0
 22 43  1  0
 22 44  1  0
 24 45  1  0
 24 46  1  0
 26 47  1  0
 27 48  1  0
 30 49  1  0
 31 50  1  0
M  CHG  2   8  -1  29  -1
M  END
>  <UniqueID>  (6) 
5

>  <SMILES>  (6) 
C=c1c(=Cc2c(O)[n-]c(=O)n(-c3ccccc3)c2=O)cc(C)n1Cc1ccc([O-])cc1

>  <Energy>  (6) 
101.80724119307364

>  <Genealogy>  (6) 
C=c1c(=Cc2c(O)[n-]c(=O)n(-c3ccccc3)c2=O)cc(C)n1Cc1ccc([O-])cc1 (protonated)
C=c1c(=Cc2c(O)[n-]c(=O)n(-c3ccccc3)c2=O)cc(C)n1Cc1ccc([O-])cc1 (3D coordinates assigned)
C=c1c(=Cc2c(O)[n-]c(=O)n(-c3ccccc3)c2=O)cc(C)n1Cc1ccc([O-])cc1 (optimized conformer: 101.80724119307364 kcal/mol)

>  <smiles>  (6) 
C=c1c(=Cc2c(O)[nH]c(=O)n(-c3ccccc3)c2=O)cc(C)n1Cc1ccc(O)cc1

>  <score_type>  (6) 
oracle

>  <origin>  (6) 
adg

>  <m_score__min__energy>  (6) 
-12.82

>  <m_primary>  (6) 
energy

$$$$
6:0
     RDKit          3D

 23 24  0  0  0  0  0  0  0  0999 V2000
   56.2870   29.2880   42.3590 N   0  0  0  0  0  0  0  0  0  0  0  0
   56.8040   30.4150   42.7250 C   0  0  0  0  0  0  0  0  0  0  0  0
   57.3140   31.3030   41.8400 N   0  0  0  0  0  0  0  0  0  0  0  0
   57.8460   32.4710   42.2510 C   0  0  0  0  0  0  0  0  0  0  0  0
   57.8910   32.8000   43.5660 N   0  0  0  0  0  0  0  0  0  0  0  0
   57.4030   31.9640   44.4950 C   0  0  0  0  0  0  0  0  0  0  0  0
   57.4100   32.2220   45.8540 O   0  0  0  0  0  0  0  0  0  0  0  0
   58.3140   33.0290   46.5010 C   0  0  0  0  0  0  0  0  0  0  0  0
   59.0720   32.5030   47.5480 C   0  0  0  0  0  0  0  0  0  0  0  0
   59.9970   33.2610   48.2370 C   0  0  0  0  0  0  0  0  0  0  0  0
   60.1690   34.5960   47.8650 C   0  0  0  0  0  0  0  0  0  0  0  0
   59.4400   35.1040   46.8590 N   0  0  0  0  0  0  0  0  0  0  0  0
   58.5430   34.3510   46.1970 C   0  0  0  0  0  0  0  0  0  0  0  0
   57.8510   34.9310   45.1900 F   0  0  0  0  0  0  0  0  0  0  0  0
   56.8580   30.7650   44.0590 C   0  0  0  0  0  0  0  0  0  0  0  0
   56.3220   29.8320   44.9910 N   0  0  0  0  0  0  0  0  0  0  0  0
   55.1490   29.3840   44.8800 O   0  0  0  0  0  0  0  0  0  0  0  0
   56.0380   28.5890   43.0930 H   0  0  0  0  0  0  0  0  0  0  0  0
   58.2515   33.1710   41.5056 H   0  0  0  0  0  0  0  0  0  0  0  0
   58.3060   33.7110   43.8490 H   0  0  0  0  0  0  0  0  0  0  0  0
   58.9276   31.4505   47.8333 H   0  0  0  0  0  0  0  0  0  0  0  0
   60.5840   32.8245   49.0585 H   0  0  0  0  0  0  0  0  0  0  0  0
   60.8980   35.2278   48.3936 H   0  0  0  0  0  0  0  0  0  0  0  0
  1  2  2  3
  2  3  1  0
  3  4  2  0
  4  5  1  0
  5  6  1  0
  6  7  1  0
  7  8  1  0
  8  9  2  0
  9 10  1  0
 10 11  2  0
 11 12  1  0
 12 13  2  0
 13 14  1  0
  6 15  2  0
 15 16  1  0
 16 17  2  0
 15  2  1  0
 13  8  1  0
  1 18  1  0
  4 19  1  0
  5 20  1  0
  9 21  1  0
 10 22  1  0
 11 23  1  0
M  END
>  <smiles>  (7) 
N=c1nc[nH]c(Oc2cccnc2F)c1N=O

>  <score_type>  (7) 
oracle

>  <origin>  (7) 
adg

>  <m_score__min__energy>  (7) 
-5.7699999999999996

>  <m_primary>  (7) 
energy

$$$$
7:0
     RDKit          3D

 78 82  0  0  0  0  0  0  0  0999 V2000
   55.7660   26.7280   45.8770 O   0  0  0  0  0  0  0  0  0  0  0  0
   56.7430   27.5160   46.0080 C   0  0  0  0  0  0  0  0  0  0  0  0
   57.6190   27.3440   47.1290 N   0  0  0  0  0  0  0  0  0  0  0  0
   58.6140   28.2910   47.5380 C   0  0  0  0  0  0  0  0  0  0  0  0
   59.8620   27.8300   47.9660 C   0  0  0  0  0  0  0  0  0  0  0  0
   60.8480   28.7340   48.3700 C   0  0  0  0  0  0  0  0  0  0  0  0
   60.6110   30.1180   48.3150 C   0  0  0  0  0  0  0  0  0  0  0  0
   61.6520   31.0670   48.7660 C   0  0  0  0  0  0  0  0  0  0  0  0
   62.1280   30.9520   49.9290 O   0  0  0  0  0  0  0  0  0  0  0  0
   62.1430   32.1140   47.9050 N   0  0  0  0  0  0  0  0  0  0  0  0
   63.5710   32.0420   47.5430 C   0  0  0  0  0  0  0  0  0  0  0  0
   64.4260   33.0910   48.2680 C   0  0  0  0  0  0  0  0  0  0  0  0
   64.3330   32.9940   49.7690 C   0  0  0  0  0  0  0  0  0  0  0  0
   65.0280   31.9890   50.4620 C   0  0  0  0  0  0  0  0  0  0  0  0
   64.8890   31.8640   51.8470 C   0  0  0  0  0  0  0  0  0  0  0  0
   64.0790   32.7550   52.5550 C   0  0  0  0  0  0  0  0  0  0  0  0
   63.3830   33.7590   51.8740 C   0  0  0  0  0  0  0  0  0  0  0  0
   63.4990   33.8710   50.4860 C   0  0  0  0  0  0  0  0  0  0  0  0
   61.5320   33.4530   47.9980 C   0  0  0  0  0  0  0  0  0  0  0  0
   60.0160   33.4170   48.3190 C   0  0  1  0  0  0  0  0  0  0  0  0
   59.6590   34.4110   49.4490 C   0  0  0  0  0  0  0  0  0  0  0  0
   60.0050   33.8450   50.7570 N   0  0  0  0  0  0  0  0  0  0  0  0
   58.8550   32.6270   51.2360 S   0  0  0  0  0  0  0  0  0  0  0  0
   57.9410   32.3260   50.0810 O   0  0  0  0  0  0  0  0  0  0  0  0
   58.0260   33.1550   52.3720 O   0  0  0  0  0  0  0  0  0  0  0  0
   59.6580   31.1460   51.7570 C   0  0  0  0  0  0  0  0  0  0  0  0
   60.8170   31.2150   52.5440 C   0  0  0  0  0  0  0  0  0  0  0  0
   61.4820   30.0440   52.9180 C   0  0  0  0  0  0  0  0  0  0  0  0
   60.9870   28.7990   52.5180 C   0  0  0  0  0  0  0  0  0  0  0  0
   59.8340   28.7230   51.7320 C   0  0  0  0  0  0  0  0  0  0  0  0
   59.1720   29.8930   51.3500 C   0  0  0  0  0  0  0  0  0  0  0  0
   59.1670   33.6670   47.0850 C   0  0  0  0  0  0  0  0  0  0  0  0
   59.6800   34.3700   45.9790 C   0  0  0  0  0  0  0  0  0  0  0  0
   58.8630   34.6440   44.8780 C   0  0  0  0  0  0  0  0  0  0  0  0
   57.5410   34.1980   44.8570 C   0  0  0  0  0  0  0  0  0  0  0  0
   57.0250   33.4940   45.9450 C   0  0  0  0  0  0  0  0  0  0  0  0
   57.8300   33.2370   47.0550 C   0  0  0  0  0  0  0  0  0  0  0  0
   59.3640   30.5770   47.8660 C   0  0  0  0  0  0  0  0  0  0  0  0
   58.3720   29.6740   47.4860 C   0  0  0  0  0  0  0  0  0  0  0  0
   56.9310   28.6230   45.0430 C   0  0  0  0  0  0  0  0  0  0  0  0
   55.8260   29.3490   44.5660 C   0  0  0  0  0  0  0  0  0  0  0  0
   56.0110   30.4160   43.6780 C   0  0  0  0  0  0  0  0  0  0  0  0
   57.2990   30.7720   43.2650 C   0  0  0  0  0  0  0  0  0  0  0  0
   57.5270   32.1180   42.1640 Cl  0  0  0  0  0  0  0  0  0  0  0  0
   58.4020   30.0660   43.7470 C   0  0  0  0  0  0  0  0  0  0  0  0
   58.2230   28.9960   44.6290 C   0  0  0  0  0  0  0  0  0  0  0  0
   60.0692   26.7499   47.9849 H   0  0  0  0  0  0  0  0  0  0  0  0
   61.8163   28.3597   48.7336 H   0  0  0  0  0  0  0  0  0  0  0  0
   63.9485   31.0418   47.8021 H   0  0  0  0  0  0  0  0  0  0  0  0
   63.6480   32.2425   46.4642 H   0  0  0  0  0  0  0  0  0  0  0  0
   65.4764   32.9516   47.9725 H   0  0  0  0  0  0  0  0  0  0  0  0
   64.0450   34.0816   47.9789 H   0  0  0  0  0  0  0  0  0  0  0  0
   65.6841   31.2979   49.9125 H   0  0  0  0  0  0  0  0  0  0  0  0
   65.4190   31.0616   52.3811 H   0  0  0  0  0  0  0  0  0  0  0  0
   63.9886   32.6671   53.6477 H   0  0  0  0  0  0  0  0  0  0  0  0
   62.7444   34.4604   52.4310 H   0  0  0  0  0  0  0  0  0  0  0  0
   62.9350   34.6493   49.9510 H   0  0  0  0  0  0  0  0  0  0  0  0
   62.0435   34.0152   48.7932 H   0  0  0  0  0  0  0  0  0  0  0  0
   61.6441   33.9302   47.0133 H   0  0  0  0  0  0  0  0  0  0  0  0
   59.7858   32.4011   48.6727 H   0  0  0  0  0  0  0  0  0  0  0  0
   60.2188   35.3460   49.2993 H   0  0  0  0  0  0  0  0  0  0  0  0
   58.5773   34.6090   49.4211 H   0  0  0  0  0  0  0  0  0  0  0  0
   61.2033   32.1928   52.8675 H   0  0  0  0  0  0  0  0  0  0  0  0
   62.3958   30.1019   53.5277 H   0  0  0  0  0  0  0  0  0  0  0  0
   61.5059   27.8781   52.8224 H   0  0  0  0  0  0  0  0  0  0  0  0
   59.4479   27.7432   51.4143 H   0  0  0  0  0  0  0  0  0  0  0  0
   58.2667   29.8321   50.7281 H   0  0  0  0  0  0  0  0  0  0  0  0
   60.7277   34.7052   45.9808 H   0  0  0  0  0  0  0  0  0  0  0  0
   59.2635   35.2128   44.0259 H   0  0  0  0  0  0  0  0  0  0  0  0
   56.9057   34.4016   43.9824 H   0  0  0  0  0  0  0  0  0  0  0  0
   55.9832   33.1414   45.9278 H   0  0  0  0  0  0  0  0  0  0  0  0
   57.4137   32.6923   47.9152 H   0  0  0  0  0  0  0  0  0  0  0  0
   59.1671   31.6580   47.8133 H   0  0  0  0  0  0  0  0  0  0  0  0
   57.3951   30.0462   47.1438 H   0  0  0  0  0  0  0  0  0  0  0  0
   54.8110   29.0778   44.8918 H   0  0  0  0  0  0  0  0  0  0  0  0
   55.1409   30.9757   43.3043 H   0  0  0  0  0  0  0  0  0  0  0  0
   59.4162   30.3524   43.4318 H   0  0  0  0  0  0  0  0  0  0  0  0
   59.0975   28.4424   45.0015 H   0  0  0  0  0  0  0  0  0  0  0  0
  1  2  2  0
  2  3  1  0
  3  4  1  0
  4  5  2  0
  5  6  1  0
  6  7  2  0
  7  8  1  0
  8  9  2  0
  8 10  1  0
 10 11  1  0
 11 12  1  0
 12 13  1  0
 13 14  2  0
 14 15  1  0
 15 16  2  0
 16 17  1  0
 17 18  2  0
 10 19  1  0
 19 20  1  0
 20 21  1  0
 21 22  1  0
 22 23  1  0
 23 24  2  0
 23 25  2  0
 23 26  1  0
 26 27  2  0
 27 28  1  0
 28 29  2  0
 29 30  1  0
 30 31  2  0
 20 32  1  0
 32 33  2  0
 33 34  1  0
 34 35  2  0
 35 36  1  0
 36 37  2  0
  7 38  1  0
 38 39  2  0
  2 40  1  0
 40 41  2  0
 41 42  1  0
 42 43  2  0
 43 44  1  0
 43 45  1  0
 45 46  2  0
 39  4  1  0
 46 40  1  0
 18 13  1  0
 31 26  1  0
 37 32  1  0
  5 47  1  0
  6 48  1  0
 11 49  1  0
 11 50  1  0
 12 51  1  0
 12 52  1  0
 14 53  1  0
 15 54  1  0
 16 55  1  0
 17 56  1  0
 18 57  1  0
 19 58  1  0
 19 59  1  0
 20 60  1  1
 21 61  1  0
 21 62  1  0
 27 63  1  0
 28 64  1  0
 29 65  1  0
 30 66  1  0
 31 67  1  0
 33 68  1  0
 34 69  1  0
 35 70  1  0
 36 71  1  0
 37 72  1  0
 38 73  1  0
 39 74  1  0
 41 75  1  0
 42 76  1  0
 45 77  1  0
 46 78  1  0
M  CHG  2   3  -1  22  -1
M  END
>  <UniqueID>  (8) 
6

>  <SMILES>  (8) 
O=C([N-]c1ccc(C(=O)N(CCc2ccccc2)C[C@@H](C[N-]S(=O)(=O)c2ccccc2)c2ccccc2)cc1)c1ccc(Cl)cc1

>  <Energy>  (8) 
87.18990348363198

>  <Genealogy>  (8) 
O=C([N-]c1ccc(C(=O)N(CCc2ccccc2)CC(C[N-]S(=O)(=O)c2ccccc2)c2ccccc2)cc1)c1ccc(Cl)cc1 (protonated)
O=C([N-]c1ccc(C(=O)N(CCc2ccccc2)C[C@@H](C[N-]S(=O)(=O)c2ccccc2)c2ccccc2)cc1)c1ccc(Cl)cc1 (chirality)
O=C([N-]c1ccc(C(=O)N(CCc2ccccc2)C[C@@H](C[N-]S(=O)(=O)c2ccccc2)c2ccccc2)cc1)c1ccc(Cl)cc1 (3D coordinates assigned)
O=C([N-]c1ccc(C(=O)N(CCc2ccccc2)C[C@@H](C[N-]S(=O)(=O)c2ccccc2)c2ccccc2)cc1)c1ccc(Cl)cc1 (optimized conformer: 87.18990348363198 kcal/mol)

>  <smiles>  (8) 
O=C(Nc1ccc(C(=O)N(CCc2ccccc2)CC(CNS(=O)(=O)c2ccccc2)c2ccccc2)cc1)c1ccc(Cl)cc1

>  <score_type>  (8) 
oracle

>  <origin>  (8) 
adg

>  <m_score__min__energy>  (8) 
-13.08

>  <m_primary>  (8) 
energy

$$$$
8:0
     RDKit          3D

 62 66  0  0  0  0  0  0  0  0999 V2000
   68.0850   31.7800   52.2360 C   0  0  0  0  0  0  0  0  0  0  0  0
   66.8060   31.9220   51.4660 C   0  0  0  0  0  0  0  0  0  0  0  0
   66.6350   32.9820   50.5630 C   0  0  0  0  0  0  0  0  0  0  0  0
   65.4560   33.0900   49.8220 C   0  0  0  0  0  0  0  0  0  0  0  0
   64.4420   32.1420   49.9700 C   0  0  0  0  0  0  0  0  0  0  0  0
   63.3340   32.2370   49.1920 F   0  0  0  0  0  0  0  0  0  0  0  0
   64.6000   31.0720   50.8730 C   0  0  0  0  0  0  0  0  0  0  0  0
   63.5910   30.0570   51.0140 N   0  0  0  0  0  0  0  0  0  0  0  0
   62.4260   30.2110   51.8340 C   0  0  0  0  0  0  0  0  0  0  0  0
   62.3940   31.1010   52.7270 O   0  0  0  0  0  0  0  0  0  0  0  0
   61.3380   29.2910   51.6770 N   0  0  0  0  0  0  0  0  0  0  0  0
   60.5590   29.0610   50.4920 C   0  0  0  0  0  0  0  0  0  0  0  0
   59.6240   29.9910   50.0030 C   0  0  0  0  0  0  0  0  0  0  0  0
   58.9080   29.7130   48.8380 C   0  0  0  0  0  0  0  0  0  0  0  0
   59.1510   28.5240   48.1460 C   0  0  0  0  0  0  0  0  0  0  0  0
   58.4140   28.2420   46.9880 O   0  0  0  0  0  0  0  0  0  0  0  0
   58.1670   26.9570   46.4850 C   0  0  0  0  0  0  0  0  0  0  0  0
   59.1140   25.9270   46.6240 C   0  0  0  0  0  0  0  0  0  0  0  0
   58.8950   24.6780   46.0400 C   0  0  0  0  0  0  0  0  0  0  0  0
   57.7430   24.4440   45.2710 C   0  0  0  0  0  0  0  0  0  0  0  0
   57.4890   23.0860   44.6660 C   0  0  0  0  0  0  0  0  0  0  0  0
   56.9900   23.2090   43.3800 F   0  0  0  0  0  0  0  0  0  0  0  0
   58.6760   22.3780   44.6240 F   0  0  0  0  0  0  0  0  0  0  0  0
   56.5680   22.3790   45.4200 F   0  0  0  0  0  0  0  0  0  0  0  0
   56.7850   25.4660   45.1500 C   0  0  0  0  0  0  0  0  0  0  0  0
   56.9830   26.7100   45.7620 C   0  0  0  0  0  0  0  0  0  0  0  0
   55.9680   27.7110   45.6140 N   0  0  0  0  0  0  0  0  0  0  0  0
   56.1370   28.9640   44.9370 C   0  0  0  0  0  0  0  0  0  0  0  0
   55.1800   29.7780   44.8520 O   0  0  0  0  0  0  0  0  0  0  0  0
   57.4470   29.3070   44.2910 C   0  0  0  0  0  0  0  0  0  0  0  0
   57.5840   30.7540   44.1010 N   0  0  0  0  0  0  0  0  0  0  0  0
   57.3480   31.4790   42.9790 C   0  0  0  0  0  0  0  0  0  0  0  0
   57.0160   30.9700   41.8740 O   0  0  0  0  0  0  0  0  0  0  0  0
   57.4990   32.7800   43.1620 O   0  0  0  0  0  0  0  0  0  0  0  0
   57.8340   32.9230   44.4240 C   0  0  0  0  0  0  0  0  0  0  0  0
   58.0940   34.0940   45.1280 C   0  0  0  0  0  0  0  0  0  0  0  0
   58.4180   33.9770   46.4940 C   0  0  0  0  0  0  0  0  0  0  0  0
   58.4690   32.7040   47.1110 C   0  0  0  0  0  0  0  0  0  0  0  0
   58.2020   31.5380   46.3690 C   0  0  0  0  0  0  0  0  0  0  0  0
   57.8900   31.6920   45.0180 C   0  0  0  0  0  0  0  0  0  0  0  0
   60.0730   27.6430   48.6250 N   0  0  0  0  0  0  0  0  0  0  0  0
   60.7770   27.8860   49.7610 C   0  0  0  0  0  0  0  0  0  0  0  0
   65.7950   30.9580   51.5990 C   0  0  0  0  0  0  0  0  0  0  0  0
   67.8685   31.8040   53.3142 H   0  0  0  0  0  0  0  0  0  0  0  0
   68.5632   30.8232   51.9793 H   0  0  0  0  0  0  0  0  0  0  0  0
   68.7615   32.6086   51.9793 H   0  0  0  0  0  0  0  0  0  0  0  0
   67.4317   33.7301   50.4382 H   0  0  0  0  0  0  0  0  0  0  0  0
   65.3259   33.9257   49.1187 H   0  0  0  0  0  0  0  0  0  0  0  0
   63.7600   29.1230   50.5760 H   0  0  0  0  0  0  0  0  0  0  0  0
   59.4572   30.9371   50.5387 H   0  0  0  0  0  0  0  0  0  0  0  0
   58.1568   30.4257   48.4668 H   0  0  0  0  0  0  0  0  0  0  0  0
   60.0351   26.1068   47.1977 H   0  0  0  0  0  0  0  0  0  0  0  0
   59.6295   23.8717   46.1830 H   0  0  0  0  0  0  0  0  0  0  0  0
   55.8692   25.2863   44.5678 H   0  0  0  0  0  0  0  0  0  0  0  0
   58.2669   28.9505   44.9319 H   0  0  0  0  0  0  0  0  0  0  0  0
   57.4853   28.8220   43.3045 H   0  0  0  0  0  0  0  0  0  0  0  0
   58.0483   35.0766   44.6357 H   0  0  0  0  0  0  0  0  0  0  0  0
   58.6326   34.8799   47.0845 H   0  0  0  0  0  0  0  0  0  0  0  0
   58.7194   32.6253   48.1792 H   0  0  0  0  0  0  0  0  0  0  0  0
   58.2380   30.5430   46.8367 H   0  0  0  0  0  0  0  0  0  0  0  0
   61.5226   27.1559   50.1090 H   0  0  0  0  0  0  0  0  0  0  0  0
   65.9408   30.1054   52.2785 H   0  0  0  0  0  0  0  0  0  0  0  0
  1  2  1  0
  2  3  2  0
  3  4  1  0
  4  5  2  0
  5  6  1  0
  5  7  1  0
  7  8  1  0
  8  9  1  0
  9 10  2  0
  9 11  1  0
 11 12  1  0
 12 13  2  0
 13 14  1  0
 14 15  2  0
 15 16  1  0
 16 17  1  0
 17 18  2  0
 18 19  1  0
 19 20  2  0
 20 21  1  0
 21 22  1  0
 21 23  1  0
 21 24  1  0
 20 25  1  0
 25 26  2  0
 26 27  1  0
 27 28  1  0
 28 29  2  0
 28 30  1  0
 30 31  1  0
 31 32  1  0
 32 33  2  0
 32 34  1  0
 34 35  1  0
 35 36  2  0
 36 37  1  0
 37 38  2  0
 38 39  1  0
 39 40  2  0
 15 41  1  0
 41 42  2  0
  7 43  2  0
 43  2  1  0
 42 12  1  0
 26 17  1  0
 40 31  1  0
 40 35  1  0
  1 44  1  0
  1 45  1  0
  1 46  1  0
  3 47  1  0
  4 48  1  0
  8 49  1  0
 13 50  1  0
 14 51  1  0
 18 52  1  0
 19 53  1  0
 25 54  1  0
 30 55  1  0
 30 56  1  0
 36 57  1  0
 37 58  1  0
 38 59  1  0
 39 60  1  0
 42 61  1  0
 43 62  1  0
M  CHG  2  11  -1  27  -1
M  END
>  <UniqueID>  (9) 
7

>  <SMILES>  (9) 
Cc1ccc(F)c(NC(=O)[N-]c2ccc(Oc3ccc(C(F)(F)F)cc3[N-]C(=O)Cn3c(=O)oc4ccccc43)nc2)c1

>  <Energy>  (9) 
127.42960526060175

>  <Genealogy>  (9) 
Cc1ccc(F)c(NC(=O)[N-]c2ccc(Oc3ccc(C(F)(F)F)cc3[N-]C(=O)Cn3c(=O)oc4ccccc43)nc2)c1 (protonated)
Cc1ccc(F)c(NC(=O)[N-]c2ccc(Oc3ccc(C(F)(F)F)cc3[N-]C(=O)Cn3c(=O)oc4ccccc43)nc2)c1 (3D coordinates assigned)
Cc1ccc(F)c(NC(=O)[N-]c2ccc(Oc3ccc(C(F)(F)F)cc3[N-]C(=O)Cn3c(=O)oc4ccccc43)nc2)c1 (optimized conformer: 127.42960526060175 kcal/mol)

>  <smiles>  (9) 
Cc1ccc(F)c(NC(=O)Nc2ccc(Oc3ccc(C(F)(F)F)cc3NC(=O)Cn3c(=O)oc4ccccc43)nc2)c1

>  <score_type>  (9) 
oracle

>  <origin>  (9) 
adg

>  <m_score__min__energy>  (9) 
-12.19

>  <m_primary>  (9) 
energy

$$$$
9:0
     RDKit          3D

 44 46  0  0  0  0  0  0  0  0999 V2000
   55.1430   28.5910   45.2310 H   0  0  0  0  0  0  0  0  0  0  0  0
   56.1160   28.3140   45.1720 O   0  0  0  0  0  0  0  0  0  0  0  0
   56.5620   27.0660   45.6120 C   0  0  0  0  0  0  0  0  0  0  0  0
   55.6420   26.0810   46.0140 C   0  0  0  0  0  0  0  0  0  0  0  0
   54.2770   26.3410   45.9700 O   0  0  0  0  0  0  0  0  0  0  0  0
   56.0910   24.8310   46.4630 C   0  0  0  0  0  0  0  0  0  0  0  0
   55.1380   23.8760   46.8500 O   0  0  0  0  0  0  0  0  0  0  0  0
   54.0910   23.3960   46.0110 C   0  0  0  0  0  0  0  0  0  0  0  0
   53.2665   23.0180   46.6334 H   0  0  0  0  0  0  0  0  0  0  0  0
   53.7248   24.2162   45.3760 H   0  0  0  0  0  0  0  0  0  0  0  0
   54.4734   22.5833   45.3760 H   0  0  0  0  0  0  0  0  0  0  0  0
   57.4740   24.5750   46.5190 C   0  0  0  0  0  0  0  0  0  0  0  0
   57.8355   23.5992   46.8754 H   0  0  0  0  0  0  0  0  0  0  0  0
   58.3890   25.5520   46.1250 C   0  0  0  0  0  0  0  0  0  0  0  0
   59.4680   25.3489   46.1916 H   0  0  0  0  0  0  0  0  0  0  0  0
   57.9410   26.7930   45.6440 C   0  0  0  0  0  0  0  0  0  0  0  0
   58.9090   27.8440   45.2690 C   0  0  0  0  0  0  0  0  0  0  0  0
   59.6574   27.6012   44.5003 H   0  0  0  0  0  0  0  0  0  0  0  0
   58.9370   29.0710   45.8010 C   0  0  0  0  0  0  0  0  0  0  0  0
   59.2260   29.3050   47.1480 O   0  0  0  0  0  0  0  0  0  0  0  0
   59.1660   30.6820   47.3530 C   0  0  0  0  0  0  0  0  0  0  0  0
   59.3990   31.3490   48.5470 C   0  0  0  0  0  0  0  0  0  0  0  0
   59.6576   30.7924   49.4599 H   0  0  0  0  0  0  0  0  0  0  0  0
   59.2970   32.7600   48.5660 C   0  0  0  0  0  0  0  0  0  0  0  0
   59.5760   33.4950   49.7280 O   0  0  0  0  0  0  0  0  0  0  0  0
   60.8830   33.8520   50.1680 C   0  0  0  0  0  0  0  0  0  0  0  0
   60.9104   33.8595   51.2676 H   0  0  0  0  0  0  0  0  0  0  0  0
   61.6106   33.1197   49.7881 H   0  0  0  0  0  0  0  0  0  0  0  0
   61.1373   34.8525   49.7881 H   0  0  0  0  0  0  0  0  0  0  0  0
   58.9310   33.4610   47.3830 C   0  0  0  0  0  0  0  0  0  0  0  0
   58.8160   34.8520   47.4180 O   0  0  0  0  0  0  0  0  0  0  0  0
   59.6510   35.7070   46.6450 C   0  0  0  0  0  0  0  0  0  0  0  0
   60.2596   36.3302   47.3167 H   0  0  0  0  0  0  0  0  0  0  0  0
   60.3119   35.0983   46.0105 H   0  0  0  0  0  0  0  0  0  0  0  0
   59.0268   36.3533   46.0105 H   0  0  0  0  0  0  0  0  0  0  0  0
   58.7130   32.7510   46.1670 C   0  0  0  0  0  0  0  0  0  0  0  0
   58.3740   33.3520   44.9400 O   0  0  0  0  0  0  0  0  0  0  0  0
   57.2880   34.2390   44.7130 C   0  0  0  0  0  0  0  0  0  0  0  0
   56.8793   34.5728   45.6782 H   0  0  0  0  0  0  0  0  0  0  0  0
   57.6400   35.1112   44.1425 H   0  0  0  0  0  0  0  0  0  0  0  0
   56.5037   33.7199   44.1425 H   0  0  0  0  0  0  0  0  0  0  0  0
   58.8410   31.3630   46.2030 C   0  0  0  0  0  0  0  0  0  0  0  0
   58.6650   30.3650   45.1600 C   0  0  0  0  0  0  0  0  0  0  0  0
   58.2680   30.5760   43.9840 O   0  0  0  0  0  0  0  0  0  0  0  0
  1  2  1  0
  2  3  1  0
  3  4  2  0
  4  5  1  0
  4  6  1  0
  6  7  1  0
  7  8  1  0
  8  9  1  0
  8 10  1  0
  8 11  1  0
  6 12  2  0
 12 13  1  0
 12 14  1  0
 14 15  1  0
 14 16  2  0
 16 17  1  0
 17 18  1  0
 17 19  2  0
 19 20  1  0
 20 21  1  0
 21 22  2  0
 22 23  1  0
 22 24  1  0
 24 25  1  0
 25 26  1  0
 26 27  1  0
 26 28  1  0
 26 29  1  0
 24 30  2  0
 30 31  1  0
 31 32  1  0
 32 33  1  0
 32 34  1  0
 32 35  1  0
 30 36  1  0
 36 37  1  0
 37 38  1  0
 38 39  1  0
 38 40  1  0
 38 41  1  0
 36 42  2  0
 42 43  1  0
 43 44  2  0
 16  3  1  0
 43 19  1  0
 42 21  1  0
M  CHG  1   5  -1
M  END
>  <UniqueID>  (10) 
8

>  <SMILES>  (10) 
COc1ccc(/C=C2/Oc3cc(OC)c(OC)c(OC)c3C2=O)c(O)c1[O-]

>  <Energy>  (10) 
91.2860879772098

>  <Genealogy>  (10) 
COc1ccc(C=C2Oc3cc(OC)c(OC)c(OC)c3C2=O)c(O)c1[O-] (protonated)
COc1ccc(/C=C2/Oc3cc(OC)c(OC)c(OC)c3C2=O)c(O)c1[O-] (cis-trans isomerization)
COc1ccc(/C=C2/Oc3cc(OC)c(OC)c(OC)c3C2=O)c(O)c1[O-] (3D coordinates assigned)
COc1ccc(/C=C2/Oc3cc(OC)c(OC)c(OC)c3C2=O)c(O)c1[O-] (nonaromatic ring conformer: 91.2860879772098 kcal/mol)

>  <smiles>  (10) 
COc1ccc(C=C2Oc3cc(OC)c(OC)c(OC)c3C2=O)c(O)c1O

>  <score_type>  (10) 
oracle

>  <origin>  (10) 
adg

>  <m_score__min__energy>  (10) 
-10.609999999999999

>  <m_primary>  (10) 
energy

$$$$
10:0
     RDKit          3D

 58 61  0  0  0  0  0  0  0  0999 V2000
   54.4716   25.7675   45.6563 H   0  0  0  0  0  0  0  0  0  0  0  0
   55.4590   25.2830   45.6380 C   0  0  0  0  0  0  0  0  0  0  0  0
   56.5350   25.8670   46.3100 C   0  0  0  0  0  0  0  0  0  0  0  0
   56.3881   26.8109   46.8555 H   0  0  0  0  0  0  0  0  0  0  0  0
   57.7990   25.2640   46.2970 C   0  0  0  0  0  0  0  0  0  0  0  0
   58.8600   25.9160   47.0190 N   0  0  0  0  0  0  0  0  0  0  0  0
   59.7750   26.9390   46.5920 C   0  0  0  0  0  0  0  0  0  0  0  0
   61.0140   26.7210   46.5640 O   0  0  0  0  0  0  0  0  0  0  0  0
   59.2540   28.2500   46.1380 C   0  0  0  0  0  0  0  0  0  0  0  0
   59.4220   28.6650   44.8050 C   0  0  0  0  0  0  0  0  0  0  0  0
   59.9257   28.0025   44.0858 H   0  0  0  0  0  0  0  0  0  0  0  0
   58.9530   29.9140   44.3880 C   0  0  0  0  0  0  0  0  0  0  0  0
   59.0820   30.2222   43.3400 H   0  0  0  0  0  0  0  0  0  0  0  0
   58.3210   30.7760   45.2910 C   0  0  0  0  0  0  0  0  0  0  0  0
   57.8910   32.0620   44.8290 N   0  0  0  0  0  0  0  0  0  0  0  0
   57.8680   33.5080   45.7870 S   0  0  0  0  0  0  0  0  0  0  0  0
   57.7500   34.7010   44.8810 O   0  0  0  0  0  0  0  0  0  0  0  0
   56.7040   33.4660   46.7360 O   0  0  0  0  0  0  0  0  0  0  0  0
   59.3560   33.6360   46.7170 C   0  0  0  0  0  0  0  0  0  0  0  0
   59.3260   33.6480   48.1180 C   0  0  0  0  0  0  0  0  0  0  0  0
   58.3640   33.5706   48.6459 H   0  0  0  0  0  0  0  0  0  0  0  0
   60.5140   33.7580   48.8480 C   0  0  0  0  0  0  0  0  0  0  0  0
   60.4811   33.7624   49.9475 H   0  0  0  0  0  0  0  0  0  0  0  0
   61.7500   33.8630   48.1860 C   0  0  0  0  0  0  0  0  0  0  0  0
   63.0110   33.9850   48.9510 C   0  0  0  0  0  0  0  0  0  0  0  0
   64.0750   33.4740   48.5050 O   0  0  0  0  0  0  0  0  0  0  0  0
   63.0210   34.6670   50.1720 O   0  0  0  0  0  0  0  0  0  0  0  0
   63.7420   34.2020   51.3070 C   0  0  0  0  0  0  0  0  0  0  0  0
   63.2325   34.5306   52.2249 H   0  0  0  0  0  0  0  0  0  0  0  0
   63.7887   33.1032   51.2868 H   0  0  0  0  0  0  0  0  0  0  0  0
   64.7622   34.6127   51.2868 H   0  0  0  0  0  0  0  0  0  0  0  0
   61.7730   33.8560   46.7810 C   0  0  0  0  0  0  0  0  0  0  0  0
   62.7328   33.9375   46.2499 H   0  0  0  0  0  0  0  0  0  0  0  0
   60.5830   33.7460   46.0530 C   0  0  0  0  0  0  0  0  0  0  0  0
   60.6121   33.7460   44.9534 H   0  0  0  0  0  0  0  0  0  0  0  0
   58.1380   30.3630   46.6200 C   0  0  0  0  0  0  0  0  0  0  0  0
   57.6321   31.0275   47.3359 H   0  0  0  0  0  0  0  0  0  0  0  0
   58.5970   29.1090   47.0370 C   0  0  0  0  0  0  0  0  0  0  0  0
   58.4424   28.7916   48.0788 H   0  0  0  0  0  0  0  0  0  0  0  0
   57.9640   24.0420   45.6140 C   0  0  0  0  0  0  0  0  0  0  0  0
   58.9435   23.5415   45.6194 H   0  0  0  0  0  0  0  0  0  0  0  0
   56.8890   23.4600   44.9280 C   0  0  0  0  0  0  0  0  0  0  0  0
   57.1170   21.9330   44.0810 S   0  0  0  0  0  0  0  0  0  0  0  0
   56.2150   21.8450   42.8820 O   0  0  0  0  0  0  0  0  0  0  0  0
   58.5420   21.8390   43.6160 O   0  0  0  0  0  0  0  0  0  0  0  0
   56.7780   20.6180   45.1530 N   0  0  0  0  0  0  0  0  0  0  0  0
   56.7980   20.7470   46.4410 C   0  0  0  0  0  0  0  0  0  0  0  0
   57.6080   21.5370   47.1030 O   0  0  0  0  0  0  0  0  0  0  0  0
   57.3870   21.4490   48.3820 N   0  0  0  0  0  0  0  0  0  0  0  0
   56.3930   20.5520   48.5450 C   0  0  0  0  0  0  0  0  0  0  0  0
   55.7960   20.2030   49.8670 C   0  0  0  0  0  0  0  0  0  0  0  0
   56.4426   20.5810   50.6726 H   0  0  0  0  0  0  0  0  0  0  0  0
   54.7993   20.6607   49.9516 H   0  0  0  0  0  0  0  0  0  0  0  0
   55.7059   19.1100   49.9516 H   0  0  0  0  0  0  0  0  0  0  0  0
   55.9760   20.0810   47.3160 C   0  0  0  0  0  0  0  0  0  0  0  0
   55.1822   19.3528   47.0932 H   0  0  0  0  0  0  0  0  0  0  0  0
   55.6350   24.0850   44.9430 C   0  0  0  0  0  0  0  0  0  0  0  0
   54.7885   23.6314   44.4067 H   0  0  0  0  0  0  0  0  0  0  0  0
  1  2  1  0
  2  3  2  0
  3  4  1  0
  3  5  1  0
  5  6  1  0
  6  7  1  0
  7  8  2  0
  7  9  1  0
  9 10  2  0
 10 11  1  0
 10 12  1  0
 12 13  1  0
 12 14  2  0
 14 15  1  0
 15 16  1  0
 16 17  2  0
 16 18  2  0
 16 19  1  0
 19 20  2  0
 20 21  1  0
 20 22  1  0
 22 23  1  0
 22 24  2  0
 24 25  1  0
 25 26  2  0
 25 27  1  0
 27 28  1  0
 28 29  1  0
 28 30  1  0
 28 31  1  0
 24 32  1  0
 32 33  1  0
 32 34  2  0
 34 35  1  0
 14 36  1  0
 36 37  1  0
 36 38  2  0
 38 39  1  0
  5 40  2  0
 40 41  1  0
 40 42  1  0
 42 43  1  0
 43 44  2  0
 43 45  2  0
 43 46  1  0
 46 47  2  0
 47 48  1  0
 48 49  1  0
 49 50  1  0
 50 51  1  0
 51 52  1  0
 51 53  1  0
 51 54  1  0
 50 55  2  0
 55 56  1  0
 42 57  2  0
 57 58  1  0
 57  2  1  0
 38  9  1  0
 55 47  1  0
 34 19  1  0
M  CHG  3   6  -1  15  -1  49  -1
M  END
>  <UniqueID>  (11) 
9

>  <SMILES>  (11) 
COC(=O)c1ccc(S(=O)(=O)[N-]c2ccc(C(=O)[N-]c3cccc(S(=O)(=O)/N=c4/cc(C)[n-]o4)c3)cc2)cc1

>  <Energy>  (11) 
102.6971171828764

>  <Genealogy>  (11) 
COC(=O)c1ccc(S(=O)(=O)[N-]c2ccc(C(=O)[N-]c3cccc(S(=O)(=O)N=c4cc(C)[n-]o4)c3)cc2)cc1 (protonated)
COC(=O)c1ccc(S(=O)(=O)[N-]c2ccc(C(=O)[N-]c3cccc(S(=O)(=O)/N=c4/cc(C)[n-]o4)c3)cc2)cc1 (cis-trans isomerization)
COC(=O)c1ccc(S(=O)(=O)[N-]c2ccc(C(=O)[N-]c3cccc(S(=O)(=O)/N=c4/cc(C)[n-]o4)c3)cc2)cc1 (3D coordinates assigned)
COC(=O)c1ccc(S(=O)(=O)[N-]c2ccc(C(=O)[N-]c3cccc(S(=O)(=O)/N=c4/cc(C)[n-]o4)c3)cc2)cc1 (optimized conformer: 102.6971171828764 kcal/mol)

>  <smiles>  (11) 
COC(=O)c1ccc(S(=O)(=O)Nc2ccc(C(=O)Nc3cccc(S(=O)(=O)N=c4cc(C)[nH]o4)c3)cc2)cc1

>  <score_type>  (11) 
oracle

>  <origin>  (11) 
adg

>  <m_score__min__energy>  (11) 
-15.33

>  <m_primary>  (11) 
energy

$$$$
11:0
     RDKit          3D

 36 38  0  0  0  0  0  0  0  0999 V2000
   58.4970   32.7600   48.3190 C   0  0  0  0  0  0  0  0  0  0  0  0
   58.7670   32.5440   46.8210 C   0  0  2  0  0  0  0  0  0  0  0  0
   60.0320   33.2860   46.3090 C   0  0  0  0  0  0  0  0  0  0  0  0
   61.1970   33.2840   47.2680 C   0  0  0  0  0  0  0  0  0  0  0  0
   62.2350   32.3470   47.1260 C   0  0  0  0  0  0  0  0  0  0  0  0
   63.3130   32.3500   48.0180 C   0  0  0  0  0  0  0  0  0  0  0  0
   63.3590   33.2800   49.0600 C   0  0  0  0  0  0  0  0  0  0  0  0
   62.3250   34.2080   49.2150 C   0  0  0  0  0  0  0  0  0  0  0  0
   61.2450   34.2080   48.3260 C   0  0  0  0  0  0  0  0  0  0  0  0
   57.5780   33.0060   46.0060 C   0  0  0  0  0  0  0  0  0  0  0  0
   57.1380   34.1860   46.0170 O   0  0  0  0  0  0  0  0  0  0  0  0
   56.9980   31.9900   45.1920 N   0  0  0  0  0  0  0  0  0  0  0  0
   57.7620   30.8430   45.5170 C   0  0  0  0  0  0  0  0  0  0  0  0
   57.5220   29.6010   45.0310 N   0  0  0  0  0  0  0  0  0  0  0  0
   58.2700   28.5560   45.4850 C   0  0  0  0  0  0  0  0  0  0  0  0
   57.9970   26.9120   44.8300 S   0  0  0  0  0  0  0  0  0  0  0  0
   57.4510   26.2080   46.4220 C   0  0  0  0  0  0  0  0  0  0  0  0
   55.9970   25.8630   46.3720 C   0  0  0  0  0  0  0  0  0  0  0  0
   55.1570   26.7120   45.9750 O   0  0  0  0  0  0  0  0  0  0  0  0
   55.5730   24.5920   46.7360 O   0  0  0  0  0  0  0  0  0  0  0  0
   59.2150   28.7530   46.4510 N   0  0  0  0  0  0  0  0  0  0  0  0
   59.4600   29.9920   46.9590 C   0  0  0  0  0  0  0  0  0  0  0  0
   60.3050   30.1360   47.8800 O   0  0  0  0  0  0  0  0  0  0  0  0
   58.7430   31.0800   46.4510 C   0  0  0  0  0  0  0  0  0  0  0  0
   59.2217   32.1802   48.9095 H   0  0  0  0  0  0  0  0  0  0  0  0
   58.5991   33.8285   48.5597 H   0  0  0  0  0  0  0  0  0  0  0  0
   57.4770   32.4258   48.5597 H   0  0  0  0  0  0  0  0  0  0  0  0
   60.3567   32.8046   45.3748 H   0  0  0  0  0  0  0  0  0  0  0  0
   59.7416   34.3386   46.1760 H   0  0  0  0  0  0  0  0  0  0  0  0
   62.1998   31.6090   46.3110 H   0  0  0  0  0  0  0  0  0  0  0  0
   64.1260   31.6187   47.8988 H   0  0  0  0  0  0  0  0  0  0  0  0
   64.2089   33.2819   49.7583 H   0  0  0  0  0  0  0  0  0  0  0  0
   62.3607   34.9386   50.0365 H   0  0  0  0  0  0  0  0  0  0  0  0
   60.4294   34.9346   48.4556 H   0  0  0  0  0  0  0  0  0  0  0  0
   58.0317   25.2980   46.6334 H   0  0  0  0  0  0  0  0  0  0  0  0
   57.6122   26.9539   47.2143 H   0  0  0  0  0  0  0  0  0  0  0  0
  2  1  1  1
  2  3  1  0
  3  4  1  0
  4  5  2  0
  5  6  1  0
  6  7  2  0
  7  8  1  0
  8  9  2  0
  2 10  1  0
 10 11  2  0
 10 12  1  0
 12 13  1  0
 13 14  1  0
 14 15  1  0
 15 16  1  0
 16 17  1  0
 17 18  1  0
 18 19  2  0
 18 20  1  0
 15 21  2  0
 21 22  1  0
 22 23  2  0
 22 24  1  0
 24  2  1  0
  9  4  1  0
 24 13  2  0
  1 25  1  0
  1 26  1  0
  1 27  1  0
  3 28  1  0
  3 29  1  0
  5 30  1  0
  6 31  1  0
  7 32  1  0
  8 33  1  0
  9 34  1  0
 17 35  1  0
 17 36  1  0
M  CHG  3  12  -1  14  -1  20  -1
M  END
>  <UniqueID>  (12) 
10

>  <SMILES>  (12) 
C[C@]1(Cc2ccccc2)C(=O)[N-]c2[n-]c(SCC(=O)[O-])nc(=O)c21

>  <Energy>  (12) 
53.882383739074626

>  <Genealogy>  (12) 
CC1(Cc2ccccc2)C(=O)[N-]c2[n-]c(SCC(=O)[O-])nc(=O)c21 (protonated)
C[C@]1(Cc2ccccc2)C(=O)[N-]c2[n-]c(SCC(=O)[O-])nc(=O)c21 (chirality)
C[C@]1(Cc2ccccc2)C(=O)[N-]c2[n-]c(SCC(=O)[O-])nc(=O)c21 (3D coordinates assigned)
C[C@]1(Cc2ccccc2)C(=O)[N-]c2[n-]c(SCC(=O)[O-])nc(=O)c21 (nonaromatic ring conformer: 53.882383739074626 kcal/mol)

>  <smiles>  (12) 
CC1(Cc2ccccc2)C(=O)Nc2[nH]c(SCC(=O)O)nc(=O)c21

>  <score_type>  (12) 
oracle

>  <origin>  (12) 
adg

>  <m_score__min__energy>  (12) 
-12.92

>  <m_primary>  (12) 
energy

$$$$
12:0
     RDKit          3D

 41 43  0  0  0  0  0  0  0  0999 V2000
   67.2702   33.1867   52.7898 H   0  0  0  0  0  0  0  0  0  0  0  0
   66.6560   32.9800   51.9010 C   0  0  0  0  0  0  0  0  0  0  0  0
   65.0810   32.3820   51.9050 S   0  0  0  0  0  0  0  0  0  0  0  0
   64.9650   32.3860   50.2320 C   0  0  0  0  0  0  0  0  0  0  0  0
   63.9030   32.0040   49.5880 N   0  0  0  0  0  0  0  0  0  0  0  0
   63.5200   32.4660   47.9590 S   0  0  0  0  0  0  0  0  0  0  0  0
   64.5200   33.4860   47.4890 O   0  0  0  0  0  0  0  0  0  0  0  0
   63.6020   31.2560   47.0730 O   0  0  0  0  0  0  0  0  0  0  0  0
   61.8850   33.1160   47.8870 C   0  0  0  0  0  0  0  0  0  0  0  0
   61.4590   34.0380   48.8520 C   0  0  0  0  0  0  0  0  0  0  0  0
   62.1464   34.3538   49.6506 H   0  0  0  0  0  0  0  0  0  0  0  0
   60.1630   34.5570   48.8020 C   0  0  0  0  0  0  0  0  0  0  0  0
   59.8299   35.2759   49.5650 H   0  0  0  0  0  0  0  0  0  0  0  0
   59.2890   34.1650   47.7850 C   0  0  0  0  0  0  0  0  0  0  0  0
   58.2667   34.5701   47.7554 H   0  0  0  0  0  0  0  0  0  0  0  0
   59.7100   33.2550   46.7990 C   0  0  0  0  0  0  0  0  0  0  0  0
   58.8240   32.8180   45.7540 N   0  0  0  0  0  0  0  0  0  0  0  0
   59.2380   32.5630   44.8290 H   0  0  0  0  0  0  0  0  0  0  0  0
   57.3950   32.8100   45.8630 C   0  0  0  0  0  0  0  0  0  0  0  0
   56.8200   33.4080   46.8130 O   0  0  0  0  0  0  0  0  0  0  0  0
   56.6200   32.1520   44.8590 N   0  0  0  0  0  0  0  0  0  0  0  0
   57.3350   31.1290   43.6590 S   0  0  0  0  0  0  0  0  0  0  0  0
   56.2790   30.6980   42.6800 O   0  0  0  0  0  0  0  0  0  0  0  0
   58.3940   31.8960   42.9190 O   0  0  0  0  0  0  0  0  0  0  0  0
   58.0740   29.7350   44.4390 C   0  0  0  0  0  0  0  0  0  0  0  0
   59.4480   29.7140   44.7210 C   0  0  0  0  0  0  0  0  0  0  0  0
   60.0737   30.5828   44.4684 H   0  0  0  0  0  0  0  0  0  0  0  0
   60.0240   28.5900   45.3230 C   0  0  0  0  0  0  0  0  0  0  0  0
   61.1017   28.5767   45.5428 H   0  0  0  0  0  0  0  0  0  0  0  0
   59.2320   27.4830   45.6460 C   0  0  0  0  0  0  0  0  0  0  0  0
   60.0210   25.9490   46.4650 Br  0  0  0  0  0  0  0  0  0  0  0  0
   57.8620   27.4990   45.3630 C   0  0  0  0  0  0  0  0  0  0  0  0
   57.2386   26.6283   45.6146 H   0  0  0  0  0  0  0  0  0  0  0  0
   57.2840   28.6220   44.7600 C   0  0  0  0  0  0  0  0  0  0  0  0
   56.2068   28.6315   44.5373 H   0  0  0  0  0  0  0  0  0  0  0  0
   61.0050   32.7180   46.8700 C   0  0  0  0  0  0  0  0  0  0  0  0
   61.3319   31.9799   46.1228 H   0  0  0  0  0  0  0  0  0  0  0  0
   66.1040   32.8360   49.6550 N   0  0  0  0  0  0  0  0  0  0  0  0
   66.2680   32.9250   48.6290 H   0  0  0  0  0  0  0  0  0  0  0  0
   67.0450   33.1670   50.5780 C   0  0  0  0  0  0  0  0  0  0  0  0
   68.0371   33.5528   50.3008 H   0  0  0  0  0  0  0  0  0  0  0  0
  1  2  1  0
  2  3  1  0
  3  4  1  0
  4  5  2  0
  5  6  1  0
  6  7  2  0
  6  8  2  0
  6  9  1  0
  9 10  2  0
 10 11  1  0
 10 12  1  0
 12 13  1  0
 12 14  2  0
 14 15  1  0
 14 16  1  0
 16 17  1  0
 17 18  1  0
 17 19  1  0
 19 20  2  0
 19 21  1  0
 21 22  1  0
 22 23  2  0
 22 24  2  0
 22 25  1  0
 25 26  2  0
 26 27  1  0
 26 28  1  0
 28 29  1  0
 28 30  2  0
 30 31  1  0
 30 32  1  0
 32 33  1  0
 32 34  2  0
 34 35  1  0
 16 36  2  0
 36 37  1  0
  4 38  1  0
 38 39  1  0
 38 40  1  0
 40 41  1  0
 40  2  2  0
 36  9  1  0
 34 25  1  0
M  CHG  1  21  -1
M  END
>  <UniqueID>  (13) 
11

>  <SMILES>  (13) 
O=C([N-]S(=O)(=O)c1ccc(Br)cc1)Nc1cccc(S(=O)(=O)/N=c2\[nH]ccs2)c1

>  <Energy>  (13) 
81.53839973960018

>  <Genealogy>  (13) 
O=C([N-]S(=O)(=O)c1ccc(Br)cc1)Nc1cccc(S(=O)(=O)N=c2[nH]ccs2)c1 (protonated)
O=C([N-]S(=O)(=O)c1ccc(Br)cc1)Nc1cccc(S(=O)(=O)/N=c2\[nH]ccs2)c1 (cis-trans isomerization)
O=C([N-]S(=O)(=O)c1ccc(Br)cc1)Nc1cccc(S(=O)(=O)/N=c2\[nH]ccs2)c1 (3D coordinates assigned)
O=C([N-]S(=O)(=O)c1ccc(Br)cc1)Nc1cccc(S(=O)(=O)/N=c2\[nH]ccs2)c1 (optimized conformer: 81.53839973960018 kcal/mol)

>  <smiles>  (13) 
O=C(Nc1cccc(S(=O)(=O)N=c2[nH]ccs2)c1)NS(=O)(=O)c1ccc(Br)cc1

>  <score_type>  (13) 
oracle

>  <origin>  (13) 
adg

>  <m_score__min__energy>  (13) 
-11.800000000000001

>  <m_primary>  (13) 
energy

$$$$
13:0
     RDKit          3D

 34 35  0  0  0  0  0  0  0  0999 V2000
   59.7183   25.3610   46.0132 H   0  0  0  0  0  0  0  0  0  0  0  0
   59.2010   26.2660   45.6620 C   0  0  0  0  0  0  0  0  0  0  0  0
   59.8610   27.8130   45.5710 S   0  0  0  0  0  0  0  0  0  0  0  0
   58.4430   28.5060   44.9720 C   0  0  0  0  0  0  0  0  0  0  0  0
   58.2530   29.7590   44.6740 N   0  0  0  0  0  0  0  0  0  0  0  0
   57.0100   30.4780   44.6740 C   0  0  0  0  0  0  0  0  0  0  0  0
   55.9050   29.8850   44.8120 O   0  0  0  0  0  0  0  0  0  0  0  0
   57.0250   31.9590   44.4630 C   0  0  0  0  0  0  0  0  0  0  0  0
   57.4622   32.1824   43.4786 H   0  0  0  0  0  0  0  0  0  0  0  0
   55.9944   32.3409   44.5086 H   0  0  0  0  0  0  0  0  0  0  0  0
   57.8450   32.6220   45.5340 C   0  0  0  0  0  0  0  0  0  0  0  0
   58.3670   33.9110   45.3320 C   0  0  0  0  0  0  0  0  0  0  0  0
   58.1484   34.4509   44.3989 H   0  0  0  0  0  0  0  0  0  0  0  0
   59.1640   34.5100   46.3140 C   0  0  0  0  0  0  0  0  0  0  0  0
   59.5670   35.5207   46.1527 H   0  0  0  0  0  0  0  0  0  0  0  0
   59.4490   33.8260   47.5000 C   0  0  0  0  0  0  0  0  0  0  0  0
   60.4490   34.5770   48.7290 Cl  0  0  0  0  0  0  0  0  0  0  0  0
   58.9400   32.5380   47.7020 C   0  0  0  0  0  0  0  0  0  0  0  0
   59.1662   31.9984   48.6335 H   0  0  0  0  0  0  0  0  0  0  0  0
   58.1450   31.9360   46.7230 C   0  0  0  0  0  0  0  0  0  0  0  0
   57.7525   30.9211   46.8838 H   0  0  0  0  0  0  0  0  0  0  0  0
   57.4700   27.5790   44.8420 N   0  0  0  0  0  0  0  0  0  0  0  0
   56.5050   27.7950   44.5040 H   0  0  0  0  0  0  0  0  0  0  0  0
   57.8820   26.3360   45.2130 C   0  0  0  0  0  0  0  0  0  0  0  0
   56.9610   25.1550   45.2000 C   0  0  0  0  0  0  0  0  0  0  0  0
   57.4694   24.2908   45.6524 H   0  0  0  0  0  0  0  0  0  0  0  0
   56.6853   24.9216   44.1610 H   0  0  0  0  0  0  0  0  0  0  0  0
   55.7240   25.4670   45.9800 C   0  0  0  0  0  0  0  0  0  0  0  0
   55.2490   26.6350   45.9610 O   0  0  0  0  0  0  0  0  0  0  0  0
   55.1300   24.4680   46.7560 O   0  0  0  0  0  0  0  0  0  0  0  0
   55.8770   23.4150   47.3510 C   0  0  0  0  0  0  0  0  0  0  0  0
   55.8185   23.4974   48.4463 H   0  0  0  0  0  0  0  0  0  0  0  0
   55.4627   22.4467   47.0335 H   0  0  0  0  0  0  0  0  0  0  0  0
   56.9278   23.4860   47.0335 H   0  0  0  0  0  0  0  0  0  0  0  0
  1  2  1  0
  2  3  1  0
  3  4  1  0
  4  5  2  0
  5  6  1  0
  6  7  2  0
  6  8  1  0
  8  9  1  0
  8 10  1  0
  8 11  1  0
 11 12  2  0
 12 13  1  0
 12 14  1  0
 14 15  1  0
 14 16  2  0
 16 17  1  0
 16 18  1  0
 18 19  1  0
 18 20  2  0
 20 21  1  0
  4 22  1  0
 22 23  1  0
 22 24  1  0
 24 25  1  0
 25 26  1  0
 25 27  1  0
 25 28  1  0
 28 29  2  0
 28 30  1  0
 30 31  1  0
 31 32  1  0
 31 33  1  0
 31 34  1  0
 24  2  2  0
 20 11  1  0
M  END
>  <UniqueID>  (14) 
12

>  <SMILES>  (14) 
COC(=O)Cc1cs/c(=N\C(=O)Cc2ccc(Cl)cc2)[nH]1

>  <Energy>  (14) 
60.20548993798627

>  <Genealogy>  (14) 
COC(=O)Cc1cs/c(=N\C(=O)Cc2ccc(Cl)cc2)[nH]1 (cis-trans isomerization)
COC(=O)Cc1cs/c(=N\C(=O)Cc2ccc(Cl)cc2)[nH]1 (3D coordinates assigned)
COC(=O)Cc1cs/c(=N\C(=O)Cc2ccc(Cl)cc2)[nH]1 (optimized conformer: 60.20548993798627 kcal/mol)

>  <smiles>  (14) 
COC(=O)Cc1csc(=NC(=O)Cc2ccc(Cl)cc2)[nH]1

>  <score_type>  (14) 
oracle

>  <origin>  (14) 
adg

>  <m_score__min__energy>  (14) 
-8.0399999999999991

>  <m_primary>  (14) 
energy

$$$$
14:0
     RDKit          3D

 47 49  0  0  0  0  0  0  0  0999 V2000
   60.9222   28.9039   44.2128 H   0  0  0  0  0  0  0  0  0  0  0  0
   60.2340   28.7500   45.0570 C   0  0  0  0  0  0  0  0  0  0  0  0
   60.4350   29.3420   46.6190 S   0  0  0  0  0  0  0  0  0  0  0  0
   59.0060   28.6430   47.1820 C   0  0  0  0  0  0  0  0  0  0  0  0
   58.5180   28.7360   48.3840 N   0  0  0  0  0  0  0  0  0  0  0  0
   58.9610   29.5910   49.4470 C   0  0  0  0  0  0  0  0  0  0  0  0
   58.1440   30.0750   50.2750 O   0  0  0  0  0  0  0  0  0  0  0  0
   60.3500   29.9350   49.5140 N   0  0  0  0  0  0  0  0  0  0  0  0
   60.9180   31.2500   49.4280 C   0  0  0  0  0  0  0  0  0  0  0  0
   60.4310   32.2460   50.2860 C   0  0  0  0  0  0  0  0  0  0  0  0
   59.6438   32.0022   51.0146 H   0  0  0  0  0  0  0  0  0  0  0  0
   60.9390   33.5470   50.2220 C   0  0  0  0  0  0  0  0  0  0  0  0
   60.5602   34.3189   50.9081 H   0  0  0  0  0  0  0  0  0  0  0  0
   61.9270   33.8680   49.2880 C   0  0  0  0  0  0  0  0  0  0  0  0
   62.3294   34.8907   49.2421 H   0  0  0  0  0  0  0  0  0  0  0  0
   62.4050   32.8870   48.4100 C   0  0  0  0  0  0  0  0  0  0  0  0
   63.7390   33.3310   47.1180 Br  0  0  0  0  0  0  0  0  0  0  0  0
   61.8970   31.5850   48.4710 C   0  0  0  0  0  0  0  0  0  0  0  0
   62.2627   30.8203   47.7699 H   0  0  0  0  0  0  0  0  0  0  0  0
   58.3680   27.9680   46.2040 N   0  0  0  0  0  0  0  0  0  0  0  0
   59.0410   28.0300   45.0220 C   0  0  0  0  0  0  0  0  0  0  0  0
   58.5040   27.3920   43.7720 C   0  0  0  0  0  0  0  0  0  0  0  0
   58.1360   26.3849   44.0176 H   0  0  0  0  0  0  0  0  0  0  0  0
   59.3200   27.3499   43.0355 H   0  0  0  0  0  0  0  0  0  0  0  0
   57.3970   28.1730   43.1810 N   0  0  0  0  0  0  0  0  0  0  0  0
   56.6530   27.4960   42.8910 H   0  0  0  0  0  0  0  0  0  0  0  0
   57.7010   28.6700   42.3110 H   0  0  0  0  0  0  0  0  0  0  0  0
   56.7730   29.1200   44.1250 C   0  0  0  0  0  0  0  0  0  0  0  0
   56.9750   28.7772   45.1505 H   0  0  0  0  0  0  0  0  0  0  0  0
   55.6955   29.1427   43.9047 H   0  0  0  0  0  0  0  0  0  0  0  0
   57.2950   30.5310   43.9770 C   0  0  0  0  0  0  0  0  0  0  0  0
   57.2890   31.1670   42.7250 C   0  0  0  0  0  0  0  0  0  0  0  0
   56.8828   30.6437   41.8468 H   0  0  0  0  0  0  0  0  0  0  0  0
   57.7970   32.4620   42.5900 C   0  0  0  0  0  0  0  0  0  0  0  0
   57.8087   32.9464   41.6025 H   0  0  0  0  0  0  0  0  0  0  0  0
   58.2900   33.1430   43.7060 C   0  0  0  0  0  0  0  0  0  0  0  0
   58.6931   34.1604   43.5944 H   0  0  0  0  0  0  0  0  0  0  0  0
   58.2720   32.5330   44.9660 C   0  0  0  0  0  0  0  0  0  0  0  0
   58.8720   33.4070   46.3730 S   0  0  0  0  0  0  0  0  0  0  0  0
   60.3700   33.3020   46.4290 O   0  0  0  0  0  0  0  0  0  0  0  0
   58.4940   34.8590   46.2760 O   0  0  0  0  0  0  0  0  0  0  0  0
   58.1700   32.7180   47.8530 C   0  0  0  0  0  0  0  0  0  0  0  0
   58.6416   33.1808   48.7324 H   0  0  0  0  0  0  0  0  0  0  0  0
   57.0878   32.9143   47.8714 H   0  0  0  0  0  0  0  0  0  0  0  0
   58.3461   31.6323   47.8714 H   0  0  0  0  0  0  0  0  0  0  0  0
   57.7840   31.2260   45.0970 C   0  0  0  0  0  0  0  0  0  0  0  0
   57.7835   30.7400   46.0838 H   0  0  0  0  0  0  0  0  0  0  0  0
  1  2  1  0
  2  3  1  0
  3  4  1  0
  4  5  2  0
  5  6  1  0
  6  7  2  0
  6  8  1  0
  8  9  1  0
  9 10  2  0
 10 11  1  0
 10 12  1  0
 12 13  1  0
 12 14  2  0
 14 15  1  0
 14 16  1  0
 16 17  1  0
 16 18  2  0
 18 19  1  0
  4 20  1  0
 20 21  1  0
 21 22  1  0
 22 23  1  0
 22 24  1  0
 22 25  1  0
 25 26  1  0
 25 27  1  0
 25 28  1  0
 28 29  1  0
 28 30  1  0
 28 31  1  0
 31 32  2  0
 32 33  1  0
 32 34  1  0
 34 35  1  0
 34 36  2  0
 36 37  1  0
 36 38  1  0
 38 39  1  0
 39 40  2  0
 39 41  2  0
 39 42  1  0
 42 43  1  0
 42 44  1  0
 42 45  1  0
 38 46  2  0
 46 47  1  0
 21  2  2  0
 46 31  1  0
 18  9  1  0
M  CHG  3   8  -1  20  -1  25   1
M  END
>  <UniqueID>  (15) 
13

>  <SMILES>  (15) 
CS(=O)(=O)c1cccc(C[NH2+]Cc2cs/c(=N\C(=O)[N-]c3cccc(Br)c3)[n-]2)c1

>  <Energy>  (15) 
79.32669272648445

>  <Genealogy>  (15) 
CS(=O)(=O)c1cccc(C[NH2+]Cc2csc(=NC(=O)[N-]c3cccc(Br)c3)[n-]2)c1 (protonated)
CS(=O)(=O)c1cccc(C[NH2+]Cc2cs/c(=N\C(=O)[N-]c3cccc(Br)c3)[n-]2)c1 (cis-trans isomerization)
CS(=O)(=O)c1cccc(C[NH2+]Cc2cs/c(=N\C(=O)[N-]c3cccc(Br)c3)[n-]2)c1 (3D coordinates assigned)
CS(=O)(=O)c1cccc(C[NH2+]Cc2cs/c(=N\C(=O)[N-]c3cccc(Br)c3)[n-]2)c1 (optimized conformer: 79.32669272648445 kcal/mol)

>  <smiles>  (15) 
CS(=O)(=O)c1cccc(CNCc2csc(=NC(=O)Nc3cccc(Br)c3)[nH]2)c1

>  <score_type>  (15) 
oracle

>  <origin>  (15) 
adg

>  <m_score__min__energy>  (15) 
-10.390000000000001

>  <m_primary>  (15) 
energy

$$$$
15:0
     RDKit          3D

 58 60  0  0  0  0  0  0  0  0999 V2000
   60.0900   33.5000   51.3790 C   0  0  0  0  0  0  0  0  0  0  0  0
   60.5780   33.8800   50.0970 O   0  0  0  0  0  0  0  0  0  0  0  0
   59.8650   33.7240   48.8990 C   0  0  0  0  0  0  0  0  0  0  0  0
   60.1920   34.5470   47.8160 C   0  0  0  0  0  0  0  0  0  0  0  0
   59.5090   34.4310   46.6030 C   0  0  0  0  0  0  0  0  0  0  0  0
   58.4860   33.4870   46.4590 C   0  0  0  0  0  0  0  0  0  0  0  0
   57.5970   33.3820   44.9420 S   0  0  0  0  0  0  0  0  0  0  0  0
   56.6550   34.5490   44.8460 O   0  0  0  0  0  0  0  0  0  0  0  0
   58.5470   33.4430   43.7790 O   0  0  0  0  0  0  0  0  0  0  0  0
   56.6780   31.9050   44.8740 N   0  0  0  0  0  0  0  0  0  0  0  0
   56.9240   31.1750   43.6270 C   0  0  0  0  0  0  0  0  0  0  0  0
   56.6230   29.6820   43.7920 C   0  0  0  0  0  0  0  0  0  0  0  0
   57.4590   29.0620   44.8820 C   0  0  0  0  0  0  0  0  0  0  0  0
   57.1340   27.7960   45.3890 C   0  0  0  0  0  0  0  0  0  0  0  0
   57.9360   27.2020   46.3650 C   0  0  0  0  0  0  0  0  0  0  0  0
   59.0690   27.8640   46.8500 C   0  0  0  0  0  0  0  0  0  0  0  0
   59.8500   27.2410   47.8230 O   0  0  0  0  0  0  0  0  0  0  0  0
   59.4010   29.1400   46.3600 C   0  0  0  0  0  0  0  0  0  0  0  0
   60.5500   29.7790   46.8530 O   0  0  0  0  0  0  0  0  0  0  0  0
   60.7660   30.1490   48.1880 C   0  0  0  0  0  0  0  0  0  0  0  0
   60.0190   29.7050   49.1020 O   0  0  0  0  0  0  0  0  0  0  0  0
   61.9160   31.0170   48.5300 C   0  0  0  0  0  0  0  0  0  0  0  0
   62.6090   31.7140   47.5270 C   0  0  0  0  0  0  0  0  0  0  0  0
   63.6930   32.5320   47.8530 C   0  0  0  0  0  0  0  0  0  0  0  0
   64.1070   32.6680   49.1910 C   0  0  0  0  0  0  0  0  0  0  0  0
   65.1910   33.4830   49.5550 O   0  0  0  0  0  0  0  0  0  0  0  0
   66.3990   33.0050   50.1370 C   0  0  0  0  0  0  0  0  0  0  0  0
   63.4230   31.9750   50.2010 C   0  0  0  0  0  0  0  0  0  0  0  0
   63.8610   32.1310   51.5260 O   0  0  0  0  0  0  0  0  0  0  0  0
   63.6130   33.2810   52.3280 C   0  0  0  0  0  0  0  0  0  0  0  0
   62.3320   31.1510   49.8650 C   0  0  0  0  0  0  0  0  0  0  0  0
   58.6010   29.7240   45.3590 C   0  0  0  0  0  0  0  0  0  0  0  0
   58.1500   32.6590   47.5390 C   0  0  0  0  0  0  0  0  0  0  0  0
   58.8350   32.7740   48.7530 C   0  0  0  0  0  0  0  0  0  0  0  0
   60.7013   33.9760   52.1599 H   0  0  0  0  0  0  0  0  0  0  0  0
   59.0440   33.8238   51.4839 H   0  0  0  0  0  0  0  0  0  0  0  0
   60.1476   32.4065   51.4839 H   0  0  0  0  0  0  0  0  0  0  0  0
   60.9943   35.2923   47.9206 H   0  0  0  0  0  0  0  0  0  0  0  0
   59.7760   35.0835   45.7586 H   0  0  0  0  0  0  0  0  0  0  0  0
   56.2785   31.5862   42.8369 H   0  0  0  0  0  0  0  0  0  0  0  0
   57.9847   31.2895   43.3591 H   0  0  0  0  0  0  0  0  0  0  0  0
   55.5595   29.5585   44.0445 H   0  0  0  0  0  0  0  0  0  0  0  0
   56.8646   29.1768   42.8452 H   0  0  0  0  0  0  0  0  0  0  0  0
   56.2435   27.2687   45.0162 H   0  0  0  0  0  0  0  0  0  0  0  0
   57.6755   26.2071   46.7552 H   0  0  0  0  0  0  0  0  0  0  0  0
   60.5480   27.7420   48.3580 H   0  0  0  0  0  0  0  0  0  0  0  0
   62.2958   31.6150   46.4772 H   0  0  0  0  0  0  0  0  0  0  0  0
   64.2269   33.0737   47.0583 H   0  0  0  0  0  0  0  0  0  0  0  0
   66.3159   33.0379   51.2334 H   0  0  0  0  0  0  0  0  0  0  0  0
   66.5768   31.9687   49.8137 H   0  0  0  0  0  0  0  0  0  0  0  0
   67.2377   33.6390   49.8137 H   0  0  0  0  0  0  0  0  0  0  0  0
   63.6723   33.0061   53.3914 H   0  0  0  0  0  0  0  0  0  0  0  0
   64.3655   34.0520   52.1061 H   0  0  0  0  0  0  0  0  0  0  0  0
   62.6096   33.6733   52.1061 H   0  0  0  0  0  0  0  0  0  0  0  0
   61.7988   30.6055   50.6576 H   0  0  0  0  0  0  0  0  0  0  0  0
   58.8734   30.7071   44.9475 H   0  0  0  0  0  0  0  0  0  0  0  0
   57.3454   31.9167   47.4314 H   0  0  0  0  0  0  0  0  0  0  0  0
   58.5686   32.1204   49.5967 H   0  0  0  0  0  0  0  0  0  0  0  0
  1  2  1  0
  2  3  1  0
  3  4  2  0
  4  5  1  0
  5  6  2  0
  6  7  1  0
  7  8  2  0
  7  9  2  0
  7 10  1  0
 10 11  1  0
 11 12  1  0
 12 13  1  0
 13 14  2  0
 14 15  1  0
 15 16  2  0
 16 17  1  0
 16 18  1  0
 18 19  1  0
 19 20  1  0
 20 21  2  0
 20 22  1  0
 22 23  2  0
 23 24  1  0
 24 25  2  0
 25 26  1  0
 26 27  1  0
 25 28  1  0
 28 29  1  0
 29 30  1  0
 28 31  2  0
 18 32  2  0
  6 33  1  0
 33 34  2  0
 34  3  1  0
 32 13  1  0
 31 22  1  0
  1 35  1  0
  1 36  1  0
  1 37  1  0
  4 38  1  0
  5 39  1  0
 11 40  1  0
 11 41  1  0
 12 42  1  0
 12 43  1  0
 14 44  1  0
 15 45  1  0
 17 46  1  0
 23 47  1  0
 24 48  1  0
 27 49  1  0
 27 50  1  0
 27 51  1  0
 30 52  1  0
 30 53  1  0
 30 54  1  0
 31 55  1  0
 32 56  1  0
 33 57  1  0
 34 58  1  0
M  CHG  1  10  -1
M  END
>  <UniqueID>  (16) 
14

>  <SMILES>  (16) 
COc1ccc(S(=O)(=O)[N-]CCc2ccc(O)c(OC(=O)c3ccc(OC)c(OC)c3)c2)cc1

>  <Energy>  (16) 
59.826785307442535

>  <Genealogy>  (16) 
COc1ccc(S(=O)(=O)[N-]CCc2ccc(O)c(OC(=O)c3ccc(OC)c(OC)c3)c2)cc1 (protonated)
COc1ccc(S(=O)(=O)[N-]CCc2ccc(O)c(OC(=O)c3ccc(OC)c(OC)c3)c2)cc1 (3D coordinates assigned)
COc1ccc(S(=O)(=O)[N-]CCc2ccc(O)c(OC(=O)c3ccc(OC)c(OC)c3)c2)cc1 (optimized conformer: 59.826785307442535 kcal/mol)

>  <smiles>  (16) 
COc1ccc(S(=O)(=O)NCCc2ccc(O)c(OC(=O)c3ccc(OC)c(OC)c3)c2)cc1

>  <score_type>  (16) 
oracle

>  <origin>  (16) 
adg

>  <m_score__min__energy>  (16) 
-9.3399999999999999

>  <m_primary>  (16) 
energy

$$$$
16:0
     RDKit          3D

 36 38  0  0  0  0  0  0  0  0999 V2000
   59.2700   33.4360   48.9280 C   0  0  0  0  0  0  0  0  0  0  0  0
   59.0330   33.5300   47.4510 C   0  0  0  0  0  0  0  0  0  0  0  0
   59.5250   34.6210   46.7270 C   0  0  0  0  0  0  0  0  0  0  0  0
   59.2410   34.7250   45.3660 C   0  0  0  0  0  0  0  0  0  0  0  0
   58.4860   33.7780   44.7480 N   0  0  0  0  0  0  0  0  0  0  0  0
   57.9830   32.7010   45.4180 C   0  0  0  0  0  0  0  0  0  0  0  0
   57.2280   31.8600   44.7620 N   0  0  0  0  0  0  0  0  0  0  0  0
   57.3670   31.3860   43.4130 C   0  0  0  0  0  0  0  0  0  0  0  0
   58.0520   32.0200   42.5650 O   0  0  0  0  0  0  0  0  0  0  0  0
   56.6470   30.1410   43.0030 C   0  0  0  0  0  0  0  0  0  0  0  0
   55.3060   29.7300   44.1760 S   0  0  0  0  0  0  0  0  0  0  0  0
   56.3270   28.7190   45.2460 C   0  0  0  0  0  0  0  0  0  0  0  0
   55.8840   27.4960   45.6390 N   0  0  0  0  0  0  0  0  0  0  0  0
   56.6480   26.6830   46.4140 C   0  0  0  0  0  0  0  0  0  0  0  0
   56.1990   25.5570   46.7570 O   0  0  0  0  0  0  0  0  0  0  0  0
   57.9270   27.1040   46.8130 C   0  0  0  0  0  0  0  0  0  0  0  0
   58.7770   26.3020   47.5960 C   0  0  0  0  0  0  0  0  0  0  0  0
   60.0400   26.7750   47.9640 C   0  0  0  0  0  0  0  0  0  0  0  0
   60.4640   28.0420   47.5560 C   0  0  0  0  0  0  0  0  0  0  0  0
   59.6270   28.8460   46.7750 C   0  0  0  0  0  0  0  0  0  0  0  0
   58.3610   28.3830   46.4010 C   0  0  0  0  0  0  0  0  0  0  0  0
   57.5530   29.1580   45.6320 N   0  0  0  0  0  0  0  0  0  0  0  0
   58.2440   32.5730   46.8000 C   0  0  0  0  0  0  0  0  0  0  0  0
   58.3780   33.7898   49.4657 H   0  0  0  0  0  0  0  0  0  0  0  0
   59.4718   32.3897   49.2011 H   0  0  0  0  0  0  0  0  0  0  0  0
   60.1341   34.0595   49.2011 H   0  0  0  0  0  0  0  0  0  0  0  0
   60.1310   35.3906   47.2274 H   0  0  0  0  0  0  0  0  0  0  0  0
   59.6296   35.5773   44.7894 H   0  0  0  0  0  0  0  0  0  0  0  0
   58.2840   33.8930   43.7280 H   0  0  0  0  0  0  0  0  0  0  0  0
   56.2144   30.2905   42.0027 H   0  0  0  0  0  0  0  0  0  0  0  0
   57.3679   29.3102   42.9959 H   0  0  0  0  0  0  0  0  0  0  0  0
   58.4480   25.3031   47.9186 H   0  0  0  0  0  0  0  0  0  0  0  0
   60.7027   26.1469   48.5774 H   0  0  0  0  0  0  0  0  0  0  0  0
   61.4587   28.4084   47.8497 H   0  0  0  0  0  0  0  0  0  0  0  0
   59.9645   29.8428   46.4548 H   0  0  0  0  0  0  0  0  0  0  0  0
   57.8290   31.7244   47.3635 H   0  0  0  0  0  0  0  0  0  0  0  0
  1  2  1  0
  2  3  1  0
  3  4  2  0
  4  5  1  0
  5  6  1  0
  6  7  2  3
  7  8  1  0
  8  9  2  0
  8 10  1  0
 10 11  1  0
 11 12  1  0
 12 13  2  0
 13 14  1  0
 14 15  2  0
 14 16  1  0
 16 17  2  0
 17 18  1  0
 18 19  2  0
 19 20  1  0
 20 21  2  0
 21 22  1  0
  6 23  1  0
 23  2  2  0
 22 12  1  0
 21 16  1  0
  1 24  1  0
  1 25  1  0
  1 26  1  0
  3 27  1  0
  4 28  1  0
  5 29  1  0
 10 30  1  0
 10 31  1  0
 17 32  1  0
 18 33  1  0
 19 34  1  0
 20 35  1  0
 23 36  1  0
M  CHG  1  22  -1
M  END
>  <UniqueID>  (17) 
15

>  <SMILES>  (17) 
Cc1cc[nH]c(=NC(=O)CSc2nc(=O)c3ccccc3[n-]2)c1

>  <Energy>  (17) 
42.93003464141079

>  <Genealogy>  (17) 
Cc1cc[nH]c(=NC(=O)CSc2nc(=O)c3ccccc3[n-]2)c1 (protonated)
Cc1cc[nH]c(=NC(=O)CSc2nc(=O)c3ccccc3[n-]2)c1 (3D coordinates assigned)
Cc1cc[nH]c(=NC(=O)CSc2nc(=O)c3ccccc3[n-]2)c1 (optimized conformer: 42.93003464141079 kcal/mol)

>  <smiles>  (17) 
Cc1cc[nH]c(=NC(=O)CSc2nc(=O)c3ccccc3[nH]2)c1

>  <score_type>  (17) 
oracle

>  <origin>  (17) 
adg

>  <m_score__min__energy>  (17) 
-9.4399999999999995

>  <m_primary>  (17) 
energy

$$$$
17:0
     RDKit          3D

 34 36  0  0  0  0  0  0  0  0999 V2000
   55.1960   29.3430   44.6100 N   0  0  0  0  0  0  0  0  0  0  0  0
   56.6490   29.8740   43.8410 S   0  0  0  0  0  0  0  0  0  0  0  0
   57.3870   28.6860   43.2900 O   0  0  0  0  0  0  0  0  0  0  0  0
   56.3100   30.7990   42.7050 O   0  0  0  0  0  0  0  0  0  0  0  0
   57.6600   30.7110   45.0150 C   0  0  0  0  0  0  0  0  0  0  0  0
   58.3950   29.9820   45.9560 C   0  0  0  0  0  0  0  0  0  0  0  0
   59.1860   30.6460   46.9010 C   0  0  0  0  0  0  0  0  0  0  0  0
   59.2620   32.0450   46.9070 C   0  0  0  0  0  0  0  0  0  0  0  0
   60.0650   32.7020   47.9030 N   0  0  0  0  0  0  0  0  0  0  0  0
   61.2580   33.4460   47.6070 C   0  0  0  0  0  0  0  0  0  0  0  0
   61.7600   33.4220   46.4510 O   0  0  0  0  0  0  0  0  0  0  0  0
   61.9360   34.2380   48.6800 C   0  0  0  0  0  0  0  0  0  0  0  0
   62.6360   33.1200   49.9410 S   0  0  0  0  0  0  0  0  0  0  0  0
   61.0420   32.5670   50.5490 C   0  0  0  0  0  0  0  0  0  0  0  0
   60.6450   31.2680   50.4820 N   0  0  0  0  0  0  0  0  0  0  0  0
   59.4240   31.3300   51.0250 C   0  0  0  0  0  0  0  0  0  0  0  0
   58.5780   30.2930   51.2320 N   0  0  0  0  0  0  0  0  0  0  0  0
   57.3730   30.5500   51.8250 C   0  0  0  0  0  0  0  0  0  0  0  0
   56.5590   29.6100   52.0240 O   0  0  0  0  0  0  0  0  0  0  0  0
   57.0440   31.8280   52.2040 N   0  0  0  0  0  0  0  0  0  0  0  0
   57.9030   32.8690   51.9970 C   0  0  0  0  0  0  0  0  0  0  0  0
   57.6010   34.0330   52.3640 O   0  0  0  0  0  0  0  0  0  0  0  0
   59.1230   32.5920   51.3950 C   0  0  0  0  0  0  0  0  0  0  0  0
   60.1340   33.4190   51.0990 N   0  0  0  0  0  0  0  0  0  0  0  0
   58.4960   32.7770   45.9830 C   0  0  0  0  0  0  0  0  0  0  0  0
   57.7030   32.1120   45.0410 C   0  0  0  0  0  0  0  0  0  0  0  0
   55.1460   28.3050   44.4870 H   0  0  0  0  0  0  0  0  0  0  0  0
   58.3512   28.8829   45.9533 H   0  0  0  0  0  0  0  0  0  0  0  0
   59.7520   30.0652   47.6442 H   0  0  0  0  0  0  0  0  0  0  0  0
   59.8430   32.5190   48.9070 H   0  0  0  0  0  0  0  0  0  0  0  0
   62.7452   34.8353   48.2345 H   0  0  0  0  0  0  0  0  0  0  0  0
   61.1991   34.9008   49.1571 H   0  0  0  0  0  0  0  0  0  0  0  0
   58.5200   33.8766   46.0005 H   0  0  0  0  0  0  0  0  0  0  0  0
   57.1106   32.6913   44.3175 H   0  0  0  0  0  0  0  0  0  0  0  0
  1  2  1  0
  2  3  2  0
  2  4  2  0
  2  5  1  0
  5  6  2  0
  6  7  1  0
  7  8  2  0
  8  9  1  0
  9 10  1  0
 10 11  2  0
 10 12  1  0
 12 13  1  0
 13 14  1  0
 14 15  2  0
 15 16  1  0
 16 17  1  0
 17 18  1  0
 18 19  2  0
 18 20  1  0
 20 21  1  0
 21 22  2  0
 21 23  1  0
 23 24  1  0
  8 25  1  0
 25 26  2  0
 26  5  1  0
 24 14  1  0
 23 16  2  0
  1 27  1  0
  6 28  1  0
  7 29  1  0
  9 30  1  0
 12 31  1  0
 12 32  1  0
 25 33  1  0
 26 34  1  0
M  CHG  4   1  -1  17  -1  20  -1  24  -1
M  END
>  <UniqueID>  (18) 
16

>  <SMILES>  (18) 
[NH-]S(=O)(=O)c1ccc(NC(=O)CSc2nc3[n-]c(=O)[n-]c(=O)c3[n-]2)cc1

>  <Energy>  (18) 
73.95203364686839

>  <Genealogy>  (18) 
[NH-]S(=O)(=O)c1ccc(NC(=O)CSc2nc3[n-]c(=O)[n-]c(=O)c3[n-]2)cc1 (protonated)
[NH-]S(=O)(=O)c1ccc(NC(=O)CSc2nc3[n-]c(=O)[n-]c(=O)c3[n-]2)cc1 (3D coordinates assigned)
[NH-]S(=O)(=O)c1ccc(NC(=O)CSc2nc3[n-]c(=O)[n-]c(=O)c3[n-]2)cc1 (optimized conformer: 73.95203364686839 kcal/mol)

>  <smiles>  (18) 
NS(=O)(=O)c1ccc(NC(=O)CSc2nc3[nH]c(=O)[nH]c(=O)c3[nH]2)cc1

>  <score_type>  (18) 
oracle

>  <origin>  (18) 
adg

>  <m_score__min__energy>  (18) 
-12.720000000000001

>  <m_primary>  (18) 
energy

$$$$
18:0
     RDKit          3D

 44 46  0  0  0  0  0  0  0  0999 V2000
   57.8920   26.7820   42.8030 N   0  0  0  0  0  0  0  0  0  0  0  0
   58.4340   27.4640   43.5650 C   0  0  0  0  0  0  0  0  0  0  0  0
   59.1240   28.3290   44.5310 C   0  0  0  0  0  0  0  0  0  0  0  0
   58.1350   29.0270   45.4740 C   0  0  0  0  0  0  0  0  0  0  0  0
   58.1980   30.5430   45.3470 C   0  0  0  0  0  0  0  0  0  0  0  0
   59.3260   31.3000   45.7550 C   0  0  0  0  0  0  0  0  0  0  0  0
   60.7960   30.4230   46.3700 S   0  0  0  0  0  0  0  0  0  0  0  0
   60.2920   30.4020   48.0950 C   0  0  0  0  0  0  0  0  0  0  0  0
   58.9370   30.5610   48.4150 C   0  0  0  0  0  0  0  0  0  0  0  0
   58.5200   30.5350   49.7490 C   0  0  0  0  0  0  0  0  0  0  0  0
   59.4550   30.3370   50.7690 C   0  0  0  0  0  0  0  0  0  0  0  0
   60.8050   30.1530   50.4530 C   0  0  0  0  0  0  0  0  0  0  0  0
   61.2220   30.1750   49.1190 C   0  0  0  0  0  0  0  0  0  0  0  0
   59.2680   32.6810   45.7310 N   0  0  0  0  0  0  0  0  0  0  0  0
   60.4140   33.5180   46.1530 C   0  0  0  0  0  0  0  0  0  0  0  0
   60.5700   33.6050   47.6660 C   0  0  0  0  0  0  0  0  0  0  0  0
   59.4660   33.8470   48.5140 C   0  0  0  0  0  0  0  0  0  0  0  0
   59.6360   33.9480   49.8960 C   0  0  0  0  0  0  0  0  0  0  0  0
   60.9050   33.8160   50.4570 C   0  0  0  0  0  0  0  0  0  0  0  0
   62.0110   33.5840   49.6380 C   0  0  0  0  0  0  0  0  0  0  0  0
   61.8540   33.4780   48.2490 C   0  0  0  0  0  0  0  0  0  0  0  0
   63.0280   33.2510   47.4400 C   0  0  0  0  0  0  0  0  0  0  0  0
   63.9690   33.0700   46.7910 N   0  0  0  0  0  0  0  0  0  0  0  0
   58.1340   33.3110   45.2790 C   0  0  0  0  0  0  0  0  0  0  0  0
   58.0720   34.5710   45.2390 O   0  0  0  0  0  0  0  0  0  0  0  0
   57.0650   32.5900   44.8570 N   0  0  0  0  0  0  0  0  0  0  0  0
   57.0690   31.2370   44.8840 C   0  0  0  0  0  0  0  0  0  0  0  0
   56.0460   30.6090   44.4960 O   0  0  0  0  0  0  0  0  0  0  0  0
   59.8147   27.7161   45.1287 H   0  0  0  0  0  0  0  0  0  0  0  0
   59.6687   29.1031   43.9707 H   0  0  0  0  0  0  0  0  0  0  0  0
   57.1158   28.6924   45.2305 H   0  0  0  0  0  0  0  0  0  0  0  0
   58.4053   28.7613   46.5066 H   0  0  0  0  0  0  0  0  0  0  0  0
   58.1984   30.7069   47.6131 H   0  0  0  0  0  0  0  0  0  0  0  0
   57.4566   30.6703   49.9959 H   0  0  0  0  0  0  0  0  0  0  0  0
   59.1293   30.3259   51.8196 H   0  0  0  0  0  0  0  0  0  0  0  0
   61.5397   29.9907   51.2554 H   0  0  0  0  0  0  0  0  0  0  0  0
   62.2818   30.0139   48.8723 H   0  0  0  0  0  0  0  0  0  0  0  0
   61.3345   33.0885   45.7309 H   0  0  0  0  0  0  0  0  0  0  0  0
   60.2266   34.5375   45.7850 H   0  0  0  0  0  0  0  0  0  0  0  0
   58.4611   33.9571   48.0803 H   0  0  0  0  0  0  0  0  0  0  0  0
   58.7662   34.1322   50.5437 H   0  0  0  0  0  0  0  0  0  0  0  0
   61.0350   33.8948   51.5465 H   0  0  0  0  0  0  0  0  0  0  0  0
   63.0112   33.4838   50.0848 H   0  0  0  0  0  0  0  0  0  0  0  0
   56.2150   33.0910   44.5110 H   0  0  0  0  0  0  0  0  0  0  0  0
  1  2  3  0
  2  3  1  0
  3  4  1  0
  4  5  1  0
  5  6  2  0
  6  7  1  0
  7  8  1  0
  8  9  2  0
  9 10  1  0
 10 11  2  0
 11 12  1  0
 12 13  2  0
  6 14  1  0
 14 15  1  0
 15 16  1  0
 16 17  2  0
 17 18  1  0
 18 19  2  0
 19 20  1  0
 20 21  2  0
 21 22  1  0
 22 23  3  0
 14 24  1  0
 24 25  2  0
 24 26  1  0
 26 27  1  0
 27 28  2  0
 27  5  1  0
 13  8  1  0
 21 16  1  0
  3 29  1  0
  3 30  1  0
  4 31  1  0
  4 32  1  0
  9 33  1  0
 10 34  1  0
 11 35  1  0
 12 36  1  0
 13 37  1  0
 15 38  1  0
 15 39  1  0
 17 40  1  0
 18 41  1  0
 19 42  1  0
 20 43  1  0
 26 44  1  0
M  END
>  <UniqueID>  (19) 
17

>  <SMILES>  (19) 
N#CCCc1c(Sc2ccccc2)n(Cc2ccccc2C#N)c(=O)[nH]c1=O

>  <Energy>  (19) 
49.12297055695365

>  <Genealogy>  (19) 
N#CCCc1c(Sc2ccccc2)n(Cc2ccccc2C#N)c(=O)[nH]c1=O (3D coordinates assigned)
N#CCCc1c(Sc2ccccc2)n(Cc2ccccc2C#N)c(=O)[nH]c1=O (optimized conformer: 49.12297055695365 kcal/mol)

>  <smiles>  (19) 
N#CCCc1c(Sc2ccccc2)n(Cc2ccccc2C#N)c(=O)[nH]c1=O

>  <score_type>  (19) 
oracle

>  <origin>  (19) 
adg

>  <m_score__min__energy>  (19) 
-8.5800000000000001

>  <m_primary>  (19) 
energy

$$$$
19:0
     RDKit          3D

 36 37  0  0  0  0  0  0  0  0999 V2000
   63.0700   34.2100   49.9280 C   0  0  0  0  0  0  0  0  0  0  0  0
   64.0370   33.7910   48.9070 N   0  0  0  0  0  0  0  0  0  0  0  0
   65.0720   32.9200   49.4720 C   0  0  0  0  0  0  0  0  0  0  0  0
   63.2780   33.1050   47.4800 S   0  0  0  0  0  0  0  0  0  0  0  0
   63.4270   34.0800   46.3450 O   0  0  0  0  0  0  0  0  0  0  0  0
   64.0330   31.8590   47.1060 O   0  0  0  0  0  0  0  0  0  0  0  0
   61.5780   32.6980   47.6250 N   0  0  0  0  0  0  0  0  0  0  0  0
   60.7170   33.3890   46.6490 C   0  0  0  0  0  0  0  0  0  0  0  0
   59.2930   32.8300   46.6660 C   0  0  0  0  0  0  0  0  0  0  0  0
   59.3090   31.3850   46.4030 N   0  0  0  0  0  0  0  0  0  0  0  0
   58.1400   30.7490   45.8450 C   0  0  0  0  0  0  0  0  0  0  0  0
   57.3130   31.4600   45.0290 N   0  0  0  0  0  0  0  0  0  0  0  0
   56.2040   30.8960   44.4840 C   0  0  0  0  0  0  0  0  0  0  0  0
   55.8980   29.5660   44.7570 C   0  0  0  0  0  0  0  0  0  0  0  0
   54.7680   28.9710   44.2100 O   0  0  0  0  0  0  0  0  0  0  0  0
   56.7530   28.8440   45.5870 C   0  0  0  0  0  0  0  0  0  0  0  0
   57.8550   29.4400   46.1150 N   0  0  0  0  0  0  0  0  0  0  0  0
   60.5060   30.6020   46.7400 C   0  0  0  0  0  0  0  0  0  0  0  0
   61.2960   31.2700   47.8750 C   0  0  0  0  0  0  0  0  0  0  0  0
   63.4905   34.0278   50.9280 H   0  0  0  0  0  0  0  0  0  0  0  0
   62.8544   35.2823   49.8107 H   0  0  0  0  0  0  0  0  0  0  0  0
   62.1402   33.6340   49.8107 H   0  0  0  0  0  0  0  0  0  0  0  0
   65.0250   32.9595   50.5703 H   0  0  0  0  0  0  0  0  0  0  0  0
   64.9055   31.8863   49.1348 H   0  0  0  0  0  0  0  0  0  0  0  0
   66.0621   33.2607   49.1348 H   0  0  0  0  0  0  0  0  0  0  0  0
   60.6838   34.4603   46.8965 H   0  0  0  0  0  0  0  0  0  0  0  0
   61.1380   33.2330   45.6448 H   0  0  0  0  0  0  0  0  0  0  0  0
   58.8427   33.0142   47.6525 H   0  0  0  0  0  0  0  0  0  0  0  0
   58.7033   33.3295   45.8832 H   0  0  0  0  0  0  0  0  0  0  0  0
   55.5493   31.4890   43.8285 H   0  0  0  0  0  0  0  0  0  0  0  0
   56.5361   27.7901   45.8155 H   0  0  0  0  0  0  0  0  0  0  0  0
   58.4880   28.8660   46.7130 H   0  0  0  0  0  0  0  0  0  0  0  0
   60.1996   29.5948   47.0587 H   0  0  0  0  0  0  0  0  0  0  0  0
   61.1501   30.5440   45.8502 H   0  0  0  0  0  0  0  0  0  0  0  0
   60.7124   31.1862   48.8037 H   0  0  0  0  0  0  0  0  0  0  0  0
   62.2643   30.7532   47.9477 H   0  0  0  0  0  0  0  0  0  0  0  0
  1  2  1  0
  2  3  1  0
  2  4  1  0
  4  5  2  0
  4  6  2  0
  4  7  1  0
  7  8  1  0
  8  9  1  0
  9 10  1  0
 10 11  1  0
 11 12  2  0
 12 13  1  0
 13 14  2  0
 14 15  1  0
 14 16  1  0
 16 17  2  0
 10 18  1  0
 18 19  1  0
 19  7  1  0
 17 11  1  0
  1 20  1  0
  1 21  1  0
  1 22  1  0
  3 23  1  0
  3 24  1  0
  3 25  1  0
  8 26  1  0
  8 27  1  0
  9 28  1  0
  9 29  1  0
 13 30  1  0
 16 31  1  0
 17 32  1  0
 18 33  1  0
 18 34  1  0
 19 35  1  0
 19 36  1  0
M  CHG  2  15  -1  17   1
M  END
>  <UniqueID>  (20) 
18

>  <SMILES>  (20) 
CN(C)S(=O)(=O)N1CCN(c2ncc([O-])c[nH+]2)CC1

>  <Energy>  (20) 
46.078544774494105

>  <Genealogy>  (20) 
CN(C)S(=O)(=O)N1CCN(c2ncc([O-])c[nH+]2)CC1 (protonated)
CN(C)S(=O)(=O)N1CCN(c2ncc([O-])c[nH+]2)CC1 (3D coordinates assigned)
CN(C)S(=O)(=O)N1CCN(c2ncc([O-])c[nH+]2)CC1 (nonaromatic ring conformer: 46.078544774494105 kcal/mol)

>  <smiles>  (20) 
CN(C)S(=O)(=O)N1CCN(c2ncc(O)cn2)CC1

>  <score_type>  (20) 
oracle

>  <origin>  (20) 
adg

>  <m_score__min__energy>  (20) 
-7.25

>  <m_primary>  (20) 
energy

$$$$
20:0
     RDKit          3D

 54 59  0  0  1  0  0  0  0  0999 V2000
   56.4400   30.2610   44.8420 O   0  0  0  0  0  0  0  0  0  0  0  0
   57.2220   29.3380   45.2490 C   0  0  0  0  0  0  0  0  0  0  0  0
   57.0280   28.0680   44.8310 N   0  0  0  0  0  0  0  0  0  0  0  0
   57.8460   27.0750   45.2510 C   0  0  0  0  0  0  0  0  0  0  0  0
   57.6820   25.7660   44.8480 C   0  0  0  0  0  0  0  0  0  0  0  0
   58.5360   24.7830   45.2990 C   0  0  0  0  0  0  0  0  0  0  0  0
   59.5830   25.0630   46.1660 C   0  0  0  0  0  0  0  0  0  0  0  0
   59.7540   26.3770   46.5750 C   0  0  0  0  0  0  0  0  0  0  0  0
   58.8900   27.3670   46.1190 C   0  0  0  0  0  0  0  0  0  0  0  0
   59.1130   28.6380   46.5590 C   0  0  0  0  0  0  0  0  0  0  0  0
   60.1240   28.9350   47.4020 N   0  0  0  0  0  0  0  0  0  0  0  0
   60.3440   30.1940   47.8380 C   0  0  0  0  0  0  0  0  0  0  0  0
   61.4100   30.4490   48.7140 N   0  0  0  0  0  0  0  0  0  0  0  0
   61.5480   29.5830   49.8850 C   0  0  0  0  0  0  0  0  0  0  0  0
   61.6970   30.5340   51.0670 C   0  0  0  0  0  0  0  0  0  0  0  0
   63.0480   31.1660   50.8790 C   0  0  0  0  0  0  0  0  0  0  0  0
   63.9570   31.2730   51.9100 C   0  0  0  0  0  0  0  0  0  0  0  0
   65.1670   31.8710   51.6200 C   0  0  0  0  0  0  0  0  0  0  0  0
   65.4750   32.3430   50.3810 C   0  0  0  0  0  0  0  0  0  0  0  0
   64.5530   32.2270   49.3630 C   0  0  0  0  0  0  0  0  0  0  0  0
   63.3090   31.6300   49.5960 C   0  0  0  0  0  0  0  0  0  0  0  0
   62.3430   31.5190   48.4860 C   0  0  0  0  0  0  0  0  0  0  0  0
   59.5190   31.1780   47.4110 N   0  0  0  0  0  0  0  0  0  0  0  0
   58.4880   30.9260   46.5620 C   0  0  0  0  0  0  0  0  0  0  0  0
   57.7180   31.8910   46.1710 N   0  0  0  0  0  0  0  0  0  0  0  0
   58.3830   33.1530   45.9490 C   0  0  0  0  0  0  0  0  0  0  0  0
   58.6600   33.5890   44.6690 C   0  0  0  0  0  0  0  0  0  0  0  0
   59.2970   34.8040   44.5480 C   0  0  0  0  0  0  0  0  0  0  0  0
   59.6410   35.5470   45.6540 C   0  0  0  0  0  0  0  0  0  0  0  0
   59.3610   35.1030   46.9300 C   0  0  0  0  0  0  0  0  0  0  0  0
   58.7220   33.8880   47.0770 C   0  0  0  0  0  0  0  0  0  0  0  0
   58.4300   33.4220   48.3620 O   0  0  0  0  0  0  0  0  0  0  0  0
   58.2510   29.6450   46.1070 C   0  0  0  0  0  0  0  0  0  0  0  0
   56.2470   27.8370   44.1790 H   0  0  0  0  0  0  0  0  0  0  0  0
   56.8633   25.5048   44.1614 H   0  0  0  0  0  0  0  0  0  0  0  0
   58.3835   23.7470   44.9623 H   0  0  0  0  0  0  0  0  0  0  0  0
   60.2562   24.2674   46.5178 H   0  0  0  0  0  0  0  0  0  0  0  0
   60.5739   26.6366   47.2608 H   0  0  0  0  0  0  0  0  0  0  0  0
   60.6547   28.9528   50.0066 H   0  0  0  0  0  0  0  0  0  0  0  0
   62.4061   28.9008   49.7942 H   0  0  0  0  0  0  0  0  0  0  0  0
   60.9057   31.2980   51.0526 H   0  0  0  0  0  0  0  0  0  0  0  0
   61.6107   30.0148   52.0329 H   0  0  0  0  0  0  0  0  0  0  0  0
   63.7283   30.8986   52.9187 H   0  0  0  0  0  0  0  0  0  0  0  0
   65.9125   31.9701   52.4228 H   0  0  0  0  0  0  0  0  0  0  0  0
   66.4517   32.8131   50.1937 H   0  0  0  0  0  0  0  0  0  0  0  0
   64.7969   32.6066   48.3598 H   0  0  0  0  0  0  0  0  0  0  0  0
   61.7891   32.4651   48.3964 H   0  0  0  0  0  0  0  0  0  0  0  0
   62.8984   31.3057   47.5608 H   0  0  0  0  0  0  0  0  0  0  0  0
   59.7180   32.1290   47.7660 H   0  0  0  0  0  0  0  0  0  0  0  0
   58.3846   32.9934   43.7862 H   0  0  0  0  0  0  0  0  0  0  0  0
   59.5360   35.1888   43.5456 H   0  0  0  0  0  0  0  0  0  0  0  0
   60.1489   36.5133   45.5182 H   0  0  0  0  0  0  0  0  0  0  0  0
   59.6402   35.7026   47.8090 H   0  0  0  0  0  0  0  0  0  0  0  0
   57.9180   32.5360   48.4470 H   0  0  0  0  0  0  0  0  0  0  0  0
  1  2  2  0
  2  3  1  0
  3  4  1  0
  4  5  2  0
  5  6  1  0
  6  7  2  0
  7  8  1  0
  8  9  2  0
  9 10  1  0
 10 11  1  0
 11 12  2  0
 12 13  1  0
 13 14  1  0
 14 15  1  0
 15 16  1  0
 16 17  2  0
 17 18  1  0
 18 19  2  0
 19 20  1  0
 20 21  2  0
 21 22  1  0
 12 23  1  0
 23 24  1  0
 24 25  2  0
 25 26  1  0
 26 27  2  0
 27 28  1  0
 28 29  2  0
 29 30  1  0
 30 31  2  0
 31 32  1  0
 24 33  1  0
 33  2  1  0
  9  4  1  0
 33 10  2  0
 22 13  1  0
 31 26  1  0
 21 16  1  0
  3 34  1  0
  5 35  1  0
  6 36  1  0
  7 37  1  0
  8 38  1  0
 14 39  1  0
 14 40  1  0
 15 41  1  0
 15 42  1  0
 17 43  1  0
 18 44  1  0
 19 45  1  0
 20 46  1  0
 22 47  1  0
 22 48  1  0
 23 49  1  0
 27 50  1  0
 28 51  1  0
 29 52  1  0
 30 53  1  0
 32 54  1  0
M  END
>  <smiles>  (21) 
O=c1[nH]c2ccccc2c2nc(N3CCc4ccccc4C3)[nH]c(=Nc3ccccc3O)c12

>  <score_type>  (21) 
oracle

>  <origin>  (21) 
adg

>  <m_score__min__energy>  (21) 
-10.380000000000001

>  <m_primary>  (21) 
energy

$$$$
21:0
     RDKit          3D

 44 46  0  0  0  0  0  0  0  0999 V2000
   56.6660   26.3890   46.3170 C   0  0  0  0  0  0  0  0  0  0  0  0
   57.0190   27.4080   45.2290 C   0  0  2  0  0  0  0  0  0  0  0  0
   58.4780   27.9100   45.4050 C   0  0  0  0  0  0  0  0  0  0  0  0
   58.5180   29.2690   45.9510 N   0  0  0  0  0  0  0  0  0  0  0  0
   59.5160   29.6270   46.9210 C   0  0  0  0  0  0  0  0  0  0  0  0
   60.4730   30.5980   46.5990 C   0  0  0  0  0  0  0  0  0  0  0  0
   61.4920   30.9330   47.5080 C   0  0  0  0  0  0  0  0  0  0  0  0
   62.5180   31.8850   47.1760 N   0  0  0  0  0  0  0  0  0  0  0  0
   62.2510   33.5990   47.1070 S   0  0  0  0  0  0  0  0  0  0  0  0
   63.1020   34.1940   46.0200 O   0  0  0  0  0  0  0  0  0  0  0  0
   62.6340   34.2120   48.4250 O   0  0  0  0  0  0  0  0  0  0  0  0
   60.5660   33.9330   46.7520 C   0  0  0  0  0  0  0  0  0  0  0  0
   60.0480   34.2340   45.5020 C   0  0  0  0  0  0  0  0  0  0  0  0
   58.6560   34.3780   45.5080 C   0  0  0  0  0  0  0  0  0  0  0  0
   58.0820   34.1890   46.7600 C   0  0  0  0  0  0  0  0  0  0  0  0
   59.3060   33.8370   47.8590 S   0  0  0  0  0  0  0  0  0  0  0  0
   61.5090   30.3160   48.7670 C   0  0  0  0  0  0  0  0  0  0  0  0
   60.5460   29.3590   49.1060 C   0  0  0  0  0  0  0  0  0  0  0  0
   60.6070   28.5960   50.6860 Cl  0  0  0  0  0  0  0  0  0  0  0  0
   59.5550   29.0040   48.1810 C   0  0  0  0  0  0  0  0  0  0  0  0
   58.6230   28.0260   48.5080 O   0  0  0  0  0  0  0  0  0  0  0  0
   57.6730   30.3250   45.3820 C   0  0  0  0  0  0  0  0  0  0  0  0
   56.4660   29.7450   44.6260 C   0  0  1  0  0  0  0  0  0  0  0  0
   56.7260   29.5770   43.1180 C   0  0  0  0  0  0  0  0  0  0  0  0
   56.0220   28.4970   45.2670 N   0  0  0  0  0  0  0  0  0  0  0  0
   56.8226   26.8411   47.3075 H   0  0  0  0  0  0  0  0  0  0  0  0
   55.6123   26.0911   46.2124 H   0  0  0  0  0  0  0  0  0  0  0  0
   57.3096   25.5031   46.2124 H   0  0  0  0  0  0  0  0  0  0  0  0
   56.9791   26.9440   44.2324 H   0  0  0  0  0  0  0  0  0  0  0  0
   59.0080   27.2335   46.0917 H   0  0  0  0  0  0  0  0  0  0  0  0
   58.9597   27.9219   44.4161 H   0  0  0  0  0  0  0  0  0  0  0  0
   60.4267   31.1043   45.6235 H   0  0  0  0  0  0  0  0  0  0  0  0
   63.4470   31.5370   46.8490 H   0  0  0  0  0  0  0  0  0  0  0  0
   60.6665   34.3478   44.5995 H   0  0  0  0  0  0  0  0  0  0  0  0
   58.0715   34.6179   44.6076 H   0  0  0  0  0  0  0  0  0  0  0  0
   57.0091   34.2580   46.9926 H   0  0  0  0  0  0  0  0  0  0  0  0
   62.2873   30.5870   49.4956 H   0  0  0  0  0  0  0  0  0  0  0  0
   57.3077   30.9667   46.1973 H   0  0  0  0  0  0  0  0  0  0  0  0
   58.2797   30.9007   44.6675 H   0  0  0  0  0  0  0  0  0  0  0  0
   55.6456   30.4748   44.6919 H   0  0  0  0  0  0  0  0  0  0  0  0
   57.6412   28.9856   42.9674 H   0  0  0  0  0  0  0  0  0  0  0  0
   55.8739   29.0583   42.6545 H   0  0  0  0  0  0  0  0  0  0  0  0
   56.8487   30.5670   42.6545 H   0  0  0  0  0  0  0  0  0  0  0  0
   55.1440   28.1690   44.8000 H   0  0  0  0  0  0  0  0  0  0  0  0
  1  2  1  0
  2  3  1  0
  3  4  1  0
  4  5  1  0
  5  6  2  0
  6  7  1  0
  7  8  1  0
  8  9  1  0
  9 10  2  0
  9 11  2  0
  9 12  1  0
 12 13  2  0
 13 14  1  0
 14 15  2  0
 15 16  1  0
  7 17  2  0
 17 18  1  0
 18 19  1  0
 18 20  2  0
 20 21  1  0
  4 22  1  0
 22 23  1  0
 23 24  1  0
 23 25  1  0
 25  2  1  0
 20  5  1  0
 16 12  1  0
  1 26  1  0
  1 27  1  0
  1 28  1  0
  2 29  1  6
  3 30  1  0
  3 31  1  0
  6 32  1  0
  8 33  1  0
 13 34  1  0
 14 35  1  0
 15 36  1  0
 17 37  1  0
 22 38  1  0
 22 39  1  0
 23 40  1  6
 24 41  1  0
 24 42  1  0
 24 43  1  0
 25 44  1  0
M  CHG  1  21  -1
M  END
>  <UniqueID>  (22) 
19

>  <SMILES>  (22) 
C[C@@H]1CN(c2cc(NS(=O)(=O)c3cccs3)cc(Cl)c2[O-])C[C@@H](C)N1

>  <Energy>  (22) 
81.62636316181177

>  <Genealogy>  (22) 
CC1CN(c2cc(NS(=O)(=O)c3cccs3)cc(Cl)c2[O-])CC(C)N1 (protonated)
C[C@@H]1CN(c2cc(NS(=O)(=O)c3cccs3)cc(Cl)c2[O-])C[C@@H](C)N1 (chirality)
C[C@@H]1CN(c2cc(NS(=O)(=O)c3cccs3)cc(Cl)c2[O-])C[C@@H](C)N1 (3D coordinates assigned)
C[C@@H]1CN(c2cc(NS(=O)(=O)c3cccs3)cc(Cl)c2[O-])C[C@@H](C)N1 (nonaromatic ring conformer: 81.62636316181177 kcal/mol)

>  <smiles>  (22) 
CC1CN(c2cc(NS(=O)(=O)c3cccs3)cc(Cl)c2O)CC(C)N1

>  <score_type>  (22) 
oracle

>  <origin>  (22) 
adg

>  <m_score__min__energy>  (22) 
-10.75

>  <m_primary>  (22) 
energy

$$$$
22:0
     RDKit          3D

 28 29  0  0  0  0  0  0  0  0999 V2000
   55.7490   29.9150   44.8110 N   0  0  0  0  0  0  0  0  0  0  0  0
   56.2780   28.9320   45.1140 C   0  0  0  0  0  0  0  0  0  0  0  0
   56.9390   27.7040   45.4930 C   0  0  0  0  0  0  0  0  0  0  0  0
   58.3460   27.5680   45.4250 C   0  0  0  0  0  0  0  0  0  0  0  0
   59.2450   28.6780   44.9200 C   0  0  0  0  0  0  0  0  0  0  0  0
   59.4670   29.7640   45.9820 C   0  0  0  0  0  0  0  0  0  0  0  0
   58.8000   31.0620   45.6060 C   0  0  0  0  0  0  0  0  0  0  0  0
   58.4430   31.3170   44.2710 C   0  0  0  0  0  0  0  0  0  0  0  0
   57.7790   32.5000   43.9320 C   0  0  0  0  0  0  0  0  0  0  0  0
   57.4640   33.4340   44.9240 C   0  0  0  0  0  0  0  0  0  0  0  0
   57.8110   33.1850   46.2550 C   0  0  0  0  0  0  0  0  0  0  0  0
   58.4730   32.0030   46.5970 C   0  0  0  0  0  0  0  0  0  0  0  0
   58.9280   26.3440   45.7890 C   0  0  0  0  0  0  0  0  0  0  0  0
   58.1190   25.2910   46.2210 C   0  0  0  0  0  0  0  0  0  0  0  0
   58.6350   24.1920   46.5520 O   0  0  0  0  0  0  0  0  0  0  0  0
   56.7720   25.4490   46.2820 N   0  0  0  0  0  0  0  0  0  0  0  0
   56.1690   26.6160   45.9320 C   0  0  0  0  0  0  0  0  0  0  0  0
   54.7850   26.7150   46.0120 O   0  0  0  0  0  0  0  0  0  0  0  0
   60.2187   28.2482   44.6422 H   0  0  0  0  0  0  0  0  0  0  0  0
   58.7552   29.1449   44.0528 H   0  0  0  0  0  0  0  0  0  0  0  0
   59.0524   29.4153   46.9393 H   0  0  0  0  0  0  0  0  0  0  0  0
   60.5487   29.9470   46.0617 H   0  0  0  0  0  0  0  0  0  0  0  0
   58.6870   30.5827   43.4892 H   0  0  0  0  0  0  0  0  0  0  0  0
   57.5044   32.6959   42.8850 H   0  0  0  0  0  0  0  0  0  0  0  0
   56.9429   34.3651   44.6568 H   0  0  0  0  0  0  0  0  0  0  0  0
   57.5626   33.9206   47.0342 H   0  0  0  0  0  0  0  0  0  0  0  0
   58.7393   31.8083   47.6464 H   0  0  0  0  0  0  0  0  0  0  0  0
   60.0190   26.2144   45.7341 H   0  0  0  0  0  0  0  0  0  0  0  0
  1  2  3  0
  2  3  1  0
  3  4  1  0
  4  5  1  0
  5  6  1  0
  6  7  1  0
  7  8  2  0
  8  9  1  0
  9 10  2  0
 10 11  1  0
 11 12  2  0
  4 13  2  0
 13 14  1  0
 14 15  2  0
 14 16  1  0
 16 17  1  0
 17 18  1  0
 17  3  2  0
 12  7  1  0
  5 19  1  0
  5 20  1  0
  6 21  1  0
  6 22  1  0
  8 23  1  0
  9 24  1  0
 10 25  1  0
 11 26  1  0
 12 27  1  0
 13 28  1  0
M  CHG  2  16  -1  18  -1
M  END
>  <UniqueID>  (23) 
20

>  <SMILES>  (23) 
N#Cc1c(CCc2ccccc2)cc(=O)[n-]c1[O-]

>  <Energy>  (23) 
26.686173225835482

>  <Genealogy>  (23) 
N#Cc1c(CCc2ccccc2)cc(=O)[n-]c1[O-] (protonated)
N#Cc1c(CCc2ccccc2)cc(=O)[n-]c1[O-] (3D coordinates assigned)
N#Cc1c(CCc2ccccc2)cc(=O)[n-]c1[O-] (optimized conformer: 26.686173225835482 kcal/mol)

>  <smiles>  (23) 
N#Cc1c(CCc2ccccc2)cc(=O)[nH]c1O

>  <score_type>  (23) 
oracle

>  <origin>  (23) 
adg

>  <m_score__min__energy>  (23) 
-13.31

>  <m_primary>  (23) 
energy

$$$$
23:0
     RDKit          3D

 31 32  0  0  0  0  0  0  0  0999 V2000
   64.8740   32.7610   49.5130 C   0  0  0  0  0  0  0  0  0  0  0  0
   63.6390   33.2040   48.7980 C   0  0  0  0  0  0  0  0  0  0  0  0
   63.5550   33.0520   47.4180 C   0  0  0  0  0  0  0  0  0  0  0  0
   62.4220   33.4600   46.7370 C   0  0  0  0  0  0  0  0  0  0  0  0
   61.3790   34.0220   47.4690 C   0  0  0  0  0  0  0  0  0  0  0  0
   60.1940   34.4620   46.8350 N   0  0  0  0  0  0  0  0  0  0  0  0
   59.0220   33.6650   46.9320 C   0  0  0  0  0  0  0  0  0  0  0  0
   59.0880   32.5840   47.5800 O   0  0  0  0  0  0  0  0  0  0  0  0
   57.7240   34.0190   46.3200 C   0  0  0  0  0  0  0  0  0  0  0  0
   57.7860   33.6570   44.5420 S   0  0  0  0  0  0  0  0  0  0  0  0
   57.5190   31.9340   44.2170 C   0  0  0  0  0  0  0  0  0  0  0  0
   56.5800   31.2010   44.8720 N   0  0  0  0  0  0  0  0  0  0  0  0
   56.5770   29.9310   44.4380 C   0  0  0  0  0  0  0  0  0  0  0  0
   55.8020   28.9860   44.8620 N   0  0  0  0  0  0  0  0  0  0  0  0
   57.5400   29.8780   43.4890 N   0  0  0  0  0  0  0  0  0  0  0  0
   58.1010   31.0880   43.3640 N   0  0  0  0  0  0  0  0  0  0  0  0
   61.4720   34.1710   48.8540 C   0  0  0  0  0  0  0  0  0  0  0  0
   62.6110   33.7620   49.5370 C   0  0  0  0  0  0  0  0  0  0  0  0
   64.7099   32.8199   50.5991 H   0  0  0  0  0  0  0  0  0  0  0  0
   65.1074   31.7231   49.2331 H   0  0  0  0  0  0  0  0  0  0  0  0
   65.7139   33.4139   49.2331 H   0  0  0  0  0  0  0  0  0  0  0  0
   64.3942   32.6049   46.8650 H   0  0  0  0  0  0  0  0  0  0  0  0
   62.3469   33.3435   45.6458 H   0  0  0  0  0  0  0  0  0  0  0  0
   60.1170   35.3360   46.2820 H   0  0  0  0  0  0  0  0  0  0  0  0
   56.9228   33.4284   46.7883 H   0  0  0  0  0  0  0  0  0  0  0  0
   57.5222   35.0894   46.4731 H   0  0  0  0  0  0  0  0  0  0  0  0
   56.0290   28.0190   44.5100 H   0  0  0  0  0  0  0  0  0  0  0  0
   57.7760   29.0030   42.9650 H   0  0  0  0  0  0  0  0  0  0  0  0
   58.8670   31.2790   42.6920 H   0  0  0  0  0  0  0  0  0  0  0  0
   60.6346   34.6170   49.4106 H   0  0  0  0  0  0  0  0  0  0  0  0
   62.6925   33.8779   50.6278 H   0  0  0  0  0  0  0  0  0  0  0  0
  1  2  1  0
  2  3  2  0
  3  4  1  0
  4  5  2  0
  5  6  1  0
  6  7  1  0
  7  8  2  0
  7  9  1  0
  9 10  1  0
 10 11  1  0
 11 12  2  0
 12 13  1  0
 13 14  2  3
 13 15  1  0
 15 16  1  0
  5 17  1  0
 17 18  2  0
 18  2  1  0
 16 11  1  0
  1 19  1  0
  1 20  1  0
  1 21  1  0
  3 22  1  0
  4 23  1  0
  6 24  1  0
  9 25  1  0
  9 26  1  0
 14 27  1  0
 15 28  1  0
 16 29  1  0
 17 30  1  0
 18 31  1  0
M  END
>  <smiles>  (24) 
Cc1ccc(NC(=O)CSc2nc(=N)[nH][nH]2)cc1

>  <score_type>  (24) 
oracle

>  <origin>  (24) 
adg

>  <m_score__min__energy>  (24) 
-7.0499999999999998

>  <m_primary>  (24) 
energy

$$$$
24:0
     RDKit          3D

 58 62  0  0  0  0  0  0  0  0999 V2000
   55.5990   28.6230   45.0270 O   0  0  0  0  0  0  0  0  0  0  0  0
   56.7370   29.1310   45.2150 C   0  0  0  0  0  0  0  0  0  0  0  0
   57.6540   28.5220   46.1340 N   0  0  0  0  0  0  0  0  0  0  0  0
   58.8100   29.0980   46.7550 C   0  0  0  0  0  0  0  0  0  0  0  0
   59.9400   29.5060   46.0240 C   0  0  0  0  0  0  0  0  0  0  0  0
   61.0730   29.9810   46.6930 C   0  0  0  0  0  0  0  0  0  0  0  0
   61.1050   30.0110   48.0890 C   0  0  0  0  0  0  0  0  0  0  0  0
   60.0020   29.5630   48.8330 C   0  0  0  0  0  0  0  0  0  0  0  0
   60.0610   29.5440   50.3430 C   0  0  0  0  0  0  0  0  0  0  0  0
   58.8320   30.1670   50.9610 C   0  0  0  0  0  0  0  0  0  0  0  0
   57.7800   29.3560   51.2510 N   0  0  0  0  0  0  0  0  0  0  0  0
   56.6830   29.8090   51.8580 N   0  0  0  0  0  0  0  0  0  0  0  0
   56.5620   31.1050   52.2360 C   0  0  0  0  0  0  0  0  0  0  0  0
   55.5060   31.4890   52.8050 O   0  0  0  0  0  0  0  0  0  0  0  0
   57.6150   31.9970   51.9890 C   0  0  0  0  0  0  0  0  0  0  0  0
   58.7590   31.5320   51.3230 C   0  0  0  0  0  0  0  0  0  0  0  0
   59.8440   32.5410   51.0220 C   0  0  0  0  0  0  0  0  0  0  0  0
   60.1380   33.3750   52.2760 C   0  0  0  0  0  0  0  0  0  0  0  0
   58.8710   33.9680   52.9440 C   0  0  0  0  0  0  0  0  0  0  0  0
   57.5360   33.4590   52.3620 C   0  0  0  0  0  0  0  0  0  0  0  0
   58.8450   29.1440   48.1530 C   0  0  0  0  0  0  0  0  0  0  0  0
   57.1600   30.3430   44.4660 C   0  0  0  0  0  0  0  0  0  0  0  0
   57.6830   31.4400   45.1790 C   0  0  0  0  0  0  0  0  0  0  0  0
   58.0190   32.6310   44.5260 C   0  0  0  0  0  0  0  0  0  0  0  0
   58.6280   34.0080   45.4410 S   0  0  0  0  0  0  0  0  0  0  0  0
   57.7040   34.2890   46.5940 O   0  0  0  0  0  0  0  0  0  0  0  0
   58.6690   35.2070   44.5380 O   0  0  0  0  0  0  0  0  0  0  0  0
   60.2410   33.6860   46.0110 N   0  0  0  0  0  0  0  0  0  0  0  0
   60.2130   33.3340   47.4280 C   0  0  0  0  0  0  0  0  0  0  0  0
   60.0790   34.5590   48.3150 C   0  0  0  0  0  0  0  0  0  0  0  0
   61.4060   33.8240   48.2290 C   0  0  0  0  0  0  0  0  0  0  0  0
   57.8840   32.7180   43.1380 C   0  0  0  0  0  0  0  0  0  0  0  0
   57.3920   31.6310   42.4120 C   0  0  0  0  0  0  0  0  0  0  0  0
   57.0190   30.4470   43.0640 C   0  0  0  0  0  0  0  0  0  0  0  0
   56.5030   29.3870   42.3200 O   0  0  0  0  0  0  0  0  0  0  0  0
   59.9329   29.4516   44.9254 H   0  0  0  0  0  0  0  0  0  0  0  0
   61.9421   30.3322   46.1174 H   0  0  0  0  0  0  0  0  0  0  0  0
   61.9988   30.3875   48.6080 H   0  0  0  0  0  0  0  0  0  0  0  0
   60.1405   28.5009   50.6830 H   0  0  0  0  0  0  0  0  0  0  0  0
   60.9365   30.1308   50.6580 H   0  0  0  0  0  0  0  0  0  0  0  0
   60.7579   32.0134   50.7114 H   0  0  0  0  0  0  0  0  0  0  0  0
   59.5081   33.2063   50.2129 H   0  0  0  0  0  0  0  0  0  0  0  0
   60.6477   32.7319   53.0086 H   0  0  0  0  0  0  0  0  0  0  0  0
   60.7597   34.2246   51.9573 H   0  0  0  0  0  0  0  0  0  0  0  0
   58.8972   33.7139   54.0139 H   0  0  0  0  0  0  0  0  0  0  0  0
   58.8988   35.0513   52.7551 H   0  0  0  0  0  0  0  0  0  0  0  0
   56.7442   33.5937   53.1136 H   0  0  0  0  0  0  0  0  0  0  0  0
   57.3147   34.0355   51.4517 H   0  0  0  0  0  0  0  0  0  0  0  0
   57.9551   28.8483   48.7279 H   0  0  0  0  0  0  0  0  0  0  0  0
   57.8295   31.3588   46.2662 H   0  0  0  0  0  0  0  0  0  0  0  0
   59.7054   32.3633   47.3278 H   0  0  0  0  0  0  0  0  0  0  0  0
   59.9722   35.5562   47.8632 H   0  0  0  0  0  0  0  0  0  0  0  0
   59.4066   34.8576   49.1328 H   0  0  0  0  0  0  0  0  0  0  0  0
   62.2601   34.2891   47.7150 H   0  0  0  0  0  0  0  0  0  0  0  0
   62.0925   33.3700   48.9587 H   0  0  0  0  0  0  0  0  0  0  0  0
   58.1658   33.6444   42.6161 H   0  0  0  0  0  0  0  0  0  0  0  0
   57.2962   31.7044   41.3186 H   0  0  0  0  0  0  0  0  0  0  0  0
   56.1460   28.5480   42.7630 H   0  0  0  0  0  0  0  0  0  0  0  0
  1  2  2  0
  2  3  1  0
  3  4  1  0
  4  5  2  0
  5  6  1  0
  6  7  2  0
  7  8  1  0
  8  9  1  0
  9 10  1  0
 10 11  2  0
 11 12  1  0
 12 13  1  0
 13 14  2  0
 13 15  1  0
 15 16  2  0
 16 17  1  0
 17 18  1  0
 18 19  1  0
 19 20  1  0
  8 21  2  0
  2 22  1  0
 22 23  2  0
 23 24  1  0
 24 25  1  0
 25 26  2  0
 25 27  2  0
 25 28  1  0
 28 29  1  0
 29 30  1  0
 30 31  1  0
 24 32  2  0
 32 33  1  0
 33 34  2  0
 34 35  1  0
 21  4  1  0
 34 22  1  0
 16 10  1  0
 31 29  1  0
 20 15  1  0
  5 36  1  0
  6 37  1  0
  7 38  1  0
  9 39  1  0
  9 40  1  0
 17 41  1  0
 17 42  1  0
 18 43  1  0
 18 44  1  0
 19 45  1  0
 19 46  1  0
 20 47  1  0
 20 48  1  0
 21 49  1  0
 23 50  1  0
 29 51  1  0
 30 52  1  0
 30 53  1  0
 31 54  1  0
 31 55  1  0
 32 56  1  0
 33 57  1  0
 35 58  1  0
M  CHG  3   3  -1  12  -1  28  -1
M  END
>  <UniqueID>  (25) 
21

>  <SMILES>  (25) 
O=C([N-]c1cccc(Cc2n[n-]c(=O)c3c2CCCC3)c1)c1cc(S(=O)(=O)[N-]C2CC2)ccc1O

>  <Energy>  (25) 
337.23913677349395

>  <Genealogy>  (25) 
O=C([N-]c1cccc(Cc2n[n-]c(=O)c3c2CCCC3)c1)c1cc(S(=O)(=O)[N-]C2CC2)ccc1O (protonated)
O=C([N-]c1cccc(Cc2n[n-]c(=O)c3c2CCCC3)c1)c1cc(S(=O)(=O)[N-]C2CC2)ccc1O (3D coordinates assigned)
O=C([N-]c1cccc(Cc2n[n-]c(=O)c3c2CCCC3)c1)c1cc(S(=O)(=O)[N-]C2CC2)ccc1O (nonaromatic ring conformer: 337.23913677349395 kcal/mol)

>  <smiles>  (25) 
O=C(Nc1cccc(Cc2n[nH]c(=O)c3c2CCCC3)c1)c1cc(S(=O)(=O)NC2CC2)ccc1O

>  <score_type>  (25) 
oracle

>  <origin>  (25) 
adg

>  <m_score__min__energy>  (25) 
-14.09

>  <m_primary>  (25) 
energy

$$$$
25:0
     RDKit          3D

 47 48  0  0  0  0  0  0  0  0999 V2000
   64.6280   33.1580   49.2050 C   0  0  0  0  0  0  0  0  0  0  0  0
   63.2560   33.3410   49.5390 O   0  0  0  0  0  0  0  0  0  0  0  0
   62.2550   33.6750   48.6150 C   0  0  0  0  0  0  0  0  0  0  0  0
   61.0410   34.2740   48.9990 C   0  0  0  0  0  0  0  0  0  0  0  0
   60.0760   34.5900   48.0370 C   0  0  0  0  0  0  0  0  0  0  0  0
   60.3070   34.3110   46.6820 C   0  0  0  0  0  0  0  0  0  0  0  0
   59.2840   34.6980   45.6500 C   0  0  0  0  0  0  0  0  0  0  0  0
   58.6970   33.5030   45.0580 N   0  0  0  0  0  0  0  0  0  0  0  0
   57.8620   32.5920   45.7810 C   0  0  0  0  0  0  0  0  0  0  0  0
   56.8730   32.0480   45.2210 O   0  0  0  0  0  0  0  0  0  0  0  0
   58.1450   32.3140   47.2260 C   0  0  0  0  0  0  0  0  0  0  0  0
   58.5590   30.8410   47.4560 C   0  0  2  0  0  0  0  0  0  0  0  0
   59.5910   30.7270   48.5920 C   0  0  0  0  0  0  0  0  0  0  0  0
   59.1400   30.2180   46.1670 C   0  0  0  0  0  0  0  0  0  0  0  0
   59.0130   28.7140   46.1520 C   0  0  0  0  0  0  0  0  0  0  0  0
   60.1560   27.9140   46.0010 C   0  0  0  0  0  0  0  0  0  0  0  0
   60.0470   26.5230   46.0050 C   0  0  0  0  0  0  0  0  0  0  0  0
   58.7990   25.9170   46.1660 C   0  0  0  0  0  0  0  0  0  0  0  0
   57.6410   26.6990   46.3250 C   0  0  0  0  0  0  0  0  0  0  0  0
   56.3180   26.0540   46.5010 C   0  0  0  0  0  0  0  0  0  0  0  0
   55.1380   26.6650   45.9800 N   0  0  0  0  0  0  0  0  0  0  0  0
   56.2220   24.9580   47.1160 O   0  0  0  0  0  0  0  0  0  0  0  0
   57.7590   28.1010   46.3160 C   0  0  0  0  0  0  0  0  0  0  0  0
   61.5210   33.7190   46.2990 C   0  0  0  0  0  0  0  0  0  0  0  0
   62.4840   33.4020   47.2610 C   0  0  0  0  0  0  0  0  0  0  0  0
   65.2224   33.0787   50.1271 H   0  0  0  0  0  0  0  0  0  0  0  0
   64.7420   32.2367   48.6149 H   0  0  0  0  0  0  0  0  0  0  0  0
   64.9795   34.0172   48.6149 H   0  0  0  0  0  0  0  0  0  0  0  0
   60.8502   34.4946   50.0596 H   0  0  0  0  0  0  0  0  0  0  0  0
   59.1304   35.0601   48.3450 H   0  0  0  0  0  0  0  0  0  0  0  0
   58.4926   35.2945   46.1273 H   0  0  0  0  0  0  0  0  0  0  0  0
   59.7723   35.2892   44.8613 H   0  0  0  0  0  0  0  0  0  0  0  0
   58.9615   32.9702   47.5618 H   0  0  0  0  0  0  0  0  0  0  0  0
   57.2249   32.5045   47.7980 H   0  0  0  0  0  0  0  0  0  0  0  0
   57.6517   30.2882   47.7411 H   0  0  0  0  0  0  0  0  0  0  0  0
   59.0760   30.7839   49.5623 H   0  0  0  0  0  0  0  0  0  0  0  0
   60.1187   29.7651   48.5128 H   0  0  0  0  0  0  0  0  0  0  0  0
   60.3159   31.5505   48.5128 H   0  0  0  0  0  0  0  0  0  0  0  0
   58.5994   30.6276   45.3010 H   0  0  0  0  0  0  0  0  0  0  0  0
   60.2108   30.4665   46.1253 H   0  0  0  0  0  0  0  0  0  0  0  0
   61.1422   28.3856   45.8789 H   0  0  0  0  0  0  0  0  0  0  0  0
   60.9464   25.9020   45.8810 H   0  0  0  0  0  0  0  0  0  0  0  0
   58.7213   24.8198   46.1685 H   0  0  0  0  0  0  0  0  0  0  0  0
   55.1430   27.1340   45.0480 H   0  0  0  0  0  0  0  0  0  0  0  0
   56.8605   28.7237   46.4386 H   0  0  0  0  0  0  0  0  0  0  0  0
   61.7150   33.5039   45.2378 H   0  0  0  0  0  0  0  0  0  0  0  0
   63.4302   32.9339   46.9517 H   0  0  0  0  0  0  0  0  0  0  0  0
  1  2  1  0
  2  3  1  0
  3  4  2  0
  4  5  1  0
  5  6  2  0
  6  7  1  0
  7  8  1  0
  8  9  1  0
  9 10  2  0
  9 11  1  0
 11 12  1  0
 12 13  1  0
 12 14  1  0
 14 15  1  0
 15 16  2  0
 16 17  1  0
 17 18  2  0
 18 19  1  0
 19 20  1  0
 20 21  1  0
 20 22  2  0
 19 23  2  0
  6 24  1  0
 24 25  2  0
 25  3  1  0
 23 15  1  0
  1 26  1  0
  1 27  1  0
  1 28  1  0
  4 29  1  0
  5 30  1  0
  7 31  1  0
  7 32  1  0
 11 33  1  0
 11 34  1  0
 12 35  1  1
 13 36  1  0
 13 37  1  0
 13 38  1  0
 14 39  1  0
 14 40  1  0
 16 41  1  0
 17 42  1  0
 18 43  1  0
 21 44  1  0
 23 45  1  0
 24 46  1  0
 25 47  1  0
M  CHG  2   8  -1  21  -1
M  END
>  <UniqueID>  (26) 
22

>  <SMILES>  (26) 
COc1ccc(C[N-]C(=O)C[C@H](C)Cc2cccc(C([NH-])=O)c2)cc1

>  <Energy>  (26) 
37.23070344953843

>  <Genealogy>  (26) 
COc1ccc(C[N-]C(=O)CC(C)Cc2cccc(C([NH-])=O)c2)cc1 (protonated)
COc1ccc(C[N-]C(=O)C[C@H](C)Cc2cccc(C([NH-])=O)c2)cc1 (chirality)
COc1ccc(C[N-]C(=O)C[C@H](C)Cc2cccc(C([NH-])=O)c2)cc1 (3D coordinates assigned)
COc1ccc(C[N-]C(=O)C[C@H](C)Cc2cccc(C([NH-])=O)c2)cc1 (optimized conformer: 37.23070344953843 kcal/mol)

>  <smiles>  (26) 
COc1ccc(CNC(=O)CC(C)Cc2cccc(C(N)=O)c2)cc1

>  <score_type>  (26) 
oracle

>  <origin>  (26) 
adg

>  <m_score__min__energy>  (26) 
-13.02

>  <m_primary>  (26) 
energy

$$$$
26:0
     RDKit          3D

 52 56  0  0  0  0  0  0  0  0999 V2000
   58.7780   35.2460   44.8700 O   0  0  0  0  0  0  0  0  0  0  0  0
   58.9530   34.0720   45.2990 C   0  0  0  0  0  0  0  0  0  0  0  0
   58.3440   32.9410   44.5570 C   0  0  0  0  0  0  0  0  0  0  0  0
   58.1250   33.0460   43.1730 C   0  0  0  0  0  0  0  0  0  0  0  0
   57.5300   31.9970   42.4710 C   0  0  0  0  0  0  0  0  0  0  0  0
   57.1440   30.8320   43.1380 C   0  0  0  0  0  0  0  0  0  0  0  0
   57.3570   30.7060   44.5220 C   0  0  0  0  0  0  0  0  0  0  0  0
   56.9370   29.5320   45.2390 N   0  0  0  0  0  0  0  0  0  0  0  0
   57.7190   28.3290   45.3370 C   0  0  0  0  0  0  0  0  0  0  0  0
   58.9410   28.3440   45.0220 O   0  0  0  0  0  0  0  0  0  0  0  0
   57.1080   27.0810   45.8420 C   0  0  0  0  0  0  0  0  0  0  0  0
   57.8970   26.0010   46.2620 C   0  0  0  0  0  0  0  0  0  0  0  0
   57.2790   24.8420   46.7270 C   0  0  0  0  0  0  0  0  0  0  0  0
   55.8850   24.7830   46.7620 C   0  0  0  0  0  0  0  0  0  0  0  0
   55.3010   23.7500   47.1770 O   0  0  0  0  0  0  0  0  0  0  0  0
   55.1600   25.8520   46.3440 N   0  0  0  0  0  0  0  0  0  0  0  0
   55.7520   26.9630   45.8990 N   0  0  0  0  0  0  0  0  0  0  0  0
   57.9340   31.7730   45.2260 C   0  0  0  0  0  0  0  0  0  0  0  0
   59.7590   33.8710   46.5260 C   0  0  0  0  0  0  0  0  0  0  0  0
   61.1200   33.4660   46.4460 C   0  0  0  0  0  0  0  0  0  0  0  0
   61.8900   33.2900   47.6110 C   0  0  0  0  0  0  0  0  0  0  0  0
   61.2750   33.5400   48.8340 C   0  0  0  0  0  0  0  0  0  0  0  0
   61.7170   33.4790   50.1350 C   0  0  0  0  0  0  0  0  0  0  0  0
   63.0490   33.0220   50.5840 C   0  0  0  0  0  0  0  0  0  0  0  0
   64.2160   33.3690   50.0190 C   0  0  0  0  0  0  0  0  0  0  0  0
   65.5490   32.9260   50.4750 C   0  0  0  0  0  0  0  0  0  0  0  0
   65.8530   31.5590   50.6180 C   0  0  0  0  0  0  0  0  0  0  0  0
   67.1060   31.1630   51.0950 C   0  0  0  0  0  0  0  0  0  0  0  0
   68.0550   32.1240   51.4560 C   0  0  0  0  0  0  0  0  0  0  0  0
   67.7470   33.4840   51.3470 C   0  0  0  0  0  0  0  0  0  0  0  0
   66.4950   33.8840   50.8690 C   0  0  0  0  0  0  0  0  0  0  0  0
   60.6890   33.8180   50.9510 N   0  0  0  0  0  0  0  0  0  0  0  0
   59.6240   34.1110   50.2090 N   0  0  0  0  0  0  0  0  0  0  0  0
   59.9760   33.9440   48.9230 C   0  0  0  0  0  0  0  0  0  0  0  0
   59.1830   34.1280   47.7930 C   0  0  0  0  0  0  0  0  0  0  0  0
   58.4243   33.9604   42.6398 H   0  0  0  0  0  0  0  0  0  0  0  0
   57.3642   32.0879   41.3874 H   0  0  0  0  0  0  0  0  0  0  0  0
   56.6720   30.0107   42.5788 H   0  0  0  0  0  0  0  0  0  0  0  0
   56.0550   29.5950   45.7970 H   0  0  0  0  0  0  0  0  0  0  0  0
   58.9943   26.0680   46.2248 H   0  0  0  0  0  0  0  0  0  0  0  0
   57.8817   23.9850   47.0620 H   0  0  0  0  0  0  0  0  0  0  0  0
   58.0677   31.6958   46.3151 H   0  0  0  0  0  0  0  0  0  0  0  0
   61.5766   33.2881   45.4612 H   0  0  0  0  0  0  0  0  0  0  0  0
   62.9400   32.9665   47.5567 H   0  0  0  0  0  0  0  0  0  0  0  0
   63.0869   32.3441   51.4494 H   0  0  0  0  0  0  0  0  0  0  0  0
   64.1764   34.0371   49.1461 H   0  0  0  0  0  0  0  0  0  0  0  0
   65.1021   30.7999   50.3535 H   0  0  0  0  0  0  0  0  0  0  0  0
   67.3457   30.0933   51.1864 H   0  0  0  0  0  0  0  0  0  0  0  0
   69.0427   31.8110   51.8253 H   0  0  0  0  0  0  0  0  0  0  0  0
   68.4909   34.2404   51.6378 H   0  0  0  0  0  0  0  0  0  0  0  0
   66.2510   34.9545   50.8017 H   0  0  0  0  0  0  0  0  0  0  0  0
   58.1392   34.4634   47.8826 H   0  0  0  0  0  0  0  0  0  0  0  0
  1  2  2  0
  2  3  1  0
  3  4  2  0
  4  5  1  0
  5  6  2  0
  6  7  1  0
  7  8  1  0
  8  9  1  0
  9 10  2  0
  9 11  1  0
 11 12  1  0
 12 13  2  0
 13 14  1  0
 14 15  2  0
 14 16  1  0
 16 17  1  0
  7 18  2  0
  2 19  1  0
 19 20  1  0
 20 21  2  0
 21 22  1  0
 22 23  2  0
 23 24  1  0
 24 25  2  3
 25 26  1  0
 26 27  2  0
 27 28  1  0
 28 29  2  0
 29 30  1  0
 30 31  2  0
 23 32  1  0
 32 33  1  0
 33 34  2  0
 34 35  1  0
 18  3  1  0
 35 19  2  0
 17 11  2  0
 34 22  1  0
 31 26  1  0
  4 36  1  0
  5 37  1  0
  6 38  1  0
  8 39  1  0
 12 40  1  0
 13 41  1  0
 18 42  1  0
 20 43  1  0
 21 44  1  0
 24 45  1  0
 25 46  1  0
 27 47  1  0
 28 48  1  0
 29 49  1  0
 30 50  1  0
 31 51  1  0
 35 52  1  0
M  CHG  2  16  -1  32  -1
M  END
>  <UniqueID>  (27) 
23

>  <SMILES>  (27) 
O=C(c1cccc(NC(=O)c2ccc(=O)[n-]n2)c1)c1ccc2c(C=Cc3ccccc3)[n-]nc2c1

>  <Energy>  (27) 
116.09820362282848

>  <Genealogy>  (27) 
O=C(c1cccc(NC(=O)c2ccc(=O)[n-]n2)c1)c1ccc2c(C=Cc3ccccc3)[n-]nc2c1 (protonated)
O=C(c1cccc(NC(=O)c2ccc(=O)[n-]n2)c1)c1ccc2c(C=Cc3ccccc3)[n-]nc2c1 (3D coordinates assigned)
O=C(c1cccc(NC(=O)c2ccc(=O)[n-]n2)c1)c1ccc2c(C=Cc3ccccc3)[n-]nc2c1 (optimized conformer: 116.09820362282848 kcal/mol)

>  <smiles>  (27) 
O=C(c1cccc(NC(=O)c2ccc(=O)[nH]n2)c1)c1ccc2c(C=Cc3ccccc3)[nH]nc2c1

>  <score_type>  (27) 
oracle

>  <origin>  (27) 
adg

>  <m_score__min__energy>  (27) 
-13.960000000000001

>  <m_primary>  (27) 
energy

$$$$
27:0
     RDKit          3D

 43 45  0  0  0  0  0  0  0  0999 V2000
   54.0210   25.9590   45.7310 N   0  0  0  0  0  0  0  0  0  0  0  0
   55.1080   24.6200   45.8390 S   0  0  0  0  0  0  0  0  0  0  0  0
   54.9270   23.7240   44.6460 O   0  0  0  0  0  0  0  0  0  0  0  0
   54.8110   23.8350   47.0860 O   0  0  0  0  0  0  0  0  0  0  0  0
   56.7590   25.2030   45.8940 C   0  0  0  0  0  0  0  0  0  0  0  0
   57.1450   26.5270   46.0360 C   0  0  0  0  0  0  0  0  0  0  0  0
   58.5420   26.6910   46.0700 C   0  0  0  0  0  0  0  0  0  0  0  0
   59.2170   27.9960   46.2260 C   0  0  0  0  0  0  0  0  0  0  0  0
   60.4550   28.0250   46.4670 O   0  0  0  0  0  0  0  0  0  0  0  0
   58.4920   29.2270   46.0600 N   0  0  0  0  0  0  0  0  0  0  0  0
   58.9580   30.4970   46.5430 C   0  0  0  0  0  0  0  0  0  0  0  0
   59.4250   30.6530   47.8610 C   0  0  0  0  0  0  0  0  0  0  0  0
   59.8550   31.9040   48.3150 C   0  0  0  0  0  0  0  0  0  0  0  0
   59.8110   33.0160   47.4650 C   0  0  0  0  0  0  0  0  0  0  0  0
   60.3610   34.5850   48.0470 S   0  0  0  0  0  0  0  0  0  0  0  0
   60.0040   35.6300   47.0270 O   0  0  0  0  0  0  0  0  0  0  0  0
   59.6850   34.9150   49.3510 O   0  0  0  0  0  0  0  0  0  0  0  0
   62.0920   34.5510   48.2820 N   0  0  0  0  0  0  0  0  0  0  0  0
   62.7690   33.8570   47.1620 C   0  0  0  0  0  0  0  0  0  0  0  0
   63.2580   32.4520   47.5590 C   0  0  0  0  0  0  0  0  0  0  0  0
   64.1550   32.4630   48.6600 O   0  0  0  0  0  0  0  0  0  0  0  0
   63.8610   33.4620   49.6300 C   0  0  0  0  0  0  0  0  0  0  0  0
   62.4090   33.9650   49.5980 C   0  0  0  0  0  0  0  0  0  0  0  0
   59.3290   32.8700   46.1580 C   0  0  0  0  0  0  0  0  0  0  0  0
   58.8980   31.6200   45.7040 C   0  0  0  0  0  0  0  0  0  0  0  0
   59.2380   25.4860   45.9690 C   0  0  0  0  0  0  0  0  0  0  0  0
   58.1260   24.2330   45.8260 S   0  0  0  0  0  0  0  0  0  0  0  0
   54.3860   26.7020   46.3680 H   0  0  0  0  0  0  0  0  0  0  0  0
   56.4333   27.3621   46.1139 H   0  0  0  0  0  0  0  0  0  0  0  0
   57.6390   29.2180   45.4560 H   0  0  0  0  0  0  0  0  0  0  0  0
   59.4521   29.7864   48.5380 H   0  0  0  0  0  0  0  0  0  0  0  0
   60.2291   32.0148   49.3435 H   0  0  0  0  0  0  0  0  0  0  0  0
   62.0620   33.7625   46.3246 H   0  0  0  0  0  0  0  0  0  0  0  0
   63.6488   34.4530   46.8778 H   0  0  0  0  0  0  0  0  0  0  0  0
   62.3839   31.8400   47.8261 H   0  0  0  0  0  0  0  0  0  0  0  0
   63.8029   32.0395   46.6971 H   0  0  0  0  0  0  0  0  0  0  0  0
   64.0587   33.0427   50.6275 H   0  0  0  0  0  0  0  0  0  0  0  0
   64.4997   34.3265   49.3962 H   0  0  0  0  0  0  0  0  0  0  0  0
   61.7298   33.1216   49.7914 H   0  0  0  0  0  0  0  0  0  0  0  0
   62.2843   34.7384   50.3702 H   0  0  0  0  0  0  0  0  0  0  0  0
   59.2895   33.7409   45.4872 H   0  0  0  0  0  0  0  0  0  0  0  0
   58.5086   31.5160   44.6805 H   0  0  0  0  0  0  0  0  0  0  0  0
   60.3322   25.3743   45.9809 H   0  0  0  0  0  0  0  0  0  0  0  0
  1  2  1  0
  2  3  2  0
  2  4  2  0
  2  5  1  0
  5  6  2  0
  6  7  1  0
  7  8  1  0
  8  9  2  0
  8 10  1  0
 10 11  1  0
 11 12  2  0
 12 13  1  0
 13 14  2  0
 14 15  1  0
 15 16  2  0
 15 17  2  0
 15 18  1  0
 18 19  1  0
 19 20  1  0
 20 21  1  0
 21 22  1  0
 22 23  1  0
 14 24  1  0
 24 25  2  0
  7 26  2  0
 26 27  1  0
 27  5  1  0
 25 11  1  0
 23 18  1  0
  1 28  1  0
  6 29  1  0
 10 30  1  0
 12 31  1  0
 13 32  1  0
 19 33  1  0
 19 34  1  0
 20 35  1  0
 20 36  1  0
 22 37  1  0
 22 38  1  0
 23 39  1  0
 23 40  1  0
 24 41  1  0
 25 42  1  0
 26 43  1  0
M  CHG  1   1  -1
M  END
>  <UniqueID>  (28) 
24

>  <SMILES>  (28) 
[NH-]S(=O)(=O)c1cc(C(=O)Nc2ccc(S(=O)(=O)N3CCOCC3)cc2)cs1

>  <Energy>  (28) 
86.06626527529816

>  <Genealogy>  (28) 
[NH-]S(=O)(=O)c1cc(C(=O)Nc2ccc(S(=O)(=O)N3CCOCC3)cc2)cs1 (protonated)
[NH-]S(=O)(=O)c1cc(C(=O)Nc2ccc(S(=O)(=O)N3CCOCC3)cc2)cs1 (3D coordinates assigned)
[NH-]S(=O)(=O)c1cc(C(=O)Nc2ccc(S(=O)(=O)N3CCOCC3)cc2)cs1 (nonaromatic ring conformer: 86.06626527529816 kcal/mol)

>  <smiles>  (28) 
NS(=O)(=O)c1cc(C(=O)Nc2ccc(S(=O)(=O)N3CCOCC3)cc2)cs1

>  <score_type>  (28) 
oracle

>  <origin>  (28) 
adg

>  <m_score__min__energy>  (28) 
-11.220000000000001

>  <m_primary>  (28) 
energy

$$$$
28:0
     RDKit          3D

 60 63  0  0  0  0  0  0  0  0999 V2000
   61.1390   29.2750   45.4160 C   0  0  0  0  0  0  0  0  0  0  0  0
   60.2660   28.3350   44.8010 O   0  0  0  0  0  0  0  0  0  0  0  0
   59.2040   27.6970   45.4560 C   0  0  0  0  0  0  0  0  0  0  0  0
   59.4110   26.8500   46.5630 C   0  0  0  0  0  0  0  0  0  0  0  0
   58.3270   26.2300   47.1880 C   0  0  0  0  0  0  0  0  0  0  0  0
   57.0310   26.4460   46.7170 C   0  0  0  0  0  0  0  0  0  0  0  0
   56.8100   27.2980   45.6350 C   0  0  0  0  0  0  0  0  0  0  0  0
   57.8970   27.9280   44.9980 C   0  0  0  0  0  0  0  0  0  0  0  0
   57.6910   28.8280   43.9010 N   0  0  0  0  0  0  0  0  0  0  0  0
   56.6920   30.2400   44.0100 S   0  0  0  0  0  0  0  0  0  0  0  0
   56.5580   30.8600   42.6490 O   0  0  0  0  0  0  0  0  0  0  0  0
   55.3290   29.8660   44.5170 O   0  0  0  0  0  0  0  0  0  0  0  0
   57.4830   31.3860   45.0850 C   0  0  0  0  0  0  0  0  0  0  0  0
   58.5110   30.9340   45.9210 C   0  0  0  0  0  0  0  0  0  0  0  0
   59.0980   31.7990   46.8440 C   0  0  0  0  0  0  0  0  0  0  0  0
   58.6560   33.1270   46.9530 C   0  0  0  0  0  0  0  0  0  0  0  0
   59.2590   34.0390   47.9460 C   0  0  0  0  0  0  0  0  0  0  0  0
   59.4220   35.2540   47.6490 O   0  0  0  0  0  0  0  0  0  0  0  0
   59.6580   33.5690   49.2480 N   0  0  0  0  0  0  0  0  0  0  0  0
   61.0120   33.8600   49.7280 C   0  0  0  0  0  0  0  0  0  0  0  0
   62.0170   33.3190   48.7510 C   0  0  0  0  0  0  0  0  0  0  0  0
   62.0170   31.9550   48.4140 C   0  0  0  0  0  0  0  0  0  0  0  0
   62.9000   31.4710   47.4460 C   0  0  0  0  0  0  0  0  0  0  0  0
   63.7760   32.3450   46.7970 C   0  0  0  0  0  0  0  0  0  0  0  0
   63.7720   33.7060   47.1160 C   0  0  0  0  0  0  0  0  0  0  0  0
   62.8960   34.1930   48.0900 C   0  0  0  0  0  0  0  0  0  0  0  0
   58.7740   32.6960   50.0350 C   0  0  0  0  0  0  0  0  0  0  0  0
   59.3790   31.3260   50.1880 C   0  0  0  0  0  0  0  0  0  0  0  0
   60.3520   31.0960   51.1730 C   0  0  0  0  0  0  0  0  0  0  0  0
   60.9040   29.8200   51.3360 C   0  0  0  0  0  0  0  0  0  0  0  0
   60.4830   28.7680   50.5200 C   0  0  0  0  0  0  0  0  0  0  0  0
   59.5150   28.9900   49.5360 C   0  0  0  0  0  0  0  0  0  0  0  0
   58.9600   30.2620   49.3730 C   0  0  0  0  0  0  0  0  0  0  0  0
   57.6410   33.5840   46.0960 C   0  0  0  0  0  0  0  0  0  0  0  0
   57.0520   32.7140   45.1740 C   0  0  0  0  0  0  0  0  0  0  0  0
   61.0589   29.1888   46.5097 H   0  0  0  0  0  0  0  0  0  0  0  0
   62.1747   29.0703   45.1069 H   0  0  0  0  0  0  0  0  0  0  0  0
   60.8584   30.2927   45.1069 H   0  0  0  0  0  0  0  0  0  0  0  0
   60.4310   26.6764   46.9365 H   0  0  0  0  0  0  0  0  0  0  0  0
   58.4947   25.5707   48.0524 H   0  0  0  0  0  0  0  0  0  0  0  0
   56.1810   25.9426   47.2008 H   0  0  0  0  0  0  0  0  0  0  0  0
   55.7851   27.4783   45.2785 H   0  0  0  0  0  0  0  0  0  0  0  0
   58.8571   29.8923   45.8495 H   0  0  0  0  0  0  0  0  0  0  0  0
   59.9119   31.4387   47.4903 H   0  0  0  0  0  0  0  0  0  0  0  0
   61.1415   34.9483   49.8224 H   0  0  0  0  0  0  0  0  0  0  0  0
   61.1628   33.3862   50.7092 H   0  0  0  0  0  0  0  0  0  0  0  0
   61.3198   31.2665   48.9138 H   0  0  0  0  0  0  0  0  0  0  0  0
   62.9058   30.4002   47.1942 H   0  0  0  0  0  0  0  0  0  0  0  0
   64.4696   31.9616   46.0342 H   0  0  0  0  0  0  0  0  0  0  0  0
   64.4584   34.3937   46.6004 H   0  0  0  0  0  0  0  0  0  0  0  0
   62.8948   35.2642   48.3399 H   0  0  0  0  0  0  0  0  0  0  0  0
   58.6236   33.1378   51.0311 H   0  0  0  0  0  0  0  0  0  0  0  0
   57.8117   32.6014   49.5106 H   0  0  0  0  0  0  0  0  0  0  0  0
   60.6823   31.9222   51.8198 H   0  0  0  0  0  0  0  0  0  0  0  0
   61.6693   29.6460   52.1068 H   0  0  0  0  0  0  0  0  0  0  0  0
   60.9132   27.7642   50.6515 H   0  0  0  0  0  0  0  0  0  0  0  0
   59.1897   28.1620   48.8890 H   0  0  0  0  0  0  0  0  0  0  0  0
   58.1922   30.4304   48.6035 H   0  0  0  0  0  0  0  0  0  0  0  0
   57.3083   34.6310   46.1508 H   0  0  0  0  0  0  0  0  0  0  0  0
   56.2472   33.0746   44.5165 H   0  0  0  0  0  0  0  0  0  0  0  0
  1  2  1  0
  2  3  1  0
  3  4  2  0
  4  5  1  0
  5  6  2  0
  6  7  1  0
  7  8  2  0
  8  9  1  0
  9 10  1  0
 10 11  2  0
 10 12  2  0
 10 13  1  0
 13 14  2  0
 14 15  1  0
 15 16  2  0
 16 17  1  0
 17 18  2  0
 17 19  1  0
 19 20  1  0
 20 21  1  0
 21 22  2  0
 22 23  1  0
 23 24  2  0
 24 25  1  0
 25 26  2  0
 19 27  1  0
 27 28  1  0
 28 29  2  0
 29 30  1  0
 30 31  2  0
 31 32  1  0
 32 33  2  0
 16 34  1  0
 34 35  2  0
  8  3  1  0
 35 13  1  0
 26 21  1  0
 33 28  1  0
  1 36  1  0
  1 37  1  0
  1 38  1  0
  4 39  1  0
  5 40  1  0
  6 41  1  0
  7 42  1  0
 14 43  1  0
 15 44  1  0
 20 45  1  0
 20 46  1  0
 22 47  1  0
 23 48  1  0
 24 49  1  0
 25 50  1  0
 26 51  1  0
 27 52  1  0
 27 53  1  0
 29 54  1  0
 30 55  1  0
 31 56  1  0
 32 57  1  0
 33 58  1  0
 34 59  1  0
 35 60  1  0
M  CHG  1   9  -1
M  END
>  <UniqueID>  (29) 
25

>  <SMILES>  (29) 
COc1ccccc1[N-]S(=O)(=O)c1ccc(C(=O)N(Cc2ccccc2)Cc2ccccc2)cc1

>  <Energy>  (29) 
68.21369173682487

>  <Genealogy>  (29) 
COc1ccccc1[N-]S(=O)(=O)c1ccc(C(=O)N(Cc2ccccc2)Cc2ccccc2)cc1 (protonated)
COc1ccccc1[N-]S(=O)(=O)c1ccc(C(=O)N(Cc2ccccc2)Cc2ccccc2)cc1 (3D coordinates assigned)
COc1ccccc1[N-]S(=O)(=O)c1ccc(C(=O)N(Cc2ccccc2)Cc2ccccc2)cc1 (optimized conformer: 68.21369173682487 kcal/mol)

>  <smiles>  (29) 
COc1ccccc1NS(=O)(=O)c1ccc(C(=O)N(Cc2ccccc2)Cc2ccccc2)cc1

>  <score_type>  (29) 
oracle

>  <origin>  (29) 
adg

>  <m_score__min__energy>  (29) 
-12.35

>  <m_primary>  (29) 
energy

$$$$
29:0
     RDKit          3D

 63 66  0  0  0  0  0  0  0  0999 V2000
   66.2760   30.4850   52.6780 C   0  0  0  0  0  0  0  0  0  0  0  0
   65.8010   31.3580   51.5470 C   0  0  0  0  0  0  0  0  0  0  0  0
   66.6010   32.4430   51.1500 C   0  0  0  0  0  0  0  0  0  0  0  0
   66.1920   33.2850   50.1200 C   0  0  0  0  0  0  0  0  0  0  0  0
   64.9770   33.0670   49.4770 C   0  0  0  0  0  0  0  0  0  0  0  0
   64.1610   31.9890   49.8460 C   0  0  0  0  0  0  0  0  0  0  0  0
   62.8910   31.8290   49.1950 N   0  0  0  0  0  0  0  0  0  0  0  0
   61.6450   31.9610   49.9560 C   0  0  0  0  0  0  0  0  0  0  0  0
   60.6380   32.7910   49.1500 C   0  0  0  0  0  0  0  0  0  0  0  0
   60.4920   32.3490   47.7390 N   0  0  0  0  0  0  0  0  0  0  0  0
   58.8390   31.9350   47.3400 S   0  0  0  0  0  0  0  0  0  0  0  0
   57.9260   32.8280   48.1310 O   0  0  0  0  0  0  0  0  0  0  0  0
   58.5500   30.5180   47.7520 O   0  0  0  0  0  0  0  0  0  0  0  0
   58.5020   32.1430   45.6100 C   0  0  0  0  0  0  0  0  0  0  0  0
   58.7280   33.2670   44.8180 C   0  0  0  0  0  0  0  0  0  0  0  0
   59.3150   34.5760   45.2440 C   0  0  0  0  0  0  0  0  0  0  0  0
   58.2450   33.0630   43.5770 N   0  0  0  0  0  0  0  0  0  0  0  0
   57.7380   31.8170   43.5470 C   0  0  0  0  0  0  0  0  0  0  0  0
   57.0540   31.2260   42.3560 C   0  0  0  0  0  0  0  0  0  0  0  0
   57.8710   31.2210   44.7870 C   0  0  0  0  0  0  0  0  0  0  0  0
   57.4110   29.8750   45.1510 C   0  0  0  0  0  0  0  0  0  0  0  0
   56.1750   29.6360   45.1750 O   0  0  0  0  0  0  0  0  0  0  0  0
   58.3530   28.8340   45.4570 N   0  0  0  0  0  0  0  0  0  0  0  0
   57.9560   27.5150   45.9130 C   0  0  0  0  0  0  0  0  0  0  0  0
   59.2310   26.6810   45.9090 C   0  0  0  0  0  0  0  0  0  0  0  0
   60.3840   27.6800   45.8440 C   0  0  0  0  0  0  0  0  0  0  0  0
   59.7900   28.9690   45.2930 C   0  0  0  0  0  0  0  0  0  0  0  0
   61.4030   31.2650   47.3200 C   0  0  0  0  0  0  0  0  0  0  0  0
   62.8400   31.5580   47.7570 C   0  0  0  0  0  0  0  0  0  0  0  0
   64.5850   31.0970   50.8620 C   0  0  0  0  0  0  0  0  0  0  0  0
   63.7290   29.9070   51.2290 C   0  0  0  0  0  0  0  0  0  0  0  0
   66.0193   30.9567   53.6380 H   0  0  0  0  0  0  0  0  0  0  0  0
   65.7889   29.5010   52.6111 H   0  0  0  0  0  0  0  0  0  0  0  0
   67.3668   30.3595   52.6111 H   0  0  0  0  0  0  0  0  0  0  0  0
   67.5590   32.6285   51.6578 H   0  0  0  0  0  0  0  0  0  0  0  0
   66.8313   34.1258   49.8130 H   0  0  0  0  0  0  0  0  0  0  0  0
   64.6549   33.7457   48.6735 H   0  0  0  0  0  0  0  0  0  0  0  0
   61.2258   30.9625   50.1489 H   0  0  0  0  0  0  0  0  0  0  0  0
   61.8515   32.4635   50.9125 H   0  0  0  0  0  0  0  0  0  0  0  0
   59.6561   32.7172   49.6402 H   0  0  0  0  0  0  0  0  0  0  0  0
   61.0189   33.8227   49.1255 H   0  0  0  0  0  0  0  0  0  0  0  0
   59.3380   34.6273   46.3426 H   0  0  0  0  0  0  0  0  0  0  0  0
   60.3387   34.6639   44.8513 H   0  0  0  0  0  0  0  0  0  0  0  0
   58.6997   35.3989   44.8513 H   0  0  0  0  0  0  0  0  0  0  0  0
   58.2490   33.7480   42.7890 H   0  0  0  0  0  0  0  0  0  0  0  0
   56.2612   30.5410   42.6909 H   0  0  0  0  0  0  0  0  0  0  0  0
   56.6116   32.0307   41.7504 H   0  0  0  0  0  0  0  0  0  0  0  0
   57.7860   30.6715   41.7504 H   0  0  0  0  0  0  0  0  0  0  0  0
   57.5358   27.5697   46.9281 H   0  0  0  0  0  0  0  0  0  0  0  0
   57.1803   27.0769   45.2678 H   0  0  0  0  0  0  0  0  0  0  0  0
   59.2975   26.0791   46.8273 H   0  0  0  0  0  0  0  0  0  0  0  0
   59.2538   25.9820   45.0600 H   0  0  0  0  0  0  0  0  0  0  0  0
   60.8004   27.8493   46.8480 H   0  0  0  0  0  0  0  0  0  0  0  0
   61.2032   27.3100   45.2100 H   0  0  0  0  0  0  0  0  0  0  0  0
   60.1618   29.8363   45.8583 H   0  0  0  0  0  0  0  0  0  0  0  0
   60.0678   29.1298   44.2409 H   0  0  0  0  0  0  0  0  0  0  0  0
   61.0731   30.3206   47.7776 H   0  0  0  0  0  0  0  0  0  0  0  0
   61.3782   31.1903   46.2228 H   0  0  0  0  0  0  0  0  0  0  0  0
   63.4727   30.6873   47.5296 H   0  0  0  0  0  0  0  0  0  0  0  0
   63.2048   32.4424   47.2141 H   0  0  0  0  0  0  0  0  0  0  0  0
   63.6684   29.8227   52.3241 H   0  0  0  0  0  0  0  0  0  0  0  0
   62.7186   30.0405   50.8150 H   0  0  0  0  0  0  0  0  0  0  0  0
   64.1769   28.9916   50.8150 H   0  0  0  0  0  0  0  0  0  0  0  0
  1  2  1  0
  2  3  2  0
  3  4  1  0
  4  5  2  0
  5  6  1  0
  6  7  1  0
  7  8  1  0
  8  9  1  0
  9 10  1  0
 10 11  1  0
 11 12  2  0
 11 13  2  0
 11 14  1  0
 14 15  2  0
 15 16  1  0
 15 17  1  0
 17 18  1  0
 18 19  1  0
 18 20  2  0
 20 21  1  0
 21 22  2  0
 21 23  1  0
 23 24  1  0
 24 25  1  0
 25 26  1  0
 26 27  1  0
 10 28  1  0
 28 29  1  0
  6 30  2  0
 30 31  1  0
 30  2  1  0
 29  7  1  0
 20 14  1  0
 27 23  1  0
  1 32  1  0
  1 33  1  0
  1 34  1  0
  3 35  1  0
  4 36  1  0
  5 37  1  0
  8 38  1  0
  8 39  1  0
  9 40  1  0
  9 41  1  0
 16 42  1  0
 16 43  1  0
 16 44  1  0
 17 45  1  0
 19 46  1  0
 19 47  1  0
 19 48  1  0
 24 49  1  0
 24 50  1  0
 25 51  1  0
 25 52  1  0
 26 53  1  0
 26 54  1  0
 27 55  1  0
 27 56  1  0
 28 57  1  0
 28 58  1  0
 29 59  1  0
 29 60  1  0
 31 61  1  0
 31 62  1  0
 31 63  1  0
M  END
>  <UniqueID>  (30) 
26

>  <SMILES>  (30) 
Cc1cccc(N2CCN(S(=O)(=O)c3c(C)[nH]c(C)c3C(=O)N3CCCC3)CC2)c1C

>  <Energy>  (30) 
105.23681190721037

>  <Genealogy>  (30) 
Cc1cccc(N2CCN(S(=O)(=O)c3c(C)[nH]c(C)c3C(=O)N3CCCC3)CC2)c1C (3D coordinates assigned)
Cc1cccc(N2CCN(S(=O)(=O)c3c(C)[nH]c(C)c3C(=O)N3CCCC3)CC2)c1C (nonaromatic ring conformer: 105.23681190721037 kcal/mol)

>  <smiles>  (30) 
Cc1cccc(N2CCN(S(=O)(=O)c3c(C)[nH]c(C)c3C(=O)N3CCCC3)CC2)c1C

>  <score_type>  (30) 
oracle

>  <origin>  (30) 
adg

>  <m_score__min__energy>  (30) 
-8.8900000000000006

>  <m_primary>  (30) 
energy

$$$$
30:0
     RDKit          3D

 27 28  0  0  0  0  0  0  0  0999 V2000
   54.7760   29.7310   43.3710 O   0  0  0  0  0  0  0  0  0  0  0  0
   55.8500   29.7440   44.0280 C   0  0  0  0  0  0  0  0  0  0  0  0
   55.9300   28.9930   45.2450 N   0  0  0  0  0  0  0  0  0  0  0  0
   56.6710   27.9510   45.5090 C   0  0  0  0  0  0  0  0  0  0  0  0
   58.0170   28.0740   45.3430 N   0  0  0  0  0  0  0  0  0  0  0  0
   58.8840   27.0610   45.6020 C   0  0  0  0  0  0  0  0  0  0  0  0
   58.4050   25.8330   46.0550 C   0  0  0  0  0  0  0  0  0  0  0  0
   57.0320   25.6530   46.2100 C   0  0  0  0  0  0  0  0  0  0  0  0
   56.1490   26.6970   45.9210 C   0  0  0  0  0  0  0  0  0  0  0  0
   54.7840   26.4440   45.9930 O   0  0  0  0  0  0  0  0  0  0  0  0
   57.0020   30.4470   43.5420 N   0  0  0  0  0  0  0  0  0  0  0  0
   57.6420   31.5860   44.1430 C   0  0  0  0  0  0  0  0  0  0  0  0
   57.7500   31.6980   45.5430 C   0  0  0  0  0  0  0  0  0  0  0  0
   58.3940   32.7940   46.1190 C   0  0  0  0  0  0  0  0  0  0  0  0
   58.9270   33.7950   45.3120 C   0  0  0  0  0  0  0  0  0  0  0  0
   58.8020   33.7160   43.9240 C   0  0  0  0  0  0  0  0  0  0  0  0
   58.1450   32.6270   43.3220 C   0  0  0  0  0  0  0  0  0  0  0  0
   58.0150   32.5910   41.8860 N   0  0  0  0  0  0  0  0  0  0  0  0
   58.8890   33.0910   41.1480 O   0  0  0  0  0  0  0  0  0  0  0  0
   56.9750   31.9040   41.3020 O   0  0  0  0  0  0  0  0  0  0  0  0
   59.9638   27.2097   45.4543 H   0  0  0  0  0  0  0  0  0  0  0  0
   59.1030   25.0152   46.2875 H   0  0  0  0  0  0  0  0  0  0  0  0
   56.6419   24.6862   46.5609 H   0  0  0  0  0  0  0  0  0  0  0  0
   57.3233   30.9153   46.1875 H   0  0  0  0  0  0  0  0  0  0  0  0
   58.4806   32.8669   47.2132 H   0  0  0  0  0  0  0  0  0  0  0  0
   59.4475   34.6497   45.7687 H   0  0  0  0  0  0  0  0  0  0  0  0
   59.2218   34.5139   43.2938 H   0  0  0  0  0  0  0  0  0  0  0  0
  1  2  2  0
  2  3  1  0
  3  4  2  3
  4  5  1  0
  5  6  1  0
  6  7  2  0
  7  8  1  0
  8  9  2  0
  9 10  1  0
  2 11  1  0
 11 12  1  0
 12 13  2  0
 13 14  1  0
 14 15  2  0
 15 16  1  0
 16 17  2  0
 17 18  1  0
 18 19  2  0
 18 20  1  0
  9  4  1  0
 17 12  1  0
  6 21  1  0
  7 22  1  0
  8 23  1  0
 13 24  1  0
 14 25  1  0
 15 26  1  0
 16 27  1  0
M  CHG  5   5  -1  10  -1  11  -1  18   1  20  -1
M  END
>  <UniqueID>  (31) 
27

>  <SMILES>  (31) 
O=C(N=c1[n-]cccc1[O-])[N-]c1ccccc1[N+](=O)[O-]

>  <Energy>  (31) 
48.0388234556526

>  <Genealogy>  (31) 
O=C(N=c1[n-]cccc1[O-])[N-]c1ccccc1[N+](=O)[O-] (protonated)
O=C(N=c1[n-]cccc1[O-])[N-]c1ccccc1[N+](=O)[O-] (3D coordinates assigned)
O=C(N=c1[n-]cccc1[O-])[N-]c1ccccc1[N+](=O)[O-] (optimized conformer: 48.0388234556526 kcal/mol)

>  <smiles>  (31) 
O=C(N=c1[nH]cccc1O)Nc1ccccc1[N+](=O)[O-]

>  <score_type>  (31) 
oracle

>  <origin>  (31) 
adg

>  <m_score__min__energy>  (31) 
-13.06

>  <m_primary>  (31) 
energy

$$$$
31:0
     RDKit          3D

 41 43  0  0  1  0  0  0  0  0999 V2000
   60.9180   28.2540   45.3050 C   0  0  0  0  0  0  0  0  0  0  0  0
   56.2950   29.7440   44.8260 N   0  0  0  0  0  0  0  0  0  0  0  0
   56.8860   30.8130   44.4420 C   0  0  0  0  0  0  0  0  0  0  0  0
   57.1340   30.9860   43.0950 C   0  0  0  0  0  0  0  0  0  0  0  0
   57.8620   32.8620   45.0100 C   0  0  0  0  0  0  0  0  0  0  0  0
   55.9150   25.4000   46.4030 N   0  0  0  0  0  0  0  0  0  0  0  0
   56.7270   26.3620   46.1090 C   0  0  0  0  0  0  0  0  0  0  0  0
   58.3260   28.4930   45.4400 C   0  0  0  0  0  0  0  0  0  0  0  0
   57.7720   32.1490   42.7180 C   0  0  0  0  0  0  0  0  0  0  0  0
   58.1370   33.0910   43.6860 C   0  0  0  0  0  0  0  0  0  0  0  0
   56.9570   28.5790   45.3060 C   0  0  0  0  0  0  0  0  0  0  0  0
   58.2390   33.8530   46.0730 C   0  0  0  0  0  0  0  0  0  0  0  0
   58.0630   26.2620   46.2450 N   0  0  0  0  0  0  0  0  0  0  0  0
   57.2380   31.7220   45.3670 N   0  0  0  0  0  0  0  0  0  0  0  0
   58.8660   27.3040   45.9200 C   0  0  0  0  0  0  0  0  0  0  0  0
   60.1420   27.2610   46.0310 N   0  0  0  0  0  0  0  0  0  0  0  0
   55.5130   24.4910   45.3530 C   0  0  0  0  0  0  0  0  0  0  0  0
   56.6940   23.6130   45.0830 C   0  0  0  0  0  0  0  0  0  0  0  0
   56.8050   22.7540   44.0160 C   0  0  0  0  0  0  0  0  0  0  0  0
   58.0360   22.1260   44.1190 C   0  0  0  0  0  0  0  0  0  0  0  0
   58.6240   22.6370   45.2570 C   0  0  0  0  0  0  0  0  0  0  0  0
   57.7920   23.5050   45.7810 O   0  0  0  0  0  0  0  0  0  0  0  0
   56.1950   27.5160   45.6420 N   0  0  0  0  0  0  0  0  0  0  0  0
   61.4324   28.9122   46.0206 H   0  0  0  0  0  0  0  0  0  0  0  0
   61.6619   27.7474   44.6726 H   0  0  0  0  0  0  0  0  0  0  0  0
   60.2466   28.8534   44.6726 H   0  0  0  0  0  0  0  0  0  0  0  0
   56.8357   30.2291   42.3546 H   0  0  0  0  0  0  0  0  0  0  0  0
   58.9740   29.3413   45.1747 H   0  0  0  0  0  0  0  0  0  0  0  0
   57.9938   32.3360   41.6569 H   0  0  0  0  0  0  0  0  0  0  0  0
   58.6461   34.0182   43.3842 H   0  0  0  0  0  0  0  0  0  0  0  0
   58.0700   33.4087   47.0650 H   0  0  0  0  0  0  0  0  0  0  0  0
   59.3011   34.1188   45.9664 H   0  0  0  0  0  0  0  0  0  0  0  0
   57.6222   34.7575   45.9664 H   0  0  0  0  0  0  0  0  0  0  0  0
   58.4850   25.3720   46.6050 H   0  0  0  0  0  0  0  0  0  0  0  0
   57.0340   31.5570   46.3730 H   0  0  0  0  0  0  0  0  0  0  0  0
   54.6553   23.8855   45.6811 H   0  0  0  0  0  0  0  0  0  0  0  0
   55.2048   25.0360   44.4486 H   0  0  0  0  0  0  0  0  0  0  0  0
   56.0557   22.5945   43.2266 H   0  0  0  0  0  0  0  0  0  0  0  0
   58.4572   21.3750   43.4344 H   0  0  0  0  0  0  0  0  0  0  0  0
   59.6133   22.3654   45.6540 H   0  0  0  0  0  0  0  0  0  0  0  0
   55.1440   27.5810   45.5390 H   0  0  0  0  0  0  0  0  0  0  0  0
  1  2  1  0
  2  3  2  0
  3  4  1  0
  4  5  2  0
  5  6  1  0
  6  7  2  0
  7  8  1  0
  8  9  2  0
  9 10  1  0
 10 11  2  0
 11 12  1  0
 11 13  1  0
  5 14  1  0
 14 15  1  0
 15 16  2  0
 16 17  1  0
 17 18  1  0
 18 19  2  0
 19 20  1  0
 20 21  2  0
 21 22  1  0
 15 23  1  0
 23  3  1  0
 13  7  1  0
 22 18  1  0
  1 24  1  0
  1 25  1  0
  1 26  1  0
  4 27  1  0
  8 28  1  0
  9 29  1  0
 10 30  1  0
 12 31  1  0
 12 32  1  0
 12 33  1  0
 13 34  1  0
 14 35  1  0
 17 36  1  0
 17 37  1  0
 19 38  1  0
 20 39  1  0
 21 40  1  0
 23 41  1  0
M  END
>  <smiles>  (32) 
CN=c1cc(N=c2cccc(C)[nH]2)[nH]c(=NCc2ccco2)[nH]1

>  <score_type>  (32) 
oracle

>  <origin>  (32) 
adg

>  <m_score__min__energy>  (32) 
-7.3499999999999996

>  <m_primary>  (32) 
energy

$$$$
32:0
     RDKit          3D

 39 41  0  0  0  0  0  0  0  0999 V2000
   57.7440   33.5660   46.6930 C   0  0  0  0  0  0  0  0  0  0  0  0
   58.9450   33.3920   45.9500 O   0  0  0  0  0  0  0  0  0  0  0  0
   60.1720   32.9840   46.4990 C   0  0  0  0  0  0  0  0  0  0  0  0
   61.3310   33.7800   46.3990 C   0  0  0  0  0  0  0  0  0  0  0  0
   62.5480   33.3240   46.9110 C   0  0  0  0  0  0  0  0  0  0  0  0
   63.6590   34.0940   46.8050 F   0  0  0  0  0  0  0  0  0  0  0  0
   62.6250   32.0710   47.5200 C   0  0  0  0  0  0  0  0  0  0  0  0
   61.4820   31.2770   47.6330 C   0  0  0  0  0  0  0  0  0  0  0  0
   60.2510   31.7330   47.1490 C   0  0  0  0  0  0  0  0  0  0  0  0
   59.1300   30.9030   47.2920 O   0  0  0  0  0  0  0  0  0  0  0  0
   58.7060   29.9510   46.3540 C   0  0  0  0  0  0  0  0  0  0  0  0
   58.8160   30.2460   44.9920 C   0  0  0  0  0  0  0  0  0  0  0  0
   58.4290   29.3360   44.0570 N   0  0  0  0  0  0  0  0  0  0  0  0
   57.9240   28.1230   44.4090 C   0  0  0  0  0  0  0  0  0  0  0  0
   57.7850   27.7800   45.7640 C   0  0  0  0  0  0  0  0  0  0  0  0
   57.2870   26.5030   46.1860 N   0  0  0  0  0  0  0  0  0  0  0  0
   56.0860   25.8610   45.7340 C   0  0  0  0  0  0  0  0  0  0  0  0
   54.9600   26.3500   46.0230 O   0  0  0  0  0  0  0  0  0  0  0  0
   56.1660   24.5910   44.9760 C   0  0  0  0  0  0  0  0  0  0  0  0
   57.3940   24.1190   44.4850 C   0  0  0  0  0  0  0  0  0  0  0  0
   57.4530   22.9210   43.7700 C   0  0  0  0  0  0  0  0  0  0  0  0
   56.2790   22.1990   43.5490 C   0  0  0  0  0  0  0  0  0  0  0  0
   56.3120   21.1160   42.9060 O   0  0  0  0  0  0  0  0  0  0  0  0
   55.0950   22.6640   44.0260 N   0  0  0  0  0  0  0  0  0  0  0  0
   55.0120   23.8280   44.7260 C   0  0  0  0  0  0  0  0  0  0  0  0
   58.2070   28.6940   46.7330 C   0  0  0  0  0  0  0  0  0  0  0  0
   57.9705   33.5332   47.7689 H   0  0  0  0  0  0  0  0  0  0  0  0
   57.2953   34.5385   46.4422 H   0  0  0  0  0  0  0  0  0  0  0  0
   57.0378   32.7608   46.4422 H   0  0  0  0  0  0  0  0  0  0  0  0
   61.2768   34.7662   45.9148 H   0  0  0  0  0  0  0  0  0  0  0  0
   63.5869   31.7084   47.9114 H   0  0  0  0  0  0  0  0  0  0  0  0
   61.5498   30.2861   48.1058 H   0  0  0  0  0  0  0  0  0  0  0  0
   59.2177   31.2194   44.6741 H   0  0  0  0  0  0  0  0  0  0  0  0
   58.5310   29.5720   43.0450 H   0  0  0  0  0  0  0  0  0  0  0  0
   57.6232   27.4077   43.6293 H   0  0  0  0  0  0  0  0  0  0  0  0
   58.3135   24.6955   44.6644 H   0  0  0  0  0  0  0  0  0  0  0  0
   58.4144   22.5502   43.3850 H   0  0  0  0  0  0  0  0  0  0  0  0
   54.0364   24.1739   45.0983 H   0  0  0  0  0  0  0  0  0  0  0  0
   58.1481   28.4276   47.7986 H   0  0  0  0  0  0  0  0  0  0  0  0
  1  2  1  0
  2  3  1  0
  3  4  2  0
  4  5  1  0
  5  6  1  0
  5  7  2  0
  7  8  1  0
  8  9  2  0
  9 10  1  0
 10 11  1  0
 11 12  2  0
 12 13  1  0
 13 14  2  0
 14 15  1  0
 15 16  1  0
 16 17  1  0
 17 18  2  0
 17 19  1  0
 19 20  1  0
 20 21  2  0
 21 22  1  0
 22 23  2  0
 22 24  1  0
 24 25  1  0
 15 26  2  0
  9  3  1  0
 26 11  1  0
 25 19  2  0
  1 27  1  0
  1 28  1  0
  1 29  1  0
  4 30  1  0
  7 31  1  0
  8 32  1  0
 12 33  1  0
 13 34  1  0
 14 35  1  0
 20 36  1  0
 21 37  1  0
 25 38  1  0
 26 39  1  0
M  CHG  3  13   1  16  -1  24  -1
M  END
>  <UniqueID>  (33) 
28

>  <SMILES>  (33) 
COc1cc(F)ccc1Oc1c[nH+]cc([N-]C(=O)c2ccc(=O)[n-]c2)c1

>  <Energy>  (33) 
53.73760692564002

>  <Genealogy>  (33) 
COc1cc(F)ccc1Oc1c[nH+]cc([N-]C(=O)c2ccc(=O)[n-]c2)c1 (protonated)
COc1cc(F)ccc1Oc1c[nH+]cc([N-]C(=O)c2ccc(=O)[n-]c2)c1 (3D coordinates assigned)
COc1cc(F)ccc1Oc1c[nH+]cc([N-]C(=O)c2ccc(=O)[n-]c2)c1 (optimized conformer: 53.73760692564002 kcal/mol)

>  <smiles>  (33) 
COc1cc(F)ccc1Oc1cncc(NC(=O)c2ccc(=O)[nH]c2)c1

>  <score_type>  (33) 
oracle

>  <origin>  (33) 
adg

>  <m_score__min__energy>  (33) 
-10.029999999999999

>  <m_primary>  (33) 
energy

$$$$
33:0
     RDKit          3D

 21 21  0  0  0  0  0  0  0  0999 V2000
   58.1650   27.6080   47.0200 C   0  0  0  0  0  0  0  0  0  0  0  0
   57.2350   28.1460   45.6010 S   0  0  0  0  0  0  0  0  0  0  0  0
   57.9470   27.7690   44.3330 O   0  0  0  0  0  0  0  0  0  0  0  0
   55.8930   27.4690   45.6200 O   0  0  0  0  0  0  0  0  0  0  0  0
   56.9920   29.8630   45.6600 N   0  0  0  0  0  0  0  0  0  0  0  0
   57.2680   30.7930   44.6020 C   0  0  0  0  0  0  0  0  0  0  0  0
   58.0040   31.9730   44.8290 C   0  0  0  0  0  0  0  0  0  0  0  0
   58.2570   32.8620   43.7820 C   0  0  0  0  0  0  0  0  0  0  0  0
   57.7840   32.5870   42.4990 C   0  0  0  0  0  0  0  0  0  0  0  0
   57.0560   31.4210   42.2590 C   0  0  0  0  0  0  0  0  0  0  0  0
   56.7930   30.5190   43.3010 C   0  0  0  0  0  0  0  0  0  0  0  0
   56.0420   29.3280   43.0270 N   0  0  0  0  0  0  0  0  0  0  0  0
   57.6409   27.9112   47.9384 H   0  0  0  0  0  0  0  0  0  0  0  0
   58.2647   26.5127   46.9993 H   0  0  0  0  0  0  0  0  0  0  0  0
   59.1642   28.0676   46.9993 H   0  0  0  0  0  0  0  0  0  0  0  0
   58.3819   32.1955   45.8378 H   0  0  0  0  0  0  0  0  0  0  0  0
   58.8308   33.7815   43.9697 H   0  0  0  0  0  0  0  0  0  0  0  0
   57.9848   33.2892   41.6765 H   0  0  0  0  0  0  0  0  0  0  0  0
   56.6856   31.2075   41.2455 H   0  0  0  0  0  0  0  0  0  0  0  0
   55.4970   29.2150   42.1450 H   0  0  0  0  0  0  0  0  0  0  0  0
   56.0270   28.5410   43.7130 H   0  0  0  0  0  0  0  0  0  0  0  0
  1  2  1  0
  2  3  2  0
  2  4  2  0
  2  5  1  0
  5  6  1  0
  6  7  2  0
  7  8  1  0
  8  9  2  0
  9 10  1  0
 10 11  2  0
 11 12  1  0
 11  6  1  0
  1 13  1  0
  1 14  1  0
  1 15  1  0
  7 16  1  0
  8 17  1  0
  9 18  1  0
 10 19  1  0
 12 20  1  0
 12 21  1  0
M  CHG  1   5  -1
M  END
>  <UniqueID>  (34) 
29

>  <SMILES>  (34) 
CS(=O)(=O)[N-]c1ccccc1N

>  <Energy>  (34) 
18.36083056774875

>  <Genealogy>  (34) 
CS(=O)(=O)[N-]c1ccccc1N (protonated)
CS(=O)(=O)[N-]c1ccccc1N (3D coordinates assigned)
CS(=O)(=O)[N-]c1ccccc1N (optimized conformer: 18.36083056774875 kcal/mol)

>  <smiles>  (34) 
CS(=O)(=O)Nc1ccccc1N

>  <score_type>  (34) 
oracle

>  <origin>  (34) 
adg

>  <m_score__min__energy>  (34) 
-8.3599999999999994

>  <m_primary>  (34) 
energy

$$$$
34:0
     RDKit          3D

 42 44  0  0  0  0  0  0  0  0999 V2000
   56.6280   29.7890   42.9150 O   0  0  0  0  0  0  0  0  0  0  0  0
   56.6870   29.9180   44.1670 C   0  0  0  0  0  0  0  0  0  0  0  0
   56.1630   28.8630   44.9900 N   0  0  0  0  0  0  0  0  0  0  0  0
   56.8410   27.8660   45.4820 C   0  0  0  0  0  0  0  0  0  0  0  0
   58.2050   27.8920   45.5190 N   0  0  0  0  0  0  0  0  0  0  0  0
   58.9330   26.8690   46.0370 C   0  0  0  0  0  0  0  0  0  0  0  0
   58.2870   25.7490   46.5630 C   0  0  0  0  0  0  0  0  0  0  0  0
   56.8920   25.6980   46.5510 C   0  0  0  0  0  0  0  0  0  0  0  0
   56.1600   26.7600   46.0130 C   0  0  0  0  0  0  0  0  0  0  0  0
   54.7710   26.7090   46.0050 O   0  0  0  0  0  0  0  0  0  0  0  0
   57.3440   31.1170   44.7400 C   0  0  0  0  0  0  0  0  0  0  0  0
   57.4010   32.3110   44.0020 C   0  0  0  0  0  0  0  0  0  0  0  0
   58.0200   33.4440   44.5370 C   0  0  0  0  0  0  0  0  0  0  0  0
   58.5980   33.3940   45.8070 C   0  0  0  0  0  0  0  0  0  0  0  0
   58.5700   32.2050   46.5460 C   0  0  0  0  0  0  0  0  0  0  0  0
   59.3060   32.1460   48.1460 S   0  0  0  0  0  0  0  0  0  0  0  0
   58.4500   31.2980   49.0440 O   0  0  0  0  0  0  0  0  0  0  0  0
   60.6810   31.5420   48.0600 O   0  0  0  0  0  0  0  0  0  0  0  0
   59.4190   33.7490   48.8070 N   0  0  0  0  0  0  0  0  0  0  0  0
   60.3230   34.5620   47.9900 C   0  0  0  0  0  0  0  0  0  0  0  0
   61.7320   34.0700   48.1640 C   0  0  0  0  0  0  0  0  0  0  0  0
   62.4820   33.6490   47.0520 C   0  0  0  0  0  0  0  0  0  0  0  0
   63.7800   33.1590   47.2230 C   0  0  0  0  0  0  0  0  0  0  0  0
   64.3340   33.0750   48.5040 C   0  0  0  0  0  0  0  0  0  0  0  0
   63.5880   33.4760   49.6160 C   0  0  0  0  0  0  0  0  0  0  0  0
   62.2900   33.9680   49.4490 C   0  0  0  0  0  0  0  0  0  0  0  0
   57.9490   31.0680   46.0100 C   0  0  0  0  0  0  0  0  0  0  0  0
   60.0317   26.9231   46.0420 H   0  0  0  0  0  0  0  0  0  0  0  0
   58.8705   24.9161   46.9822 H   0  0  0  0  0  0  0  0  0  0  0  0
   56.3695   24.8228   46.9646 H   0  0  0  0  0  0  0  0  0  0  0  0
   56.9558   32.3544   42.9971 H   0  0  0  0  0  0  0  0  0  0  0  0
   58.0519   34.3776   43.9561 H   0  0  0  0  0  0  0  0  0  0  0  0
   59.0764   34.2906   46.2279 H   0  0  0  0  0  0  0  0  0  0  0  0
   59.8370   33.6570   49.7620 H   0  0  0  0  0  0  0  0  0  0  0  0
   60.0341   34.4809   46.9317 H   0  0  0  0  0  0  0  0  0  0  0  0
   60.2593   35.6133   48.3072 H   0  0  0  0  0  0  0  0  0  0  0  0
   62.0459   33.7054   46.0437 H   0  0  0  0  0  0  0  0  0  0  0  0
   64.3661   32.8392   46.3488 H   0  0  0  0  0  0  0  0  0  0  0  0
   65.3571   32.6933   48.6367 H   0  0  0  0  0  0  0  0  0  0  0  0
   64.0228   33.4044   50.6239 H   0  0  0  0  0  0  0  0  0  0  0  0
   61.7036   34.2763   50.3271 H   0  0  0  0  0  0  0  0  0  0  0  0
   57.9345   30.1310   46.5860 H   0  0  0  0  0  0  0  0  0  0  0  0
  1  2  2  0
  2  3  1  0
  3  4  2  3
  4  5  1  0
  5  6  1  0
  6  7  2  0
  7  8  1  0
  8  9  2  0
  9 10  1  0
  2 11  1  0
 11 12  2  0
 12 13  1  0
 13 14  2  0
 14 15  1  0
 15 16  1  0
 16 17  2  0
 16 18  2  0
 16 19  1  0
 19 20  1  0
 20 21  1  0
 21 22  2  0
 22 23  1  0
 23 24  2  0
 24 25  1  0
 25 26  2  0
 15 27  2  0
  9  4  1  0
 27 11  1  0
 26 21  1  0
  6 28  1  0
  7 29  1  0
  8 30  1  0
 12 31  1  0
 13 32  1  0
 14 33  1  0
 19 34  1  0
 20 35  1  0
 20 36  1  0
 22 37  1  0
 23 38  1  0
 24 39  1  0
 25 40  1  0
 26 41  1  0
 27 42  1  0
M  CHG  2   5  -1  10  -1
M  END
>  <UniqueID>  (35) 
30

>  <SMILES>  (35) 
O=C(N=c1[n-]cccc1[O-])c1cccc(S(=O)(=O)NCc2ccccc2)c1

>  <Energy>  (35) 
50.43517191038875

>  <Genealogy>  (35) 
O=C(N=c1[n-]cccc1[O-])c1cccc(S(=O)(=O)NCc2ccccc2)c1 (protonated)
O=C(N=c1[n-]cccc1[O-])c1cccc(S(=O)(=O)NCc2ccccc2)c1 (3D coordinates assigned)
O=C(N=c1[n-]cccc1[O-])c1cccc(S(=O)(=O)NCc2ccccc2)c1 (optimized conformer: 50.43517191038875 kcal/mol)

>  <smiles>  (35) 
O=C(N=c1[nH]cccc1O)c1cccc(S(=O)(=O)NCc2ccccc2)c1

>  <score_type>  (35) 
oracle

>  <origin>  (35) 
adg

>  <m_score__min__energy>  (35) 
-14.99

>  <m_primary>  (35) 
energy

$$$$
35:0
     RDKit          3D

 52 55  0  0  0  0  0  0  0  0999 V2000
   56.8640   21.8710   46.6830 H   0  0  0  0  0  0  0  0  0  0  0  0
   57.4780   22.6010   47.0250 O   0  0  0  0  0  0  0  0  0  0  0  0
   57.3260   23.9270   46.6260 C   0  0  0  0  0  0  0  0  0  0  0  0
   56.0500   24.4870   46.4840 C   0  0  0  0  0  0  0  0  0  0  0  0
   55.1598   23.8745   46.6897 H   0  0  0  0  0  0  0  0  0  0  0  0
   55.8980   25.8180   46.0830 C   0  0  0  0  0  0  0  0  0  0  0  0
   54.6130   26.3350   45.9560 O   0  0  0  0  0  0  0  0  0  0  0  0
   57.0390   26.6090   45.8150 C   0  0  0  0  0  0  0  0  0  0  0  0
   56.9660   27.9550   45.4050 C   0  0  0  0  0  0  0  0  0  0  0  0
   55.8580   28.5370   45.2510 O   0  0  0  0  0  0  0  0  0  0  0  0
   58.1440   28.6640   45.1600 C   0  0  0  0  0  0  0  0  0  0  0  0
   58.1034   29.7145   44.8362 H   0  0  0  0  0  0  0  0  0  0  0  0
   59.3780   28.0230   45.3310 C   0  0  0  0  0  0  0  0  0  0  0  0
   60.6300   28.7630   45.0770 C   0  0  0  0  0  0  0  0  0  0  0  0
   61.1536   28.6128   44.1213 H   0  0  0  0  0  0  0  0  0  0  0  0
   61.1480   29.6120   45.9750 C   0  0  0  0  0  0  0  0  0  0  0  0
   62.2422   29.6655   46.0739 H   0  0  0  0  0  0  0  0  0  0  0  0
   60.3160   30.4850   46.8440 C   0  0  0  0  0  0  0  0  0  0  0  0
   59.5960   31.5730   46.3120 C   0  0  0  0  0  0  0  0  0  0  0  0
   59.6364   31.7725   45.2310 H   0  0  0  0  0  0  0  0  0  0  0  0
   58.8310   32.4030   47.1370 C   0  0  0  0  0  0  0  0  0  0  0  0
   58.1390   33.4720   46.5420 O   0  0  0  0  0  0  0  0  0  0  0  0
   58.2580   33.8760   45.1780 C   0  0  0  0  0  0  0  0  0  0  0  0
   57.6942   34.8085   45.0281 H   0  0  0  0  0  0  0  0  0  0  0  0
   59.3228   34.0297   44.9486 H   0  0  0  0  0  0  0  0  0  0  0  0
   57.7150   32.8180   44.2550 C   0  0  0  0  0  0  0  0  0  0  0  0
   58.1350   32.7660   42.9160 C   0  0  0  0  0  0  0  0  0  0  0  0
   58.8537   33.5083   42.5386 H   0  0  0  0  0  0  0  0  0  0  0  0
   57.6440   31.7750   42.0600 C   0  0  0  0  0  0  0  0  0  0  0  0
   57.9731   31.7427   41.0109 H   0  0  0  0  0  0  0  0  0  0  0  0
   56.7360   30.8260   42.5360 C   0  0  0  0  0  0  0  0  0  0  0  0
   56.3482   30.0492   41.8606 H   0  0  0  0  0  0  0  0  0  0  0  0
   56.3200   30.8630   43.8700 C   0  0  0  0  0  0  0  0  0  0  0  0
   55.6060   30.1145   44.2442 H   0  0  0  0  0  0  0  0  0  0  0  0
   56.8110   31.8510   44.7290 C   0  0  0  0  0  0  0  0  0  0  0  0
   56.4885   31.8718   45.7805 H   0  0  0  0  0  0  0  0  0  0  0  0
   58.7870   32.1470   48.5170 C   0  0  0  0  0  0  0  0  0  0  0  0
   58.1819   32.7892   49.1738 H   0  0  0  0  0  0  0  0  0  0  0  0
   59.5070   31.0820   49.0590 C   0  0  0  0  0  0  0  0  0  0  0  0
   59.4788   30.9012   50.1437 H   0  0  0  0  0  0  0  0  0  0  0  0
   60.2680   30.2380   48.2320 C   0  0  0  0  0  0  0  0  0  0  0  0
   61.0080   29.1680   48.7640 O   0  0  0  0  0  0  0  0  0  0  0  0
   60.4660   28.0580   49.4230 C   0  0  0  0  0  0  0  0  0  0  0  0
   60.1700   28.1080   50.6480 O   0  0  0  0  0  0  0  0  0  0  0  0
   60.1470   26.8330   48.6350 C   0  0  0  0  0  0  0  0  0  0  0  0
   59.9304   26.0014   49.3217 H   0  0  0  0  0  0  0  0  0  0  0  0
   59.2685   27.0233   48.0010 H   0  0  0  0  0  0  0  0  0  0  0  0
   61.0068   26.5706   48.0010 H   0  0  0  0  0  0  0  0  0  0  0  0
   59.4180   26.7520   45.7190 O   0  0  0  0  0  0  0  0  0  0  0  0
   58.3250   26.0330   45.9620 C   0  0  0  0  0  0  0  0  0  0  0  0
   58.4580   24.7010   46.3660 C   0  0  0  0  0  0  0  0  0  0  0  0
   59.4597   24.2609   46.4795 H   0  0  0  0  0  0  0  0  0  0  0  0
  1  2  1  0
  2  3  1  0
  3  4  2  0
  4  5  1  0
  4  6  1  0
  6  7  1  0
  6  8  2  0
  8  9  1  0
  9 10  2  0
  9 11  1  0
 11 12  1  0
 11 13  2  0
 13 14  1  0
 14 15  1  0
 14 16  2  0
 16 17  1  0
 16 18  1  0
 18 19  2  0
 19 20  1  0
 19 21  1  0
 21 22  1  0
 22 23  1  0
 23 24  1  0
 23 25  1  0
 23 26  1  0
 26 27  2  0
 27 28  1  0
 27 29  1  0
 29 30  1  0
 29 31  2  0
 31 32  1  0
 31 33  1  0
 33 34  1  0
 33 35  2  0
 35 36  1  0
 21 37  2  0
 37 38  1  0
 37 39  1  0
 39 40  1  0
 39 41  2  0
 41 42  1  0
 42 43  1  0
 43 44  2  0
 43 45  1  0
 45 46  1  0
 45 47  1  0
 45 48  1  0
 13 49  1  0
 49 50  1  0
 50 51  2  0
 51 52  1  0
 51  3  1  0
 50  8  1  0
 41 18  1  0
 35 26  1  0
M  CHG  1   7  -1
M  END
>  <UniqueID>  (36) 
31

>  <SMILES>  (36) 
CC(=O)Oc1ccc(OCc2ccccc2)cc1/C=C/c1cc(=O)c2c([O-])cc(O)cc2o1

>  <Energy>  (36) 
68.20493266274532

>  <Genealogy>  (36) 
CC(=O)Oc1ccc(OCc2ccccc2)cc1C=Cc1cc(=O)c2c([O-])cc(O)cc2o1 (protonated)
CC(=O)Oc1ccc(OCc2ccccc2)cc1/C=C/c1cc(=O)c2c([O-])cc(O)cc2o1 (cis-trans isomerization)
CC(=O)Oc1ccc(OCc2ccccc2)cc1/C=C/c1cc(=O)c2c([O-])cc(O)cc2o1 (3D coordinates assigned)
CC(=O)Oc1ccc(OCc2ccccc2)cc1/C=C/c1cc(=O)c2c([O-])cc(O)cc2o1 (optimized conformer: 68.20493266274532 kcal/mol)

>  <smiles>  (36) 
CC(=O)Oc1ccc(OCc2ccccc2)cc1C=Cc1cc(=O)c2c(O)cc(O)cc2o1

>  <score_type>  (36) 
oracle

>  <origin>  (36) 
adg

>  <m_score__min__energy>  (36) 
-12.74

>  <m_primary>  (36) 
energy

$$$$
36:0
     RDKit          3D

 27 28  0  0  0  0  0  0  0  0999 V2000
   57.1020   23.0990   48.0010 O   0  0  0  0  0  0  0  0  0  0  0  0
   57.5270   23.5710   46.9080 C   0  0  0  0  0  0  0  0  0  0  0  0
   57.0140   24.8880   46.5350 C   0  0  0  0  0  0  0  0  0  0  0  0
   55.7310   25.2430   46.3670 N   0  0  0  0  0  0  0  0  0  0  0  0
   55.6470   26.5380   46.0260 N   0  0  0  0  0  0  0  0  0  0  0  0
   56.8910   27.0430   45.9700 C   0  0  0  0  0  0  0  0  0  0  0  0
   57.3610   28.4040   45.6460 C   0  0  0  0  0  0  0  0  0  0  0  0
   56.0500   29.4040   44.8590 S   0  0  0  0  0  0  0  0  0  0  0  0
   56.8800   30.6930   43.9370 C   0  0  0  0  0  0  0  0  0  0  0  0
   57.6540   31.5810   44.6920 C   0  0  0  0  0  0  0  0  0  0  0  0
   58.3220   32.5990   44.0390 C   0  0  0  0  0  0  0  0  0  0  0  0
   58.2130   32.7160   42.6810 C   0  0  0  0  0  0  0  0  0  0  0  0
   57.4510   31.8450   41.9140 C   0  0  0  0  0  0  0  0  0  0  0  0
   56.7740   30.8150   42.5650 C   0  0  0  0  0  0  0  0  0  0  0  0
   57.7780   26.0110   46.2900 C   0  0  0  0  0  0  0  0  0  0  0  0
   59.2470   26.1010   46.3540 C   0  0  0  0  0  0  0  0  0  0  0  0
   59.8660   26.3670   47.4030 O   0  0  0  0  0  0  0  0  0  0  0  0
   58.2406   23.0231   46.2751 H   0  0  0  0  0  0  0  0  0  0  0  0
   54.7660   27.0900   45.8320 H   0  0  0  0  0  0  0  0  0  0  0  0
   57.6796   28.9012   46.5741 H   0  0  0  0  0  0  0  0  0  0  0  0
   58.1976   28.3175   44.9371 H   0  0  0  0  0  0  0  0  0  0  0  0
   57.7292   31.4708   45.7839 H   0  0  0  0  0  0  0  0  0  0  0  0
   58.9378   33.3110   44.6081 H   0  0  0  0  0  0  0  0  0  0  0  0
   58.7503   33.5325   42.1763 H   0  0  0  0  0  0  0  0  0  0  0  0
   57.3834   31.9644   40.8226 H   0  0  0  0  0  0  0  0  0  0  0  0
   56.1604   30.1051   41.9910 H   0  0  0  0  0  0  0  0  0  0  0  0
   59.8242   25.9255   45.4342 H   0  0  0  0  0  0  0  0  0  0  0  0
  1  2  2  0
  2  3  1  0
  3  4  2  0
  4  5  1  0
  5  6  1  0
  6  7  1  0
  7  8  1  0
  8  9  1  0
  9 10  2  0
 10 11  1  0
 11 12  2  0
 12 13  1  0
 13 14  2  0
  6 15  2  0
 15 16  1  0
 16 17  2  0
 15  3  1  0
 14  9  1  0
  2 18  1  0
  5 19  1  0
  7 20  1  0
  7 21  1  0
 10 22  1  0
 11 23  1  0
 12 24  1  0
 13 25  1  0
 14 26  1  0
 16 27  1  0
M  END
>  <smiles>  (37) 
O=Cc1n[nH]c(CSc2ccccc2)c1C=O

>  <score_type>  (37) 
oracle

>  <origin>  (37) 
adg

>  <m_score__min__energy>  (37) 
-6.8099999999999996

>  <m_primary>  (37) 
energy

$$$$
37:0
     RDKit          3D

 53 55  0  0  0  0  0  0  0  0999 V2000
   59.2340   35.2610   47.4770 O   0  0  0  0  0  0  0  0  0  0  0  0
   59.8000   35.3060   46.3540 C   0  0  0  0  0  0  0  0  0  0  0  0
   59.1090   34.9520   45.1510 N   0  0  0  0  0  0  0  0  0  0  0  0
   58.4900   33.6940   44.8380 C   0  0  0  0  0  0  0  0  0  0  0  0
   58.4450   33.1810   43.5290 C   0  0  0  0  0  0  0  0  0  0  0  0
   57.8600   31.9370   43.2800 C   0  0  0  0  0  0  0  0  0  0  0  0
   57.3150   31.1870   44.3290 C   0  0  0  0  0  0  0  0  0  0  0  0
   56.5630   29.6280   44.0030 S   0  0  0  0  0  0  0  0  0  0  0  0
   55.5140   29.3610   45.0460 O   0  0  0  0  0  0  0  0  0  0  0  0
   55.9180   29.6370   42.6450 O   0  0  0  0  0  0  0  0  0  0  0  0
   57.7610   28.3690   44.0660 N   0  0  0  0  0  0  0  0  0  0  0  0
   58.3460   28.2780   45.4050 C   0  0  0  0  0  0  0  0  0  0  0  0
   57.6140   27.2460   46.1960 C   0  0  0  0  0  0  0  0  0  0  0  0
   56.5470   26.7460   45.7460 O   0  0  0  0  0  0  0  0  0  0  0  0
   58.1630   26.7950   47.4020 O   0  0  0  0  0  0  0  0  0  0  0  0
   59.5280   26.9850   47.7680 C   0  0  0  0  0  0  0  0  0  0  0  0
   59.6920   28.1780   48.6630 C   0  0  0  0  0  0  0  0  0  0  0  0
   60.7350   28.2760   49.3640 O   0  0  0  0  0  0  0  0  0  0  0  0
   58.6340   29.1430   48.7940 N   0  0  0  0  0  0  0  0  0  0  0  0
   58.8140   30.4720   49.3240 C   0  0  0  0  0  0  0  0  0  0  0  0
   58.2700   30.8260   50.5750 C   0  0  0  0  0  0  0  0  0  0  0  0
   58.4290   32.1170   51.0820 C   0  0  0  0  0  0  0  0  0  0  0  0
   59.1390   33.0720   50.3550 C   0  0  0  0  0  0  0  0  0  0  0  0
   59.7100   32.7310   49.1290 C   0  0  0  0  0  0  0  0  0  0  0  0
   59.5760   31.4330   48.6180 C   0  0  0  0  0  0  0  0  0  0  0  0
   60.3860   31.0450   47.0570 S   0  0  0  0  0  0  0  0  0  0  0  0
   61.8580   31.9850   47.4690 C   0  0  0  0  0  0  0  0  0  0  0  0
   62.6760   31.5730   48.5300 C   0  0  0  0  0  0  0  0  0  0  0  0
   63.8240   32.3040   48.8530 C   0  0  0  0  0  0  0  0  0  0  0  0
   64.1560   33.4480   48.1230 C   0  0  0  0  0  0  0  0  0  0  0  0
   63.3400   33.8620   47.0670 C   0  0  0  0  0  0  0  0  0  0  0  0
   62.1880   33.1360   46.7480 C   0  0  0  0  0  0  0  0  0  0  0  0
   57.3910   31.6780   45.6380 C   0  0  0  0  0  0  0  0  0  0  0  0
   57.9770   32.9230   45.8900 C   0  0  0  0  0  0  0  0  0  0  0  0
   60.8511   35.6250   46.2951 H   0  0  0  0  0  0  0  0  0  0  0  0
   58.8721   33.7616   42.6981 H   0  0  0  0  0  0  0  0  0  0  0  0
   57.8274   31.5442   42.2530 H   0  0  0  0  0  0  0  0  0  0  0  0
   59.4059   27.9950   45.3241 H   0  0  0  0  0  0  0  0  0  0  0  0
   58.2653   29.2527   45.9085 H   0  0  0  0  0  0  0  0  0  0  0  0
   59.8852   26.0889   48.2965 H   0  0  0  0  0  0  0  0  0  0  0  0
   60.1124   27.1556   46.8518 H   0  0  0  0  0  0  0  0  0  0  0  0
   57.6780   28.8320   48.5140 H   0  0  0  0  0  0  0  0  0  0  0  0
   57.7142   30.0770   51.1582 H   0  0  0  0  0  0  0  0  0  0  0  0
   57.9934   32.3814   52.0568 H   0  0  0  0  0  0  0  0  0  0  0  0
   59.2486   34.0935   50.7481 H   0  0  0  0  0  0  0  0  0  0  0  0
   60.2699   33.4868   48.5587 H   0  0  0  0  0  0  0  0  0  0  0  0
   62.4151   30.6747   49.1087 H   0  0  0  0  0  0  0  0  0  0  0  0
   64.4669   31.9774   49.6837 H   0  0  0  0  0  0  0  0  0  0  0  0
   65.0586   34.0221   48.3792 H   0  0  0  0  0  0  0  0  0  0  0  0
   63.6036   34.7586   46.4868 H   0  0  0  0  0  0  0  0  0  0  0  0
   61.5388   33.4723   45.9261 H   0  0  0  0  0  0  0  0  0  0  0  0
   56.9886   31.0828   46.4710 H   0  0  0  0  0  0  0  0  0  0  0  0
   58.0356   33.2998   46.9218 H   0  0  0  0  0  0  0  0  0  0  0  0
  1  2  2  0
  2  3  1  0
  3  4  1  0
  4  5  2  0
  5  6  1  0
  6  7  2  0
  7  8  1  0
  8  9  2  0
  8 10  2  0
  8 11  1  0
 11 12  1  0
 12 13  1  0
 13 14  2  0
 13 15  1  0
 15 16  1  0
 16 17  1  0
 17 18  2  0
 17 19  1  0
 19 20  1  0
 20 21  2  0
 21 22  1  0
 22 23  2  0
 23 24  1  0
 24 25  2  0
 25 26  1  0
 26 27  1  0
 27 28  2  0
 28 29  1  0
 29 30  2  0
 30 31  1  0
 31 32  2  0
  7 33  1  0
 33 34  2  0
 34  4  1  0
 25 20  1  0
 32 27  1  0
  2 35  1  0
  5 36  1  0
  6 37  1  0
 12 38  1  0
 12 39  1  0
 16 40  1  0
 16 41  1  0
 19 42  1  0
 21 43  1  0
 22 44  1  0
 23 45  1  0
 24 46  1  0
 28 47  1  0
 29 48  1  0
 30 49  1  0
 31 50  1  0
 32 51  1  0
 33 52  1  0
 34 53  1  0
M  CHG  2   3  -1  11  -1
M  END
>  <UniqueID>  (38) 
32

>  <SMILES>  (38) 
O=C[N-]c1ccc(S(=O)(=O)[N-]CC(=O)OCC(=O)Nc2ccccc2Sc2ccccc2)cc1

>  <Energy>  (38) 
48.25179177440625

>  <Genealogy>  (38) 
O=C[N-]c1ccc(S(=O)(=O)[N-]CC(=O)OCC(=O)Nc2ccccc2Sc2ccccc2)cc1 (protonated)
O=C[N-]c1ccc(S(=O)(=O)[N-]CC(=O)OCC(=O)Nc2ccccc2Sc2ccccc2)cc1 (3D coordinates assigned)
O=C[N-]c1ccc(S(=O)(=O)[N-]CC(=O)OCC(=O)Nc2ccccc2Sc2ccccc2)cc1 (optimized conformer: 48.25179177440625 kcal/mol)

>  <smiles>  (38) 
O=CNc1ccc(S(=O)(=O)NCC(=O)OCC(=O)Nc2ccccc2Sc2ccccc2)cc1

>  <score_type>  (38) 
oracle

>  <origin>  (38) 
adg

>  <m_score__min__energy>  (38) 
-10.970000000000001

>  <m_primary>  (38) 
energy

$$$$
38:0
     RDKit          3D

 43 44  0  0  0  0  0  0  0  0999 V2000
   61.6340   32.3120   49.5550 N   0  0  0  0  0  0  0  0  0  0  0  0
   60.8160   33.8190   49.3420 S   0  0  0  0  0  0  0  0  0  0  0  0
   59.9070   34.0510   50.5170 O   0  0  0  0  0  0  0  0  0  0  0  0
   61.8190   34.9360   49.2770 O   0  0  0  0  0  0  0  0  0  0  0  0
   59.8890   33.7740   47.8430 C   0  0  0  0  0  0  0  0  0  0  0  0
   59.9370   34.8640   46.9600 C   0  0  0  0  0  0  0  0  0  0  0  0
   59.1970   34.8450   45.7770 C   0  0  0  0  0  0  0  0  0  0  0  0
   58.4060   33.7380   45.4620 C   0  0  0  0  0  0  0  0  0  0  0  0
   58.3570   32.6440   46.3280 C   0  0  0  0  0  0  0  0  0  0  0  0
   59.1010   32.6450   47.5230 C   0  0  0  0  0  0  0  0  0  0  0  0
   59.0610   31.5330   48.4310 N   0  0  0  0  0  0  0  0  0  0  0  0
   59.7750   29.9740   48.1590 S   0  0  0  0  0  0  0  0  0  0  0  0
   59.5620   29.0830   49.3510 O   0  0  0  0  0  0  0  0  0  0  0  0
   61.2550   30.1470   47.9630 O   0  0  0  0  0  0  0  0  0  0  0  0
   59.0810   29.2690   46.7010 C   0  0  0  0  0  0  0  0  0  0  0  0
   59.8410   29.1550   45.5330 C   0  0  0  0  0  0  0  0  0  0  0  0
   59.3060   28.5230   44.4060 C   0  0  0  0  0  0  0  0  0  0  0  0
   58.0150   27.9950   44.4450 C   0  0  0  0  0  0  0  0  0  0  0  0
   57.2410   28.0980   45.6060 C   0  0  0  0  0  0  0  0  0  0  0  0
   55.9050   27.5720   45.5850 N   0  0  0  0  0  0  0  0  0  0  0  0
   55.4500   26.3060   46.0800 C   0  0  0  0  0  0  0  0  0  0  0  0
   54.3400   25.8660   45.6870 O   0  0  0  0  0  0  0  0  0  0  0  0
   56.2590   25.5200   46.9610 N   0  0  0  0  0  0  0  0  0  0  0  0
   57.4150   24.7630   46.4950 C   0  0  0  0  0  0  0  0  0  0  0  0
   56.9860   23.6580   45.5260 C   0  0  0  0  0  0  0  0  0  0  0  0
   57.0760   24.1120   44.0670 C   0  0  0  0  0  0  0  0  0  0  0  0
   56.2250   22.9560   43.0120 Cl  0  0  0  0  0  0  0  0  0  0  0  0
   57.7730   28.7640   46.7270 C   0  0  0  0  0  0  0  0  0  0  0  0
   60.9040   31.5670   49.5500 H   0  0  0  0  0  0  0  0  0  0  0  0
   60.5608   35.7372   47.2016 H   0  0  0  0  0  0  0  0  0  0  0  0
   59.2368   35.7040   45.0910 H   0  0  0  0  0  0  0  0  0  0  0  0
   57.8209   33.7280   44.5306 H   0  0  0  0  0  0  0  0  0  0  0  0
   57.7323   31.7748   46.0746 H   0  0  0  0  0  0  0  0  0  0  0  0
   60.8619   29.5633   45.5005 H   0  0  0  0  0  0  0  0  0  0  0  0
   59.9044   28.4419   43.4866 H   0  0  0  0  0  0  0  0  0  0  0  0
   57.6028   27.4942   43.5566 H   0  0  0  0  0  0  0  0  0  0  0  0
   58.1089   25.4443   45.9808 H   0  0  0  0  0  0  0  0  0  0  0  0
   57.9066   24.2997   47.3631 H   0  0  0  0  0  0  0  0  0  0  0  0
   57.6413   22.7861   45.6682 H   0  0  0  0  0  0  0  0  0  0  0  0
   55.9372   23.4048   45.7403 H   0  0  0  0  0  0  0  0  0  0  0  0
   56.6138   25.1051   43.9659 H   0  0  0  0  0  0  0  0  0  0  0  0
   58.1339   24.1593   43.7695 H   0  0  0  0  0  0  0  0  0  0  0  0
   57.1577   28.8891   47.6302 H   0  0  0  0  0  0  0  0  0  0  0  0
  1  2  1  0
  2  3  2  0
  2  4  2  0
  2  5  1  0
  5  6  2  0
  6  7  1  0
  7  8  2  0
  8  9  1  0
  9 10  2  0
 10 11  1  0
 11 12  1  0
 12 13  2  0
 12 14  2  0
 12 15  1  0
 15 16  2  0
 16 17  1  0
 17 18  2  0
 18 19  1  0
 19 20  1  0
 20 21  1  0
 21 22  2  0
 21 23  1  0
 23 24  1  0
 24 25  1  0
 25 26  1  0
 26 27  1  0
 19 28  2  0
 10  5  1  0
 28 15  1  0
  1 29  1  0
  6 30  1  0
  7 31  1  0
  8 32  1  0
  9 33  1  0
 16 34  1  0
 17 35  1  0
 18 36  1  0
 24 37  1  0
 24 38  1  0
 25 39  1  0
 25 40  1  0
 26 41  1  0
 26 42  1  0
 28 43  1  0
M  CHG  4   1  -1  11  -1  20  -1  23  -1
M  END
>  <UniqueID>  (39) 
33

>  <SMILES>  (39) 
[NH-]S(=O)(=O)c1ccccc1[N-]S(=O)(=O)c1cccc([N-]C(=O)[N-]CCCCl)c1

>  <Energy>  (39) 
42.37902846744339

>  <Genealogy>  (39) 
[NH-]S(=O)(=O)c1ccccc1[N-]S(=O)(=O)c1cccc([N-]C(=O)[N-]CCCCl)c1 (protonated)
[NH-]S(=O)(=O)c1ccccc1[N-]S(=O)(=O)c1cccc([N-]C(=O)[N-]CCCCl)c1 (3D coordinates assigned)
[NH-]S(=O)(=O)c1ccccc1[N-]S(=O)(=O)c1cccc([N-]C(=O)[N-]CCCCl)c1 (optimized conformer: 42.37902846744339 kcal/mol)

>  <smiles>  (39) 
NS(=O)(=O)c1ccccc1NS(=O)(=O)c1cccc(NC(=O)NCCCCl)c1

>  <score_type>  (39) 
oracle

>  <origin>  (39) 
adg

>  <m_score__min__energy>  (39) 
-14.26

>  <m_primary>  (39) 
energy

$$$$
39:0
     RDKit          3D

 54 57  0  0  0  0  0  0  0  0999 V2000
   58.6893   27.5946   45.2510 H   0  0  0  0  0  0  0  0  0  0  0  0
   57.7770   27.0600   45.5540 C   0  0  0  0  0  0  0  0  0  0  0  0
   57.6940   25.4550   46.0500 S   0  0  0  0  0  0  0  0  0  0  0  0
   56.0260   25.5110   46.2910 C   0  0  0  0  0  0  0  0  0  0  0  0
   55.2680   24.5310   46.6880 N   0  0  0  0  0  0  0  0  0  0  0  0
   54.7940   23.4390   45.8860 C   0  0  0  0  0  0  0  0  0  0  0  0
   53.6020   23.0590   46.0280 O   0  0  0  0  0  0  0  0  0  0  0  0
   55.6710   22.7160   44.9340 C   0  0  0  0  0  0  0  0  0  0  0  0
   55.6150   23.0690   43.5750 C   0  0  0  0  0  0  0  0  0  0  0  0
   54.9087   23.8437   43.2420 H   0  0  0  0  0  0  0  0  0  0  0  0
   56.4470   22.4460   42.6440 C   0  0  0  0  0  0  0  0  0  0  0  0
   56.3998   22.7363   41.5840 H   0  0  0  0  0  0  0  0  0  0  0  0
   57.3380   21.4560   43.0560 C   0  0  0  0  0  0  0  0  0  0  0  0
   58.0015   20.9750   42.3222 H   0  0  0  0  0  0  0  0  0  0  0  0
   57.3900   21.0740   44.3970 C   0  0  0  0  0  0  0  0  0  0  0  0
   58.0982   20.2943   44.7141 H   0  0  0  0  0  0  0  0  0  0  0  0
   56.5460   21.6760   45.3470 C   0  0  0  0  0  0  0  0  0  0  0  0
   56.6140   21.2010   46.7760 C   0  0  0  0  0  0  0  0  0  0  0  0
   56.4912   22.0587   47.4537 H   0  0  0  0  0  0  0  0  0  0  0  0
   55.8111   20.4716   46.9585 H   0  0  0  0  0  0  0  0  0  0  0  0
   57.5893   20.7261   46.9585 H   0  0  0  0  0  0  0  0  0  0  0  0
   55.5230   26.7240   45.9900 N   0  0  0  0  0  0  0  0  0  0  0  0
   56.4890   27.5970   45.5930 C   0  0  0  0  0  0  0  0  0  0  0  0
   56.2010   29.0030   45.2270 C   0  0  0  0  0  0  0  0  0  0  0  0
   55.1960   29.2470   44.5090 O   0  0  0  0  0  0  0  0  0  0  0  0
   57.0210   30.1090   45.6370 N   0  0  0  0  0  0  0  0  0  0  0  0
   58.1610   30.6980   44.9300 C   0  0  0  0  0  0  0  0  0  0  0  0
   58.0662   30.5176   43.8490 H   0  0  0  0  0  0  0  0  0  0  0  0
   58.1910   32.2440   45.1180 C   0  0  0  0  0  0  0  0  0  0  0  0
   58.2994   32.7125   44.1287 H   0  0  0  0  0  0  0  0  0  0  0  0
   57.2509   32.5268   45.6142 H   0  0  0  0  0  0  0  0  0  0  0  0
   59.3370   32.7320   46.0140 C   0  0  0  0  0  0  0  0  0  0  0  0
   60.2670   32.7684   45.4277 H   0  0  0  0  0  0  0  0  0  0  0  0
   59.0947   33.7354   46.3941 H   0  0  0  0  0  0  0  0  0  0  0  0
   59.5140   31.8180   47.1490 N   0  0  0  0  0  0  0  0  0  0  0  0
   59.3940   32.2920   48.5060 C   0  0  0  0  0  0  0  0  0  0  0  0
   60.1560   33.3850   48.9460 C   0  0  0  0  0  0  0  0  0  0  0  0
   60.8431   33.8884   48.2499 H   0  0  0  0  0  0  0  0  0  0  0  0
   60.0470   33.8370   50.2620 C   0  0  0  0  0  0  0  0  0  0  0  0
   60.6452   34.6971   50.5973 H   0  0  0  0  0  0  0  0  0  0  0  0
   59.1820   33.2020   51.1540 C   0  0  0  0  0  0  0  0  0  0  0  0
   59.0987   33.5668   52.1884 H   0  0  0  0  0  0  0  0  0  0  0  0
   58.4160   32.0980   50.7380 C   0  0  0  0  0  0  0  0  0  0  0  0
   57.5040   31.4150   51.6840 C   0  0  0  0  0  0  0  0  0  0  0  0
   56.9120   32.0650   52.5850 O   0  0  0  0  0  0  0  0  0  0  0  0
   57.2900   30.0450   51.5890 O   0  0  0  0  0  0  0  0  0  0  0  0
   58.5310   31.6480   49.4110 C   0  0  0  0  0  0  0  0  0  0  0  0
   57.9396   30.7828   49.0768 H   0  0  0  0  0  0  0  0  0  0  0  0
   59.7440   30.3890   46.8930 C   0  0  0  0  0  0  0  0  0  0  0  0
   60.7933   30.1493   47.1198 H   0  0  0  0  0  0  0  0  0  0  0  0
   59.0634   29.8090   47.5336 H   0  0  0  0  0  0  0  0  0  0  0  0
   59.4540   30.0270   45.4270 C   0  0  0  0  0  0  0  0  0  0  0  0
   60.2948   30.3625   44.8021 H   0  0  0  0  0  0  0  0  0  0  0  0
   59.3279   28.9365   45.3573 H   0  0  0  0  0  0  0  0  0  0  0  0
  1  2  1  0
  2  3  1  0
  3  4  1  0
  4  5  2  0
  5  6  1  0
  6  7  2  0
  6  8  1  0
  8  9  2  0
  9 10  1  0
  9 11  1  0
 11 12  1  0
 11 13  2  0
 13 14  1  0
 13 15  1  0
 15 16  1  0
 15 17  2  0
 17 18  1  0
 18 19  1  0
 18 20  1  0
 18 21  1  0
  4 22  1  0
 22 23  1  0
 23 24  1  0
 24 25  2  0
 24 26  1  0
 26 27  1  0
 27 28  1  0
 27 29  1  0
 29 30  1  0
 29 31  1  0
 29 32  1  0
 32 33  1  0
 32 34  1  0
 32 35  1  0
 35 36  1  0
 36 37  2  0
 37 38  1  0
 37 39  1  0
 39 40  1  0
 39 41  2  0
 41 42  1  0
 41 43  1  0
 43 44  1  0
 44 45  2  0
 44 46  1  0
 43 47  2  0
 47 48  1  0
 35 49  1  0
 49 50  1  0
 49 51  1  0
 49 52  1  0
 52 53  1  0
 52 54  1  0
 23  2  2  0
 52 27  1  0
 17  8  1  0
 47 36  1  0
M  CHG  3  22  -1  26  -1  46  -1
M  END
>  <UniqueID>  (40) 
34

>  <SMILES>  (40) 
Cc1ccccc1C(=O)/N=c1/[n-]c(C(=O)[N-]C2CCN(c3cccc(C(=O)[O-])c3)CC2)cs1

>  <Energy>  (40) 
105.36826907936654

>  <Genealogy>  (40) 
Cc1ccccc1C(=O)N=c1[n-]c(C(=O)[N-]C2CCN(c3cccc(C(=O)[O-])c3)CC2)cs1 (protonated)
Cc1ccccc1C(=O)/N=c1/[n-]c(C(=O)[N-]C2CCN(c3cccc(C(=O)[O-])c3)CC2)cs1 (cis-trans isomerization)
Cc1ccccc1C(=O)/N=c1/[n-]c(C(=O)[N-]C2CCN(c3cccc(C(=O)[O-])c3)CC2)cs1 (3D coordinates assigned)
Cc1ccccc1C(=O)/N=c1/[n-]c(C(=O)[N-]C2CCN(c3cccc(C(=O)[O-])c3)CC2)cs1 (nonaromatic ring conformer: 105.36826907936654 kcal/mol)

>  <smiles>  (40) 
Cc1ccccc1C(=O)N=c1[nH]c(C(=O)NC2CCN(c3cccc(C(=O)O)c3)CC2)cs1

>  <score_type>  (40) 
oracle

>  <origin>  (40) 
adg

>  <m_score__min__energy>  (40) 
-16.469999999999999

>  <m_primary>  (40) 
energy

$$$$
40:0
     RDKit          3D

 61 65  0  0  0  0  0  0  0  0999 V2000
   55.3278   30.7958   43.3055 H   0  0  0  0  0  0  0  0  0  0  0  0
   55.9410   30.2770   44.0570 C   0  0  0  0  0  0  0  0  0  0  0  0
   55.6490   28.9970   44.4050 N   0  0  0  0  0  0  0  0  0  0  0  0
   56.3950   28.3350   45.3290 C   0  0  0  0  0  0  0  0  0  0  0  0
   56.0920   27.1070   45.6300 N   0  0  0  0  0  0  0  0  0  0  0  0
   57.0410   26.0970   46.1140 C   0  0  1  0  0  0  0  0  0  0  0  0
   57.8191   26.5903   46.7150 H   0  0  0  0  0  0  0  0  0  0  0  0
   56.3000   25.0720   47.0080 C   0  0  0  0  0  0  0  0  0  0  0  0
   56.9764   24.7681   47.8205 H   0  0  0  0  0  0  0  0  0  0  0  0
   55.3916   25.5693   47.3789 H   0  0  0  0  0  0  0  0  0  0  0  0
   55.8420   23.8040   46.2570 C   0  0  0  0  0  0  0  0  0  0  0  0
   56.6515   23.0599   46.2880 H   0  0  0  0  0  0  0  0  0  0  0  0
   54.9356   23.4231   46.7504 H   0  0  0  0  0  0  0  0  0  0  0  0
   55.4970   24.1030   44.7890 C   0  0  2  0  0  0  0  0  0  0  0  0
   54.7073   24.8686   44.7734 H   0  0  0  0  0  0  0  0  0  0  0  0
   55.0250   22.8810   44.1290 N   0  0  0  0  0  0  0  0  0  0  0  0
   56.3520   21.9100   43.5620 S   0  0  0  0  0  0  0  0  0  0  0  0
   56.8780   22.4650   42.2700 O   0  0  0  0  0  0  0  0  0  0  0  0
   55.9040   20.4910   43.3560 O   0  0  0  0  0  0  0  0  0  0  0  0
   57.6460   21.9410   44.7790 C   0  0  0  0  0  0  0  0  0  0  0  0
   57.2029   21.9304   45.7857 H   0  0  0  0  0  0  0  0  0  0  0  0
   58.2897   21.0580   44.6524 H   0  0  0  0  0  0  0  0  0  0  0  0
   58.2466   22.8538   44.6524 H   0  0  0  0  0  0  0  0  0  0  0  0
   56.7330   24.6410   44.0290 C   0  0  0  0  0  0  0  0  0  0  0  0
   57.2549   23.7896   43.5679 H   0  0  0  0  0  0  0  0  0  0  0  0
   56.3639   25.3606   43.2834 H   0  0  0  0  0  0  0  0  0  0  0  0
   57.7340   25.3970   44.9290 C   0  0  0  0  0  0  0  0  0  0  0  0
   58.4683   24.6788   45.3226 H   0  0  0  0  0  0  0  0  0  0  0  0
   58.2186   26.1718   44.3168 H   0  0  0  0  0  0  0  0  0  0  0  0
   57.4470   28.9650   45.9220 N   0  0  0  0  0  0  0  0  0  0  0  0
   57.7670   30.2520   45.6190 C   0  0  0  0  0  0  0  0  0  0  0  0
   58.9030   30.8640   46.2460 N   0  0  0  0  0  0  0  0  0  0  0  0
   59.9680   30.1960   46.7510 C   0  0  0  0  0  0  0  0  0  0  0  0
   60.0796   29.1017   46.7471 H   0  0  0  0  0  0  0  0  0  0  0  0
   60.8990   31.0830   47.2740 C   0  0  0  0  0  0  0  0  0  0  0  0
   61.8673   30.8375   47.7346 H   0  0  0  0  0  0  0  0  0  0  0  0
   60.3530   32.3390   47.0940 C   0  0  0  0  0  0  0  0  0  0  0  0
   60.8340   33.6030   47.4480 C   0  0  0  0  0  0  0  0  0  0  0  0
   62.0940   33.7730   48.1100 N   0  0  0  0  0  0  0  0  0  0  0  0
   63.3070   33.2530   47.4710 C   0  0  0  0  0  0  0  0  0  0  0  0
   63.1649   32.1871   47.2393 H   0  0  0  0  0  0  0  0  0  0  0  0
   63.4931   33.8217   46.5480 H   0  0  0  0  0  0  0  0  0  0  0  0
   64.5110   33.4090   48.3960 C   0  0  0  0  0  0  0  0  0  0  0  0
   65.3202   32.7431   48.0617 H   0  0  0  0  0  0  0  0  0  0  0  0
   64.8631   34.4508   48.3708 H   0  0  0  0  0  0  0  0  0  0  0  0
   64.1340   33.0690   49.7110 O   0  0  0  0  0  0  0  0  0  0  0  0
   63.3470   34.1050   50.2650 C   0  0  0  0  0  0  0  0  0  0  0  0
   62.9644   33.7679   51.2396 H   0  0  0  0  0  0  0  0  0  0  0  0
   63.9943   34.9900   50.3533 H   0  0  0  0  0  0  0  0  0  0  0  0
   62.1380   34.5110   49.3760 C   0  0  0  0  0  0  0  0  0  0  0  0
   61.2099   34.3120   49.9318 H   0  0  0  0  0  0  0  0  0  0  0  0
   62.2465   35.5787   49.1347 H   0  0  0  0  0  0  0  0  0  0  0  0
   60.0330   34.7200   47.1440 C   0  0  0  0  0  0  0  0  0  0  0  0
   60.3888   35.7309   47.3919 H   0  0  0  0  0  0  0  0  0  0  0  0
   58.7780   34.5520   46.5240 C   0  0  0  0  0  0  0  0  0  0  0  0
   58.1574   35.4325   46.3012 H   0  0  0  0  0  0  0  0  0  0  0  0
   58.3130   33.2680   46.1880 C   0  0  0  0  0  0  0  0  0  0  0  0
   57.3273   33.1269   45.7207 H   0  0  0  0  0  0  0  0  0  0  0  0
   59.1420   32.1750   46.4660 C   0  0  0  0  0  0  0  0  0  0  0  0
   57.0180   30.9340   44.6520 C   0  0  0  0  0  0  0  0  0  0  0  0
   57.2735   31.9655   44.3678 H   0  0  0  0  0  0  0  0  0  0  0  0
  1  2  1  0
  2  3  1  0
  3  4  1  0
  4  5  2  0
  5  6  1  0
  6  7  1  1
  6  8  1  0
  8  9  1  0
  8 10  1  0
  8 11  1  0
 11 12  1  0
 11 13  1  0
 11 14  1  0
 14 15  1  1
 14 16  1  0
 16 17  1  0
 17 18  2  0
 17 19  2  0
 17 20  1  0
 20 21  1  0
 20 22  1  0
 20 23  1  0
 14 24  1  0
 24 25  1  0
 24 26  1  0
 24 27  1  0
 27 28  1  0
 27 29  1  0
  4 30  1  0
 30 31  2  0
 31 32  1  0
 32 33  1  0
 33 34  1  0
 33 35  2  0
 35 36  1  0
 35 37  1  0
 37 38  2  0
 38 39  1  0
 39 40  1  0
 40 41  1  0
 40 42  1  0
 40 43  1  0
 43 44  1  0
 43 45  1  0
 43 46  1  0
 46 47  1  0
 47 48  1  0
 47 49  1  0
 47 50  1  0
 50 51  1  0
 50 52  1  0
 38 53  1  0
 53 54  1  0
 53 55  2  0
 55 56  1  0
 55 57  1  0
 57 58  1  0
 57 59  2  0
 31 60  1  0
 60 61  1  0
 60  2  2  0
 27  6  1  0
 59 32  1  0
 59 37  1  0
 50 39  1  0
M  CHG  2   3  -1  16  -1
M  END
>  <UniqueID>  (41) 
35

>  <SMILES>  (41) 
CS(=O)(=O)[N-]C1CCC(/N=c2\nc(-n3ccc4c(N5CCOCC5)cccc43)cc[n-]2)CC1

>  <Energy>  (41) 
113.5914499967767

>  <Genealogy>  (41) 
CS(=O)(=O)[N-]C1CCC(N=c2nc(-n3ccc4c(N5CCOCC5)cccc43)cc[n-]2)CC1 (protonated)
CS(=O)(=O)[N-]C1CCC(/N=c2\nc(-n3ccc4c(N5CCOCC5)cccc43)cc[n-]2)CC1 (cis-trans isomerization)
CS(=O)(=O)[N-]C1CCC(/N=c2\nc(-n3ccc4c(N5CCOCC5)cccc43)cc[n-]2)CC1 (3D coordinates assigned)
CS(=O)(=O)[N-]C1CCC(/N=c2\nc(-n3ccc4c(N5CCOCC5)cccc43)cc[n-]2)CC1 (nonaromatic ring conformer: 113.5914499967767 kcal/mol)

>  <smiles>  (41) 
CS(=O)(=O)NC1CCC(N=c2nc(-n3ccc4c(N5CCOCC5)cccc43)cc[nH]2)CC1

>  <score_type>  (41) 
oracle

>  <origin>  (41) 
adg

>  <m_score__min__energy>  (41) 
-13.32

>  <m_primary>  (41) 
energy

$$$$
41:0
     RDKit          3D

 36 38  0  0  0  0  0  0  0  0999 V2000
   54.3532   32.1260   53.0013 H   0  0  0  0  0  0  0  0  0  0  0  0
   54.9440   31.2180   52.8100 C   0  0  0  0  0  0  0  0  0  0  0  0
   56.1310   31.2410   52.1480 N   0  0  0  0  0  0  0  0  0  0  0  0
   56.6540   29.9990   52.0230 C   0  0  0  0  0  0  0  0  0  0  0  0
   57.7930   29.7370   51.4580 N   0  0  0  0  0  0  0  0  0  0  0  0
   58.3650   30.4340   50.3410 C   0  0  0  0  0  0  0  0  0  0  0  0
   59.1530   29.8120   49.5790 O   0  0  0  0  0  0  0  0  0  0  0  0
   57.9860   31.7860   50.0320 N   0  0  0  0  0  0  0  0  0  0  0  0
   57.0230   32.0930   50.2950 H   0  0  0  0  0  0  0  0  0  0  0  0
   58.7890   32.6800   49.2420 C   0  0  0  0  0  0  0  0  0  0  0  0
   59.9740   33.2030   49.7850 C   0  0  0  0  0  0  0  0  0  0  0  0
   60.2681   32.9393   50.8116 H   0  0  0  0  0  0  0  0  0  0  0  0
   60.7820   34.0570   49.0280 C   0  0  0  0  0  0  0  0  0  0  0  0
   61.7029   34.4713   49.4643 H   0  0  0  0  0  0  0  0  0  0  0  0
   60.4220   34.3850   47.7190 C   0  0  0  0  0  0  0  0  0  0  0  0
   61.0564   35.0616   47.1276 H   0  0  0  0  0  0  0  0  0  0  0  0
   59.2560   33.8540   47.1600 C   0  0  0  0  0  0  0  0  0  0  0  0
   58.8170   34.2500   45.5090 Cl  0  0  0  0  0  0  0  0  0  0  0  0
   58.4440   32.9990   47.9150 C   0  0  0  0  0  0  0  0  0  0  0  0
   57.5323   32.5746   47.4692 H   0  0  0  0  0  0  0  0  0  0  0  0
   55.6820   28.8250   52.7320 S   0  0  0  0  0  0  0  0  0  0  0  0
   54.5360   29.9560   53.2260 C   0  0  0  0  0  0  0  0  0  0  0  0
   53.2440   29.6340   53.9080 C   0  0  0  0  0  0  0  0  0  0  0  0
   52.9263   28.6194   53.6256 H   0  0  0  0  0  0  0  0  0  0  0  0
   53.3873   29.6913   54.9971 H   0  0  0  0  0  0  0  0  0  0  0  0
   52.1850   30.6190   53.4980 C   0  0  0  0  0  0  0  0  0  0  0  0
   51.3470   31.2030   54.4650 C   0  0  0  0  0  0  0  0  0  0  0  0
   51.4467   30.9159   55.5222 H   0  0  0  0  0  0  0  0  0  0  0  0
   50.3880   32.1470   54.0870 C   0  0  0  0  0  0  0  0  0  0  0  0
   49.7304   32.5957   54.8461 H   0  0  0  0  0  0  0  0  0  0  0  0
   50.2630   32.5220   52.7460 C   0  0  0  0  0  0  0  0  0  0  0  0
   49.5044   33.2618   52.4505 H   0  0  0  0  0  0  0  0  0  0  0  0
   51.1020   31.9570   51.7800 C   0  0  0  0  0  0  0  0  0  0  0  0
   50.9820   32.3360   50.4490 O   0  0  0  0  0  0  0  0  0  0  0  0
   52.0630   31.0110   52.1550 C   0  0  0  0  0  0  0  0  0  0  0  0
   52.7257   30.5726   51.3943 H   0  0  0  0  0  0  0  0  0  0  0  0
  1  2  1  0
  2  3  1  0
  3  4  1  0
  4  5  2  0
  5  6  1  0
  6  7  2  0
  6  8  1  0
  8  9  1  0
  8 10  1  0
 10 11  2  0
 11 12  1  0
 11 13  1  0
 13 14  1  0
 13 15  2  0
 15 16  1  0
 15 17  1  0
 17 18  1  0
 17 19  2  0
 19 20  1  0
  4 21  1  0
 21 22  1  0
 22 23  1  0
 23 24  1  0
 23 25  1  0
 23 26  1  0
 26 27  2  0
 27 28  1  0
 27 29  1  0
 29 30  1  0
 29 31  2  0
 31 32  1  0
 31 33  1  0
 33 34  1  0
 33 35  2  0
 35 36  1  0
 22  2  2  0
 35 26  1  0
 19 10  1  0
M  CHG  2   3  -1  34  -1
M  END
>  <UniqueID>  (42) 
36

>  <SMILES>  (42) 
O=C(/N=c1\[n-]cc(Cc2cccc([O-])c2)s1)Nc1cccc(Cl)c1

>  <Energy>  (42) 
73.58512489874045

>  <Genealogy>  (42) 
O=C(N=c1[n-]cc(Cc2cccc([O-])c2)s1)Nc1cccc(Cl)c1 (protonated)
O=C(/N=c1\[n-]cc(Cc2cccc([O-])c2)s1)Nc1cccc(Cl)c1 (cis-trans isomerization)
O=C(/N=c1\[n-]cc(Cc2cccc([O-])c2)s1)Nc1cccc(Cl)c1 (3D coordinates assigned)
O=C(/N=c1\[n-]cc(Cc2cccc([O-])c2)s1)Nc1cccc(Cl)c1 (optimized conformer: 73.58512489874045 kcal/mol)

>  <smiles>  (42) 
O=C(N=c1[nH]cc(Cc2cccc(O)c2)s1)Nc1cccc(Cl)c1

>  <score_type>  (42) 
oracle

>  <origin>  (42) 
adg

>  <m_score__min__energy>  (42) 
-13.19

>  <m_primary>  (42) 
energy

$$$$
42:0
     RDKit          3D

 72 76  0  0  0  0  0  0  0  0999 V2000
   63.2460   34.1710   51.8970 C   0  0  0  0  0  0  0  0  0  0  0  0
   62.2430   33.2550   51.4670 O   0  0  0  0  0  0  0  0  0  0  0  0
   60.8940   33.3070   51.8660 C   0  0  0  0  0  0  0  0  0  0  0  0
   60.5130   33.2990   53.2240 C   0  0  0  0  0  0  0  0  0  0  0  0
   59.1590   33.3670   53.5830 C   0  0  0  0  0  0  0  0  0  0  0  0
   58.1750   33.4490   52.5960 C   0  0  0  0  0  0  0  0  0  0  0  0
   58.5410   33.4610   51.2470 C   0  0  0  0  0  0  0  0  0  0  0  0
   59.8950   33.3830   50.8750 C   0  0  0  0  0  0  0  0  0  0  0  0
   60.2490   33.3530   49.4830 N   0  0  0  0  0  0  0  0  0  0  0  0
   61.1890   32.3250   49.0080 C   0  0  0  0  0  0  0  0  0  0  0  0
   61.0090   32.0710   47.5060 C   0  0  0  0  0  0  0  0  0  0  0  0
   59.5750   32.0430   47.1880 N   0  0  0  0  0  0  0  0  0  0  0  0
   58.9250   30.7750   46.9640 C   0  0  0  0  0  0  0  0  0  0  0  0
   58.6270   30.4040   45.6870 N   0  0  0  0  0  0  0  0  0  0  0  0
   58.1110   29.1840   45.3830 C   0  0  0  0  0  0  0  0  0  0  0  0
   57.8850   28.2470   46.3960 C   0  0  0  0  0  0  0  0  0  0  0  0
   57.2400   26.6540   46.0100 S   0  0  0  0  0  0  0  0  0  0  0  0
   55.5140   26.6950   46.1020 N   0  0  0  0  0  0  0  0  0  0  0  0
   57.6610   26.2540   44.6230 O   0  0  0  0  0  0  0  0  0  0  0  0
   57.7720   25.6410   46.9850 O   0  0  0  0  0  0  0  0  0  0  0  0
   58.1550   28.6030   47.7200 C   0  0  0  0  0  0  0  0  0  0  0  0
   58.6700   29.8720   48.0210 C   0  0  0  0  0  0  0  0  0  0  0  0
   58.8900   30.2450   49.4310 C   0  0  0  0  0  0  0  0  0  0  0  0
   58.4990   31.3790   49.8260 O   0  0  0  0  0  0  0  0  0  0  0  0
   59.5450   29.3440   50.3500 N   0  0  0  0  0  0  0  0  0  0  0  0
   59.5790   29.6360   51.7860 C   0  0  0  0  0  0  0  0  0  0  0  0
   61.0030   30.0600   52.1980 C   0  0  0  0  0  0  0  0  0  0  0  0
   62.0270   29.6260   51.2100 N   0  0  0  0  0  0  0  0  0  0  0  0
   63.3890   29.7160   51.7730 C   0  0  0  0  0  0  0  0  0  0  0  0
   64.1700   30.7880   51.0600 C   0  0  0  0  0  0  0  0  0  0  0  0
   63.7230   31.2660   49.8170 C   0  0  0  0  0  0  0  0  0  0  0  0
   64.4130   32.2920   49.1660 C   0  0  0  0  0  0  0  0  0  0  0  0
   65.5510   32.8510   49.7530 C   0  0  0  0  0  0  0  0  0  0  0  0
   66.0010   32.3810   50.9930 C   0  0  0  0  0  0  0  0  0  0  0  0
   65.3130   31.3550   51.6480 C   0  0  0  0  0  0  0  0  0  0  0  0
   61.7420   28.2650   50.7120 C   0  0  0  0  0  0  0  0  0  0  0  0
   60.4570   28.2940   49.8640 C   0  0  0  0  0  0  0  0  0  0  0  0
   58.7530   33.2220   47.5300 C   0  0  0  0  0  0  0  0  0  0  0  0
   59.4850   34.1490   48.5130 C   0  0  0  0  0  0  0  0  0  0  0  0
   63.2730   34.1957   52.9964 H   0  0  0  0  0  0  0  0  0  0  0  0
   64.2254   33.8491   51.5133 H   0  0  0  0  0  0  0  0  0  0  0  0
   63.0140   35.1755   51.5133 H   0  0  0  0  0  0  0  0  0  0  0  0
   61.2833   33.2390   54.0070 H   0  0  0  0  0  0  0  0  0  0  0  0
   58.8716   33.3557   54.6447 H   0  0  0  0  0  0  0  0  0  0  0  0
   57.1136   33.5041   52.8794 H   0  0  0  0  0  0  0  0  0  0  0  0
   57.7646   33.5319   50.4710 H   0  0  0  0  0  0  0  0  0  0  0  0
   62.2185   32.6643   49.1951 H   0  0  0  0  0  0  0  0  0  0  0  0
   60.9888   31.3886   49.5493 H   0  0  0  0  0  0  0  0  0  0  0  0
   61.4964   32.8757   46.9360 H   0  0  0  0  0  0  0  0  0  0  0  0
   61.4654   31.1069   47.2375 H   0  0  0  0  0  0  0  0  0  0  0  0
   57.8709   28.9335   44.3392 H   0  0  0  0  0  0  0  0  0  0  0  0
   55.1710   27.1000   45.2010 H   0  0  0  0  0  0  0  0  0  0  0  0
   57.9626   27.8842   48.5301 H   0  0  0  0  0  0  0  0  0  0  0  0
   58.8758   30.4517   52.0097 H   0  0  0  0  0  0  0  0  0  0  0  0
   59.2912   28.7348   52.3473 H   0  0  0  0  0  0  0  0  0  0  0  0
   61.0354   31.1562   52.2833 H   0  0  0  0  0  0  0  0  0  0  0  0
   61.2345   29.5765   53.1585 H   0  0  0  0  0  0  0  0  0  0  0  0
   63.3255   29.9621   52.8432 H   0  0  0  0  0  0  0  0  0  0  0  0
   63.8987   28.7500   51.6425 H   0  0  0  0  0  0  0  0  0  0  0  0
   62.8253   30.8305   49.3538 H   0  0  0  0  0  0  0  0  0  0  0  0
   64.0601   32.6597   48.1912 H   0  0  0  0  0  0  0  0  0  0  0  0
   66.0932   33.6599   49.2414 H   0  0  0  0  0  0  0  0  0  0  0  0
   66.8984   32.8203   51.4531 H   0  0  0  0  0  0  0  0  0  0  0  0
   65.6669   30.9916   52.6241 H   0  0  0  0  0  0  0  0  0  0  0  0
   62.5825   27.9159   50.0942 H   0  0  0  0  0  0  0  0  0  0  0  0
   61.6074   27.5811   51.5630 H   0  0  0  0  0  0  0  0  0  0  0  0
   60.7192   28.4984   48.8154 H   0  0  0  0  0  0  0  0  0  0  0  0
   59.9541   27.3190   49.9445 H   0  0  0  0  0  0  0  0  0  0  0  0
   58.5289   33.7813   46.6097 H   0  0  0  0  0  0  0  0  0  0  0  0
   57.8267   32.8715   48.0087 H   0  0  0  0  0  0  0  0  0  0  0  0
   60.1731   34.8009   47.9548 H   0  0  0  0  0  0  0  0  0  0  0  0
   58.7452   34.7597   49.0512 H   0  0  0  0  0  0  0  0  0  0  0  0
  1  2  1  0
  2  3  1  0
  3  4  2  0
  4  5  1  0
  5  6  2  0
  6  7  1  0
  7  8  2  0
  8  9  1  0
  9 10  1  0
 10 11  1  0
 11 12  1  0
 12 13  1  0
 13 14  2  0
 14 15  1  0
 15 16  2  0
 16 17  1  0
 17 18  1  0
 17 19  2  0
 17 20  2  0
 16 21  1  0
 21 22  2  0
 22 23  1  0
 23 24  2  0
 23 25  1  0
 25 26  1  0
 26 27  1  0
 27 28  1  0
 28 29  1  0
 29 30  1  0
 30 31  2  0
 31 32  1  0
 32 33  2  0
 33 34  1  0
 34 35  2  0
 28 36  1  0
 36 37  1  0
 12 38  1  0
 38 39  1  0
  8  3  1  0
 39  9  1  0
 22 13  1  0
 37 25  1  0
 35 30  1  0
  1 40  1  0
  1 41  1  0
  1 42  1  0
  4 43  1  0
  5 44  1  0
  6 45  1  0
  7 46  1  0
 10 47  1  0
 10 48  1  0
 11 49  1  0
 11 50  1  0
 15 51  1  0
 18 52  1  0
 21 53  1  0
 26 54  1  0
 26 55  1  0
 27 56  1  0
 27 57  1  0
 29 58  1  0
 29 59  1  0
 31 60  1  0
 32 61  1  0
 33 62  1  0
 34 63  1  0
 35 64  1  0
 36 65  1  0
 36 66  1  0
 37 67  1  0
 37 68  1  0
 38 69  1  0
 38 70  1  0
 39 71  1  0
 39 72  1  0
M  CHG  1  18  -1
M  END
>  <UniqueID>  (43) 
37

>  <SMILES>  (43) 
COc1ccccc1N1CCN(c2ncc(S([NH-])(=O)=O)cc2C(=O)N2CCN(Cc3ccccc3)CC2)CC1

>  <Energy>  (43) 
98.08995797250404

>  <Genealogy>  (43) 
COc1ccccc1N1CCN(c2ncc(S([NH-])(=O)=O)cc2C(=O)N2CCN(Cc3ccccc3)CC2)CC1 (protonated)
COc1ccccc1N1CCN(c2ncc(S([NH-])(=O)=O)cc2C(=O)N2CCN(Cc3ccccc3)CC2)CC1 (3D coordinates assigned)
COc1ccccc1N1CCN(c2ncc(S([NH-])(=O)=O)cc2C(=O)N2CCN(Cc3ccccc3)CC2)CC1 (nonaromatic ring conformer: 98.08995797250404 kcal/mol)

>  <smiles>  (43) 
COc1ccccc1N1CCN(c2ncc(S(N)(=O)=O)cc2C(=O)N2CCN(Cc3ccccc3)CC2)CC1

>  <score_type>  (43) 
oracle

>  <origin>  (43) 
adg

>  <m_score__min__energy>  (43) 
-10.880000000000001

>  <m_primary>  (43) 
energy

$$$$
43:0
     RDKit          3D

 22 23  0  0  0  0  0  0  0  0999 V2000
   55.1420   27.4660   45.4680 H   0  0  0  0  0  0  0  0  0  0  0  0
   54.9560   26.6250   45.9960 O   0  0  0  0  0  0  0  0  0  0  0  0
   55.9560   25.7360   46.3860 C   0  0  0  0  0  0  0  0  0  0  0  0
   55.6960   24.6280   47.1000 N   0  0  0  0  0  0  0  0  0  0  0  0
   56.9140   24.0720   47.2590 C   0  0  0  0  0  0  0  0  0  0  0  0
   57.0930   22.9970   47.8880 O   0  0  0  0  0  0  0  0  0  0  0  0
   57.9250   24.7590   46.6900 N   0  0  0  0  0  0  0  0  0  0  0  0
   57.3170   25.8220   46.1320 C   0  0  0  0  0  0  0  0  0  0  0  0
   58.0640   26.8520   45.3900 C   0  0  0  0  0  0  0  0  0  0  0  0
   59.1628   26.8620   45.4404 H   0  0  0  0  0  0  0  0  0  0  0  0
   57.4520   27.7480   44.6780 N   0  0  0  0  0  0  0  0  0  0  0  0
   57.6100   29.1740   44.7720 C   0  0  0  0  0  0  0  0  0  0  0  0
   58.7880   29.7820   45.2580 C   0  0  0  0  0  0  0  0  0  0  0  0
   59.6364   29.1576   45.5748 H   0  0  0  0  0  0  0  0  0  0  0  0
   58.8800   31.1750   45.3380 C   0  0  0  0  0  0  0  0  0  0  0  0
   59.8030   31.6427   45.7112 H   0  0  0  0  0  0  0  0  0  0  0  0
   57.8050   31.9740   44.9460 C   0  0  0  0  0  0  0  0  0  0  0  0
   57.8832   33.0696   45.0056 H   0  0  0  0  0  0  0  0  0  0  0  0
   56.6300   31.3820   44.4780 C   0  0  0  0  0  0  0  0  0  0  0  0
   55.7813   32.0123   44.1740 H   0  0  0  0  0  0  0  0  0  0  0  0
   56.5300   29.9890   44.3950 C   0  0  0  0  0  0  0  0  0  0  0  0
   55.3810   29.4290   43.9400 F   0  0  0  0  0  0  0  0  0  0  0  0
  1  2  1  0
  2  3  1  0
  3  4  1  0
  4  5  1  0
  5  6  2  0
  5  7  1  0
  7  8  1  0
  8  9  1  0
  9 10  1  0
  9 11  2  0
 11 12  1  0
 12 13  2  0
 13 14  1  0
 13 15  1  0
 15 16  1  0
 15 17  2  0
 17 18  1  0
 17 19  1  0
 19 20  1  0
 19 21  2  0
 21 22  1  0
  8  3  2  0
 21 12  1  0
M  CHG  2   4  -1   7  -1
M  END
>  <UniqueID>  (44) 
38

>  <SMILES>  (44) 
O=c1[n-]c(O)c(/C=N/c2ccccc2F)[n-]1

>  <Energy>  (44) 
55.2630835622842

>  <Genealogy>  (44) 
O=c1[n-]c(O)c(C=Nc2ccccc2F)[n-]1 (protonated)
O=c1[n-]c(O)c(/C=N/c2ccccc2F)[n-]1 (cis-trans isomerization)
O=c1[n-]c(O)c(/C=N/c2ccccc2F)[n-]1 (3D coordinates assigned)
O=c1[n-]c(O)c(/C=N/c2ccccc2F)[n-]1 (optimized conformer: 55.2630835622842 kcal/mol)

>  <smiles>  (44) 
O=c1[nH]c(O)c(C=Nc2ccccc2F)[nH]1

>  <score_type>  (44) 
oracle

>  <origin>  (44) 
adg

>  <m_score__min__energy>  (44) 
-10.33

>  <m_primary>  (44) 
energy

$$$$
44:0
     RDKit          3D

 47 48  0  0  0  0  0  0  0  0999 V2000
   63.1870   33.0680   47.9820 C   0  0  0  0  0  0  0  0  0  0  0  0
   62.3900   33.4140   46.7290 C   0  0  0  0  0  0  0  0  0  0  0  0
   61.2970   34.2740   47.0480 O   0  0  0  0  0  0  0  0  0  0  0  0
   59.9790   34.1390   46.5780 C   0  0  0  0  0  0  0  0  0  0  0  0
   59.5860   34.6010   45.3040 C   0  0  0  0  0  0  0  0  0  0  0  0
   58.2610   34.4690   44.8810 C   0  0  0  0  0  0  0  0  0  0  0  0
   57.3130   33.8840   45.7190 C   0  0  0  0  0  0  0  0  0  0  0  0
   57.6860   33.4230   46.9820 C   0  0  0  0  0  0  0  0  0  0  0  0
   59.0180   33.5340   47.4160 C   0  0  0  0  0  0  0  0  0  0  0  0
   59.3930   33.0510   48.7950 C   0  0  0  0  0  0  0  0  0  0  0  0
   59.5230   31.5940   48.8140 N   0  0  0  0  0  0  0  0  0  0  0  0
   58.7950   30.7900   49.7500 C   0  0  0  0  0  0  0  0  0  0  0  0
   57.9280   31.3160   50.5000 O   0  0  0  0  0  0  0  0  0  0  0  0
   59.0570   29.3150   49.8460 C   0  0  0  0  0  0  0  0  0  0  0  0
   60.4390   28.9420   49.3050 C   0  0  0  0  0  0  0  0  0  0  0  0
   60.3590   28.5600   47.8950 N   0  0  0  0  0  0  0  0  0  0  0  0
   60.1720   29.4610   46.7960 C   0  0  0  0  0  0  0  0  0  0  0  0
   61.1340   30.1970   46.4510 O   0  0  0  0  0  0  0  0  0  0  0  0
   58.9050   29.5210   46.0310 C   0  0  0  0  0  0  0  0  0  0  0  0
   58.7300   30.4750   45.0210 C   0  0  0  0  0  0  0  0  0  0  0  0
   57.5600   30.5440   44.3180 N   0  0  0  0  0  0  0  0  0  0  0  0
   57.4020   31.5610   43.2700 C   0  0  0  0  0  0  0  0  0  0  0  0
   56.5260   29.7050   44.6340 C   0  0  0  0  0  0  0  0  0  0  0  0
   55.4310   29.7700   44.0120 O   0  0  0  0  0  0  0  0  0  0  0  0
   56.6660   28.7930   45.6290 N   0  0  0  0  0  0  0  0  0  0  0  0
   57.8210   28.6830   46.3330 C   0  0  0  0  0  0  0  0  0  0  0  0
   57.9020   27.8240   47.2500 O   0  0  0  0  0  0  0  0  0  0  0  0
   62.5969   33.3242   48.8743 H   0  0  0  0  0  0  0  0  0  0  0  0
   63.4119   31.9912   47.9878 H   0  0  0  0  0  0  0  0  0  0  0  0
   64.1272   33.6390   47.9878 H   0  0  0  0  0  0  0  0  0  0  0  0
   63.0501   33.9207   46.0096 H   0  0  0  0  0  0  0  0  0  0  0  0
   61.9935   32.4846   46.2942 H   0  0  0  0  0  0  0  0  0  0  0  0
   60.3277   35.0682   44.6395 H   0  0  0  0  0  0  0  0  0  0  0  0
   57.9651   34.8276   43.8841 H   0  0  0  0  0  0  0  0  0  0  0  0
   56.2698   33.7857   45.3842 H   0  0  0  0  0  0  0  0  0  0  0  0
   56.9323   32.9696   47.6425 H   0  0  0  0  0  0  0  0  0  0  0  0
   60.3521   33.5031   49.0877 H   0  0  0  0  0  0  0  0  0  0  0  0
   58.6019   33.3451   49.5004 H   0  0  0  0  0  0  0  0  0  0  0  0
   60.1840   31.1230   48.1540 H   0  0  0  0  0  0  0  0  0  0  0  0
   58.9949   29.0112   50.9014 H   0  0  0  0  0  0  0  0  0  0  0  0
   58.3022   28.7955   49.2374 H   0  0  0  0  0  0  0  0  0  0  0  0
   61.1116   29.8065   49.4069 H   0  0  0  0  0  0  0  0  0  0  0  0
   60.8242   28.0874   49.8806 H   0  0  0  0  0  0  0  0  0  0  0  0
   59.5444   31.1776   44.7905 H   0  0  0  0  0  0  0  0  0  0  0  0
   57.2490   32.5460   43.7351 H   0  0  0  0  0  0  0  0  0  0  0  0
   58.3069   31.5872   42.6451 H   0  0  0  0  0  0  0  0  0  0  0  0
   56.5319   31.3114   42.6451 H   0  0  0  0  0  0  0  0  0  0  0  0
  1  2  1  0
  2  3  1  0
  3  4  1  0
  4  5  2  0
  5  6  1  0
  6  7  2  0
  7  8  1  0
  8  9  2  0
  9 10  1  0
 10 11  1  0
 11 12  1  0
 12 13  2  0
 12 14  1  0
 14 15  1  0
 15 16  1  0
 16 17  1  0
 17 18  2  0
 17 19  1  0
 19 20  2  0
 20 21  1  0
 21 22  1  0
 21 23  1  0
 23 24  2  0
 23 25  1  0
 25 26  1  0
 26 27  2  0
  9  4  1  0
 26 19  1  0
  1 28  1  0
  1 29  1  0
  1 30  1  0
  2 31  1  0
  2 32  1  0
  5 33  1  0
  6 34  1  0
  7 35  1  0
  8 36  1  0
 10 37  1  0
 10 38  1  0
 11 39  1  0
 14 40  1  0
 14 41  1  0
 15 42  1  0
 15 43  1  0
 20 44  1  0
 22 45  1  0
 22 46  1  0
 22 47  1  0
M  CHG  2  16  -1  25  -1
M  END
>  <UniqueID>  (45) 
39

>  <SMILES>  (45) 
CCOc1ccccc1CNC(=O)CC[N-]C(=O)c1cn(C)c(=O)[n-]c1=O

>  <Energy>  (45) 
45.94524706041848

>  <Genealogy>  (45) 
CCOc1ccccc1CNC(=O)CC[N-]C(=O)c1cn(C)c(=O)[n-]c1=O (protonated)
CCOc1ccccc1CNC(=O)CC[N-]C(=O)c1cn(C)c(=O)[n-]c1=O (3D coordinates assigned)
CCOc1ccccc1CNC(=O)CC[N-]C(=O)c1cn(C)c(=O)[n-]c1=O (optimized conformer: 45.94524706041848 kcal/mol)

>  <smiles>  (45) 
CCOc1ccccc1CNC(=O)CCNC(=O)c1cn(C)c(=O)[nH]c1=O

>  <score_type>  (45) 
oracle

>  <origin>  (45) 
adg

>  <m_score__min__energy>  (45) 
-10.800000000000001

>  <m_primary>  (45) 
energy

$$$$
45:0
     RDKit          3D

 34 35  0  0  0  0  0  0  0  0999 V2000
   65.2130   32.7280   49.7860 C   0  0  0  0  0  0  0  0  0  0  0  0
   64.3810   31.8930   48.9870 O   0  0  0  0  0  0  0  0  0  0  0  0
   63.3600   32.3610   48.1470 C   0  0  0  0  0  0  0  0  0  0  0  0
   63.4880   33.5380   47.3890 C   0  0  0  0  0  0  0  0  0  0  0  0
   62.4440   33.9630   46.5640 C   0  0  0  0  0  0  0  0  0  0  0  0
   61.2500   33.2220   46.4820 C   0  0  0  0  0  0  0  0  0  0  0  0
   60.1800   33.6180   45.6600 O   0  0  0  0  0  0  0  0  0  0  0  0
   59.1940   34.5910   45.9930 C   0  0  0  0  0  0  0  0  0  0  0  0
   57.9290   34.0390   45.9050 F   0  0  0  0  0  0  0  0  0  0  0  0
   59.2940   35.6820   45.1470 F   0  0  0  0  0  0  0  0  0  0  0  0
   59.4060   35.0150   47.2900 F   0  0  0  0  0  0  0  0  0  0  0  0
   61.1190   32.0470   47.2470 C   0  0  0  0  0  0  0  0  0  0  0  0
   59.6220   31.1090   47.1970 S   0  0  0  0  0  0  0  0  0  0  0  0
   58.6000   31.6840   48.1380 O   0  0  0  0  0  0  0  0  0  0  0  0
   59.9270   29.6970   47.6100 O   0  0  0  0  0  0  0  0  0  0  0  0
   58.9670   31.1080   45.5890 N   0  0  0  0  0  0  0  0  0  0  0  0
   57.7470   30.4370   45.2310 C   0  0  0  0  0  0  0  0  0  0  0  0
   56.7910   31.1150   44.4600 C   0  0  0  0  0  0  0  0  0  0  0  0
   55.5970   30.4780   44.1200 C   0  0  0  0  0  0  0  0  0  0  0  0
   55.3650   29.2010   44.5270 N   0  0  0  0  0  0  0  0  0  0  0  0
   56.2740   28.5130   45.2660 C   0  0  0  0  0  0  0  0  0  0  0  0
   56.0250   27.3310   45.6210 O   0  0  0  0  0  0  0  0  0  0  0  0
   57.4830   29.1150   45.6290 C   0  0  0  0  0  0  0  0  0  0  0  0
   62.1740   31.6250   48.0680 C   0  0  0  0  0  0  0  0  0  0  0  0
   65.0165   32.5308   50.8502 H   0  0  0  0  0  0  0  0  0  0  0  0
   66.2688   32.5152   49.5625 H   0  0  0  0  0  0  0  0  0  0  0  0
   64.9964   33.7830   49.5625 H   0  0  0  0  0  0  0  0  0  0  0  0
   64.4151   34.1273   47.4459 H   0  0  0  0  0  0  0  0  0  0  0  0
   62.5558   34.8843   45.9735 H   0  0  0  0  0  0  0  0  0  0  0  0
   59.4170   31.7450   44.8950 H   0  0  0  0  0  0  0  0  0  0  0  0
   56.9820   32.1451   44.1247 H   0  0  0  0  0  0  0  0  0  0  0  0
   54.8421   31.0094   43.5219 H   0  0  0  0  0  0  0  0  0  0  0  0
   58.2227   28.5574   46.2223 H   0  0  0  0  0  0  0  0  0  0  0  0
   62.0673   30.7027   48.6578 H   0  0  0  0  0  0  0  0  0  0  0  0
  1  2  1  0
  2  3  1  0
  3  4  2  0
  4  5  1  0
  5  6  2  0
  6  7  1  0
  7  8  1  0
  8  9  1  0
  8 10  1  0
  8 11  1  0
  6 12  1  0
 12 13  1  0
 13 14  2  0
 13 15  2  0
 13 16  1  0
 16 17  1  0
 17 18  1  0
 18 19  2  0
 19 20  1  0
 20 21  1  0
 21 22  2  0
 21 23  1  0
 12 24  2  0
 24  3  1  0
 23 17  2  0
  1 25  1  0
  1 26  1  0
  1 27  1  0
  4 28  1  0
  5 29  1  0
 16 30  1  0
 18 31  1  0
 19 32  1  0
 23 33  1  0
 24 34  1  0
M  CHG  1  20  -1
M  END
>  <UniqueID>  (46) 
40

>  <SMILES>  (46) 
COc1ccc(OC(F)(F)F)c(S(=O)(=O)Nc2cc[n-]c(=O)c2)c1

>  <Energy>  (46) 
37.657885286189455

>  <Genealogy>  (46) 
COc1ccc(OC(F)(F)F)c(S(=O)(=O)Nc2cc[n-]c(=O)c2)c1 (protonated)
COc1ccc(OC(F)(F)F)c(S(=O)(=O)Nc2cc[n-]c(=O)c2)c1 (3D coordinates assigned)
COc1ccc(OC(F)(F)F)c(S(=O)(=O)Nc2cc[n-]c(=O)c2)c1 (optimized conformer: 37.657885286189455 kcal/mol)

>  <smiles>  (46) 
COc1ccc(OC(F)(F)F)c(S(=O)(=O)Nc2cc[nH]c(=O)c2)c1

>  <score_type>  (46) 
oracle

>  <origin>  (46) 
adg

>  <m_score__min__energy>  (46) 
-8.0099999999999998

>  <m_primary>  (46) 
energy

$$$$
46:0
     RDKit          3D

 41 43  0  0  0  0  0  0  0  0999 V2000
   56.6660   21.5010   42.8240 C   0  0  0  0  0  0  0  0  0  0  0  0
   57.0290   22.4900   43.8980 C   0  0  0  0  0  0  0  0  0  0  0  0
   58.2860   22.4180   44.5190 C   0  0  0  0  0  0  0  0  0  0  0  0
   58.6370   23.3370   45.5050 C   0  0  0  0  0  0  0  0  0  0  0  0
   57.7380   24.3340   45.8870 C   0  0  0  0  0  0  0  0  0  0  0  0
   56.4660   24.4180   45.2940 C   0  0  0  0  0  0  0  0  0  0  0  0
   55.5200   25.4390   45.7940 C   0  0  0  0  0  0  0  0  0  0  0  0
   54.2800   25.2740   45.6310 O   0  0  0  0  0  0  0  0  0  0  0  0
   56.0100   26.6540   46.3720 N   0  0  0  0  0  0  0  0  0  0  0  0
   56.9340   27.5630   45.7540 C   0  0  0  0  0  0  0  0  0  0  0  0
   58.3040   27.3620   45.9570 C   0  0  0  0  0  0  0  0  0  0  0  0
   59.2350   28.2490   45.4190 C   0  0  0  0  0  0  0  0  0  0  0  0
   58.8100   29.3540   44.6800 C   0  0  0  0  0  0  0  0  0  0  0  0
   57.4350   29.5760   44.4610 C   0  0  0  0  0  0  0  0  0  0  0  0
   56.9350   30.7040   43.7190 N   0  0  0  0  0  0  0  0  0  0  0  0
   57.5630   31.9590   43.4200 C   0  0  0  0  0  0  0  0  0  0  0  0
   57.7260   32.3340   42.2300 O   0  0  0  0  0  0  0  0  0  0  0  0
   57.9970   32.8430   44.5170 C   0  0  0  0  0  0  0  0  0  0  0  0
   57.5160   32.6670   45.8280 C   0  0  0  0  0  0  0  0  0  0  0  0
   57.9300   33.5430   46.8330 C   0  0  0  0  0  0  0  0  0  0  0  0
   58.8170   34.5780   46.5320 C   0  0  0  0  0  0  0  0  0  0  0  0
   59.2750   34.7240   45.2210 C   0  0  0  0  0  0  0  0  0  0  0  0
   58.8590   33.8650   44.2530 N   0  0  0  0  0  0  0  0  0  0  0  0
   56.5010   28.6940   45.0300 C   0  0  0  0  0  0  0  0  0  0  0  0
   55.1440   28.9720   44.9020 O   0  0  0  0  0  0  0  0  0  0  0  0
   56.1240   23.5080   44.2600 C   0  0  0  0  0  0  0  0  0  0  0  0
   54.9190   23.6070   43.5550 O   0  0  0  0  0  0  0  0  0  0  0  0
   56.3224   20.5649   43.2885 H   0  0  0  0  0  0  0  0  0  0  0  0
   55.8619   21.9169   42.1991 H   0  0  0  0  0  0  0  0  0  0  0  0
   57.5482   21.2980   42.1991 H   0  0  0  0  0  0  0  0  0  0  0  0
   58.9972   21.6319   44.2254 H   0  0  0  0  0  0  0  0  0  0  0  0
   59.6254   23.2769   45.9840 H   0  0  0  0  0  0  0  0  0  0  0  0
   58.0276   25.0613   46.6598 H   0  0  0  0  0  0  0  0  0  0  0  0
   58.6484   26.4984   46.5449 H   0  0  0  0  0  0  0  0  0  0  0  0
   60.3099   28.0772   45.5777 H   0  0  0  0  0  0  0  0  0  0  0  0
   59.5507   30.0545   44.2668 H   0  0  0  0  0  0  0  0  0  0  0  0
   56.8203   31.8467   46.0585 H   0  0  0  0  0  0  0  0  0  0  0  0
   57.5578   33.4179   47.8605 H   0  0  0  0  0  0  0  0  0  0  0  0
   59.1513   35.2706   47.3185 H   0  0  0  0  0  0  0  0  0  0  0  0
   59.9739   35.5358   44.9710 H   0  0  0  0  0  0  0  0  0  0  0  0
   54.1750   24.2430   43.8080 H   0  0  0  0  0  0  0  0  0  0  0  0
  1  2  1  0
  2  3  2  0
  3  4  1  0
  4  5  2  0
  5  6  1  0
  6  7  1  0
  7  8  2  0
  7  9  1  0
  9 10  1  0
 10 11  2  0
 11 12  1  0
 12 13  2  0
 13 14  1  0
 14 15  1  0
 15 16  1  0
 16 17  2  0
 16 18  1  0
 18 19  2  0
 19 20  1  0
 20 21  2  0
 21 22  1  0
 22 23  2  0
 14 24  2  0
 24 25  1  0
  6 26  2  0
 26 27  1  0
 26  2  1  0
 24 10  1  0
 23 18  1  0
  1 28  1  0
  1 29  1  0
  1 30  1  0
  3 31  1  0
  4 32  1  0
  5 33  1  0
 11 34  1  0
 12 35  1  0
 13 36  1  0
 19 37  1  0
 20 38  1  0
 21 39  1  0
 22 40  1  0
 27 41  1  0
M  CHG  3   9  -1  15  -1  25  -1
M  END
>  <UniqueID>  (47) 
41

>  <SMILES>  (47) 
Cc1cccc(C(=O)[N-]c2cccc([N-]C(=O)c3ccccn3)c2[O-])c1O

>  <Energy>  (47) 
60.63508676960723

>  <Genealogy>  (47) 
Cc1cccc(C(=O)[N-]c2cccc([N-]C(=O)c3ccccn3)c2[O-])c1O (protonated)
Cc1cccc(C(=O)[N-]c2cccc([N-]C(=O)c3ccccn3)c2[O-])c1O (3D coordinates assigned)
Cc1cccc(C(=O)[N-]c2cccc([N-]C(=O)c3ccccn3)c2[O-])c1O (optimized conformer: 60.63508676960723 kcal/mol)

>  <smiles>  (47) 
Cc1cccc(C(=O)Nc2cccc(NC(=O)c3ccccn3)c2O)c1O

>  <score_type>  (47) 
oracle

>  <origin>  (47) 
adg

>  <m_score__min__energy>  (47) 
-15.81

>  <m_primary>  (47) 
energy

$$$$
47:0
     RDKit          3D

 49 52  0  0  0  0  0  0  0  0999 V2000
   56.5785   32.2116   43.9721 H   0  0  0  0  0  0  0  0  0  0  0  0
   56.9970   31.4120   44.6010 C   0  0  0  0  0  0  0  0  0  0  0  0
   56.6690   30.1030   44.5160 N   0  0  0  0  0  0  0  0  0  0  0  0
   57.4270   29.5110   45.4640 C   0  0  0  0  0  0  0  0  0  0  0  0
   57.4150   28.1500   45.8390 C   0  0  0  0  0  0  0  0  0  0  0  0
   56.7200   27.2230   45.2380 N   0  0  0  0  0  0  0  0  0  0  0  0
   55.9830   26.1340   45.8160 C   0  0  0  0  0  0  0  0  0  0  0  0
   54.8500   26.3450   46.3300 O   0  0  0  0  0  0  0  0  0  0  0  0
   56.4970   24.7480   45.7040 C   0  0  0  0  0  0  0  0  0  0  0  0
   56.8060   24.2010   44.4460 C   0  0  0  0  0  0  0  0  0  0  0  0
   56.6654   24.8052   43.5376 H   0  0  0  0  0  0  0  0  0  0  0  0
   57.2900   22.8960   44.3430 C   0  0  0  0  0  0  0  0  0  0  0  0
   57.5282   22.4766   43.3544 H   0  0  0  0  0  0  0  0  0  0  0  0
   57.4730   22.1210   45.4890 C   0  0  0  0  0  0  0  0  0  0  0  0
   57.8536   21.0930   45.3980 H   0  0  0  0  0  0  0  0  0  0  0  0
   57.1760   22.6420   46.7520 C   0  0  0  0  0  0  0  0  0  0  0  0
   57.3750   21.8220   47.8730 O   0  0  0  0  0  0  0  0  0  0  0  0
   56.3750   21.5260   48.8430 C   0  0  0  0  0  0  0  0  0  0  0  0
   56.7948   21.6503   49.8521 H   0  0  0  0  0  0  0  0  0  0  0  0
   55.5240   22.2108   48.7130 H   0  0  0  0  0  0  0  0  0  0  0  0
   56.0338   20.4883   48.7130 H   0  0  0  0  0  0  0  0  0  0  0  0
   56.6890   23.9610   46.8570 C   0  0  0  0  0  0  0  0  0  0  0  0
   56.4569   24.3793   47.8475 H   0  0  0  0  0  0  0  0  0  0  0  0
   58.1550   27.7980   46.9300 N   0  0  0  0  0  0  0  0  0  0  0  0
   58.9060   28.6990   47.6290 C   0  0  0  0  0  0  0  0  0  0  0  0
   59.4928   28.3723   48.5002 H   0  0  0  0  0  0  0  0  0  0  0  0
   58.9250   30.0400   47.2310 C   0  0  0  0  0  0  0  0  0  0  0  0
   59.5190   30.7868   47.7782 H   0  0  0  0  0  0  0  0  0  0  0  0
   58.1860   30.3890   46.1470 N   0  0  0  0  0  0  0  0  0  0  0  0
   57.9390   31.5940   45.5990 C   0  0  0  0  0  0  0  0  0  0  0  0
   58.5440   32.8830   45.9970 C   0  0  0  0  0  0  0  0  0  0  0  0
   58.7230   33.9110   45.0570 C   0  0  0  0  0  0  0  0  0  0  0  0
   58.4145   33.7577   44.0123 H   0  0  0  0  0  0  0  0  0  0  0  0
   59.2910   35.1270   45.4430 C   0  0  0  0  0  0  0  0  0  0  0  0
   59.4444   35.9217   44.6981 H   0  0  0  0  0  0  0  0  0  0  0  0
   59.6650   35.3370   46.7730 C   0  0  0  0  0  0  0  0  0  0  0  0
   60.1297   36.2893   47.0683 H   0  0  0  0  0  0  0  0  0  0  0  0
   59.4490   34.3350   47.7340 C   0  0  0  0  0  0  0  0  0  0  0  0
   59.8430   34.5080   49.1010 N   0  0  0  0  0  0  0  0  0  0  0  0
   59.4310   33.6920   50.2050 C   0  0  0  0  0  0  0  0  0  0  0  0
   59.4780   32.4390   50.0850 O   0  0  0  0  0  0  0  0  0  0  0  0
   58.9110   34.2790   51.4050 N   0  0  0  0  0  0  0  0  0  0  0  0
   58.7120   35.3050   51.4370 H   0  0  0  0  0  0  0  0  0  0  0  0
   58.5970   33.4730   52.5790 C   0  0  0  0  0  0  0  0  0  0  0  0
   58.8211   34.0483   53.4894 H   0  0  0  0  0  0  0  0  0  0  0  0
   57.5296   33.2074   52.5666 H   0  0  0  0  0  0  0  0  0  0  0  0
   59.2034   32.5553   52.5666 H   0  0  0  0  0  0  0  0  0  0  0  0
   58.9050   33.1080   47.3360 C   0  0  0  0  0  0  0  0  0  0  0  0
   58.7586   32.3111   48.0800 H   0  0  0  0  0  0  0  0  0  0  0  0
  1  2  1  0
  2  3  1  0
  3  4  2  0
  4  5  1  0
  5  6  2  0
  6  7  1  0
  7  8  2  0
  7  9  1  0
  9 10  2  0
 10 11  1  0
 10 12  1  0
 12 13  1  0
 12 14  2  0
 14 15  1  0
 14 16  1  0
 16 17  1  0
 17 18  1  0
 18 19  1  0
 18 20  1  0
 18 21  1  0
 16 22  2  0
 22 23  1  0
  5 24  1  0
 24 25  1  0
 25 26  1  0
 25 27  2  0
 27 28  1  0
 27 29  1  0
 29 30  1  0
 30 31  1  0
 31 32  2  0
 32 33  1  0
 32 34  1  0
 34 35  1  0
 34 36  2  0
 36 37  1  0
 36 38  1  0
 38 39  1  0
 39 40  1  0
 40 41  2  0
 40 42  1  0
 42 43  1  0
 42 44  1  0
 44 45  1  0
 44 46  1  0
 44 47  1  0
 38 48  2  0
 48 49  1  0
 30  2  2  0
 48 31  1  0
 29  4  1  0
 22  9  1  0
M  CHG  2  24  -1  39  -1
M  END
>  <UniqueID>  (48) 
42

>  <SMILES>  (48) 
CNC(=O)[N-]c1cccc(-c2cnc3/c(=N\C(=O)c4cccc(OC)c4)[n-]ccn23)c1

>  <Energy>  (48) 
107.04663059927877

>  <Genealogy>  (48) 
CNC(=O)[N-]c1cccc(-c2cnc3c(=NC(=O)c4cccc(OC)c4)[n-]ccn23)c1 (protonated)
CNC(=O)[N-]c1cccc(-c2cnc3/c(=N\C(=O)c4cccc(OC)c4)[n-]ccn23)c1 (cis-trans isomerization)
CNC(=O)[N-]c1cccc(-c2cnc3/c(=N\C(=O)c4cccc(OC)c4)[n-]ccn23)c1 (3D coordinates assigned)
CNC(=O)[N-]c1cccc(-c2cnc3/c(=N\C(=O)c4cccc(OC)c4)[n-]ccn23)c1 (optimized conformer: 107.04663059927877 kcal/mol)

>  <smiles>  (48) 
CNC(=O)Nc1cccc(-c2cnc3c(=NC(=O)c4cccc(OC)c4)[nH]ccn23)c1

>  <score_type>  (48) 
oracle

>  <origin>  (48) 
adg

>  <m_score__min__energy>  (48) 
-11.77

>  <m_primary>  (48) 
energy

$$$$
48:0
     RDKit          3D

 42 45  0  0  0  0  0  0  0  0999 V2000
   65.0990   33.1480   49.1350 O   0  0  0  0  0  0  0  0  0  0  0  0
   63.9750   33.5410   49.5500 C   0  0  0  0  0  0  0  0  0  0  0  0
   63.9190   34.3440   50.6840 O   0  0  0  0  0  0  0  0  0  0  0  0
   62.7360   33.1550   48.8430 C   0  0  0  0  0  0  0  0  0  0  0  0
   61.9300   34.1410   48.2260 C   0  0  0  0  0  0  0  0  0  0  0  0
   60.7510   33.7880   47.5500 C   0  0  0  0  0  0  0  0  0  0  0  0
   60.3750   32.4410   47.4890 C   0  0  0  0  0  0  0  0  0  0  0  0
   59.2320   31.9050   46.8640 C   0  0  0  0  0  0  0  0  0  0  0  0
   58.2650   32.6930   46.0660 C   0  0  0  0  0  0  0  0  0  0  0  0
   57.7660   33.7360   46.5670 O   0  0  0  0  0  0  0  0  0  0  0  0
   57.8880   32.2980   44.6880 C   0  0  0  0  0  0  0  0  0  0  0  0
   56.9770   31.2490   44.4630 C   0  0  0  0  0  0  0  0  0  0  0  0
   56.6300   30.8820   43.1600 C   0  0  0  0  0  0  0  0  0  0  0  0
   57.1750   31.5640   42.0710 C   0  0  0  0  0  0  0  0  0  0  0  0
   58.0670   32.6170   42.2830 C   0  0  0  0  0  0  0  0  0  0  0  0
   58.4200   32.9880   43.5840 C   0  0  0  0  0  0  0  0  0  0  0  0
   59.1480   30.5160   47.0250 C   0  0  0  0  0  0  0  0  0  0  0  0
   58.1650   29.6880   46.3870 N   0  0  0  0  0  0  0  0  0  0  0  0
   58.4120   28.4660   45.6800 C   0  0  0  0  0  0  0  0  0  0  0  0
   59.3290   28.4450   44.8180 O   0  0  0  0  0  0  0  0  0  0  0  0
   57.6140   27.2430   45.9090 C   0  0  0  0  0  0  0  0  0  0  0  0
   58.2620   26.0640   46.3160 C   0  0  0  0  0  0  0  0  0  0  0  0
   57.5300   24.8960   46.5450 C   0  0  0  0  0  0  0  0  0  0  0  0
   56.1470   24.8900   46.3590 C   0  0  0  0  0  0  0  0  0  0  0  0
   55.4930   26.0500   45.9300 C   0  0  0  0  0  0  0  0  0  0  0  0
   54.1160   26.0320   45.7330 O   0  0  0  0  0  0  0  0  0  0  0  0
   56.2220   27.2230   45.6950 C   0  0  0  0  0  0  0  0  0  0  0  0
   55.5600   28.3560   45.2340 O   0  0  0  0  0  0  0  0  0  0  0  0
   60.4910   29.9590   47.8920 S   0  0  0  0  0  0  0  0  0  0  0  0
   61.1650   31.4800   48.1050 C   0  0  0  0  0  0  0  0  0  0  0  0
   62.3400   31.8020   48.7790 C   0  0  0  0  0  0  0  0  0  0  0  0
   62.2310   35.1978   48.2766 H   0  0  0  0  0  0  0  0  0  0  0  0
   60.1300   34.5611   47.0738 H   0  0  0  0  0  0  0  0  0  0  0  0
   56.5357   30.7151   45.3175 H   0  0  0  0  0  0  0  0  0  0  0  0
   55.9258   30.0538   42.9922 H   0  0  0  0  0  0  0  0  0  0  0  0
   56.9019   31.2720   41.0462 H   0  0  0  0  0  0  0  0  0  0  0  0
   58.4932   33.1562   41.4241 H   0  0  0  0  0  0  0  0  0  0  0  0
   59.1171   33.8235   43.7448 H   0  0  0  0  0  0  0  0  0  0  0  0
   59.3531   26.0608   46.4552 H   0  0  0  0  0  0  0  0  0  0  0  0
   58.0444   23.9804   46.8722 H   0  0  0  0  0  0  0  0  0  0  0  0
   55.5707   23.9727   46.5498 H   0  0  0  0  0  0  0  0  0  0  0  0
   62.9479   31.0169   49.2525 H   0  0  0  0  0  0  0  0  0  0  0  0
  1  2  2  0
  2  3  1  0
  2  4  1  0
  4  5  2  0
  5  6  1  0
  6  7  2  0
  7  8  1  0
  8  9  1  0
  9 10  2  0
  9 11  1  0
 11 12  2  0
 12 13  1  0
 13 14  2  0
 14 15  1  0
 15 16  2  0
  8 17  2  0
 17 18  1  0
 18 19  1  0
 19 20  2  0
 19 21  1  0
 21 22  2  0
 22 23  1  0
 23 24  2  0
 24 25  1  0
 25 26  1  0
 25 27  2  0
 27 28  1  0
 17 29  1  0
 29 30  1  0
 30 31  2  0
 31  4  1  0
 30  7  1  0
 16 11  1  0
 27 21  1  0
  5 32  1  0
  6 33  1  0
 12 34  1  0
 13 35  1  0
 14 36  1  0
 15 37  1  0
 16 38  1  0
 22 39  1  0
 23 40  1  0
 24 41  1  0
 31 42  1  0
M  CHG  4   3  -1  18  -1  26  -1  28  -1
M  END
>  <UniqueID>  (49) 
43

>  <SMILES>  (49) 
O=C([O-])c1ccc2c(C(=O)c3ccccc3)c([N-]C(=O)c3cccc([O-])c3[O-])sc2c1

>  <Energy>  (49) 
93.48995658376258

>  <Genealogy>  (49) 
O=C([O-])c1ccc2c(C(=O)c3ccccc3)c([N-]C(=O)c3cccc([O-])c3[O-])sc2c1 (protonated)
O=C([O-])c1ccc2c(C(=O)c3ccccc3)c([N-]C(=O)c3cccc([O-])c3[O-])sc2c1 (3D coordinates assigned)
O=C([O-])c1ccc2c(C(=O)c3ccccc3)c([N-]C(=O)c3cccc([O-])c3[O-])sc2c1 (optimized conformer: 93.48995658376258 kcal/mol)

>  <smiles>  (49) 
O=C(O)c1ccc2c(C(=O)c3ccccc3)c(NC(=O)c3cccc(O)c3O)sc2c1

>  <score_type>  (49) 
oracle

>  <origin>  (49) 
adg

>  <m_score__min__energy>  (49) 
-17.629999999999999

>  <m_primary>  (49) 
energy

$$$$
49:0
     RDKit          3D

 35 36  0  0  0  0  0  0  0  0999 V2000
   56.2620   29.7430   42.5930 C   0  0  0  0  0  0  0  0  0  0  0  0
   56.7400   29.8470   44.3040 S   0  0  0  0  0  0  0  0  0  0  0  0
   58.2270   29.6850   44.4460 O   0  0  0  0  0  0  0  0  0  0  0  0
   56.3500   31.1990   44.8310 O   0  0  0  0  0  0  0  0  0  0  0  0
   55.9160   28.6340   45.2290 N   0  0  0  0  0  0  0  0  0  0  0  0
   56.5230   27.5100   45.8850 C   0  0  0  0  0  0  0  0  0  0  0  0
   57.8700   27.5180   46.2950 C   0  0  0  0  0  0  0  0  0  0  0  0
   58.4240   26.3970   46.9340 C   0  0  0  0  0  0  0  0  0  0  0  0
   59.8370   26.3880   47.3540 C   0  0  0  0  0  0  0  0  0  0  0  0
   60.7280   26.1550   46.4960 O   0  0  0  0  0  0  0  0  0  0  0  0
   60.2360   26.6910   48.6990 N   0  0  0  0  0  0  0  0  0  0  0  0
   60.7730   27.9670   49.1660 C   0  0  0  0  0  0  0  0  0  0  0  0
   60.2260   29.1150   48.3580 C   0  0  0  0  0  0  0  0  0  0  0  0
   60.7760   29.4290   47.1030 C   0  0  0  0  0  0  0  0  0  0  0  0
   60.2850   30.5160   46.3720 C   0  0  0  0  0  0  0  0  0  0  0  0
   59.2370   31.2870   46.8820 C   0  0  0  0  0  0  0  0  0  0  0  0
   58.6760   30.9720   48.1220 C   0  0  0  0  0  0  0  0  0  0  0  0
   59.1650   29.8880   48.8580 C   0  0  0  0  0  0  0  0  0  0  0  0
   57.6220   25.2760   47.1860 C   0  0  0  0  0  0  0  0  0  0  0  0
   56.2880   25.2620   46.7760 C   0  0  0  0  0  0  0  0  0  0  0  0
   55.7400   26.3710   46.1260 C   0  0  0  0  0  0  0  0  0  0  0  0
   54.4090   26.3390   45.7230 O   0  0  0  0  0  0  0  0  0  0  0  0
   55.1892   29.5096   42.5255 H   0  0  0  0  0  0  0  0  0  0  0  0
   56.4597   30.7052   42.0979 H   0  0  0  0  0  0  0  0  0  0  0  0
   56.8416   28.9500   42.0979 H   0  0  0  0  0  0  0  0  0  0  0  0
   58.4917   28.4072   46.1138 H   0  0  0  0  0  0  0  0  0  0  0  0
   60.4978   28.1076   50.2217 H   0  0  0  0  0  0  0  0  0  0  0  0
   61.8667   27.9487   49.0503 H   0  0  0  0  0  0  0  0  0  0  0  0
   61.5947   28.8183   46.6946 H   0  0  0  0  0  0  0  0  0  0  0  0
   60.7244   30.7641   45.3946 H   0  0  0  0  0  0  0  0  0  0  0  0
   58.8535   32.1425   46.3067 H   0  0  0  0  0  0  0  0  0  0  0  0
   57.8484   31.5775   48.5201 H   0  0  0  0  0  0  0  0  0  0  0  0
   58.7173   29.6399   49.8317 H   0  0  0  0  0  0  0  0  0  0  0  0
   58.0448   24.4050   47.7082 H   0  0  0  0  0  0  0  0  0  0  0  0
   55.6658   24.3748   46.9652 H   0  0  0  0  0  0  0  0  0  0  0  0
  1  2  1  0
  2  3  2  0
  2  4  2  0
  2  5  1  0
  5  6  1  0
  6  7  2  0
  7  8  1  0
  8  9  1  0
  9 10  2  0
  9 11  1  0
 11 12  1  0
 12 13  1  0
 13 14  2  0
 14 15  1  0
 15 16  2  0
 16 17  1  0
 17 18  2  0
  8 19  2  0
 19 20  1  0
 20 21  2  0
 21 22  1  0
 21  6  1  0
 18 13  1  0
  1 23  1  0
  1 24  1  0
  1 25  1  0
  7 26  1  0
 12 27  1  0
 12 28  1  0
 14 29  1  0
 15 30  1  0
 16 31  1  0
 17 32  1  0
 18 33  1  0
 19 34  1  0
 20 35  1  0
M  CHG  3   5  -1  11  -1  22  -1
M  END
>  <UniqueID>  (50) 
44

>  <SMILES>  (50) 
CS(=O)(=O)[N-]c1cc(C(=O)[N-]Cc2ccccc2)ccc1[O-]

>  <Energy>  (50) 
36.07019150985941

>  <Genealogy>  (50) 
CS(=O)(=O)[N-]c1cc(C(=O)[N-]Cc2ccccc2)ccc1[O-] (protonated)
CS(=O)(=O)[N-]c1cc(C(=O)[N-]Cc2ccccc2)ccc1[O-] (3D coordinates assigned)
CS(=O)(=O)[N-]c1cc(C(=O)[N-]Cc2ccccc2)ccc1[O-] (optimized conformer: 36.07019150985941 kcal/mol)

>  <smiles>  (50) 
CS(=O)(=O)Nc1cc(C(=O)NCc2ccccc2)ccc1O

>  <score_type>  (50) 
oracle

>  <origin>  (50) 
adg

>  <m_score__min__energy>  (50) 
-13.960000000000001

>  <m_primary>  (50) 
energy

$$$$
50:0
     RDKit          3D

 46 48  0  0  0  0  0  0  0  0999 V2000
   60.2420   27.2450   48.3970 C   0  0  0  0  0  0  0  0  0  0  0  0
   59.8290   28.6730   48.0380 C   0  0  0  0  0  0  0  0  0  0  0  0
   59.8860   28.8450   46.6200 O   0  0  0  0  0  0  0  0  0  0  0  0
   59.1670   29.8440   45.9590 C   0  0  0  0  0  0  0  0  0  0  0  0
   59.6830   30.9870   45.8130 O   0  0  0  0  0  0  0  0  0  0  0  0
   57.8070   29.5620   45.4690 C   0  0  0  0  0  0  0  0  0  0  0  0
   56.9390   30.3910   44.7770 C   0  0  0  0  0  0  0  0  0  0  0  0
   57.1390   31.8110   44.4310 C   0  0  0  0  0  0  0  0  0  0  0  0
   57.8250   32.1040   43.4160 O   0  0  0  0  0  0  0  0  0  0  0  0
   56.6510   32.8610   45.2640 N   0  0  0  0  0  0  0  0  0  0  0  0
   57.3180   34.1460   45.4780 C   0  0  0  0  0  0  0  0  0  0  0  0
   58.5870   33.9930   46.2740 C   0  0  0  0  0  0  0  0  0  0  0  0
   58.5340   33.5470   47.6080 C   0  0  0  0  0  0  0  0  0  0  0  0
   59.7070   33.4030   48.3540 C   0  0  0  0  0  0  0  0  0  0  0  0
   60.9470   33.7000   47.7720 C   0  0  0  0  0  0  0  0  0  0  0  0
   61.0120   34.1390   46.4430 C   0  0  0  0  0  0  0  0  0  0  0  0
   59.8380   34.2810   45.6950 C   0  0  0  0  0  0  0  0  0  0  0  0
   55.7750   29.7420   44.5610 N   0  0  0  0  0  0  0  0  0  0  0  0
   55.9040   28.5490   45.0500 O   0  0  0  0  0  0  0  0  0  0  0  0
   57.0880   28.3810   45.5830 C   0  0  0  0  0  0  0  0  0  0  0  0
   57.5560   27.1460   46.1410 N   0  0  0  0  0  0  0  0  0  0  0  0
   57.1020   25.8710   45.6600 C   0  0  0  0  0  0  0  0  0  0  0  0
   58.0420   24.9630   45.1430 C   0  0  0  0  0  0  0  0  0  0  0  0
   57.6370   23.7100   44.6700 C   0  0  0  0  0  0  0  0  0  0  0  0
   56.2840   23.3500   44.7050 C   0  0  0  0  0  0  0  0  0  0  0  0
   55.3420   24.2500   45.2130 C   0  0  0  0  0  0  0  0  0  0  0  0
   55.7420   25.5040   45.7040 C   0  0  0  0  0  0  0  0  0  0  0  0
   54.7870   26.3670   46.2460 O   0  0  0  0  0  0  0  0  0  0  0  0
   60.2734   27.1365   49.4912 H   0  0  0  0  0  0  0  0  0  0  0  0
   59.5121   26.5361   47.9790 H   0  0  0  0  0  0  0  0  0  0  0  0
   61.2376   27.0352   47.9790 H   0  0  0  0  0  0  0  0  0  0  0  0
   58.8026   28.8566   48.3883 H   0  0  0  0  0  0  0  0  0  0  0  0
   60.5149   29.3847   48.5208 H   0  0  0  0  0  0  0  0  0  0  0  0
   57.5622   34.5873   44.5004 H   0  0  0  0  0  0  0  0  0  0  0  0
   56.6349   34.7948   46.0459 H   0  0  0  0  0  0  0  0  0  0  0  0
   57.5626   33.3102   48.0665 H   0  0  0  0  0  0  0  0  0  0  0  0
   59.6571   33.0569   49.3969 H   0  0  0  0  0  0  0  0  0  0  0  0
   61.8703   33.5883   48.3594 H   0  0  0  0  0  0  0  0  0  0  0  0
   61.9859   34.3720   45.9877 H   0  0  0  0  0  0  0  0  0  0  0  0
   59.8925   34.6192   44.6497 H   0  0  0  0  0  0  0  0  0  0  0  0
   58.4030   27.1640   46.7500 H   0  0  0  0  0  0  0  0  0  0  0  0
   59.1060   25.2400   45.1099 H   0  0  0  0  0  0  0  0  0  0  0  0
   58.3823   23.0067   44.2701 H   0  0  0  0  0  0  0  0  0  0  0  0
   55.9641   22.3647   44.3349 H   0  0  0  0  0  0  0  0  0  0  0  0
   54.2775   23.9734   45.2283 H   0  0  0  0  0  0  0  0  0  0  0  0
   54.7770   27.3490   45.9910 H   0  0  0  0  0  0  0  0  0  0  0  0
  1  2  1  0
  2  3  1  0
  3  4  1  0
  4  5  2  0
  4  6  1  0
  6  7  1  0
  7  8  1  0
  8  9  2  0
  8 10  1  0
 10 11  1  0
 11 12  1  0
 12 13  2  0
 13 14  1  0
 14 15  2  0
 15 16  1  0
 16 17  2  0
  7 18  2  0
 18 19  1  0
 19 20  1  0
 20 21  1  0
 21 22  1  0
 22 23  2  0
 23 24  1  0
 24 25  2  0
 25 26  1  0
 26 27  2  0
 27 28  1  0
 20  6  2  0
 27 22  1  0
 17 12  1  0
  1 29  1  0
  1 30  1  0
  1 31  1  0
  2 32  1  0
  2 33  1  0
 11 34  1  0
 11 35  1  0
 13 36  1  0
 14 37  1  0
 15 38  1  0
 16 39  1  0
 17 40  1  0
 21 41  1  0
 23 42  1  0
 24 43  1  0
 25 44  1  0
 26 45  1  0
 28 46  1  0
M  CHG  1  10  -1
M  END
>  <UniqueID>  (51) 
45

>  <SMILES>  (51) 
CCOC(=O)c1c(C(=O)[N-]Cc2ccccc2)noc1Nc1ccccc1O

>  <Energy>  (51) 
93.13918147510971

>  <Genealogy>  (51) 
CCOC(=O)c1c(C(=O)[N-]Cc2ccccc2)noc1Nc1ccccc1O (protonated)
CCOC(=O)c1c(C(=O)[N-]Cc2ccccc2)noc1Nc1ccccc1O (3D coordinates assigned)
CCOC(=O)c1c(C(=O)[N-]Cc2ccccc2)noc1Nc1ccccc1O (optimized conformer: 93.13918147510971 kcal/mol)

>  <smiles>  (51) 
CCOC(=O)c1c(C(=O)NCc2ccccc2)noc1Nc1ccccc1O

>  <score_type>  (51) 
oracle

>  <origin>  (51) 
adg

>  <m_score__min__energy>  (51) 
-10.34

>  <m_primary>  (51) 
energy

$$$$
51:0
     RDKit          3D

 51 53  0  0  0  0  0  0  0  0999 V2000
   55.1490   27.1950   45.1120 H   0  0  0  0  0  0  0  0  0  0  0  0
   55.1500   26.6590   46.0060 N   0  0  0  0  0  0  0  0  0  0  0  0
   56.3180   25.9670   46.4370 C   0  0  0  0  0  0  0  0  0  0  0  0
   56.2390   25.1370   47.3790 O   0  0  0  0  0  0  0  0  0  0  0  0
   57.6390   26.2730   45.7990 C   0  0  0  0  0  0  0  0  0  0  0  0
   57.6531   25.8428   44.7867 H   0  0  0  0  0  0  0  0  0  0  0  0
   58.4298   25.8364   46.4267 H   0  0  0  0  0  0  0  0  0  0  0  0
   57.8920   27.7910   45.6990 C   0  0  2  0  0  0  0  0  0  0  0  0
   57.5352   28.2403   46.6375 H   0  0  0  0  0  0  0  0  0  0  0  0
   57.1290   28.4010   44.6020 N   0  0  0  0  0  0  0  0  0  0  0  0
   56.2360   29.5190   44.7040 C   0  0  0  0  0  0  0  0  0  0  0  0
   55.1120   29.3480   45.2440 O   0  0  0  0  0  0  0  0  0  0  0  0
   56.6540   30.8240   44.2750 N   0  0  0  0  0  0  0  0  0  0  0  0
   57.4010   31.6930   44.8910 C   0  0  0  0  0  0  0  0  0  0  0  0
   56.8150   32.8430   45.3230 N   0  0  0  0  0  0  0  0  0  0  0  0
   57.4830   33.7750   46.0460 C   0  0  0  0  0  0  0  0  0  0  0  0
   56.9730   34.6978   46.3597 H   0  0  0  0  0  0  0  0  0  0  0  0
   58.8180   33.5630   46.3920 C   0  0  0  0  0  0  0  0  0  0  0  0
   59.6340   34.6910   47.5230 S   0  0  0  0  0  0  0  0  0  0  0  0
   59.2650   33.6400   48.9260 C   0  0  0  0  0  0  0  0  0  0  0  0
   58.5240   32.1370   48.8250 S   0  0  0  0  0  0  0  0  0  0  0  0
   58.7930   31.6790   50.4230 C   0  0  0  0  0  0  0  0  0  0  0  0
   58.5310   30.3600   51.0460 C   0  0  0  0  0  0  0  0  0  0  0  0
   57.3550   30.0920   51.4080 O   0  0  0  0  0  0  0  0  0  0  0  0
   59.5650   29.4260   51.3850 N   0  0  0  0  0  0  0  0  0  0  0  0
   61.0080   29.5930   51.2730 C   0  0  0  0  0  0  0  0  0  0  0  0
   61.3545   30.3034   52.0380 H   0  0  0  0  0  0  0  0  0  0  0  0
   61.5004   28.6207   51.4224 H   0  0  0  0  0  0  0  0  0  0  0  0
   61.3520   30.1220   49.9060 C   0  0  0  0  0  0  0  0  0  0  0  0
   60.7710   29.5600   48.7540 C   0  0  0  0  0  0  0  0  0  0  0  0
   60.0679   28.7194   48.8493 H   0  0  0  0  0  0  0  0  0  0  0  0
   61.0840   30.0660   47.4890 C   0  0  0  0  0  0  0  0  0  0  0  0
   60.6332   29.6178   46.5913 H   0  0  0  0  0  0  0  0  0  0  0  0
   61.9700   31.1420   47.3630 C   0  0  0  0  0  0  0  0  0  0  0  0
   62.2170   31.5362   46.3662 H   0  0  0  0  0  0  0  0  0  0  0  0
   62.5430   31.7180   48.5050 C   0  0  0  0  0  0  0  0  0  0  0  0
   63.6590   33.0630   48.3460 Cl  0  0  0  0  0  0  0  0  0  0  0  0
   62.2320   31.2100   49.7710 C   0  0  0  0  0  0  0  0  0  0  0  0
   62.6792   31.6651   50.6670 H   0  0  0  0  0  0  0  0  0  0  0  0
   59.4690   32.7260   51.0550 C   0  0  0  0  0  0  0  0  0  0  0  0
   59.7632   32.6977   52.1145 H   0  0  0  0  0  0  0  0  0  0  0  0
   59.7380   33.8160   50.2150 C   0  0  0  0  0  0  0  0  0  0  0  0
   60.2709   34.7194   50.5467 H   0  0  0  0  0  0  0  0  0  0  0  0
   59.4610   32.4090   45.9400 C   0  0  0  0  0  0  0  0  0  0  0  0
   60.5229   32.2442   46.1750 H   0  0  0  0  0  0  0  0  0  0  0  0
   58.7590   31.4650   45.1910 C   0  0  0  0  0  0  0  0  0  0  0  0
   59.2602   30.5517   44.8380 H   0  0  0  0  0  0  0  0  0  0  0  0
   59.3870   28.0990   45.5660 C   0  0  0  0  0  0  0  0  0  0  0  0
   59.8329   28.1909   46.5674 H   0  0  0  0  0  0  0  0  0  0  0  0
   59.8819   27.2840   45.0176 H   0  0  0  0  0  0  0  0  0  0  0  0
   59.5195   29.0433   45.0176 H   0  0  0  0  0  0  0  0  0  0  0  0
  1  2  1  0
  2  3  1  0
  3  4  2  0
  3  5  1  0
  5  6  1  0
  5  7  1  0
  5  8  1  0
  8  9  1  1
  8 10  1  0
 10 11  1  0
 11 12  2  0
 11 13  1  0
 13 14  2  0
 14 15  1  0
 15 16  1  0
 16 17  1  0
 16 18  2  0
 18 19  1  0
 19 20  1  0
 20 21  1  0
 21 22  1  0
 22 23  1  0
 23 24  2  0
 23 25  1  0
 25 26  1  0
 26 27  1  0
 26 28  1  0
 26 29  1  0
 29 30  2  0
 30 31  1  0
 30 32  1  0
 32 33  1  0
 32 34  2  0
 34 35  1  0
 34 36  1  0
 36 37  1  0
 36 38  2  0
 38 39  1  0
 22 40  2  0
 40 41  1  0
 40 42  1  0
 42 43  1  0
 18 44  1  0
 44 45  1  0
 44 46  2  0
 46 47  1  0
  8 48  1  0
 48 49  1  0
 48 50  1  0
 48 51  1  0
 46 14  1  0
 42 20  2  0
 38 29  1  0
M  CHG  4   2  -1  10  -1  15  -1  25  -1
M  END
>  <UniqueID>  (52) 
46

>  <SMILES>  (52) 
C[C@H](CC([NH-])=O)[N-]C(=O)/N=c1\ccc(Sc2ccc(C(=O)[N-]Cc3cccc(Cl)c3)s2)c[n-]1

>  <Energy>  (52) 
82.94612647914424

>  <Genealogy>  (52) 
CC(CC([NH-])=O)[N-]C(=O)N=c1ccc(Sc2ccc(C(=O)[N-]Cc3cccc(Cl)c3)s2)c[n-]1 (protonated)
C[C@H](CC([NH-])=O)[N-]C(=O)N=c1ccc(Sc2ccc(C(=O)[N-]Cc3cccc(Cl)c3)s2)c[n-]1 (chirality)
C[C@H](CC([NH-])=O)[N-]C(=O)/N=c1\ccc(Sc2ccc(C(=O)[N-]Cc3cccc(Cl)c3)s2)c[n-]1 (cis-trans isomerization)
C[C@H](CC([NH-])=O)[N-]C(=O)/N=c1\ccc(Sc2ccc(C(=O)[N-]Cc3cccc(Cl)c3)s2)c[n-]1 (3D coordinates assigned)
C[C@H](CC([NH-])=O)[N-]C(=O)/N=c1\ccc(Sc2ccc(C(=O)[N-]Cc3cccc(Cl)c3)s2)c[n-]1 (optimized conformer: 82.94612647914424 kcal/mol)

>  <smiles>  (52) 
CC(CC(N)=O)NC(=O)N=c1ccc(Sc2ccc(C(=O)NCc3cccc(Cl)c3)s2)c[nH]1

>  <score_type>  (52) 
oracle

>  <origin>  (52) 
adg

>  <m_score__min__energy>  (52) 
-16.449999999999999

>  <m_primary>  (52) 
energy

$$$$
52:0
     RDKit          3D

 41 44  0  0  0  0  0  0  0  0999 V2000
   58.0430   32.6770   45.0920 O   0  0  0  0  0  0  0  0  0  0  0  0
   57.8600   31.4520   45.3270 C   0  0  0  0  0  0  0  0  0  0  0  0
   56.6680   30.8970   44.9970 N   0  0  0  0  0  0  0  0  0  0  0  0
   56.4050   29.5890   45.2230 C   0  0  0  0  0  0  0  0  0  0  0  0
   55.1590   29.0770   44.8810 O   0  0  0  0  0  0  0  0  0  0  0  0
   57.3790   28.7750   45.8120 C   0  0  0  0  0  0  0  0  0  0  0  0
   57.1090   27.3360   46.0580 C   0  0  0  0  0  0  0  0  0  0  0  0
   58.0430   26.5920   46.5820 N   0  0  0  0  0  0  0  0  0  0  0  0
   57.8360   24.9090   46.8990 S   0  0  0  0  0  0  0  0  0  0  0  0
   58.7850   24.1140   46.0470 O   0  0  0  0  0  0  0  0  0  0  0  0
   58.0900   24.6380   48.3550 O   0  0  0  0  0  0  0  0  0  0  0  0
   56.1940   24.4890   46.5030 C   0  0  0  0  0  0  0  0  0  0  0  0
   55.7250   23.1880   46.7250 C   0  0  0  0  0  0  0  0  0  0  0  0
   54.4090   22.8530   46.3960 C   0  0  0  0  0  0  0  0  0  0  0  0
   53.9430   21.5630   46.6170 O   0  0  0  0  0  0  0  0  0  0  0  0
   53.5620   23.8180   45.8440 C   0  0  0  0  0  0  0  0  0  0  0  0
   54.0310   25.1170   45.6210 C   0  0  0  0  0  0  0  0  0  0  0  0
   55.3520   25.4640   45.9500 C   0  0  0  0  0  0  0  0  0  0  0  0
   55.8120   26.8070   45.7090 N   0  0  0  0  0  0  0  0  0  0  0  0
   58.6140   29.3570   46.1480 C   0  0  0  0  0  0  0  0  0  0  0  0
   59.5190   28.6390   46.6580 O   0  0  0  0  0  0  0  0  0  0  0  0
   58.8430   30.6910   45.9110 N   0  0  0  0  0  0  0  0  0  0  0  0
   60.1540   31.2880   46.2390 C   0  0  0  0  0  0  0  0  0  0  0  0
   59.9860   32.4260   47.2140 C   0  0  0  0  0  0  0  0  0  0  0  0
   60.1920   33.7520   46.7990 C   0  0  0  0  0  0  0  0  0  0  0  0
   60.0660   34.8050   47.7110 C   0  0  0  0  0  0  0  0  0  0  0  0
   59.7360   34.5420   49.0430 C   0  0  0  0  0  0  0  0  0  0  0  0
   59.5310   33.2260   49.4660 C   0  0  0  0  0  0  0  0  0  0  0  0
   59.2110   32.9720   50.7590 F   0  0  0  0  0  0  0  0  0  0  0  0
   59.6560   32.1700   48.5560 C   0  0  0  0  0  0  0  0  0  0  0  0
   58.9640   27.0100   46.8470 H   0  0  0  0  0  0  0  0  0  0  0  0
   56.3932   22.4294   47.1587 H   0  0  0  0  0  0  0  0  0  0  0  0
   52.5256   23.5559   45.5847 H   0  0  0  0  0  0  0  0  0  0  0  0
   53.3606   25.8722   45.1849 H   0  0  0  0  0  0  0  0  0  0  0  0
   55.1460   27.4610   45.2360 H   0  0  0  0  0  0  0  0  0  0  0  0
   60.8000   30.5190   46.6877 H   0  0  0  0  0  0  0  0  0  0  0  0
   60.6103   31.6745   45.3157 H   0  0  0  0  0  0  0  0  0  0  0  0
   60.4537   33.9633   45.7517 H   0  0  0  0  0  0  0  0  0  0  0  0
   60.2269   35.8414   47.3792 H   0  0  0  0  0  0  0  0  0  0  0  0
   59.6375   35.3712   49.7590 H   0  0  0  0  0  0  0  0  0  0  0  0
   59.4953   31.1352   48.8926 H   0  0  0  0  0  0  0  0  0  0  0  0
  1  2  2  0
  2  3  1  0
  3  4  1  0
  4  5  1  0
  4  6  2  0
  6  7  1  0
  7  8  2  0
  8  9  1  0
  9 10  2  0
  9 11  2  0
  9 12  1  0
 12 13  2  0
 13 14  1  0
 14 15  1  0
 14 16  2  0
 16 17  1  0
 17 18  2  0
 18 19  1  0
  6 20  1  0
 20 21  2  0
 20 22  1  0
 22 23  1  0
 23 24  1  0
 24 25  2  0
 25 26  1  0
 26 27  2  0
 27 28  1  0
 28 29  1  0
 28 30  2  0
 22  2  1  0
 30 24  1  0
 19  7  1  0
 18 12  1  0
  8 31  1  0
 13 32  1  0
 16 33  1  0
 17 34  1  0
 19 35  1  0
 23 36  1  0
 23 37  1  0
 25 38  1  0
 26 39  1  0
 27 40  1  0
 30 41  1  0
M  CHG  4   3  -1   5  -1   8   1  15  -1
M  END
>  <UniqueID>  (53) 
47

>  <SMILES>  (53) 
O=c1[n-]c([O-])c(C2=[NH+]S(=O)(=O)c3cc([O-])ccc3N2)c(=O)n1Cc1cccc(F)c1

>  <Energy>  (53) 
61.839355501214264

>  <Genealogy>  (53) 
O=c1[n-]c([O-])c(C2=[NH+]S(=O)(=O)c3cc([O-])ccc3N2)c(=O)n1Cc1cccc(F)c1 (protonated)
O=c1[n-]c([O-])c(C2=[NH+]S(=O)(=O)c3cc([O-])ccc3N2)c(=O)n1Cc1cccc(F)c1 (3D coordinates assigned)
O=c1[n-]c([O-])c(C2=[NH+]S(=O)(=O)c3cc([O-])ccc3N2)c(=O)n1Cc1cccc(F)c1 (nonaromatic ring conformer: 61.839355501214264 kcal/mol)

>  <smiles>  (53) 
O=c1[nH]c(O)c(C2=NS(=O)(=O)c3cc(O)ccc3N2)c(=O)n1Cc1cccc(F)c1

>  <score_type>  (53) 
oracle

>  <origin>  (53) 
adg

>  <m_score__min__energy>  (53) 
-11.74

>  <m_primary>  (53) 
energy

$$$$
53:0
     RDKit          3D

 50 52  0  0  0  0  0  0  0  0999 V2000
   51.1370   31.6130   55.0780 C   0  0  0  0  0  0  0  0  0  0  0  0
   52.2740   31.0190   54.3120 C   0  0  0  0  0  0  0  0  0  0  0  0
   53.5080   30.8480   54.8270 N   0  0  0  0  0  0  0  0  0  0  0  0
   54.2890   30.3880   53.8630 N   0  0  0  0  0  0  0  0  0  0  0  0
   55.7250   30.1750   54.0410 C   0  0  0  0  0  0  0  0  0  0  0  0
   56.4870   30.7650   52.8850 C   0  0  0  0  0  0  0  0  0  0  0  0
   57.1060   29.9240   51.9500 C   0  0  0  0  0  0  0  0  0  0  0  0
   57.8420   30.4640   50.8920 C   0  0  0  0  0  0  0  0  0  0  0  0
   57.9750   31.8570   50.7520 C   0  0  0  0  0  0  0  0  0  0  0  0
   58.7690   32.4330   49.6370 C   0  0  0  0  0  0  0  0  0  0  0  0
   59.7020   33.4560   49.8790 C   0  0  0  0  0  0  0  0  0  0  0  0
   60.4430   33.9980   48.8260 C   0  0  0  0  0  0  0  0  0  0  0  0
   60.2630   33.5310   47.5240 C   0  0  0  0  0  0  0  0  0  0  0  0
   59.3320   32.5110   47.2620 C   0  0  0  0  0  0  0  0  0  0  0  0
   59.1060   32.0060   45.9390 N   0  0  0  0  0  0  0  0  0  0  0  0
   57.6490   32.2170   45.0240 S   0  0  0  0  0  0  0  0  0  0  0  0
   58.0730   32.7440   43.3790 C   0  0  0  0  0  0  0  0  0  0  0  0
   56.7870   33.2650   45.6690 O   0  0  0  0  0  0  0  0  0  0  0  0
   56.9030   30.9150   44.9450 O   0  0  0  0  0  0  0  0  0  0  0  0
   58.5930   31.9680   48.3200 C   0  0  0  0  0  0  0  0  0  0  0  0
   57.3510   32.6960   51.6920 C   0  0  0  0  0  0  0  0  0  0  0  0
   56.6130   32.1560   52.7490 C   0  0  0  0  0  0  0  0  0  0  0  0
   53.5790   30.2710   52.7170 C   0  0  0  0  0  0  0  0  0  0  0  0
   54.1620   29.9320   51.3750 C   0  0  0  0  0  0  0  0  0  0  0  0
   52.2760   30.6740   52.9690 C   0  0  0  0  0  0  0  0  0  0  0  0
   51.1610   30.8640   51.9810 C   0  0  0  0  0  0  0  0  0  0  0  0
   51.0290   32.3080   51.6190 C   0  0  0  0  0  0  0  0  0  0  0  0
   51.4040   32.7160   50.4880 O   0  0  0  0  0  0  0  0  0  0  0  0
   50.5150   33.2120   52.5410 O   0  0  0  0  0  0  0  0  0  0  0  0
   51.3292   31.5126   56.1564 H   0  0  0  0  0  0  0  0  0  0  0  0
   51.0382   32.6779   54.8208 H   0  0  0  0  0  0  0  0  0  0  0  0
   50.2065   31.0858   54.8208 H   0  0  0  0  0  0  0  0  0  0  0  0
   56.0506   30.6574   54.9744 H   0  0  0  0  0  0  0  0  0  0  0  0
   55.9238   29.0941   54.0866 H   0  0  0  0  0  0  0  0  0  0  0  0
   57.0119   28.8326   52.0497 H   0  0  0  0  0  0  0  0  0  0  0  0
   58.3212   29.7941   50.1628 H   0  0  0  0  0  0  0  0  0  0  0  0
   59.8494   33.8316   50.9023 H   0  0  0  0  0  0  0  0  0  0  0  0
   61.1722   34.7972   49.0247 H   0  0  0  0  0  0  0  0  0  0  0  0
   60.8510   33.9620   46.7003 H   0  0  0  0  0  0  0  0  0  0  0  0
   58.7617   33.6000   43.4343 H   0  0  0  0  0  0  0  0  0  0  0  0
   58.5596   31.9160   42.8427 H   0  0  0  0  0  0  0  0  0  0  0  0
   57.1600   33.0420   42.8427 H   0  0  0  0  0  0  0  0  0  0  0  0
   57.8655   31.1677   48.1195 H   0  0  0  0  0  0  0  0  0  0  0  0
   57.4445   33.7877   51.5946 H   0  0  0  0  0  0  0  0  0  0  0  0
   56.1292   32.8238   53.4770 H   0  0  0  0  0  0  0  0  0  0  0  0
   55.1054   29.3834   51.5131 H   0  0  0  0  0  0  0  0  0  0  0  0
   53.4523   29.3057   50.8145 H   0  0  0  0  0  0  0  0  0  0  0  0
   54.3553   30.8586   50.8145 H   0  0  0  0  0  0  0  0  0  0  0  0
   51.3768   30.2807   51.0737 H   0  0  0  0  0  0  0  0  0  0  0  0
   50.2191   30.5213   52.4342 H   0  0  0  0  0  0  0  0  0  0  0  0
  1  2  1  0
  2  3  2  0
  3  4  1  0
  4  5  1  0
  5  6  1  0
  6  7  2  0
  7  8  1  0
  8  9  2  0
  9 10  1  0
 10 11  2  0
 11 12  1  0
 12 13  2  0
 13 14  1  0
 14 15  1  0
 15 16  1  0
 16 17  1  0
 16 18  2  0
 16 19  2  0
 14 20  2  0
  9 21  1  0
 21 22  2  0
  4 23  1  0
 23 24  1  0
 23 25  2  0
 25 26  1  0
 26 27  1  0
 27 28  2  0
 27 29  1  0
 25  2  1  0
 22  6  1  0
 20 10  1  0
  1 30  1  0
  1 31  1  0
  1 32  1  0
  5 33  1  0
  5 34  1  0
  7 35  1  0
  8 36  1  0
 11 37  1  0
 12 38  1  0
 13 39  1  0
 17 40  1  0
 17 41  1  0
 17 42  1  0
 20 43  1  0
 21 44  1  0
 22 45  1  0
 24 46  1  0
 24 47  1  0
 24 48  1  0
 26 49  1  0
 26 50  1  0
M  CHG  2  15  -1  29  -1
M  END
>  <UniqueID>  (54) 
48

>  <SMILES>  (54) 
Cc1nn(Cc2ccc(-c3cccc([N-]S(C)(=O)=O)c3)cc2)c(C)c1CC(=O)[O-]

>  <Energy>  (54) 
80.64343517857475

>  <Genealogy>  (54) 
Cc1nn(Cc2ccc(-c3cccc([N-]S(C)(=O)=O)c3)cc2)c(C)c1CC(=O)[O-] (protonated)
Cc1nn(Cc2ccc(-c3cccc([N-]S(C)(=O)=O)c3)cc2)c(C)c1CC(=O)[O-] (3D coordinates assigned)
Cc1nn(Cc2ccc(-c3cccc([N-]S(C)(=O)=O)c3)cc2)c(C)c1CC(=O)[O-] (optimized conformer: 80.64343517857475 kcal/mol)

>  <smiles>  (54) 
Cc1nn(Cc2ccc(-c3cccc(NS(C)(=O)=O)c3)cc2)c(C)c1CC(=O)O

>  <score_type>  (54) 
oracle

>  <origin>  (54) 
adg

>  <m_score__min__energy>  (54) 
-12.26

>  <m_primary>  (54) 
energy

$$$$
54:0
     RDKit          3D

 54 56  0  0  0  0  0  0  0  0999 V2000
   59.8080   29.9900   48.1240 C   0  0  0  0  0  0  0  0  0  0  0  0
   58.5100   29.8750   47.3280 C   0  0  0  0  0  0  0  0  0  0  0  0
   58.4580   28.5690   46.5770 C   0  0  0  0  0  0  0  0  0  0  0  0
   59.5170   27.6530   46.7080 C   0  0  0  0  0  0  0  0  0  0  0  0
   59.5010   26.4470   45.9990 C   0  0  0  0  0  0  0  0  0  0  0  0
   58.4350   26.1490   45.1470 C   0  0  0  0  0  0  0  0  0  0  0  0
   57.3810   27.0540   45.0030 C   0  0  0  0  0  0  0  0  0  0  0  0
   57.3860   28.2620   45.7120 C   0  0  0  0  0  0  0  0  0  0  0  0
   56.2860   29.1640   45.5560 N   0  0  0  0  0  0  0  0  0  0  0  0
   56.0080   29.8490   44.3270 C   0  0  0  0  0  0  0  0  0  0  0  0
   55.0880   29.4250   43.5850 O   0  0  0  0  0  0  0  0  0  0  0  0
   56.7430   31.1030   43.9480 C   0  0  0  0  0  0  0  0  0  0  0  0
   57.4480   31.6490   45.1060 N   0  0  0  0  0  0  0  0  0  0  0  0
   58.2700   32.8240   45.0030 C   0  0  0  0  0  0  0  0  0  0  0  0
   58.3160   33.4600   43.9170 O   0  0  0  0  0  0  0  0  0  0  0  0
   59.0790   33.2900   46.1580 C   0  0  0  0  0  0  0  0  0  0  0  0
   58.5230   34.1470   47.1250 C   0  0  0  0  0  0  0  0  0  0  0  0
   59.2910   34.5760   48.2090 C   0  0  0  0  0  0  0  0  0  0  0  0
   60.6140   34.1550   48.3490 C   0  0  0  0  0  0  0  0  0  0  0  0
   61.3360   34.5990   49.4090 F   0  0  0  0  0  0  0  0  0  0  0  0
   61.1810   33.2930   47.3940 C   0  0  0  0  0  0  0  0  0  0  0  0
   62.8470   32.7180   47.5420 S   0  0  0  0  0  0  0  0  0  0  0  0
   63.7600   33.4980   46.6370 O   0  0  0  0  0  0  0  0  0  0  0  0
   62.8920   31.2700   47.1310 O   0  0  0  0  0  0  0  0  0  0  0  0
   63.3910   32.8630   49.1970 N   0  0  0  0  0  0  0  0  0  0  0  0
   64.8530   33.0220   49.2360 C   0  0  0  0  0  0  0  0  0  0  0  0
   65.3440   33.0170   50.7000 C   0  0  0  0  0  0  0  0  0  0  0  0
   64.7900   32.0110   51.5390 O   0  0  0  0  0  0  0  0  0  0  0  0
   64.0350   31.0530   50.8180 C   0  0  0  0  0  0  0  0  0  0  0  0
   62.9070   31.7270   50.0190 C   0  0  0  0  0  0  0  0  0  0  0  0
   60.4040   32.8510   46.3180 C   0  0  0  0  0  0  0  0  0  0  0  0
   59.5812   29.9699   49.2002 H   0  0  0  0  0  0  0  0  0  0  0  0
   60.4682   29.1468   47.8726 H   0  0  0  0  0  0  0  0  0  0  0  0
   60.3097   30.9361   47.8726 H   0  0  0  0  0  0  0  0  0  0  0  0
   57.6565   29.9276   48.0199 H   0  0  0  0  0  0  0  0  0  0  0  0
   58.4659   30.7012   46.6031 H   0  0  0  0  0  0  0  0  0  0  0  0
   60.3627   27.8860   47.3717 H   0  0  0  0  0  0  0  0  0  0  0  0
   60.3294   25.7322   46.1127 H   0  0  0  0  0  0  0  0  0  0  0  0
   58.4256   25.2010   44.5891 H   0  0  0  0  0  0  0  0  0  0  0  0
   56.5436   26.8172   44.3301 H   0  0  0  0  0  0  0  0  0  0  0  0
   57.4708   30.8715   43.1564 H   0  0  0  0  0  0  0  0  0  0  0  0
   56.0175   31.8473   43.5879 H   0  0  0  0  0  0  0  0  0  0  0  0
   57.2250   31.2690   46.0540 H   0  0  0  0  0  0  0  0  0  0  0  0
   57.4793   34.4803   47.0267 H   0  0  0  0  0  0  0  0  0  0  0  0
   58.8502   35.2505   48.9579 H   0  0  0  0  0  0  0  0  0  0  0  0
   65.3248   32.1915   48.6904 H   0  0  0  0  0  0  0  0  0  0  0  0
   65.1256   33.9785   48.7661 H   0  0  0  0  0  0  0  0  0  0  0  0
   66.4357   32.8824   50.6886 H   0  0  0  0  0  0  0  0  0  0  0  0
   65.0136   33.9752   51.1273 H   0  0  0  0  0  0  0  0  0  0  0  0
   64.7001   30.5207   50.1221 H   0  0  0  0  0  0  0  0  0  0  0  0
   63.5848   30.3505   51.5348 H   0  0  0  0  0  0  0  0  0  0  0  0
   62.4513   30.9792   49.3532 H   0  0  0  0  0  0  0  0  0  0  0  0
   62.1785   32.1245   50.7410 H   0  0  0  0  0  0  0  0  0  0  0  0
   60.8359   32.1508   45.5878 H   0  0  0  0  0  0  0  0  0  0  0  0
  1  2  1  0
  2  3  1  0
  3  4  2  0
  4  5  1  0
  5  6  2  0
  6  7  1  0
  7  8  2  0
  8  9  1  0
  9 10  1  0
 10 11  2  0
 10 12  1  0
 12 13  1  0
 13 14  1  0
 14 15  2  0
 14 16  1  0
 16 17  2  0
 17 18  1  0
 18 19  2  0
 19 20  1  0
 19 21  1  0
 21 22  1  0
 22 23  2  0
 22 24  2  0
 22 25  1  0
 25 26  1  0
 26 27  1  0
 27 28  1  0
 28 29  1  0
 29 30  1  0
 21 31  2  0
  8  3  1  0
 31 16  1  0
 30 25  1  0
  1 32  1  0
  1 33  1  0
  1 34  1  0
  2 35  1  0
  2 36  1  0
  4 37  1  0
  5 38  1  0
  6 39  1  0
  7 40  1  0
 12 41  1  0
 12 42  1  0
 13 43  1  0
 17 44  1  0
 18 45  1  0
 26 46  1  0
 26 47  1  0
 27 48  1  0
 27 49  1  0
 29 50  1  0
 29 51  1  0
 30 52  1  0
 30 53  1  0
 31 54  1  0
M  CHG  1   9  -1
M  END
>  <UniqueID>  (55) 
49

>  <SMILES>  (55) 
CCc1ccccc1[N-]C(=O)CNC(=O)c1ccc(F)c(S(=O)(=O)N2CCOCC2)c1

>  <Energy>  (55) 
71.03900356213023

>  <Genealogy>  (55) 
CCc1ccccc1[N-]C(=O)CNC(=O)c1ccc(F)c(S(=O)(=O)N2CCOCC2)c1 (protonated)
CCc1ccccc1[N-]C(=O)CNC(=O)c1ccc(F)c(S(=O)(=O)N2CCOCC2)c1 (3D coordinates assigned)
CCc1ccccc1[N-]C(=O)CNC(=O)c1ccc(F)c(S(=O)(=O)N2CCOCC2)c1 (nonaromatic ring conformer: 71.03900356213023 kcal/mol)

>  <smiles>  (55) 
CCc1ccccc1NC(=O)CNC(=O)c1ccc(F)c(S(=O)(=O)N2CCOCC2)c1

>  <score_type>  (55) 
oracle

>  <origin>  (55) 
adg

>  <m_score__min__energy>  (55) 
-10.640000000000001

>  <m_primary>  (55) 
energy

$$$$
55:0
     RDKit          3D

 39 41  0  0  0  0  0  0  0  0999 V2000
   60.4285   26.9676   46.8617 H   0  0  0  0  0  0  0  0  0  0  0  0
   59.3570   26.8490   46.6430 C   0  0  0  0  0  0  0  0  0  0  0  0
   58.6540   25.7660   47.1710 C   0  0  0  0  0  0  0  0  0  0  0  0
   59.1743   25.0259   47.7967 H   0  0  0  0  0  0  0  0  0  0  0  0
   57.2890   25.6200   46.9060 C   0  0  0  0  0  0  0  0  0  0  0  0
   56.7375   24.7677   47.3296 H   0  0  0  0  0  0  0  0  0  0  0  0
   56.6160   26.5590   46.0990 C   0  0  0  0  0  0  0  0  0  0  0  0
   55.2380   26.4680   45.8460 O   0  0  0  0  0  0  0  0  0  0  0  0
   54.5530   25.2630   45.5210 C   0  0  0  0  0  0  0  0  0  0  0  0
   54.2596   24.7468   46.4470 H   0  0  0  0  0  0  0  0  0  0  0  0
   53.6543   25.4994   44.9324 H   0  0  0  0  0  0  0  0  0  0  0  0
   55.2159   24.6117   44.9324 H   0  0  0  0  0  0  0  0  0  0  0  0
   57.3430   27.6290   45.5370 C   0  0  0  0  0  0  0  0  0  0  0  0
   56.6940   28.6240   44.7310 N   0  0  0  0  0  0  0  0  0  0  0  0
   57.0780   29.8580   44.5630 C   0  0  0  0  0  0  0  0  0  0  0  0
   57.0680   30.6910   45.6290 N   0  0  0  0  0  0  0  0  0  0  0  0
   57.4630   31.9840   45.5120 C   0  0  0  0  0  0  0  0  0  0  0  0
   57.8920   32.4620   44.3000 N   0  0  0  0  0  0  0  0  0  0  0  0
   57.8990   31.6190   43.2190 C   0  0  0  0  0  0  0  0  0  0  0  0
   58.2690   32.0310   42.0840 O   0  0  0  0  0  0  0  0  0  0  0  0
   57.5070   30.3250   43.3560 N   0  0  0  0  0  0  0  0  0  0  0  0
   57.5640   29.7000   42.5200 H   0  0  0  0  0  0  0  0  0  0  0  0
   58.2980   33.8770   44.1670 C   0  0  0  0  0  0  0  0  0  0  0  0
   58.4566   34.1033   43.1023 H   0  0  0  0  0  0  0  0  0  0  0  0
   57.4985   34.5032   44.5895 H   0  0  0  0  0  0  0  0  0  0  0  0
   59.5960   34.1740   44.9380 C   0  0  0  0  0  0  0  0  0  0  0  0
   60.2442   33.2878   44.8708 H   0  0  0  0  0  0  0  0  0  0  0  0
   60.0345   35.0691   44.4726 H   0  0  0  0  0  0  0  0  0  0  0  0
   59.4000   34.5120   46.4270 C   0  0  0  0  0  0  0  0  0  0  0  0
   60.3854   34.7278   46.8656 H   0  0  0  0  0  0  0  0  0  0  0  0
   58.7194   35.3750   46.4712 H   0  0  0  0  0  0  0  0  0  0  0  0
   58.7430   33.3830   47.2430 C   0  0  0  0  0  0  0  0  0  0  0  0
   59.4346   32.5276   47.2515 H   0  0  0  0  0  0  0  0  0  0  0  0
   58.5450   33.8119   48.2364 H   0  0  0  0  0  0  0  0  0  0  0  0
   57.3720   32.8790   46.7250 C   0  0  0  0  0  0  0  0  0  0  0  0
   56.8827   32.3163   47.5337 H   0  0  0  0  0  0  0  0  0  0  0  0
   56.8009   33.7686   46.4210 H   0  0  0  0  0  0  0  0  0  0  0  0
   58.7020   27.7830   45.8370 C   0  0  0  0  0  0  0  0  0  0  0  0
   59.2567   28.6440   45.4358 H   0  0  0  0  0  0  0  0  0  0  0  0
  1  2  1  0
  2  3  2  0
  3  4  1  0
  3  5  1  0
  5  6  1  0
  5  7  2  0
  7  8  1  0
  8  9  1  0
  9 10  1  0
  9 11  1  0
  9 12  1  0
  7 13  1  0
 13 14  1  0
 14 15  2  0
 15 16  1  0
 16 17  2  0
 17 18  1  0
 18 19  1  0
 19 20  2  0
 19 21  1  0
 21 22  1  0
 18 23  1  0
 23 24  1  0
 23 25  1  0
 23 26  1  0
 26 27  1  0
 26 28  1  0
 26 29  1  0
 29 30  1  0
 29 31  1  0
 29 32  1  0
 32 33  1  0
 32 34  1  0
 32 35  1  0
 35 36  1  0
 35 37  1  0
 13 38  2  0
 38 39  1  0
 38  2  1  0
 21 15  1  0
 35 17  1  0
M  END
>  <UniqueID>  (56) 
50

>  <SMILES>  (56) 
COc1ccccc1/N=c1/nc2n(c(=O)[nH]1)CCCCC2

>  <Energy>  (56) 
57.70536606495844

>  <Genealogy>  (56) 
COc1ccccc1/N=c1/nc2n(c(=O)[nH]1)CCCCC2 (cis-trans isomerization)
COc1ccccc1/N=c1/nc2n(c(=O)[nH]1)CCCCC2 (3D coordinates assigned)
COc1ccccc1/N=c1/nc2n(c(=O)[nH]1)CCCCC2 (nonaromatic ring conformer: 57.70536606495844 kcal/mol)

>  <smiles>  (56) 
COc1ccccc1N=c1nc2n(c(=O)[nH]1)CCCCC2

>  <score_type>  (56) 
oracle

>  <origin>  (56) 
adg

>  <m_score__min__energy>  (56) 
-6.0700000000000003

>  <m_primary>  (56) 
energy

$$$$
56:0
     RDKit          3D

 31 33  0  0  0  0  0  0  0  0999 V2000
   55.5770   24.4340   47.0680 O   0  0  0  0  0  0  0  0  0  0  0  0
   56.2410   25.3990   46.6060 C   0  0  0  0  0  0  0  0  0  0  0  0
   57.6380   25.3420   46.5800 C   0  0  0  0  0  0  0  0  0  0  0  0
   58.3590   26.4200   46.0640 C   0  0  0  0  0  0  0  0  0  0  0  0
   57.6770   27.5480   45.5790 C   0  0  0  0  0  0  0  0  0  0  0  0
   58.3350   28.6670   45.0430 C   0  0  0  0  0  0  0  0  0  0  0  0
   59.5950   28.6680   44.9510 O   0  0  0  0  0  0  0  0  0  0  0  0
   57.6100   29.7430   44.6010 N   0  0  0  0  0  0  0  0  0  0  0  0
   58.2590   30.8750   44.0630 N   0  0  0  0  0  0  0  0  0  0  0  0
   58.0850   32.4450   44.7790 S   0  0  0  0  0  0  0  0  0  0  0  0
   56.6900   32.5840   45.3230 O   0  0  0  0  0  0  0  0  0  0  0  0
   58.3050   33.4970   43.7290 O   0  0  0  0  0  0  0  0  0  0  0  0
   59.2630   32.6520   46.0710 C   0  0  0  0  0  0  0  0  0  0  0  0
   59.8790   31.5310   46.6450 C   0  0  0  0  0  0  0  0  0  0  0  0
   60.8130   31.6920   47.6730 C   0  0  0  0  0  0  0  0  0  0  0  0
   61.1390   32.9730   48.1290 C   0  0  0  0  0  0  0  0  0  0  0  0
   60.5320   34.0940   47.5540 C   0  0  0  0  0  0  0  0  0  0  0  0
   59.5970   33.9350   46.5270 C   0  0  0  0  0  0  0  0  0  0  0  0
   56.2420   29.7120   44.6440 C   0  0  0  0  0  0  0  0  0  0  0  0
   55.5670   30.6910   44.2250 O   0  0  0  0  0  0  0  0  0  0  0  0
   55.5920   28.6340   45.1540 N   0  0  0  0  0  0  0  0  0  0  0  0
   56.2720   27.5610   45.6240 C   0  0  0  0  0  0  0  0  0  0  0  0
   55.5950   26.4970   46.1310 N   0  0  0  0  0  0  0  0  0  0  0  0
   58.1642   24.4552   46.9629 H   0  0  0  0  0  0  0  0  0  0  0  0
   59.4582   26.3862   46.0373 H   0  0  0  0  0  0  0  0  0  0  0  0
   58.6250   30.8410   43.0850 H   0  0  0  0  0  0  0  0  0  0  0  0
   59.6269   30.5223   46.2857 H   0  0  0  0  0  0  0  0  0  0  0  0
   61.2918   30.8100   48.1235 H   0  0  0  0  0  0  0  0  0  0  0  0
   61.8722   33.0989   48.9393 H   0  0  0  0  0  0  0  0  0  0  0  0
   60.7906   35.1021   47.9103 H   0  0  0  0  0  0  0  0  0  0  0  0
   59.1222   34.8186   46.0756 H   0  0  0  0  0  0  0  0  0  0  0  0
  1  2  2  0
  2  3  1  0
  3  4  2  0
  4  5  1  0
  5  6  1  0
  6  7  2  0
  6  8  1  0
  8  9  1  0
  9 10  1  0
 10 11  2  0
 10 12  2  0
 10 13  1  0
 13 14  2  0
 14 15  1  0
 15 16  2  0
 16 17  1  0
 17 18  2  0
  8 19  1  0
 19 20  2  0
 19 21  1  0
 21 22  1  0
 22 23  1  0
 23  2  1  0
 22  5  2  0
 18 13  1  0
  3 24  1  0
  4 25  1  0
  9 26  1  0
 14 27  1  0
 15 28  1  0
 16 29  1  0
 17 30  1  0
 18 31  1  0
M  CHG  2  21  -1  23  -1
M  END
>  <UniqueID>  (57) 
51

>  <SMILES>  (57) 
O=c1ccc2c(=O)n(NS(=O)(=O)c3ccccc3)c(=O)[n-]c2[n-]1

>  <Energy>  (57) 
47.84569377292208

>  <Genealogy>  (57) 
O=c1ccc2c(=O)n(NS(=O)(=O)c3ccccc3)c(=O)[n-]c2[n-]1 (protonated)
O=c1ccc2c(=O)n(NS(=O)(=O)c3ccccc3)c(=O)[n-]c2[n-]1 (3D coordinates assigned)
O=c1ccc2c(=O)n(NS(=O)(=O)c3ccccc3)c(=O)[n-]c2[n-]1 (optimized conformer: 47.84569377292208 kcal/mol)

>  <smiles>  (57) 
O=c1ccc2c(=O)n(NS(=O)(=O)c3ccccc3)c(=O)[nH]c2[nH]1

>  <score_type>  (57) 
oracle

>  <origin>  (57) 
adg

>  <m_score__min__energy>  (57) 
-12

>  <m_primary>  (57) 
energy

$$$$
57:0
     RDKit          3D

 40 42  0  0  0  0  0  0  0  0999 V2000
   57.6640   32.0170   50.4930 N   0  0  0  0  0  0  0  0  0  0  0  0
   58.4500   31.6310   49.3670 C   0  0  0  0  0  0  0  0  0  0  0  0
   58.7830   30.4230   49.2370 O   0  0  0  0  0  0  0  0  0  0  0  0
   58.8710   32.6350   48.3610 C   0  0  0  0  0  0  0  0  0  0  0  0
   59.8080   33.6300   48.6960 C   0  0  0  0  0  0  0  0  0  0  0  0
   60.1910   34.5870   47.7540 C   0  0  0  0  0  0  0  0  0  0  0  0
   59.6560   34.5570   46.4660 C   0  0  0  0  0  0  0  0  0  0  0  0
   58.7450   33.5590   46.1010 C   0  0  0  0  0  0  0  0  0  0  0  0
   58.1960   33.5720   44.7770 N   0  0  0  0  0  0  0  0  0  0  0  0
   57.7610   32.4330   44.0240 C   0  0  0  0  0  0  0  0  0  0  0  0
   58.3400   32.1670   42.9380 O   0  0  0  0  0  0  0  0  0  0  0  0
   56.6650   31.5260   44.5150 C   0  0  0  0  0  0  0  0  0  0  0  0
   57.2150   30.2270   44.9090 N   0  0  0  0  0  0  0  0  0  0  0  0
   56.5120   29.0860   45.0880 C   0  0  0  0  0  0  0  0  0  0  0  0
   55.1460   28.9670   44.8640 O   0  0  0  0  0  0  0  0  0  0  0  0
   57.3400   28.0740   45.5270 C   0  0  0  0  0  0  0  0  0  0  0  0
   58.6060   28.6060   45.5970 C   0  0  0  0  0  0  0  0  0  0  0  0
   58.4950   29.9360   45.2450 C   0  0  0  0  0  0  0  0  0  0  0  0
   59.5480   30.8490   45.2550 O   0  0  0  0  0  0  0  0  0  0  0  0
   59.7990   27.8610   46.1160 C   0  0  0  0  0  0  0  0  0  0  0  0
   59.5420   26.3410   46.0680 C   0  0  0  0  0  0  0  0  0  0  0  0
   58.1460   25.9780   46.6170 C   0  0  0  0  0  0  0  0  0  0  0  0
   57.0180   26.6350   45.7940 C   0  0  0  0  0  0  0  0  0  0  0  0
   58.3360   32.6150   47.0600 C   0  0  0  0  0  0  0  0  0  0  0  0
   56.6210   32.0360   50.4380 H   0  0  0  0  0  0  0  0  0  0  0  0
   60.2416   33.6541   49.7066 H   0  0  0  0  0  0  0  0  0  0  0  0
   60.9167   35.3668   48.0284 H   0  0  0  0  0  0  0  0  0  0  0  0
   59.9518   35.3220   45.7330 H   0  0  0  0  0  0  0  0  0  0  0  0
   56.1727   31.9893   45.3827 H   0  0  0  0  0  0  0  0  0  0  0  0
   55.9375   31.3742   43.7040 H   0  0  0  0  0  0  0  0  0  0  0  0
   59.4710   31.7610   44.8250 H   0  0  0  0  0  0  0  0  0  0  0  0
   60.6750   28.1009   45.4955 H   0  0  0  0  0  0  0  0  0  0  0  0
   59.9828   28.1605   47.1584 H   0  0  0  0  0  0  0  0  0  0  0  0
   59.6138   26.0006   45.0245 H   0  0  0  0  0  0  0  0  0  0  0  0
   60.2962   25.8467   46.6980 H   0  0  0  0  0  0  0  0  0  0  0  0
   58.0225   24.8855   46.5817 H   0  0  0  0  0  0  0  0  0  0  0  0
   58.0772   26.3505   47.6497 H   0  0  0  0  0  0  0  0  0  0  0  0
   56.9102   26.1036   44.8369 H   0  0  0  0  0  0  0  0  0  0  0  0
   56.0791   26.5781   46.3642 H   0  0  0  0  0  0  0  0  0  0  0  0
   57.5900   31.8531   46.7900 H   0  0  0  0  0  0  0  0  0  0  0  0
  1  2  1  0
  2  3  2  0
  2  4  1  0
  4  5  2  0
  5  6  1  0
  6  7  2  0
  7  8  1  0
  8  9  1  0
  9 10  1  0
 10 11  2  0
 10 12  1  0
 12 13  1  0
 13 14  1  0
 14 15  1  0
 14 16  2  0
 16 17  1  0
 17 18  2  0
 18 19  1  0
 17 20  1  0
 20 21  1  0
 21 22  1  0
 22 23  1  0
  8 24  2  0
 24  4  1  0
 18 13  1  0
 23 16  1  0
  1 25  1  0
  5 26  1  0
  6 27  1  0
  7 28  1  0
 12 29  1  0
 12 30  1  0
 19 31  1  0
 20 32  1  0
 20 33  1  0
 21 34  1  0
 21 35  1  0
 22 36  1  0
 22 37  1  0
 23 38  1  0
 23 39  1  0
 24 40  1  0
M  CHG  3   1  -1   9  -1  15  -1
M  END
>  <UniqueID>  (58) 
52

>  <SMILES>  (58) 
[NH-]C(=O)c1cccc([N-]C(=O)Cn2c([O-])c3c(c2O)CCCC3)c1

>  <Energy>  (58) 
73.63385824476553

>  <Genealogy>  (58) 
[NH-]C(=O)c1cccc([N-]C(=O)Cn2c([O-])c3c(c2O)CCCC3)c1 (protonated)
[NH-]C(=O)c1cccc([N-]C(=O)Cn2c([O-])c3c(c2O)CCCC3)c1 (3D coordinates assigned)
[NH-]C(=O)c1cccc([N-]C(=O)Cn2c([O-])c3c(c2O)CCCC3)c1 (nonaromatic ring conformer: 73.63385824476553 kcal/mol)

>  <smiles>  (58) 
NC(=O)c1cccc(NC(=O)Cn2c(O)c3c(c2O)CCCC3)c1

>  <score_type>  (58) 
oracle

>  <origin>  (58) 
adg

>  <m_score__min__energy>  (58) 
-13.640000000000001

>  <m_primary>  (58) 
energy

$$$$
58:0
     RDKit          3D

 36 38  0  0  0  0  0  0  0  0999 V2000
   55.6720   29.0910   52.3270 O   0  0  0  0  0  0  0  0  0  0  0  0
   55.1800   30.2260   52.0760 C   0  0  0  0  0  0  0  0  0  0  0  0
   56.0020   31.2410   51.4750 N   0  0  0  0  0  0  0  0  0  0  0  0
   57.4390   31.2480   51.5430 C   0  0  0  0  0  0  0  0  0  0  0  0
   58.1320   30.0310   51.6030 C   0  0  0  0  0  0  0  0  0  0  0  0
   59.5290   30.0110   51.6490 C   0  0  0  0  0  0  0  0  0  0  0  0
   60.2570   31.2040   51.6060 C   0  0  0  0  0  0  0  0  0  0  0  0
   61.6570   31.1380   51.6650 O   0  0  0  0  0  0  0  0  0  0  0  0
   62.5350   31.7250   50.7460 C   0  0  0  0  0  0  0  0  0  0  0  0
   62.0290   32.2250   49.5410 C   0  0  0  0  0  0  0  0  0  0  0  0
   62.8970   32.8330   48.6290 C   0  0  0  0  0  0  0  0  0  0  0  0
   62.2810   33.4580   47.1110 Cl  0  0  0  0  0  0  0  0  0  0  0  0
   64.2570   32.9410   48.9330 C   0  0  0  0  0  0  0  0  0  0  0  0
   64.7260   32.4420   50.1500 C   0  0  0  0  0  0  0  0  0  0  0  0
   63.8640   31.8540   51.0220 N   0  0  0  0  0  0  0  0  0  0  0  0
   59.5670   32.4280   51.5460 C   0  0  0  0  0  0  0  0  0  0  0  0
   58.1700   32.4490   51.5030 C   0  0  0  0  0  0  0  0  0  0  0  0
   53.7450   30.4770   52.3570 C   0  0  0  0  0  0  0  0  0  0  0  0
   53.0490   29.7070   53.3080 C   0  0  0  0  0  0  0  0  0  0  0  0
   51.6940   29.9470   53.5600 C   0  0  0  0  0  0  0  0  0  0  0  0
   51.0190   30.9540   52.8650 C   0  0  0  0  0  0  0  0  0  0  0  0
   51.6970   31.7190   51.9120 C   0  0  0  0  0  0  0  0  0  0  0  0
   51.0230   32.7170   51.2180 O   0  0  0  0  0  0  0  0  0  0  0  0
   53.0510   31.4810   51.6550 C   0  0  0  0  0  0  0  0  0  0  0  0
   55.5390   31.9470   50.8600 H   0  0  0  0  0  0  0  0  0  0  0  0
   57.5721   29.0842   51.6140 H   0  0  0  0  0  0  0  0  0  0  0  0
   60.0594   29.0499   51.7195 H   0  0  0  0  0  0  0  0  0  0  0  0
   60.9562   32.1403   49.3129 H   0  0  0  0  0  0  0  0  0  0  0  0
   64.9501   33.4138   48.2216 H   0  0  0  0  0  0  0  0  0  0  0  0
   65.7932   32.5246   50.4034 H   0  0  0  0  0  0  0  0  0  0  0  0
   60.1293   33.3733   51.5329 H   0  0  0  0  0  0  0  0  0  0  0  0
   57.6393   33.4103   51.4375 H   0  0  0  0  0  0  0  0  0  0  0  0
   53.5741   28.9112   53.8567 H   0  0  0  0  0  0  0  0  0  0  0  0
   51.1589   29.3419   54.3067 H   0  0  0  0  0  0  0  0  0  0  0  0
   49.9548   31.1444   53.0679 H   0  0  0  0  0  0  0  0  0  0  0  0
   53.5774   32.0824   50.8992 H   0  0  0  0  0  0  0  0  0  0  0  0
  1  2  2  0
  2  3  1  0
  3  4  1  0
  4  5  2  0
  5  6  1  0
  6  7  2  0
  7  8  1  0
  8  9  1  0
  9 10  2  0
 10 11  1  0
 11 12  1  0
 11 13  2  0
 13 14  1  0
 14 15  2  0
  7 16  1  0
 16 17  2  0
  2 18  1  0
 18 19  2  0
 19 20  1  0
 20 21  2  0
 21 22  1  0
 22 23  1  0
 22 24  2  0
 17  4  1  0
 24 18  1  0
 15  9  1  0
  3 25  1  0
  5 26  1  0
  6 27  1  0
 10 28  1  0
 13 29  1  0
 14 30  1  0
 16 31  1  0
 17 32  1  0
 19 33  1  0
 20 34  1  0
 21 35  1  0
 24 36  1  0
M  CHG  1  23  -1
M  END
>  <UniqueID>  (59) 
53

>  <SMILES>  (59) 
O=C(Nc1ccc(Oc2cc(Cl)ccn2)cc1)c1cccc([O-])c1

>  <Energy>  (59) 
50.23280914207254

>  <Genealogy>  (59) 
O=C(Nc1ccc(Oc2cc(Cl)ccn2)cc1)c1cccc([O-])c1 (protonated)
O=C(Nc1ccc(Oc2cc(Cl)ccn2)cc1)c1cccc([O-])c1 (3D coordinates assigned)
O=C(Nc1ccc(Oc2cc(Cl)ccn2)cc1)c1cccc([O-])c1 (optimized conformer: 50.23280914207254 kcal/mol)

>  <smiles>  (59) 
O=C(Nc1ccc(Oc2cc(Cl)ccn2)cc1)c1cccc(O)c1

>  <score_type>  (59) 
oracle

>  <origin>  (59) 
adg

>  <m_score__min__energy>  (59) 
-11.44

>  <m_primary>  (59) 
energy

$$$$
59:0
     RDKit          3D

 40 42  0  0  0  0  0  0  0  0999 V2000
   57.6550   24.8540   45.8510 C   0  0  0  0  0  0  0  0  0  0  0  0
   56.8990   26.4650   45.8990 S   0  0  0  0  0  0  0  0  0  0  0  0
   57.4150   27.1990   47.1050 O   0  0  0  0  0  0  0  0  0  0  0  0
   55.4060   26.3420   46.0130 O   0  0  0  0  0  0  0  0  0  0  0  0
   57.3160   27.3670   44.4740 N   0  0  0  0  0  0  0  0  0  0  0  0
   57.3740   28.8030   44.4080 C   0  0  0  0  0  0  0  0  0  0  0  0
   56.6280   29.4720   43.4040 C   0  0  0  0  0  0  0  0  0  0  0  0
   56.6530   30.8750   43.2950 C   0  0  0  0  0  0  0  0  0  0  0  0
   57.4360   31.5830   44.2010 C   0  0  0  0  0  0  0  0  0  0  0  0
   57.6020   32.9140   44.2700 N   0  0  0  0  0  0  0  0  0  0  0  0
   58.4520   33.1230   45.3040 C   0  0  0  0  0  0  0  0  0  0  0  0
   58.9050   34.4540   45.7330 C   0  0  0  0  0  0  0  0  0  0  0  0
   59.2480   35.3070   44.8710 O   0  0  0  0  0  0  0  0  0  0  0  0
   58.9590   34.7740   47.1280 N   0  0  0  0  0  0  0  0  0  0  0  0
   59.4620   33.8600   48.1480 C   0  0  0  0  0  0  0  0  0  0  0  0
   60.9630   33.7840   48.0850 C   0  0  0  0  0  0  0  0  0  0  0  0
   61.6040   33.5470   46.8580 C   0  0  0  0  0  0  0  0  0  0  0  0
   62.9980   33.4540   46.7960 C   0  0  0  0  0  0  0  0  0  0  0  0
   63.7600   33.5930   47.9590 C   0  0  0  0  0  0  0  0  0  0  0  0
   63.1300   33.8220   49.1860 C   0  0  0  0  0  0  0  0  0  0  0  0
   61.7360   33.9160   49.2510 C   0  0  0  0  0  0  0  0  0  0  0  0
   58.8270   31.9170   45.8920 C   0  0  0  0  0  0  0  0  0  0  0  0
   58.1650   30.9490   45.1700 C   0  0  0  0  0  0  0  0  0  0  0  0
   58.1640   29.5630   45.3070 C   0  0  0  0  0  0  0  0  0  0  0  0
   57.8226   24.4969   46.8778 H   0  0  0  0  0  0  0  0  0  0  0  0
   56.9917   24.1533   45.3228 H   0  0  0  0  0  0  0  0  0  0  0  0
   58.6178   24.9164   45.3228 H   0  0  0  0  0  0  0  0  0  0  0  0
   57.4720   26.8160   43.6010 H   0  0  0  0  0  0  0  0  0  0  0  0
   56.0204   28.8850   42.6995 H   0  0  0  0  0  0  0  0  0  0  0  0
   56.0723   31.3948   42.5187 H   0  0  0  0  0  0  0  0  0  0  0  0
   57.1630   33.6350   43.6530 H   0  0  0  0  0  0  0  0  0  0  0  0
   59.1582   34.2218   49.1414 H   0  0  0  0  0  0  0  0  0  0  0  0
   59.0447   32.8582   47.9685 H   0  0  0  0  0  0  0  0  0  0  0  0
   61.0066   33.4340   45.9413 H   0  0  0  0  0  0  0  0  0  0  0  0
   63.4947   33.2714   45.8316 H   0  0  0  0  0  0  0  0  0  0  0  0
   64.8566   33.5222   47.9091 H   0  0  0  0  0  0  0  0  0  0  0  0
   63.7312   33.9283   50.1010 H   0  0  0  0  0  0  0  0  0  0  0  0
   61.2431   34.0939   50.2182 H   0  0  0  0  0  0  0  0  0  0  0  0
   59.5040   31.7700   46.7464 H   0  0  0  0  0  0  0  0  0  0  0  0
   58.7594   29.0718   46.0907 H   0  0  0  0  0  0  0  0  0  0  0  0
  1  2  1  0
  2  3  2  0
  2  4  2  0
  2  5  1  0
  5  6  1  0
  6  7  2  0
  7  8  1  0
  8  9  2  0
  9 10  1  0
 10 11  1  0
 11 12  1  0
 12 13  2  0
 12 14  1  0
 14 15  1  0
 15 16  1  0
 16 17  2  0
 17 18  1  0
 18 19  2  0
 19 20  1  0
 20 21  2  0
 11 22  2  0
 22 23  1  0
 23 24  2  0
 24  6  1  0
 23  9  1  0
 21 16  1  0
  1 25  1  0
  1 26  1  0
  1 27  1  0
  5 28  1  0
  7 29  1  0
  8 30  1  0
 10 31  1  0
 15 32  1  0
 15 33  1  0
 17 34  1  0
 18 35  1  0
 19 36  1  0
 20 37  1  0
 21 38  1  0
 22 39  1  0
 24 40  1  0
M  CHG  1  14  -1
M  END
>  <UniqueID>  (60) 
54

>  <SMILES>  (60) 
CS(=O)(=O)Nc1ccc2[nH]c(C(=O)[N-]Cc3ccccc3)cc2c1

>  <Energy>  (60) 
70.16795451567411

>  <Genealogy>  (60) 
CS(=O)(=O)Nc1ccc2[nH]c(C(=O)[N-]Cc3ccccc3)cc2c1 (protonated)
CS(=O)(=O)Nc1ccc2[nH]c(C(=O)[N-]Cc3ccccc3)cc2c1 (3D coordinates assigned)
CS(=O)(=O)Nc1ccc2[nH]c(C(=O)[N-]Cc3ccccc3)cc2c1 (optimized conformer: 70.16795451567411 kcal/mol)

>  <smiles>  (60) 
CS(=O)(=O)Nc1ccc2[nH]c(C(=O)NCc3ccccc3)cc2c1

>  <score_type>  (60) 
oracle

>  <origin>  (60) 
adg

>  <m_score__min__energy>  (60) 
-9.9199999999999999

>  <m_primary>  (60) 
energy

$$$$
60:0
     RDKit          3D

 58 61  0  0  0  0  0  0  0  0999 V2000
   60.9500   32.6800   48.4790 N   0  0  0  0  0  0  0  0  0  0  0  0
   59.4060   33.4620   48.4340 S   0  0  0  0  0  0  0  0  0  0  0  0
   58.4620   32.7460   49.3560 O   0  0  0  0  0  0  0  0  0  0  0  0
   59.5420   34.8850   48.9030 O   0  0  0  0  0  0  0  0  0  0  0  0
   58.7880   33.4400   46.7800 C   0  0  0  0  0  0  0  0  0  0  0  0
   59.2890   34.3470   45.8360 C   0  0  0  0  0  0  0  0  0  0  0  0
   58.8160   34.3280   44.5220 C   0  0  0  0  0  0  0  0  0  0  0  0
   57.8580   33.3900   44.1350 C   0  0  0  0  0  0  0  0  0  0  0  0
   57.3610   32.4640   45.0610 C   0  0  0  0  0  0  0  0  0  0  0  0
   56.3870   31.4830   44.6930 N   0  0  0  0  0  0  0  0  0  0  0  0
   56.7280   29.7920   44.4880 S   0  0  0  0  0  0  0  0  0  0  0  0
   57.0160   29.5330   43.0390 O   0  0  0  0  0  0  0  0  0  0  0  0
   55.5110   28.9980   44.8730 O   0  0  0  0  0  0  0  0  0  0  0  0
   58.1230   29.2830   45.4400 C   0  0  0  0  0  0  0  0  0  0  0  0
   59.0520   28.3880   44.8930 C   0  0  0  0  0  0  0  0  0  0  0  0
   60.1770   28.0030   45.6290 C   0  0  0  0  0  0  0  0  0  0  0  0
   60.3780   28.5110   46.9170 C   0  0  0  0  0  0  0  0  0  0  0  0
   59.4490   29.3960   47.4880 C   0  0  0  0  0  0  0  0  0  0  0  0
   59.7090   29.9510   48.7900 N   0  0  0  0  0  0  0  0  0  0  0  0
   59.9570   29.1650   49.9670 C   0  0  0  0  0  0  0  0  0  0  0  0
   60.2830   27.9530   49.8760 O   0  0  0  0  0  0  0  0  0  0  0  0
   59.8780   29.7980   51.3200 C   0  0  0  0  0  0  0  0  0  0  0  0
   58.4770   29.7480   51.8410 C   0  0  0  0  0  0  0  0  0  0  0  0
   57.2170   30.7300   51.3230 S   0  0  0  0  0  0  0  0  0  0  0  0
   56.0950   30.0260   52.3700 C   0  0  0  0  0  0  0  0  0  0  0  0
   54.7070   30.3960   52.4880 N   0  0  0  0  0  0  0  0  0  0  0  0
   53.9700   30.7760   51.2710 C   0  0  0  0  0  0  0  0  0  0  0  0
   52.5980   31.3780   51.6010 C   0  0  0  0  0  0  0  0  0  0  0  0
   51.7900   30.4730   52.5460 C   0  0  0  0  0  0  0  0  0  0  0  0
   52.6280   29.8610   53.6900 C   0  0  0  0  0  0  0  0  0  0  0  0
   54.0350   30.4610   53.7950 C   0  0  0  0  0  0  0  0  0  0  0  0
   56.6630   29.0470   53.1090 N   0  0  0  0  0  0  0  0  0  0  0  0
   57.9790   28.8900   52.8140 C   0  0  0  0  0  0  0  0  0  0  0  0
   58.7580   27.9360   53.4520 O   0  0  0  0  0  0  0  0  0  0  0  0
   58.3230   29.7860   46.7360 C   0  0  0  0  0  0  0  0  0  0  0  0
   57.8160   32.5080   46.3900 C   0  0  0  0  0  0  0  0  0  0  0  0
   60.8660   31.8980   49.1520 H   0  0  0  0  0  0  0  0  0  0  0  0
   60.0576   35.0765   46.1312 H   0  0  0  0  0  0  0  0  0  0  0  0
   59.1996   35.0543   43.7903 H   0  0  0  0  0  0  0  0  0  0  0  0
   57.4915   33.3778   43.0979 H   0  0  0  0  0  0  0  0  0  0  0  0
   58.8958   27.9867   43.8808 H   0  0  0  0  0  0  0  0  0  0  0  0
   60.9040   27.3007   45.1952 H   0  0  0  0  0  0  0  0  0  0  0  0
   61.2709   28.2148   47.4871 H   0  0  0  0  0  0  0  0  0  0  0  0
   59.6910   30.9920   48.8950 H   0  0  0  0  0  0  0  0  0  0  0  0
   60.5409   29.2575   52.0117 H   0  0  0  0  0  0  0  0  0  0  0  0
   60.1901   30.8497   51.2394 H   0  0  0  0  0  0  0  0  0  0  0  0
   54.5603   31.5188   50.7145 H   0  0  0  0  0  0  0  0  0  0  0  0
   53.8099   29.8683   50.6706 H   0  0  0  0  0  0  0  0  0  0  0  0
   52.7448   32.3557   52.0833 H   0  0  0  0  0  0  0  0  0  0  0  0
   52.0349   31.4812   50.6617 H   0  0  0  0  0  0  0  0  0  0  0  0
   50.9803   31.0704   52.9904 H   0  0  0  0  0  0  0  0  0  0  0  0
   51.4118   29.6351   51.9419 H   0  0  0  0  0  0  0  0  0  0  0  0
   52.1020   30.0346   54.6403 H   0  0  0  0  0  0  0  0  0  0  0  0
   52.7449   28.7891   53.4726 H   0  0  0  0  0  0  0  0  0  0  0  0
   53.9607   31.5108   54.1149 H   0  0  0  0  0  0  0  0  0  0  0  0
   54.6186   29.8880   54.5306 H   0  0  0  0  0  0  0  0  0  0  0  0
   57.5954   30.4894   47.1671 H   0  0  0  0  0  0  0  0  0  0  0  0
   57.4061   31.8053   47.1304 H   0  0  0  0  0  0  0  0  0  0  0  0
  1  2  1  0
  2  3  2  0
  2  4  2  0
  2  5  1  0
  5  6  2  0
  6  7  1  0
  7  8  2  0
  8  9  1  0
  9 10  1  0
 10 11  1  0
 11 12  2  0
 11 13  2  0
 11 14  1  0
 14 15  2  0
 15 16  1  0
 16 17  2  0
 17 18  1  0
 18 19  1  0
 19 20  1  0
 20 21  2  0
 20 22  1  0
 22 23  1  0
 23 24  1  0
 24 25  1  0
 25 26  1  0
 26 27  1  0
 27 28  1  0
 28 29  1  0
 29 30  1  0
 30 31  1  0
 25 32  2  0
 32 33  1  0
 33 34  1  0
 18 35  2  0
  9 36  2  0
 36  5  1  0
 35 14  1  0
 33 23  2  0
 31 26  1  0
  1 37  1  0
  6 38  1  0
  7 39  1  0
  8 40  1  0
 15 41  1  0
 16 42  1  0
 17 43  1  0
 19 44  1  0
 22 45  1  0
 22 46  1  0
 27 47  1  0
 27 48  1  0
 28 49  1  0
 28 50  1  0
 29 51  1  0
 29 52  1  0
 30 53  1  0
 30 54  1  0
 31 55  1  0
 31 56  1  0
 35 57  1  0
 36 58  1  0
M  CHG  3   1  -1  10  -1  34  -1
M  END
>  <UniqueID>  (61) 
55

>  <SMILES>  (61) 
[NH-]S(=O)(=O)c1cccc([N-]S(=O)(=O)c2cccc(NC(=O)Cc3sc(N4CCCCC4)nc3[O-])c2)c1

>  <Energy>  (61) 
99.80328900556233

>  <Genealogy>  (61) 
[NH-]S(=O)(=O)c1cccc([N-]S(=O)(=O)c2cccc(NC(=O)Cc3sc(N4CCCCC4)nc3[O-])c2)c1 (protonated)
[NH-]S(=O)(=O)c1cccc([N-]S(=O)(=O)c2cccc(NC(=O)Cc3sc(N4CCCCC4)nc3[O-])c2)c1 (3D coordinates assigned)
[NH-]S(=O)(=O)c1cccc([N-]S(=O)(=O)c2cccc(NC(=O)Cc3sc(N4CCCCC4)nc3[O-])c2)c1 (nonaromatic ring conformer: 99.80328900556233 kcal/mol)

>  <smiles>  (61) 
NS(=O)(=O)c1cccc(NS(=O)(=O)c2cccc(NC(=O)Cc3sc(N4CCCCC4)nc3O)c2)c1

>  <score_type>  (61) 
oracle

>  <origin>  (61) 
adg

>  <m_score__min__energy>  (61) 
-16.120000000000001

>  <m_primary>  (61) 
energy

$$$$
61:0
     RDKit          3D

 35 37  0  0  0  0  0  0  0  0999 V2000
   62.9440   30.7070   49.7640 H   0  0  0  0  0  0  0  0  0  0  0  0
   62.7040   31.0980   48.8600 O   0  0  0  0  0  0  0  0  0  0  0  0
   61.5570   30.7000   48.1770 C   0  0  0  0  0  0  0  0  0  0  0  0
   60.3770   30.4590   48.8890 C   0  0  0  0  0  0  0  0  0  0  0  0
   60.3617   30.5809   49.9821 H   0  0  0  0  0  0  0  0  0  0  0  0
   59.2180   30.0640   48.2160 C   0  0  0  0  0  0  0  0  0  0  0  0
   58.2938   29.8758   48.7820 H   0  0  0  0  0  0  0  0  0  0  0  0
   59.2270   29.9060   46.8200 C   0  0  0  0  0  0  0  0  0  0  0  0
   57.9870   29.5130   46.1000 C   0  0  0  0  0  0  0  0  0  0  0  0
   57.4320   28.2250   46.2830 C   0  0  0  0  0  0  0  0  0  0  0  0
   58.0390   27.2610   47.1710 C   0  0  0  0  0  0  0  0  0  0  0  0
   58.5260   26.4890   47.8840 N   0  0  0  0  0  0  0  0  0  0  0  0
   56.2430   27.8900   45.6210 C   0  0  0  0  0  0  0  0  0  0  0  0
   55.6740   26.6310   45.7820 O   0  0  0  0  0  0  0  0  0  0  0  0
   55.6290   28.7950   44.8200 N   0  0  0  0  0  0  0  0  0  0  0  0
   56.1300   30.0400   44.6180 C   0  0  0  0  0  0  0  0  0  0  0  0
   55.5110   30.8370   43.8630 O   0  0  0  0  0  0  0  0  0  0  0  0
   57.3310   30.4290   45.2370 C   0  0  0  0  0  0  0  0  0  0  0  0
   57.8600   31.7920   44.9900 C   0  0  0  0  0  0  0  0  0  0  0  0
   58.4608   31.9569   44.0835 H   0  0  0  0  0  0  0  0  0  0  0  0
   57.6560   32.8060   45.7820 N   0  0  0  0  0  0  0  0  0  0  0  0
   58.5990   33.3950   46.6870 C   0  0  0  0  0  0  0  0  0  0  0  0
   58.6310   33.1600   48.0180 N   0  0  0  0  0  0  0  0  0  0  0  0
   59.6460   33.8330   48.6200 C   0  0  0  0  0  0  0  0  0  0  0  0
   59.8480   33.7930   50.0980 C   0  0  0  0  0  0  0  0  0  0  0  0
   58.8900   33.9827   50.6043 H   0  0  0  0  0  0  0  0  0  0  0  0
   60.2270   32.8024   50.3896 H   0  0  0  0  0  0  0  0  0  0  0  0
   60.5759   34.5644   50.3896 H   0  0  0  0  0  0  0  0  0  0  0  0
   60.4280   34.6120   47.7690 C   0  0  0  0  0  0  0  0  0  0  0  0
   61.2833   35.2367   48.0660 H   0  0  0  0  0  0  0  0  0  0  0  0
   59.8310   34.4270   46.2060 S   0  0  0  0  0  0  0  0  0  0  0  0
   60.4180   30.1400   46.1110 C   0  0  0  0  0  0  0  0  0  0  0  0
   60.4395   30.0084   45.0191 H   0  0  0  0  0  0  0  0  0  0  0  0
   61.5750   30.5390   46.7860 C   0  0  0  0  0  0  0  0  0  0  0  0
   62.5015   30.7269   46.2236 H   0  0  0  0  0  0  0  0  0  0  0  0
  1  2  1  0
  2  3  1  0
  3  4  2  0
  4  5  1  0
  4  6  1  0
  6  7  1  0
  6  8  2  0
  8  9  1  0
  9 10  1  0
 10 11  1  0
 11 12  3  0
 10 13  2  0
 13 14  1  0
 13 15  1  0
 15 16  1  0
 16 17  2  0
 16 18  1  0
 18 19  1  0
 19 20  1  0
 19 21  2  0
 21 22  1  0
 22 23  2  0
 23 24  1  0
 24 25  1  0
 25 26  1  0
 25 27  1  0
 25 28  1  0
 24 29  2  0
 29 30  1  0
 29 31  1  0
  8 32  1  0
 32 33  1  0
 32 34  2  0
 34 35  1  0
 34  3  1  0
 18  9  2  0
 31 22  1  0
M  CHG  2  14  -1  15  -1
M  END
>  <UniqueID>  (62) 
56

>  <SMILES>  (62) 
Cc1csc(/N=C\c2c(-c3ccc(O)cc3)c(C#N)c([O-])[n-]c2=O)n1

>  <Energy>  (62) 
83.4541624998695

>  <Genealogy>  (62) 
Cc1csc(N=Cc2c(-c3ccc(O)cc3)c(C#N)c([O-])[n-]c2=O)n1 (protonated)
Cc1csc(/N=C\c2c(-c3ccc(O)cc3)c(C#N)c([O-])[n-]c2=O)n1 (cis-trans isomerization)
Cc1csc(/N=C\c2c(-c3ccc(O)cc3)c(C#N)c([O-])[n-]c2=O)n1 (3D coordinates assigned)
Cc1csc(/N=C\c2c(-c3ccc(O)cc3)c(C#N)c([O-])[n-]c2=O)n1 (optimized conformer: 83.4541624998695 kcal/mol)

>  <smiles>  (62) 
Cc1csc(N=Cc2c(-c3ccc(O)cc3)c(C#N)c(O)[nH]c2=O)n1

>  <score_type>  (62) 
oracle

>  <origin>  (62) 
adg

>  <m_score__min__energy>  (62) 
-10.619999999999999

>  <m_primary>  (62) 
energy

$$$$
62:0
     RDKit          3D

 39 41  0  0  0  0  0  0  0  0999 V2000
   59.4156   31.9925   47.8880 H   0  0  0  0  0  0  0  0  0  0  0  0
   58.8020   32.2320   47.0070 C   0  0  0  0  0  0  0  0  0  0  0  0
   58.0380   31.3050   46.3720 N   0  0  0  0  0  0  0  0  0  0  0  0
   57.3850   31.8410   45.3160 C   0  0  0  0  0  0  0  0  0  0  0  0
   56.6400   31.1620   44.4970 N   0  0  0  0  0  0  0  0  0  0  0  0
   56.3280   29.7660   44.6090 C   0  0  0  0  0  0  0  0  0  0  0  0
   55.1420   29.3750   44.7790 O   0  0  0  0  0  0  0  0  0  0  0  0
   57.4390   28.7660   44.5790 C   0  0  0  0  0  0  0  0  0  0  0  0
   58.3641   29.2636   44.2527 H   0  0  0  0  0  0  0  0  0  0  0  0
   57.1716   27.9609   43.8788 H   0  0  0  0  0  0  0  0  0  0  0  0
   57.7000   28.0410   46.2370 S   0  0  0  0  0  0  0  0  0  0  0  0
   56.9350   26.4690   45.8440 C   0  0  0  0  0  0  0  0  0  0  0  0
   57.7020   25.4280   45.4250 N   0  0  0  0  0  0  0  0  0  0  0  0
   57.1440   24.2380   45.0810 C   0  0  0  0  0  0  0  0  0  0  0  0
   58.0110   23.1160   44.6080 C   0  0  0  0  0  0  0  0  0  0  0  0
   58.4243   22.5811   45.4758 H   0  0  0  0  0  0  0  0  0  0  0  0
   57.4127   22.4214   44.0001 H   0  0  0  0  0  0  0  0  0  0  0  0
   58.8340   23.5198   44.0001 H   0  0  0  0  0  0  0  0  0  0  0  0
   55.7580   24.0720   45.1750 C   0  0  0  0  0  0  0  0  0  0  0  0
   55.2861   23.1149   44.9078 H   0  0  0  0  0  0  0  0  0  0  0  0
   54.9880   25.1500   45.6160 C   0  0  0  0  0  0  0  0  0  0  0  0
   53.7380   25.0370   45.7130 O   0  0  0  0  0  0  0  0  0  0  0  0
   55.5870   26.3250   45.9390 N   0  0  0  0  0  0  0  0  0  0  0  0
   57.7290   33.4720   45.1130 S   0  0  0  0  0  0  0  0  0  0  0  0
   58.7470   33.5080   46.4550 C   0  0  0  0  0  0  0  0  0  0  0  0
   59.5750   34.6800   46.8760 C   0  0  0  0  0  0  0  0  0  0  0  0
   59.6788   35.3765   46.0310 H   0  0  0  0  0  0  0  0  0  0  0  0
   59.0827   35.1898   47.7173 H   0  0  0  0  0  0  0  0  0  0  0  0
   60.9370   34.2110   47.3070 C   0  0  0  0  0  0  0  0  0  0  0  0
   61.2870   34.2020   48.6680 C   0  0  0  0  0  0  0  0  0  0  0  0
   60.5459   34.4949   49.4263 H   0  0  0  0  0  0  0  0  0  0  0  0
   62.5740   33.8220   49.0620 C   0  0  0  0  0  0  0  0  0  0  0  0
   62.8406   33.8104   50.1291 H   0  0  0  0  0  0  0  0  0  0  0  0
   63.5220   33.4570   48.1020 C   0  0  0  0  0  0  0  0  0  0  0  0
   64.5339   33.1582   48.4133 H   0  0  0  0  0  0  0  0  0  0  0  0
   63.1830   33.4720   46.7460 C   0  0  0  0  0  0  0  0  0  0  0  0
   63.9292   33.1846   45.9906 H   0  0  0  0  0  0  0  0  0  0  0  0
   61.8990   33.8510   46.3480 C   0  0  0  0  0  0  0  0  0  0  0  0
   61.6396   33.8678   45.2791 H   0  0  0  0  0  0  0  0  0  0  0  0
  1  2  1  0
  2  3  1  0
  3  4  1  0
  4  5  2  0
  5  6  1  0
  6  7  2  0
  6  8  1  0
  8  9  1  0
  8 10  1  0
  8 11  1  0
 11 12  1  0
 12 13  2  0
 13 14  1  0
 14 15  1  0
 15 16  1  0
 15 17  1  0
 15 18  1  0
 14 19  2  0
 19 20  1  0
 19 21  1  0
 21 22  2  0
 21 23  1  0
  4 24  1  0
 24 25  1  0
 25 26  1  0
 26 27  1  0
 26 28  1  0
 26 29  1  0
 29 30  2  0
 30 31  1  0
 30 32  1  0
 32 33  1  0
 32 34  2  0
 34 35  1  0
 34 36  1  0
 36 37  1  0
 36 38  2  0
 38 39  1  0
 25  2  2  0
 38 29  1  0
 23 12  1  0
M  CHG  2   3  -1  23  -1
M  END
>  <UniqueID>  (63) 
57

>  <SMILES>  (63) 
Cc1cc(=O)[n-]c(SCC(=O)/N=c2\[n-]cc(Cc3ccccc3)s2)n1

>  <Energy>  (63) 
62.21164455491147

>  <Genealogy>  (63) 
Cc1cc(=O)[n-]c(SCC(=O)N=c2[n-]cc(Cc3ccccc3)s2)n1 (protonated)
Cc1cc(=O)[n-]c(SCC(=O)/N=c2\[n-]cc(Cc3ccccc3)s2)n1 (cis-trans isomerization)
Cc1cc(=O)[n-]c(SCC(=O)/N=c2\[n-]cc(Cc3ccccc3)s2)n1 (3D coordinates assigned)
Cc1cc(=O)[n-]c(SCC(=O)/N=c2\[n-]cc(Cc3ccccc3)s2)n1 (optimized conformer: 62.21164455491147 kcal/mol)

>  <smiles>  (63) 
Cc1cc(=O)[nH]c(SCC(=O)N=c2[nH]cc(Cc3ccccc3)s2)n1

>  <score_type>  (63) 
oracle

>  <origin>  (63) 
adg

>  <m_score__min__energy>  (63) 
-12.5

>  <m_primary>  (63) 
energy

$$$$
63:0
     RDKit          3D

 41 43  0  0  0  0  0  0  0  0999 V2000
   59.6380   35.6200   45.7940 C   0  0  0  0  0  0  0  0  0  0  0  0
   58.6750   35.0770   44.8950 O   0  0  0  0  0  0  0  0  0  0  0  0
   58.3380   33.7170   44.8240 C   0  0  0  0  0  0  0  0  0  0  0  0
   58.1590   33.0460   43.6010 C   0  0  0  0  0  0  0  0  0  0  0  0
   57.8230   31.6880   43.5840 C   0  0  0  0  0  0  0  0  0  0  0  0
   57.6390   30.9860   44.7830 C   0  0  0  0  0  0  0  0  0  0  0  0
   57.3330   29.5390   44.7320 C   0  0  0  0  0  0  0  0  0  0  0  0
   57.8560   28.6000   45.5360 C   0  0  0  0  0  0  0  0  0  0  0  0
   57.1560   27.3760   45.9970 C   0  0  0  0  0  0  0  0  0  0  0  0
   55.8530   27.1890   45.6500 N   0  0  0  0  0  0  0  0  0  0  0  0
   55.1890   26.0510   45.9670 C   0  0  0  0  0  0  0  0  0  0  0  0
   53.9810   25.9180   45.6450 O   0  0  0  0  0  0  0  0  0  0  0  0
   55.8290   25.0520   46.6250 N   0  0  0  0  0  0  0  0  0  0  0  0
   57.1320   25.1700   46.9830 C   0  0  0  0  0  0  0  0  0  0  0  0
   57.6880   24.2210   47.5990 O   0  0  0  0  0  0  0  0  0  0  0  0
   57.8420   26.3480   46.6840 C   0  0  0  0  0  0  0  0  0  0  0  0
   59.2610   26.4900   47.0980 C   0  0  0  0  0  0  0  0  0  0  0  0
   60.1630   25.9430   46.4130 O   0  0  0  0  0  0  0  0  0  0  0  0
   59.6370   27.2730   48.2390 N   0  0  0  0  0  0  0  0  0  0  0  0
   59.8600   28.6900   48.2320 C   0  0  0  0  0  0  0  0  0  0  0  0
   59.2220   29.4860   49.1920 C   0  0  0  0  0  0  0  0  0  0  0  0
   59.4190   30.8710   49.2020 C   0  0  0  0  0  0  0  0  0  0  0  0
   60.2360   31.4700   48.2400 C   0  0  0  0  0  0  0  0  0  0  0  0
   60.8530   30.6860   47.2610 C   0  0  0  0  0  0  0  0  0  0  0  0
   60.6670   29.3000   47.2540 C   0  0  0  0  0  0  0  0  0  0  0  0
   57.8460   31.6520   46.0020 C   0  0  0  0  0  0  0  0  0  0  0  0
   58.1820   33.0070   46.0200 C   0  0  0  0  0  0  0  0  0  0  0  0
   59.3159   35.4384   46.8300 H   0  0  0  0  0  0  0  0  0  0  0  0
   60.6119   35.1381   45.6230 H   0  0  0  0  0  0  0  0  0  0  0  0
   59.7296   36.7028   45.6230 H   0  0  0  0  0  0  0  0  0  0  0  0
   58.2837   33.5912   42.6538 H   0  0  0  0  0  0  0  0  0  0  0  0
   57.7024   31.1674   42.6225 H   0  0  0  0  0  0  0  0  0  0  0  0
   56.6148   29.2040   43.9692 H   0  0  0  0  0  0  0  0  0  0  0  0
   58.8893   28.7506   45.8817 H   0  0  0  0  0  0  0  0  0  0  0  0
   58.5639   29.0205   49.9405 H   0  0  0  0  0  0  0  0  0  0  0  0
   58.9297   31.4896   49.9688 H   0  0  0  0  0  0  0  0  0  0  0  0
   60.3937   32.5586   48.2530 H   0  0  0  0  0  0  0  0  0  0  0  0
   61.4853   31.1596   46.4955 H   0  0  0  0  0  0  0  0  0  0  0  0
   61.1528   28.6851   46.4820 H   0  0  0  0  0  0  0  0  0  0  0  0
   57.7427   31.1023   46.9492 H   0  0  0  0  0  0  0  0  0  0  0  0
   58.3253   33.5208   46.9820 H   0  0  0  0  0  0  0  0  0  0  0  0
  1  2  1  0
  2  3  1  0
  3  4  2  0
  4  5  1  0
  5  6  2  0
  6  7  1  0
  7  8  2  3
  8  9  1  0
  9 10  1  0
 10 11  1  0
 11 12  2  0
 11 13  1  0
 13 14  1  0
 14 15  2  0
 14 16  1  0
 16 17  1  0
 17 18  2  0
 17 19  1  0
 19 20  1  0
 20 21  2  0
 21 22  1  0
 22 23  2  0
 23 24  1  0
 24 25  2  0
  6 26  1  0
 26 27  2  0
 27  3  1  0
 16  9  2  0
 25 20  1  0
  1 28  1  0
  1 29  1  0
  1 30  1  0
  4 31  1  0
  5 32  1  0
  7 33  1  0
  8 34  1  0
 21 35  1  0
 22 36  1  0
 23 37  1  0
 24 38  1  0
 25 39  1  0
 26 40  1  0
 27 41  1  0
M  CHG  3  10  -1  13  -1  19  -1
M  END
>  <UniqueID>  (64) 
58

>  <SMILES>  (64) 
COc1ccc(C=Cc2[n-]c(=O)[n-]c(=O)c2C(=O)[N-]c2ccccc2)cc1

>  <Energy>  (64) 
60.77937779174129

>  <Genealogy>  (64) 
COc1ccc(C=Cc2[n-]c(=O)[n-]c(=O)c2C(=O)[N-]c2ccccc2)cc1 (protonated)
COc1ccc(C=Cc2[n-]c(=O)[n-]c(=O)c2C(=O)[N-]c2ccccc2)cc1 (3D coordinates assigned)
COc1ccc(C=Cc2[n-]c(=O)[n-]c(=O)c2C(=O)[N-]c2ccccc2)cc1 (optimized conformer: 60.77937779174129 kcal/mol)

>  <smiles>  (64) 
COc1ccc(C=Cc2[nH]c(=O)[nH]c(=O)c2C(=O)Nc2ccccc2)cc1

>  <score_type>  (64) 
oracle

>  <origin>  (64) 
adg

>  <m_score__min__energy>  (64) 
-12.68

>  <m_primary>  (64) 
energy

$$$$
64:0
     RDKit          3D

 42 44  0  0  0  0  0  0  0  0999 V2000
   53.7550   24.6600   45.5000 C   0  0  0  0  0  0  0  0  0  0  0  0
   54.3870   25.9690   45.6360 N   0  0  0  0  0  0  0  0  0  0  0  0
   56.0990   25.7750   45.8530 S   0  0  0  0  0  0  0  0  0  0  0  0
   56.6560   24.9580   44.7210 O   0  0  0  0  0  0  0  0  0  0  0  0
   56.3620   25.0550   47.1470 O   0  0  0  0  0  0  0  0  0  0  0  0
   56.8790   27.3520   45.8540 C   0  0  0  0  0  0  0  0  0  0  0  0
   58.1290   27.5070   46.4630 C   0  0  0  0  0  0  0  0  0  0  0  0
   58.7720   28.7470   46.4440 C   0  0  0  0  0  0  0  0  0  0  0  0
   58.1530   29.8370   45.8020 C   0  0  0  0  0  0  0  0  0  0  0  0
   58.7200   31.0080   45.7110 N   0  0  0  0  0  0  0  0  0  0  0  0
   58.9620   31.9580   46.8070 C   0  0  0  0  0  0  0  0  0  0  0  0
   59.1910   33.3570   46.2820 C   0  0  0  0  0  0  0  0  0  0  0  0
   60.2740   34.2010   46.5170 C   0  0  0  0  0  0  0  0  0  0  0  0
   61.4540   33.9160   47.3420 C   0  0  0  0  0  0  0  0  0  0  0  0
   61.4260   34.1390   48.7230 C   0  0  0  0  0  0  0  0  0  0  0  0
   62.5730   33.9050   49.4870 C   0  0  0  0  0  0  0  0  0  0  0  0
   63.7540   33.4610   48.8750 C   0  0  0  0  0  0  0  0  0  0  0  0
   63.7820   33.2350   47.5040 C   0  0  0  0  0  0  0  0  0  0  0  0
   62.6330   33.4530   46.7380 C   0  0  0  0  0  0  0  0  0  0  0  0
   60.0410   35.3830   45.9160 N   0  0  0  0  0  0  0  0  0  0  0  0
   58.8910   35.3070   45.3090 O   0  0  0  0  0  0  0  0  0  0  0  0
   58.3410   34.1220   45.4970 C   0  0  0  0  0  0  0  0  0  0  0  0
   57.0230   33.7100   44.9270 C   0  0  0  0  0  0  0  0  0  0  0  0
   56.9280   29.6600   45.2320 N   0  0  0  0  0  0  0  0  0  0  0  0
   56.2830   28.4600   45.2430 C   0  0  0  0  0  0  0  0  0  0  0  0
   53.5543   24.2442   46.4984 H   0  0  0  0  0  0  0  0  0  0  0  0
   52.8085   24.7652   44.9496 H   0  0  0  0  0  0  0  0  0  0  0  0
   54.4261   23.9842   44.9496 H   0  0  0  0  0  0  0  0  0  0  0  0
   58.6072   26.6493   46.9586 H   0  0  0  0  0  0  0  0  0  0  0  0
   59.7529   28.8710   46.9261 H   0  0  0  0  0  0  0  0  0  0  0  0
   58.0879   31.9647   47.4747 H   0  0  0  0  0  0  0  0  0  0  0  0
   59.8643   31.6391   47.3494 H   0  0  0  0  0  0  0  0  0  0  0  0
   60.5048   34.4971   49.2058 H   0  0  0  0  0  0  0  0  0  0  0  0
   62.5490   34.0701   50.5743 H   0  0  0  0  0  0  0  0  0  0  0  0
   64.6573   33.2918   49.4794 H   0  0  0  0  0  0  0  0  0  0  0  0
   64.7069   32.8851   47.0223 H   0  0  0  0  0  0  0  0  0  0  0  0
   62.6532   33.2604   45.6552 H   0  0  0  0  0  0  0  0  0  0  0  0
   60.6680   36.2100   45.9050 H   0  0  0  0  0  0  0  0  0  0  0  0
   56.3218   33.4908   45.7457 H   0  0  0  0  0  0  0  0  0  0  0  0
   56.6204   34.5251   44.3078 H   0  0  0  0  0  0  0  0  0  0  0  0
   57.1563   32.8107   44.3078 H   0  0  0  0  0  0  0  0  0  0  0  0
   55.2939   28.3626   44.7716 H   0  0  0  0  0  0  0  0  0  0  0  0
  1  2  1  0
  2  3  1  0
  3  4  2  0
  3  5  2  0
  3  6  1  0
  6  7  1  0
  7  8  2  0
  8  9  1  0
  9 10  2  3
 10 11  1  0
 11 12  1  0
 12 13  1  0
 13 14  1  0
 14 15  2  0
 15 16  1  0
 16 17  2  0
 17 18  1  0
 18 19  2  0
 13 20  2  0
 20 21  1  0
 21 22  1  0
 22 23  1  0
  9 24  1  0
 24 25  1  0
 25  6  2  0
 22 12  2  0
 19 14  1  0
  1 26  1  0
  1 27  1  0
  1 28  1  0
  7 29  1  0
  8 30  1  0
 11 31  1  0
 11 32  1  0
 15 33  1  0
 16 34  1  0
 17 35  1  0
 18 36  1  0
 19 37  1  0
 20 38  1  0
 23 39  1  0
 23 40  1  0
 23 41  1  0
 25 42  1  0
M  CHG  3   2  -1  20   1  24  -1
M  END
>  <UniqueID>  (65) 
59

>  <SMILES>  (65) 
C[N-]S(=O)(=O)c1ccc(=NCc2c(-c3ccccc3)[nH+]oc2C)[n-]c1

>  <Energy>  (65) 
79.13374749629894

>  <Genealogy>  (65) 
C[N-]S(=O)(=O)c1ccc(=NCc2c(-c3ccccc3)[nH+]oc2C)[n-]c1 (protonated)
C[N-]S(=O)(=O)c1ccc(=NCc2c(-c3ccccc3)[nH+]oc2C)[n-]c1 (3D coordinates assigned)
C[N-]S(=O)(=O)c1ccc(=NCc2c(-c3ccccc3)[nH+]oc2C)[n-]c1 (optimized conformer: 79.13374749629894 kcal/mol)

>  <smiles>  (65) 
CNS(=O)(=O)c1ccc(=NCc2c(-c3ccccc3)noc2C)[nH]c1

>  <score_type>  (65) 
oracle

>  <origin>  (65) 
adg

>  <m_score__min__energy>  (65) 
-10.33

>  <m_primary>  (65) 
energy

$$$$
65:0
     RDKit          3D

 25 27  0  0  0  0  0  0  0  0999 V2000
   58.3270   26.7280   47.6840 O   0  0  0  0  0  0  0  0  0  0  0  0
   58.4310   27.8660   47.1520 C   0  0  0  0  0  0  0  0  0  0  0  0
   57.5330   28.1920   46.0860 N   0  0  0  0  0  0  0  0  0  0  0  0
   57.5130   29.3470   45.2390 C   0  0  0  0  0  0  0  0  0  0  0  0
   56.2980   29.6890   44.6210 C   0  0  0  0  0  0  0  0  0  0  0  0
   55.1430   28.9710   44.9080 O   0  0  0  0  0  0  0  0  0  0  0  0
   56.2380   30.7490   43.7120 C   0  0  0  0  0  0  0  0  0  0  0  0
   57.3920   31.4610   43.3930 C   0  0  0  0  0  0  0  0  0  0  0  0
   58.6090   31.1170   43.9820 C   0  0  0  0  0  0  0  0  0  0  0  0
   58.6820   30.0690   44.9130 C   0  0  0  0  0  0  0  0  0  0  0  0
   59.9550   29.7350   45.4740 N   0  0  0  0  0  0  0  0  0  0  0  0
   60.1450   29.7010   46.8900 C   0  0  0  0  0  0  0  0  0  0  0  0
   61.1300   30.5230   47.4610 C   0  0  0  0  0  0  0  0  0  0  0  0
   61.3640   30.5010   48.8360 C   0  0  0  0  0  0  0  0  0  0  0  0
   60.6260   29.6460   49.6530 C   0  0  0  0  0  0  0  0  0  0  0  0
   59.6590   28.8070   49.0950 C   0  0  0  0  0  0  0  0  0  0  0  0
   59.4030   28.8280   47.7110 C   0  0  0  0  0  0  0  0  0  0  0  0
   55.2785   31.0213   43.2480 H   0  0  0  0  0  0  0  0  0  0  0  0
   57.3437   32.2944   42.6767 H   0  0  0  0  0  0  0  0  0  0  0  0
   59.5200   31.6723   43.7143 H   0  0  0  0  0  0  0  0  0  0  0  0
   60.7970   29.9480   44.8910 H   0  0  0  0  0  0  0  0  0  0  0  0
   61.7226   31.1904   46.8180 H   0  0  0  0  0  0  0  0  0  0  0  0
   62.1298   31.1574   49.2749 H   0  0  0  0  0  0  0  0  0  0  0  0
   60.8055   29.6321   50.7382 H   0  0  0  0  0  0  0  0  0  0  0  0
   59.0918   28.1230   49.7434 H   0  0  0  0  0  0  0  0  0  0  0  0
  1  2  2  0
  2  3  1  0
  3  4  1  0
  4  5  2  0
  5  6  1  0
  5  7  1  0
  7  8  2  0
  8  9  1  0
  9 10  2  0
 10 11  1  0
 11 12  1  0
 12 13  2  0
 13 14  1  0
 14 15  2  0
 15 16  1  0
 16 17  2  0
 17  2  1  0
 10  4  1  0
 17 12  1  0
  7 18  1  0
  8 19  1  0
  9 20  1  0
 11 21  1  0
 13 22  1  0
 14 23  1  0
 15 24  1  0
 16 25  1  0
M  CHG  2   3  -1   6  -1
M  END
>  <UniqueID>  (66) 
60

>  <SMILES>  (66) 
O=C1[N-]c2c([O-])cccc2Nc2ccccc21

>  <Energy>  (66) 
47.20171757418436

>  <Genealogy>  (66) 
O=C1[N-]c2c([O-])cccc2Nc2ccccc21 (protonated)
O=C1[N-]c2c([O-])cccc2Nc2ccccc21 (3D coordinates assigned)
O=C1[N-]c2c([O-])cccc2Nc2ccccc21 (nonaromatic ring conformer: 47.20171757418436 kcal/mol)

>  <smiles>  (66) 
O=C1Nc2c(O)cccc2Nc2ccccc21

>  <score_type>  (66) 
oracle

>  <origin>  (66) 
adg

>  <m_score__min__energy>  (66) 
-10.550000000000001

>  <m_primary>  (66) 
energy

$$$$
66:0
     RDKit          3D

 45 46  0  0  0  0  0  0  0  0999 V2000
   55.5550   29.7220   43.5630 C   0  0  0  0  0  0  0  0  0  0  0  0
   55.5130   29.1980   44.8710 O   0  0  0  0  0  0  0  0  0  0  0  0
   56.7720   28.6530   45.1980 C   0  0  0  0  0  0  0  0  0  0  0  0
   57.6690   29.7580   45.6640 C   0  0  0  0  0  0  0  0  0  0  0  0
   58.8370   29.4840   46.3830 C   0  0  0  0  0  0  0  0  0  0  0  0
   59.6100   30.5560   46.8350 C   0  0  0  0  0  0  0  0  0  0  0  0
   60.6730   30.3460   47.4740 O   0  0  0  0  0  0  0  0  0  0  0  0
   59.2090   31.8300   46.5890 N   0  0  0  0  0  0  0  0  0  0  0  0
   58.0600   32.0800   45.9080 C   0  0  0  0  0  0  0  0  0  0  0  0
   57.5400   33.7660   45.6120 S   0  0  0  0  0  0  0  0  0  0  0  0
   59.2000   34.3800   45.1350 C   0  0  0  0  0  0  0  0  0  0  0  0
   60.0170   34.9330   46.3110 C   0  0  0  0  0  0  0  0  0  0  0  0
   61.1060   33.9860   46.7500 C   0  0  0  0  0  0  0  0  0  0  0  0
   62.0930   33.8460   46.0390 O   0  0  0  0  0  0  0  0  0  0  0  0
   61.0200   33.3030   48.0290 N   0  0  1  0  0  0  0  0  0  0  0  0
   62.3410   32.8270   48.4770 C   0  0  0  0  0  0  0  0  0  0  0  0
   60.3330   34.1310   49.0480 C   0  0  0  0  0  0  0  0  0  0  0  0
   59.5090   33.3310   50.0390 C   0  0  0  0  0  0  0  0  0  0  0  0
   58.9060   32.1230   49.6520 C   0  0  0  0  0  0  0  0  0  0  0  0
   58.1560   31.3830   50.5720 C   0  0  0  0  0  0  0  0  0  0  0  0
   57.9960   31.8470   51.8790 C   0  0  0  0  0  0  0  0  0  0  0  0
   58.5830   33.0520   52.2700 C   0  0  0  0  0  0  0  0  0  0  0  0
   59.3350   33.7950   51.3540 C   0  0  0  0  0  0  0  0  0  0  0  0
   57.3040   31.0490   45.4490 N   0  0  0  0  0  0  0  0  0  0  0  0
   55.6428   30.8175   43.6095 H   0  0  0  0  0  0  0  0  0  0  0  0
   56.4228   29.3069   43.0294 H   0  0  0  0  0  0  0  0  0  0  0  0
   54.6322   29.4505   43.0294 H   0  0  0  0  0  0  0  0  0  0  0  0
   56.6558   27.9082   45.9991 H   0  0  0  0  0  0  0  0  0  0  0  0
   57.2087   28.1639   44.3148 H   0  0  0  0  0  0  0  0  0  0  0  0
   59.1403   28.4467   46.5881 H   0  0  0  0  0  0  0  0  0  0  0  0
   59.7609   33.5484   44.6836 H   0  0  0  0  0  0  0  0  0  0  0  0
   59.0444   35.2126   44.4332 H   0  0  0  0  0  0  0  0  0  0  0  0
   60.4778   35.8838   46.0049 H   0  0  0  0  0  0  0  0  0  0  0  0
   59.3313   35.0724   47.1598 H   0  0  0  0  0  0  0  0  0  0  0  0
   60.4350   32.4440   47.8970 H   0  0  0  0  0  0  0  0  0  0  0  0
   62.3731   32.8154   49.5765 H   0  0  0  0  0  0  0  0  0  0  0  0
   62.5135   31.8102   48.0944 H   0  0  0  0  0  0  0  0  0  0  0  0
   63.1224   33.5001   48.0944 H   0  0  0  0  0  0  0  0  0  0  0  0
   61.0947   34.6946   49.6067 H   0  0  0  0  0  0  0  0  0  0  0  0
   59.6336   34.7858   48.5076 H   0  0  0  0  0  0  0  0  0  0  0  0
   59.0240   31.7574   48.6213 H   0  0  0  0  0  0  0  0  0  0  0  0
   57.6916   30.4342   50.2653 H   0  0  0  0  0  0  0  0  0  0  0  0
   57.4070   31.2628   52.6013 H   0  0  0  0  0  0  0  0  0  0  0  0
   58.4540   33.4174   53.2995 H   0  0  0  0  0  0  0  0  0  0  0  0
   59.7920   34.7463   51.6642 H   0  0  0  0  0  0  0  0  0  0  0  0
  1  2  1  0
  2  3  1  0
  3  4  1  0
  4  5  2  0
  5  6  1  0
  6  7  2  0
  6  8  1  0
  8  9  1  0
  9 10  1  0
 10 11  1  0
 11 12  1  0
 12 13  1  0
 13 14  2  0
 13 15  1  0
 15 16  1  0
 15 17  1  0
 17 18  1  0
 18 19  2  0
 19 20  1  0
 20 21  2  0
 21 22  1  0
 22 23  2  0
  9 24  2  0
 24  4  1  0
 23 18  1  0
  1 25  1  0
  1 26  1  0
  1 27  1  0
  3 28  1  0
  3 29  1  0
  5 30  1  0
 11 31  1  0
 11 32  1  0
 12 33  1  0
 12 34  1  0
 15 35  1  6
 16 36  1  0
 16 37  1  0
 16 38  1  0
 17 39  1  0
 17 40  1  0
 19 41  1  0
 20 42  1  0
 21 43  1  0
 22 44  1  0
 23 45  1  0
M  CHG  2   8  -1  15   1
M  END
>  <UniqueID>  (67) 
61

>  <SMILES>  (67) 
COCc1cc(=O)[n-]c(SCCC(=O)[N@@H+](C)Cc2ccccc2)n1

>  <Energy>  (67) 
41.94511240967269

>  <Genealogy>  (67) 
COCc1cc(=O)[n-]c(SCCC(=O)[NH+](C)Cc2ccccc2)n1 (protonated)
COCc1cc(=O)[n-]c(SCCC(=O)[N@@H+](C)Cc2ccccc2)n1 (chirality)
COCc1cc(=O)[n-]c(SCCC(=O)[N@@H+](C)Cc2ccccc2)n1 (3D coordinates assigned)
COCc1cc(=O)[n-]c(SCCC(=O)[N@@H+](C)Cc2ccccc2)n1 (optimized conformer: 41.94511240967269 kcal/mol)

>  <smiles>  (67) 
COCc1cc(=O)[nH]c(SCCC(=O)N(C)Cc2ccccc2)n1

>  <score_type>  (67) 
oracle

>  <origin>  (67) 
adg

>  <m_score__min__energy>  (67) 
-6.54

>  <m_primary>  (67) 
energy

$$$$
67:0
     RDKit          3D

 63 66  0  0  0  0  0  0  0  0999 V2000
   63.5320   30.2640   51.1640 C   0  0  0  0  0  0  0  0  0  0  0  0
   63.0230   31.6420   51.2750 N   0  0  0  0  0  0  0  0  0  0  0  0
   64.1620   32.5860   51.3560 C   0  0  0  0  0  0  0  0  0  0  0  0
   64.4030   33.2760   50.0380 C   0  0  0  0  0  0  0  0  0  0  0  0
   65.4990   33.0780   49.4510 O   0  0  0  0  0  0  0  0  0  0  0  0
   63.4660   34.1910   49.4410 N   0  0  0  0  0  0  0  0  0  0  0  0
   62.3760   33.9240   48.7780 C   0  0  0  0  0  0  0  0  0  0  0  0
   61.1470   34.3640   49.2880 C   0  0  0  0  0  0  0  0  0  0  0  0
   59.9770   34.1260   48.5640 C   0  0  0  0  0  0  0  0  0  0  0  0
   60.0380   33.4650   47.3330 C   0  0  0  0  0  0  0  0  0  0  0  0
   58.5830   33.2400   46.3630 S   0  0  0  0  0  0  0  0  0  0  0  0
   57.4280   32.9380   47.2740 O   0  0  0  0  0  0  0  0  0  0  0  0
   58.2760   34.5080   45.6160 O   0  0  0  0  0  0  0  0  0  0  0  0
   58.7660   31.9330   45.2350 N   0  0  0  0  0  0  0  0  0  0  0  0
   57.7540   30.9050   45.4730 C   0  0  0  0  0  0  0  0  0  0  0  0
   58.3120   29.8590   46.4020 C   0  0  0  0  0  0  0  0  0  0  0  0
   58.9820   30.2710   47.5680 C   0  0  0  0  0  0  0  0  0  0  0  0
   59.5780   29.3360   48.4170 C   0  0  0  0  0  0  0  0  0  0  0  0
   59.5270   27.9790   48.1040 C   0  0  0  0  0  0  0  0  0  0  0  0
   58.8680   27.5520   46.9510 C   0  0  0  0  0  0  0  0  0  0  0  0
   58.2360   28.4750   46.1050 C   0  0  0  0  0  0  0  0  0  0  0  0
   57.4050   27.8420   44.6340 S   0  0  0  0  0  0  0  0  0  0  0  0
   57.1850   26.1820   45.2980 C   0  0  0  0  0  0  0  0  0  0  0  0
   58.2040   25.2280   45.1490 C   0  0  0  0  0  0  0  0  0  0  0  0
   58.0540   23.9460   45.6870 C   0  0  0  0  0  0  0  0  0  0  0  0
   56.8750   23.6020   46.3530 C   0  0  0  0  0  0  0  0  0  0  0  0
   55.8380   24.5320   46.4650 C   0  0  0  0  0  0  0  0  0  0  0  0
   55.9840   25.8180   45.9280 C   0  0  0  0  0  0  0  0  0  0  0  0
   54.9230   26.7140   45.9960 O   0  0  0  0  0  0  0  0  0  0  0  0
   61.2830   33.0220   46.8650 C   0  0  0  0  0  0  0  0  0  0  0  0
   62.4080   33.2660   47.5870 N   0  0  0  0  0  0  0  0  0  0  0  0
   62.1220   31.7550   52.4480 C   0  0  0  0  0  0  0  0  0  0  0  0
   60.7190   32.0830   52.0120 C   0  0  0  0  0  0  0  0  0  0  0  0
   60.1290   33.2930   52.4080 C   0  0  0  0  0  0  0  0  0  0  0  0
   58.8230   33.6030   52.0230 C   0  0  0  0  0  0  0  0  0  0  0  0
   58.0950   32.7070   51.2370 C   0  0  0  0  0  0  0  0  0  0  0  0
   58.6750   31.5010   50.8330 C   0  0  0  0  0  0  0  0  0  0  0  0
   59.9850   31.1900   51.2130 C   0  0  0  0  0  0  0  0  0  0  0  0
   63.6858   29.8477   52.1705 H   0  0  0  0  0  0  0  0  0  0  0  0
   62.8026   29.6465   50.6193 H   0  0  0  0  0  0  0  0  0  0  0  0
   64.4877   30.2689   50.6193 H   0  0  0  0  0  0  0  0  0  0  0  0
   63.9435   33.3447   52.1219 H   0  0  0  0  0  0  0  0  0  0  0  0
   65.0653   32.0150   51.6166 H   0  0  0  0  0  0  0  0  0  0  0  0
   61.1044   34.8929   50.2515 H   0  0  0  0  0  0  0  0  0  0  0  0
   59.0069   34.4585   48.9620 H   0  0  0  0  0  0  0  0  0  0  0  0
   56.8647   31.3642   45.9293 H   0  0  0  0  0  0  0  0  0  0  0  0
   57.4746   30.4365   44.5178 H   0  0  0  0  0  0  0  0  0  0  0  0
   59.0372   31.3417   47.8139 H   0  0  0  0  0  0  0  0  0  0  0  0
   60.0876   29.6706   49.3326 H   0  0  0  0  0  0  0  0  0  0  0  0
   60.0069   27.2438   48.7668 H   0  0  0  0  0  0  0  0  0  0  0  0
   58.8438   26.4806   46.7029 H   0  0  0  0  0  0  0  0  0  0  0  0
   59.1244   25.4901   44.6067 H   0  0  0  0  0  0  0  0  0  0  0  0
   58.8640   23.2086   45.5859 H   0  0  0  0  0  0  0  0  0  0  0  0
   56.7630   22.5985   46.7895 H   0  0  0  0  0  0  0  0  0  0  0  0
   54.9045   24.2538   46.9761 H   0  0  0  0  0  0  0  0  0  0  0  0
   61.3493   32.4763   45.9122 H   0  0  0  0  0  0  0  0  0  0  0  0
   62.1167   30.7993   52.9926 H   0  0  0  0  0  0  0  0  0  0  0  0
   62.4881   32.5630   53.0984 H   0  0  0  0  0  0  0  0  0  0  0  0
   60.6992   34.0022   53.0260 H   0  0  0  0  0  0  0  0  0  0  0  0
   58.3675   34.5531   52.3389 H   0  0  0  0  0  0  0  0  0  0  0  0
   57.0654   32.9503   50.9359 H   0  0  0  0  0  0  0  0  0  0  0  0
   58.1004   30.7952   50.2152 H   0  0  0  0  0  0  0  0  0  0  0  0
   60.4415   30.2443   50.8856 H   0  0  0  0  0  0  0  0  0  0  0  0
  1  2  1  0
  2  3  1  0
  3  4  1  0
  4  5  2  0
  4  6  1  0
  6  7  2  3
  7  8  1  0
  8  9  2  0
  9 10  1  0
 10 11  1  0
 11 12  2  0
 11 13  2  0
 11 14  1  0
 14 15  1  0
 15 16  1  0
 16 17  2  0
 17 18  1  0
 18 19  2  0
 19 20  1  0
 20 21  2  0
 21 22  1  0
 22 23  1  0
 23 24  2  0
 24 25  1  0
 25 26  2  0
 26 27  1  0
 27 28  2  0
 28 29  1  0
 10 30  2  0
 30 31  1  0
  2 32  1  0
 32 33  1  0
 33 34  2  0
 34 35  1  0
 35 36  2  0
 36 37  1  0
 37 38  2  0
 31  7  1  0
 38 33  1  0
 21 16  1  0
 28 23  1  0
  1 39  1  0
  1 40  1  0
  1 41  1  0
  3 42  1  0
  3 43  1  0
  8 44  1  0
  9 45  1  0
 15 46  1  0
 15 47  1  0
 17 48  1  0
 18 49  1  0
 19 50  1  0
 20 51  1  0
 24 52  1  0
 25 53  1  0
 26 54  1  0
 27 55  1  0
 30 56  1  0
 32 57  1  0
 32 58  1  0
 34 59  1  0
 35 60  1  0
 36 61  1  0
 37 62  1  0
 38 63  1  0
M  CHG  3  14  -1  29  -1  31  -1
M  END
>  <UniqueID>  (68) 
62

>  <SMILES>  (68) 
CN(CC(=O)N=c1ccc(S(=O)(=O)[N-]Cc2ccccc2Sc2ccccc2[O-])c[n-]1)Cc1ccccc1

>  <Energy>  (68) 
66.40354602156212

>  <Genealogy>  (68) 
CN(CC(=O)N=c1ccc(S(=O)(=O)[N-]Cc2ccccc2Sc2ccccc2[O-])c[n-]1)Cc1ccccc1 (protonated)
CN(CC(=O)N=c1ccc(S(=O)(=O)[N-]Cc2ccccc2Sc2ccccc2[O-])c[n-]1)Cc1ccccc1 (3D coordinates assigned)
CN(CC(=O)N=c1ccc(S(=O)(=O)[N-]Cc2ccccc2Sc2ccccc2[O-])c[n-]1)Cc1ccccc1 (optimized conformer: 66.40354602156212 kcal/mol)

>  <smiles>  (68) 
CN(CC(=O)N=c1ccc(S(=O)(=O)NCc2ccccc2Sc2ccccc2O)c[nH]1)Cc1ccccc1

>  <score_type>  (68) 
oracle

>  <origin>  (68) 
adg

>  <m_score__min__energy>  (68) 
-15.27

>  <m_primary>  (68) 
energy

$$$$
68:0
     RDKit          3D

 68 73  0  0  0  0  0  0  0  0999 V2000
   50.0450   32.2400   51.9170 H   0  0  0  0  0  0  0  0  0  0  0  0
   50.6700   31.4650   52.2310 N   0  0  0  0  0  0  0  0  0  0  0  0
   51.9380   31.3280   51.0650 S   0  0  0  0  0  0  0  0  0  0  0  0
   51.4890   30.4310   49.9450 O   0  0  0  0  0  0  0  0  0  0  0  0
   52.2540   32.6830   50.4990 O   0  0  0  0  0  0  0  0  0  0  0  0
   53.3720   30.6550   51.8360 C   0  0  0  0  0  0  0  0  0  0  0  0
   53.3730   29.3220   52.2620 C   0  0  0  0  0  0  0  0  0  0  0  0
   52.4722   28.7041   52.1327 H   0  0  0  0  0  0  0  0  0  0  0  0
   54.5150   28.7740   52.8510 C   0  0  0  0  0  0  0  0  0  0  0  0
   54.5118   27.7256   53.1839 H   0  0  0  0  0  0  0  0  0  0  0  0
   55.6610   29.5550   53.0180 C   0  0  0  0  0  0  0  0  0  0  0  0
   56.5571   29.1163   53.4813 H   0  0  0  0  0  0  0  0  0  0  0  0
   55.6790   30.8970   52.5990 C   0  0  0  0  0  0  0  0  0  0  0  0
   56.9110   31.7060   52.7590 C   0  0  0  0  0  0  0  0  0  0  0  0
   57.4940   32.3290   51.6970 N   0  0  0  0  0  0  0  0  0  0  0  0
   58.5810   33.0390   52.0620 C   0  0  0  0  0  0  0  0  0  0  0  0
   59.2810   33.7240   51.2100 N   0  0  0  0  0  0  0  0  0  0  0  0
   60.6690   33.5100   50.9220 C   0  0  0  0  0  0  0  0  0  0  0  0
   61.5270   33.9180   51.7540 O   0  0  0  0  0  0  0  0  0  0  0  0
   61.1060   32.7480   49.7190 C   0  0  0  0  0  0  0  0  0  0  0  0
   62.0910   33.2630   48.8560 C   0  0  0  0  0  0  0  0  0  0  0  0
   62.5652   34.2291   49.0837 H   0  0  0  0  0  0  0  0  0  0  0  0
   62.4710   32.5570   47.7130 C   0  0  0  0  0  0  0  0  0  0  0  0
   63.2604   32.9565   47.0594 H   0  0  0  0  0  0  0  0  0  0  0  0
   61.8540   31.3480   47.3970 C   0  0  0  0  0  0  0  0  0  0  0  0
   62.1644   30.7943   46.4986 H   0  0  0  0  0  0  0  0  0  0  0  0
   60.8440   30.8350   48.2140 C   0  0  0  0  0  0  0  0  0  0  0  0
   60.2020   29.6570   47.8040 O   0  0  0  0  0  0  0  0  0  0  0  0
   58.8160   29.3820   47.9790 C   0  0  0  0  0  0  0  0  0  0  0  0
   58.3819   30.1089   48.6813 H   0  0  0  0  0  0  0  0  0  0  0  0
   58.6873   28.3671   48.3833 H   0  0  0  0  0  0  0  0  0  0  0  0
   58.1220   29.4900   46.6490 C   0  0  0  0  0  0  0  0  0  0  0  0
   57.4240   28.4440   46.0140 C   0  0  0  0  0  0  0  0  0  0  0  0
   57.3430   27.0310   46.4190 C   0  0  0  0  0  0  0  0  0  0  0  0
   58.3440   26.4480   46.9190 O   0  0  0  0  0  0  0  0  0  0  0  0
   56.1200   26.3180   46.2070 N   0  0  0  0  0  0  0  0  0  0  0  0
   55.9420   25.1890   45.3380 C   0  0  0  0  0  0  0  0  0  0  0  0
   56.9340   24.7910   44.4220 C   0  0  0  0  0  0  0  0  0  0  0  0
   57.9061   25.3056   44.4099 H   0  0  0  0  0  0  0  0  0  0  0  0
   56.6890   23.7430   43.5260 C   0  0  0  0  0  0  0  0  0  0  0  0
   57.4712   23.4314   42.8181 H   0  0  0  0  0  0  0  0  0  0  0  0
   55.4510   23.0920   43.5300 C   0  0  0  0  0  0  0  0  0  0  0  0
   55.2554   22.2761   42.8186 H   0  0  0  0  0  0  0  0  0  0  0  0
   54.4620   23.4800   44.4400 C   0  0  0  0  0  0  0  0  0  0  0  0
   53.4942   22.9574   44.4552 H   0  0  0  0  0  0  0  0  0  0  0  0
   54.7020   24.5320   45.3310 C   0  0  0  0  0  0  0  0  0  0  0  0
   53.9134   24.8461   46.0306 H   0  0  0  0  0  0  0  0  0  0  0  0
   56.7740   29.0150   44.5620 S   0  0  0  0  0  0  0  0  0  0  0  0
   57.3930   30.5650   44.7020 C   0  0  0  0  0  0  0  0  0  0  0  0
   57.3040   31.6060   43.7840 C   0  0  0  0  0  0  0  0  0  0  0  0
   56.7216   31.4924   42.8578 H   0  0  0  0  0  0  0  0  0  0  0  0
   57.9740   32.8020   44.0680 C   0  0  0  0  0  0  0  0  0  0  0  0
   57.9320   33.6346   43.3503 H   0  0  0  0  0  0  0  0  0  0  0  0
   58.7030   32.9480   45.2680 C   0  0  0  0  0  0  0  0  0  0  0  0
   59.4590   34.2150   45.5390 C   0  0  0  0  0  0  0  0  0  0  0  0
   59.5478   34.3638   46.6253 H   0  0  0  0  0  0  0  0  0  0  0  0
   60.4631   34.1449   45.0952 H   0  0  0  0  0  0  0  0  0  0  0  0
   58.9205   35.0654   45.0952 H   0  0  0  0  0  0  0  0  0  0  0  0
   58.7830   31.8720   46.1750 C   0  0  0  0  0  0  0  0  0  0  0  0
   59.3632   31.9708   47.1043 H   0  0  0  0  0  0  0  0  0  0  0  0
   58.1160   30.6750   45.8810 C   0  0  0  0  0  0  0  0  0  0  0  0
   60.4910   31.5230   49.3920 C   0  0  0  0  0  0  0  0  0  0  0  0
   59.7284   31.1000   50.0624 H   0  0  0  0  0  0  0  0  0  0  0  0
   58.8870   32.9090   53.7130 S   0  0  0  0  0  0  0  0  0  0  0  0
   57.5600   31.9100   53.9790 C   0  0  0  0  0  0  0  0  0  0  0  0
   57.2552   31.4891   54.9485 H   0  0  0  0  0  0  0  0  0  0  0  0
   54.5230   31.4390   52.0020 C   0  0  0  0  0  0  0  0  0  0  0  0
   54.5235   32.4856   51.6635 H   0  0  0  0  0  0  0  0  0  0  0  0
  1  2  1  0
  2  3  1  0
  3  4  2  0
  3  5  2  0
  3  6  1  0
  6  7  2  0
  7  8  1  0
  7  9  1  0
  9 10  1  0
  9 11  2  0
 11 12  1  0
 11 13  1  0
 13 14  1  0
 14 15  1  0
 15 16  1  0
 16 17  2  0
 17 18  1  0
 18 19  2  0
 18 20  1  0
 20 21  2  0
 21 22  1  0
 21 23  1  0
 23 24  1  0
 23 25  2  0
 25 26  1  0
 25 27  1  0
 27 28  1  0
 28 29  1  0
 29 30  1  0
 29 31  1  0
 29 32  1  0
 32 33  2  0
 33 34  1  0
 34 35  2  0
 34 36  1  0
 36 37  1  0
 37 38  2  0
 38 39  1  0
 38 40  1  0
 40 41  1  0
 40 42  2  0
 42 43  1  0
 42 44  1  0
 44 45  1  0
 44 46  2  0
 46 47  1  0
 33 48  1  0
 48 49  1  0
 49 50  2  0
 50 51  1  0
 50 52  1  0
 52 53  1  0
 52 54  2  0
 54 55  1  0
 55 56  1  0
 55 57  1  0
 55 58  1  0
 54 59  1  0
 59 60  1  0
 59 61  2  0
 27 62  2  0
 62 63  1  0
 16 64  1  0
 64 65  1  0
 65 66  1  0
 13 67  2  0
 67 68  1  0
 67  6  1  0
 65 14  2  0
 62 20  1  0
 61 32  1  0
 46 37  1  0
 61 49  1  0
M  CHG  3   2  -1  15  -1  36  -1
M  END
>  <UniqueID>  (69) 
63

>  <SMILES>  (69) 
Cc1ccc2sc(C(=O)[N-]c3ccccc3)c(COc3cccc(C(=O)/N=c4/[n-]c(-c5cccc(S([NH-])(=O)=O)c5)cs4)c3)c2c1

>  <Energy>  (69) 
155.53191706089092

>  <Genealogy>  (69) 
Cc1ccc2sc(C(=O)[N-]c3ccccc3)c(COc3cccc(C(=O)N=c4[n-]c(-c5cccc(S([NH-])(=O)=O)c5)cs4)c3)c2c1 (protonated)
Cc1ccc2sc(C(=O)[N-]c3ccccc3)c(COc3cccc(C(=O)/N=c4/[n-]c(-c5cccc(S([NH-])(=O)=O)c5)cs4)c3)c2c1 (cis-trans isomerization)
Cc1ccc2sc(C(=O)[N-]c3ccccc3)c(COc3cccc(C(=O)/N=c4/[n-]c(-c5cccc(S([NH-])(=O)=O)c5)cs4)c3)c2c1 (3D coordinates assigned)
Cc1ccc2sc(C(=O)[N-]c3ccccc3)c(COc3cccc(C(=O)/N=c4/[n-]c(-c5cccc(S([NH-])(=O)=O)c5)cs4)c3)c2c1 (optimized conformer: 155.53191706089092 kcal/mol)

>  <smiles>  (69) 
Cc1ccc2sc(C(=O)Nc3ccccc3)c(COc3cccc(C(=O)N=c4[nH]c(-c5cccc(S(N)(=O)=O)c5)cs4)c3)c2c1

>  <score_type>  (69) 
oracle

>  <origin>  (69) 
adg

>  <m_score__min__energy>  (69) 
-16.510000000000002

>  <m_primary>  (69) 
energy

$$$$
69:0
     RDKit          3D

 45 46  0  0  0  0  0  0  0  0999 V2000
   54.7230   29.3440   45.4600 H   0  0  0  0  0  0  0  0  0  0  0  0
   55.1560   29.0120   44.5690 N   0  0  0  0  0  0  0  0  0  0  0  0
   56.5080   30.0400   44.2520 S   0  0  0  0  0  0  0  0  0  0  0  0
   56.2220   31.4190   44.7770 O   0  0  0  0  0  0  0  0  0  0  0  0
   56.7360   30.1260   42.7700 O   0  0  0  0  0  0  0  0  0  0  0  0
   57.9430   29.3830   45.0350 C   0  0  0  0  0  0  0  0  0  0  0  0
   59.1160   29.1840   44.2950 C   0  0  0  0  0  0  0  0  0  0  0  0
   59.1397   29.4379   43.2250 H   0  0  0  0  0  0  0  0  0  0  0  0
   60.2550   28.6640   44.9130 C   0  0  0  0  0  0  0  0  0  0  0  0
   61.1783   28.5219   44.3322 H   0  0  0  0  0  0  0  0  0  0  0  0
   60.2240   28.3240   46.2670 C   0  0  0  0  0  0  0  0  0  0  0  0
   61.1279   27.9286   46.7535 H   0  0  0  0  0  0  0  0  0  0  0  0
   59.0430   28.4850   47.0100 C   0  0  0  0  0  0  0  0  0  0  0  0
   58.9890   28.1740   48.4080 N   0  0  0  0  0  0  0  0  0  0  0  0
   59.9890   28.4750   49.3930 C   0  0  0  0  0  0  0  0  0  0  0  0
   60.6950   27.5350   49.8410 O   0  0  0  0  0  0  0  0  0  0  0  0
   60.2940   29.8850   49.8180 C   0  0  0  0  0  0  0  0  0  0  0  0
   61.0165   30.3233   49.1138 H   0  0  0  0  0  0  0  0  0  0  0  0
   60.7101   29.8589   50.8359 H   0  0  0  0  0  0  0  0  0  0  0  0
   58.7830   30.9130   49.8380 S   0  0  0  0  0  0  0  0  0  0  0  0
   59.4160   32.1620   48.7220 C   0  0  0  0  0  0  0  0  0  0  0  0
   60.7540   32.3490   48.6030 N   0  0  0  0  0  0  0  0  0  0  0  0
   61.2440   33.2920   47.7540 C   0  0  0  0  0  0  0  0  0  0  0  0
   62.6650   33.4970   47.6350 N   0  0  0  0  0  0  0  0  0  0  0  0
   63.5210   33.3510   48.8160 C   0  0  0  0  0  0  0  0  0  0  0  0
   62.9115   33.4550   49.7258 H   0  0  0  0  0  0  0  0  0  0  0  0
   63.9959   32.3589   48.8042 H   0  0  0  0  0  0  0  0  0  0  0  0
   64.2979   34.1296   48.8042 H   0  0  0  0  0  0  0  0  0  0  0  0
   63.2440   33.8400   46.3330 C   0  0  0  0  0  0  0  0  0  0  0  0
   64.1815   34.3954   46.4835 H   0  0  0  0  0  0  0  0  0  0  0  0
   63.4503   32.9183   45.7692 H   0  0  0  0  0  0  0  0  0  0  0  0
   62.5348   34.4638   45.7692 H   0  0  0  0  0  0  0  0  0  0  0  0
   60.3780   34.0400   47.0210 N   0  0  0  0  0  0  0  0  0  0  0  0
   59.0350   33.8520   47.1320 C   0  0  0  0  0  0  0  0  0  0  0  0
   58.2010   34.5640   46.4350 N   0  0  0  0  0  0  0  0  0  0  0  0
   57.5320   34.0860   45.2270 C   0  0  0  0  0  0  0  0  0  0  0  0
   57.1430   34.9447   44.6601 H   0  0  0  0  0  0  0  0  0  0  0  0
   56.7008   33.4228   45.5085 H   0  0  0  0  0  0  0  0  0  0  0  0
   58.5210   33.3170   44.3650 C   0  0  0  0  0  0  0  0  0  0  0  0
   59.2235   32.7707   45.0115 H   0  0  0  0  0  0  0  0  0  0  0  0
   57.9761   32.6030   43.7300 H   0  0  0  0  0  0  0  0  0  0  0  0
   59.0787   34.0210   43.7300 H   0  0  0  0  0  0  0  0  0  0  0  0
   58.5590   32.9110   47.9830 N   0  0  0  0  0  0  0  0  0  0  0  0
   57.9130   29.0370   46.3930 C   0  0  0  0  0  0  0  0  0  0  0  0
   56.9959   29.2000   46.9782 H   0  0  0  0  0  0  0  0  0  0  0  0
  1  2  1  0
  2  3  1  0
  3  4  2  0
  3  5  2  0
  3  6  1  0
  6  7  2  0
  7  8  1  0
  7  9  1  0
  9 10  1  0
  9 11  2  0
 11 12  1  0
 11 13  1  0
 13 14  1  0
 14 15  1  0
 15 16  2  0
 15 17  1  0
 17 18  1  0
 17 19  1  0
 17 20  1  0
 20 21  1  0
 21 22  2  0
 22 23  1  0
 23 24  1  0
 24 25  1  0
 25 26  1  0
 25 27  1  0
 25 28  1  0
 24 29  1  0
 29 30  1  0
 29 31  1  0
 29 32  1  0
 23 33  2  0
 33 34  1  0
 34 35  2  0
 35 36  1  0
 36 37  1  0
 36 38  1  0
 36 39  1  0
 39 40  1  0
 39 41  1  0
 39 42  1  0
 34 43  1  0
 13 44  2  0
 44 45  1  0
 44  6  1  0
 43 21  1  0
M  CHG  3   2  -1  14  -1  43  -1
M  END
>  <UniqueID>  (70) 
64

>  <SMILES>  (70) 
CC/N=c1\nc(N(C)C)nc(SCC(=O)[N-]c2cccc(S([NH-])(=O)=O)c2)[n-]1

>  <Energy>  (70) 
39.50326057954329

>  <Genealogy>  (70) 
CCN=c1nc(N(C)C)nc(SCC(=O)[N-]c2cccc(S([NH-])(=O)=O)c2)[n-]1 (protonated)
CC/N=c1\nc(N(C)C)nc(SCC(=O)[N-]c2cccc(S([NH-])(=O)=O)c2)[n-]1 (cis-trans isomerization)
CC/N=c1\nc(N(C)C)nc(SCC(=O)[N-]c2cccc(S([NH-])(=O)=O)c2)[n-]1 (3D coordinates assigned)
CC/N=c1\nc(N(C)C)nc(SCC(=O)[N-]c2cccc(S([NH-])(=O)=O)c2)[n-]1 (optimized conformer: 39.50326057954329 kcal/mol)

>  <smiles>  (70) 
CCN=c1nc(N(C)C)nc(SCC(=O)Nc2cccc(S(N)(=O)=O)c2)[nH]1

>  <score_type>  (70) 
oracle

>  <origin>  (70) 
adg

>  <m_score__min__energy>  (70) 
-12.869999999999999

>  <m_primary>  (70) 
energy

$$$$
70:0
     RDKit          3D

 18 19  0  0  0  0  0  0  0  0999 V2000
   58.4460   33.0650   41.4280 O   0  0  0  0  0  0  0  0  0  0  0  0
   57.9270   32.3770   42.3460 C   0  0  0  0  0  0  0  0  0  0  0  0
   57.1010   31.2060   41.9950 C   0  0  0  0  0  0  0  0  0  0  0  0
   56.5350   30.4540   42.9430 C   0  0  0  0  0  0  0  0  0  0  0  0
   56.7160   30.7670   44.3730 C   0  0  0  0  0  0  0  0  0  0  0  0
   56.1670   30.0370   45.2410 O   0  0  0  0  0  0  0  0  0  0  0  0
   57.5370   31.9340   44.7720 C   0  0  0  0  0  0  0  0  0  0  0  0
   57.7300   32.2600   46.1250 C   0  0  0  0  0  0  0  0  0  0  0  0
   58.5100   33.3650   46.4780 C   0  0  0  0  0  0  0  0  0  0  0  0
   59.1010   34.1520   45.4880 C   0  0  0  0  0  0  0  0  0  0  0  0
   58.9180   33.8380   44.1390 C   0  0  0  0  0  0  0  0  0  0  0  0
   58.1360   32.7300   43.7700 C   0  0  0  0  0  0  0  0  0  0  0  0
   56.9489   30.9482   40.9365 H   0  0  0  0  0  0  0  0  0  0  0  0
   55.9238   29.5869   42.6523 H   0  0  0  0  0  0  0  0  0  0  0  0
   57.2658   31.6437   46.9090 H   0  0  0  0  0  0  0  0  0  0  0  0
   58.6585   33.6151   47.5388 H   0  0  0  0  0  0  0  0  0  0  0  0
   59.7124   35.0216   45.7708 H   0  0  0  0  0  0  0  0  0  0  0  0
   59.3876   34.4602   43.3629 H   0  0  0  0  0  0  0  0  0  0  0  0
  1  2  2  0
  2  3  1  0
  3  4  2  0
  4  5  1  0
  5  6  2  0
  5  7  1  0
  7  8  2  0
  8  9  1  0
  9 10  2  0
 10 11  1  0
 11 12  2  0
 12  2  1  0
 12  7  1  0
  3 13  1  0
  4 14  1  0
  8 15  1  0
  9 16  1  0
 10 17  1  0
 11 18  1  0
M  END
>  <UniqueID>  (71) 
65

>  <SMILES>  (71) 
O=C1C=CC(=O)c2ccccc21

>  <Energy>  (71) 
19.50140577073664

>  <Genealogy>  (71) 
O=C1C=CC(=O)c2ccccc21 (3D coordinates assigned)
O=C1C=CC(=O)c2ccccc21 (nonaromatic ring conformer: 19.50140577073664 kcal/mol)

>  <smiles>  (71) 
O=C1C=CC(=O)c2ccccc21

>  <score_type>  (71) 
oracle

>  <origin>  (71) 
adg

>  <m_score__min__energy>  (71) 
-5.9100000000000001

>  <m_primary>  (71) 
energy

$$$$
71:0
     RDKit          3D

 56 59  0  0  0  0  0  0  0  0999 V2000
   58.8390   31.6080   47.0840 N   0  0  0  0  0  0  0  0  0  0  0  0
   59.1340   33.0470   47.0300 C   0  0  1  0  0  0  0  0  0  0  0  0
   59.2220   33.6420   48.4560 C   0  0  0  0  0  0  0  0  0  0  0  0
   59.1680   32.5680   49.5120 C   0  0  0  0  0  0  0  0  0  0  0  0
   58.1330   31.8490   49.5940 O   0  0  0  0  0  0  0  0  0  0  0  0
   60.2750   32.3300   50.4020 N   0  0  0  0  0  0  0  0  0  0  0  0
   60.9470   33.3960   51.1290 C   0  0  0  0  0  0  0  0  0  0  0  0
   61.6340   32.7230   52.3060 C   0  0  0  0  0  0  0  0  0  0  0  0
   61.7570   31.2550   51.9170 C   0  0  0  0  0  0  0  0  0  0  0  0
   60.6440   31.0050   50.8920 C   0  0  2  0  0  0  0  0  0  0  0  0
   61.1030   30.0880   49.7380 C   0  0  0  0  0  0  0  0  0  0  0  0
   59.9580   29.4280   49.1120 N   0  0  0  0  0  0  0  0  0  0  0  0
   59.8180   29.1080   47.7230 C   0  0  0  0  0  0  0  0  0  0  0  0
   60.5880   29.6640   46.8940 O   0  0  0  0  0  0  0  0  0  0  0  0
   58.8280   28.1280   47.2350 C   0  0  0  0  0  0  0  0  0  0  0  0
   58.9220   26.7580   47.5640 C   0  0  0  0  0  0  0  0  0  0  0  0
   57.9590   25.8380   47.0910 C   0  0  0  0  0  0  0  0  0  0  0  0
   56.8990   26.2720   46.2770 C   0  0  0  0  0  0  0  0  0  0  0  0
   56.8400   27.6240   45.9540 C   0  0  0  0  0  0  0  0  0  0  0  0
   55.9160   28.2470   45.2090 N   0  0  0  0  0  0  0  0  0  0  0  0
   56.3410   29.5350   45.2470 C   0  0  0  0  0  0  0  0  0  0  0  0
   55.7310   30.4650   44.6560 O   0  0  0  0  0  0  0  0  0  0  0  0
   57.4670   29.7510   45.9720 N   0  0  0  0  0  0  0  0  0  0  0  0
   57.7670   28.5160   46.4070 C   0  0  0  0  0  0  0  0  0  0  0  0
   60.4470   33.2820   46.2440 C   0  0  0  0  0  0  0  0  0  0  0  0
   61.6730   33.0970   47.1050 C   0  0  0  0  0  0  0  0  0  0  0  0
   62.1570   34.1600   47.8880 C   0  0  0  0  0  0  0  0  0  0  0  0
   63.2810   33.9830   48.7040 C   0  0  0  0  0  0  0  0  0  0  0  0
   63.9270   32.7430   48.7480 C   0  0  0  0  0  0  0  0  0  0  0  0
   65.0090   32.5690   49.5450 F   0  0  0  0  0  0  0  0  0  0  0  0
   63.4530   31.6800   47.9730 C   0  0  0  0  0  0  0  0  0  0  0  0
   62.3300   31.8540   47.1550 C   0  0  0  0  0  0  0  0  0  0  0  0
   57.8180   31.4580   47.2480 H   0  0  0  0  0  0  0  0  0  0  0  0
   59.1130   31.1410   46.1900 H   0  0  0  0  0  0  0  0  0  0  0  0
   59.3560   31.1610   47.8770 H   0  0  0  0  0  0  0  0  0  0  0  0
   58.3151   33.5618   46.5062 H   0  0  0  0  0  0  0  0  0  0  0  0
   60.1694   34.1921   48.5550 H   0  0  0  0  0  0  0  0  0  0  0  0
   58.3610   34.3107   48.6025 H   0  0  0  0  0  0  0  0  0  0  0  0
   61.6882   33.8914   50.4846 H   0  0  0  0  0  0  0  0  0  0  0  0
   60.2388   34.1695   51.4609 H   0  0  0  0  0  0  0  0  0  0  0  0
   62.6289   33.1616   52.4731 H   0  0  0  0  0  0  0  0  0  0  0  0
   61.0669   32.8528   53.2396 H   0  0  0  0  0  0  0  0  0  0  0  0
   62.7423   31.0576   51.4696 H   0  0  0  0  0  0  0  0  0  0  0  0
   61.6619   30.5932   52.7905 H   0  0  0  0  0  0  0  0  0  0  0  0
   59.7934   30.4789   51.3499 H   0  0  0  0  0  0  0  0  0  0  0  0
   61.6274   30.6929   48.9835 H   0  0  0  0  0  0  0  0  0  0  0  0
   61.7743   29.3178   50.1455 H   0  0  0  0  0  0  0  0  0  0  0  0
   59.7516   26.4039   48.1936 H   0  0  0  0  0  0  0  0  0  0  0  0
   58.0398   24.7750   47.3619 H   0  0  0  0  0  0  0  0  0  0  0  0
   56.1408   25.5660   45.9073 H   0  0  0  0  0  0  0  0  0  0  0  0
   60.4911   32.5683   45.4082 H   0  0  0  0  0  0  0  0  0  0  0  0
   60.4422   34.3219   45.8855 H   0  0  0  0  0  0  0  0  0  0  0  0
   61.6499   35.1357   47.8593 H   0  0  0  0  0  0  0  0  0  0  0  0
   63.6564   34.8199   49.3111 H   0  0  0  0  0  0  0  0  0  0  0  0
   63.9630   30.7059   48.0060 H   0  0  0  0  0  0  0  0  0  0  0  0
   61.9596   31.0145   46.5484 H   0  0  0  0  0  0  0  0  0  0  0  0
  1  2  1  0
  2  3  1  0
  3  4  1  0
  4  5  2  0
  4  6  1  0
  6  7  1  0
  7  8  1  0
  8  9  1  0
  9 10  1  0
 10 11  1  0
 11 12  1  0
 12 13  1  0
 13 14  2  0
 13 15  1  0
 15 16  2  0
 16 17  1  0
 17 18  2  0
 18 19  1  0
 19 20  1  0
 20 21  1  0
 21 22  2  0
 21 23  1  0
 23 24  1  0
  2 25  1  0
 25 26  1  0
 26 27  2  0
 27 28  1  0
 28 29  2  0
 29 30  1  0
 29 31  1  0
 31 32  2  0
 10  6  1  0
 24 15  1  0
 32 26  1  0
 24 19  2  0
  1 33  1  0
  1 34  1  0
  1 35  1  0
  2 36  1  6
  3 37  1  0
  3 38  1  0
  7 39  1  0
  7 40  1  0
  8 41  1  0
  8 42  1  0
  9 43  1  0
  9 44  1  0
 10 45  1  1
 11 46  1  0
 11 47  1  0
 16 48  1  0
 17 49  1  0
 18 50  1  0
 25 51  1  0
 25 52  1  0
 27 53  1  0
 28 54  1  0
 31 55  1  0
 32 56  1  0
M  CHG  4   1   1  12  -1  20  -1  23  -1
M  END
>  <UniqueID>  (72) 
66

>  <SMILES>  (72) 
[NH3+][C@@H](CC(=O)N1CCC[C@@H]1C[N-]C(=O)c1cccc2[n-]c(=O)[n-]c12)Cc1ccc(F)cc1

>  <Energy>  (72) 
94.28773762657251

>  <Genealogy>  (72) 
[NH3+]C(CC(=O)N1CCCC1C[N-]C(=O)c1cccc2[n-]c(=O)[n-]c12)Cc1ccc(F)cc1 (protonated)
[NH3+][C@@H](CC(=O)N1CCC[C@@H]1C[N-]C(=O)c1cccc2[n-]c(=O)[n-]c12)Cc1ccc(F)cc1 (chirality)
[NH3+][C@@H](CC(=O)N1CCC[C@@H]1C[N-]C(=O)c1cccc2[n-]c(=O)[n-]c12)Cc1ccc(F)cc1 (3D coordinates assigned)
[NH3+][C@@H](CC(=O)N1CCC[C@@H]1C[N-]C(=O)c1cccc2[n-]c(=O)[n-]c12)Cc1ccc(F)cc1 (nonaromatic ring conformer: 94.28773762657251 kcal/mol)

>  <smiles>  (72) 
NC(CC(=O)N1CCCC1CNC(=O)c1cccc2[nH]c(=O)[nH]c12)Cc1ccc(F)cc1

>  <score_type>  (72) 
oracle

>  <origin>  (72) 
adg

>  <m_score__min__energy>  (72) 
-12.58

>  <m_primary>  (72) 
energy

$$$$
72:0
     RDKit          3D

 48 51  0  0  1  0  0  0  0  0999 V2000
   58.5220   33.0600   51.7220 C   0  0  0  0  0  0  0  0  0  0  0  0
   58.8490   32.7280   50.4200 O   0  0  0  0  0  0  0  0  0  0  0  0
   59.8420   33.5520   49.9090 C   0  0  0  0  0  0  0  0  0  0  0  0
   59.7980   33.6260   48.4310 C   0  0  0  0  0  0  0  0  0  0  0  0
   61.0050   33.8660   47.7860 C   0  0  0  0  0  0  0  0  0  0  0  0
   61.0970   33.9570   46.4140 C   0  0  0  0  0  0  0  0  0  0  0  0
   59.9640   33.8060   45.6430 C   0  0  0  0  0  0  0  0  0  0  0  0
   58.7650   33.5650   46.3150 C   0  0  0  0  0  0  0  0  0  0  0  0
   55.5250   25.6820   46.2430 N   0  0  0  0  0  0  0  0  0  0  0  0
   56.3030   26.6960   46.0710 C   0  0  0  0  0  0  0  0  0  0  0  0
   57.3960   32.4420   43.4590 N   0  0  0  0  0  0  0  0  0  0  0  0
   57.2340   31.3090   42.7540 C   0  0  0  0  0  0  0  0  0  0  0  0
   57.1370   30.0580   43.3840 C   0  0  0  0  0  0  0  0  0  0  0  0
   56.9750   29.0150   42.5660 F   0  0  0  0  0  0  0  0  0  0  0  0
   58.0460   27.9970   46.1970 C   0  0  0  0  0  0  0  0  0  0  0  0
   57.2070   29.9570   44.7750 C   0  0  0  0  0  0  0  0  0  0  0  0
   57.3690   31.1180   45.4210 N   0  0  0  0  0  0  0  0  0  0  0  0
   57.4590   32.3210   44.7830 C   0  0  0  0  0  0  0  0  0  0  0  0
   57.6160   33.4160   45.4670 N   0  0  0  0  0  0  0  0  0  0  0  0
   55.9180   24.3990   45.7030 C   0  0  0  0  0  0  0  0  0  0  0  0
   55.4640   23.9430   44.3740 C   0  0  0  0  0  0  0  0  0  0  0  0
   56.8400   24.5360   44.5010 C   0  0  0  0  0  0  0  0  0  0  0  0
   56.0600   27.8340   45.3550 N   0  0  0  0  0  0  0  0  0  0  0  0
   57.1140   28.6590   45.4100 C   0  0  0  0  0  0  0  0  0  0  0  0
   59.3930   28.4330   46.6010 C   0  0  0  0  0  0  0  0  0  0  0  0
   57.5280   26.7950   46.5910 N   0  0  0  0  0  0  0  0  0  0  0  0
   58.6780   33.4760   47.6740 C   0  0  0  0  0  0  0  0  0  0  0  0
   59.1205   32.4524   52.4167 H   0  0  0  0  0  0  0  0  0  0  0  0
   58.7326   34.1261   51.8925 H   0  0  0  0  0  0  0  0  0  0  0  0
   57.4528   32.8656   51.8925 H   0  0  0  0  0  0  0  0  0  0  0  0
   59.7090   34.5640   50.3190 H   0  0  0  0  0  0  0  0  0  0  0  0
   60.8154   33.1291   50.1983 H   0  0  0  0  0  0  0  0  0  0  0  0
   61.9164   33.9873   48.3899 H   0  0  0  0  0  0  0  0  0  0  0  0
   62.0692   34.1491   45.9365 H   0  0  0  0  0  0  0  0  0  0  0  0
   60.0035   33.8726   44.5457 H   0  0  0  0  0  0  0  0  0  0  0  0
   57.1760   31.3633   41.6569 H   0  0  0  0  0  0  0  0  0  0  0  0
   57.4370   31.1720   46.4490 H   0  0  0  0  0  0  0  0  0  0  0  0
   55.8979   23.9013   46.6838 H   0  0  0  0  0  0  0  0  0  0  0  0
   55.3491   22.8672   44.1756 H   0  0  0  0  0  0  0  0  0  0  0  0
   54.5882   24.1583   43.7442 H   0  0  0  0  0  0  0  0  0  0  0  0
   57.7300   23.8961   44.4093 H   0  0  0  0  0  0  0  0  0  0  0  0
   57.3896   25.3589   44.0206 H   0  0  0  0  0  0  0  0  0  0  0  0
   55.1340   27.9240   44.8720 H   0  0  0  0  0  0  0  0  0  0  0  0
   59.4577   28.4539   47.6989 H   0  0  0  0  0  0  0  0  0  0  0  0
   60.1404   27.7309   46.2030 H   0  0  0  0  0  0  0  0  0  0  0  0
   59.5872   29.4399   46.2030 H   0  0  0  0  0  0  0  0  0  0  0  0
   57.9700   26.0610   47.1860 H   0  0  0  0  0  0  0  0  0  0  0  0
   57.7073   33.2840   48.1546 H   0  0  0  0  0  0  0  0  0  0  0  0
  1  2  1  0
  2  3  1  0
  3  4  1  0
  4  5  2  0
  5  6  1  0
  6  7  2  0
  7  8  1  0
  8  9  1  0
  9 10  2  0
 10 11  1  0
 11 12  2  0
 12 13  1  0
 13 14  1  0
 13 15  2  0
 15 16  1  0
 16 17  1  0
 17 18  1  0
 18 19  2  0
 19 20  1  0
 20 21  1  0
 21 22  1  0
 18 23  1  0
 23 24  1  0
 24 25  1  0
 15 26  1  0
  8 27  2  0
 27  4  1  0
 26 10  1  0
 24 16  2  0
 22 20  1  0
  1 28  1  0
  1 29  1  0
  1 30  1  0
  3 31  1  0
  3 32  1  0
  5 33  1  0
  6 34  1  0
  7 35  1  0
 12 36  1  0
 17 37  1  0
 20 38  1  0
 21 39  1  0
 21 40  1  0
 22 41  1  0
 22 42  1  0
 23 43  1  0
 25 44  1  0
 25 45  1  0
 25 46  1  0
 26 47  1  0
 27 48  1  0
M  END
>  <smiles>  (73) 
COCc1cccc(N=c2ncc(F)c(-c3[nH]c(=NC4CC4)[nH]c3C)[nH]2)c1

>  <score_type>  (73) 
oracle

>  <origin>  (73) 
adg

>  <m_score__min__energy>  (73) 
-8.0600000000000005

>  <m_primary>  (73) 
energy

$$$$
73:0
     RDKit          3D

 42 44  0  0  0  0  0  0  0  0999 V2000
   57.4162   24.4625   48.1777 H   0  0  0  0  0  0  0  0  0  0  0  0
   57.5810   24.9000   47.1820 C   0  0  0  0  0  0  0  0  0  0  0  0
   58.3510   25.9390   47.0570 N   0  0  0  0  0  0  0  0  0  0  0  0
   57.9950   27.2060   46.4740 C   0  0  0  0  0  0  0  0  0  0  0  0
   56.7150   27.4620   45.9440 C   0  0  0  0  0  0  0  0  0  0  0  0
   55.9481   26.6736   45.9610 H   0  0  0  0  0  0  0  0  0  0  0  0
   56.4140   28.7140   45.3960 C   0  0  0  0  0  0  0  0  0  0  0  0
   55.1440   28.9490   44.8830 O   0  0  0  0  0  0  0  0  0  0  0  0
   57.3830   29.7270   45.3640 C   0  0  0  0  0  0  0  0  0  0  0  0
   57.0310   31.0060   44.8150 N   0  0  0  0  0  0  0  0  0  0  0  0
   57.9350   32.0630   44.4600 C   0  0  0  0  0  0  0  0  0  0  0  0
   58.1080   32.3660   43.2470 O   0  0  0  0  0  0  0  0  0  0  0  0
   58.6270   32.8340   45.5190 C   0  0  0  0  0  0  0  0  0  0  0  0
   58.1050   34.0620   45.9690 C   0  0  0  0  0  0  0  0  0  0  0  0
   57.1753   34.4541   45.5310 H   0  0  0  0  0  0  0  0  0  0  0  0
   58.7610   34.7860   46.9690 C   0  0  0  0  0  0  0  0  0  0  0  0
   58.3470   35.7455   47.3125 H   0  0  0  0  0  0  0  0  0  0  0  0
   59.9400   34.2950   47.5330 C   0  0  0  0  0  0  0  0  0  0  0  0
   60.4531   34.8668   48.3203 H   0  0  0  0  0  0  0  0  0  0  0  0
   60.4680   33.0770   47.0970 C   0  0  0  0  0  0  0  0  0  0  0  0
   61.9500   32.4610   47.8070 Cl  0  0  0  0  0  0  0  0  0  0  0  0
   59.8170   32.3480   46.0960 C   0  0  0  0  0  0  0  0  0  0  0  0
   60.2368   31.3893   45.7573 H   0  0  0  0  0  0  0  0  0  0  0  0
   58.6460   29.4850   45.9300 C   0  0  0  0  0  0  0  0  0  0  0  0
   59.4015   30.2844   45.9420 H   0  0  0  0  0  0  0  0  0  0  0  0
   58.9490   28.2350   46.4780 C   0  0  0  0  0  0  0  0  0  0  0  0
   60.2060   28.0170   47.0320 O   0  0  0  0  0  0  0  0  0  0  0  0
   56.9240   24.2990   46.0030 C   0  0  0  0  0  0  0  0  0  0  0  0
   57.6730   24.0720   44.8390 C   0  0  0  0  0  0  0  0  0  0  0  0
   58.7391   24.3416   44.8139 H   0  0  0  0  0  0  0  0  0  0  0  0
   57.0740   23.5060   43.7120 C   0  0  0  0  0  0  0  0  0  0  0  0
   57.6695   23.3327   42.8035 H   0  0  0  0  0  0  0  0  0  0  0  0
   55.7210   23.1590   43.7340 C   0  0  0  0  0  0  0  0  0  0  0  0
   55.1380   22.5940   42.6050 O   0  0  0  0  0  0  0  0  0  0  0  0
   54.9520   23.3750   44.8860 C   0  0  0  0  0  0  0  0  0  0  0  0
   53.5970   23.0120   44.8640 O   0  0  0  0  0  0  0  0  0  0  0  0
   52.5140   23.9370   44.8700 C   0  0  0  0  0  0  0  0  0  0  0  0
   52.2385   24.1723   45.9086 H   0  0  0  0  0  0  0  0  0  0  0  0
   52.8168   24.8595   44.3530 H   0  0  0  0  0  0  0  0  0  0  0  0
   51.6502   23.4936   44.3530 H   0  0  0  0  0  0  0  0  0  0  0  0
   55.5600   23.9480   46.0220 C   0  0  0  0  0  0  0  0  0  0  0  0
   54.9644   24.1223   46.9302 H   0  0  0  0  0  0  0  0  0  0  0  0
  1  2  1  0
  2  3  2  0
  3  4  1  0
  4  5  2  0
  5  6  1  0
  5  7  1  0
  7  8  1  0
  7  9  2  0
  9 10  1  0
 10 11  1  0
 11 12  2  0
 11 13  1  0
 13 14  2  0
 14 15  1  0
 14 16  1  0
 16 17  1  0
 16 18  2  0
 18 19  1  0
 18 20  1  0
 20 21  1  0
 20 22  2  0
 22 23  1  0
  9 24  1  0
 24 25  1  0
 24 26  2  0
 26 27  1  0
  2 28  1  0
 28 29  2  0
 29 30  1  0
 29 31  1  0
 31 32  1  0
 31 33  2  0
 33 34  1  0
 33 35  1  0
 35 36  1  0
 36 37  1  0
 37 38  1  0
 37 39  1  0
 37 40  1  0
 35 41  2  0
 41 42  1  0
 26  4  1  0
 41 28  1  0
 22 13  1  0
M  CHG  4   8  -1  10  -1  27  -1  34  -1
M  END
>  <UniqueID>  (74) 
67

>  <SMILES>  (74) 
COc1cc(/C=N/c2cc([O-])c([N-]C(=O)c3cccc(Cl)c3)cc2[O-])ccc1[O-]

>  <Energy>  (74) 
52.5550535749383

>  <Genealogy>  (74) 
COc1cc(C=Nc2cc([O-])c([N-]C(=O)c3cccc(Cl)c3)cc2[O-])ccc1[O-] (protonated)
COc1cc(/C=N/c2cc([O-])c([N-]C(=O)c3cccc(Cl)c3)cc2[O-])ccc1[O-] (cis-trans isomerization)
COc1cc(/C=N/c2cc([O-])c([N-]C(=O)c3cccc(Cl)c3)cc2[O-])ccc1[O-] (3D coordinates assigned)
COc1cc(/C=N/c2cc([O-])c([N-]C(=O)c3cccc(Cl)c3)cc2[O-])ccc1[O-] (optimized conformer: 52.5550535749383 kcal/mol)

>  <smiles>  (74) 
COc1cc(C=Nc2cc(O)c(NC(=O)c3cccc(Cl)c3)cc2O)ccc1O

>  <score_type>  (74) 
oracle

>  <origin>  (74) 
adg

>  <m_score__min__energy>  (74) 
-16.859999999999999

>  <m_primary>  (74) 
energy

$$$$
74:0
     RDKit          3D

 26 27  0  0  0  0  0  0  0  0999 V2000
   59.3120   24.2010   45.6090 H   0  0  0  0  0  0  0  0  0  0  0  0
   58.9270   24.7970   46.3760 N   0  0  0  0  0  0  0  0  0  0  0  0
   57.9670   25.6370   46.1610 C   0  0  0  0  0  0  0  0  0  0  0  0
   56.6900   25.1920   46.0700 N   0  0  0  0  0  0  0  0  0  0  0  0
   55.6770   26.0650   45.8450 C   0  0  0  0  0  0  0  0  0  0  0  0
   54.4630   25.6220   45.7600 N   0  0  0  0  0  0  0  0  0  0  0  0
   53.7070   25.9470   46.4050 H   0  0  0  0  0  0  0  0  0  0  0  0
   58.2320   26.9600   46.0250 N   0  0  0  0  0  0  0  0  0  0  0  0
   57.2270   27.8450   45.7930 C   0  0  0  0  0  0  0  0  0  0  0  0
   57.5310   29.2920   45.6710 C   0  0  0  0  0  0  0  0  0  0  0  0
   58.3700   29.8860   46.6320 C   0  0  0  0  0  0  0  0  0  0  0  0
   58.7595   29.2802   47.4635 H   0  0  0  0  0  0  0  0  0  0  0  0
   58.7130   31.2360   46.5410 C   0  0  0  0  0  0  0  0  0  0  0  0
   59.3679   31.6887   47.3001 H   0  0  0  0  0  0  0  0  0  0  0  0
   58.2270   32.0110   45.4900 C   0  0  0  0  0  0  0  0  0  0  0  0
   58.5061   33.0724   45.4156 H   0  0  0  0  0  0  0  0  0  0  0  0
   57.3870   31.4430   44.5320 C   0  0  0  0  0  0  0  0  0  0  0  0
   57.0109   32.0606   43.7031 H   0  0  0  0  0  0  0  0  0  0  0  0
   57.0160   30.0890   44.6150 C   0  0  0  0  0  0  0  0  0  0  0  0
   56.0830   29.5360   43.5630 C   0  0  0  0  0  0  0  0  0  0  0  0
   56.0738   30.2116   42.6950 H   0  0  0  0  0  0  0  0  0  0  0  0
   56.4355   28.5388   43.2610 H   0  0  0  0  0  0  0  0  0  0  0  0
   54.7840   29.4240   44.0750 O   0  0  0  0  0  0  0  0  0  0  0  0
   54.7170   28.5220   44.4840 H   0  0  0  0  0  0  0  0  0  0  0  0
   55.9440   27.3950   45.7090 N   0  0  0  0  0  0  0  0  0  0  0  0
   55.1650   28.0670   45.5230 H   0  0  0  0  0  0  0  0  0  0  0  0
  1  2  1  0
  2  3  2  0
  3  4  1  0
  4  5  1  0
  5  6  2  0
  6  7  1  0
  5  8  1  0
  8  9  2  0
  9 10  1  0
 10 11  2  0
 11 12  1  0
 11 13  1  0
 13 14  1  0
 13 15  2  0
 15 16  1  0
 15 17  1  0
 17 18  1  0
 17 19  2  0
 19 20  1  0
 20 21  1  0
 20 22  1  0
 20 23  1  0
 23 24  1  0
  9 25  1  0
 25 26  1  0
 25  3  1  0
 19 10  1  0
M  CHG  1   4  -1
M  END
>  <UniqueID>  (75) 
68

>  <SMILES>  (75) 
[H]/N=c1/[n-]/c(=N/[H])nc(-c2ccccc2CO)[nH]1

>  <Energy>  (75) 
32.83024433805918

>  <Genealogy>  (75) 
N=c1nc(-c2ccccc2CO)[nH]c(=N)[n-]1 (protonated)
[H]/N=c1/[n-]/c(=N/[H])nc(-c2ccccc2CO)[nH]1 (cis-trans isomerization)
[H]/N=c1/[n-]/c(=N/[H])nc(-c2ccccc2CO)[nH]1 (3D coordinates assigned)
[H]/N=c1/[n-]/c(=N/[H])nc(-c2ccccc2CO)[nH]1 (optimized conformer: 32.83024433805918 kcal/mol)

>  <smiles>  (75) 
N=c1nc(-c2ccccc2CO)[nH]c(=N)[nH]1

>  <score_type>  (75) 
oracle

>  <origin>  (75) 
adg

>  <m_score__min__energy>  (75) 
-8.0700000000000003

>  <m_primary>  (75) 
energy

$$$$
75:0
     RDKit          3D

 46 49  0  0  0  0  0  0  0  0999 V2000
   60.4780   25.2570   46.3680 O   0  0  0  0  0  0  0  0  0  0  0  0
   59.3700   25.8610   46.3900 C   0  0  0  0  0  0  0  0  0  0  0  0
   58.1510   25.1230   46.5360 N   0  0  0  0  0  0  0  0  0  0  0  0
   57.4680   24.4220   45.4870 C   0  0  0  0  0  0  0  0  0  0  0  0
   58.1200   23.3530   44.8590 C   0  0  0  0  0  0  0  0  0  0  0  0
   57.4840   22.6340   43.8420 C   0  0  0  0  0  0  0  0  0  0  0  0
   56.1830   22.9680   43.4580 C   0  0  0  0  0  0  0  0  0  0  0  0
   55.5660   22.2690   42.4740 F   0  0  0  0  0  0  0  0  0  0  0  0
   55.5110   24.0130   44.1000 C   0  0  0  0  0  0  0  0  0  0  0  0
   56.1430   24.7360   45.1180 C   0  0  0  0  0  0  0  0  0  0  0  0
   55.4420   25.6930   45.7740 F   0  0  0  0  0  0  0  0  0  0  0  0
   59.3440   27.3390   46.3920 C   0  0  0  0  0  0  0  0  0  0  0  0
   58.8450   27.9890   45.2520 C   0  0  0  0  0  0  0  0  0  0  0  0
   58.8540   29.3850   45.1420 C   0  0  0  0  0  0  0  0  0  0  0  0
   58.3440   29.9940   43.9420 N   0  0  0  0  0  0  0  0  0  0  0  0
   57.2170   31.3140   43.9170 S   0  0  0  0  0  0  0  0  0  0  0  0
   55.8980   30.8730   44.4880 O   0  0  0  0  0  0  0  0  0  0  0  0
   57.0140   31.7870   42.5040 O   0  0  0  0  0  0  0  0  0  0  0  0
   57.8600   32.6340   44.8870 C   0  0  0  0  0  0  0  0  0  0  0  0
   57.5170   32.7440   46.2430 C   0  0  0  0  0  0  0  0  0  0  0  0
   58.0400   33.7840   47.0190 C   0  0  0  0  0  0  0  0  0  0  0  0
   58.9110   34.7140   46.4460 C   0  0  0  0  0  0  0  0  0  0  0  0
   59.2630   34.6040   45.0970 C   0  0  0  0  0  0  0  0  0  0  0  0
   58.7410   33.5650   44.3190 C   0  0  0  0  0  0  0  0  0  0  0  0
   59.3680   30.1490   46.2020 C   0  0  0  0  0  0  0  0  0  0  0  0
   59.8450   29.5300   47.3640 C   0  0  0  0  0  0  0  0  0  0  0  0
   60.3310   30.3140   48.4250 C   0  0  0  0  0  0  0  0  0  0  0  0
   60.7750   29.7110   49.6010 C   0  0  0  0  0  0  0  0  0  0  0  0
   60.7260   28.3250   49.7390 C   0  0  0  0  0  0  0  0  0  0  0  0
   60.2500   27.5290   48.6940 C   0  0  0  0  0  0  0  0  0  0  0  0
   59.8250   28.1140   47.4800 C   0  0  0  0  0  0  0  0  0  0  0  0
   59.1391   23.0772   45.1679 H   0  0  0  0  0  0  0  0  0  0  0  0
   58.0084   21.8051   43.3442 H   0  0  0  0  0  0  0  0  0  0  0  0
   54.4826   24.2674   43.8039 H   0  0  0  0  0  0  0  0  0  0  0  0
   58.4375   27.3877   44.4260 H   0  0  0  0  0  0  0  0  0  0  0  0
   58.6580   29.6280   43.0150 H   0  0  0  0  0  0  0  0  0  0  0  0
   56.8348   32.0104   46.6973 H   0  0  0  0  0  0  0  0  0  0  0  0
   57.7653   33.8695   48.0807 H   0  0  0  0  0  0  0  0  0  0  0  0
   59.3200   35.5329   47.0560 H   0  0  0  0  0  0  0  0  0  0  0  0
   59.9509   35.3351   44.6472 H   0  0  0  0  0  0  0  0  0  0  0  0
   59.0225   33.4783   43.2592 H   0  0  0  0  0  0  0  0  0  0  0  0
   59.3963   31.2455   46.1188 H   0  0  0  0  0  0  0  0  0  0  0  0
   60.3611   31.4092   48.3267 H   0  0  0  0  0  0  0  0  0  0  0  0
   61.1649   30.3307   50.4220 H   0  0  0  0  0  0  0  0  0  0  0  0
   61.0636   27.8557   50.6748 H   0  0  0  0  0  0  0  0  0  0  0  0
   60.2057   26.4369   48.8175 H   0  0  0  0  0  0  0  0  0  0  0  0
  1  2  2  0
  2  3  1  0
  3  4  1  0
  4  5  2  0
  5  6  1  0
  6  7  2  0
  7  8  1  0
  7  9  1  0
  9 10  2  0
 10 11  1  0
  2 12  1  0
 12 13  2  0
 13 14  1  0
 14 15  1  0
 15 16  1  0
 16 17  2  0
 16 18  2  0
 16 19  1  0
 19 20  2  0
 20 21  1  0
 21 22  2  0
 22 23  1  0
 23 24  2  0
 14 25  2  0
 25 26  1  0
 26 27  2  0
 27 28  1  0
 28 29  2  0
 29 30  1  0
 30 31  2  0
 10  4  1  0
 31 12  1  0
 24 19  1  0
 31 26  1  0
  5 32  1  0
  6 33  1  0
  9 34  1  0
 13 35  1  0
 15 36  1  0
 20 37  1  0
 21 38  1  0
 22 39  1  0
 23 40  1  0
 24 41  1  0
 25 42  1  0
 27 43  1  0
 28 44  1  0
 29 45  1  0
 30 46  1  0
M  CHG  1   3  -1
M  END
>  <UniqueID>  (76) 
69

>  <SMILES>  (76) 
O=C([N-]c1ccc(F)cc1F)c1cc(NS(=O)(=O)c2ccccc2)cc2ccccc12

>  <Energy>  (76) 
70.1137363399168

>  <Genealogy>  (76) 
O=C([N-]c1ccc(F)cc1F)c1cc(NS(=O)(=O)c2ccccc2)cc2ccccc12 (protonated)
O=C([N-]c1ccc(F)cc1F)c1cc(NS(=O)(=O)c2ccccc2)cc2ccccc12 (3D coordinates assigned)
O=C([N-]c1ccc(F)cc1F)c1cc(NS(=O)(=O)c2ccccc2)cc2ccccc12 (optimized conformer: 70.1137363399168 kcal/mol)

>  <smiles>  (76) 
O=C(Nc1ccc(F)cc1F)c1cc(NS(=O)(=O)c2ccccc2)cc2ccccc12

>  <score_type>  (76) 
oracle

>  <origin>  (76) 
adg

>  <m_score__min__energy>  (76) 
-10.9

>  <m_primary>  (76) 
energy

$$$$
76:0
     RDKit          3D

 39 41  0  0  0  0  0  0  0  0999 V2000
   57.4070   31.6180   42.0810 C   0  0  0  0  0  0  0  0  0  0  0  0
   56.7010   30.3940   42.6570 C   0  0  0  0  0  0  0  0  0  0  0  0
   57.2530   30.0490   43.9830 N   0  0  0  0  0  0  0  0  0  0  0  0
   57.7740   28.7950   44.2420 C   0  0  0  0  0  0  0  0  0  0  0  0
   57.7450   27.7500   43.2500 N   0  0  0  0  0  0  0  0  0  0  0  0
   58.3300   28.5200   45.5070 C   0  0  0  0  0  0  0  0  0  0  0  0
   58.8980   27.2360   45.8080 N   0  0  0  0  0  0  0  0  0  0  0  0
   60.3400   27.0470   45.6300 C   0  0  0  0  0  0  0  0  0  0  0  0
   58.0420   26.1760   46.2780 C   0  0  0  0  0  0  0  0  0  0  0  0
   57.3810   26.3440   47.3400 O   0  0  0  0  0  0  0  0  0  0  0  0
   57.9170   24.8930   45.5540 C   0  0  0  0  0  0  0  0  0  0  0  0
   58.9680   23.9370   45.6230 C   0  0  0  0  0  0  0  0  0  0  0  0
   58.8790   22.7140   44.9280 C   0  0  0  0  0  0  0  0  0  0  0  0
   57.7340   22.4860   44.1700 C   0  0  0  0  0  0  0  0  0  0  0  0
   57.4290   21.4110   43.4210 N   0  0  0  0  0  0  0  0  0  0  0  0
   56.2440   21.6140   42.8510 N   0  0  0  0  0  0  0  0  0  0  0  0
   55.8060   22.8280   43.2500 C   0  0  0  0  0  0  0  0  0  0  0  0
   54.7110   23.3360   42.8920 O   0  0  0  0  0  0  0  0  0  0  0  0
   56.7300   23.4060   44.0880 C   0  0  0  0  0  0  0  0  0  0  0  0
   56.7790   24.6250   44.7570 C   0  0  0  0  0  0  0  0  0  0  0  0
   58.3020   29.5140   46.4840 C   0  0  0  0  0  0  0  0  0  0  0  0
   58.7840   29.3010   47.6290 O   0  0  0  0  0  0  0  0  0  0  0  0
   57.7490   30.7150   46.2050 N   0  0  0  0  0  0  0  0  0  0  0  0
   57.2250   30.9900   44.9860 C   0  0  0  0  0  0  0  0  0  0  0  0
   56.7140   32.1260   44.7910 O   0  0  0  0  0  0  0  0  0  0  0  0
   57.7722   32.2512   42.9030 H   0  0  0  0  0  0  0  0  0  0  0  0
   58.2569   31.2938   41.4624 H   0  0  0  0  0  0  0  0  0  0  0  0
   56.7008   32.1913   41.4624 H   0  0  0  0  0  0  0  0  0  0  0  0
   55.6273   30.6106   42.7580 H   0  0  0  0  0  0  0  0  0  0  0  0
   56.8563   29.5434   41.9770 H   0  0  0  0  0  0  0  0  0  0  0  0
   58.4640   27.6990   42.4970 H   0  0  0  0  0  0  0  0  0  0  0  0
   57.0710   26.9570   43.2850 H   0  0  0  0  0  0  0  0  0  0  0  0
   60.8258   26.9833   46.6149 H   0  0  0  0  0  0  0  0  0  0  0  0
   60.5217   26.1174   45.0708 H   0  0  0  0  0  0  0  0  0  0  0  0
   60.7551   27.8984   45.0708 H   0  0  0  0  0  0  0  0  0  0  0  0
   59.8615   24.1549   46.2264 H   0  0  0  0  0  0  0  0  0  0  0  0
   59.6848   21.9672   44.9826 H   0  0  0  0  0  0  0  0  0  0  0  0
   58.0100   20.5530   43.2910 H   0  0  0  0  0  0  0  0  0  0  0  0
   55.9611   25.3553   44.6693 H   0  0  0  0  0  0  0  0  0  0  0  0
  1  2  1  0
  2  3  1  0
  3  4  1  0
  4  5  1  0
  4  6  2  0
  6  7  1  0
  7  8  1  0
  7  9  1  0
  9 10  2  0
  9 11  1  0
 11 12  2  0
 12 13  1  0
 13 14  2  0
 14 15  1  0
 15 16  1  0
 16 17  1  0
 17 18  2  0
 17 19  1  0
 19 20  2  0
  6 21  1  0
 21 22  2  0
 21 23  1  0
 23 24  1  0
 24 25  2  0
 24  3  1  0
 20 11  1  0
 19 14  1  0
  1 26  1  0
  1 27  1  0
  1 28  1  0
  2 29  1  0
  2 30  1  0
  5 31  1  0
  5 32  1  0
  8 33  1  0
  8 34  1  0
  8 35  1  0
 12 36  1  0
 13 37  1  0
 15 38  1  0
 20 39  1  0
M  CHG  2  16  -1  23  -1
M  END
>  <UniqueID>  (77) 
70

>  <SMILES>  (77) 
CCn1c(N)c(N(C)C(=O)c2ccc3[nH][n-]c(=O)c3c2)c(=O)[n-]c1=O

>  <Energy>  (77) 
97.6105375074001

>  <Genealogy>  (77) 
CCn1c(N)c(N(C)C(=O)c2ccc3[nH][n-]c(=O)c3c2)c(=O)[n-]c1=O (protonated)
CCn1c(N)c(N(C)C(=O)c2ccc3[nH][n-]c(=O)c3c2)c(=O)[n-]c1=O (3D coordinates assigned)
CCn1c(N)c(N(C)C(=O)c2ccc3[nH][n-]c(=O)c3c2)c(=O)[n-]c1=O (optimized conformer: 97.6105375074001 kcal/mol)

>  <smiles>  (77) 
CCn1c(N)c(N(C)C(=O)c2ccc3[nH][nH]c(=O)c3c2)c(=O)[nH]c1=O

>  <score_type>  (77) 
oracle

>  <origin>  (77) 
adg

>  <m_score__min__energy>  (77) 
-9.9800000000000004

>  <m_primary>  (77) 
energy

$$$$
77:0
     RDKit          3D

 36 38  0  0  0  0  0  0  0  0999 V2000
   59.9740   25.9690   46.1960 H   0  0  0  0  0  0  0  0  0  0  0  0
   59.4250   25.1210   46.1490 O   0  0  0  0  0  0  0  0  0  0  0  0
   58.0730   25.1360   45.8120 C   0  0  0  0  0  0  0  0  0  0  0  0
   57.4600   24.2210   44.9800 C   0  0  0  0  0  0  0  0  0  0  0  0
   56.1370   24.5900   44.8920 C   0  0  0  0  0  0  0  0  0  0  0  0
   55.9840   25.6890   45.7130 C   0  0  0  0  0  0  0  0  0  0  0  0
   54.7820   26.3430   45.9600 O   0  0  0  0  0  0  0  0  0  0  0  0
   57.1690   26.0400   46.2600 N   0  0  0  0  0  0  0  0  0  0  0  0
   57.3930   27.1230   47.2170 C   0  0  0  0  0  0  0  0  0  0  0  0
   57.9332   26.7308   48.0913 H   0  0  0  0  0  0  0  0  0  0  0  0
   56.4223   27.5334   47.5320 H   0  0  0  0  0  0  0  0  0  0  0  0
   58.2050   28.2120   46.5780 C   0  0  0  0  0  0  0  0  0  0  0  0
   59.3660   27.9560   46.1620 O   0  0  0  0  0  0  0  0  0  0  0  0
   57.6190   29.4850   46.2860 N   0  0  0  0  0  0  0  0  0  0  0  0
   57.3740   30.0070   45.1150 C   0  0  0  0  0  0  0  0  0  0  0  0
   58.3030   30.8560   44.5950 N   0  0  0  0  0  0  0  0  0  0  0  0
   58.1570   31.4470   43.3800 C   0  0  0  0  0  0  0  0  0  0  0  0
   58.9367   32.1237   43.0005 H   0  0  0  0  0  0  0  0  0  0  0  0
   57.0200   31.1960   42.6150 C   0  0  0  0  0  0  0  0  0  0  0  0
   56.9026   31.6596   41.6244 H   0  0  0  0  0  0  0  0  0  0  0  0
   56.0330   30.3510   43.1190 C   0  0  0  0  0  0  0  0  0  0  0  0
   55.1292   30.1486   42.5256 H   0  0  0  0  0  0  0  0  0  0  0  0
   56.1880   29.7600   44.3760 C   0  0  0  0  0  0  0  0  0  0  0  0
   55.1490   28.9800   44.8740 O   0  0  0  0  0  0  0  0  0  0  0  0
   55.0960   23.8080   44.1510 C   0  0  0  0  0  0  0  0  0  0  0  0
   54.4230   24.5037   43.6284 H   0  0  0  0  0  0  0  0  0  0  0  0
   54.5257   23.2006   44.8692 H   0  0  0  0  0  0  0  0  0  0  0  0
   55.7620   22.8740   43.1210 C   0  0  0  0  0  0  0  0  0  0  0  0
   56.1106   23.4751   42.2683 H   0  0  0  0  0  0  0  0  0  0  0  0
   55.0171   22.1301   42.8019 H   0  0  0  0  0  0  0  0  0  0  0  0
   56.9660   22.1190   43.7260 C   0  0  0  0  0  0  0  0  0  0  0  0
   57.3893   21.4521   42.9605 H   0  0  0  0  0  0  0  0  0  0  0  0
   56.6093   21.5468   44.5951 H   0  0  0  0  0  0  0  0  0  0  0  0
   58.0660   23.0880   44.2080 C   0  0  0  0  0  0  0  0  0  0  0  0
   58.6033   23.4895   43.3362 H   0  0  0  0  0  0  0  0  0  0  0  0
   58.7624   22.5420   44.8615 H   0  0  0  0  0  0  0  0  0  0  0  0
  1  2  1  0
  2  3  1  0
  3  4  2  0
  4  5  1  0
  5  6  2  0
  6  7  1  0
  6  8  1  0
  8  9  1  0
  9 10  1  0
  9 11  1  0
  9 12  1  0
 12 13  2  0
 12 14  1  0
 14 15  2  0
 15 16  1  0
 16 17  1  0
 17 18  1  0
 17 19  2  0
 19 20  1  0
 19 21  1  0
 21 22  1  0
 21 23  2  0
 23 24  1  0
  5 25  1  0
 25 26  1  0
 25 27  1  0
 25 28  1  0
 28 29  1  0
 28 30  1  0
 28 31  1  0
 31 32  1  0
 31 33  1  0
 31 34  1  0
 34 35  1  0
 34 36  1  0
  8  3  1  0
 23 15  1  0
 34  4  1  0
M  CHG  3   7  -1  16  -1  24  -1
M  END
>  <UniqueID>  (78) 
71

>  <SMILES>  (78) 
O=C(Cn1c([O-])c2c(c1O)CCCC2)/N=c1/[n-]cccc1[O-]

>  <Energy>  (78) 
77.6938170686273

>  <Genealogy>  (78) 
O=C(Cn1c([O-])c2c(c1O)CCCC2)N=c1[n-]cccc1[O-] (protonated)
O=C(Cn1c([O-])c2c(c1O)CCCC2)/N=c1/[n-]cccc1[O-] (cis-trans isomerization)
O=C(Cn1c([O-])c2c(c1O)CCCC2)/N=c1/[n-]cccc1[O-] (3D coordinates assigned)
O=C(Cn1c([O-])c2c(c1O)CCCC2)/N=c1/[n-]cccc1[O-] (nonaromatic ring conformer: 77.6938170686273 kcal/mol)

>  <smiles>  (78) 
O=C(Cn1c(O)c2c(c1O)CCCC2)N=c1[nH]cccc1O

>  <score_type>  (78) 
oracle

>  <origin>  (78) 
adg

>  <m_score__min__energy>  (78) 
-14.68

>  <m_primary>  (78) 
energy

$$$$
78:0
     RDKit          3D

 67 70  0  0  0  0  0  0  0  0999 V2000
   55.2200   25.0500   45.6100 C   0  0  0  0  0  0  0  0  0  0  0  0
   55.4020   26.4080   45.9930 O   0  0  0  0  0  0  0  0  0  0  0  0
   56.6420   27.0640   46.0100 C   0  0  0  0  0  0  0  0  0  0  0  0
   57.6060   26.6350   46.9280 C   0  0  0  0  0  0  0  0  0  0  0  0
   58.8210   27.3100   47.0400 C   0  0  0  0  0  0  0  0  0  0  0  0
   59.0950   28.4100   46.2240 C   0  0  0  0  0  0  0  0  0  0  0  0
   58.1590   28.8250   45.2570 C   0  0  0  0  0  0  0  0  0  0  0  0
   58.4010   29.9260   44.3640 N   0  0  0  0  0  0  0  0  0  0  0  0
   57.6120   31.4760   44.3600 S   0  0  0  0  0  0  0  0  0  0  0  0
   57.8460   32.2100   43.0690 O   0  0  0  0  0  0  0  0  0  0  0  0
   56.1330   31.2350   44.4930 O   0  0  0  0  0  0  0  0  0  0  0  0
   58.1660   32.4510   45.7230 C   0  0  0  0  0  0  0  0  0  0  0  0
   58.6430   33.7540   45.5100 C   0  0  0  0  0  0  0  0  0  0  0  0
   59.0990   34.5190   46.5860 C   0  0  0  0  0  0  0  0  0  0  0  0
   59.0660   33.9960   47.8830 C   0  0  0  0  0  0  0  0  0  0  0  0
   58.5700   32.7010   48.1130 C   0  0  0  0  0  0  0  0  0  0  0  0
   58.5190   32.1710   49.4940 C   0  0  0  0  0  0  0  0  0  0  0  0
   57.4830   32.3970   50.1800 O   0  0  0  0  0  0  0  0  0  0  0  0
   59.5950   31.3830   50.0620 N   0  0  0  0  0  0  0  0  0  0  0  0
   60.2340   30.3090   49.2740 C   0  0  0  0  0  0  0  0  0  0  0  0
   61.7710   30.3760   49.3220 C   0  0  0  0  0  0  0  0  0  0  0  0
   62.3370   31.5890   48.6290 C   0  0  0  0  0  0  0  0  0  0  0  0
   61.8070   32.0230   47.4000 C   0  0  0  0  0  0  0  0  0  0  0  0
   62.3330   33.1480   46.7610 C   0  0  0  0  0  0  0  0  0  0  0  0
   63.3970   33.8460   47.3380 C   0  0  0  0  0  0  0  0  0  0  0  0
   63.9390   33.4180   48.5540 C   0  0  0  0  0  0  0  0  0  0  0  0
   63.4140   32.2920   49.1970 C   0  0  0  0  0  0  0  0  0  0  0  0
   59.7880   31.3990   51.5220 C   0  0  0  0  0  0  0  0  0  0  0  0
   58.8480   30.4690   52.2450 C   0  0  0  0  0  0  0  0  0  0  0  0
   59.3400   29.6290   53.0470 O   0  0  0  0  0  0  0  0  0  0  0  0
   57.4190   30.5500   52.0820 N   0  0  0  0  0  0  0  0  0  0  0  0
   56.5030   29.6560   52.7820 C   0  0  0  0  0  0  0  0  0  0  0  0
   55.0920   29.9410   52.3750 C   0  0  0  0  0  0  0  0  0  0  0  0
   53.9740   29.2540   52.8010 C   0  0  0  0  0  0  0  0  0  0  0  0
   52.9090   29.8430   52.1520 C   0  0  0  0  0  0  0  0  0  0  0  0
   53.4440   30.8490   51.3740 C   0  0  0  0  0  0  0  0  0  0  0  0
   54.7490   30.8810   51.5250 O   0  0  0  0  0  0  0  0  0  0  0  0
   58.1400   31.9290   47.0230 C   0  0  0  0  0  0  0  0  0  0  0  0
   56.9370   28.1430   45.1550 C   0  0  0  0  0  0  0  0  0  0  0  0
   55.1360   24.4233   46.5101 H   0  0  0  0  0  0  0  0  0  0  0  0
   54.3015   24.9577   45.0119 H   0  0  0  0  0  0  0  0  0  0  0  0
   56.0818   24.7191   45.0119 H   0  0  0  0  0  0  0  0  0  0  0  0
   57.4048   25.7609   47.5647 H   0  0  0  0  0  0  0  0  0  0  0  0
   59.5676   26.9744   47.7748 H   0  0  0  0  0  0  0  0  0  0  0  0
   60.0445   28.9537   46.3370 H   0  0  0  0  0  0  0  0  0  0  0  0
   58.6577   34.1735   44.4933 H   0  0  0  0  0  0  0  0  0  0  0  0
   59.4848   35.5345   46.4132 H   0  0  0  0  0  0  0  0  0  0  0  0
   59.4298   34.6008   48.7267 H   0  0  0  0  0  0  0  0  0  0  0  0
   59.9108   29.3372   49.6754 H   0  0  0  0  0  0  0  0  0  0  0  0
   59.9269   30.4365   48.2254 H   0  0  0  0  0  0  0  0  0  0  0  0
   62.0868   30.3967   50.3755 H   0  0  0  0  0  0  0  0  0  0  0  0
   62.1523   29.4906   48.7922 H   0  0  0  0  0  0  0  0  0  0  0  0
   60.9732   31.4728   46.9396 H   0  0  0  0  0  0  0  0  0  0  0  0
   61.9095   33.4846   45.8032 H   0  0  0  0  0  0  0  0  0  0  0  0
   63.8089   34.7334   46.8351 H   0  0  0  0  0  0  0  0  0  0  0  0
   64.7786   33.9671   49.0052 H   0  0  0  0  0  0  0  0  0  0  0  0
   63.8456   31.9552   50.1511 H   0  0  0  0  0  0  0  0  0  0  0  0
   60.8219   31.0957   51.7433 H   0  0  0  0  0  0  0  0  0  0  0  0
   59.5787   32.4203   51.8728 H   0  0  0  0  0  0  0  0  0  0  0  0
   57.0060   31.2970   51.4860 H   0  0  0  0  0  0  0  0  0  0  0  0
   56.7500   28.6137   52.5316 H   0  0  0  0  0  0  0  0  0  0  0  0
   56.6034   29.8155   53.8657 H   0  0  0  0  0  0  0  0  0  0  0  0
   53.9393   28.4132   53.5094 H   0  0  0  0  0  0  0  0  0  0  0  0
   51.8477   29.5666   52.2374 H   0  0  0  0  0  0  0  0  0  0  0  0
   52.8653   31.5228   50.7251 H   0  0  0  0  0  0  0  0  0  0  0  0
   57.7788   30.9036   47.1908 H   0  0  0  0  0  0  0  0  0  0  0  0
   56.2015   28.4547   44.3988 H   0  0  0  0  0  0  0  0  0  0  0  0
  1  2  1  0
  2  3  1  0
  3  4  2  0
  4  5  1  0
  5  6  2  0
  6  7  1  0
  7  8  1  0
  8  9  1  0
  9 10  2  0
  9 11  2  0
  9 12  1  0
 12 13  2  0
 13 14  1  0
 14 15  2  0
 15 16  1  0
 16 17  1  0
 17 18  2  0
 17 19  1  0
 19 20  1  0
 20 21  1  0
 21 22  1  0
 22 23  2  0
 23 24  1  0
 24 25  2  0
 25 26  1  0
 26 27  2  0
 19 28  1  0
 28 29  1  0
 29 30  2  0
 29 31  1  0
 31 32  1  0
 32 33  1  0
 33 34  2  0
 34 35  1  0
 35 36  2  0
 36 37  1  0
 16 38  2  0
  7 39  2  0
 39  3  1  0
 38 12  1  0
 27 22  1  0
 37 33  1  0
  1 40  1  0
  1 41  1  0
  1 42  1  0
  4 43  1  0
  5 44  1  0
  6 45  1  0
 13 46  1  0
 14 47  1  0
 15 48  1  0
 20 49  1  0
 20 50  1  0
 21 51  1  0
 21 52  1  0
 23 53  1  0
 24 54  1  0
 25 55  1  0
 26 56  1  0
 27 57  1  0
 28 58  1  0
 28 59  1  0
 31 60  1  0
 32 61  1  0
 32 62  1  0
 34 63  1  0
 35 64  1  0
 36 65  1  0
 38 66  1  0
 39 67  1  0
M  CHG  1   8  -1
M  END
>  <UniqueID>  (79) 
72

>  <SMILES>  (79) 
COc1cccc([N-]S(=O)(=O)c2cccc(C(=O)N(CCc3ccccc3)CC(=O)NCc3ccco3)c2)c1

>  <Energy>  (79) 
94.55718621170361

>  <Genealogy>  (79) 
COc1cccc([N-]S(=O)(=O)c2cccc(C(=O)N(CCc3ccccc3)CC(=O)NCc3ccco3)c2)c1 (protonated)
COc1cccc([N-]S(=O)(=O)c2cccc(C(=O)N(CCc3ccccc3)CC(=O)NCc3ccco3)c2)c1 (3D coordinates assigned)
COc1cccc([N-]S(=O)(=O)c2cccc(C(=O)N(CCc3ccccc3)CC(=O)NCc3ccco3)c2)c1 (optimized conformer: 94.55718621170361 kcal/mol)

>  <smiles>  (79) 
COc1cccc(NS(=O)(=O)c2cccc(C(=O)N(CCc3ccccc3)CC(=O)NCc3ccco3)c2)c1

>  <score_type>  (79) 
oracle

>  <origin>  (79) 
adg

>  <m_score__min__energy>  (79) 
-11.390000000000001

>  <m_primary>  (79) 
energy

$$$$
79:0
     RDKit          3D

 48 50  0  0  0  0  0  0  0  0999 V2000
   55.4790   28.9730   44.8870 N   0  0  0  0  0  0  0  0  0  0  0  0
   56.7850   30.0780   44.6510 S   0  0  0  0  0  0  0  0  0  0  0  0
   57.3710   29.8730   43.2830 O   0  0  0  0  0  0  0  0  0  0  0  0
   56.2760   31.4890   44.7500 O   0  0  0  0  0  0  0  0  0  0  0  0
   58.0150   29.8060   45.8800 C   0  0  0  0  0  0  0  0  0  0  0  0
   58.7420   28.6070   45.9030 C   0  0  0  0  0  0  0  0  0  0  0  0
   59.6970   28.3860   46.8980 C   0  0  0  0  0  0  0  0  0  0  0  0
   59.9360   29.3620   47.8710 C   0  0  0  0  0  0  0  0  0  0  0  0
   59.2310   30.5710   47.8470 C   0  0  0  0  0  0  0  0  0  0  0  0
   59.4760   31.5380   48.8780 N   0  0  0  0  0  0  0  0  0  0  0  0
   58.8820   31.5580   50.1830 C   0  0  0  0  0  0  0  0  0  0  0  0
   57.7930   32.1720   50.3440 O   0  0  0  0  0  0  0  0  0  0  0  0
   59.4920   30.8260   51.3490 C   0  0  0  0  0  0  0  0  0  0  0  0
   58.6200   30.9320   52.5310 N   0  0  0  0  0  0  0  0  0  0  0  0
   58.9840   31.7690   53.5500 C   0  0  0  0  0  0  0  0  0  0  0  0
   58.1770   31.9120   54.6760 C   0  0  0  0  0  0  0  0  0  0  0  0
   56.9830   31.2030   54.7590 C   0  0  0  0  0  0  0  0  0  0  0  0
   56.5900   30.3560   53.7110 C   0  0  0  0  0  0  0  0  0  0  0  0
   55.3490   29.6190   53.7660 N   0  0  0  0  0  0  0  0  0  0  0  0
   54.0520   30.2120   54.0920 C   0  0  0  0  0  0  0  0  0  0  0  0
   53.2490   30.4580   52.8420 C   0  0  0  0  0  0  0  0  0  0  0  0
   53.4810   29.7020   51.6820 C   0  0  0  0  0  0  0  0  0  0  0  0
   52.7310   29.9360   50.5250 C   0  0  0  0  0  0  0  0  0  0  0  0
   51.7460   30.9320   50.5130 C   0  0  0  0  0  0  0  0  0  0  0  0
   50.9950   31.1690   49.3640 O   0  0  0  0  0  0  0  0  0  0  0  0
   51.5170   31.6960   51.6650 C   0  0  0  0  0  0  0  0  0  0  0  0
   50.5430   32.6890   51.6610 O   0  0  0  0  0  0  0  0  0  0  0  0
   52.2670   31.4630   52.8220 C   0  0  0  0  0  0  0  0  0  0  0  0
   57.4380   30.2340   52.5910 C   0  0  0  0  0  0  0  0  0  0  0  0
   57.0970   29.4850   51.6330 O   0  0  0  0  0  0  0  0  0  0  0  0
   58.2500   30.7780   46.8620 C   0  0  0  0  0  0  0  0  0  0  0  0
   54.6940   29.5150   45.3140 H   0  0  0  0  0  0  0  0  0  0  0  0
   58.5599   27.8395   45.1363 H   0  0  0  0  0  0  0  0  0  0  0  0
   60.2623   27.4425   46.9164 H   0  0  0  0  0  0  0  0  0  0  0  0
   60.6815   29.1786   48.6588 H   0  0  0  0  0  0  0  0  0  0  0  0
   59.6191   29.7656   51.0856 H   0  0  0  0  0  0  0  0  0  0  0  0
   60.4684   31.2755   51.5828 H   0  0  0  0  0  0  0  0  0  0  0  0
   59.9244   32.3353   53.4792 H   0  0  0  0  0  0  0  0  0  0  0  0
   58.4817   32.5811   55.4942 H   0  0  0  0  0  0  0  0  0  0  0  0
   56.3447   31.3065   55.6489 H   0  0  0  0  0  0  0  0  0  0  0  0
   55.3480   28.6080   53.4970 H   0  0  0  0  0  0  0  0  0  0  0  0
   53.4965   29.5264   54.7488 H   0  0  0  0  0  0  0  0  0  0  0  0
   54.2205   31.1737   54.5986 H   0  0  0  0  0  0  0  0  0  0  0  0
   54.2564   28.9218   51.6831 H   0  0  0  0  0  0  0  0  0  0  0  0
   52.9151   29.3361   49.6216 H   0  0  0  0  0  0  0  0  0  0  0  0
   50.0260   30.8780   49.2940 H   0  0  0  0  0  0  0  0  0  0  0  0
   52.0873   32.0699   53.7216 H   0  0  0  0  0  0  0  0  0  0  0  0
   57.6632   31.7084   46.8618 H   0  0  0  0  0  0  0  0  0  0  0  0
  1  2  1  0
  2  3  2  0
  2  4  2  0
  2  5  1  0
  5  6  2  0
  6  7  1  0
  7  8  2  0
  8  9  1  0
  9 10  1  0
 10 11  1  0
 11 12  2  0
 11 13  1  0
 13 14  1  0
 14 15  1  0
 15 16  2  0
 16 17  1  0
 17 18  2  0
 18 19  1  0
 19 20  1  0
 20 21  1  0
 21 22  2  0
 22 23  1  0
 23 24  2  0
 24 25  1  0
 24 26  1  0
 26 27  1  0
 26 28  2  0
 18 29  1  0
 29 30  2  0
  9 31  2  0
 31  5  1  0
 29 14  1  0
 28 21  1  0
  1 32  1  0
  6 33  1  0
  7 34  1  0
  8 35  1  0
 13 36  1  0
 13 37  1  0
 15 38  1  0
 16 39  1  0
 17 40  1  0
 19 41  1  0
 20 42  1  0
 20 43  1  0
 22 44  1  0
 23 45  1  0
 25 46  1  0
 28 47  1  0
 31 48  1  0
M  CHG  3   1  -1  10  -1  27  -1
M  END
>  <UniqueID>  (80) 
73

>  <SMILES>  (80) 
[NH-]S(=O)(=O)c1cccc([N-]C(=O)Cn2cccc(NCc3ccc(O)c([O-])c3)c2=O)c1

>  <Energy>  (80) 
56.60149049035743

>  <Genealogy>  (80) 
[NH-]S(=O)(=O)c1cccc([N-]C(=O)Cn2cccc(NCc3ccc(O)c([O-])c3)c2=O)c1 (protonated)
[NH-]S(=O)(=O)c1cccc([N-]C(=O)Cn2cccc(NCc3ccc(O)c([O-])c3)c2=O)c1 (3D coordinates assigned)
[NH-]S(=O)(=O)c1cccc([N-]C(=O)Cn2cccc(NCc3ccc(O)c([O-])c3)c2=O)c1 (optimized conformer: 56.60149049035743 kcal/mol)

>  <smiles>  (80) 
NS(=O)(=O)c1cccc(NC(=O)Cn2cccc(NCc3ccc(O)c(O)c3)c2=O)c1

>  <score_type>  (80) 
oracle

>  <origin>  (80) 
adg

>  <m_score__min__energy>  (80) 
-17.300000000000001

>  <m_primary>  (80) 
energy

$$$$
80:0
     RDKit          3D

 52 54  0  0  0  0  0  0  0  0999 V2000
   58.9430   25.4254   47.7262 H   0  0  0  0  0  0  0  0  0  0  0  0
   58.0980   25.8020   47.1310 C   0  0  0  0  0  0  0  0  0  0  0  0
   56.9500   25.0830   47.0500 N   0  0  0  0  0  0  0  0  0  0  0  0
   55.8910   25.5290   46.3180 C   0  0  0  0  0  0  0  0  0  0  0  0
   54.7940   24.8380   46.2370 N   0  0  0  0  0  0  0  0  0  0  0  0
   54.4250   23.9700   45.1180 C   0  0  0  0  0  0  0  0  0  0  0  0
   54.4394   24.5601   44.1898 H   0  0  0  0  0  0  0  0  0  0  0  0
   53.4206   23.5669   45.3147 H   0  0  0  0  0  0  0  0  0  0  0  0
   55.4010   22.7780   44.9690 C   0  0  0  0  0  0  0  0  0  0  0  0
   54.8792   21.8672   45.2979 H   0  0  0  0  0  0  0  0  0  0  0  0
   56.2809   23.0241   45.5815 H   0  0  0  0  0  0  0  0  0  0  0  0
   55.9060   22.5470   43.5950 N   0  0  0  0  0  0  0  0  0  0  0  0
   56.7330   21.3360   43.4760 C   0  0  0  0  0  0  0  0  0  0  0  0
   56.9864   20.9649   44.4800 H   0  0  0  0  0  0  0  0  0  0  0  0
   56.1738   20.5623   42.9295 H   0  0  0  0  0  0  0  0  0  0  0  0
   57.6571   21.5753   42.9295 H   0  0  0  0  0  0  0  0  0  0  0  0
   56.5820   23.7150   43.0140 C   0  0  0  0  0  0  0  0  0  0  0  0
   56.9561   24.3614   43.8216 H   0  0  0  0  0  0  0  0  0  0  0  0
   57.4253   23.3791   42.3927 H   0  0  0  0  0  0  0  0  0  0  0  0
   55.8706   24.2789   42.3927 H   0  0  0  0  0  0  0  0  0  0  0  0
   55.9850   26.7100   45.6550 N   0  0  0  0  0  0  0  0  0  0  0  0
   57.1120   27.4730   45.7000 C   0  0  0  0  0  0  0  0  0  0  0  0
   57.1690   28.7150   44.9650 N   0  0  0  0  0  0  0  0  0  0  0  0
   55.9380   29.3590   44.4770 C   0  0  0  0  0  0  0  0  0  0  0  0
   55.5706   28.8117   43.5964 H   0  0  0  0  0  0  0  0  0  0  0  0
   55.1895   29.3398   45.2828 H   0  0  0  0  0  0  0  0  0  0  0  0
   56.1980   30.8160   44.0880 C   0  0  0  0  0  0  0  0  0  0  0  0
   56.6456   30.8563   43.0840 H   0  0  0  0  0  0  0  0  0  0  0  0
   55.2510   31.3755   44.0815 H   0  0  0  0  0  0  0  0  0  0  0  0
   57.1250   31.4120   45.0680 N   0  0  0  0  0  0  0  0  0  0  0  0
   57.1710   32.8810   44.9410 C   0  0  0  0  0  0  0  0  0  0  0  0
   57.4938   33.1479   43.9238 H   0  0  0  0  0  0  0  0  0  0  0  0
   56.1686   33.2898   45.1362 H   0  0  0  0  0  0  0  0  0  0  0  0
   58.1420   33.4600   45.9400 C   0  0  0  0  0  0  0  0  0  0  0  0
   58.0480   33.1240   47.3020 C   0  0  0  0  0  0  0  0  0  0  0  0
   57.2518   32.4476   47.6464 H   0  0  0  0  0  0  0  0  0  0  0  0
   58.9650   33.6480   48.2210 C   0  0  0  0  0  0  0  0  0  0  0  0
   58.8906   33.3786   49.2849 H   0  0  0  0  0  0  0  0  0  0  0  0
   59.9740   34.5120   47.7900 C   0  0  0  0  0  0  0  0  0  0  0  0
   60.6908   34.9247   48.5152 H   0  0  0  0  0  0  0  0  0  0  0  0
   60.0740   34.8530   46.4380 C   0  0  0  0  0  0  0  0  0  0  0  0
   60.8698   35.5333   46.1006 H   0  0  0  0  0  0  0  0  0  0  0  0
   59.1630   34.3300   45.5130 C   0  0  0  0  0  0  0  0  0  0  0  0
   59.2770   34.6690   44.2030 F   0  0  0  0  0  0  0  0  0  0  0  0
   58.4810   30.8320   44.9340 C   0  0  0  0  0  0  0  0  0  0  0  0
   59.0068   31.3551   44.1217 H   0  0  0  0  0  0  0  0  0  0  0  0
   58.9887   30.9581   45.9016 H   0  0  0  0  0  0  0  0  0  0  0  0
   58.4650   29.3210   44.6160 C   0  0  0  0  0  0  0  0  0  0  0  0
   58.6491   29.1790   43.5409 H   0  0  0  0  0  0  0  0  0  0  0  0
   59.2491   28.8320   45.2127 H   0  0  0  0  0  0  0  0  0  0  0  0
   58.2050   27.0200   46.4580 C   0  0  0  0  0  0  0  0  0  0  0  0
   59.1284   27.6146   46.5199 H   0  0  0  0  0  0  0  0  0  0  0  0
  1  2  1  0
  2  3  1  0
  3  4  1  0
  4  5  2  0
  5  6  1  0
  6  7  1  0
  6  8  1  0
  6  9  1  0
  9 10  1  0
  9 11  1  0
  9 12  1  0
 12 13  1  0
 13 14  1  0
 13 15  1  0
 13 16  1  0
 12 17  1  0
 17 18  1  0
 17 19  1  0
 17 20  1  0
  4 21  1  0
 21 22  2  0
 22 23  1  0
 23 24  1  0
 24 25  1  0
 24 26  1  0
 24 27  1  0
 27 28  1  0
 27 29  1  0
 27 30  1  0
 30 31  1  0
 31 32  1  0
 31 33  1  0
 31 34  1  0
 34 35  2  0
 35 36  1  0
 35 37  1  0
 37 38  1  0
 37 39  2  0
 39 40  1  0
 39 41  1  0
 41 42  1  0
 41 43  2  0
 43 44  1  0
 30 45  1  0
 45 46  1  0
 45 47  1  0
 45 48  1  0
 48 49  1  0
 48 50  1  0
 22 51  1  0
 51 52  1  0
 51  2  2  0
 48 23  1  0
 43 34  1  0
M  CHG  1   3  -1
M  END
>  <UniqueID>  (81) 
74

>  <SMILES>  (81) 
CN(C)CC/N=c1/nc(N2CCN(Cc3ccccc3F)CC2)cc[n-]1

>  <Energy>  (81) 
64.757718552499

>  <Genealogy>  (81) 
CN(C)CCN=c1nc(N2CCN(Cc3ccccc3F)CC2)cc[n-]1 (protonated)
CN(C)CC/N=c1/nc(N2CCN(Cc3ccccc3F)CC2)cc[n-]1 (cis-trans isomerization)
CN(C)CC/N=c1/nc(N2CCN(Cc3ccccc3F)CC2)cc[n-]1 (3D coordinates assigned)
CN(C)CC/N=c1/nc(N2CCN(Cc3ccccc3F)CC2)cc[n-]1 (nonaromatic ring conformer: 64.757718552499 kcal/mol)

>  <smiles>  (81) 
CN(C)CCN=c1nc(N2CCN(Cc3ccccc3F)CC2)cc[nH]1

>  <score_type>  (81) 
oracle

>  <origin>  (81) 
adg

>  <m_score__min__energy>  (81) 
-10.4

>  <m_primary>  (81) 
energy

$$$$
81:0
     RDKit          3D

 44 46  0  0  0  0  0  0  0  0999 V2000
   54.5960   23.2710   45.2160 C   0  0  0  0  0  0  0  0  0  0  0  0
   55.1280   24.6210   45.5790 C   0  0  0  0  0  0  0  0  0  0  0  0
   54.3520   25.7150   45.6930 N   0  0  0  0  0  0  0  0  0  0  0  0
   55.1350   26.7070   46.0020 O   0  0  0  0  0  0  0  0  0  0  0  0
   56.3850   26.3200   46.0970 C   0  0  0  0  0  0  0  0  0  0  0  0
   57.3360   27.1620   46.3900 N   0  0  0  0  0  0  0  0  0  0  0  0
   58.4850   27.9360   45.3450 S   0  0  0  0  0  0  0  0  0  0  0  0
   58.5380   27.2630   44.0040 O   0  0  0  0  0  0  0  0  0  0  0  0
   59.8450   27.9140   45.9840 O   0  0  0  0  0  0  0  0  0  0  0  0
   57.9690   29.6110   45.1060 C   0  0  0  0  0  0  0  0  0  0  0  0
   58.8760   30.6530   45.3620 C   0  0  0  0  0  0  0  0  0  0  0  0
   58.4990   31.9920   45.2020 C   0  0  0  0  0  0  0  0  0  0  0  0
   59.4720   33.0150   45.4590 N   0  0  0  0  0  0  0  0  0  0  0  0
   59.6050   33.7870   46.6600 C   0  0  0  0  0  0  0  0  0  0  0  0
   58.6740   34.5520   47.0320 O   0  0  0  0  0  0  0  0  0  0  0  0
   60.8460   33.6850   47.4610 C   0  0  0  0  0  0  0  0  0  0  0  0
   62.0760   33.7480   46.7810 C   0  0  0  0  0  0  0  0  0  0  0  0
   63.2800   33.7620   47.4850 C   0  0  0  0  0  0  0  0  0  0  0  0
   63.2770   33.7140   48.8760 C   0  0  0  0  0  0  0  0  0  0  0  0
   62.0690   33.6300   49.5710 C   0  0  0  0  0  0  0  0  0  0  0  0
   60.8430   33.5930   48.8810 C   0  0  0  0  0  0  0  0  0  0  0  0
   59.6080   33.3910   49.6760 C   0  0  0  0  0  0  0  0  0  0  0  0
   58.8010   32.4690   49.3880 O   0  0  0  0  0  0  0  0  0  0  0  0
   59.3610   34.1800   50.7920 O   0  0  0  0  0  0  0  0  0  0  0  0
   57.2090   32.2910   44.7390 C   0  0  0  0  0  0  0  0  0  0  0  0
   56.3000   31.2640   44.4780 C   0  0  0  0  0  0  0  0  0  0  0  0
   56.6640   29.9260   44.6610 C   0  0  0  0  0  0  0  0  0  0  0  0
   55.7100   28.9440   44.3880 O   0  0  0  0  0  0  0  0  0  0  0  0
   56.4500   24.9500   45.8390 C   0  0  0  0  0  0  0  0  0  0  0  0
   57.6210   24.0140   45.7530 C   0  0  0  0  0  0  0  0  0  0  0  0
   54.3733   22.7059   46.1331 H   0  0  0  0  0  0  0  0  0  0  0  0
   53.6761   23.3864   44.6240 H   0  0  0  0  0  0  0  0  0  0  0  0
   55.3473   22.7279   44.6240 H   0  0  0  0  0  0  0  0  0  0  0  0
   59.8973   30.4134   45.6930 H   0  0  0  0  0  0  0  0  0  0  0  0
   62.0883   33.7867   45.6817 H   0  0  0  0  0  0  0  0  0  0  0  0
   64.2340   33.8111   46.9397 H   0  0  0  0  0  0  0  0  0  0  0  0
   64.2277   33.7423   49.4286 H   0  0  0  0  0  0  0  0  0  0  0  0
   62.0756   33.5923   50.6703 H   0  0  0  0  0  0  0  0  0  0  0  0
   56.9126   33.3385   44.5810 H   0  0  0  0  0  0  0  0  0  0  0  0
   55.2875   31.5095   44.1250 H   0  0  0  0  0  0  0  0  0  0  0  0
   55.8910   27.9520   44.4660 H   0  0  0  0  0  0  0  0  0  0  0  0
   57.9533   23.7484   46.7674 H   0  0  0  0  0  0  0  0  0  0  0  0
   57.3230   23.1024   45.2143 H   0  0  0  0  0  0  0  0  0  0  0  0
   58.4445   24.5055   45.2143 H   0  0  0  0  0  0  0  0  0  0  0  0
  1  2  1  0
  2  3  1  0
  3  4  1  0
  4  5  1  0
  5  6  2  3
  6  7  1  0
  7  8  2  0
  7  9  2  0
  7 10  1  0
 10 11  2  0
 11 12  1  0
 12 13  1  0
 13 14  1  0
 14 15  2  0
 14 16  1  0
 16 17  2  0
 17 18  1  0
 18 19  2  0
 19 20  1  0
 20 21  2  0
 21 22  1  0
 22 23  2  0
 22 24  1  0
 12 25  2  0
 25 26  1  0
 26 27  2  0
 27 28  1  0
  5 29  1  0
 29 30  1  0
 29  2  2  0
 27 10  1  0
 21 16  1  0
  1 31  1  0
  1 32  1  0
  1 33  1  0
 11 34  1  0
 17 35  1  0
 18 36  1  0
 19 37  1  0
 20 38  1  0
 25 39  1  0
 26 40  1  0
 28 41  1  0
 30 42  1  0
 30 43  1  0
 30 44  1  0
M  CHG  3   3  -1  13  -1  24  -1
M  END
>  <UniqueID>  (82) 
75

>  <SMILES>  (82) 
Cc1[n-]oc(=NS(=O)(=O)c2cc([N-]C(=O)c3ccccc3C(=O)[O-])ccc2O)c1C

>  <Energy>  (82) 
101.15487068415577

>  <Genealogy>  (82) 
Cc1[n-]oc(=NS(=O)(=O)c2cc([N-]C(=O)c3ccccc3C(=O)[O-])ccc2O)c1C (protonated)
Cc1[n-]oc(=NS(=O)(=O)c2cc([N-]C(=O)c3ccccc3C(=O)[O-])ccc2O)c1C (3D coordinates assigned)
Cc1[n-]oc(=NS(=O)(=O)c2cc([N-]C(=O)c3ccccc3C(=O)[O-])ccc2O)c1C (optimized conformer: 101.15487068415577 kcal/mol)

>  <smiles>  (82) 
Cc1[nH]oc(=NS(=O)(=O)c2cc(NC(=O)c3ccccc3C(=O)O)ccc2O)c1C

>  <score_type>  (82) 
oracle

>  <origin>  (82) 
adg

>  <m_score__min__energy>  (82) 
-14.529999999999999

>  <m_primary>  (82) 
energy

$$$$
82:0
     RDKit          3D

 46 49  0  0  0  0  0  0  0  0999 V2000
   54.9370   23.5720   46.2580 C   0  0  0  0  0  0  0  0  0  0  0  0
   55.5010   24.9270   45.9960 C   0  0  0  0  0  0  0  0  0  0  0  0
   56.8360   25.2250   45.8200 C   0  0  0  0  0  0  0  0  0  0  0  0
   56.8460   26.5960   45.6790 C   0  0  0  0  0  0  0  0  0  0  0  0
   58.0630   27.4520   45.5310 C   0  0  0  0  0  0  0  0  0  0  0  0
   57.7600   28.5970   44.6790 N   0  0  0  0  0  0  0  0  0  0  0  0
   58.0870   29.8800   44.9320 C   0  0  0  0  0  0  0  0  0  0  0  0
   57.5510   30.6550   43.9260 C   0  0  0  0  0  0  0  0  0  0  0  0
   57.6910   32.0430   43.8050 O   0  0  0  0  0  0  0  0  0  0  0  0
   58.1610   32.8960   44.8150 C   0  0  0  0  0  0  0  0  0  0  0  0
   58.8190   34.1030   44.5210 C   0  0  0  0  0  0  0  0  0  0  0  0
   59.2400   34.9420   45.5540 C   0  0  0  0  0  0  0  0  0  0  0  0
   59.0090   34.5870   46.8850 C   0  0  0  0  0  0  0  0  0  0  0  0
   58.3600   33.3860   47.1950 C   0  0  0  0  0  0  0  0  0  0  0  0
   58.1210   33.0720   48.5750 N   0  0  0  0  0  0  0  0  0  0  0  0
   59.1090   32.7780   49.5710 C   0  0  0  0  0  0  0  0  0  0  0  0
   58.8110   32.7940   50.7960 O   0  0  0  0  0  0  0  0  0  0  0  0
   60.4650   32.3990   49.1550 C   0  0  0  0  0  0  0  0  0  0  0  0
   61.3960   33.2310   48.5410 C   0  0  0  0  0  0  0  0  0  0  0  0
   62.6150   32.5900   48.2660 C   0  0  0  0  0  0  0  0  0  0  0  0
   63.7550   33.2540   47.5500 C   0  0  0  0  0  0  0  0  0  0  0  0
   64.8330   33.4030   48.4040 F   0  0  0  0  0  0  0  0  0  0  0  0
   63.3780   34.5050   47.0940 F   0  0  0  0  0  0  0  0  0  0  0  0
   64.1350   32.4760   46.4720 F   0  0  0  0  0  0  0  0  0  0  0  0
   62.6300   31.2460   48.6340 C   0  0  0  0  0  0  0  0  0  0  0  0
   61.1460   30.8710   49.3290 S   0  0  0  0  0  0  0  0  0  0  0  0
   57.9140   32.5550   46.1500 C   0  0  0  0  0  0  0  0  0  0  0  0
   56.9060   29.7780   43.0680 C   0  0  0  0  0  0  0  0  0  0  0  0
   57.0460   28.5350   43.5660 N   0  0  0  0  0  0  0  0  0  0  0  0
   55.5950   27.0810   45.7990 N   0  0  0  0  0  0  0  0  0  0  0  0
   54.7730   26.0600   45.9920 N   0  0  0  0  0  0  0  0  0  0  0  0
   54.8683   23.4070   47.3434 H   0  0  0  0  0  0  0  0  0  0  0  0
   53.9341   23.4998   45.8120 H   0  0  0  0  0  0  0  0  0  0  0  0
   55.5925   22.8095   45.8120 H   0  0  0  0  0  0  0  0  0  0  0  0
   57.6904   24.5325   45.7975 H   0  0  0  0  0  0  0  0  0  0  0  0
   58.3820   27.8080   46.5217 H   0  0  0  0  0  0  0  0  0  0  0  0
   58.8697   26.8611   45.0727 H   0  0  0  0  0  0  0  0  0  0  0  0
   58.6757   30.2431   45.7873 H   0  0  0  0  0  0  0  0  0  0  0  0
   59.0025   34.3870   43.4743 H   0  0  0  0  0  0  0  0  0  0  0  0
   59.7550   35.8852   45.3193 H   0  0  0  0  0  0  0  0  0  0  0  0
   59.3389   35.2550   47.6943 H   0  0  0  0  0  0  0  0  0  0  0  0
   61.1973   34.2847   48.2957 H   0  0  0  0  0  0  0  0  0  0  0  0
   63.4696   30.5494   48.4937 H   0  0  0  0  0  0  0  0  0  0  0  0
   57.3668   31.6300   46.3844 H   0  0  0  0  0  0  0  0  0  0  0  0
   56.3741   30.0494   42.1442 H   0  0  0  0  0  0  0  0  0  0  0  0
   56.6570   27.6590   43.1510 H   0  0  0  0  0  0  0  0  0  0  0  0
  1  2  1  0
  2  3  2  0
  3  4  1  0
  4  5  1  0
  5  6  1  0
  6  7  1  0
  7  8  2  0
  8  9  1  0
  9 10  1  0
 10 11  2  0
 11 12  1  0
 12 13  2  0
 13 14  1  0
 14 15  1  0
 15 16  1  0
 16 17  2  0
 16 18  1  0
 18 19  2  0
 19 20  1  0
 20 21  1  0
 21 22  1  0
 21 23  1  0
 21 24  1  0
 20 25  2  0
 25 26  1  0
 14 27  2  0
  8 28  1  0
 28 29  2  0
  4 30  2  0
 30 31  1  0
 31  2  1  0
 29  6  1  0
 27 10  1  0
 26 18  1  0
  1 32  1  0
  1 33  1  0
  1 34  1  0
  3 35  1  0
  5 36  1  0
  5 37  1  0
  7 38  1  0
 11 39  1  0
 12 40  1  0
 13 41  1  0
 19 42  1  0
 25 43  1  0
 27 44  1  0
 28 45  1  0
 29 46  1  0
M  CHG  3  15  -1  29   1  31  -1
M  END
>  <UniqueID>  (83) 
76

>  <SMILES>  (83) 
Cc1cc(Cn2cc(Oc3cccc([N-]C(=O)c4cc(C(F)(F)F)cs4)c3)c[nH+]2)n[n-]1

>  <Energy>  (83) 
140.4981564908828

>  <Genealogy>  (83) 
Cc1cc(Cn2cc(Oc3cccc([N-]C(=O)c4cc(C(F)(F)F)cs4)c3)c[nH+]2)n[n-]1 (protonated)
Cc1cc(Cn2cc(Oc3cccc([N-]C(=O)c4cc(C(F)(F)F)cs4)c3)c[nH+]2)n[n-]1 (3D coordinates assigned)
Cc1cc(Cn2cc(Oc3cccc([N-]C(=O)c4cc(C(F)(F)F)cs4)c3)c[nH+]2)n[n-]1 (optimized conformer: 140.4981564908828 kcal/mol)

>  <smiles>  (83) 
Cc1cc(Cn2cc(Oc3cccc(NC(=O)c4cc(C(F)(F)F)cs4)c3)cn2)n[nH]1

>  <score_type>  (83) 
oracle

>  <origin>  (83) 
adg

>  <m_score__min__energy>  (83) 
-11.050000000000001

>  <m_primary>  (83) 
energy

$$$$
83:0
     RDKit          3D

 33 35  0  0  0  0  0  0  0  0999 V2000
   57.7410   29.1810   51.8590 O   0  0  0  0  0  0  0  0  0  0  0  0
   57.6500   30.3320   51.3540 C   0  0  0  0  0  0  0  0  0  0  0  0
   56.3750   30.9760   51.2570 N   0  0  0  0  0  0  0  0  0  0  0  0
   55.5040   31.2250   52.4000 C   0  0  0  0  0  0  0  0  0  0  0  0
   54.0730   30.9330   52.0390 C   0  0  0  0  0  0  0  0  0  0  0  0
   53.5750   29.6250   52.1460 C   0  0  0  0  0  0  0  0  0  0  0  0
   52.2410   29.3500   51.8310 C   0  0  0  0  0  0  0  0  0  0  0  0
   51.3940   30.3790   51.4120 C   0  0  0  0  0  0  0  0  0  0  0  0
   51.8790   31.6870   51.3080 C   0  0  0  0  0  0  0  0  0  0  0  0
   51.0360   32.7100   50.8940 O   0  0  0  0  0  0  0  0  0  0  0  0
   53.2140   31.9650   51.6210 C   0  0  0  0  0  0  0  0  0  0  0  0
   58.8290   30.9590   50.8400 N   0  0  0  0  0  0  0  0  0  0  0  0
   58.9200   31.7030   49.6200 C   0  0  0  0  0  0  0  0  0  0  0  0
   60.1140   31.9210   48.9410 C   0  0  0  0  0  0  0  0  0  0  0  0
   59.7660   32.7200   47.8730 C   0  0  0  0  0  0  0  0  0  0  0  0
   60.5480   33.2600   46.8550 C   0  0  0  0  0  0  0  0  0  0  0  0
   59.9100   34.0670   45.8950 C   0  0  0  0  0  0  0  0  0  0  0  0
   58.5210   34.3160   45.9800 C   0  0  0  0  0  0  0  0  0  0  0  0
   57.7590   33.7580   47.0220 C   0  0  0  0  0  0  0  0  0  0  0  0
   58.4180   32.9570   47.9550 C   0  0  0  0  0  0  0  0  0  0  0  0
   57.8840   32.3460   49.0250 N   0  0  0  0  0  0  0  0  0  0  0  0
   55.8071   30.5767   53.2353 H   0  0  0  0  0  0  0  0  0  0  0  0
   55.5908   32.2818   52.6927 H   0  0  0  0  0  0  0  0  0  0  0  0
   54.2375   28.8126   52.4793 H   0  0  0  0  0  0  0  0  0  0  0  0
   51.8578   28.3222   51.9132 H   0  0  0  0  0  0  0  0  0  0  0  0
   50.3449   30.1605   51.1637 H   0  0  0  0  0  0  0  0  0  0  0  0
   53.5930   32.9944   51.5398 H   0  0  0  0  0  0  0  0  0  0  0  0
   61.1134   31.5406   49.1988 H   0  0  0  0  0  0  0  0  0  0  0  0
   61.6288   33.0622   46.8031 H   0  0  0  0  0  0  0  0  0  0  0  0
   60.4952   34.5066   45.0739 H   0  0  0  0  0  0  0  0  0  0  0  0
   58.0328   34.9507   45.2258 H   0  0  0  0  0  0  0  0  0  0  0  0
   56.6781   33.9470   47.0989 H   0  0  0  0  0  0  0  0  0  0  0  0
   56.8920   32.4060   49.3420 H   0  0  0  0  0  0  0  0  0  0  0  0
  1  2  2  0
  2  3  1  0
  3  4  1  0
  4  5  1  0
  5  6  2  0
  6  7  1  0
  7  8  2  0
  8  9  1  0
  9 10  1  0
  9 11  2  0
  2 12  1  0
 12 13  1  0
 13 14  2  0
 14 15  1  0
 15 16  2  0
 16 17  1  0
 17 18  2  0
 18 19  1  0
 19 20  2  0
 20 21  1  0
 11  5  1  0
 21 13  1  0
 20 15  1  0
  4 22  1  0
  4 23  1  0
  6 24  1  0
  7 25  1  0
  8 26  1  0
 11 27  1  0
 14 28  1  0
 16 29  1  0
 17 30  1  0
 18 31  1  0
 19 32  1  0
 21 33  1  0
M  CHG  3   3  -1  10  -1  12  -1
M  END
>  <UniqueID>  (84) 
77

>  <SMILES>  (84) 
O=C([N-]Cc1cccc([O-])c1)[N-]c1cc2ccccc2[nH]1

>  <Energy>  (84) 
68.15524808048538

>  <Genealogy>  (84) 
O=C([N-]Cc1cccc([O-])c1)[N-]c1cc2ccccc2[nH]1 (protonated)
O=C([N-]Cc1cccc([O-])c1)[N-]c1cc2ccccc2[nH]1 (3D coordinates assigned)
O=C([N-]Cc1cccc([O-])c1)[N-]c1cc2ccccc2[nH]1 (optimized conformer: 68.15524808048538 kcal/mol)

>  <smiles>  (84) 
O=C(NCc1cccc(O)c1)Nc1cc2ccccc2[nH]1

>  <score_type>  (84) 
oracle

>  <origin>  (84) 
adg

>  <m_score__min__energy>  (84) 
-12.960000000000001

>  <m_primary>  (84) 
energy

$$$$
84:0
     RDKit          3D

 50 52  0  0  0  0  0  0  0  0999 V2000
   55.1510   27.0930   45.3020 H   0  0  0  0  0  0  0  0  0  0  0  0
   55.1210   26.3410   46.0240 N   0  0  0  0  0  0  0  0  0  0  0  0
   56.3030   25.9490   46.7200 C   0  0  0  0  0  0  0  0  0  0  0  0
   57.1100   26.8250   47.1280 O   0  0  0  0  0  0  0  0  0  0  0  0
   56.5100   24.5360   47.0730 C   0  0  0  0  0  0  0  0  0  0  0  0
   57.1690   24.2870   48.2880 C   0  0  0  0  0  0  0  0  0  0  0  0
   57.6484   25.1176   48.8267 H   0  0  0  0  0  0  0  0  0  0  0  0
   57.2210   23.0330   48.8050 N   0  0  0  0  0  0  0  0  0  0  0  0
   56.6440   21.9800   48.1760 C   0  0  0  0  0  0  0  0  0  0  0  0
   56.6876   20.9784   48.6287 H   0  0  0  0  0  0  0  0  0  0  0  0
   55.9960   22.1650   46.9570 C   0  0  0  0  0  0  0  0  0  0  0  0
   55.5144   21.3103   46.4596 H   0  0  0  0  0  0  0  0  0  0  0  0
   55.9530   23.4330   46.3590 C   0  0  0  0  0  0  0  0  0  0  0  0
   55.4650   23.4850   45.1460 N   0  0  0  0  0  0  0  0  0  0  0  0
   55.9600   22.9530   43.8750 C   0  0  0  0  0  0  0  0  0  0  0  0
   56.7513   22.2165   44.0787 H   0  0  0  0  0  0  0  0  0  0  0  0
   55.1188   22.4836   43.3439 H   0  0  0  0  0  0  0  0  0  0  0  0
   56.5300   24.0660   42.9900 C   0  0  0  0  0  0  0  0  0  0  0  0
   57.3615   23.6635   42.3928 H   0  0  0  0  0  0  0  0  0  0  0  0
   55.7334   24.4378   42.3289 H   0  0  0  0  0  0  0  0  0  0  0  0
   57.0190   25.1740   43.8110 N   0  0  0  0  0  0  0  0  0  0  0  0
   56.6430   25.2460   44.7830 H   0  0  0  0  0  0  0  0  0  0  0  0
   57.7790   26.2660   43.2640 C   0  0  0  0  0  0  0  0  0  0  0  0
   58.0900   26.2600   42.0410 O   0  0  0  0  0  0  0  0  0  0  0  0
   58.1880   27.4140   44.1070 C   0  0  0  0  0  0  0  0  0  0  0  0
   57.5730   28.6660   43.9310 C   0  0  0  0  0  0  0  0  0  0  0  0
   56.7914   28.7863   43.1664 H   0  0  0  0  0  0  0  0  0  0  0  0
   57.9450   29.7590   44.7180 C   0  0  0  0  0  0  0  0  0  0  0  0
   57.4539   30.7322   44.5707 H   0  0  0  0  0  0  0  0  0  0  0  0
   58.9460   29.6200   45.6990 C   0  0  0  0  0  0  0  0  0  0  0  0
   59.3590   30.6820   46.5200 O   0  0  0  0  0  0  0  0  0  0  0  0
   58.5270   31.4070   47.4260 C   0  0  0  0  0  0  0  0  0  0  0  0
   57.6544   30.7892   47.6849 H   0  0  0  0  0  0  0  0  0  0  0  0
   59.1143   31.6440   48.3254 H   0  0  0  0  0  0  0  0  0  0  0  0
   58.0420   32.7220   46.8010 C   0  0  2  0  0  0  0  0  0  0  0  0
   57.4892   33.2663   47.5808 H   0  0  0  0  0  0  0  0  0  0  0  0
   57.2100   32.4470   45.6960 O   0  0  0  0  0  0  0  0  0  0  0  0
   57.5250   33.3760   44.6810 C   0  0  0  0  0  0  0  0  0  0  0  0
   56.6233   33.9473   44.4154 H   0  0  0  0  0  0  0  0  0  0  0  0
   57.8948   32.8375   43.7960 H   0  0  0  0  0  0  0  0  0  0  0  0
   58.5980   34.3280   45.1750 C   0  0  0  0  0  0  0  0  0  0  0  0
   58.1597   35.2845   45.4958 H   0  0  0  0  0  0  0  0  0  0  0  0
   59.3357   34.5864   44.4010 H   0  0  0  0  0  0  0  0  0  0  0  0
   59.1950   33.5960   46.3340 C   0  0  0  0  0  0  0  0  0  0  0  0
   59.5108   34.2930   47.1242 H   0  0  0  0  0  0  0  0  0  0  0  0
   60.0994   33.0264   46.0739 H   0  0  0  0  0  0  0  0  0  0  0  0
   59.5690   28.3790   45.8620 C   0  0  0  0  0  0  0  0  0  0  0  0
   60.3602   28.2629   46.6174 H   0  0  0  0  0  0  0  0  0  0  0  0
   59.1980   27.2840   45.0760 C   0  0  0  0  0  0  0  0  0  0  0  0
   59.6994   26.3151   45.2166 H   0  0  0  0  0  0  0  0  0  0  0  0
  1  2  1  0
  2  3  1  0
  3  4  2  0
  3  5  1  0
  5  6  2  0
  6  7  1  0
  6  8  1  0
  8  9  1  0
  9 10  1  0
  9 11  2  0
 11 12  1  0
 11 13  1  0
 13 14  2  0
 14 15  1  0
 15 16  1  0
 15 17  1  0
 15 18  1  0
 18 19  1  0
 18 20  1  0
 18 21  1  0
 21 22  1  0
 21 23  1  0
 23 24  2  0
 23 25  1  0
 25 26  2  0
 26 27  1  0
 26 28  1  0
 28 29  1  0
 28 30  2  0
 30 31  1  0
 31 32  1  0
 32 33  1  0
 32 34  1  0
 32 35  1  0
 35 36  1  1
 35 37  1  0
 37 38  1  0
 38 39  1  0
 38 40  1  0
 38 41  1  0
 41 42  1  0
 41 43  1  0
 41 44  1  0
 44 45  1  0
 44 46  1  0
 30 47  1  0
 47 48  1  0
 47 49  2  0
 49 50  1  0
 13  5  1  0
 49 25  1  0
 44 35  1  0
M  CHG  2   2  -1   8  -1
M  END
>  <UniqueID>  (85) 
78

>  <SMILES>  (85) 
[NH-]C(=O)c1c[n-]cc/c1=N/CCNC(=O)c1ccc(OC[C@H]2CCCO2)cc1

>  <Energy>  (85) 
66.66312327874299

>  <Genealogy>  (85) 
[NH-]C(=O)c1c[n-]ccc1=NCCNC(=O)c1ccc(OCC2CCCO2)cc1 (protonated)
[NH-]C(=O)c1c[n-]ccc1=NCCNC(=O)c1ccc(OC[C@H]2CCCO2)cc1 (chirality)
[NH-]C(=O)c1c[n-]cc/c1=N/CCNC(=O)c1ccc(OC[C@H]2CCCO2)cc1 (cis-trans isomerization)
[NH-]C(=O)c1c[n-]cc/c1=N/CCNC(=O)c1ccc(OC[C@H]2CCCO2)cc1 (3D coordinates assigned)
[NH-]C(=O)c1c[n-]cc/c1=N/CCNC(=O)c1ccc(OC[C@H]2CCCO2)cc1 (nonaromatic ring conformer: 66.66312327874299 kcal/mol)

>  <smiles>  (85) 
NC(=O)c1c[nH]ccc1=NCCNC(=O)c1ccc(OCC2CCCO2)cc1

>  <score_type>  (85) 
oracle

>  <origin>  (85) 
adg

>  <m_score__min__energy>  (85) 
-12.33

>  <m_primary>  (85) 
energy

$$$$
85:0
     RDKit          3D

 48 50  0  0  0  0  0  0  0  0999 V2000
   62.6210   32.0450   47.1110 C   0  0  0  0  0  0  0  0  0  0  0  0
   62.3470   31.2600   48.2670 O   0  0  0  0  0  0  0  0  0  0  0  0
   61.1480   30.5670   48.4900 C   0  0  0  0  0  0  0  0  0  0  0  0
   60.7600   29.4670   47.6980 C   0  0  0  0  0  0  0  0  0  0  0  0
   59.5580   28.8020   47.9560 C   0  0  0  0  0  0  0  0  0  0  0  0
   58.7330   29.2240   49.0000 C   0  0  0  0  0  0  0  0  0  0  0  0
   59.1070   30.3130   49.7910 C   0  0  0  0  0  0  0  0  0  0  0  0
   60.3110   30.9830   49.5410 C   0  0  0  0  0  0  0  0  0  0  0  0
   60.6920   32.0780   50.3740 N   0  0  0  0  0  0  0  0  0  0  0  0
   60.4070   33.7090   49.8720 S   0  0  0  0  0  0  0  0  0  0  0  0
   61.6730   34.5070   50.0050 O   0  0  0  0  0  0  0  0  0  0  0  0
   59.3600   34.3200   50.7600 O   0  0  0  0  0  0  0  0  0  0  0  0
   59.8550   33.7270   48.2010 C   0  0  0  0  0  0  0  0  0  0  0  0
   60.3800   34.6510   47.2890 C   0  0  0  0  0  0  0  0  0  0  0  0
   59.8960   34.6940   45.9790 C   0  0  0  0  0  0  0  0  0  0  0  0
   58.8780   33.8250   45.5790 C   0  0  0  0  0  0  0  0  0  0  0  0
   58.3360   32.9040   46.4830 C   0  0  0  0  0  0  0  0  0  0  0  0
   57.2730   32.0500   46.0400 N   0  0  0  0  0  0  0  0  0  0  0  0
   57.2580   31.1740   44.5440 S   0  0  0  0  0  0  0  0  0  0  0  0
   58.0440   31.9210   43.5020 O   0  0  0  0  0  0  0  0  0  0  0  0
   55.8420   31.0010   44.0680 O   0  0  0  0  0  0  0  0  0  0  0  0
   57.9950   29.5980   44.8030 C   0  0  0  0  0  0  0  0  0  0  0  0
   59.3700   29.4190   44.6040 C   0  0  0  0  0  0  0  0  0  0  0  0
   59.9500   28.1630   44.8030 C   0  0  0  0  0  0  0  0  0  0  0  0
   59.1600   27.0790   45.1950 C   0  0  0  0  0  0  0  0  0  0  0  0
   57.7810   27.2450   45.3820 C   0  0  0  0  0  0  0  0  0  0  0  0
   56.7840   25.8840   45.8840 S   0  0  0  0  0  0  0  0  0  0  0  0
   55.1390   26.3940   46.0230 N   0  0  0  0  0  0  0  0  0  0  0  0
   57.2590   25.3670   47.2130 O   0  0  0  0  0  0  0  0  0  0  0  0
   56.8840   24.7780   44.8720 O   0  0  0  0  0  0  0  0  0  0  0  0
   57.2020   28.5080   45.1880 C   0  0  0  0  0  0  0  0  0  0  0  0
   58.8370   32.8520   47.7960 C   0  0  0  0  0  0  0  0  0  0  0  0
   62.9690   33.0420   47.4189 H   0  0  0  0  0  0  0  0  0  0  0  0
   63.4008   31.5537   46.5106 H   0  0  0  0  0  0  0  0  0  0  0  0
   61.7049   32.1457   46.5106 H   0  0  0  0  0  0  0  0  0  0  0  0
   61.4060   29.1307   46.8736 H   0  0  0  0  0  0  0  0  0  0  0  0
   59.2614   27.9440   47.3348 H   0  0  0  0  0  0  0  0  0  0  0  0
   57.7875   28.6985   49.2000 H   0  0  0  0  0  0  0  0  0  0  0  0
   58.4544   30.6449   50.6119 H   0  0  0  0  0  0  0  0  0  0  0  0
   61.1742   35.3436   47.6043 H   0  0  0  0  0  0  0  0  0  0  0  0
   60.3173   35.4134   45.2614 H   0  0  0  0  0  0  0  0  0  0  0  0
   58.4998   33.8648   44.5468 H   0  0  0  0  0  0  0  0  0  0  0  0
   59.9945   30.2686   44.2905 H   0  0  0  0  0  0  0  0  0  0  0  0
   61.0309   28.0275   44.6507 H   0  0  0  0  0  0  0  0  0  0  0  0
   59.6213   26.0937   45.3571 H   0  0  0  0  0  0  0  0  0  0  0  0
   55.1430   27.4390   46.0290 H   0  0  0  0  0  0  0  0  0  0  0  0
   56.1208   28.6436   45.3387 H   0  0  0  0  0  0  0  0  0  0  0  0
   58.4281   32.1210   48.5091 H   0  0  0  0  0  0  0  0  0  0  0  0
  1  2  1  0
  2  3  1  0
  3  4  2  0
  4  5  1  0
  5  6  2  0
  6  7  1  0
  7  8  2  0
  8  9  1  0
  9 10  1  0
 10 11  2  0
 10 12  2  0
 10 13  1  0
 13 14  2  0
 14 15  1  0
 15 16  2  0
 16 17  1  0
 17 18  1  0
 18 19  1  0
 19 20  2  0
 19 21  2  0
 19 22  1  0
 22 23  2  0
 23 24  1  0
 24 25  2  0
 25 26  1  0
 26 27  1  0
 27 28  1  0
 27 29  2  0
 27 30  2  0
 26 31  2  0
 17 32  2  0
  8  3  1  0
 32 13  1  0
 31 22  1  0
  1 33  1  0
  1 34  1  0
  1 35  1  0
  4 36  1  0
  5 37  1  0
  6 38  1  0
  7 39  1  0
 14 40  1  0
 15 41  1  0
 16 42  1  0
 23 43  1  0
 24 44  1  0
 25 45  1  0
 28 46  1  0
 31 47  1  0
 32 48  1  0
M  CHG  3   9  -1  18  -1  28  -1
M  END
>  <UniqueID>  (86) 
79

>  <SMILES>  (86) 
COc1ccccc1[N-]S(=O)(=O)c1cccc([N-]S(=O)(=O)c2cccc(S([NH-])(=O)=O)c2)c1

>  <Energy>  (86) 
60.219805821399945

>  <Genealogy>  (86) 
COc1ccccc1[N-]S(=O)(=O)c1cccc([N-]S(=O)(=O)c2cccc(S([NH-])(=O)=O)c2)c1 (protonated)
COc1ccccc1[N-]S(=O)(=O)c1cccc([N-]S(=O)(=O)c2cccc(S([NH-])(=O)=O)c2)c1 (3D coordinates assigned)
COc1ccccc1[N-]S(=O)(=O)c1cccc([N-]S(=O)(=O)c2cccc(S([NH-])(=O)=O)c2)c1 (optimized conformer: 60.219805821399945 kcal/mol)

>  <smiles>  (86) 
COc1ccccc1NS(=O)(=O)c1cccc(NS(=O)(=O)c2cccc(S(N)(=O)=O)c2)c1

>  <score_type>  (86) 
oracle

>  <origin>  (86) 
adg

>  <m_score__min__energy>  (86) 
-15.130000000000001

>  <m_primary>  (86) 
energy

$$$$
86:0
     RDKit          3D

 32 34  0  0  0  0  0  0  0  0999 V2000
   57.7400   19.2270   44.8990 H   0  0  0  0  0  0  0  0  0  0  0  0
   57.2180   19.5580   45.7020 O   0  0  0  0  0  0  0  0  0  0  0  0
   56.6270   20.8190   45.7170 C   0  0  0  0  0  0  0  0  0  0  0  0
   55.2500   20.9380   45.5110 C   0  0  0  0  0  0  0  0  0  0  0  0
   54.6452   20.0353   45.3400 H   0  0  0  0  0  0  0  0  0  0  0  0
   54.6330   22.1930   45.5200 C   0  0  0  0  0  0  0  0  0  0  0  0
   53.2600   22.2640   45.3110 O   0  0  0  0  0  0  0  0  0  0  0  0
   55.4060   23.3570   45.7380 C   0  0  0  0  0  0  0  0  0  0  0  0
   54.8580   24.6560   45.7600 C   0  0  0  0  0  0  0  0  0  0  0  0
   53.6240   24.8480   45.5850 O   0  0  0  0  0  0  0  0  0  0  0  0
   55.6960   25.7550   45.9760 C   0  0  0  0  0  0  0  0  0  0  0  0
   55.1670   27.0410   45.9930 O   0  0  0  0  0  0  0  0  0  0  0  0
   57.0710   25.5410   46.1670 C   0  0  0  0  0  0  0  0  0  0  0  0
   57.9810   26.6840   46.4110 C   0  0  0  0  0  0  0  0  0  0  0  0
   58.2196   26.9289   47.4565 H   0  0  0  0  0  0  0  0  0  0  0  0
   58.5370   27.4440   45.4540 C   0  0  0  0  0  0  0  0  0  0  0  0
   59.5177   27.1326   45.0651 H   0  0  0  0  0  0  0  0  0  0  0  0
   57.9340   28.6670   44.8820 C   0  0  0  0  0  0  0  0  0  0  0  0
   58.0180   29.9030   45.5490 C   0  0  0  0  0  0  0  0  0  0  0  0
   58.5255   29.9665   46.5229 H   0  0  0  0  0  0  0  0  0  0  0  0
   57.4590   31.0510   44.9790 C   0  0  0  0  0  0  0  0  0  0  0  0
   57.5102   32.0110   45.5135 H   0  0  0  0  0  0  0  0  0  0  0  0
   56.8350   30.9790   43.7300 C   0  0  0  0  0  0  0  0  0  0  0  0
   56.3888   31.8808   43.2854 H   0  0  0  0  0  0  0  0  0  0  0  0
   56.7780   29.7610   43.0460 C   0  0  0  0  0  0  0  0  0  0  0  0
   56.2948   29.7075   42.0592 H   0  0  0  0  0  0  0  0  0  0  0  0
   57.3340   28.6110   43.6140 C   0  0  0  0  0  0  0  0  0  0  0  0
   57.3012   27.6583   43.0651 H   0  0  0  0  0  0  0  0  0  0  0  0
   57.5530   24.3010   46.1560 O   0  0  0  0  0  0  0  0  0  0  0  0
   56.8000   23.2280   45.9480 C   0  0  0  0  0  0  0  0  0  0  0  0
   57.3990   21.9650   45.9360 C   0  0  0  0  0  0  0  0  0  0  0  0
   58.4828   21.8717   46.0996 H   0  0  0  0  0  0  0  0  0  0  0  0
  1  2  1  0
  2  3  1  0
  3  4  2  0
  4  5  1  0
  4  6  1  0
  6  7  1  0
  6  8  2  0
  8  9  1  0
  9 10  2  0
  9 11  1  0
 11 12  1  0
 11 13  2  0
 13 14  1  0
 14 15  1  0
 14 16  2  0
 16 17  1  0
 16 18  1  0
 18 19  2  0
 19 20  1  0
 19 21  1  0
 21 22  1  0
 21 23  2  0
 23 24  1  0
 23 25  1  0
 25 26  1  0
 25 27  2  0
 27 28  1  0
 13 29  1  0
 29 30  1  0
 30 31  2  0
 31 32  1  0
 31  3  1  0
 30  8  1  0
 27 18  1  0
M  CHG  2   7  -1  12  -1
M  END
>  <UniqueID>  (87) 
80

>  <SMILES>  (87) 
O=c1c([O-])c(/C=C\c2ccccc2)oc2cc(O)cc([O-])c12

>  <Energy>  (87) 
48.90615588159265

>  <Genealogy>  (87) 
O=c1c([O-])c(C=Cc2ccccc2)oc2cc(O)cc([O-])c12 (protonated)
O=c1c([O-])c(/C=C\c2ccccc2)oc2cc(O)cc([O-])c12 (cis-trans isomerization)
O=c1c([O-])c(/C=C\c2ccccc2)oc2cc(O)cc([O-])c12 (3D coordinates assigned)
O=c1c([O-])c(/C=C\c2ccccc2)oc2cc(O)cc([O-])c12 (optimized conformer: 48.90615588159265 kcal/mol)

>  <smiles>  (87) 
O=c1c(O)c(C=Cc2ccccc2)oc2cc(O)cc(O)c12

>  <score_type>  (87) 
oracle

>  <origin>  (87) 
adg

>  <m_score__min__energy>  (87) 
-12.359999999999999

>  <m_primary>  (87) 
energy

$$$$
87:0
     RDKit          3D

 52 54  0  0  0  0  0  0  0  0999 V2000
   58.8410   32.5960   48.9540 N   0  0  0  0  0  0  0  0  0  0  0  0
   59.5280   33.6030   47.7280 S   0  0  0  0  0  0  0  0  0  0  0  0
   59.2720   35.0480   48.0620 O   0  0  0  0  0  0  0  0  0  0  0  0
   61.0130   33.3780   47.6700 O   0  0  0  0  0  0  0  0  0  0  0  0
   58.8050   33.2100   46.1720 C   0  0  0  0  0  0  0  0  0  0  0  0
   59.3450   33.7360   44.9900 C   0  0  0  0  0  0  0  0  0  0  0  0
   58.7550   33.4420   43.7580 C   0  0  0  0  0  0  0  0  0  0  0  0
   57.6270   32.6180   43.6980 C   0  0  0  0  0  0  0  0  0  0  0  0
   57.0880   32.0700   44.8760 C   0  0  0  0  0  0  0  0  0  0  0  0
   55.9130   31.2460   44.8590 N   0  0  0  0  0  0  0  0  0  0  0  0
   55.8830   29.8300   44.6570 C   0  0  0  0  0  0  0  0  0  0  0  0
   55.1830   29.3610   43.7210 O   0  0  0  0  0  0  0  0  0  0  0  0
   56.5820   28.9500   45.5450 N   0  0  0  0  0  0  0  0  0  0  0  0
   57.1090   27.6500   45.1460 C   0  0  0  0  0  0  0  0  0  0  0  0
   58.6060   27.7520   44.8420 C   0  0  0  0  0  0  0  0  0  0  0  0
   59.3110   28.5400   45.9130 C   0  0  0  0  0  0  0  0  0  0  0  0
   59.2380   28.1360   47.2540 C   0  0  0  0  0  0  0  0  0  0  0  0
   59.9200   28.8480   48.2450 C   0  0  0  0  0  0  0  0  0  0  0  0
   60.6900   29.9760   47.9120 C   0  0  0  0  0  0  0  0  0  0  0  0
   61.4190   30.7360   48.9550 C   0  0  0  0  0  0  0  0  0  0  0  0
   61.0260   30.6820   50.1530 O   0  0  0  0  0  0  0  0  0  0  0  0
   62.5820   31.5150   48.6250 N   0  0  0  0  0  0  0  0  0  0  0  0
   63.2060   32.3950   49.5710 C   0  0  0  0  0  0  0  0  0  0  0  0
   64.6020   32.3660   49.7040 C   0  0  0  0  0  0  0  0  0  0  0  0
   65.2420   33.1850   50.6360 C   0  0  0  0  0  0  0  0  0  0  0  0
   64.4940   34.0490   51.4380 C   0  0  0  0  0  0  0  0  0  0  0  0
   63.1050   34.1070   51.3000 C   0  0  0  0  0  0  0  0  0  0  0  0
   62.4490   33.2940   50.3610 C   0  0  0  0  0  0  0  0  0  0  0  0
   61.0340   33.4310   50.1900 N   0  0  0  0  0  0  0  0  0  0  0  0
   60.7810   30.3620   46.5630 C   0  0  0  0  0  0  0  0  0  0  0  0
   60.0990   29.6500   45.5730 C   0  0  0  0  0  0  0  0  0  0  0  0
   57.6690   32.3900   46.1100 C   0  0  0  0  0  0  0  0  0  0  0  0
   59.6210   32.0230   49.3520 H   0  0  0  0  0  0  0  0  0  0  0  0
   60.2348   34.3813   45.0325 H   0  0  0  0  0  0  0  0  0  0  0  0
   59.1790   33.8599   42.8330 H   0  0  0  0  0  0  0  0  0  0  0  0
   57.1598   32.3977   42.7268 H   0  0  0  0  0  0  0  0  0  0  0  0
   56.9531   26.9295   45.9625 H   0  0  0  0  0  0  0  0  0  0  0  0
   56.5828   27.3142   44.2403 H   0  0  0  0  0  0  0  0  0  0  0  0
   59.0353   26.7403   44.7956 H   0  0  0  0  0  0  0  0  0  0  0  0
   58.7382   28.2657   43.8784 H   0  0  0  0  0  0  0  0  0  0  0  0
   58.6406   27.2538   47.5276 H   0  0  0  0  0  0  0  0  0  0  0  0
   59.8536   28.5230   49.2938 H   0  0  0  0  0  0  0  0  0  0  0  0
   63.1280   31.2540   47.7740 H   0  0  0  0  0  0  0  0  0  0  0  0
   65.1970   31.6929   49.0692 H   0  0  0  0  0  0  0  0  0  0  0  0
   66.3366   33.1495   50.7386 H   0  0  0  0  0  0  0  0  0  0  0  0
   64.9992   34.6851   52.1798 H   0  0  0  0  0  0  0  0  0  0  0  0
   62.5213   34.7937   51.9307 H   0  0  0  0  0  0  0  0  0  0  0  0
   60.6410   34.2150   49.6240 H   0  0  0  0  0  0  0  0  0  0  0  0
   60.3650   32.7180   50.5550 H   0  0  0  0  0  0  0  0  0  0  0  0
   61.3942   31.2318   46.2848 H   0  0  0  0  0  0  0  0  0  0  0  0
   60.1803   29.9614   44.5211 H   0  0  0  0  0  0  0  0  0  0  0  0
   57.2304   31.9947   47.0381 H   0  0  0  0  0  0  0  0  0  0  0  0
  1  2  1  0
  2  3  2  0
  2  4  2  0
  2  5  1  0
  5  6  2  0
  6  7  1  0
  7  8  2  0
  8  9  1  0
  9 10  1  0
 10 11  1  0
 11 12  2  0
 11 13  1  0
 13 14  1  0
 14 15  1  0
 15 16  1  0
 16 17  2  0
 17 18  1  0
 18 19  2  0
 19 20  1  0
 20 21  2  0
 20 22  1  0
 22 23  1  0
 23 24  2  0
 24 25  1  0
 25 26  2  0
 26 27  1  0
 27 28  2  0
 28 29  1  0
 19 30  1  0
 30 31  2  0
  9 32  2  0
 32  5  1  0
 31 16  1  0
 28 23  1  0
  1 33  1  0
  6 34  1  0
  7 35  1  0
  8 36  1  0
 14 37  1  0
 14 38  1  0
 15 39  1  0
 15 40  1  0
 17 41  1  0
 18 42  1  0
 22 43  1  0
 24 44  1  0
 25 45  1  0
 26 46  1  0
 27 47  1  0
 29 48  1  0
 29 49  1  0
 30 50  1  0
 31 51  1  0
 32 52  1  0
M  CHG  3   1  -1  10  -1  13  -1
M  END
>  <UniqueID>  (88) 
81

>  <SMILES>  (88) 
[NH-]S(=O)(=O)c1cccc([N-]C(=O)[N-]CCc2ccc(C(=O)Nc3ccccc3N)cc2)c1

>  <Energy>  (88) 
60.66564016040892

>  <Genealogy>  (88) 
[NH-]S(=O)(=O)c1cccc([N-]C(=O)[N-]CCc2ccc(C(=O)Nc3ccccc3N)cc2)c1 (protonated)
[NH-]S(=O)(=O)c1cccc([N-]C(=O)[N-]CCc2ccc(C(=O)Nc3ccccc3N)cc2)c1 (3D coordinates assigned)
[NH-]S(=O)(=O)c1cccc([N-]C(=O)[N-]CCc2ccc(C(=O)Nc3ccccc3N)cc2)c1 (optimized conformer: 60.66564016040892 kcal/mol)

>  <smiles>  (88) 
Nc1ccccc1NC(=O)c1ccc(CCNC(=O)Nc2cccc(S(N)(=O)=O)c2)cc1

>  <score_type>  (88) 
oracle

>  <origin>  (88) 
adg

>  <m_score__min__energy>  (88) 
-14.279999999999999

>  <m_primary>  (88) 
energy

$$$$
88:0
     RDKit          3D

 51 54  0  0  0  0  0  0  0  0999 V2000
   68.2290   34.7080   51.3200 C   0  0  0  0  0  0  0  0  0  0  0  0
   68.1520   33.3020   51.0940 O   0  0  0  0  0  0  0  0  0  0  0  0
   66.9560   32.5880   50.9100 C   0  0  0  0  0  0  0  0  0  0  0  0
   66.7990   31.3770   51.5830 C   0  0  0  0  0  0  0  0  0  0  0  0
   65.6080   30.6580   51.4830 C   0  0  0  0  0  0  0  0  0  0  0  0
   64.5520   31.1390   50.6870 C   0  0  0  0  0  0  0  0  0  0  0  0
   63.3120   30.4790   50.6230 O   0  0  0  0  0  0  0  0  0  0  0  0
   62.5020   30.1670   51.7510 C   0  0  0  0  0  0  0  0  0  0  0  0
   64.7260   32.3320   49.9610 C   0  0  0  0  0  0  0  0  0  0  0  0
   63.6760   32.8440   49.1240 N   0  0  0  0  0  0  0  0  0  0  0  0
   62.3230   32.9620   49.6880 C   0  0  0  0  0  0  0  0  0  0  0  0
   61.5500   34.0910   48.9980 C   0  0  0  0  0  0  0  0  0  0  0  0
   61.6830   33.9400   47.5480 N   0  0  0  0  0  0  0  0  0  0  0  0
   60.6250   33.3030   46.8020 C   0  0  0  0  0  0  0  0  0  0  0  0
   60.4820   31.9570   46.6700 N   0  0  0  0  0  0  0  0  0  0  0  0
   59.3700   31.8380   45.9290 C   0  0  0  0  0  0  0  0  0  0  0  0
   58.7380   30.6770   45.4950 C   0  0  0  0  0  0  0  0  0  0  0  0
   57.5600   30.8200   44.7280 C   0  0  0  0  0  0  0  0  0  0  0  0
   56.6960   29.3950   44.1650 S   0  0  0  0  0  0  0  0  0  0  0  0
   55.1250   29.3600   44.8760 N   0  0  0  0  0  0  0  0  0  0  0  0
   57.4480   28.1520   44.5510 O   0  0  0  0  0  0  0  0  0  0  0  0
   56.5680   29.4380   42.6670 O   0  0  0  0  0  0  0  0  0  0  0  0
   57.0570   32.1120   44.4320 C   0  0  0  0  0  0  0  0  0  0  0  0
   57.7280   33.2620   44.8910 C   0  0  0  0  0  0  0  0  0  0  0  0
   58.8840   33.0770   45.6420 C   0  0  0  0  0  0  0  0  0  0  0  0
   59.6660   33.9770   46.1840 O   0  0  0  0  0  0  0  0  0  0  0  0
   63.0570   34.0030   47.0420 C   0  0  0  0  0  0  0  0  0  0  0  0
   63.8580   32.8570   47.6630 C   0  0  0  0  0  0  0  0  0  0  0  0
   65.9170   33.0560   50.0850 C   0  0  0  0  0  0  0  0  0  0  0  0
   68.2398   34.9054   52.4021 H   0  0  0  0  0  0  0  0  0  0  0  0
   69.1501   35.1024   50.8661 H   0  0  0  0  0  0  0  0  0  0  0  0
   67.3565   35.2007   50.8661 H   0  0  0  0  0  0  0  0  0  0  0  0
   67.6221   30.9850   52.1985 H   0  0  0  0  0  0  0  0  0  0  0  0
   65.4936   29.7101   52.0292 H   0  0  0  0  0  0  0  0  0  0  0  0
   63.0603   30.3821   52.6741 H   0  0  0  0  0  0  0  0  0  0  0  0
   61.5870   30.7770   51.7254 H   0  0  0  0  0  0  0  0  0  0  0  0
   62.2327   29.1008   51.7254 H   0  0  0  0  0  0  0  0  0  0  0  0
   61.7858   32.0134   49.5414 H   0  0  0  0  0  0  0  0  0  0  0  0
   62.4037   33.1904   50.7610 H   0  0  0  0  0  0  0  0  0  0  0  0
   60.4879   34.0366   49.2790 H   0  0  0  0  0  0  0  0  0  0  0  0
   61.9554   35.0648   49.3099 H   0  0  0  0  0  0  0  0  0  0  0  0
   61.0620   31.1830   47.0600 H   0  0  0  0  0  0  0  0  0  0  0  0
   59.1410   29.6833   45.7402 H   0  0  0  0  0  0  0  0  0  0  0  0
   55.1480   28.6350   45.6280 H   0  0  0  0  0  0  0  0  0  0  0  0
   56.1361   32.2170   43.8396 H   0  0  0  0  0  0  0  0  0  0  0  0
   57.3514   34.2702   44.6637 H   0  0  0  0  0  0  0  0  0  0  0  0
   63.0537   33.9020   45.9466 H   0  0  0  0  0  0  0  0  0  0  0  0
   63.5123   34.9681   47.3091 H   0  0  0  0  0  0  0  0  0  0  0  0
   63.5093   31.9013   47.2447 H   0  0  0  0  0  0  0  0  0  0  0  0
   64.9247   32.9993   47.4350 H   0  0  0  0  0  0  0  0  0  0  0  0
   66.0419   33.9991   49.5327 H   0  0  0  0  0  0  0  0  0  0  0  0
  1  2  1  0
  2  3  1  0
  3  4  2  0
  4  5  1  0
  5  6  2  0
  6  7  1  0
  7  8  1  0
  6  9  1  0
  9 10  1  0
 10 11  1  0
 11 12  1  0
 12 13  1  0
 13 14  1  0
 14 15  2  0
 15 16  1  0
 16 17  2  0
 17 18  1  0
 18 19  1  0
 19 20  1  0
 19 21  2  0
 19 22  2  0
 18 23  2  0
 23 24  1  0
 24 25  2  0
 25 26  1  0
 13 27  1  0
 27 28  1  0
  9 29  2  0
 29  3  1  0
 28 10  1  0
 26 14  1  0
 25 16  1  0
  1 30  1  0
  1 31  1  0
  1 32  1  0
  4 33  1  0
  5 34  1  0
  8 35  1  0
  8 36  1  0
  8 37  1  0
 11 38  1  0
 11 39  1  0
 12 40  1  0
 12 41  1  0
 15 42  1  0
 17 43  1  0
 20 44  1  0
 23 45  1  0
 24 46  1  0
 27 47  1  0
 27 48  1  0
 28 49  1  0
 28 50  1  0
 29 51  1  0
M  CHG  2  15   1  20  -1
M  END
>  <UniqueID>  (89) 
82

>  <SMILES>  (89) 
COc1ccc(OC)c(N2CCN(c3[nH+]c4cc(S([NH-])(=O)=O)ccc4o3)CC2)c1

>  <Energy>  (89) 
98.11410863912353

>  <Genealogy>  (89) 
COc1ccc(OC)c(N2CCN(c3[nH+]c4cc(S([NH-])(=O)=O)ccc4o3)CC2)c1 (protonated)
COc1ccc(OC)c(N2CCN(c3[nH+]c4cc(S([NH-])(=O)=O)ccc4o3)CC2)c1 (3D coordinates assigned)
COc1ccc(OC)c(N2CCN(c3[nH+]c4cc(S([NH-])(=O)=O)ccc4o3)CC2)c1 (nonaromatic ring conformer: 98.11410863912353 kcal/mol)

>  <smiles>  (89) 
COc1ccc(OC)c(N2CCN(c3nc4cc(S(N)(=O)=O)ccc4o3)CC2)c1

>  <score_type>  (89) 
oracle

>  <origin>  (89) 
adg

>  <m_score__min__energy>  (89) 
-9.4000000000000004

>  <m_primary>  (89) 
energy

$$$$
89:0
     RDKit          3D

 32 33  0  0  0  0  0  0  0  0999 V2000
   59.5068   24.7283   46.1808 H   0  0  0  0  0  0  0  0  0  0  0  0
   58.8000   25.5620   46.0570 C   0  0  0  0  0  0  0  0  0  0  0  0
   57.5250   25.4880   46.8100 C   0  0  0  0  0  0  0  0  0  0  0  0
   57.3970   26.2150   47.8310 O   0  0  0  0  0  0  0  0  0  0  0  0
   56.3830   24.6400   46.3830 C   0  0  0  0  0  0  0  0  0  0  0  0
   56.4910   23.2330   46.3670 C   0  0  0  0  0  0  0  0  0  0  0  0
   57.6880   22.6050   46.6920 O   0  0  0  0  0  0  0  0  0  0  0  0
   55.3880   22.4490   46.0120 C   0  0  0  0  0  0  0  0  0  0  0  0
   55.4719   21.3522   46.0175 H   0  0  0  0  0  0  0  0  0  0  0  0
   54.1820   23.0510   45.6510 C   0  0  0  0  0  0  0  0  0  0  0  0
   53.0900   22.2650   45.3030 O   0  0  0  0  0  0  0  0  0  0  0  0
   54.0740   24.4430   45.6350 C   0  0  0  0  0  0  0  0  0  0  0  0
   53.1263   24.9155   45.3373 H   0  0  0  0  0  0  0  0  0  0  0  0
   55.1660   25.2390   45.9960 C   0  0  0  0  0  0  0  0  0  0  0  0
   55.0240   26.6220   45.9900 O   0  0  0  0  0  0  0  0  0  0  0  0
   59.1650   26.5600   45.2370 C   0  0  0  0  0  0  0  0  0  0  0  0
   59.9969   26.3693   44.5430 H   0  0  0  0  0  0  0  0  0  0  0  0
   58.5340   27.8950   45.1960 C   0  0  0  0  0  0  0  0  0  0  0  0
   59.3030   29.0650   45.2990 C   0  0  0  0  0  0  0  0  0  0  0  0
   60.3921   28.9938   45.4363 H   0  0  0  0  0  0  0  0  0  0  0  0
   58.6920   30.3190   45.2280 C   0  0  0  0  0  0  0  0  0  0  0  0
   59.3042   31.2308   45.2902 H   0  0  0  0  0  0  0  0  0  0  0  0
   57.2950   30.4210   45.0770 C   0  0  0  0  0  0  0  0  0  0  0  0
   56.6410   31.6600   44.9860 O   0  0  0  0  0  0  0  0  0  0  0  0
   57.2830   32.9210   45.1380 C   0  0  0  0  0  0  0  0  0  0  0  0
   57.3982   33.1472   46.2083 H   0  0  0  0  0  0  0  0  0  0  0  0
   58.2739   32.8878   44.6616 H   0  0  0  0  0  0  0  0  0  0  0  0
   56.6732   33.7027   44.6616 H   0  0  0  0  0  0  0  0  0  0  0  0
   56.5270   29.2500   45.0170 C   0  0  0  0  0  0  0  0  0  0  0  0
   55.1460   29.3300   44.8800 O   0  0  0  0  0  0  0  0  0  0  0  0
   57.1410   27.9960   45.0870 C   0  0  0  0  0  0  0  0  0  0  0  0
   56.5271   27.0838   45.0563 H   0  0  0  0  0  0  0  0  0  0  0  0
  1  2  1  0
  2  3  1  0
  3  4  2  0
  3  5  1  0
  5  6  2  0
  6  7  1  0
  6  8  1  0
  8  9  1  0
  8 10  2  0
 10 11  1  0
 10 12  1  0
 12 13  1  0
 12 14  2  0
 14 15  1  0
  2 16  2  0
 16 17  1  0
 16 18  1  0
 18 19  2  0
 19 20  1  0
 19 21  1  0
 21 22  1  0
 21 23  2  0
 23 24  1  0
 24 25  1  0
 25 26  1  0
 25 27  1  0
 25 28  1  0
 23 29  1  0
 29 30  1  0
 29 31  2  0
 31 32  1  0
 14  5  1  0
 31 18  1  0
M  CHG  4   7  -1  11  -1  15  -1  30  -1
M  END
>  <UniqueID>  (90) 
83

>  <SMILES>  (90) 
COc1ccc(/C=C\C(=O)c2c([O-])cc([O-])cc2[O-])cc1[O-]

>  <Energy>  (90) 
44.90390644185673

>  <Genealogy>  (90) 
COc1ccc(C=CC(=O)c2c([O-])cc([O-])cc2[O-])cc1[O-] (protonated)
COc1ccc(/C=C\C(=O)c2c([O-])cc([O-])cc2[O-])cc1[O-] (cis-trans isomerization)
COc1ccc(/C=C\C(=O)c2c([O-])cc([O-])cc2[O-])cc1[O-] (3D coordinates assigned)
COc1ccc(/C=C\C(=O)c2c([O-])cc([O-])cc2[O-])cc1[O-] (optimized conformer: 44.90390644185673 kcal/mol)

>  <smiles>  (90) 
COc1ccc(C=CC(=O)c2c(O)cc(O)cc2O)cc1O

>  <score_type>  (90) 
oracle

>  <origin>  (90) 
adg

>  <m_score__min__energy>  (90) 
-17.989999999999998

>  <m_primary>  (90) 
energy

$$$$
90:0
     RDKit          3D

 51 54  0  0  0  0  0  0  0  0999 V2000
   54.7730   29.3490   45.2030 O   0  0  0  0  0  0  0  0  0  0  0  0
   56.1240   29.2900   44.8850 C   0  0  0  0  0  0  0  0  0  0  0  0
   56.8030   30.4510   44.5000 C   0  0  0  0  0  0  0  0  0  0  0  0
   58.1610   30.3910   44.1810 C   0  0  0  0  0  0  0  0  0  0  0  0
   58.8440   29.1730   44.2440 C   0  0  0  0  0  0  0  0  0  0  0  0
   58.1700   28.0040   44.6360 C   0  0  0  0  0  0  0  0  0  0  0  0
   58.8930   26.6840   44.6560 C   0  0  0  0  0  0  0  0  0  0  0  0
   58.6640   25.9970   45.9350 N   0  0  0  0  0  0  0  0  0  0  0  0
   59.5180   26.2680   47.0990 C   0  0  0  0  0  0  0  0  0  0  0  0
   59.5580   27.7410   47.4020 C   0  0  0  0  0  0  0  0  0  0  0  0
   60.5920   28.5390   46.8880 C   0  0  0  0  0  0  0  0  0  0  0  0
   60.6710   29.8940   47.2200 C   0  0  0  0  0  0  0  0  0  0  0  0
   59.7070   30.4780   48.0490 C   0  0  0  0  0  0  0  0  0  0  0  0
   59.8370   31.8350   48.3790 O   0  0  0  0  0  0  0  0  0  0  0  0
   59.6370   32.9090   47.5010 C   0  0  0  0  0  0  0  0  0  0  0  0
   58.3980   33.0350   46.8610 C   0  0  0  0  0  0  0  0  0  0  0  0
   58.1590   34.0990   45.9850 C   0  0  0  0  0  0  0  0  0  0  0  0
   59.1540   35.0530   45.7550 C   0  0  0  0  0  0  0  0  0  0  0  0
   60.3850   34.9510   46.4090 C   0  0  0  0  0  0  0  0  0  0  0  0
   60.6270   33.8880   47.2850 C   0  0  0  0  0  0  0  0  0  0  0  0
   58.6710   29.6800   48.5680 C   0  0  0  0  0  0  0  0  0  0  0  0
   58.5970   28.3220   48.2430 C   0  0  0  0  0  0  0  0  0  0  0  0
   57.7300   24.9080   45.9890 C   0  0  0  0  0  0  0  0  0  0  0  0
   56.3520   25.1730   46.0230 C   0  0  0  0  0  0  0  0  0  0  0  0
   55.4340   24.1180   46.0680 C   0  0  0  0  0  0  0  0  0  0  0  0
   54.0700   24.3850   46.1010 O   0  0  0  0  0  0  0  0  0  0  0  0
   55.8880   22.7960   46.0770 C   0  0  0  0  0  0  0  0  0  0  0  0
   57.2590   22.5260   46.0390 C   0  0  0  0  0  0  0  0  0  0  0  0
   58.1820   23.5780   45.9970 C   0  0  0  0  0  0  0  0  0  0  0  0
   59.5440   23.2970   45.9630 O   0  0  0  0  0  0  0  0  0  0  0  0
   56.8030   28.0710   44.9510 C   0  0  0  0  0  0  0  0  0  0  0  0
   56.2674   31.4104   44.4486 H   0  0  0  0  0  0  0  0  0  0  0  0
   58.6947   31.3044   43.8794 H   0  0  0  0  0  0  0  0  0  0  0  0
   59.9124   29.1295   43.9859 H   0  0  0  0  0  0  0  0  0  0  0  0
   58.5217   26.0542   43.8341 H   0  0  0  0  0  0  0  0  0  0  0  0
   59.9713   26.8644   44.5345 H   0  0  0  0  0  0  0  0  0  0  0  0
   59.1185   25.7311   47.9720 H   0  0  0  0  0  0  0  0  0  0  0  0
   60.5392   25.9269   46.8736 H   0  0  0  0  0  0  0  0  0  0  0  0
   61.3446   28.0950   46.2198 H   0  0  0  0  0  0  0  0  0  0  0  0
   61.4965   30.5056   46.8270 H   0  0  0  0  0  0  0  0  0  0  0  0
   57.6079   32.2929   47.0482 H   0  0  0  0  0  0  0  0  0  0  0  0
   57.1872   34.1849   45.4768 H   0  0  0  0  0  0  0  0  0  0  0  0
   58.9683   35.8844   45.0591 H   0  0  0  0  0  0  0  0  0  0  0  0
   61.1642   35.7075   46.2345 H   0  0  0  0  0  0  0  0  0  0  0  0
   61.5927   33.8160   47.8067 H   0  0  0  0  0  0  0  0  0  0  0  0
   57.9161   30.1262   49.2322 H   0  0  0  0  0  0  0  0  0  0  0  0
   57.7810   27.7060   48.6489 H   0  0  0  0  0  0  0  0  0  0  0  0
   55.9929   26.2127   46.0142 H   0  0  0  0  0  0  0  0  0  0  0  0
   55.1656   21.9673   46.1140 H   0  0  0  0  0  0  0  0  0  0  0  0
   57.6135   21.4847   46.0421 H   0  0  0  0  0  0  0  0  0  0  0  0
   56.2648   27.1598   45.2509 H   0  0  0  0  0  0  0  0  0  0  0  0
  1  2  1  0
  2  3  2  0
  3  4  1  0
  4  5  2  0
  5  6  1  0
  6  7  1  0
  7  8  1  0
  8  9  1  0
  9 10  1  0
 10 11  2  0
 11 12  1  0
 12 13  2  0
 13 14  1  0
 14 15  1  0
 15 16  2  0
 16 17  1  0
 17 18  2  0
 18 19  1  0
 19 20  2  0
 13 21  1  0
 21 22  2  0
  8 23  1  0
 23 24  2  0
 24 25  1  0
 25 26  1  0
 25 27  2  0
 27 28  1  0
 28 29  2  0
 29 30  1  0
  6 31  2  0
 31  2  1  0
 22 10  1  0
 29 23  1  0
 20 15  1  0
  3 32  1  0
  4 33  1  0
  5 34  1  0
  7 35  1  0
  7 36  1  0
  9 37  1  0
  9 38  1  0
 11 39  1  0
 12 40  1  0
 16 41  1  0
 17 42  1  0
 18 43  1  0
 19 44  1  0
 20 45  1  0
 21 46  1  0
 22 47  1  0
 24 48  1  0
 27 49  1  0
 28 50  1  0
 31 51  1  0
M  CHG  3   1  -1  26  -1  30  -1
M  END
>  <UniqueID>  (91) 
84

>  <SMILES>  (91) 
[O-]c1cccc(CN(Cc2ccc(Oc3ccccc3)cc2)c2cc([O-])ccc2[O-])c1

>  <Energy>  (91) 
63.649263497257486

>  <Genealogy>  (91) 
[O-]c1cccc(CN(Cc2ccc(Oc3ccccc3)cc2)c2cc([O-])ccc2[O-])c1 (protonated)
[O-]c1cccc(CN(Cc2ccc(Oc3ccccc3)cc2)c2cc([O-])ccc2[O-])c1 (3D coordinates assigned)
[O-]c1cccc(CN(Cc2ccc(Oc3ccccc3)cc2)c2cc([O-])ccc2[O-])c1 (optimized conformer: 63.649263497257486 kcal/mol)

>  <smiles>  (91) 
Oc1cccc(CN(Cc2ccc(Oc3ccccc3)cc2)c2cc(O)ccc2O)c1

>  <score_type>  (91) 
oracle

>  <origin>  (91) 
adg

>  <m_score__min__energy>  (91) 
-15.619999999999999

>  <m_primary>  (91) 
energy

$$$$
91:0
     RDKit          3D

 38 40  0  0  0  0  0  0  0  0999 V2000
   53.2466   22.7566   45.5052 H   0  0  0  0  0  0  0  0  0  0  0  0
   54.1510   23.1870   45.9600 C   0  0  0  0  0  0  0  0  0  0  0  0
   54.4190   24.5110   45.8170 N   0  0  0  0  0  0  0  0  0  0  0  0
   55.5370   25.0650   46.3640 C   0  0  0  0  0  0  0  0  0  0  0  0
   55.7870   26.3370   46.2520 N   0  0  0  0  0  0  0  0  0  0  0  0
   57.0730   26.9510   46.0490 C   0  0  0  0  0  0  0  0  0  0  0  0
   58.2650   26.3000   46.4180 C   0  0  0  0  0  0  0  0  0  0  0  0
   58.2255   25.2851   46.8404 H   0  0  0  0  0  0  0  0  0  0  0  0
   59.4980   26.9350   46.2510 C   0  0  0  0  0  0  0  0  0  0  0  0
   60.4270   26.4108   46.5196 H   0  0  0  0  0  0  0  0  0  0  0  0
   59.5520   28.2330   45.7440 C   0  0  0  0  0  0  0  0  0  0  0  0
   60.5241   28.7310   45.6132 H   0  0  0  0  0  0  0  0  0  0  0  0
   58.3750   28.9020   45.4020 C   0  0  0  0  0  0  0  0  0  0  0  0
   58.4221   29.9327   45.0207 H   0  0  0  0  0  0  0  0  0  0  0  0
   57.1280   28.2630   45.5430 C   0  0  0  0  0  0  0  0  0  0  0  0
   55.8990   28.9370   45.2300 N   0  0  0  0  0  0  0  0  0  0  0  0
   55.6580   29.8200   44.1250 C   0  0  0  0  0  0  0  0  0  0  0  0
   54.6340   29.6680   43.4050 O   0  0  0  0  0  0  0  0  0  0  0  0
   56.5850   30.9470   43.8620 C   0  0  0  0  0  0  0  0  0  0  0  0
   57.0150   31.7810   44.9130 C   0  0  0  0  0  0  0  0  0  0  0  0
   56.6590   31.5975   45.9375 H   0  0  0  0  0  0  0  0  0  0  0  0
   57.8920   32.8410   44.6610 C   0  0  0  0  0  0  0  0  0  0  0  0
   58.2234   33.4868   45.4875 H   0  0  0  0  0  0  0  0  0  0  0  0
   58.3480   33.0820   43.3640 C   0  0  0  0  0  0  0  0  0  0  0  0
   59.0373   33.9167   43.1689 H   0  0  0  0  0  0  0  0  0  0  0  0
   57.9280   32.2620   42.3140 C   0  0  0  0  0  0  0  0  0  0  0  0
   58.2884   32.4517   41.2922 H   0  0  0  0  0  0  0  0  0  0  0  0
   57.0510   31.2010   42.5580 C   0  0  0  0  0  0  0  0  0  0  0  0
   56.7230   30.5606   41.7259 H   0  0  0  0  0  0  0  0  0  0  0  0
   56.3880   24.2850   47.0820 N   0  0  0  0  0  0  0  0  0  0  0  0
   56.1570   22.9540   47.2510 C   0  0  0  0  0  0  0  0  0  0  0  0
   57.0420   22.1590   47.9860 O   0  0  0  0  0  0  0  0  0  0  0  0
   56.6030   21.1350   48.8700 C   0  0  0  0  0  0  0  0  0  0  0  0
   56.7438   21.4635   49.9103 H   0  0  0  0  0  0  0  0  0  0  0  0
   55.5373   20.9287   48.6917 H   0  0  0  0  0  0  0  0  0  0  0  0
   57.1883   20.2209   48.6917 H   0  0  0  0  0  0  0  0  0  0  0  0
   55.0220   22.3740   46.6830 C   0  0  0  0  0  0  0  0  0  0  0  0
   54.8194   21.2995   46.8032 H   0  0  0  0  0  0  0  0  0  0  0  0
  1  2  1  0
  2  3  1  0
  3  4  1  0
  4  5  2  0
  5  6  1  0
  6  7  2  0
  7  8  1  0
  7  9  1  0
  9 10  1  0
  9 11  2  0
 11 12  1  0
 11 13  1  0
 13 14  1  0
 13 15  2  0
 15 16  1  0
 16 17  1  0
 17 18  2  0
 17 19  1  0
 19 20  2  0
 20 21  1  0
 20 22  1  0
 22 23  1  0
 22 24  2  0
 24 25  1  0
 24 26  1  0
 26 27  1  0
 26 28  2  0
 28 29  1  0
  4 30  1  0
 30 31  2  0
 31 32  1  0
 32 33  1  0
 33 34  1  0
 33 35  1  0
 33 36  1  0
 31 37  1  0
 37 38  1  0
 37  2  2  0
 15  6  1  0
 28 19  1  0
M  CHG  2   3  -1  16  -1
M  END
>  <UniqueID>  (92) 
85

>  <SMILES>  (92) 
COc1cc[n-]/c(=N\c2ccccc2[N-]C(=O)c2ccccc2)n1

>  <Energy>  (92) 
50.75169162848619

>  <Genealogy>  (92) 
COc1cc[n-]c(=Nc2ccccc2[N-]C(=O)c2ccccc2)n1 (protonated)
COc1cc[n-]/c(=N\c2ccccc2[N-]C(=O)c2ccccc2)n1 (cis-trans isomerization)
COc1cc[n-]/c(=N\c2ccccc2[N-]C(=O)c2ccccc2)n1 (3D coordinates assigned)
COc1cc[n-]/c(=N\c2ccccc2[N-]C(=O)c2ccccc2)n1 (optimized conformer: 50.75169162848619 kcal/mol)

>  <smiles>  (92) 
COc1cc[nH]c(=Nc2ccccc2NC(=O)c2ccccc2)n1

>  <score_type>  (92) 
oracle

>  <origin>  (92) 
adg

>  <m_score__min__energy>  (92) 
-11.93

>  <m_primary>  (92) 
energy

$$$$
