0:0
     RDKit          3D

 49 52  0  0  0  0  0  0  0  0999 V2000
   55.2898   29.9096   55.8243 H   0  0  0  0  0  0  0  0  0  0  0  0
   54.5740   30.2350   55.0550 C   0  0  0  0  0  0  0  0  0  0  0  0
   53.5317   30.4532   55.3307 H   0  0  0  0  0  0  0  0  0  0  0  0
   54.9730   30.3660   53.7780 C   0  0  0  0  0  0  0  0  0  0  0  0
   54.1670   30.7710   52.7010 C   0  0  0  0  0  0  0  0  0  0  0  0
   52.8310   30.9060   52.5950 C   0  0  0  0  0  0  0  0  0  0  0  0
   52.2579   30.9801   53.5310 H   0  0  0  0  0  0  0  0  0  0  0  0
   52.0710   30.9630   51.3350 C   0  0  0  0  0  0  0  0  0  0  0  0
   52.1650   30.0620   50.3400 N   0  0  0  0  0  0  0  0  0  0  0  0
   51.4080   30.5990   49.3590 C   0  0  0  0  0  0  0  0  0  0  0  0
   51.2320   30.0320   48.2500 O   0  0  0  0  0  0  0  0  0  0  0  0
   50.8620   31.7980   49.6570 N   0  0  0  0  0  0  0  0  0  0  0  0
   51.3050   32.0200   50.9050 C   0  0  0  0  0  0  0  0  0  0  0  0
   51.0190   33.1660   51.6340 O   0  0  0  0  0  0  0  0  0  0  0  0
   55.0230   31.0060   51.6430 C   0  0  0  0  0  0  0  0  0  0  0  0
   54.7447   31.3870   50.6493 H   0  0  0  0  0  0  0  0  0  0  0  0
   56.2930   30.6730   52.0670 C   0  0  0  0  0  0  0  0  0  0  0  0
   57.4910   30.7210   51.1980 C   0  0  0  0  0  0  0  0  0  0  0  0
   57.8060   29.7190   50.5020 O   0  0  0  0  0  0  0  0  0  0  0  0
   58.3060   31.9030   51.1490 N   0  0  0  0  0  0  0  0  0  0  0  0
   58.0480   32.7350   51.7270 H   0  0  0  0  0  0  0  0  0  0  0  0
   59.4440   32.0270   50.2430 C   0  0  0  0  0  0  0  0  0  0  0  0
   60.2650   32.5463   50.7590 H   0  0  0  0  0  0  0  0  0  0  0  0
   59.7710   31.0226   49.9360 H   0  0  0  0  0  0  0  0  0  0  0  0
   59.0510   32.8070   49.0280 C   0  0  0  0  0  0  0  0  0  0  0  0
   59.6640   34.3130   48.6040 S   0  0  0  0  0  0  0  0  0  0  0  0
   58.7530   34.4920   47.2020 C   0  0  0  0  0  0  0  0  0  0  0  0
   58.7888   35.3509   46.5157 H   0  0  0  0  0  0  0  0  0  0  0  0
   57.9480   33.3700   47.0590 C   0  0  0  0  0  0  0  0  0  0  0  0
   57.2496   33.2339   46.2201 H   0  0  0  0  0  0  0  0  0  0  0  0
   58.1080   32.4280   48.0820 C   0  0  0  0  0  0  0  0  0  0  0  0
   57.5446   31.4845   48.1313 H   0  0  0  0  0  0  0  0  0  0  0  0
   56.2700   30.2730   53.3650 N   0  0  0  0  0  0  0  0  0  0  0  0
   57.4310   29.7660   54.1230 C   0  0  0  0  0  0  0  0  0  0  0  0
   57.1366   29.6124   55.1717 H   0  0  0  0  0  0  0  0  0  0  0  0
   57.7573   28.8175   53.6714 H   0  0  0  0  0  0  0  0  0  0  0  0
   58.5790   30.7430   54.0710 C   0  0  0  0  0  0  0  0  0  0  0  0
   59.8500   30.3210   53.6490 C   0  0  0  0  0  0  0  0  0  0  0  0
   60.0153   29.2667   53.3821 H   0  0  0  0  0  0  0  0  0  0  0  0
   60.9060   31.2320   53.5660 C   0  0  0  0  0  0  0  0  0  0  0  0
   61.8977   30.8893   53.2359 H   0  0  0  0  0  0  0  0  0  0  0  0
   60.7110   32.5830   53.9010 C   0  0  0  0  0  0  0  0  0  0  0  0
   61.8280   33.5500   53.8190 C   0  0  0  0  0  0  0  0  0  0  0  0
   62.3900   33.7870   52.7170 O   0  0  0  0  0  0  0  0  0  0  0  0
   62.2730   34.2110   54.9580 O   0  0  0  0  0  0  0  0  0  0  0  0
   59.4350   33.0070   54.3120 C   0  0  0  0  0  0  0  0  0  0  0  0
   59.2689   34.0612   54.5786 H   0  0  0  0  0  0  0  0  0  0  0  0
   58.3760   32.0970   54.3840 C   0  0  0  0  0  0  0  0  0  0  0  0
   57.3773   32.4438   54.6878 H   0  0  0  0  0  0  0  0  0  0  0  0
  1  2  1  0
  2  3  1  0
  2  4  2  0
  4  5  1  0
  5  6  2  0
  6  7  1  0
  6  8  1  0
  8  9  1  0
  9 10  1  0
 10 11  2  0
 10 12  1  0
 12 13  1  0
 13 14  1  0
  5 15  1  0
 15 16  1  0
 15 17  2  0
 17 18  1  0
 18 19  2  0
 18 20  1  0
 20 21  1  0
 20 22  1  0
 22 23  1  0
 22 24  1  0
 22 25  1  0
 25 26  1  0
 26 27  1  0
 27 28  1  0
 27 29  2  0
 29 30  1  0
 29 31  1  0
 31 32  1  0
 17 33  1  0
 33 34  1  0
 34 35  1  0
 34 36  1  0
 34 37  1  0
 37 38  2  0
 38 39  1  0
 38 40  1  0
 40 41  1  0
 40 42  2  0
 42 43  1  0
 43 44  2  0
 43 45  1  0
 42 46  1  0
 46 47  1  0
 46 48  2  0
 48 49  1  0
 33  4  1  0
 48 37  1  0
 13  8  2  0
 31 25  2  0
M  CHG  4   9  -1  12  -1  14  -1  45  -1
M  END
>  <UniqueID>  (1) 
1

>  <SMILES>  (1) 
C=c1/c(=C\c2[n-]c(=O)[n-]c2[O-])cc(C(=O)NCc2cccs2)n1Cc1ccc(C(=O)[O-])cc1

>  <Energy>  (1) 
146.32914397268968

>  <Genealogy>  (1) 
C=c1c(=Cc2[n-]c(=O)[n-]c2[O-])cc(C(=O)NCc2cccs2)n1Cc1ccc(C(=O)[O-])cc1 (protonated)
C=c1/c(=C\c2[n-]c(=O)[n-]c2[O-])cc(C(=O)NCc2cccs2)n1Cc1ccc(C(=O)[O-])cc1 (cis-trans isomerization)
C=c1/c(=C\c2[n-]c(=O)[n-]c2[O-])cc(C(=O)NCc2cccs2)n1Cc1ccc(C(=O)[O-])cc1 (3D coordinates assigned)
C=c1/c(=C\c2[n-]c(=O)[n-]c2[O-])cc(C(=O)NCc2cccs2)n1Cc1ccc(C(=O)[O-])cc1 (optimized conformer: 146.32914397268968 kcal/mol)

>  <smiles>  (1) 
C=c1c(=Cc2[nH]c(=O)[nH]c2O)cc(C(=O)NCc2cccs2)n1Cc1ccc(C(=O)O)cc1

>  <score_type>  (1) 
oracle

>  <origin>  (1) 
adg

>  <m_score__min__energy>  (1) 
-17.420000000000002

>  <m_primary>  (1) 
energy

$$$$
1:0
     RDKit          3D

 51 54  0  0  0  0  0  0  0  0999 V2000
   59.2850   28.1110   47.1760 C   0  0  0  0  0  0  0  0  0  0  0  0
   58.8310   28.9760   46.2550 C   0  0  0  0  0  0  0  0  0  0  0  0
   57.8660   28.7330   45.2600 C   0  0  0  0  0  0  0  0  0  0  0  0
   57.2820   27.5880   44.8540 C   0  0  0  0  0  0  0  0  0  0  0  0
   57.1720   26.3510   45.6500 C   0  0  0  0  0  0  0  0  0  0  0  0
   55.9520   25.9600   46.2260 C   0  0  0  0  0  0  0  0  0  0  0  0
   54.7990   26.7130   46.0270 O   0  0  0  0  0  0  0  0  0  0  0  0
   55.8900   24.8390   46.9910 N   0  0  0  0  0  0  0  0  0  0  0  0
   56.9990   24.0910   47.2260 C   0  0  0  0  0  0  0  0  0  0  0  0
   56.9190   23.0550   47.9340 O   0  0  0  0  0  0  0  0  0  0  0  0
   58.1960   24.4640   46.7030 N   0  0  0  0  0  0  0  0  0  0  0  0
   58.3090   25.5760   45.9320 C   0  0  0  0  0  0  0  0  0  0  0  0
   59.4360   25.8980   45.4700 O   0  0  0  0  0  0  0  0  0  0  0  0
   57.5800   29.9620   44.6900 C   0  0  0  0  0  0  0  0  0  0  0  0
   58.4010   30.8880   45.2980 C   0  0  0  0  0  0  0  0  0  0  0  0
   58.4220   32.3500   44.9680 C   0  0  0  0  0  0  0  0  0  0  0  0
   59.1580   30.2950   46.2470 N   0  0  0  0  0  0  0  0  0  0  0  0
   60.1100   30.9590   47.0990 C   0  0  0  0  0  0  0  0  0  0  0  0
   59.6860   31.8860   48.0560 C   0  0  0  0  0  0  0  0  0  0  0  0
   60.6200   32.5290   48.8700 C   0  0  0  0  0  0  0  0  0  0  0  0
   61.9880   32.2340   48.7250 C   0  0  0  0  0  0  0  0  0  0  0  0
   62.9860   32.8760   49.5470 N   0  0  0  0  0  0  0  0  0  0  0  0
   62.8250   34.2860   49.9190 C   0  0  0  0  0  0  0  0  0  0  0  0
   63.5520   34.5600   51.2400 C   0  0  0  0  0  0  0  0  0  0  0  0
   64.9970   34.2370   51.1670 N   0  0  0  0  0  0  0  0  0  0  0  0
   65.5330   33.9740   52.5110 C   0  0  0  0  0  0  0  0  0  0  0  0
   65.3430   33.1440   50.2230 C   0  0  0  0  0  0  0  0  0  0  0  0
   64.1900   32.1590   49.9860 C   0  0  0  0  0  0  0  0  0  0  0  0
   62.3730   31.3320   47.7770 N   0  0  0  0  0  0  0  0  0  0  0  0
   61.4800   30.6970   46.9720 C   0  0  0  0  0  0  0  0  0  0  0  0
   60.0468   28.4305   47.9024 H   0  0  0  0  0  0  0  0  0  0  0  0
   58.8952   27.0828   47.2042 H   0  0  0  0  0  0  0  0  0  0  0  0
   56.8504   27.5749   43.8423 H   0  0  0  0  0  0  0  0  0  0  0  0
   56.8389   30.1616   43.9021 H   0  0  0  0  0  0  0  0  0  0  0  0
   58.4304   32.9359   45.8989 H   0  0  0  0  0  0  0  0  0  0  0  0
   59.3236   32.5806   44.3815 H   0  0  0  0  0  0  0  0  0  0  0  0
   57.5274   32.6064   44.3815 H   0  0  0  0  0  0  0  0  0  0  0  0
   58.6146   32.1089   48.1676 H   0  0  0  0  0  0  0  0  0  0  0  0
   60.2885   33.2619   49.6203 H   0  0  0  0  0  0  0  0  0  0  0  0
   63.2499   34.9230   49.1292 H   0  0  0  0  0  0  0  0  0  0  0  0
   61.7549   34.5101   50.0398 H   0  0  0  0  0  0  0  0  0  0  0  0
   63.4403   35.6253   51.4904 H   0  0  0  0  0  0  0  0  0  0  0  0
   63.1027   33.9158   52.0102 H   0  0  0  0  0  0  0  0  0  0  0  0
   64.8158   34.3259   53.2671 H   0  0  0  0  0  0  0  0  0  0  0  0
   65.6964   32.8934   52.6356 H   0  0  0  0  0  0  0  0  0  0  0  0
   66.4877   34.5060   52.6356 H   0  0  0  0  0  0  0  0  0  0  0  0
   65.6237   33.5917   49.2582 H   0  0  0  0  0  0  0  0  0  0  0  0
   66.1704   32.5752   50.6722 H   0  0  0  0  0  0  0  0  0  0  0  0
   64.4843   31.4363   49.2107 H   0  0  0  0  0  0  0  0  0  0  0  0
   63.9695   31.6347   50.9275 H   0  0  0  0  0  0  0  0  0  0  0  0
   61.8340   29.9765   46.2200 H   0  0  0  0  0  0  0  0  0  0  0  0
  1  2  2  0
  2  3  1  0
  3  4  2  3
  4  5  1  0
  5  6  2  0
  6  7  1  0
  6  8  1  0
  8  9  1  0
  9 10  2  0
  9 11  1  0
 11 12  1  0
 12 13  2  0
  3 14  1  0
 14 15  2  0
 15 16  1  0
 15 17  1  0
 17 18  1  0
 18 19  2  0
 19 20  1  0
 20 21  2  0
 21 22  1  0
 22 23  1  0
 23 24  1  0
 24 25  1  0
 25 26  1  0
 25 27  1  0
 27 28  1  0
 21 29  1  0
 29 30  2  0
 17  2  1  0
 30 18  1  0
 12  5  1  0
 28 22  1  0
  1 31  1  0
  1 32  1  0
  4 33  1  0
 14 34  1  0
 16 35  1  0
 16 36  1  0
 16 37  1  0
 19 38  1  0
 20 39  1  0
 23 40  1  0
 23 41  1  0
 24 42  1  0
 24 43  1  0
 26 44  1  0
 26 45  1  0
 26 46  1  0
 27 47  1  0
 27 48  1  0
 28 49  1  0
 28 50  1  0
 30 51  1  0
M  CHG  3   7  -1   8  -1  11  -1
M  END
>  <UniqueID>  (2) 
2

>  <SMILES>  (2) 
C=c1c(=Cc2c([O-])[n-]c(=O)[n-]c2=O)cc(C)n1-c1ccc(N2CCN(C)CC2)nc1

>  <Energy>  (2) 
112.41401748044873

>  <Genealogy>  (2) 
C=c1c(=Cc2c([O-])[n-]c(=O)[n-]c2=O)cc(C)n1-c1ccc(N2CCN(C)CC2)nc1 (protonated)
C=c1c(=Cc2c([O-])[n-]c(=O)[n-]c2=O)cc(C)n1-c1ccc(N2CCN(C)CC2)nc1 (3D coordinates assigned)
C=c1c(=Cc2c([O-])[n-]c(=O)[n-]c2=O)cc(C)n1-c1ccc(N2CCN(C)CC2)nc1 (nonaromatic ring conformer: 112.41401748044873 kcal/mol)

>  <smiles>  (2) 
C=c1c(=Cc2c(O)[nH]c(=O)[nH]c2=O)cc(C)n1-c1ccc(N2CCN(C)CC2)nc1

>  <score_type>  (2) 
oracle

>  <origin>  (2) 
adg

>  <m_score__min__energy>  (2) 
-15.41

>  <m_primary>  (2) 
energy

$$$$
2:0
     RDKit          3D

 57 60  0  0  0  0  0  0  0  0999 V2000
   56.0830   30.8230   51.8390 C   0  0  0  0  0  0  0  0  0  0  0  0
   57.4480   31.3020   52.2350 C   0  0  0  0  0  0  0  0  0  0  0  0
   57.6880   32.6710   52.4310 C   0  0  0  0  0  0  0  0  0  0  0  0
   58.9560   33.1130   52.8140 C   0  0  0  0  0  0  0  0  0  0  0  0
   59.9860   32.1940   53.0270 C   0  0  0  0  0  0  0  0  0  0  0  0
   59.7510   30.8200   52.8800 C   0  0  0  0  0  0  0  0  0  0  0  0
   60.8410   29.9120   53.0990 N   0  0  0  0  0  0  0  0  0  0  0  0
   61.5820   29.2050   52.0990 C   0  0  0  0  0  0  0  0  0  0  0  0
   62.5620   28.4830   52.4270 O   0  0  0  0  0  0  0  0  0  0  0  0
   61.2460   29.3500   50.6670 C   0  0  0  0  0  0  0  0  0  0  0  0
   61.2670   30.8260   49.8590 S   0  0  0  0  0  0  0  0  0  0  0  0
   60.8090   30.2450   48.3550 C   0  0  0  0  0  0  0  0  0  0  0  0
   60.6320   28.8680   48.4510 C   0  0  0  0  0  0  0  0  0  0  0  0
   60.1880   28.0500   47.2740 C   0  0  0  0  0  0  0  0  0  0  0  0
   58.7470   27.8530   47.3380 N   0  0  0  0  0  0  0  0  0  0  0  0
   57.8880   28.0100   46.2080 C   0  0  0  0  0  0  0  0  0  0  0  0
   56.7240   27.5270   46.2190 O   0  0  0  0  0  0  0  0  0  0  0  0
   58.3950   28.7060   44.9840 C   0  0  0  0  0  0  0  0  0  0  0  0
   57.9850   30.1190   45.0000 N   0  0  0  0  0  0  0  0  0  0  0  0
   58.9300   31.0670   45.2780 C   0  0  0  0  0  0  0  0  0  0  0  0
   58.5950   32.4240   45.3400 C   0  0  0  0  0  0  0  0  0  0  0  0
   59.6450   33.4490   45.6920 C   0  0  0  0  0  0  0  0  0  0  0  0
   59.8150   33.5300   47.1850 C   0  0  0  0  0  0  0  0  0  0  0  0
   58.8080   33.0810   48.0500 C   0  0  0  0  0  0  0  0  0  0  0  0
   58.9670   33.1950   49.3930 N   0  0  0  0  0  0  0  0  0  0  0  0
   60.0910   33.7450   49.9210 C   0  0  0  0  0  0  0  0  0  0  0  0
   61.0760   34.1970   49.1020 N   0  0  0  0  0  0  0  0  0  0  0  0
   60.9600   34.1040   47.7510 C   0  0  0  0  0  0  0  0  0  0  0  0
   57.2560   32.7770   45.1330 C   0  0  0  0  0  0  0  0  0  0  0  0
   56.8890   33.9810   45.1900 O   0  0  0  0  0  0  0  0  0  0  0  0
   56.3380   31.8140   44.8730 N   0  0  0  0  0  0  0  0  0  0  0  0
   56.6780   30.5010   44.8080 C   0  0  0  0  0  0  0  0  0  0  0  0
   55.3570   29.3080   44.4780 S   0  0  0  0  0  0  0  0  0  0  0  0
   60.8660   28.3550   49.7520 C   0  0  0  0  0  0  0  0  0  0  0  0
   60.7160   26.9020   50.1190 C   0  0  0  0  0  0  0  0  0  0  0  0
   58.4800   30.3790   52.4680 C   0  0  0  0  0  0  0  0  0  0  0  0
   55.4909   30.6152   52.7425 H   0  0  0  0  0  0  0  0  0  0  0  0
   55.5811   31.5987   51.2420 H   0  0  0  0  0  0  0  0  0  0  0  0
   56.1759   29.9038   51.2420 H   0  0  0  0  0  0  0  0  0  0  0  0
   56.8754   33.3973   52.2826 H   0  0  0  0  0  0  0  0  0  0  0  0
   59.1443   34.1884   52.9484 H   0  0  0  0  0  0  0  0  0  0  0  0
   60.9870   32.5504   53.3116 H   0  0  0  0  0  0  0  0  0  0  0  0
   60.6716   30.8495   47.4463 H   0  0  0  0  0  0  0  0  0  0  0  0
   60.4454   28.5765   46.3431 H   0  0  0  0  0  0  0  0  0  0  0  0
   60.6936   27.0733   47.2937 H   0  0  0  0  0  0  0  0  0  0  0  0
   59.4931   28.6460   44.9598 H   0  0  0  0  0  0  0  0  0  0  0  0
   57.9740   28.2188   44.0921 H   0  0  0  0  0  0  0  0  0  0  0  0
   59.9706   30.7579   45.4558 H   0  0  0  0  0  0  0  0  0  0  0  0
   60.6021   33.1607   45.2328 H   0  0  0  0  0  0  0  0  0  0  0  0
   59.3270   34.4318   45.3139 H   0  0  0  0  0  0  0  0  0  0  0  0
   57.8890   32.6363   47.6406 H   0  0  0  0  0  0  0  0  0  0  0  0
   60.2038   33.8245   51.0123 H   0  0  0  0  0  0  0  0  0  0  0  0
   61.7652   34.4795   47.1025 H   0  0  0  0  0  0  0  0  0  0  0  0
   60.7054   26.7996   51.2142 H   0  0  0  0  0  0  0  0  0  0  0  0
   59.7731   26.5148   49.7054 H   0  0  0  0  0  0  0  0  0  0  0  0
   61.5599   26.3303   49.7054 H   0  0  0  0  0  0  0  0  0  0  0  0
   58.2937   29.3040   52.3275 H   0  0  0  0  0  0  0  0  0  0  0  0
  1  2  1  0
  2  3  2  0
  3  4  1  0
  4  5  2  0
  5  6  1  0
  6  7  1  0
  7  8  1  0
  8  9  2  0
  8 10  1  0
 10 11  1  0
 11 12  1  0
 12 13  2  0
 13 14  1  0
 14 15  1  0
 15 16  1  0
 16 17  2  0
 16 18  1  0
 18 19  1  0
 19 20  1  0
 20 21  2  0
 21 22  1  0
 22 23  1  0
 23 24  2  0
 24 25  1  0
 25 26  2  0
 26 27  1  0
 27 28  2  0
 21 29  1  0
 29 30  2  0
 29 31  1  0
 31 32  2  0
 32 33  1  0
 13 34  1  0
 34 35  1  0
  6 36  2  0
 36  2  1  0
 34 10  2  0
 32 19  1  0
 28 23  1  0
  1 37  1  0
  1 38  1  0
  1 39  1  0
  3 40  1  0
  4 41  1  0
  5 42  1  0
 12 43  1  0
 14 44  1  0
 14 45  1  0
 18 46  1  0
 18 47  1  0
 20 48  1  0
 22 49  1  0
 22 50  1  0
 24 51  1  0
 26 52  1  0
 28 53  1  0
 35 54  1  0
 35 55  1  0
 35 56  1  0
 36 57  1  0
M  CHG  3   7  -1  15  -1  33  -1
M  END
>  <UniqueID>  (3) 
3

>  <SMILES>  (3) 
Cc1cccc([N-]C(=O)c2scc(C[N-]C(=O)Cn3cc(Cc4cncnc4)c(=O)nc3[S-])c2C)c1

>  <Energy>  (3) 
89.79616892487286

>  <Genealogy>  (3) 
Cc1cccc([N-]C(=O)c2scc(C[N-]C(=O)Cn3cc(Cc4cncnc4)c(=O)nc3[S-])c2C)c1 (protonated)
Cc1cccc([N-]C(=O)c2scc(C[N-]C(=O)Cn3cc(Cc4cncnc4)c(=O)nc3[S-])c2C)c1 (3D coordinates assigned)
Cc1cccc([N-]C(=O)c2scc(C[N-]C(=O)Cn3cc(Cc4cncnc4)c(=O)nc3[S-])c2C)c1 (optimized conformer: 89.79616892487286 kcal/mol)

>  <smiles>  (3) 
Cc1cccc(NC(=O)c2scc(CNC(=O)Cn3cc(Cc4cncnc4)c(=O)nc3S)c2C)c1

>  <score_type>  (3) 
oracle

>  <origin>  (3) 
adg

>  <m_score__min__energy>  (3) 
-11.84

>  <m_primary>  (3) 
energy

$$$$
3:0
     RDKit          3D

 45 46  0  0  0  0  0  0  0  0999 V2000
   58.4140   21.4820   43.5040 C   0  0  0  0  0  0  0  0  0  0  0  0
   56.9770   21.8390   43.6980 C   0  0  0  0  0  0  0  0  0  0  0  0
   56.1020   21.3540   42.9310 O   0  0  0  0  0  0  0  0  0  0  0  0
   56.6010   22.7290   44.7560 N   0  0  0  0  0  0  0  0  0  0  0  0
   55.2300   23.2030   44.9380 C   0  0  0  0  0  0  0  0  0  0  0  0
   54.9930   23.6600   46.3550 C   0  0  0  0  0  0  0  0  0  0  0  0
   53.8630   23.4650   46.8750 O   0  0  0  0  0  0  0  0  0  0  0  0
   55.9940   24.3460   47.1210 N   0  0  0  0  0  0  0  0  0  0  0  0
   56.6740   25.5490   46.7380 C   0  0  0  0  0  0  0  0  0  0  0  0
   58.0120   25.7750   47.1020 C   0  0  0  0  0  0  0  0  0  0  0  0
   58.6540   26.9570   46.7260 C   0  0  0  0  0  0  0  0  0  0  0  0
   57.9620   27.9370   46.0010 C   0  0  0  0  0  0  0  0  0  0  0  0
   58.7670   29.4420   45.5470 S   0  0  0  0  0  0  0  0  0  0  0  0
   59.9280   29.6810   46.4740 O   0  0  0  0  0  0  0  0  0  0  0  0
   59.3070   29.3140   44.1490 O   0  0  0  0  0  0  0  0  0  0  0  0
   57.6760   30.8060   45.6280 N   0  0  0  0  0  0  0  0  0  0  0  0
   58.1960   31.8260   46.5600 C   0  0  0  0  0  0  0  0  0  0  0  0
   57.5370   33.1900   46.3120 C   0  0  0  0  0  0  0  0  0  0  0  0
   57.7880   33.6950   44.9380 N   0  0  0  0  0  0  0  0  0  0  0  0
   58.8330   34.7290   44.9300 C   0  0  0  0  0  0  0  0  0  0  0  0
   58.1140   32.6290   43.9630 C   0  0  0  0  0  0  0  0  0  0  0  0
   57.3570   31.3310   44.2790 C   0  0  0  0  0  0  0  0  0  0  0  0
   56.6220   27.7200   45.6530 C   0  0  0  0  0  0  0  0  0  0  0  0
   55.9770   26.5370   46.0280 C   0  0  0  0  0  0  0  0  0  0  0  0
   54.6450   26.3410   45.6820 O   0  0  0  0  0  0  0  0  0  0  0  0
   58.8976   21.3619   44.4847 H   0  0  0  0  0  0  0  0  0  0  0  0
   58.4849   20.5389   42.9422 H   0  0  0  0  0  0  0  0  0  0  0  0
   58.9180   22.2822   42.9422 H   0  0  0  0  0  0  0  0  0  0  0  0
   57.3340   23.0570   45.4240 H   0  0  0  0  0  0  0  0  0  0  0  0
   55.0482   24.0455   44.2545 H   0  0  0  0  0  0  0  0  0  0  0  0
   54.5431   22.3716   44.7214 H   0  0  0  0  0  0  0  0  0  0  0  0
   58.5562   25.0179   47.6856 H   0  0  0  0  0  0  0  0  0  0  0  0
   59.7069   27.1195   46.9999 H   0  0  0  0  0  0  0  0  0  0  0  0
   57.9873   31.5088   47.5924 H   0  0  0  0  0  0  0  0  0  0  0  0
   59.2792   31.9272   46.3976 H   0  0  0  0  0  0  0  0  0  0  0  0
   56.4515   33.0907   46.4597 H   0  0  0  0  0  0  0  0  0  0  0  0
   57.9743   33.9091   47.0203 H   0  0  0  0  0  0  0  0  0  0  0  0
   59.0976   34.9909   45.9651 H   0  0  0  0  0  0  0  0  0  0  0  0
   59.7233   34.3465   44.4095 H   0  0  0  0  0  0  0  0  0  0  0  0
   58.4599   35.6233   44.4095 H   0  0  0  0  0  0  0  0  0  0  0  0
   57.8361   32.9691   42.9545 H   0  0  0  0  0  0  0  0  0  0  0  0
   59.1931   32.4238   44.0219 H   0  0  0  0  0  0  0  0  0  0  0  0
   56.2765   31.5295   44.2234 H   0  0  0  0  0  0  0  0  0  0  0  0
   57.6657   30.5744   43.5426 H   0  0  0  0  0  0  0  0  0  0  0  0
   56.0745   28.4842   45.0818 H   0  0  0  0  0  0  0  0  0  0  0  0
  1  2  1  0
  2  3  2  0
  2  4  1  0
  4  5  1  0
  5  6  1  0
  6  7  2  0
  6  8  1  0
  8  9  1  0
  9 10  2  0
 10 11  1  0
 11 12  2  0
 12 13  1  0
 13 14  2  0
 13 15  2  0
 13 16  1  0
 16 17  1  0
 17 18  1  0
 18 19  1  0
 19 20  1  0
 19 21  1  0
 21 22  1  0
 12 23  1  0
 23 24  2  0
 24 25  1  0
 24  9  1  0
 22 16  1  0
  1 26  1  0
  1 27  1  0
  1 28  1  0
  4 29  1  0
  5 30  1  0
  5 31  1  0
 10 32  1  0
 11 33  1  0
 17 34  1  0
 17 35  1  0
 18 36  1  0
 18 37  1  0
 20 38  1  0
 20 39  1  0
 20 40  1  0
 21 41  1  0
 21 42  1  0
 22 43  1  0
 22 44  1  0
 23 45  1  0
M  CHG  2   8  -1  25  -1
M  END
>  <UniqueID>  (4) 
4

>  <SMILES>  (4) 
CC(=O)NCC(=O)[N-]c1ccc(S(=O)(=O)N2CCN(C)CC2)cc1[O-]

>  <Energy>  (4) 
53.182645841677974

>  <Genealogy>  (4) 
CC(=O)NCC(=O)[N-]c1ccc(S(=O)(=O)N2CCN(C)CC2)cc1[O-] (protonated)
CC(=O)NCC(=O)[N-]c1ccc(S(=O)(=O)N2CCN(C)CC2)cc1[O-] (3D coordinates assigned)
CC(=O)NCC(=O)[N-]c1ccc(S(=O)(=O)N2CCN(C)CC2)cc1[O-] (nonaromatic ring conformer: 53.182645841677974 kcal/mol)

>  <smiles>  (4) 
CC(=O)NCC(=O)Nc1ccc(S(=O)(=O)N2CCN(C)CC2)cc1O

>  <score_type>  (4) 
oracle

>  <origin>  (4) 
adg

>  <m_score__min__energy>  (4) 
-13.23

>  <m_primary>  (4) 
energy

$$$$
4:0
     RDKit          3D

 64 67  0  0  0  0  0  0  0  0999 V2000
   58.8750   34.4120   52.7340 C   0  0  0  0  0  0  0  0  0  0  0  0
   59.7790   33.4860   51.9890 C   0  0  0  0  0  0  0  0  0  0  0  0
   60.3820   33.8160   50.8310 N   0  0  0  0  0  0  0  0  0  0  0  0
   61.1680   32.8110   50.4700 N   0  0  0  0  0  0  0  0  0  0  0  0
   61.9600   32.8370   49.2710 C   0  0  0  0  0  0  0  0  0  0  0  0
   62.8660   33.8840   49.0220 C   0  0  0  0  0  0  0  0  0  0  0  0
   63.6190   33.9010   47.8450 C   0  0  0  0  0  0  0  0  0  0  0  0
   63.4660   32.8830   46.9000 C   0  0  0  0  0  0  0  0  0  0  0  0
   62.5510   31.8510   47.1280 C   0  0  0  0  0  0  0  0  0  0  0  0
   61.7970   31.8310   48.3050 C   0  0  0  0  0  0  0  0  0  0  0  0
   61.0680   31.8130   51.3800 C   0  0  0  0  0  0  0  0  0  0  0  0
   61.7700   30.4890   51.3250 C   0  0  0  0  0  0  0  0  0  0  0  0
   60.1770   32.2110   52.3520 C   0  0  0  0  0  0  0  0  0  0  0  0
   59.8490   31.4820   53.5410 N   0  0  0  0  0  0  0  0  0  0  0  0
   58.8160   30.4970   53.6550 C   0  0  0  0  0  0  0  0  0  0  0  0
   58.0350   30.5480   54.6430 O   0  0  0  0  0  0  0  0  0  0  0  0
   58.6740   29.3780   52.6610 C   0  0  0  0  0  0  0  0  0  0  0  0
   57.7620   29.7400   51.6260 O   0  0  0  0  0  0  0  0  0  0  0  0
   57.6580   31.0360   51.1040 C   0  0  0  0  0  0  0  0  0  0  0  0
   57.1280   31.9590   51.7800 O   0  0  0  0  0  0  0  0  0  0  0  0
   58.1810   31.3210   49.7590 C   0  0  0  0  0  0  0  0  0  0  0  0
   58.5210   30.3590   49.0170 O   0  0  0  0  0  0  0  0  0  0  0  0
   58.3490   32.6770   49.3140 N   0  0  0  0  0  0  0  0  0  0  0  0
   58.6170   33.0470   47.9530 C   0  0  0  0  0  0  0  0  0  0  0  0
   59.3910   34.1780   47.6400 C   0  0  0  0  0  0  0  0  0  0  0  0
   59.6620   34.5000   46.3080 C   0  0  0  0  0  0  0  0  0  0  0  0
   59.1710   33.6960   45.2770 C   0  0  0  0  0  0  0  0  0  0  0  0
   58.4170   32.5540   45.5740 C   0  0  0  0  0  0  0  0  0  0  0  0
   57.8030   31.5310   44.2730 S   0  0  0  0  0  0  0  0  0  0  0  0
   57.9320   32.2620   42.9650 O   0  0  0  0  0  0  0  0  0  0  0  0
   56.3440   31.2530   44.5080 O   0  0  0  0  0  0  0  0  0  0  0  0
   58.6670   30.0140   44.1810 N   0  0  0  0  0  0  0  0  0  0  0  0
   59.6300   29.9010   45.2940 C   0  0  0  0  0  0  0  0  0  0  0  0
   60.0350   28.4330   45.5050 C   0  0  0  0  0  0  0  0  0  0  0  0
   58.9490   27.5680   45.8210 O   0  0  0  0  0  0  0  0  0  0  0  0
   57.6820   28.0650   45.4100 C   0  0  0  0  0  0  0  0  0  0  0  0
   57.7440   28.8610   44.0930 C   0  0  0  0  0  0  0  0  0  0  0  0
   58.1470   32.2310   46.9110 C   0  0  0  0  0  0  0  0  0  0  0  0
   59.0145   34.2691   53.8157 H   0  0  0  0  0  0  0  0  0  0  0  0
   59.1150   35.4519   52.4675 H   0  0  0  0  0  0  0  0  0  0  0  0
   57.8296   34.1971   52.4675 H   0  0  0  0  0  0  0  0  0  0  0  0
   62.9823   34.6935   49.7577 H   0  0  0  0  0  0  0  0  0  0  0  0
   64.3334   34.7171   47.6620 H   0  0  0  0  0  0  0  0  0  0  0  0
   64.0651   32.8937   45.9775 H   0  0  0  0  0  0  0  0  0  0  0  0
   62.4242   31.0540   46.3806 H   0  0  0  0  0  0  0  0  0  0  0  0
   61.0714   31.0220   48.4755 H   0  0  0  0  0  0  0  0  0  0  0  0
   61.9595   30.1317   52.3479 H   0  0  0  0  0  0  0  0  0  0  0  0
   61.1392   29.7613   50.7934 H   0  0  0  0  0  0  0  0  0  0  0  0
   62.7262   30.6028   50.7934 H   0  0  0  0  0  0  0  0  0  0  0  0
   59.6570   29.1613   52.2174 H   0  0  0  0  0  0  0  0  0  0  0  0
   58.2870   28.4888   53.1802 H   0  0  0  0  0  0  0  0  0  0  0  0
   58.3860   33.4290   50.0400 H   0  0  0  0  0  0  0  0  0  0  0  0
   59.7850   34.8123   48.4477 H   0  0  0  0  0  0  0  0  0  0  0  0
   60.2639   35.3895   46.0704 H   0  0  0  0  0  0  0  0  0  0  0  0
   59.3770   33.9604   44.2293 H   0  0  0  0  0  0  0  0  0  0  0  0
   60.5262   30.4942   45.0595 H   0  0  0  0  0  0  0  0  0  0  0  0
   59.1581   30.2768   46.2138 H   0  0  0  0  0  0  0  0  0  0  0  0
   60.5082   28.0694   44.5810 H   0  0  0  0  0  0  0  0  0  0  0  0
   60.7162   28.4138   46.3684 H   0  0  0  0  0  0  0  0  0  0  0  0
   56.9996   27.2133   45.2726 H   0  0  0  0  0  0  0  0  0  0  0  0
   57.3296   28.7527   46.1928 H   0  0  0  0  0  0  0  0  0  0  0  0
   58.0880   28.1921   43.2904 H   0  0  0  0  0  0  0  0  0  0  0  0
   56.7362   29.2497   43.8850 H   0  0  0  0  0  0  0  0  0  0  0  0
   57.5615   31.3300   47.1463 H   0  0  0  0  0  0  0  0  0  0  0  0
  1  2  1  0
  2  3  2  0
  3  4  1  0
  4  5  1  0
  5  6  2  0
  6  7  1  0
  7  8  2  0
  8  9  1  0
  9 10  2  0
  4 11  1  0
 11 12  1  0
 11 13  2  0
 13 14  1  0
 14 15  1  0
 15 16  2  0
 15 17  1  0
 17 18  1  0
 18 19  1  0
 19 20  2  0
 19 21  1  0
 21 22  2  0
 21 23  1  0
 23 24  1  0
 24 25  2  0
 25 26  1  0
 26 27  2  0
 27 28  1  0
 28 29  1  0
 29 30  2  0
 29 31  2  0
 29 32  1  0
 32 33  1  0
 33 34  1  0
 34 35  1  0
 35 36  1  0
 36 37  1  0
 28 38  2  0
 13  2  1  0
 38 24  1  0
 10  5  1  0
 37 32  1  0
  1 39  1  0
  1 40  1  0
  1 41  1  0
  6 42  1  0
  7 43  1  0
  8 44  1  0
  9 45  1  0
 10 46  1  0
 12 47  1  0
 12 48  1  0
 12 49  1  0
 17 50  1  0
 17 51  1  0
 23 52  1  0
 25 53  1  0
 26 54  1  0
 27 55  1  0
 33 56  1  0
 33 57  1  0
 34 58  1  0
 34 59  1  0
 36 60  1  0
 36 61  1  0
 37 62  1  0
 37 63  1  0
 38 64  1  0
M  CHG  1  14  -1
M  END
>  <UniqueID>  (5) 
5

>  <SMILES>  (5) 
Cc1nn(-c2ccccc2)c(C)c1[N-]C(=O)COC(=O)C(=O)Nc1cccc(S(=O)(=O)N2CCOCC2)c1

>  <Energy>  (5) 
120.94484196528582

>  <Genealogy>  (5) 
Cc1nn(-c2ccccc2)c(C)c1[N-]C(=O)COC(=O)C(=O)Nc1cccc(S(=O)(=O)N2CCOCC2)c1 (protonated)
Cc1nn(-c2ccccc2)c(C)c1[N-]C(=O)COC(=O)C(=O)Nc1cccc(S(=O)(=O)N2CCOCC2)c1 (3D coordinates assigned)
Cc1nn(-c2ccccc2)c(C)c1[N-]C(=O)COC(=O)C(=O)Nc1cccc(S(=O)(=O)N2CCOCC2)c1 (nonaromatic ring conformer: 120.94484196528582 kcal/mol)

>  <smiles>  (5) 
Cc1nn(-c2ccccc2)c(C)c1NC(=O)COC(=O)C(=O)Nc1cccc(S(=O)(=O)N2CCOCC2)c1

>  <score_type>  (5) 
oracle

>  <origin>  (5) 
adg

>  <m_score__min__energy>  (5) 
-10.23

>  <m_primary>  (5) 
energy

$$$$
5:0
     RDKit          3D

 35 35  0  0  0  0  0  0  0  0999 V2000
   56.8500   25.1940   46.8930 C   0  0  0  0  0  0  0  0  0  0  0  0
   56.1990   26.3070   46.1330 C   0  0  0  0  0  0  0  0  0  0  0  0
   54.9450   26.3280   46.0160 O   0  0  0  0  0  0  0  0  0  0  0  0
   57.0060   27.3730   45.5200 C   0  0  0  0  0  0  0  0  0  0  0  0
   58.2290   27.1800   45.2860 O   0  0  0  0  0  0  0  0  0  0  0  0
   56.4020   28.6450   45.2440 N   0  0  0  0  0  0  0  0  0  0  0  0
   57.0860   29.8610   44.9090 C   0  0  0  0  0  0  0  0  0  0  0  0
   57.0320   30.4120   43.6180 C   0  0  0  0  0  0  0  0  0  0  0  0
   57.6890   31.6140   43.3400 C   0  0  0  0  0  0  0  0  0  0  0  0
   57.6190   32.2980   41.7260 Cl  0  0  0  0  0  0  0  0  0  0  0  0
   58.3940   32.2780   44.3480 C   0  0  0  0  0  0  0  0  0  0  0  0
   58.4460   31.7500   45.6470 C   0  0  0  0  0  0  0  0  0  0  0  0
   59.1730   32.4650   46.6660 N   0  0  0  0  0  0  0  0  0  0  0  0
   60.3790   33.2560   46.4230 C   0  0  0  0  0  0  0  0  0  0  0  0
   61.0160   33.6810   47.7210 C   0  0  0  0  0  0  0  0  0  0  0  0
   60.2700   33.8690   48.7210 O   0  0  0  0  0  0  0  0  0  0  0  0
   62.4430   33.8730   47.8490 N   0  0  0  0  0  0  0  0  0  0  0  0
   63.3330   33.7520   46.6890 C   0  0  0  0  0  0  0  0  0  0  0  0
   62.9980   34.2080   49.1650 C   0  0  0  0  0  0  0  0  0  0  0  0
   57.7710   30.5440   45.9210 C   0  0  0  0  0  0  0  0  0  0  0  0
   56.7436   25.3759   47.9726 H   0  0  0  0  0  0  0  0  0  0  0  0
   56.3672   24.2406   46.6325 H   0  0  0  0  0  0  0  0  0  0  0  0
   57.9177   25.1475   46.6325 H   0  0  0  0  0  0  0  0  0  0  0  0
   56.4715   29.8965   42.8242 H   0  0  0  0  0  0  0  0  0  0  0  0
   58.9119   33.2216   44.1212 H   0  0  0  0  0  0  0  0  0  0  0  0
   58.8050   32.4430   47.6440 H   0  0  0  0  0  0  0  0  0  0  0  0
   61.0973   32.6504   45.8510 H   0  0  0  0  0  0  0  0  0  0  0  0
   60.0993   34.1574   45.8579 H   0  0  0  0  0  0  0  0  0  0  0  0
   64.3680   33.6113   47.0340 H   0  0  0  0  0  0  0  0  0  0  0  0
   63.0282   32.8870   46.0816 H   0  0  0  0  0  0  0  0  0  0  0  0
   63.2702   34.6669   46.0816 H   0  0  0  0  0  0  0  0  0  0  0  0
   62.3402   33.8110   49.9522 H   0  0  0  0  0  0  0  0  0  0  0  0
   63.9991   33.7632   49.2648 H   0  0  0  0  0  0  0  0  0  0  0  0
   63.0708   35.3010   49.2648 H   0  0  0  0  0  0  0  0  0  0  0  0
   57.7824   30.1344   46.9418 H   0  0  0  0  0  0  0  0  0  0  0  0
  1  2  1  0
  2  3  2  0
  2  4  1  0
  4  5  2  0
  4  6  1  0
  6  7  1  0
  7  8  2  0
  8  9  1  0
  9 10  1  0
  9 11  2  0
 11 12  1  0
 12 13  1  0
 13 14  1  0
 14 15  1  0
 15 16  2  0
 15 17  1  0
 17 18  1  0
 17 19  1  0
 12 20  2  0
 20  7  1  0
  1 21  1  0
  1 22  1  0
  1 23  1  0
  8 24  1  0
 11 25  1  0
 13 26  1  0
 14 27  1  0
 14 28  1  0
 18 29  1  0
 18 30  1  0
 18 31  1  0
 19 32  1  0
 19 33  1  0
 19 34  1  0
 20 35  1  0
M  CHG  1   6  -1
M  END
>  <UniqueID>  (6) 
6

>  <SMILES>  (6) 
CC(=O)C(=O)[N-]c1cc(Cl)cc(NCC(=O)N(C)C)c1

>  <Energy>  (6) 
30.27209082258578

>  <Genealogy>  (6) 
CC(=O)C(=O)[N-]c1cc(Cl)cc(NCC(=O)N(C)C)c1 (protonated)
CC(=O)C(=O)[N-]c1cc(Cl)cc(NCC(=O)N(C)C)c1 (3D coordinates assigned)
CC(=O)C(=O)[N-]c1cc(Cl)cc(NCC(=O)N(C)C)c1 (optimized conformer: 30.27209082258578 kcal/mol)

>  <smiles>  (6) 
CC(=O)C(=O)Nc1cc(Cl)cc(NCC(=O)N(C)C)c1

>  <score_type>  (6) 
oracle

>  <origin>  (6) 
adg

>  <m_score__min__energy>  (6) 
-8.6300000000000008

>  <m_primary>  (6) 
energy

$$$$
6:0
     RDKit          3D

 39 40  0  0  0  0  0  0  0  0999 V2000
   57.0230   34.4170   44.8840 C   0  0  0  0  0  0  0  0  0  0  0  0
   57.6870   33.6800   45.7790 C   0  0  0  0  0  0  0  0  0  0  0  0
   58.5000   34.2880   46.6360 O   0  0  0  0  0  0  0  0  0  0  0  0
   59.2010   33.6380   47.5610 C   0  0  0  0  0  0  0  0  0  0  0  0
   59.9430   34.3130   48.3200 O   0  0  0  0  0  0  0  0  0  0  0  0
   59.0920   32.2240   47.6590 C   0  0  0  0  0  0  0  0  0  0  0  0
   59.7410   31.4310   48.5490 C   0  0  0  0  0  0  0  0  0  0  0  0
   59.6340   29.9870   48.6430 N   0  0  2  0  0  0  0  0  0  0  0  0
   60.2010   29.5150   49.9190 C   0  0  0  0  0  0  0  0  0  0  0  0
   60.2500   29.3110   47.4700 C   0  0  0  0  0  0  0  0  0  0  0  0
   59.2620   28.7180   46.4780 C   0  0  0  0  0  0  0  0  0  0  0  0
   59.2640   29.1350   45.1380 C   0  0  0  0  0  0  0  0  0  0  0  0
   58.3460   28.6010   44.2320 C   0  0  0  0  0  0  0  0  0  0  0  0
   57.4070   27.6570   44.6540 C   0  0  0  0  0  0  0  0  0  0  0  0
   57.3700   27.2440   45.9980 C   0  0  0  0  0  0  0  0  0  0  0  0
   56.3670   26.2510   46.4530 C   0  0  0  0  0  0  0  0  0  0  0  0
   56.7070   25.3230   47.2370 O   0  0  0  0  0  0  0  0  0  0  0  0
   55.0090   26.3390   46.0060 N   0  0  0  0  0  0  0  0  0  0  0  0
   54.2340   25.1750   45.6030 C   0  0  0  0  0  0  0  0  0  0  0  0
   58.2970   27.7880   46.9050 C   0  0  0  0  0  0  0  0  0  0  0  0
   58.2570   31.6040   46.7800 N   0  0  0  0  0  0  0  0  0  0  0  0
   57.5520   32.2840   45.8460 C   0  0  0  0  0  0  0  0  0  0  0  0
   56.7940   31.6550   45.0580 O   0  0  0  0  0  0  0  0  0  0  0  0
   56.3453   33.9318   44.1662 H   0  0  0  0  0  0  0  0  0  0  0  0
   57.1540   35.5090   44.8650 H   0  0  0  0  0  0  0  0  0  0  0  0
   60.4103   31.9293   49.2657 H   0  0  0  0  0  0  0  0  0  0  0  0
   58.6280   29.7080   48.5970 H   0  0  0  0  0  0  0  0  0  0  0  0
   59.6520   29.9720   50.7555 H   0  0  0  0  0  0  0  0  0  0  0  0
   60.1124   28.4201   49.9769 H   0  0  0  0  0  0  0  0  0  0  0  0
   61.2617   29.8006   49.9769 H   0  0  0  0  0  0  0  0  0  0  0  0
   60.8679   30.0485   46.9368 H   0  0  0  0  0  0  0  0  0  0  0  0
   60.8279   28.4653   47.8711 H   0  0  0  0  0  0  0  0  0  0  0  0
   59.9927   29.8865   44.7999 H   0  0  0  0  0  0  0  0  0  0  0  0
   58.3622   28.9251   43.1810 H   0  0  0  0  0  0  0  0  0  0  0  0
   56.6930   27.2345   43.9317 H   0  0  0  0  0  0  0  0  0  0  0  0
   53.8796   24.6427   46.4980 H   0  0  0  0  0  0  0  0  0  0  0  0
   53.3707   25.4990   45.0032 H   0  0  0  0  0  0  0  0  0  0  0  0
   54.8659   24.5035   45.0032 H   0  0  0  0  0  0  0  0  0  0  0  0
   58.2670   27.4824   47.9613 H   0  0  0  0  0  0  0  0  0  0  0  0
  1  2  2  0
  2  3  1  0
  3  4  1  0
  4  5  2  0
  4  6  1  0
  6  7  2  3
  7  8  1  0
  8  9  1  0
  8 10  1  0
 10 11  1  0
 11 12  2  0
 12 13  1  0
 13 14  2  0
 14 15  1  0
 15 16  1  0
 16 17  2  0
 16 18  1  0
 18 19  1  0
 15 20  2  0
  6 21  1  0
 21 22  1  0
 22 23  2  0
 22  2  1  0
 20 11  1  0
  1 24  1  0
  1 25  1  0
  7 26  1  0
  8 27  1  1
  9 28  1  0
  9 29  1  0
  9 30  1  0
 10 31  1  0
 10 32  1  0
 12 33  1  0
 13 34  1  0
 14 35  1  0
 19 36  1  0
 19 37  1  0
 19 38  1  0
 20 39  1  0
M  CHG  3   8   1  18  -1  21  -1
M  END
>  <UniqueID>  (7) 
7

>  <SMILES>  (7) 
C=c1oc(=O)c(=C[N@H+](C)Cc2cccc(C(=O)[N-]C)c2)[n-]c1=O

>  <Energy>  (7) 
53.87141325989443

>  <Genealogy>  (7) 
C=c1oc(=O)c(=C[NH+](C)Cc2cccc(C(=O)[N-]C)c2)[n-]c1=O (protonated)
C=c1oc(=O)c(=C[N@H+](C)Cc2cccc(C(=O)[N-]C)c2)[n-]c1=O (chirality)
C=c1oc(=O)c(=C[N@H+](C)Cc2cccc(C(=O)[N-]C)c2)[n-]c1=O (3D coordinates assigned)
C=c1oc(=O)c(=C[N@H+](C)Cc2cccc(C(=O)[N-]C)c2)[n-]c1=O (optimized conformer: 53.87141325989443 kcal/mol)

>  <smiles>  (7) 
C=c1oc(=O)c(=CN(C)Cc2cccc(C(=O)NC)c2)[nH]c1=O

>  <score_type>  (7) 
oracle

>  <origin>  (7) 
adg

>  <m_score__min__energy>  (7) 
-9.6699999999999999

>  <m_primary>  (7) 
energy

$$$$
7:0
     RDKit          3D

 57 61  0  0  0  0  0  0  0  0999 V2000
   63.8838   34.5868   51.6982 H   0  0  0  0  0  0  0  0  0  0  0  0
   63.6340   34.2030   50.6980 C   0  0  0  0  0  0  0  0  0  0  0  0
   62.4250   34.4780   50.1470 N   0  0  0  0  0  0  0  0  0  0  0  0
   62.0860   34.0130   48.9150 C   0  0  0  0  0  0  0  0  0  0  0  0
   60.9130   34.3150   48.4350 N   0  0  0  0  0  0  0  0  0  0  0  0
   60.1670   33.5690   47.4610 C   0  0  0  0  0  0  0  0  0  0  0  0
   59.1570   34.2070   46.7510 C   0  0  0  0  0  0  0  0  0  0  0  0
   58.9600   35.2766   46.9160 H   0  0  0  0  0  0  0  0  0  0  0  0
   58.3970   33.4950   45.8340 C   0  0  0  0  0  0  0  0  0  0  0  0
   57.6012   34.0014   45.2681 H   0  0  0  0  0  0  0  0  0  0  0  0
   58.6430   32.1320   45.6290 C   0  0  0  0  0  0  0  0  0  0  0  0
   57.8110   31.4330   44.6240 C   0  0  0  0  0  0  0  0  0  0  0  0
   57.7890   31.8830   43.2950 C   0  0  0  0  0  0  0  0  0  0  0  0
   58.3744   32.7681   43.0053 H   0  0  0  0  0  0  0  0  0  0  0  0
   57.0240   31.2080   42.3380 C   0  0  0  0  0  0  0  0  0  0  0  0
   57.0036   31.5667   41.2983 H   0  0  0  0  0  0  0  0  0  0  0  0
   56.2860   30.0790   42.7010 C   0  0  0  0  0  0  0  0  0  0  0  0
   55.6775   29.5552   41.9491 H   0  0  0  0  0  0  0  0  0  0  0  0
   56.3200   29.6140   44.0190 C   0  0  0  0  0  0  0  0  0  0  0  0
   55.7425   28.7218   44.3027 H   0  0  0  0  0  0  0  0  0  0  0  0
   57.0880   30.2830   44.9760 C   0  0  0  0  0  0  0  0  0  0  0  0
   57.1259   29.9067   46.0089 H   0  0  0  0  0  0  0  0  0  0  0  0
   59.6220   31.4840   46.3580 N   0  0  0  0  0  0  0  0  0  0  0  0
   59.8310   30.0250   46.2310 C   0  0  0  0  0  0  0  0  0  0  0  0
   60.9065   29.8201   46.1244 H   0  0  0  0  0  0  0  0  0  0  0  0
   59.2893   29.6610   45.3456 H   0  0  0  0  0  0  0  0  0  0  0  0
   59.3080   29.3150   47.4530 C   0  0  0  0  0  0  0  0  0  0  0  0
   60.0080   29.3150   48.5000 O   0  0  0  0  0  0  0  0  0  0  0  0
   58.1280   28.4980   47.4170 N   0  0  0  0  0  0  0  0  0  0  0  0
   57.9460   27.4170   46.7160 C   0  0  0  0  0  0  0  0  0  0  0  0
   56.7030   27.0370   46.3120 N   0  0  0  0  0  0  0  0  0  0  0  0
   56.4900   25.9040   45.5930 C   0  0  0  0  0  0  0  0  0  0  0  0
   55.4696   25.6394   45.2786 H   0  0  0  0  0  0  0  0  0  0  0  0
   57.5650   25.0690   45.2490 C   0  0  0  0  0  0  0  0  0  0  0  0
   57.3450   23.8290   44.4630 C   0  0  0  0  0  0  0  0  0  0  0  0
   56.3360   23.7740   43.4840 C   0  0  0  0  0  0  0  0  0  0  0  0
   55.7066   24.6567   43.2977 H   0  0  0  0  0  0  0  0  0  0  0  0
   56.1280   22.6040   42.7460 C   0  0  0  0  0  0  0  0  0  0  0  0
   55.3372   22.5702   41.9821 H   0  0  0  0  0  0  0  0  0  0  0  0
   56.9220   21.4790   42.9770 C   0  0  0  0  0  0  0  0  0  0  0  0
   56.7558   20.5594   42.3967 H   0  0  0  0  0  0  0  0  0  0  0  0
   57.9270   21.5220   43.9450 C   0  0  0  0  0  0  0  0  0  0  0  0
   58.5529   20.6356   44.1257 H   0  0  0  0  0  0  0  0  0  0  0  0
   58.1400   22.6880   44.6850 C   0  0  0  0  0  0  0  0  0  0  0  0
   58.9339   22.7148   45.4460 H   0  0  0  0  0  0  0  0  0  0  0  0
   58.8530   25.4340   45.6780 C   0  0  0  0  0  0  0  0  0  0  0  0
   59.7142   24.7948   45.4336 H   0  0  0  0  0  0  0  0  0  0  0  0
   59.0420   26.6050   46.4130 C   0  0  0  0  0  0  0  0  0  0  0  0
   60.0494   26.8876   46.7524 H   0  0  0  0  0  0  0  0  0  0  0  0
   60.3620   32.1860   47.2850 C   0  0  0  0  0  0  0  0  0  0  0  0
   61.2150   31.5920   48.0020 O   0  0  0  0  0  0  0  0  0  0  0  0
   62.9920   33.2720   48.2030 N   0  0  0  0  0  0  0  0  0  0  0  0
   62.7870   32.9390   47.2350 H   0  0  0  0  0  0  0  0  0  0  0  0
   64.2100   32.9760   48.7280 C   0  0  0  0  0  0  0  0  0  0  0  0
   64.9242   32.3718   48.1493 H   0  0  0  0  0  0  0  0  0  0  0  0
   64.5570   33.4350   49.9960 C   0  0  0  0  0  0  0  0  0  0  0  0
   65.5381   33.1958   50.4323 H   0  0  0  0  0  0  0  0  0  0  0  0
  1  2  1  0
  2  3  2  0
  3  4  1  0
  4  5  2  0
  5  6  1  0
  6  7  2  0
  7  8  1  0
  7  9  1  0
  9 10  1  0
  9 11  2  0
 11 12  1  0
 12 13  2  0
 13 14  1  0
 13 15  1  0
 15 16  1  0
 15 17  2  0
 17 18  1  0
 17 19  1  0
 19 20  1  0
 19 21  2  0
 21 22  1  0
 11 23  1  0
 23 24  1  0
 24 25  1  0
 24 26  1  0
 24 27  1  0
 27 28  2  0
 27 29  1  0
 29 30  2  3
 30 31  1  0
 31 32  1  0
 32 33  1  0
 32 34  2  0
 34 35  1  0
 35 36  2  0
 36 37  1  0
 36 38  1  0
 38 39  1  0
 38 40  2  0
 40 41  1  0
 40 42  1  0
 42 43  1  0
 42 44  2  0
 44 45  1  0
 34 46  1  0
 46 47  1  0
 46 48  2  0
 48 49  1  0
 23 50  1  0
 50 51  2  0
  4 52  1  0
 52 53  1  0
 52 54  1  0
 54 55  1  0
 54 56  2  0
 56 57  1  0
 56  2  1  0
 50  6  1  0
 21 12  1  0
 48 30  1  0
 44 35  1  0
M  CHG  1  31  -1
M  END
>  <UniqueID>  (8) 
8

>  <SMILES>  (8) 
O=C(Cn1c(-c2ccccc2)ccc(/N=c2/nccc[nH]2)c1=O)N=c1ccc(-c2ccccc2)c[n-]1

>  <Energy>  (8) 
98.29019309992505

>  <Genealogy>  (8) 
O=C(Cn1c(-c2ccccc2)ccc(N=c2nccc[nH]2)c1=O)N=c1ccc(-c2ccccc2)c[n-]1 (protonated)
O=C(Cn1c(-c2ccccc2)ccc(/N=c2/nccc[nH]2)c1=O)N=c1ccc(-c2ccccc2)c[n-]1 (cis-trans isomerization)
O=C(Cn1c(-c2ccccc2)ccc(/N=c2/nccc[nH]2)c1=O)N=c1ccc(-c2ccccc2)c[n-]1 (3D coordinates assigned)
O=C(Cn1c(-c2ccccc2)ccc(/N=c2/nccc[nH]2)c1=O)N=c1ccc(-c2ccccc2)c[n-]1 (optimized conformer: 98.29019309992505 kcal/mol)

>  <smiles>  (8) 
O=C(Cn1c(-c2ccccc2)ccc(N=c2nccc[nH]2)c1=O)N=c1ccc(-c2ccccc2)c[nH]1

>  <score_type>  (8) 
oracle

>  <origin>  (8) 
adg

>  <m_score__min__energy>  (8) 
-10.869999999999999

>  <m_primary>  (8) 
energy

$$$$
8:0
     RDKit          3D

 46 49  0  0  0  0  0  0  0  0999 V2000
   56.4780   29.5820   44.6430 C   0  0  0  0  0  0  0  0  0  0  0  0
   57.7020   29.2090   45.0480 C   0  0  0  0  0  0  0  0  0  0  0  0
   58.2870   27.9340   44.9460 C   0  0  0  0  0  0  0  0  0  0  0  0
   57.7650   26.7480   44.5790 C   0  0  0  0  0  0  0  0  0  0  0  0
   57.2630   25.7130   45.4910 C   0  0  0  0  0  0  0  0  0  0  0  0
   58.1800   24.4200   46.0650 S   0  0  0  0  0  0  0  0  0  0  0  0
   56.9640   23.9060   47.1080 C   0  0  0  0  0  0  0  0  0  0  0  0
   57.0490   22.9010   47.8610 O   0  0  0  0  0  0  0  0  0  0  0  0
   55.8790   24.7070   47.0580 N   0  0  0  0  0  0  0  0  0  0  0  0
   56.0470   25.7260   46.1770 C   0  0  0  0  0  0  0  0  0  0  0  0
   55.0820   26.7110   46.0000 O   0  0  0  0  0  0  0  0  0  0  0  0
   59.6180   28.0890   45.3000 C   0  0  0  0  0  0  0  0  0  0  0  0
   59.7870   29.4100   45.6580 C   0  0  0  0  0  0  0  0  0  0  0  0
   61.0880   30.0210   46.0790 C   0  0  0  0  0  0  0  0  0  0  0  0
   58.6310   30.0910   45.4960 N   0  0  0  0  0  0  0  0  0  0  0  0
   58.4640   31.5080   45.6830 C   0  0  0  0  0  0  0  0  0  0  0  0
   58.0480   32.2860   44.5940 C   0  0  0  0  0  0  0  0  0  0  0  0
   57.7980   33.6510   44.7540 C   0  0  0  0  0  0  0  0  0  0  0  0
   57.9570   34.2470   46.0050 C   0  0  0  0  0  0  0  0  0  0  0  0
   58.3790   33.4850   47.0980 C   0  0  0  0  0  0  0  0  0  0  0  0
   58.6520   32.1130   46.9510 C   0  0  0  0  0  0  0  0  0  0  0  0
   59.1390   31.3420   48.1190 C   0  0  0  0  0  0  0  0  0  0  0  0
   58.5060   30.3220   48.5040 O   0  0  0  0  0  0  0  0  0  0  0  0
   60.2670   31.8180   48.8680 N   0  0  0  0  0  0  0  0  0  0  0  0
   61.3850   32.3130   48.4150 C   0  0  0  0  0  0  0  0  0  0  0  0
   62.6500   31.8220   48.8000 C   0  0  0  0  0  0  0  0  0  0  0  0
   63.8010   32.3760   48.2350 C   0  0  0  0  0  0  0  0  0  0  0  0
   63.6930   33.3990   47.2940 C   0  0  0  0  0  0  0  0  0  0  0  0
   62.4270   33.8530   46.9230 C   0  0  0  0  0  0  0  0  0  0  0  0
   61.3170   33.3040   47.4840 N   0  0  0  0  0  0  0  0  0  0  0  0
   56.1444   30.6205   44.7851 H   0  0  0  0  0  0  0  0  0  0  0  0
   55.8084   28.8492   44.1690 H   0  0  0  0  0  0  0  0  0  0  0  0
   57.7100   26.5362   43.5010 H   0  0  0  0  0  0  0  0  0  0  0  0
   55.0240   24.5730   47.6430 H   0  0  0  0  0  0  0  0  0  0  0  0
   60.3920   27.3074   45.2961 H   0  0  0  0  0  0  0  0  0  0  0  0
   61.1426   30.0467   47.1773 H   0  0  0  0  0  0  0  0  0  0  0  0
   61.9202   29.4196   45.6844 H   0  0  0  0  0  0  0  0  0  0  0  0
   61.1566   31.0455   45.6844 H   0  0  0  0  0  0  0  0  0  0  0  0
   57.9175   31.8187   43.6068 H   0  0  0  0  0  0  0  0  0  0  0  0
   57.4758   34.2558   43.8935 H   0  0  0  0  0  0  0  0  0  0  0  0
   57.7497   35.3198   46.1317 H   0  0  0  0  0  0  0  0  0  0  0  0
   58.4987   33.9624   48.0818 H   0  0  0  0  0  0  0  0  0  0  0  0
   62.7293   31.0104   49.5383 H   0  0  0  0  0  0  0  0  0  0  0  0
   64.7929   32.0051   48.5326 H   0  0  0  0  0  0  0  0  0  0  0  0
   64.5957   33.8431   46.8491 H   0  0  0  0  0  0  0  0  0  0  0  0
   62.3270   34.6550   46.1768 H   0  0  0  0  0  0  0  0  0  0  0  0
  1  2  2  0
  2  3  1  0
  3  4  2  3
  4  5  1  0
  5  6  1  0
  6  7  1  0
  7  8  2  0
  7  9  1  0
  9 10  1  0
 10 11  1  0
  3 12  1  0
 12 13  2  0
 13 14  1  0
 13 15  1  0
 15 16  1  0
 16 17  2  0
 17 18  1  0
 18 19  2  0
 19 20  1  0
 20 21  2  0
 21 22  1  0
 22 23  2  0
 22 24  1  0
 24 25  2  3
 25 26  1  0
 26 27  2  0
 27 28  1  0
 28 29  2  0
 29 30  1  0
 15  2  1  0
 21 16  1  0
 30 25  1  0
 10  5  2  0
  1 31  1  0
  1 32  1  0
  4 33  1  0
  9 34  1  0
 12 35  1  0
 14 36  1  0
 14 37  1  0
 14 38  1  0
 17 39  1  0
 18 40  1  0
 19 41  1  0
 20 42  1  0
 26 43  1  0
 27 44  1  0
 28 45  1  0
 29 46  1  0
M  CHG  2  11  -1  30  -1
M  END
>  <UniqueID>  (9) 
9

>  <SMILES>  (9) 
C=c1c(=Cc2sc(=O)[nH]c2[O-])cc(C)n1-c1ccccc1C(=O)N=c1cccc[n-]1

>  <Energy>  (9) 
136.34120100061222

>  <Genealogy>  (9) 
C=c1c(=Cc2sc(=O)[nH]c2[O-])cc(C)n1-c1ccccc1C(=O)N=c1cccc[n-]1 (protonated)
C=c1c(=Cc2sc(=O)[nH]c2[O-])cc(C)n1-c1ccccc1C(=O)N=c1cccc[n-]1 (3D coordinates assigned)
C=c1c(=Cc2sc(=O)[nH]c2[O-])cc(C)n1-c1ccccc1C(=O)N=c1cccc[n-]1 (optimized conformer: 136.34120100061222 kcal/mol)

>  <smiles>  (9) 
C=c1c(=Cc2sc(=O)[nH]c2O)cc(C)n1-c1ccccc1C(=O)N=c1cccc[nH]1

>  <score_type>  (9) 
oracle

>  <origin>  (9) 
adg

>  <m_score__min__energy>  (9) 
-14.85

>  <m_primary>  (9) 
energy

$$$$
9:0
     RDKit          3D

 44 45  0  0  0  0  0  0  0  0999 V2000
   58.1190   24.4820   45.6350 C   0  0  0  0  0  0  0  0  0  0  0  0
   57.5790   25.4560   46.3720 C   0  0  0  0  0  0  0  0  0  0  0  0
   56.7190   26.5260   45.7680 C   0  0  0  0  0  0  0  0  0  0  0  0
   57.4900   27.8160   45.6370 C   0  0  0  0  0  0  0  0  0  0  0  0
   58.8560   27.8290   45.9430 C   0  0  0  0  0  0  0  0  0  0  0  0
   59.6110   28.9810   45.7530 C   0  0  0  0  0  0  0  0  0  0  0  0
   59.0100   30.1440   45.2730 C   0  0  0  0  0  0  0  0  0  0  0  0
   57.6190   30.1960   45.0360 C   0  0  0  0  0  0  0  0  0  0  0  0
   56.9510   31.4580   44.5030 C   0  0  0  0  0  0  0  0  0  0  0  0
   57.8660   32.5700   43.9490 C   0  0  0  0  0  0  0  0  0  0  0  0
   57.8670   33.8920   44.7460 C   0  0  0  0  0  0  0  0  0  0  0  0
   57.6530   33.7180   46.2600 C   0  0  0  0  0  0  0  0  0  0  0  0
   58.9230   33.3730   46.9930 C   0  0  0  0  0  0  0  0  0  0  0  0
   58.8840   32.7950   48.2650 C   0  0  0  0  0  0  0  0  0  0  0  0
   60.0780   32.5410   48.9310 C   0  0  0  0  0  0  0  0  0  0  0  0
   61.2860   32.8760   48.3210 C   0  0  0  0  0  0  0  0  0  0  0  0
   62.3690   32.6810   48.9370 O   0  0  0  0  0  0  0  0  0  0  0  0
   61.2830   33.4250   47.0660 N   0  0  0  0  0  0  0  0  0  0  0  0
   62.5320   33.7920   46.4000 C   0  0  0  0  0  0  0  0  0  0  0  0
   60.1290   33.6800   46.4440 N   0  0  0  0  0  0  0  0  0  0  0  0
   56.8610   29.0020   45.1980 C   0  0  0  0  0  0  0  0  0  0  0  0
   55.4930   28.9550   44.9060 O   0  0  0  0  0  0  0  0  0  0  0  0
   58.7448   23.7136   46.1124 H   0  0  0  0  0  0  0  0  0  0  0  0
   57.9380   24.4481   44.5505 H   0  0  0  0  0  0  0  0  0  0  0  0
   57.7708   25.4740   47.4550 H   0  0  0  0  0  0  0  0  0  0  0  0
   56.3850   26.2017   44.7714 H   0  0  0  0  0  0  0  0  0  0  0  0
   55.8520   26.6961   46.4232 H   0  0  0  0  0  0  0  0  0  0  0  0
   59.3357   26.9208   46.3368 H   0  0  0  0  0  0  0  0  0  0  0  0
   60.6868   28.9749   45.9823 H   0  0  0  0  0  0  0  0  0  0  0  0
   59.6277   31.0327   45.0764 H   0  0  0  0  0  0  0  0  0  0  0  0
   56.2735   31.1543   43.6914 H   0  0  0  0  0  0  0  0  0  0  0  0
   56.4633   31.9082   45.3802 H   0  0  0  0  0  0  0  0  0  0  0  0
   58.8959   32.1839   43.9327 H   0  0  0  0  0  0  0  0  0  0  0  0
   57.4684   32.8189   42.9540 H   0  0  0  0  0  0  0  0  0  0  0  0
   58.8363   34.3879   44.5897 H   0  0  0  0  0  0  0  0  0  0  0  0
   57.0188   34.4853   44.3738 H   0  0  0  0  0  0  0  0  0  0  0  0
   57.2554   34.6585   46.6692 H   0  0  0  0  0  0  0  0  0  0  0  0
   56.9514   32.8827   46.4016 H   0  0  0  0  0  0  0  0  0  0  0  0
   57.9208   32.5442   48.7334 H   0  0  0  0  0  0  0  0  0  0  0  0
   60.0694   32.0801   49.9297 H   0  0  0  0  0  0  0  0  0  0  0  0
   63.2984   34.0172   47.1563 H   0  0  0  0  0  0  0  0  0  0  0  0
   62.8718   32.9557   45.7714 H   0  0  0  0  0  0  0  0  0  0  0  0
   62.3654   34.6792   45.7714 H   0  0  0  0  0  0  0  0  0  0  0  0
   54.7640   28.9730   45.6060 H   0  0  0  0  0  0  0  0  0  0  0  0
  1  2  2  0
  2  3  1  0
  3  4  1  0
  4  5  2  0
  5  6  1  0
  6  7  2  0
  7  8  1  0
  8  9  1  0
  9 10  1  0
 10 11  1  0
 11 12  1  0
 12 13  1  0
 13 14  1  0
 14 15  2  0
 15 16  1  0
 16 17  2  0
 16 18  1  0
 18 19  1  0
 18 20  1  0
  8 21  2  0
 21 22  1  0
 21  4  1  0
 20 13  2  0
  1 23  1  0
  1 24  1  0
  2 25  1  0
  3 26  1  0
  3 27  1  0
  5 28  1  0
  6 29  1  0
  7 30  1  0
  9 31  1  0
  9 32  1  0
 10 33  1  0
 10 34  1  0
 11 35  1  0
 11 36  1  0
 12 37  1  0
 12 38  1  0
 14 39  1  0
 15 40  1  0
 19 41  1  0
 19 42  1  0
 19 43  1  0
 22 44  1  0
M  END
>  <UniqueID>  (10) 
10

>  <SMILES>  (10) 
C=CCc1cccc(CCCCc2ccc(=O)n(C)n2)c1O

>  <Energy>  (10) 
40.7794771420864

>  <Genealogy>  (10) 
C=CCc1cccc(CCCCc2ccc(=O)n(C)n2)c1O (3D coordinates assigned)
C=CCc1cccc(CCCCc2ccc(=O)n(C)n2)c1O (optimized conformer: 40.7794771420864 kcal/mol)

>  <smiles>  (10) 
C=CCc1cccc(CCCCc2ccc(=O)n(C)n2)c1O

>  <score_type>  (10) 
oracle

>  <origin>  (10) 
adg

>  <m_score__min__energy>  (10) 
-8.3200000000000003

>  <m_primary>  (10) 
energy

$$$$
10:0
     RDKit          3D

 29 30  0  0  0  0  0  0  0  0999 V2000
   56.7696   31.9441   43.1793 H   0  0  0  0  0  0  0  0  0  0  0  0
   57.5700   31.1970   43.2850 C   0  0  0  0  0  0  0  0  0  0  0  0
   58.5549   31.3781   42.8299 H   0  0  0  0  0  0  0  0  0  0  0  0
   57.3450   30.0650   43.9690 C   0  0  0  0  0  0  0  0  0  0  0  0
   56.0940   29.8010   44.5610 C   0  0  0  0  0  0  0  0  0  0  0  0
   55.1370   30.6190   44.4700 O   0  0  0  0  0  0  0  0  0  0  0  0
   55.9120   28.6430   45.2440 N   0  0  0  0  0  0  0  0  0  0  0  0
   56.9000   27.7170   45.3860 C   0  0  0  0  0  0  0  0  0  0  0  0
   56.6660   26.5710   46.0570 C   0  0  0  0  0  0  0  0  0  0  0  0
   56.5943   26.6230   47.1534 H   0  0  0  0  0  0  0  0  0  0  0  0
   56.4990   25.2450   45.4140 C   0  0  0  0  0  0  0  0  0  0  0  0
   57.4600   24.7260   44.5290 C   0  0  0  0  0  0  0  0  0  0  0  0
   58.3753   25.2981   44.3170 H   0  0  0  0  0  0  0  0  0  0  0  0
   57.2570   23.4870   43.9180 C   0  0  0  0  0  0  0  0  0  0  0  0
   58.0199   23.0802   43.2379 H   0  0  0  0  0  0  0  0  0  0  0  0
   56.0880   22.7610   44.1670 C   0  0  0  0  0  0  0  0  0  0  0  0
   55.9020   21.5280   43.5520 O   0  0  0  0  0  0  0  0  0  0  0  0
   55.1070   23.2740   45.0250 C   0  0  0  0  0  0  0  0  0  0  0  0
   53.9440   22.5180   45.2400 O   0  0  0  0  0  0  0  0  0  0  0  0
   52.8180   22.9660   45.9870 C   0  0  0  0  0  0  0  0  0  0  0  0
   53.0336   22.8802   47.0622 H   0  0  0  0  0  0  0  0  0  0  0  0
   52.6072   24.0165   45.7380 H   0  0  0  0  0  0  0  0  0  0  0  0
   51.9431   22.3475   45.7380 H   0  0  0  0  0  0  0  0  0  0  0  0
   55.3150   24.5250   45.6390 C   0  0  0  0  0  0  0  0  0  0  0  0
   54.5419   24.9417   46.3013 H   0  0  0  0  0  0  0  0  0  0  0  0
   58.1510   27.9780   44.7870 C   0  0  0  0  0  0  0  0  0  0  0  0
   59.1010   27.1520   44.8790 O   0  0  0  0  0  0  0  0  0  0  0  0
   58.3400   29.1390   44.0990 N   0  0  0  0  0  0  0  0  0  0  0  0
   59.2770   29.3130   43.6650 H   0  0  0  0  0  0  0  0  0  0  0  0
  1  2  1  0
  2  3  1  0
  2  4  2  0
  4  5  1  0
  5  6  2  0
  5  7  1  0
  7  8  1  0
  8  9  2  0
  9 10  1  0
  9 11  1  0
 11 12  2  0
 12 13  1  0
 12 14  1  0
 14 15  1  0
 14 16  2  0
 16 17  1  0
 16 18  1  0
 18 19  1  0
 19 20  1  0
 20 21  1  0
 20 22  1  0
 20 23  1  0
 18 24  2  0
 24 25  1  0
  8 26  1  0
 26 27  2  0
 26 28  1  0
 28 29  1  0
 28  4  1  0
 24 11  1  0
M  CHG  2   7  -1  17  -1
M  END
>  <UniqueID>  (11) 
11

>  <SMILES>  (11) 
C=c1[nH]c(=O)/c(=C/c2ccc([O-])c(OC)c2)[n-]c1=O

>  <Energy>  (11) 
40.39000882337213

>  <Genealogy>  (11) 
C=c1[nH]c(=O)c(=Cc2ccc([O-])c(OC)c2)[n-]c1=O (protonated)
C=c1[nH]c(=O)/c(=C/c2ccc([O-])c(OC)c2)[n-]c1=O (cis-trans isomerization)
C=c1[nH]c(=O)/c(=C/c2ccc([O-])c(OC)c2)[n-]c1=O (3D coordinates assigned)
C=c1[nH]c(=O)/c(=C/c2ccc([O-])c(OC)c2)[n-]c1=O (optimized conformer: 40.39000882337213 kcal/mol)

>  <smiles>  (11) 
C=c1[nH]c(=O)c(=Cc2ccc(O)c(OC)c2)[nH]c1=O

>  <score_type>  (11) 
oracle

>  <origin>  (11) 
adg

>  <m_score__min__energy>  (11) 
-10.369999999999999

>  <m_primary>  (11) 
energy

$$$$
11:0
     RDKit          3D

 60 64  0  0  0  0  0  0  0  0999 V2000
   56.5000   29.3270   44.4460 C   0  0  0  0  0  0  0  0  0  0  0  0
   57.7000   28.9710   44.9350 C   0  0  0  0  0  0  0  0  0  0  0  0
   58.2260   27.6710   45.0330 C   0  0  0  0  0  0  0  0  0  0  0  0
   57.6630   26.4650   44.8280 C   0  0  0  0  0  0  0  0  0  0  0  0
   57.1850   25.5490   45.8740 C   0  0  0  0  0  0  0  0  0  0  0  0
   57.8920   24.5170   46.3700 N   0  0  0  0  0  0  0  0  0  0  0  0
   57.0070   23.8950   47.1790 C   0  0  0  0  0  0  0  0  0  0  0  0
   57.3060   22.8730   47.8500 O   0  0  0  0  0  0  0  0  0  0  0  0
   55.7750   24.4470   47.2050 N   0  0  0  0  0  0  0  0  0  0  0  0
   55.9020   25.4850   46.3590 C   0  0  0  0  0  0  0  0  0  0  0  0
   54.8660   26.3530   46.0330 O   0  0  0  0  0  0  0  0  0  0  0  0
   59.5500   27.8190   45.4160 C   0  0  0  0  0  0  0  0  0  0  0  0
   59.7690   29.1670   45.5970 C   0  0  0  0  0  0  0  0  0  0  0  0
   61.0610   29.7510   46.0850 C   0  0  0  0  0  0  0  0  0  0  0  0
   58.6590   29.8710   45.2750 N   0  0  0  0  0  0  0  0  0  0  0  0
   58.5260   31.3060   45.2980 C   0  0  0  0  0  0  0  0  0  0  0  0
   58.0950   31.9650   44.1350 C   0  0  0  0  0  0  0  0  0  0  0  0
   57.9140   33.3500   44.1290 C   0  0  0  0  0  0  0  0  0  0  0  0
   58.1500   34.0900   45.2870 C   0  0  0  0  0  0  0  0  0  0  0  0
   58.5750   33.4490   46.4530 C   0  0  0  0  0  0  0  0  0  0  0  0
   58.7830   32.0600   46.4720 C   0  0  0  0  0  0  0  0  0  0  0  0
   59.2220   31.4290   47.7370 C   0  0  0  0  0  0  0  0  0  0  0  0
   58.5200   30.4980   48.2180 O   0  0  0  0  0  0  0  0  0  0  0  0
   60.4060   31.8620   48.4380 N   0  0  0  0  0  0  0  0  0  0  0  0
   61.1740   30.8730   49.2140 C   0  0  0  0  0  0  0  0  0  0  0  0
   61.9860   31.5300   50.3320 C   0  0  0  0  0  0  0  0  0  0  0  0
   62.7570   32.6630   49.8070 N   0  0  0  0  0  0  0  0  0  0  0  0
   64.0780   32.9450   50.3180 C   0  0  0  0  0  0  0  0  0  0  0  0
   65.2050   32.2880   49.7880 C   0  0  0  0  0  0  0  0  0  0  0  0
   66.4820   32.5600   50.2880 C   0  0  0  0  0  0  0  0  0  0  0  0
   66.6500   33.4870   51.3180 C   0  0  0  0  0  0  0  0  0  0  0  0
   65.5400   34.1450   51.8530 C   0  0  0  0  0  0  0  0  0  0  0  0
   64.2600   33.8770   51.3580 C   0  0  0  0  0  0  0  0  0  0  0  0
   62.1420   33.5850   48.8430 C   0  0  0  0  0  0  0  0  0  0  0  0
   60.6490   33.2980   48.6320 C   0  0  0  0  0  0  0  0  0  0  0  0
   56.2069   30.3870   44.4255 H   0  0  0  0  0  0  0  0  0  0  0  0
   55.8108   28.5584   44.0662 H   0  0  0  0  0  0  0  0  0  0  0  0
   57.5507   26.1357   43.7845 H   0  0  0  0  0  0  0  0  0  0  0  0
   54.2570   26.7220   46.7520 H   0  0  0  0  0  0  0  0  0  0  0  0
   60.2863   27.0128   45.5500 H   0  0  0  0  0  0  0  0  0  0  0  0
   61.0694   29.7548   47.1850 H   0  0  0  0  0  0  0  0  0  0  0  0
   61.9006   29.1449   45.7140 H   0  0  0  0  0  0  0  0  0  0  0  0
   61.1608   30.7817   45.7140 H   0  0  0  0  0  0  0  0  0  0  0  0
   57.8983   31.3854   43.2210 H   0  0  0  0  0  0  0  0  0  0  0  0
   57.5850   33.8573   43.2101 H   0  0  0  0  0  0  0  0  0  0  0  0
   58.0013   35.1799   45.2823 H   0  0  0  0  0  0  0  0  0  0  0  0
   58.7486   34.0380   47.3657 H   0  0  0  0  0  0  0  0  0  0  0  0
   60.4747   30.1504   49.6600 H   0  0  0  0  0  0  0  0  0  0  0  0
   61.8769   30.3748   48.5301 H   0  0  0  0  0  0  0  0  0  0  0  0
   61.3011   31.8892   51.1142 H   0  0  0  0  0  0  0  0  0  0  0  0
   62.6822   30.7882   50.7503 H   0  0  0  0  0  0  0  0  0  0  0  0
   65.0800   31.5566   48.9760 H   0  0  0  0  0  0  0  0  0  0  0  0
   67.3570   32.0419   49.8684 H   0  0  0  0  0  0  0  0  0  0  0  0
   67.6563   33.6993   51.7083 H   0  0  0  0  0  0  0  0  0  0  0  0
   65.6731   34.8751   52.6649 H   0  0  0  0  0  0  0  0  0  0  0  0
   63.3895   34.3976   51.7837 H   0  0  0  0  0  0  0  0  0  0  0  0
   62.2550   34.6136   49.2160 H   0  0  0  0  0  0  0  0  0  0  0  0
   62.6502   33.4493   47.8769 H   0  0  0  0  0  0  0  0  0  0  0  0
   60.0895   33.6405   49.5150 H   0  0  0  0  0  0  0  0  0  0  0  0
   60.3157   33.8325   47.7302 H   0  0  0  0  0  0  0  0  0  0  0  0
  1  2  2  0
  2  3  1  0
  3  4  2  3
  4  5  1  0
  5  6  1  0
  6  7  1  0
  7  8  2  0
  7  9  1  0
  9 10  1  0
 10 11  1  0
  3 12  1  0
 12 13  2  0
 13 14  1  0
 13 15  1  0
 15 16  1  0
 16 17  2  0
 17 18  1  0
 18 19  2  0
 19 20  1  0
 20 21  2  0
 21 22  1  0
 22 23  2  0
 22 24  1  0
 24 25  1  0
 25 26  1  0
 26 27  1  0
 27 28  1  0
 28 29  2  0
 29 30  1  0
 30 31  2  0
 31 32  1  0
 32 33  2  0
 27 34  1  0
 34 35  1  0
 15  2  1  0
 21 16  1  0
 35 24  1  0
 10  5  2  0
 33 28  1  0
  1 36  1  0
  1 37  1  0
  4 38  1  0
 11 39  1  0
 12 40  1  0
 14 41  1  0
 14 42  1  0
 14 43  1  0
 17 44  1  0
 18 45  1  0
 19 46  1  0
 20 47  1  0
 25 48  1  0
 25 49  1  0
 26 50  1  0
 26 51  1  0
 29 52  1  0
 30 53  1  0
 31 54  1  0
 32 55  1  0
 33 56  1  0
 34 57  1  0
 34 58  1  0
 35 59  1  0
 35 60  1  0
M  CHG  2   6  -1   9  -1
M  END
>  <UniqueID>  (12) 
12

>  <SMILES>  (12) 
C=c1c(=Cc2[n-]c(=O)[n-]c2O)cc(C)n1-c1ccccc1C(=O)N1CCN(c2ccccc2)CC1

>  <Energy>  (12) 
145.67026527715822

>  <Genealogy>  (12) 
C=c1c(=Cc2[n-]c(=O)[n-]c2O)cc(C)n1-c1ccccc1C(=O)N1CCN(c2ccccc2)CC1 (protonated)
C=c1c(=Cc2[n-]c(=O)[n-]c2O)cc(C)n1-c1ccccc1C(=O)N1CCN(c2ccccc2)CC1 (3D coordinates assigned)
C=c1c(=Cc2[n-]c(=O)[n-]c2O)cc(C)n1-c1ccccc1C(=O)N1CCN(c2ccccc2)CC1 (nonaromatic ring conformer: 145.67026527715822 kcal/mol)

>  <smiles>  (12) 
C=c1c(=Cc2[nH]c(=O)[nH]c2O)cc(C)n1-c1ccccc1C(=O)N1CCN(c2ccccc2)CC1

>  <score_type>  (12) 
oracle

>  <origin>  (12) 
adg

>  <m_score__min__energy>  (12) 
-14.970000000000001

>  <m_primary>  (12) 
energy

$$$$
12:0
     RDKit          3D

 51 54  0  0  0  0  0  0  0  0999 V2000
   58.8366   25.4360   47.5870 H   0  0  0  0  0  0  0  0  0  0  0  0
   58.1950   26.1370   47.0330 C   0  0  0  0  0  0  0  0  0  0  0  0
   58.6910   27.3810   46.6310 C   0  0  0  0  0  0  0  0  0  0  0  0
   60.0820   27.8050   46.9950 C   0  0  0  0  0  0  0  0  0  0  0  0
   60.6303   26.9439   47.4048 H   0  0  0  0  0  0  0  0  0  0  0  0
   60.5938   28.1780   46.0956 H   0  0  0  0  0  0  0  0  0  0  0  0
   60.0310   28.8930   48.0190 C   0  0  0  0  0  0  0  0  0  0  0  0
   58.8880   29.2290   48.6740 N   0  0  0  0  0  0  0  0  0  0  0  0
   59.2830   30.2630   49.4300 C   0  0  0  0  0  0  0  0  0  0  0  0
   58.5130   31.0120   50.3180 C   0  0  0  0  0  0  0  0  0  0  0  0
   57.4481   30.7877   50.4783 H   0  0  0  0  0  0  0  0  0  0  0  0
   59.1480   32.0670   51.0030 C   0  0  0  0  0  0  0  0  0  0  0  0
   58.1530   33.1350   52.2340 Br  0  0  0  0  0  0  0  0  0  0  0  0
   60.5180   32.3400   50.7810 C   0  0  0  0  0  0  0  0  0  0  0  0
   61.0049   33.1660   51.3201 H   0  0  0  0  0  0  0  0  0  0  0  0
   61.2630   31.5610   49.8740 C   0  0  0  0  0  0  0  0  0  0  0  0
   62.3285   31.7632   49.6903 H   0  0  0  0  0  0  0  0  0  0  0  0
   60.6010   30.5250   49.2180 C   0  0  0  0  0  0  0  0  0  0  0  0
   61.1050   29.6720   48.3160 N   0  0  0  0  0  0  0  0  0  0  0  0
   57.8850   28.2370   45.9470 N   0  0  0  0  0  0  0  0  0  0  0  0
   56.6030   27.9330   45.6070 C   0  0  0  0  0  0  0  0  0  0  0  0
   55.9260   28.8240   44.9360 N   0  0  0  0  0  0  0  0  0  0  0  0
   56.4120   29.7650   43.9690 C   0  0  0  0  0  0  0  0  0  0  0  0
   55.9060   29.7780   42.8160 O   0  0  0  0  0  0  0  0  0  0  0  0
   57.3750   30.8420   44.3670 C   0  0  0  0  0  0  0  0  0  0  0  0
   58.0634   30.4518   45.1311 H   0  0  0  0  0  0  0  0  0  0  0  0
   57.9451   31.1635   43.4829 H   0  0  0  0  0  0  0  0  0  0  0  0
   56.6470   31.9810   44.9090 N   0  0  0  0  0  0  0  0  0  0  0  0
   57.2940   33.1700   45.3720 C   0  0  0  0  0  0  0  0  0  0  0  0
   57.2640   34.2210   44.6760 O   0  0  0  0  0  0  0  0  0  0  0  0
   58.0190   33.1630   46.6920 C   0  0  0  0  0  0  0  0  0  0  0  0
   57.3204   32.8637   47.4873 H   0  0  0  0  0  0  0  0  0  0  0  0
   58.5150   34.5890   47.0350 C   0  0  0  0  0  0  0  0  0  0  0  0
   58.8526   35.0831   46.1120 H   0  0  0  0  0  0  0  0  0  0  0  0
   57.6838   35.1462   47.4918 H   0  0  0  0  0  0  0  0  0  0  0  0
   59.6770   34.5470   48.0330 C   0  0  0  0  0  0  0  0  0  0  0  0
   59.9724   35.5773   48.2803 H   0  0  0  0  0  0  0  0  0  0  0  0
   59.3397   34.0084   48.9309 H   0  0  0  0  0  0  0  0  0  0  0  0
   60.8970   33.8020   47.4540 C   0  0  0  0  0  0  0  0  0  0  0  0
   61.5592   34.5385   46.9753 H   0  0  0  0  0  0  0  0  0  0  0  0
   61.3852   33.2826   48.2918 H   0  0  0  0  0  0  0  0  0  0  0  0
   60.5270   32.7290   46.4110 C   0  0  0  0  0  0  0  0  0  0  0  0
   60.5050   33.1936   45.4142 H   0  0  0  0  0  0  0  0  0  0  0  0
   61.2826   31.9309   46.4577 H   0  0  0  0  0  0  0  0  0  0  0  0
   59.1560   32.1060   46.6990 C   0  0  0  0  0  0  0  0  0  0  0  0
   58.9416   31.3499   45.9294 H   0  0  0  0  0  0  0  0  0  0  0  0
   59.1932   31.6563   47.7022 H   0  0  0  0  0  0  0  0  0  0  0  0
   56.0650   26.6880   46.0240 C   0  0  0  0  0  0  0  0  0  0  0  0
   54.7390   26.3370   45.8030 O   0  0  0  0  0  0  0  0  0  0  0  0
   56.8800   25.7940   46.7250 C   0  0  0  0  0  0  0  0  0  0  0  0
   56.4817   24.8164   47.0345 H   0  0  0  0  0  0  0  0  0  0  0  0
  1  2  1  0
  2  3  2  0
  3  4  1  0
  4  5  1  0
  4  6  1  0
  4  7  1  0
  7  8  2  0
  8  9  1  0
  9 10  2  0
 10 11  1  0
 10 12  1  0
 12 13  1  0
 12 14  2  0
 14 15  1  0
 14 16  1  0
 16 17  1  0
 16 18  2  0
 18 19  1  0
  3 20  1  0
 20 21  1  0
 21 22  2  0
 22 23  1  0
 23 24  2  0
 23 25  1  0
 25 26  1  0
 25 27  1  0
 25 28  1  0
 28 29  1  0
 29 30  2  0
 29 31  1  0
 31 32  1  0
 31 33  1  0
 33 34  1  0
 33 35  1  0
 33 36  1  0
 36 37  1  0
 36 38  1  0
 36 39  1  0
 39 40  1  0
 39 41  1  0
 39 42  1  0
 42 43  1  0
 42 44  1  0
 42 45  1  0
 45 46  1  0
 45 47  1  0
 21 48  1  0
 48 49  1  0
 48 50  2  0
 50 51  1  0
 50  2  1  0
 19  7  1  0
 45 31  1  0
 18  9  1  0
M  CHG  4  19  -1  20  -1  28  -1  49  -1
M  END
>  <UniqueID>  (13) 
13

>  <SMILES>  (13) 
O=C(C[N-]C(=O)C1CCCCC1)/N=c1/[n-]c(Cc2nc3cc(Br)ccc3[n-]2)ccc1[O-]

>  <Energy>  (13) 
97.63769730415584

>  <Genealogy>  (13) 
O=C(C[N-]C(=O)C1CCCCC1)N=c1[n-]c(Cc2nc3cc(Br)ccc3[n-]2)ccc1[O-] (protonated)
O=C(C[N-]C(=O)C1CCCCC1)/N=c1/[n-]c(Cc2nc3cc(Br)ccc3[n-]2)ccc1[O-] (cis-trans isomerization)
O=C(C[N-]C(=O)C1CCCCC1)/N=c1/[n-]c(Cc2nc3cc(Br)ccc3[n-]2)ccc1[O-] (3D coordinates assigned)
O=C(C[N-]C(=O)C1CCCCC1)/N=c1/[n-]c(Cc2nc3cc(Br)ccc3[n-]2)ccc1[O-] (nonaromatic ring conformer: 97.63769730415584 kcal/mol)

>  <smiles>  (13) 
O=C(CNC(=O)C1CCCCC1)N=c1[nH]c(Cc2nc3cc(Br)ccc3[nH]2)ccc1O

>  <score_type>  (13) 
oracle

>  <origin>  (13) 
adg

>  <m_score__min__energy>  (13) 
-17.100000000000001

>  <m_primary>  (13) 
energy

$$$$
13:0
     RDKit          3D

 66 69  0  0  0  0  0  0  0  0999 V2000
   60.3903   30.0579   44.2627 H   0  0  0  0  0  0  0  0  0  0  0  0
   59.8010   29.1740   44.5480 C   0  0  0  0  0  0  0  0  0  0  0  0
   59.5565   28.4097   43.7957 H   0  0  0  0  0  0  0  0  0  0  0  0
   59.3800   29.0280   45.8150 C   0  0  0  0  0  0  0  0  0  0  0  0
   58.6260   27.9560   46.3090 C   0  0  0  0  0  0  0  0  0  0  0  0
   58.1560   26.8990   45.6180 C   0  0  0  0  0  0  0  0  0  0  0  0
   58.3761   26.8488   44.5414 H   0  0  0  0  0  0  0  0  0  0  0  0
   57.3660   25.8060   46.2120 C   0  0  0  0  0  0  0  0  0  0  0  0
   57.9220   24.7380   46.8100 N   0  0  0  0  0  0  0  0  0  0  0  0
   56.8590   24.0560   47.2900 C   0  0  0  0  0  0  0  0  0  0  0  0
   56.9770   22.9710   47.9150 O   0  0  0  0  0  0  0  0  0  0  0  0
   55.6630   24.6370   47.0600 N   0  0  0  0  0  0  0  0  0  0  0  0
   56.0000   25.7510   46.3890 C   0  0  0  0  0  0  0  0  0  0  0  0
   55.0830   26.7180   45.9990 O   0  0  0  0  0  0  0  0  0  0  0  0
   58.4120   28.2170   47.6520 C   0  0  0  0  0  0  0  0  0  0  0  0
   57.8441   27.5939   48.3585 H   0  0  0  0  0  0  0  0  0  0  0  0
   59.0480   29.4090   47.9340 C   0  0  0  0  0  0  0  0  0  0  0  0
   59.0670   30.0460   49.2690 C   0  0  0  0  0  0  0  0  0  0  0  0
   58.4600   31.1380   49.4280 O   0  0  0  0  0  0  0  0  0  0  0  0
   59.7660   29.4460   50.3830 N   0  0  0  0  0  0  0  0  0  0  0  0
   59.5060   29.8830   51.7590 C   0  0  0  0  0  0  0  0  0  0  0  0
   58.6913   30.6221   51.7561 H   0  0  0  0  0  0  0  0  0  0  0  0
   59.2226   29.0079   52.3622 H   0  0  0  0  0  0  0  0  0  0  0  0
   60.7700   30.5230   52.3720 C   0  0  0  0  0  0  0  0  0  0  0  0
   60.7150   31.6113   52.2214 H   0  0  0  0  0  0  0  0  0  0  0  0
   60.7852   30.2441   53.4360 H   0  0  0  0  0  0  0  0  0  0  0  0
   62.0420   30.0320   51.7790 N   0  0  0  0  0  0  0  0  0  0  0  0
   62.5780   30.9740   50.7640 C   0  0  0  0  0  0  0  0  0  0  0  0
   63.5144   31.4061   51.1466 H   0  0  0  0  0  0  0  0  0  0  0  0
   62.7377   30.4033   49.8373 H   0  0  0  0  0  0  0  0  0  0  0  0
   61.6050   32.1230   50.4360 C   0  0  0  0  0  0  0  0  0  0  0  0
   60.6620   31.6905   50.0705 H   0  0  0  0  0  0  0  0  0  0  0  0
   61.4590   32.7046   51.3582 H   0  0  0  0  0  0  0  0  0  0  0  0
   62.1490   33.0810   49.3700 C   0  0  0  0  0  0  0  0  0  0  0  0
   61.3904   33.2229   48.5862 H   0  0  0  0  0  0  0  0  0  0  0  0
   62.3851   34.0475   49.8391 H   0  0  0  0  0  0  0  0  0  0  0  0
   63.3800   32.5190   48.7660 N   0  0  0  0  0  0  0  0  0  0  0  0
   63.3950   32.6990   47.3070 C   0  0  0  0  0  0  0  0  0  0  0  0
   63.4842   33.7696   47.0705 H   0  0  0  0  0  0  0  0  0  0  0  0
   64.2510   32.1565   46.8794 H   0  0  0  0  0  0  0  0  0  0  0  0
   62.4610   32.3056   46.8794 H   0  0  0  0  0  0  0  0  0  0  0  0
   64.5890   33.1110   49.3630 C   0  0  0  0  0  0  0  0  0  0  0  0
   64.5124   33.0735   50.4597 H   0  0  0  0  0  0  0  0  0  0  0  0
   65.4738   32.5442   49.0376 H   0  0  0  0  0  0  0  0  0  0  0  0
   64.6839   34.1575   49.0376 H   0  0  0  0  0  0  0  0  0  0  0  0
   61.9160   28.6360   51.2940 C   0  0  0  0  0  0  0  0  0  0  0  0
   62.8946   28.2980   50.9223 H   0  0  0  0  0  0  0  0  0  0  0  0
   61.5756   28.0110   52.1328 H   0  0  0  0  0  0  0  0  0  0  0  0
   60.8850   28.5190   50.1600 C   0  0  0  0  0  0  0  0  0  0  0  0
   61.3705   28.7613   49.2031 H   0  0  0  0  0  0  0  0  0  0  0  0
   60.4956   27.4904   50.1383 H   0  0  0  0  0  0  0  0  0  0  0  0
   59.6410   29.9070   46.8210 N   0  0  0  0  0  0  0  0  0  0  0  0
   60.4800   31.1180   46.7680 C   0  0  0  0  0  0  0  0  0  0  0  0
   60.9101   31.2977   47.7644 H   0  0  0  0  0  0  0  0  0  0  0  0
   61.2709   30.9551   46.0211 H   0  0  0  0  0  0  0  0  0  0  0  0
   59.6830   32.3310   46.3530 C   0  0  0  0  0  0  0  0  0  0  0  0
   60.2080   33.6280   46.4980 C   0  0  0  0  0  0  0  0  0  0  0  0
   61.2256   33.7659   46.8924 H   0  0  0  0  0  0  0  0  0  0  0  0
   59.4420   34.7430   46.1430 C   0  0  0  0  0  0  0  0  0  0  0  0
   59.8628   35.7538   46.2494 H   0  0  0  0  0  0  0  0  0  0  0  0
   58.1450   34.5770   45.6540 C   0  0  0  0  0  0  0  0  0  0  0  0
   57.5463   35.4559   45.3728 H   0  0  0  0  0  0  0  0  0  0  0  0
   57.6080   33.2950   45.5220 C   0  0  0  0  0  0  0  0  0  0  0  0
   56.5856   33.1645   45.1377 H   0  0  0  0  0  0  0  0  0  0  0  0
   58.3690   32.1760   45.8780 C   0  0  0  0  0  0  0  0  0  0  0  0
   57.9364   31.1689   45.7856 H   0  0  0  0  0  0  0  0  0  0  0  0
  1  2  1  0
  2  3  1  0
  2  4  2  0
  4  5  1  0
  5  6  2  0
  6  7  1  0
  6  8  1  0
  8  9  1  0
  9 10  1  0
 10 11  2  0
 10 12  1  0
 12 13  1  0
 13 14  1  0
  5 15  1  0
 15 16  1  0
 15 17  2  0
 17 18  1  0
 18 19  2  0
 18 20  1  0
 20 21  1  0
 21 22  1  0
 21 23  1  0
 21 24  1  0
 24 25  1  0
 24 26  1  0
 24 27  1  0
 27 28  1  0
 28 29  1  0
 28 30  1  0
 28 31  1  0
 31 32  1  0
 31 33  1  0
 31 34  1  0
 34 35  1  0
 34 36  1  0
 34 37  1  0
 37 38  1  0
 38 39  1  0
 38 40  1  0
 38 41  1  0
 37 42  1  0
 42 43  1  0
 42 44  1  0
 42 45  1  0
 27 46  1  0
 46 47  1  0
 46 48  1  0
 46 49  1  0
 49 50  1  0
 49 51  1  0
 17 52  1  0
 52 53  1  0
 53 54  1  0
 53 55  1  0
 53 56  1  0
 56 57  2  0
 57 58  1  0
 57 59  1  0
 59 60  1  0
 59 61  2  0
 61 62  1  0
 61 63  1  0
 63 64  1  0
 63 65  2  0
 65 66  1  0
 52  4  1  0
 65 56  1  0
 13  8  2  0
 49 20  1  0
M  CHG  3   9  -1  12  -1  14  -1
M  END
>  <UniqueID>  (14) 
14

>  <SMILES>  (14) 
C=c1/c(=C/c2[n-]c(=O)[n-]c2[O-])cc(C(=O)N2CCN(CCCN(C)C)CC2)n1Cc1ccccc1

>  <Energy>  (14) 
147.63226678615484

>  <Genealogy>  (14) 
C=c1c(=Cc2[n-]c(=O)[n-]c2[O-])cc(C(=O)N2CCN(CCCN(C)C)CC2)n1Cc1ccccc1 (protonated)
C=c1/c(=C/c2[n-]c(=O)[n-]c2[O-])cc(C(=O)N2CCN(CCCN(C)C)CC2)n1Cc1ccccc1 (cis-trans isomerization)
C=c1/c(=C/c2[n-]c(=O)[n-]c2[O-])cc(C(=O)N2CCN(CCCN(C)C)CC2)n1Cc1ccccc1 (3D coordinates assigned)
C=c1/c(=C/c2[n-]c(=O)[n-]c2[O-])cc(C(=O)N2CCN(CCCN(C)C)CC2)n1Cc1ccccc1 (nonaromatic ring conformer: 147.63226678615484 kcal/mol)

>  <smiles>  (14) 
C=c1c(=Cc2[nH]c(=O)[nH]c2O)cc(C(=O)N2CCN(CCCN(C)C)CC2)n1Cc1ccccc1

>  <score_type>  (14) 
oracle

>  <origin>  (14) 
adg

>  <m_score__min__energy>  (14) 
-16.710000000000001

>  <m_primary>  (14) 
energy

$$$$
14:0
     RDKit          3D

 54 56  0  0  0  0  0  0  0  0999 V2000
   56.6430   23.6290   43.4330 C   0  0  0  0  0  0  0  0  0  0  0  0
   57.7640   24.3350   44.1930 C   0  0  0  0  0  0  0  0  0  0  0  0
   57.4750   25.8130   44.3440 C   0  0  0  0  0  0  0  0  0  0  0  0
   57.9610   26.6940   43.3620 C   0  0  0  0  0  0  0  0  0  0  0  0
   57.7780   28.0730   43.4800 C   0  0  0  0  0  0  0  0  0  0  0  0
   57.1120   28.6080   44.5900 C   0  0  0  0  0  0  0  0  0  0  0  0
   56.9160   30.0740   44.7060 C   0  0  0  0  0  0  0  0  0  0  0  0
   55.7720   30.5660   44.5040 O   0  0  0  0  0  0  0  0  0  0  0  0
   58.0040   30.9620   44.9990 N   0  0  0  0  0  0  0  0  0  0  0  0
   58.4680   31.3130   46.3100 C   0  0  0  0  0  0  0  0  0  0  0  0
   58.4600   32.6580   46.6960 C   0  0  0  0  0  0  0  0  0  0  0  0
   58.9190   33.0330   47.9620 C   0  0  0  0  0  0  0  0  0  0  0  0
   59.3740   32.0610   48.8630 C   0  0  0  0  0  0  0  0  0  0  0  0
   59.9710   32.5440   50.4490 S   0  0  0  0  0  0  0  0  0  0  0  0
   59.6980   31.4560   51.4510 O   0  0  0  0  0  0  0  0  0  0  0  0
   59.2360   33.7830   50.8820 O   0  0  0  0  0  0  0  0  0  0  0  0
   61.6870   32.8740   50.3700 N   0  0  0  0  0  0  0  0  0  0  0  0
   61.9460   34.2320   49.8230 C   0  0  0  0  0  0  0  0  0  0  0  0
   62.3620   34.1960   48.3460 C   0  0  0  0  0  0  0  0  0  0  0  0
   63.6090   33.4190   48.1620 N   0  0  0  0  0  0  0  0  0  0  0  0
   63.7570   33.0220   46.7520 C   0  0  0  0  0  0  0  0  0  0  0  0
   63.7270   32.2540   49.0740 C   0  0  0  0  0  0  0  0  0  0  0  0
   62.3630   31.7930   49.6150 C   0  0  0  0  0  0  0  0  0  0  0  0
   59.3570   30.7100   48.4910 C   0  0  0  0  0  0  0  0  0  0  0  0
   58.9030   30.3360   47.2230 C   0  0  0  0  0  0  0  0  0  0  0  0
   56.6590   27.7400   45.5960 C   0  0  0  0  0  0  0  0  0  0  0  0
   56.8130   26.3480   45.4790 C   0  0  0  0  0  0  0  0  0  0  0  0
   56.3150   25.5110   46.5350 N   0  0  0  0  0  0  0  0  0  0  0  0
   57.0340   25.2310   47.5170 O   0  0  0  0  0  0  0  0  0  0  0  0
   55.1220   24.8470   46.3730 O   0  0  0  0  0  0  0  0  0  0  0  0
   55.9372   23.1845   44.1501 H   0  0  0  0  0  0  0  0  0  0  0  0
   56.1136   24.3570   42.8008 H   0  0  0  0  0  0  0  0  0  0  0  0
   57.0709   22.8370   42.8008 H   0  0  0  0  0  0  0  0  0  0  0  0
   57.8600   23.8841   45.1917 H   0  0  0  0  0  0  0  0  0  0  0  0
   58.6982   24.2186   43.6241 H   0  0  0  0  0  0  0  0  0  0  0  0
   58.4933   26.2908   42.4879 H   0  0  0  0  0  0  0  0  0  0  0  0
   58.1594   28.7438   42.6961 H   0  0  0  0  0  0  0  0  0  0  0  0
   58.0904   33.4247   45.9992 H   0  0  0  0  0  0  0  0  0  0  0  0
   58.9230   34.0941   48.2518 H   0  0  0  0  0  0  0  0  0  0  0  0
   62.0390   32.8530   51.3580 H   0  0  0  0  0  0  0  0  0  0  0  0
   61.0290   34.8322   49.9176 H   0  0  0  0  0  0  0  0  0  0  0  0
   62.7756   34.6725   50.3954 H   0  0  0  0  0  0  0  0  0  0  0  0
   61.5580   33.7297   47.7576 H   0  0  0  0  0  0  0  0  0  0  0  0
   62.5401   35.2275   48.0080 H   0  0  0  0  0  0  0  0  0  0  0  0
   64.1408   31.9925   46.6993 H   0  0  0  0  0  0  0  0  0  0  0  0
   62.7788   33.0747   46.2516 H   0  0  0  0  0  0  0  0  0  0  0  0
   64.4620   33.7022   46.2516 H   0  0  0  0  0  0  0  0  0  0  0  0
   64.1892   31.4206   48.5247 H   0  0  0  0  0  0  0  0  0  0  0  0
   64.3423   32.5609   49.9326 H   0  0  0  0  0  0  0  0  0  0  0  0
   61.7254   31.4940   48.7700 H   0  0  0  0  0  0  0  0  0  0  0  0
   62.5296   30.9464   50.2973 H   0  0  0  0  0  0  0  0  0  0  0  0
   59.7019   29.9418   49.1988 H   0  0  0  0  0  0  0  0  0  0  0  0
   58.8859   29.2736   46.9383 H   0  0  0  0  0  0  0  0  0  0  0  0
   56.1750   28.1567   46.4916 H   0  0  0  0  0  0  0  0  0  0  0  0
  1  2  1  0
  2  3  1  0
  3  4  2  0
  4  5  1  0
  5  6  2  0
  6  7  1  0
  7  8  2  0
  7  9  1  0
  9 10  1  0
 10 11  2  0
 11 12  1  0
 12 13  2  0
 13 14  1  0
 14 15  2  0
 14 16  2  0
 14 17  1  0
 17 18  1  0
 18 19  1  0
 19 20  1  0
 20 21  1  0
 20 22  1  0
 22 23  1  0
 13 24  1  0
 24 25  2  0
  6 26  1  0
 26 27  2  0
 27 28  1  0
 28 29  2  0
 28 30  1  0
 27  3  1  0
 25 10  1  0
 23 17  1  0
  1 31  1  0
  1 32  1  0
  1 33  1  0
  2 34  1  0
  2 35  1  0
  4 36  1  0
  5 37  1  0
 11 38  1  0
 12 39  1  0
 17 40  1  0
 18 41  1  0
 18 42  1  0
 19 43  1  0
 19 44  1  0
 21 45  1  0
 21 46  1  0
 21 47  1  0
 22 48  1  0
 22 49  1  0
 23 50  1  0
 23 51  1  0
 24 52  1  0
 25 53  1  0
 26 54  1  0
M  CHG  4   9  -1  17   1  28   1  30  -1
M  END
>  <UniqueID>  (15) 
15

>  <SMILES>  (15) 
CCc1ccc(C(=O)[N-]c2ccc(S(=O)(=O)[NH+]3CCN(C)CC3)cc2)cc1[N+](=O)[O-]

>  <Energy>  (15) 
75.07277455719547

>  <Genealogy>  (15) 
CCc1ccc(C(=O)[N-]c2ccc(S(=O)(=O)[NH+]3CCN(C)CC3)cc2)cc1[N+](=O)[O-] (protonated)
CCc1ccc(C(=O)[N-]c2ccc(S(=O)(=O)[NH+]3CCN(C)CC3)cc2)cc1[N+](=O)[O-] (3D coordinates assigned)
CCc1ccc(C(=O)[N-]c2ccc(S(=O)(=O)[NH+]3CCN(C)CC3)cc2)cc1[N+](=O)[O-] (nonaromatic ring conformer: 75.07277455719547 kcal/mol)

>  <smiles>  (15) 
CCc1ccc(C(=O)Nc2ccc(S(=O)(=O)N3CCN(C)CC3)cc2)cc1[N+](=O)[O-]

>  <score_type>  (15) 
oracle

>  <origin>  (15) 
adg

>  <m_score__min__energy>  (15) 
-9.1199999999999992

>  <m_primary>  (15) 
energy

$$$$
15:0
     RDKit          3D

 69 73  0  0  0  0  0  0  0  0999 V2000
   57.0079   31.6926   41.1085 H   0  0  0  0  0  0  0  0  0  0  0  0
   57.0510   31.5400   42.1970 C   0  0  0  0  0  0  0  0  0  0  0  0
   57.4900   32.5400   43.0060 N   0  0  0  0  0  0  0  0  0  0  0  0
   57.5480   32.3660   44.3510 C   0  0  0  0  0  0  0  0  0  0  0  0
   57.9700   33.4380   45.1980 N   0  0  0  0  0  0  0  0  0  0  0  0
   57.5000   33.4860   46.5860 C   0  0  0  0  0  0  0  0  0  0  0  0
   56.6487   34.1795   46.6521 H   0  0  0  0  0  0  0  0  0  0  0  0
   57.1999   32.4711   46.8859 H   0  0  0  0  0  0  0  0  0  0  0  0
   58.6170   33.9670   47.5420 C   0  0  0  0  0  0  0  0  0  0  0  0
   58.2841   34.8940   48.0317 H   0  0  0  0  0  0  0  0  0  0  0  0
   58.7980   33.1610   48.2684 H   0  0  0  0  0  0  0  0  0  0  0  0
   59.8420   34.2220   46.8780 O   0  0  0  0  0  0  0  0  0  0  0  0
   59.6280   35.1440   45.8280 C   0  0  0  0  0  0  0  0  0  0  0  0
   59.0220   35.9847   46.1968 H   0  0  0  0  0  0  0  0  0  0  0  0
   60.5973   35.5191   45.4678 H   0  0  0  0  0  0  0  0  0  0  0  0
   58.8910   34.4500   44.6770 C   0  0  0  0  0  0  0  0  0  0  0  0
   58.3218   35.1991   44.1069 H   0  0  0  0  0  0  0  0  0  0  0  0
   59.6287   33.9596   44.0248 H   0  0  0  0  0  0  0  0  0  0  0  0
   57.1580   31.1900   44.9030 N   0  0  0  0  0  0  0  0  0  0  0  0
   56.7380   30.1530   44.1340 C   0  0  0  0  0  0  0  0  0  0  0  0
   56.2570   28.9610   44.7710 N   0  0  0  0  0  0  0  0  0  0  0  0
   56.8980   28.1900   45.6020 C   0  0  0  0  0  0  0  0  0  0  0  0
   57.8450   28.7470   46.4020 N   0  0  0  0  0  0  0  0  0  0  0  0
   58.5730   28.0300   47.3020 C   0  0  0  0  0  0  0  0  0  0  0  0
   59.5340   28.7430   48.1780 C   0  0  0  0  0  0  0  0  0  0  0  0
   60.0720   28.0830   49.2940 C   0  0  0  0  0  0  0  0  0  0  0  0
   59.7476   27.0588   49.5302 H   0  0  0  0  0  0  0  0  0  0  0  0
   61.0140   28.7140   50.1060 C   0  0  0  0  0  0  0  0  0  0  0  0
   61.4350   28.1788   50.9699 H   0  0  0  0  0  0  0  0  0  0  0  0
   61.4290   30.0240   49.8310 C   0  0  0  0  0  0  0  0  0  0  0  0
   62.5250   30.6030   50.6300 C   0  0  0  0  0  0  0  0  0  0  0  0
   63.5790   30.9630   50.0460 O   0  0  0  0  0  0  0  0  0  0  0  0
   62.4530   30.7100   52.0560 N   0  0  0  0  0  0  0  0  0  0  0  0
   61.6670   31.6850   52.8070 C   0  0  0  0  0  0  0  0  0  0  0  0
   61.1687   31.1766   53.6456 H   0  0  0  0  0  0  0  0  0  0  0  0
   62.3429   32.4689   53.1794 H   0  0  0  0  0  0  0  0  0  0  0  0
   60.6020   32.3400   51.9110 C   0  0  0  0  0  0  0  0  0  0  0  0
   60.7836   33.4245   51.8803 H   0  0  0  0  0  0  0  0  0  0  0  0
   60.6817   31.8913   50.9099 H   0  0  0  0  0  0  0  0  0  0  0  0
   59.2270   32.1010   52.4070 N   0  0  0  0  0  0  0  0  0  0  0  0
   59.1100   30.7680   53.0530 C   0  0  0  0  0  0  0  0  0  0  0  0
   60.1071   30.4484   53.3900 H   0  0  0  0  0  0  0  0  0  0  0  0
   58.4138   30.8616   53.8995 H   0  0  0  0  0  0  0  0  0  0  0  0
   58.5480   29.7080   52.0930 C   0  0  0  0  0  0  0  0  0  0  0  0
   59.2222   29.6194   51.2284 H   0  0  0  0  0  0  0  0  0  0  0  0
   58.4763   28.7575   52.6421 H   0  0  0  0  0  0  0  0  0  0  0  0
   57.1980   30.0570   51.6100 N   0  0  0  0  0  0  0  0  0  0  0  0
   56.4960   29.6120   52.2480 H   0  0  0  0  0  0  0  0  0  0  0  0
   56.9350   31.5070   51.5910 C   0  0  0  0  0  0  0  0  0  0  0  0
   56.2104   31.7276   50.7933 H   0  0  0  0  0  0  0  0  0  0  0  0
   56.5377   31.7967   52.5750 H   0  0  0  0  0  0  0  0  0  0  0  0
   58.2160   32.3120   51.3360 C   0  0  0  0  0  0  0  0  0  0  0  0
   58.6470   31.9989   50.3736 H   0  0  0  0  0  0  0  0  0  0  0  0
   57.9507   33.3795   51.3235 H   0  0  0  0  0  0  0  0  0  0  0  0
   60.8570   30.7200   48.7370 C   0  0  0  0  0  0  0  0  0  0  0  0
   61.2590   32.1320   48.3980 C   0  0  0  0  0  0  0  0  0  0  0  0
   61.4207   32.7000   49.3260 H   0  0  0  0  0  0  0  0  0  0  0  0
   62.1887   32.1175   47.8103 H   0  0  0  0  0  0  0  0  0  0  0  0
   60.4611   32.6093   47.8103 H   0  0  0  0  0  0  0  0  0  0  0  0
   59.9160   30.0700   47.9200 C   0  0  0  0  0  0  0  0  0  0  0  0
   59.4733   30.6069   47.0681 H   0  0  0  0  0  0  0  0  0  0  0  0
   58.3460   26.6460   47.4160 C   0  0  0  0  0  0  0  0  0  0  0  0
   58.9930   25.8920   48.3420 F   0  0  0  0  0  0  0  0  0  0  0  0
   57.3980   26.0400   46.5920 C   0  0  0  0  0  0  0  0  0  0  0  0
   57.2251   24.9558   46.6607 H   0  0  0  0  0  0  0  0  0  0  0  0
   56.6690   26.8030   45.6820 C   0  0  0  0  0  0  0  0  0  0  0  0
   55.9210   26.3259   45.0317 H   0  0  0  0  0  0  0  0  0  0  0  0
   56.6550   30.3200   42.7460 C   0  0  0  0  0  0  0  0  0  0  0  0
   56.2858   29.5074   42.1030 H   0  0  0  0  0  0  0  0  0  0  0  0
  1  2  1  0
  2  3  2  0
  3  4  1  0
  4  5  1  0
  5  6  1  0
  6  7  1  0
  6  8  1  0
  6  9  1  0
  9 10  1  0
  9 11  1  0
  9 12  1  0
 12 13  1  0
 13 14  1  0
 13 15  1  0
 13 16  1  0
 16 17  1  0
 16 18  1  0
  4 19  2  0
 19 20  1  0
 20 21  1  0
 21 22  2  0
 22 23  1  0
 23 24  1  0
 24 25  1  0
 25 26  2  0
 26 27  1  0
 26 28  1  0
 28 29  1  0
 28 30  2  0
 30 31  1  0
 31 32  2  0
 31 33  1  0
 33 34  1  0
 34 35  1  0
 34 36  1  0
 34 37  1  0
 37 38  1  0
 37 39  1  0
 37 40  1  0
 40 41  1  0
 41 42  1  0
 41 43  1  0
 41 44  1  0
 44 45  1  0
 44 46  1  0
 44 47  1  0
 47 48  1  0
 47 49  1  0
 49 50  1  0
 49 51  1  0
 49 52  1  0
 52 53  1  0
 52 54  1  0
 30 55  1  0
 55 56  1  0
 56 57  1  0
 56 58  1  0
 56 59  1  0
 55 60  2  0
 60 61  1  0
 24 62  2  0
 62 63  1  0
 62 64  1  0
 64 65  1  0
 64 66  2  0
 66 67  1  0
 20 68  2  0
 68 69  1  0
 68  2  1  0
 16  5  1  0
 66 22  1  0
 60 25  1  0
 52 40  1  0
M  CHG  2  23  -1  33  -1
M  END
>  <UniqueID>  (16) 
16

>  <SMILES>  (16) 
Cc1cc(-c2[n-]/c(=N/c3ccnc(N4CCOCC4)n3)ccc2F)ccc1C(=O)[N-]CCN1CCNCC1

>  <Energy>  (16) 
115.86461866508503

>  <Genealogy>  (16) 
Cc1cc(-c2[n-]c(=Nc3ccnc(N4CCOCC4)n3)ccc2F)ccc1C(=O)[N-]CCN1CCNCC1 (protonated)
Cc1cc(-c2[n-]/c(=N/c3ccnc(N4CCOCC4)n3)ccc2F)ccc1C(=O)[N-]CCN1CCNCC1 (cis-trans isomerization)
Cc1cc(-c2[n-]/c(=N/c3ccnc(N4CCOCC4)n3)ccc2F)ccc1C(=O)[N-]CCN1CCNCC1 (3D coordinates assigned)
Cc1cc(-c2[n-]/c(=N/c3ccnc(N4CCOCC4)n3)ccc2F)ccc1C(=O)[N-]CCN1CCNCC1 (nonaromatic ring conformer: 115.86461866508503 kcal/mol)

>  <smiles>  (16) 
Cc1cc(-c2[nH]c(=Nc3ccnc(N4CCOCC4)n3)ccc2F)ccc1C(=O)NCCN1CCNCC1

>  <score_type>  (16) 
oracle

>  <origin>  (16) 
adg

>  <m_score__min__energy>  (16) 
-12.48

>  <m_primary>  (16) 
energy

$$$$
16:0
     RDKit          3D

 41 42  0  0  1  0  0  0  0  0999 V2000
   60.2120   26.7300   46.3950 C   0  0  0  0  0  0  0  0  0  0  0  0
   58.7830   27.0370   46.0980 C   0  0  0  0  0  0  0  0  0  0  0  0
   58.3870   28.3250   45.8010 C   0  0  0  0  0  0  0  0  0  0  0  0
   57.0550   28.5520   45.5360 C   0  0  0  0  0  0  0  0  0  0  0  0
   56.5540   29.6970   45.2460 N   0  0  0  0  0  0  0  0  0  0  0  0
   56.6890   30.2170   43.9140 C   0  0  0  0  0  0  0  0  0  0  0  0
   58.0140   30.9000   43.6560 C   0  0  0  0  0  0  0  0  0  0  0  0
   58.1800   32.0100   44.6140 C   0  0  0  0  0  0  0  0  0  0  0  0
   58.9340   31.7920   45.7500 C   0  0  0  0  0  0  0  0  0  0  0  0
   59.1570   32.7500   46.7110 C   0  0  0  0  0  0  0  0  0  0  0  0
   58.5910   34.0080   46.5290 C   0  0  0  0  0  0  0  0  0  0  0  0
   58.8070   34.9730   47.4830 O   0  0  0  0  0  0  0  0  0  0  0  0
   57.8340   34.2300   45.3910 C   0  0  0  0  0  0  0  0  0  0  0  0
   57.6190   33.2570   44.4340 C   0  0  0  0  0  0  0  0  0  0  0  0
   56.1710   27.5120   45.5740 N   0  0  0  0  0  0  0  0  0  0  0  0
   56.5850   26.2530   45.8690 C   0  0  0  0  0  0  0  0  0  0  0  0
   55.7000   25.3410   45.8830 N   0  0  0  0  0  0  0  0  0  0  0  0
   56.0180   24.0140   45.4290 C   0  0  0  0  0  0  0  0  0  0  0  0
   57.0820   24.0440   44.3670 C   0  0  0  0  0  0  0  0  0  0  0  0
   56.7050   24.5190   43.0800 N   0  0  0  0  0  0  0  0  0  0  0  0
   58.2480   23.6560   44.6460 O   0  0  0  0  0  0  0  0  0  0  0  0
   57.9010   26.0100   46.1340 N   0  0  0  0  0  0  0  0  0  0  0  0
   60.3614   26.6979   47.4843 H   0  0  0  0  0  0  0  0  0  0  0  0
   60.4756   25.7547   45.9599 H   0  0  0  0  0  0  0  0  0  0  0  0
   60.8529   27.5109   45.9599 H   0  0  0  0  0  0  0  0  0  0  0  0
   59.1159   29.1484   45.7766 H   0  0  0  0  0  0  0  0  0  0  0  0
   56.5847   29.3832   43.2041 H   0  0  0  0  0  0  0  0  0  0  0  0
   55.9059   30.9790   43.7869 H   0  0  0  0  0  0  0  0  0  0  0  0
   58.8325   30.1766   43.7851 H   0  0  0  0  0  0  0  0  0  0  0  0
   58.0351   31.2914   42.6282 H   0  0  0  0  0  0  0  0  0  0  0  0
   59.3809   30.7973   45.8942 H   0  0  0  0  0  0  0  0  0  0  0  0
   59.7663   32.5278   47.5995 H   0  0  0  0  0  0  0  0  0  0  0  0
   59.4140   35.7740   47.3560 H   0  0  0  0  0  0  0  0  0  0  0  0
   57.3848   35.2231   45.2426 H   0  0  0  0  0  0  0  0  0  0  0  0
   57.0106   33.4733   43.5434 H   0  0  0  0  0  0  0  0  0  0  0  0
   55.1430   27.6830   45.3700 H   0  0  0  0  0  0  0  0  0  0  0  0
   56.3784   23.4197   46.2816 H   0  0  0  0  0  0  0  0  0  0  0  0
   55.1099   23.5652   45.0002 H   0  0  0  0  0  0  0  0  0  0  0  0
   56.5240   25.5270   42.8670 H   0  0  0  0  0  0  0  0  0  0  0  0
   56.5980   23.8320   42.2870 H   0  0  0  0  0  0  0  0  0  0  0  0
   58.1820   25.0320   46.3570 H   0  0  0  0  0  0  0  0  0  0  0  0
  1  2  1  0
  2  3  2  0
  3  4  1  0
  4  5  2  0
  5  6  1  0
  6  7  1  0
  7  8  1  0
  8  9  2  0
  9 10  1  0
 10 11  2  0
 11 12  1  0
 11 13  1  0
 13 14  2  0
  4 15  1  0
 15 16  1  0
 16 17  2  0
 17 18  1  0
 18 19  1  0
 19 20  1  0
 19 21  2  0
 16 22  1  0
 22  2  1  0
 14  8  1  0
  1 23  1  0
  1 24  1  0
  1 25  1  0
  3 26  1  0
  6 27  1  0
  6 28  1  0
  7 29  1  0
  7 30  1  0
  9 31  1  0
 10 32  1  0
 12 33  1  0
 13 34  1  0
 14 35  1  0
 15 36  1  0
 18 37  1  0
 18 38  1  0
 20 39  1  0
 20 40  1  0
 22 41  1  0
M  END
>  <smiles>  (17) 
Cc1cc(=NCCc2ccc(O)cc2)[nH]c(=NCC(N)=O)[nH]1

>  <score_type>  (17) 
oracle

>  <origin>  (17) 
adg

>  <m_score__min__energy>  (17) 
-7.9000000000000004

>  <m_primary>  (17) 
energy

$$$$
17:0
     RDKit          3D

 33 34  0  0  0  0  0  0  0  0999 V2000
   57.1080   23.0580   46.1700 C   0  0  0  0  0  0  0  0  0  0  0  0
   57.3490   24.3460   45.5130 N   0  0  0  0  0  0  0  0  0  0  0  0
   57.3310   24.4280   44.0490 C   0  0  0  0  0  0  0  0  0  0  0  0
   57.6990   25.4900   46.3230 C   0  0  0  0  0  0  0  0  0  0  0  0
   58.0950   25.3070   47.5070 O   0  0  0  0  0  0  0  0  0  0  0  0
   57.5880   26.8780   45.8120 C   0  0  0  0  0  0  0  0  0  0  0  0
   58.7160   27.5650   45.4960 N   0  0  0  0  0  0  0  0  0  0  0  0
   58.6900   28.8280   45.0000 C   0  0  0  0  0  0  0  0  0  0  0  0
   57.4670   29.4850   44.7780 C   0  0  0  0  0  0  0  0  0  0  0  0
   57.4650   30.8690   44.2280 C   0  0  0  0  0  0  0  0  0  0  0  0
   57.7130   31.0500   43.0050 O   0  0  0  0  0  0  0  0  0  0  0  0
   57.0880   31.9820   45.0570 N   0  0  0  0  0  0  0  0  0  0  0  0
   57.8320   32.9370   45.5420 C   0  0  0  0  0  0  0  0  0  0  0  0
   58.4370   33.9280   44.7380 C   0  0  0  0  0  0  0  0  0  0  0  0
   59.2290   34.9100   45.3380 C   0  0  0  0  0  0  0  0  0  0  0  0
   59.4240   34.9020   46.7180 C   0  0  0  0  0  0  0  0  0  0  0  0
   58.8300   33.8990   47.4830 C   0  0  0  0  0  0  0  0  0  0  0  0
   58.0620   32.9520   46.8840 N   0  0  0  0  0  0  0  0  0  0  0  0
   56.2770   28.7920   45.0970 C   0  0  0  0  0  0  0  0  0  0  0  0
   55.1490   29.3320   44.9330 O   0  0  0  0  0  0  0  0  0  0  0  0
   56.3370   27.4900   45.6100 C   0  0  0  0  0  0  0  0  0  0  0  0
   55.1580   26.8230   45.9310 O   0  0  0  0  0  0  0  0  0  0  0  0
   57.1332   23.1927   47.2614 H   0  0  0  0  0  0  0  0  0  0  0  0
   56.1221   22.6725   45.8708 H   0  0  0  0  0  0  0  0  0  0  0  0
   57.8878   22.3422   45.8708 H   0  0  0  0  0  0  0  0  0  0  0  0
   57.1045   25.4598   43.7423 H   0  0  0  0  0  0  0  0  0  0  0  0
   58.3147   24.1354   43.6532 H   0  0  0  0  0  0  0  0  0  0  0  0
   56.5602   23.7503   43.6532 H   0  0  0  0  0  0  0  0  0  0  0  0
   59.6346   29.3424   44.7695 H   0  0  0  0  0  0  0  0  0  0  0  0
   58.2859   33.9267   43.6484 H   0  0  0  0  0  0  0  0  0  0  0  0
   59.6990   35.6900   44.7209 H   0  0  0  0  0  0  0  0  0  0  0  0
   60.0391   35.6776   47.1978 H   0  0  0  0  0  0  0  0  0  0  0  0
   58.9833   33.8745   48.5720 H   0  0  0  0  0  0  0  0  0  0  0  0
  1  2  1  0
  2  3  1  0
  2  4  1  0
  4  5  2  0
  4  6  1  0
  6  7  1  0
  7  8  1  0
  8  9  2  0
  9 10  1  0
 10 11  2  0
 10 12  1  0
 12 13  2  3
 13 14  1  0
 14 15  2  0
 15 16  1  0
 16 17  2  0
 17 18  1  0
  9 19  1  0
 19 20  2  0
 19 21  1  0
 21 22  1  0
 21  6  2  0
 18 13  1  0
  1 23  1  0
  1 24  1  0
  1 25  1  0
  3 26  1  0
  3 27  1  0
  3 28  1  0
  8 29  1  0
 14 30  1  0
 15 31  1  0
 16 32  1  0
 17 33  1  0
M  CHG  3   7  -1  18  -1  22  -1
M  END
>  <UniqueID>  (18) 
17

>  <SMILES>  (18) 
CN(C)C(=O)c1[n-]cc(C(=O)N=c2cccc[n-]2)c(=O)c1[O-]

>  <Energy>  (18) 
48.88688067299151

>  <Genealogy>  (18) 
CN(C)C(=O)c1[n-]cc(C(=O)N=c2cccc[n-]2)c(=O)c1[O-] (protonated)
CN(C)C(=O)c1[n-]cc(C(=O)N=c2cccc[n-]2)c(=O)c1[O-] (3D coordinates assigned)
CN(C)C(=O)c1[n-]cc(C(=O)N=c2cccc[n-]2)c(=O)c1[O-] (optimized conformer: 48.88688067299151 kcal/mol)

>  <smiles>  (18) 
CN(C)C(=O)c1[nH]cc(C(=O)N=c2cccc[nH]2)c(=O)c1O

>  <score_type>  (18) 
oracle

>  <origin>  (18) 
adg

>  <m_score__min__energy>  (18) 
-13.18

>  <m_primary>  (18) 
energy

$$$$
18:0
     RDKit          3D

 45 48  0  0  0  0  0  0  0  0999 V2000
   60.3710   29.3060   45.0780 O   0  0  0  0  0  0  0  0  0  0  0  0
   59.3640   29.2970   45.8370 C   0  0  0  0  0  0  0  0  0  0  0  0
   59.2140   30.3080   46.8480 N   0  0  0  0  0  0  0  0  0  0  0  0
   59.9060   31.5720   46.8250 C   0  0  0  0  0  0  0  0  0  0  0  0
   61.3120   31.6170   46.8900 C   0  0  0  0  0  0  0  0  0  0  0  0
   61.9860   32.8400   46.8840 C   0  0  0  0  0  0  0  0  0  0  0  0
   61.2690   34.0330   46.8080 C   0  0  0  0  0  0  0  0  0  0  0  0
   59.8770   34.0060   46.7200 C   0  0  0  0  0  0  0  0  0  0  0  0
   59.1890   32.7840   46.7030 C   0  0  0  0  0  0  0  0  0  0  0  0
   57.3930   32.8160   46.5720 S   0  0  0  0  0  0  0  0  0  0  0  0
   57.3910   32.2560   44.8660 C   0  0  0  0  0  0  0  0  0  0  0  0
   56.6610   31.1160   44.5050 C   0  0  0  0  0  0  0  0  0  0  0  0
   56.6550   30.6760   43.1780 C   0  0  0  0  0  0  0  0  0  0  0  0
   57.3860   31.3670   42.2080 C   0  0  0  0  0  0  0  0  0  0  0  0
   58.1290   32.4970   42.5660 C   0  0  0  0  0  0  0  0  0  0  0  0
   58.1360   32.9390   43.8940 C   0  0  0  0  0  0  0  0  0  0  0  0
   58.3700   28.2170   45.7010 C   0  0  0  0  0  0  0  0  0  0  0  0
   57.0230   28.3110   46.0010 C   0  0  0  0  0  0  0  0  0  0  0  0
   56.4960   27.0650   45.7390 C   0  0  0  0  0  0  0  0  0  0  0  0
   55.1670   26.7150   45.9450 O   0  0  0  0  0  0  0  0  0  0  0  0
   57.4490   26.2180   45.2940 N   0  0  0  0  0  0  0  0  0  0  0  0
   57.2910   24.8340   44.9270 C   0  0  0  0  0  0  0  0  0  0  0  0
   57.7270   23.8090   45.7870 C   0  0  0  0  0  0  0  0  0  0  0  0
   57.5620   22.4670   45.4270 C   0  0  0  0  0  0  0  0  0  0  0  0
   56.9590   22.1350   44.2120 C   0  0  0  0  0  0  0  0  0  0  0  0
   56.5150   23.1460   43.3550 C   0  0  0  0  0  0  0  0  0  0  0  0
   56.6760   24.4890   43.7100 C   0  0  0  0  0  0  0  0  0  0  0  0
   58.6030   26.9180   45.2770 C   0  0  0  0  0  0  0  0  0  0  0  0
   58.6340   30.0710   47.6790 H   0  0  0  0  0  0  0  0  0  0  0  0
   61.8849   30.6797   46.9460 H   0  0  0  0  0  0  0  0  0  0  0  0
   63.0844   32.8620   46.9393 H   0  0  0  0  0  0  0  0  0  0  0  0
   61.8009   34.9958   46.8174 H   0  0  0  0  0  0  0  0  0  0  0  0
   59.3150   34.9499   46.6635 H   0  0  0  0  0  0  0  0  0  0  0  0
   56.0909   30.5655   45.2679 H   0  0  0  0  0  0  0  0  0  0  0  0
   56.0743   29.7850   42.8972 H   0  0  0  0  0  0  0  0  0  0  0  0
   57.3772   31.0226   41.1634 H   0  0  0  0  0  0  0  0  0  0  0  0
   58.7080   33.0384   41.8034 H   0  0  0  0  0  0  0  0  0  0  0  0
   58.7266   33.8232   44.1756 H   0  0  0  0  0  0  0  0  0  0  0  0
   56.4847   29.1959   46.3715 H   0  0  0  0  0  0  0  0  0  0  0  0
   58.1998   24.0640   46.7469 H   0  0  0  0  0  0  0  0  0  0  0  0
   57.9082   21.6713   46.1030 H   0  0  0  0  0  0  0  0  0  0  0  0
   56.8336   21.0793   43.9297 H   0  0  0  0  0  0  0  0  0  0  0  0
   56.0378   22.8846   42.3990 H   0  0  0  0  0  0  0  0  0  0  0  0
   56.3197   25.2800   43.0337 H   0  0  0  0  0  0  0  0  0  0  0  0
   59.5813   26.5178   44.9725 H   0  0  0  0  0  0  0  0  0  0  0  0
  1  2  2  0
  2  3  1  0
  3  4  1  0
  4  5  2  0
  5  6  1  0
  6  7  2  0
  7  8  1  0
  8  9  2  0
  9 10  1  0
 10 11  1  0
 11 12  2  0
 12 13  1  0
 13 14  2  0
 14 15  1  0
 15 16  2  0
  2 17  1  0
 17 18  1  0
 18 19  2  0
 19 20  1  0
 19 21  1  0
 21 22  1  0
 22 23  2  0
 23 24  1  0
 24 25  2  0
 25 26  1  0
 26 27  2  0
 21 28  1  0
  9  4  1  0
 16 11  1  0
 28 17  2  0
 27 22  1  0
  3 29  1  0
  5 30  1  0
  6 31  1  0
  7 32  1  0
  8 33  1  0
 12 34  1  0
 13 35  1  0
 14 36  1  0
 15 37  1  0
 16 38  1  0
 18 39  1  0
 23 40  1  0
 24 41  1  0
 25 42  1  0
 26 43  1  0
 27 44  1  0
 28 45  1  0
M  CHG  1  20  -1
M  END
>  <UniqueID>  (19) 
18

>  <SMILES>  (19) 
O=C(Nc1ccccc1Sc1ccccc1)c1cc([O-])n(-c2ccccc2)c1

>  <Energy>  (19) 
81.78187323791805

>  <Genealogy>  (19) 
O=C(Nc1ccccc1Sc1ccccc1)c1cc([O-])n(-c2ccccc2)c1 (protonated)
O=C(Nc1ccccc1Sc1ccccc1)c1cc([O-])n(-c2ccccc2)c1 (3D coordinates assigned)
O=C(Nc1ccccc1Sc1ccccc1)c1cc([O-])n(-c2ccccc2)c1 (optimized conformer: 81.78187323791805 kcal/mol)

>  <smiles>  (19) 
O=C(Nc1ccccc1Sc1ccccc1)c1cc(O)n(-c2ccccc2)c1

>  <score_type>  (19) 
oracle

>  <origin>  (19) 
adg

>  <m_score__min__energy>  (19) 
-12.27

>  <m_primary>  (19) 
energy

$$$$
19:0
     RDKit          3D

 48 50  0  0  0  0  0  0  0  0999 V2000
   54.8210   26.3430   46.0250 N   0  0  0  0  0  0  0  0  0  0  0  0
   56.1770   25.2900   45.8140 S   0  0  0  0  0  0  0  0  0  0  0  0
   55.7180   24.0240   45.1470 O   0  0  0  0  0  0  0  0  0  0  0  0
   56.7650   24.9550   47.1560 O   0  0  0  0  0  0  0  0  0  0  0  0
   57.4100   26.0750   44.7910 C   0  0  0  0  0  0  0  0  0  0  0  0
   58.1810   27.0930   45.5840 C   0  0  0  0  0  0  0  0  0  0  0  0
   57.8110   27.3930   46.9040 C   0  0  0  0  0  0  0  0  0  0  0  0
   58.5010   28.3700   47.6270 C   0  0  0  0  0  0  0  0  0  0  0  0
   59.5600   29.0780   47.0330 C   0  0  0  0  0  0  0  0  0  0  0  0
   60.2760   30.1290   47.7890 C   0  0  0  0  0  0  0  0  0  0  0  0
   59.8880   30.4400   48.9480 O   0  0  0  0  0  0  0  0  0  0  0  0
   61.3980   30.8070   47.2050 N   0  0  0  0  0  0  0  0  0  0  0  0
   62.3350   31.6040   48.0060 C   0  0  1  0  0  0  0  0  0  0  0  0
   63.1450   32.5220   47.1070 C   0  0  0  0  0  0  0  0  0  0  0  0
   62.2970   33.7750   47.0020 C   0  0  0  0  0  0  0  0  0  0  0  0
   61.5370   33.8770   48.2530 N   0  0  0  0  0  0  0  0  0  0  0  0
   60.1930   34.4910   48.1340 C   0  0  0  0  0  0  0  0  0  0  0  0
   59.3700   34.0190   46.9480 C   0  0  0  0  0  0  0  0  0  0  0  0
   58.5000   32.9200   47.0730 C   0  0  0  0  0  0  0  0  0  0  0  0
   57.7570   32.4730   45.9760 C   0  0  0  0  0  0  0  0  0  0  0  0
   57.8890   33.1040   44.7370 C   0  0  0  0  0  0  0  0  0  0  0  0
   58.7810   34.1690   44.5890 C   0  0  0  0  0  0  0  0  0  0  0  0
   59.5300   34.6140   45.6820 C   0  0  0  0  0  0  0  0  0  0  0  0
   61.5900   32.5700   48.9280 C   0  0  0  0  0  0  0  0  0  0  0  0
   59.9340   28.7690   45.7150 C   0  0  0  0  0  0  0  0  0  0  0  0
   59.2470   27.7880   44.9950 C   0  0  0  0  0  0  0  0  0  0  0  0
   55.1850   27.3220   46.0070 H   0  0  0  0  0  0  0  0  0  0  0  0
   58.1041   25.3113   44.4102 H   0  0  0  0  0  0  0  0  0  0  0  0
   56.9077   26.5819   43.9539 H   0  0  0  0  0  0  0  0  0  0  0  0
   56.9730   26.8560   47.3724 H   0  0  0  0  0  0  0  0  0  0  0  0
   58.2137   28.5860   48.6666 H   0  0  0  0  0  0  0  0  0  0  0  0
   61.5260   30.7450   46.1710 H   0  0  0  0  0  0  0  0  0  0  0  0
   62.9514   30.8826   48.5624 H   0  0  0  0  0  0  0  0  0  0  0  0
   64.1225   32.7481   47.5581 H   0  0  0  0  0  0  0  0  0  0  0  0
   63.3594   32.0726   46.1261 H   0  0  0  0  0  0  0  0  0  0  0  0
   62.9402   34.6584   46.8763 H   0  0  0  0  0  0  0  0  0  0  0  0
   61.6238   33.7250   46.1335 H   0  0  0  0  0  0  0  0  0  0  0  0
   59.6312   34.2610   49.0513 H   0  0  0  0  0  0  0  0  0  0  0  0
   60.3612   35.5672   47.9804 H   0  0  0  0  0  0  0  0  0  0  0  0
   58.4036   32.4082   48.0419 H   0  0  0  0  0  0  0  0  0  0  0  0
   57.0676   31.6233   46.0890 H   0  0  0  0  0  0  0  0  0  0  0  0
   57.2914   32.7629   43.8788 H   0  0  0  0  0  0  0  0  0  0  0  0
   58.8941   34.6583   43.6103 H   0  0  0  0  0  0  0  0  0  0  0  0
   60.2500   35.4354   45.5521 H   0  0  0  0  0  0  0  0  0  0  0  0
   62.1248   32.6632   49.8847 H   0  0  0  0  0  0  0  0  0  0  0  0
   60.5749   32.2008   49.1357 H   0  0  0  0  0  0  0  0  0  0  0  0
   60.7737   29.3030   45.2462 H   0  0  0  0  0  0  0  0  0  0  0  0
   59.5440   27.5598   43.9607 H   0  0  0  0  0  0  0  0  0  0  0  0
  1  2  1  0
  2  3  2  0
  2  4  2  0
  2  5  1  0
  5  6  1  0
  6  7  2  0
  7  8  1  0
  8  9  2  0
  9 10  1  0
 10 11  2  0
 10 12  1  0
 12 13  1  0
 13 14  1  0
 14 15  1  0
 15 16  1  0
 16 17  1  0
 17 18  1  0
 18 19  2  0
 19 20  1  0
 20 21  2  0
 21 22  1  0
 22 23  2  0
 16 24  1  0
  9 25  1  0
 25 26  2  0
 26  6  1  0
 24 13  1  0
 23 18  1  0
  1 27  1  0
  5 28  1  0
  5 29  1  0
  7 30  1  0
  8 31  1  0
 12 32  1  0
 13 33  1  1
 14 34  1  0
 14 35  1  0
 15 36  1  0
 15 37  1  0
 17 38  1  0
 17 39  1  0
 19 40  1  0
 20 41  1  0
 21 42  1  0
 22 43  1  0
 23 44  1  0
 24 45  1  0
 24 46  1  0
 25 47  1  0
 26 48  1  0
M  CHG  1   1  -1
M  END
>  <UniqueID>  (20) 
19

>  <SMILES>  (20) 
[NH-]S(=O)(=O)Cc1ccc(C(=O)N[C@H]2CCN(Cc3ccccc3)C2)cc1

>  <Energy>  (20) 
49.8707298284245

>  <Genealogy>  (20) 
[NH-]S(=O)(=O)Cc1ccc(C(=O)NC2CCN(Cc3ccccc3)C2)cc1 (protonated)
[NH-]S(=O)(=O)Cc1ccc(C(=O)N[C@H]2CCN(Cc3ccccc3)C2)cc1 (chirality)
[NH-]S(=O)(=O)Cc1ccc(C(=O)N[C@H]2CCN(Cc3ccccc3)C2)cc1 (3D coordinates assigned)
[NH-]S(=O)(=O)Cc1ccc(C(=O)N[C@H]2CCN(Cc3ccccc3)C2)cc1 (nonaromatic ring conformer: 49.8707298284245 kcal/mol)

>  <smiles>  (20) 
NS(=O)(=O)Cc1ccc(C(=O)NC2CCN(Cc3ccccc3)C2)cc1

>  <score_type>  (20) 
oracle

>  <origin>  (20) 
adg

>  <m_score__min__energy>  (20) 
-11.93

>  <m_primary>  (20) 
energy

$$$$
20:0
     RDKit          3D

 41 43  0  0  0  0  0  0  0  0999 V2000
   61.7610   30.5020   46.7640 O   0  0  0  0  0  0  0  0  0  0  0  0
   60.6140   30.0160   46.5680 C   0  0  0  0  0  0  0  0  0  0  0  0
   60.4700   28.7360   45.8080 C   0  0  0  0  0  0  0  0  0  0  0  0
   59.0490   28.2500   45.9040 C   0  0  0  0  0  0  0  0  0  0  0  0
   58.7210   27.1890   46.7630 C   0  0  0  0  0  0  0  0  0  0  0  0
   57.4140   26.6880   46.7970 C   0  0  0  0  0  0  0  0  0  0  0  0
   56.4310   27.2360   45.9670 C   0  0  0  0  0  0  0  0  0  0  0  0
   55.1360   26.7310   45.9940 O   0  0  0  0  0  0  0  0  0  0  0  0
   56.7530   28.2850   45.1000 C   0  0  0  0  0  0  0  0  0  0  0  0
   58.0580   28.7900   45.0650 C   0  0  0  0  0  0  0  0  0  0  0  0
   59.4330   30.7320   46.9490 N   0  0  0  0  0  0  0  0  0  0  0  0
   58.9260   31.9390   46.3630 C   0  0  0  0  0  0  0  0  0  0  0  0
   57.7440   31.9550   45.6020 C   0  0  0  0  0  0  0  0  0  0  0  0
   57.2770   33.1530   45.0520 C   0  0  0  0  0  0  0  0  0  0  0  0
   57.9870   34.3400   45.2490 C   0  0  0  0  0  0  0  0  0  0  0  0
   59.1730   34.3290   45.9850 C   0  0  0  0  0  0  0  0  0  0  0  0
   59.6550   33.1330   46.5290 C   0  0  0  0  0  0  0  0  0  0  0  0
   60.8840   33.1420   47.2700 N   0  0  0  0  0  0  0  0  0  0  0  0
   62.0850   33.7230   46.6650 C   0  0  0  0  0  0  0  0  0  0  0  0
   63.3330   33.0830   47.2830 C   0  0  0  0  0  0  0  0  0  0  0  0
   63.2760   33.1200   48.6980 O   0  0  0  0  0  0  0  0  0  0  0  0
   62.1990   32.3220   49.1560 C   0  0  0  0  0  0  0  0  0  0  0  0
   60.8610   32.9200   48.7170 C   0  0  0  0  0  0  0  0  0  0  0  0
   60.7285   28.9058   44.7524 H   0  0  0  0  0  0  0  0  0  0  0  0
   61.1448   27.9794   46.2348 H   0  0  0  0  0  0  0  0  0  0  0  0
   59.4934   26.7499   47.4115 H   0  0  0  0  0  0  0  0  0  0  0  0
   57.1600   25.8620   47.4777 H   0  0  0  0  0  0  0  0  0  0  0  0
   55.9801   28.7136   44.4450 H   0  0  0  0  0  0  0  0  0  0  0  0
   58.3093   29.6122   44.3788 H   0  0  0  0  0  0  0  0  0  0  0  0
   57.1846   31.0221   45.4386 H   0  0  0  0  0  0  0  0  0  0  0  0
   56.3482   33.1607   44.4627 H   0  0  0  0  0  0  0  0  0  0  0  0
   57.6116   35.2827   44.8243 H   0  0  0  0  0  0  0  0  0  0  0  0
   59.7312   35.2644   46.1381 H   0  0  0  0  0  0  0  0  0  0  0  0
   62.0761   33.5357   45.5811 H   0  0  0  0  0  0  0  0  0  0  0  0
   62.1000   34.8070   46.8513 H   0  0  0  0  0  0  0  0  0  0  0  0
   63.4008   32.0358   46.9532 H   0  0  0  0  0  0  0  0  0  0  0  0
   64.2165   33.6494   46.9534 H   0  0  0  0  0  0  0  0  0  0  0  0
   62.2966   31.3090   48.7385 H   0  0  0  0  0  0  0  0  0  0  0  0
   62.2274   32.2850   50.2550 H   0  0  0  0  0  0  0  0  0  0  0  0
   60.0468   32.2248   48.9696 H   0  0  0  0  0  0  0  0  0  0  0  0
   60.6962   33.8764   49.2348 H   0  0  0  0  0  0  0  0  0  0  0  0
  1  2  2  0
  2  3  1  0
  3  4  1  0
  4  5  2  0
  5  6  1  0
  6  7  2  0
  7  8  1  0
  7  9  1  0
  9 10  2  0
  2 11  1  0
 11 12  1  0
 12 13  2  0
 13 14  1  0
 14 15  2  0
 15 16  1  0
 16 17  2  0
 17 18  1  0
 18 19  1  0
 19 20  1  0
 20 21  1  0
 21 22  1  0
 22 23  1  0
 10  4  1  0
 17 12  1  0
 23 18  1  0
  3 24  1  0
  3 25  1  0
  5 26  1  0
  6 27  1  0
  9 28  1  0
 10 29  1  0
 13 30  1  0
 14 31  1  0
 15 32  1  0
 16 33  1  0
 19 34  1  0
 19 35  1  0
 20 36  1  0
 20 37  1  0
 22 38  1  0
 22 39  1  0
 23 40  1  0
 23 41  1  0
M  CHG  2   8  -1  11  -1
M  END
>  <UniqueID>  (21) 
20

>  <SMILES>  (21) 
O=C(Cc1ccc([O-])cc1)[N-]c1ccccc1N1CCOCC1

>  <Energy>  (21) 
49.04872884102391

>  <Genealogy>  (21) 
O=C(Cc1ccc([O-])cc1)[N-]c1ccccc1N1CCOCC1 (protonated)
O=C(Cc1ccc([O-])cc1)[N-]c1ccccc1N1CCOCC1 (3D coordinates assigned)
O=C(Cc1ccc([O-])cc1)[N-]c1ccccc1N1CCOCC1 (nonaromatic ring conformer: 49.04872884102391 kcal/mol)

>  <smiles>  (21) 
O=C(Cc1ccc(O)cc1)Nc1ccccc1N1CCOCC1

>  <score_type>  (21) 
oracle

>  <origin>  (21) 
adg

>  <m_score__min__energy>  (21) 
-11.58

>  <m_primary>  (21) 
energy

$$$$
21:0
     RDKit          3D

 38 40  0  0  0  0  0  0  0  0999 V2000
   54.3460   26.2540   45.2560 H   0  0  0  0  0  0  0  0  0  0  0  0
   55.1830   26.1870   45.8770 N   0  0  0  0  0  0  0  0  0  0  0  0
   56.1070   27.0920   45.8650 C   0  0  0  0  0  0  0  0  0  0  0  0
   57.2950   26.8500   46.4720 N   0  0  0  0  0  0  0  0  0  0  0  0
   58.2780   27.7900   46.4560 C   0  0  0  0  0  0  0  0  0  0  0  0
   59.4190   27.5880   47.0480 N   0  0  0  0  0  0  0  0  0  0  0  0
   60.0760   28.4630   47.9790 C   0  0  0  0  0  0  0  0  0  0  0  0
   60.2470   28.1190   49.3330 C   0  0  0  0  0  0  0  0  0  0  0  0
   59.8494   27.1656   49.7111 H   0  0  0  0  0  0  0  0  0  0  0  0
   60.9210   28.9860   50.1990 C   0  0  0  0  0  0  0  0  0  0  0  0
   61.0378   28.7204   51.2600 H   0  0  0  0  0  0  0  0  0  0  0  0
   61.4460   30.1880   49.7200 C   0  0  0  0  0  0  0  0  0  0  0  0
   61.9621   30.8741   50.4077 H   0  0  0  0  0  0  0  0  0  0  0  0
   61.3170   30.5220   48.3660 C   0  0  0  0  0  0  0  0  0  0  0  0
   61.9820   32.0340   47.7580 S   0  0  0  0  0  0  0  0  0  0  0  0
   61.2830   32.4220   46.4850 O   0  0  0  0  0  0  0  0  0  0  0  0
   63.4470   31.8690   47.4710 O   0  0  0  0  0  0  0  0  0  0  0  0
   61.7650   33.2770   48.9380 N   0  0  0  0  0  0  0  0  0  0  0  0
   61.1090   33.9770   48.5270 H   0  0  0  0  0  0  0  0  0  0  0  0
   60.6350   29.6550   47.5000 C   0  0  0  0  0  0  0  0  0  0  0  0
   60.5381   29.9132   46.4351 H   0  0  0  0  0  0  0  0  0  0  0  0
   58.0520   28.9810   45.8450 N   0  0  0  0  0  0  0  0  0  0  0  0
   56.8580   29.2370   45.2450 C   0  0  0  0  0  0  0  0  0  0  0  0
   56.6370   30.3620   44.6310 N   0  0  0  0  0  0  0  0  0  0  0  0
   57.3850   31.5820   44.7660 C   0  0  0  0  0  0  0  0  0  0  0  0
   57.7980   32.3320   43.6480 C   0  0  0  0  0  0  0  0  0  0  0  0
   57.5249   32.0024   42.6347 H   0  0  0  0  0  0  0  0  0  0  0  0
   58.5540   33.4940   43.8230 C   0  0  0  0  0  0  0  0  0  0  0  0
   58.8613   34.0844   42.9472 H   0  0  0  0  0  0  0  0  0  0  0  0
   58.9210   33.9090   45.1040 C   0  0  0  0  0  0  0  0  0  0  0  0
   59.5078   34.8300   45.2358 H   0  0  0  0  0  0  0  0  0  0  0  0
   58.5430   33.1540   46.2230 C   0  0  0  0  0  0  0  0  0  0  0  0
   58.9320   33.5680   47.5360 N   0  0  0  0  0  0  0  0  0  0  0  0
   59.9110   33.4330   47.8710 H   0  0  0  0  0  0  0  0  0  0  0  0
   58.2420   34.0130   48.1820 H   0  0  0  0  0  0  0  0  0  0  0  0
   57.7840   31.9870   46.0470 C   0  0  0  0  0  0  0  0  0  0  0  0
   57.4996   31.3846   46.9223 H   0  0  0  0  0  0  0  0  0  0  0  0
   55.8920   28.2840   45.2490 N   0  0  0  0  0  0  0  0  0  0  0  0
  1  2  1  0
  2  3  2  3
  3  4  1  0
  4  5  1  0
  5  6  2  3
  6  7  1  0
  7  8  2  0
  8  9  1  0
  8 10  1  0
 10 11  1  0
 10 12  2  0
 12 13  1  0
 12 14  1  0
 14 15  1  0
 15 16  2  0
 15 17  2  0
 15 18  1  0
 18 19  1  0
 14 20  2  0
 20 21  1  0
  5 22  1  0
 22 23  1  0
 23 24  2  0
 24 25  1  0
 25 26  2  0
 26 27  1  0
 26 28  1  0
 28 29  1  0
 28 30  2  0
 30 31  1  0
 30 32  1  0
 32 33  1  0
 33 34  1  0
 33 35  1  0
 32 36  2  0
 36 37  1  0
 23 38  1  0
 38  3  1  0
 20  7  1  0
 36 25  1  0
M  CHG  4   4  -1  18  -1  22  -1  38  -1
M  END
>  <UniqueID>  (22) 
21

>  <SMILES>  (22) 
N=c1[n-]c(=Nc2cccc(S([NH-])(=O)=O)c2)[n-]/c(=N\c2cccc(N)c2)[n-]1

>  <Energy>  (22) 
52.50587447497601

>  <Genealogy>  (22) 
N=c1[n-]c(=Nc2cccc(N)c2)[n-]c(=Nc2cccc(S([NH-])(=O)=O)c2)[n-]1 (protonated)
N=c1[n-]c(=Nc2cccc(S([NH-])(=O)=O)c2)[n-]/c(=N\c2cccc(N)c2)[n-]1 (cis-trans isomerization)
N=c1[n-]c(=Nc2cccc(S([NH-])(=O)=O)c2)[n-]/c(=N\c2cccc(N)c2)[n-]1 (3D coordinates assigned)
N=c1[n-]c(=Nc2cccc(S([NH-])(=O)=O)c2)[n-]/c(=N\c2cccc(N)c2)[n-]1 (optimized conformer: 52.50587447497601 kcal/mol)

>  <smiles>  (22) 
N=c1[nH]c(=Nc2cccc(N)c2)[nH]c(=Nc2cccc(S(N)(=O)=O)c2)[nH]1

>  <score_type>  (22) 
oracle

>  <origin>  (22) 
adg

>  <m_score__min__energy>  (22) 
-14.550000000000001

>  <m_primary>  (22) 
energy

$$$$
22:0
     RDKit          3D

 52 54  0  0  0  0  0  0  0  0999 V2000
   60.5010   28.2450   46.6640 H   0  0  0  0  0  0  0  0  0  0  0  0
   59.9730   27.5270   46.1830 O   0  0  0  0  0  0  0  0  0  0  0  0
   58.5990   27.6510   45.9990 C   0  0  0  0  0  0  0  0  0  0  0  0
   57.7800   26.6130   46.3120 N   0  0  0  0  0  0  0  0  0  0  0  0
   56.4370   26.6980   46.1320 C   0  0  0  0  0  0  0  0  0  0  0  0
   55.7000   25.7250   46.4340 O   0  0  0  0  0  0  0  0  0  0  0  0
   55.8900   27.8290   45.6170 N   0  0  0  0  0  0  0  0  0  0  0  0
   56.6640   28.8950   45.2880 C   0  0  0  0  0  0  0  0  0  0  0  0
   56.1250   29.9210   44.7930 O   0  0  0  0  0  0  0  0  0  0  0  0
   58.0540   28.8440   45.5000 C   0  0  0  0  0  0  0  0  0  0  0  0
   58.9370   29.9610   45.1140 C   0  0  0  0  0  0  0  0  0  0  0  0
   59.8129   29.7177   44.4946 H   0  0  0  0  0  0  0  0  0  0  0  0
   58.7640   31.2530   45.4540 C   0  0  0  0  0  0  0  0  0  0  0  0
   59.4480   32.0210   46.4140 C   0  0  0  0  0  0  0  0  0  0  0  0
   60.7890   31.7490   47.0620 C   0  0  0  0  0  0  0  0  0  0  0  0
   61.4393   31.2282   46.3438 H   0  0  0  0  0  0  0  0  0  0  0  0
   61.2423   32.7065   47.3581 H   0  0  0  0  0  0  0  0  0  0  0  0
   60.6170   30.8910   48.2880 C   0  0  0  0  0  0  0  0  0  0  0  0
   59.4400   30.1460   48.4660 C   0  0  0  0  0  0  0  0  0  0  0  0
   58.6376   30.2027   47.7157 H   0  0  0  0  0  0  0  0  0  0  0  0
   59.2830   29.3320   49.5930 C   0  0  0  0  0  0  0  0  0  0  0  0
   58.3584   28.7513   49.7269 H   0  0  0  0  0  0  0  0  0  0  0  0
   60.3000   29.2560   50.5490 C   0  0  0  0  0  0  0  0  0  0  0  0
   60.1430   28.4460   51.6670 O   0  0  0  0  0  0  0  0  0  0  0  0
   61.4740   29.9950   50.3790 C   0  0  0  0  0  0  0  0  0  0  0  0
   62.2737   29.9359   51.1320 H   0  0  0  0  0  0  0  0  0  0  0  0
   61.6340   30.8090   49.2540 C   0  0  0  0  0  0  0  0  0  0  0  0
   62.5603   31.3880   49.1244 H   0  0  0  0  0  0  0  0  0  0  0  0
   58.8360   33.2750   46.3990 C   0  0  0  0  0  0  0  0  0  0  0  0
   59.2440   34.4680   47.1730 C   0  0  0  0  0  0  0  0  0  0  0  0
   59.6140   35.4980   46.5510 O   0  0  0  0  0  0  0  0  0  0  0  0
   59.3100   34.4740   48.6070 N   0  0  0  0  0  0  0  0  0  0  0  0
   60.3260   34.1790   49.3680 C   0  0  0  0  0  0  0  0  0  0  0  0
   61.3296   34.4560   49.0129 H   0  0  0  0  0  0  0  0  0  0  0  0
   60.2200   33.4840   50.7020 C   0  0  0  0  0  0  0  0  0  0  0  0
   60.5160   32.4315   50.5810 H   0  0  0  0  0  0  0  0  0  0  0  0
   60.8835   33.9987   51.4125 H   0  0  0  0  0  0  0  0  0  0  0  0
   58.8430   33.5370   51.2330 N   0  0  0  0  0  0  0  0  0  0  0  0
   58.1680   32.2490   51.0040 C   0  0  0  0  0  0  0  0  0  0  0  0
   57.9250   31.7853   51.9714 H   0  0  0  0  0  0  0  0  0  0  0  0
   57.2418   32.4165   50.4347 H   0  0  0  0  0  0  0  0  0  0  0  0
   58.8328   31.5827   50.4347 H   0  0  0  0  0  0  0  0  0  0  0  0
   58.8440   33.8400   52.6740 C   0  0  0  0  0  0  0  0  0  0  0  0
   58.8409   32.9006   53.2462 H   0  0  0  0  0  0  0  0  0  0  0  0
   59.7441   34.4199   52.9261 H   0  0  0  0  0  0  0  0  0  0  0  0
   57.9478   34.4259   52.9261 H   0  0  0  0  0  0  0  0  0  0  0  0
   57.8520   33.2270   45.4220 C   0  0  0  0  0  0  0  0  0  0  0  0
   57.0190   34.2130   45.0820 C   0  0  0  0  0  0  0  0  0  0  0  0
   57.0904   35.1902   45.5819 H   0  0  0  0  0  0  0  0  0  0  0  0
   56.2612   34.0483   44.3019 H   0  0  0  0  0  0  0  0  0  0  0  0
   57.8210   32.0090   44.8530 N   0  0  0  0  0  0  0  0  0  0  0  0
   57.1630   31.6980   44.1020 H   0  0  0  0  0  0  0  0  0  0  0  0
  1  2  1  0
  2  3  1  0
  3  4  1  0
  4  5  1  0
  5  6  2  0
  5  7  1  0
  7  8  1  0
  8  9  2  0
  8 10  1  0
 10 11  1  0
 11 12  1  0
 11 13  2  0
 13 14  1  0
 14 15  1  0
 15 16  1  0
 15 17  1  0
 15 18  1  0
 18 19  2  0
 19 20  1  0
 19 21  1  0
 21 22  1  0
 21 23  2  0
 23 24  1  0
 23 25  1  0
 25 26  1  0
 25 27  2  0
 27 28  1  0
 14 29  2  0
 29 30  1  0
 30 31  2  0
 30 32  1  0
 32 33  2  3
 33 34  1  0
 33 35  1  0
 35 36  1  0
 35 37  1  0
 35 38  1  0
 38 39  1  0
 39 40  1  0
 39 41  1  0
 39 42  1  0
 38 43  1  0
 43 44  1  0
 43 45  1  0
 43 46  1  0
 29 47  1  0
 47 48  2  0
 48 49  1  0
 48 50  1  0
 47 51  1  0
 51 52  1  0
 10  3  2  0
 51 13  1  0
 27 18  1  0
M  CHG  3   4  -1   7  -1  24  -1
M  END
>  <UniqueID>  (23) 
22

>  <SMILES>  (23) 
C=c1[nH]/c(=C/c2c(O)[n-]c(=O)[n-]c2=O)c(Cc2ccc([O-])cc2)c1C(=O)N=CCN(C)C

>  <Energy>  (23) 
99.51841909625149

>  <Genealogy>  (23) 
C=c1[nH]c(=Cc2c(O)[n-]c(=O)[n-]c2=O)c(Cc2ccc([O-])cc2)c1C(=O)N=CCN(C)C (protonated)
C=c1[nH]/c(=C/c2c(O)[n-]c(=O)[n-]c2=O)c(Cc2ccc([O-])cc2)c1C(=O)N=CCN(C)C (cis-trans isomerization)
C=c1[nH]/c(=C/c2c(O)[n-]c(=O)[n-]c2=O)c(Cc2ccc([O-])cc2)c1C(=O)N=CCN(C)C (3D coordinates assigned)
C=c1[nH]/c(=C/c2c(O)[n-]c(=O)[n-]c2=O)c(Cc2ccc([O-])cc2)c1C(=O)N=CCN(C)C (optimized conformer: 99.51841909625149 kcal/mol)

>  <smiles>  (23) 
C=c1[nH]c(=Cc2c(O)[nH]c(=O)[nH]c2=O)c(Cc2ccc(O)cc2)c1C(=O)N=CCN(C)C

>  <score_type>  (23) 
oracle

>  <origin>  (23) 
adg

>  <m_score__min__energy>  (23) 
-13.289999999999999

>  <m_primary>  (23) 
energy

$$$$
23:0
     RDKit          3D

 33 35  0  0  0  0  0  0  0  0999 V2000
   55.1450   27.4690   45.5320 H   0  0  0  0  0  0  0  0  0  0  0  0
   54.9230   26.6170   46.0330 O   0  0  0  0  0  0  0  0  0  0  0  0
   55.9270   25.7250   46.3920 C   0  0  0  0  0  0  0  0  0  0  0  0
   55.7110   24.5920   47.0820 N   0  0  0  0  0  0  0  0  0  0  0  0
   56.9500   24.0670   47.1810 C   0  0  0  0  0  0  0  0  0  0  0  0
   57.1810   22.9790   47.7700 O   0  0  0  0  0  0  0  0  0  0  0  0
   57.9230   24.7990   46.5980 N   0  0  0  0  0  0  0  0  0  0  0  0
   57.2650   25.8620   46.1010 C   0  0  0  0  0  0  0  0  0  0  0  0
   57.8620   26.9690   45.3200 C   0  0  0  0  0  0  0  0  0  0  0  0
   58.0250   26.7945   44.2462 H   0  0  0  0  0  0  0  0  0  0  0  0
   58.2240   28.1740   45.8100 C   0  0  0  0  0  0  0  0  0  0  0  0
   58.9360   28.4280   46.9790 C   0  0  0  0  0  0  0  0  0  0  0  0
   59.3316   27.6797   47.6815 H   0  0  0  0  0  0  0  0  0  0  0  0
   59.0500   29.7990   47.0870 C   0  0  0  0  0  0  0  0  0  0  0  0
   59.7340   30.5040   48.2190 C   0  0  0  0  0  0  0  0  0  0  0  0
   59.3559   30.1143   49.1756 H   0  0  0  0  0  0  0  0  0  0  0  0
   60.8187   30.3322   48.1561 H   0  0  0  0  0  0  0  0  0  0  0  0
   59.5294   31.5830   48.1561 H   0  0  0  0  0  0  0  0  0  0  0  0
   58.4580   30.4080   46.0350 N   0  0  0  0  0  0  0  0  0  0  0  0
   58.3570   31.8290   45.8280 C   0  0  0  0  0  0  0  0  0  0  0  0
   57.1680   32.3770   45.4500 N   0  0  0  0  0  0  0  0  0  0  0  0
   57.0270   33.7130   45.2470 C   0  0  0  0  0  0  0  0  0  0  0  0
   56.0521   34.1221   44.9433 H   0  0  0  0  0  0  0  0  0  0  0  0
   58.1170   34.5680   45.4230 C   0  0  0  0  0  0  0  0  0  0  0  0
   58.0073   35.6505   45.2611 H   0  0  0  0  0  0  0  0  0  0  0  0
   59.3480   34.0320   45.8070 C   0  0  0  0  0  0  0  0  0  0  0  0
   60.2163   34.6924   45.9485 H   0  0  0  0  0  0  0  0  0  0  0  0
   59.4750   32.6570   46.0110 C   0  0  0  0  0  0  0  0  0  0  0  0
   60.4416   32.2269   46.3121 H   0  0  0  0  0  0  0  0  0  0  0  0
   57.9420   29.4280   45.2510 C   0  0  0  0  0  0  0  0  0  0  0  0
   57.2970   29.6580   44.0950 C   0  0  0  0  0  0  0  0  0  0  0  0
   57.1317   30.6905   43.7534 H   0  0  0  0  0  0  0  0  0  0  0  0
   56.9343   28.8138   43.4902 H   0  0  0  0  0  0  0  0  0  0  0  0
  1  2  1  0
  2  3  1  0
  3  4  1  0
  4  5  1  0
  5  6  2  0
  5  7  1  0
  7  8  1  0
  8  9  1  0
  9 10  1  0
  9 11  2  0
 11 12  1  0
 12 13  1  0
 12 14  2  0
 14 15  1  0
 15 16  1  0
 15 17  1  0
 15 18  1  0
 14 19  1  0
 19 20  1  0
 20 21  2  0
 21 22  1  0
 22 23  1  0
 22 24  2  0
 24 25  1  0
 24 26  1  0
 26 27  1  0
 26 28  2  0
 28 29  1  0
 19 30  1  0
 30 31  2  0
 31 32  1  0
 31 33  1  0
  8  3  2  0
 30 11  1  0
 28 20  1  0
M  CHG  2   4  -1   7  -1
M  END
>  <UniqueID>  (24) 
23

>  <SMILES>  (24) 
C=c1/c(=C/c2[n-]c(=O)[n-]c2O)cc(C)n1-c1ccccn1

>  <Energy>  (24) 
103.35229955508815

>  <Genealogy>  (24) 
C=c1c(=Cc2[n-]c(=O)[n-]c2O)cc(C)n1-c1ccccn1 (protonated)
C=c1/c(=C/c2[n-]c(=O)[n-]c2O)cc(C)n1-c1ccccn1 (cis-trans isomerization)
C=c1/c(=C/c2[n-]c(=O)[n-]c2O)cc(C)n1-c1ccccn1 (3D coordinates assigned)
C=c1/c(=C/c2[n-]c(=O)[n-]c2O)cc(C)n1-c1ccccn1 (optimized conformer: 103.35229955508815 kcal/mol)

>  <smiles>  (24) 
C=c1c(=Cc2[nH]c(=O)[nH]c2O)cc(C)n1-c1ccccn1

>  <score_type>  (24) 
oracle

>  <origin>  (24) 
adg

>  <m_score__min__energy>  (24) 
-12.199999999999999

>  <m_primary>  (24) 
energy

$$$$
24:0
     RDKit          3D

 63 66  0  0  0  0  0  0  0  0999 V2000
   54.6700   26.3410   45.9960 N   0  0  0  0  0  0  0  0  0  0  0  0
   55.8790   25.1980   45.5260 S   0  0  0  0  0  0  0  0  0  0  0  0
   56.5150   24.6080   46.7540 O   0  0  0  0  0  0  0  0  0  0  0  0
   55.2360   24.0970   44.7300 O   0  0  0  0  0  0  0  0  0  0  0  0
   57.0900   25.9740   44.5520 N   0  0  0  0  0  0  0  0  0  0  0  0
   58.4210   25.6240   45.0500 C   0  0  0  0  0  0  0  0  0  0  0  0
   58.9000   26.6840   46.0030 C   0  0  0  0  0  0  0  0  0  0  0  0
   60.2650   26.9950   46.0900 C   0  0  0  0  0  0  0  0  0  0  0  0
   60.7140   27.9590   46.9970 C   0  0  0  0  0  0  0  0  0  0  0  0
   59.8030   28.6150   47.8410 C   0  0  0  0  0  0  0  0  0  0  0  0
   60.2720   29.6780   48.7980 C   0  0  0  0  0  0  0  0  0  0  0  0
   60.3130   30.9770   48.1240 N   0  0  0  0  0  0  0  0  0  0  0  0
   59.2680   31.5830   47.5110 C   0  0  0  0  0  0  0  0  0  0  0  0
   59.6830   32.7650   46.9080 C   0  0  0  0  0  0  0  0  0  0  0  0
   58.8190   33.7490   46.1790 C   0  0  0  0  0  0  0  0  0  0  0  0
   57.5360   33.0720   45.6840 C   0  0  0  0  0  0  0  0  0  0  0  0
   57.4360   33.0930   44.1530 C   0  0  0  0  0  0  0  0  0  0  0  0
   58.0390   31.8730   43.5690 N   0  0  0  0  0  0  0  0  0  0  0  0
   58.5370   30.9430   44.6020 C   0  0  0  0  0  0  0  0  0  0  0  0
   57.3930   30.2830   45.3970 C   0  0  0  0  0  0  0  0  0  0  0  0
   56.1580   29.9700   44.5270 C   0  0  0  0  0  0  0  0  0  0  0  0
   55.5880   28.7560   44.9430 O   0  0  0  0  0  0  0  0  0  0  0  0
   56.5320   29.8920   43.0420 C   0  0  0  0  0  0  0  0  0  0  0  0
   57.1670   31.2140   42.5600 C   0  0  0  0  0  0  0  0  0  0  0  0
   61.0340   32.8730   47.1800 C   0  0  0  0  0  0  0  0  0  0  0  0
   61.9600   33.8570   46.8350 C   0  0  0  0  0  0  0  0  0  0  0  0
   63.2900   33.6830   47.2560 C   0  0  0  0  0  0  0  0  0  0  0  0
   63.6600   32.5450   48.0050 C   0  0  0  0  0  0  0  0  0  0  0  0
   62.7040   31.5700   48.3430 C   0  0  0  0  0  0  0  0  0  0  0  0
   61.3870   31.7660   47.9120 C   0  0  0  0  0  0  0  0  0  0  0  0
   58.4400   28.2920   47.7650 C   0  0  0  0  0  0  0  0  0  0  0  0
   57.9910   27.3280   46.8570 C   0  0  0  0  0  0  0  0  0  0  0  0
   55.1460   27.2660   46.0890 H   0  0  0  0  0  0  0  0  0  0  0  0
   56.9570   27.0050   44.6730 H   0  0  0  0  0  0  0  0  0  0  0  0
   58.3735   24.6571   45.5723 H   0  0  0  0  0  0  0  0  0  0  0  0
   59.1197   25.5524   44.2034 H   0  0  0  0  0  0  0  0  0  0  0  0
   60.9863   26.4772   45.4406 H   0  0  0  0  0  0  0  0  0  0  0  0
   61.7849   28.2048   47.0500 H   0  0  0  0  0  0  0  0  0  0  0  0
   59.5790   29.7319   49.6505 H   0  0  0  0  0  0  0  0  0  0  0  0
   61.2817   29.4238   49.1529 H   0  0  0  0  0  0  0  0  0  0  0  0
   58.2387   31.1955   47.4929 H   0  0  0  0  0  0  0  0  0  0  0  0
   58.5549   34.5724   46.8589 H   0  0  0  0  0  0  0  0  0  0  0  0
   59.3743   34.1368   45.3122 H   0  0  0  0  0  0  0  0  0  0  0  0
   57.5295   32.0269   46.0271 H   0  0  0  0  0  0  0  0  0  0  0  0
   56.6775   33.6265   46.0908 H   0  0  0  0  0  0  0  0  0  0  0  0
   56.3766   33.1464   43.8617 H   0  0  0  0  0  0  0  0  0  0  0  0
   57.9819   33.9706   43.7764 H   0  0  0  0  0  0  0  0  0  0  0  0
   59.1281   30.1548   44.1128 H   0  0  0  0  0  0  0  0  0  0  0  0
   59.1474   31.5228   45.3100 H   0  0  0  0  0  0  0  0  0  0  0  0
   57.7642   29.3426   45.8304 H   0  0  0  0  0  0  0  0  0  0  0  0
   57.0772   30.9957   46.1731 H   0  0  0  0  0  0  0  0  0  0  0  0
   55.4286   30.7840   44.6507 H   0  0  0  0  0  0  0  0  0  0  0  0
   56.1450   28.0290   44.5590 H   0  0  0  0  0  0  0  0  0  0  0  0
   57.2515   29.0730   42.8950 H   0  0  0  0  0  0  0  0  0  0  0  0
   55.6166   29.7107   42.4596 H   0  0  0  0  0  0  0  0  0  0  0  0
   57.7726   31.0007   41.6668 H   0  0  0  0  0  0  0  0  0  0  0  0
   56.3381   31.9078   42.3560 H   0  0  0  0  0  0  0  0  0  0  0  0
   61.6596   34.7404   46.2525 H   0  0  0  0  0  0  0  0  0  0  0  0
   64.0474   34.4386   47.0001 H   0  0  0  0  0  0  0  0  0  0  0  0
   64.7043   32.4197   48.3269 H   0  0  0  0  0  0  0  0  0  0  0  0
   62.9829   30.6811   48.9279 H   0  0  0  0  0  0  0  0  0  0  0  0
   57.7202   28.8001   48.4236 H   0  0  0  0  0  0  0  0  0  0  0  0
   56.9218   27.0735   46.8118 H   0  0  0  0  0  0  0  0  0  0  0  0
  1  2  1  0
  2  3  2  0
  2  4  2  0
  2  5  1  0
  5  6  1  0
  6  7  1  0
  7  8  2  0
  8  9  1  0
  9 10  2  0
 10 11  1  0
 11 12  1  0
 12 13  1  0
 13 14  2  0
 14 15  1  0
 15 16  1  0
 16 17  1  0
 17 18  1  0
 18 19  1  0
 19 20  1  0
 20 21  1  0
 21 22  1  0
 21 23  1  0
 23 24  1  0
 14 25  1  0
 25 26  2  0
 26 27  1  0
 27 28  2  0
 28 29  1  0
 29 30  2  0
 10 31  1  0
 31 32  2  0
 32  7  1  0
 30 12  1  0
 24 18  1  0
 30 25  1  0
  1 33  1  0
  5 34  1  0
  6 35  1  0
  6 36  1  0
  8 37  1  0
  9 38  1  0
 11 39  1  0
 11 40  1  0
 13 41  1  0
 15 42  1  0
 15 43  1  0
 16 44  1  0
 16 45  1  0
 17 46  1  0
 17 47  1  0
 19 48  1  0
 19 49  1  0
 20 50  1  0
 20 51  1  0
 21 52  1  0
 22 53  1  0
 23 54  1  0
 23 55  1  0
 24 56  1  0
 24 57  1  0
 26 58  1  0
 27 59  1  0
 28 60  1  0
 29 61  1  0
 31 62  1  0
 32 63  1  0
M  CHG  1   1  -1
M  END
>  <UniqueID>  (25) 
24

>  <SMILES>  (25) 
[NH-]S(=O)(=O)NCc1ccc(Cn2cc(CCCN3CCC(O)CC3)c3ccccc32)cc1

>  <Energy>  (25) 
95.94251348543419

>  <Genealogy>  (25) 
[NH-]S(=O)(=O)NCc1ccc(Cn2cc(CCCN3CCC(O)CC3)c3ccccc32)cc1 (protonated)
[NH-]S(=O)(=O)NCc1ccc(Cn2cc(CCCN3CCC(O)CC3)c3ccccc32)cc1 (3D coordinates assigned)
[NH-]S(=O)(=O)NCc1ccc(Cn2cc(CCCN3CCC(O)CC3)c3ccccc32)cc1 (nonaromatic ring conformer: 95.94251348543419 kcal/mol)

>  <smiles>  (25) 
NS(=O)(=O)NCc1ccc(Cn2cc(CCCN3CCC(O)CC3)c3ccccc32)cc1

>  <score_type>  (25) 
oracle

>  <origin>  (25) 
adg

>  <m_score__min__energy>  (25) 
-14.17

>  <m_primary>  (25) 
energy

$$$$
25:0
     RDKit          3D

 45 48  0  0  1  0  0  0  0  0999 V2000
   55.9730   29.3370   45.2520 O   0  0  0  0  0  0  0  0  0  0  0  0
   57.0240   30.0140   44.9960 C   0  0  0  0  0  0  0  0  0  0  0  0
   56.8110   31.3130   44.4570 N   0  0  0  0  0  0  0  0  0  0  0  0
   57.4340   32.2800   45.0510 C   0  0  0  0  0  0  0  0  0  0  0  0
   57.7120   33.4710   44.6050 N   0  0  0  0  0  0  0  0  0  0  0  0
   58.3590   34.3270   45.3600 C   0  0  0  0  0  0  0  0  0  0  0  0
   58.7350   33.9650   46.6040 C   0  0  0  0  0  0  0  0  0  0  0  0
   59.4390   34.5910   47.7040 C   0  0  0  0  0  0  0  0  0  0  0  0
   60.8690   34.1930   47.6880 C   0  0  0  0  0  0  0  0  0  0  0  0
   61.5480   33.8450   46.5390 C   0  0  0  0  0  0  0  0  0  0  0  0
   62.8800   33.4930   46.6550 C   0  0  0  0  0  0  0  0  0  0  0  0
   63.5200   33.4880   47.8930 C   0  0  0  0  0  0  0  0  0  0  0  0
   62.8460   33.8340   49.0390 C   0  0  0  0  0  0  0  0  0  0  0  0
   63.4310   33.8430   50.2710 F   0  0  0  0  0  0  0  0  0  0  0  0
   61.5180   34.1860   48.9270 C   0  0  0  0  0  0  0  0  0  0  0  0
   58.0940   32.1860   46.7300 S   0  0  0  0  0  0  0  0  0  0  0  0
   58.2810   29.4510   45.2540 N   0  0  0  0  0  0  0  0  0  0  0  0
   58.3270   28.1300   45.7980 C   0  0  0  0  0  0  0  0  0  0  0  0
   58.8350   27.8550   47.0500 C   0  0  0  0  0  0  0  0  0  0  0  0
   58.8190   26.5350   47.4520 C   0  0  0  0  0  0  0  0  0  0  0  0
   58.3330   25.5070   46.6810 C   0  0  0  0  0  0  0  0  0  0  0  0
   57.8340   25.8050   45.4400 C   0  0  0  0  0  0  0  0  0  0  0  0
   57.3110   24.7360   44.5980 C   0  0  0  0  0  0  0  0  0  0  0  0
   57.1170   23.4130   44.9280 C   0  0  0  0  0  0  0  0  0  0  0  0
   56.6000   22.7730   43.8050 C   0  0  0  0  0  0  0  0  0  0  0  0
   56.2960   21.5410   43.7370 O   0  0  0  0  0  0  0  0  0  0  0  0
   56.5040   23.7160   42.8610 N   0  0  0  0  0  0  0  0  0  0  0  0
   56.9210   24.8890   43.3100 N   0  0  0  0  0  0  0  0  0  0  0  0
   57.8230   27.1080   44.9850 C   0  0  0  0  0  0  0  0  0  0  0  0
   57.4050   33.7560   43.5980 H   0  0  0  0  0  0  0  0  0  0  0  0
   58.5932   35.3328   44.9813 H   0  0  0  0  0  0  0  0  0  0  0  0
   59.3647   35.6843   47.6082 H   0  0  0  0  0  0  0  0  0  0  0  0
   58.9859   34.2663   48.6523 H   0  0  0  0  0  0  0  0  0  0  0  0
   61.0453   33.8474   45.5606 H   0  0  0  0  0  0  0  0  0  0  0  0
   63.4448   33.2118   45.7539 H   0  0  0  0  0  0  0  0  0  0  0  0
   64.5807   33.2028   47.9534 H   0  0  0  0  0  0  0  0  0  0  0  0
   60.9571   34.4672   49.8305 H   0  0  0  0  0  0  0  0  0  0  0  0
   59.1370   30.0080   45.0420 H   0  0  0  0  0  0  0  0  0  0  0  0
   59.2339   28.6498   47.6974 H   0  0  0  0  0  0  0  0  0  0  0  0
   59.2186   26.2918   48.4476 H   0  0  0  0  0  0  0  0  0  0  0  0
   58.3441   24.4710   47.0505 H   0  0  0  0  0  0  0  0  0  0  0  0
   57.3314   22.9471   45.9011 H   0  0  0  0  0  0  0  0  0  0  0  0
   56.1430   23.5580   41.8790 H   0  0  0  0  0  0  0  0  0  0  0  0
   56.9280   25.7630   42.7290 H   0  0  0  0  0  0  0  0  0  0  0  0
   57.4202   27.3422   43.9885 H   0  0  0  0  0  0  0  0  0  0  0  0
  1  2  2  0
  2  3  1  0
  3  4  2  0
  4  5  1  0
  5  6  1  0
  6  7  2  0
  7  8  1  0
  8  9  1  0
  9 10  2  0
 10 11  1  0
 11 12  2  0
 12 13  1  0
 13 14  1  0
 13 15  2  0
  7 16  1  0
  2 17  1  0
 17 18  1  0
 18 19  2  0
 19 20  1  0
 20 21  2  0
 21 22  1  0
 22 23  1  0
 23 24  2  0
 24 25  1  0
 25 26  2  0
 25 27  1  0
 27 28  1  0
 22 29  2  0
 16  4  1  0
 29 18  1  0
 15  9  1  0
 28 23  1  0
  5 30  1  0
  6 31  1  0
  8 32  1  0
  8 33  1  0
 10 34  1  0
 11 35  1  0
 12 36  1  0
 15 37  1  0
 17 38  1  0
 19 39  1  0
 20 40  1  0
 21 41  1  0
 24 42  1  0
 27 43  1  0
 28 44  1  0
 29 45  1  0
M  END
>  <smiles>  (26) 
O=C(N=c1[nH]cc(Cc2cccc(F)c2)s1)Nc1cccc(-c2cc(=O)[nH][nH]2)c1

>  <score_type>  (26) 
oracle

>  <origin>  (26) 
adg

>  <m_score__min__energy>  (26) 
-10.140000000000001

>  <m_primary>  (26) 
energy

$$$$
26:0
     RDKit          3D

 31 32  0  0  0  0  0  0  0  0999 V2000
   54.8270   26.0300   45.9950 N   0  0  0  0  0  0  0  0  0  0  0  0
   56.4810   25.5900   46.2390 S   0  0  0  0  0  0  0  0  0  0  0  0
   56.7020   25.3480   47.7060 O   0  0  0  0  0  0  0  0  0  0  0  0
   56.7730   24.3300   45.4730 O   0  0  0  0  0  0  0  0  0  0  0  0
   57.5560   26.8740   45.6810 C   0  0  0  0  0  0  0  0  0  0  0  0
   57.0220   28.0490   45.1290 C   0  0  0  0  0  0  0  0  0  0  0  0
   57.8690   29.0740   44.6860 C   0  0  0  0  0  0  0  0  0  0  0  0
   57.2000   30.5570   44.0140 S   0  0  0  0  0  0  0  0  0  0  0  0
   56.7030   30.2800   42.6230 O   0  0  0  0  0  0  0  0  0  0  0  0
   56.0550   31.0530   44.8530 O   0  0  0  0  0  0  0  0  0  0  0  0
   58.4240   31.7830   43.9460 N   0  0  0  0  0  0  0  0  0  0  0  0
   58.6020   32.8340   44.9080 C   0  0  0  0  0  0  0  0  0  0  0  0
   59.0990   34.0980   44.5360 C   0  0  0  0  0  0  0  0  0  0  0  0
   59.2570   35.1040   45.4930 C   0  0  0  0  0  0  0  0  0  0  0  0
   58.9250   34.8620   46.8260 C   0  0  0  0  0  0  0  0  0  0  0  0
   58.4350   33.6110   47.2070 C   0  0  0  0  0  0  0  0  0  0  0  0
   58.2720   32.5950   46.2570 C   0  0  0  0  0  0  0  0  0  0  0  0
   57.7790   31.3590   46.6770 O   0  0  0  0  0  0  0  0  0  0  0  0
   59.2570   28.9170   44.7810 C   0  0  0  0  0  0  0  0  0  0  0  0
   59.7950   27.7450   45.3200 C   0  0  0  0  0  0  0  0  0  0  0  0
   58.9520   26.7240   45.7670 C   0  0  0  0  0  0  0  0  0  0  0  0
   59.5090   25.5630   46.2920 O   0  0  0  0  0  0  0  0  0  0  0  0
   54.8130   26.7740   45.2620 H   0  0  0  0  0  0  0  0  0  0  0  0
   55.9316   28.1660   45.0436 H   0  0  0  0  0  0  0  0  0  0  0  0
   59.3642   34.2945   43.4867 H   0  0  0  0  0  0  0  0  0  0  0  0
   59.6442   36.0893   45.1943 H   0  0  0  0  0  0  0  0  0  0  0  0
   59.0491   35.6563   47.5768 H   0  0  0  0  0  0  0  0  0  0  0  0
   58.1756   33.4226   48.2592 H   0  0  0  0  0  0  0  0  0  0  0  0
   57.0530   30.8650   46.1720 H   0  0  0  0  0  0  0  0  0  0  0  0
   59.9253   29.7175   44.4308 H   0  0  0  0  0  0  0  0  0  0  0  0
   60.8861   27.6258   45.3926 H   0  0  0  0  0  0  0  0  0  0  0  0
  1  2  1  0
  2  3  2  0
  2  4  2  0
  2  5  1  0
  5  6  2  0
  6  7  1  0
  7  8  1  0
  8  9  2  0
  8 10  2  0
  8 11  1  0
 11 12  1  0
 12 13  2  0
 13 14  1  0
 14 15  2  0
 15 16  1  0
 16 17  2  0
 17 18  1  0
  7 19  2  0
 19 20  1  0
 20 21  2  0
 21 22  1  0
 21  5  1  0
 17 12  1  0
  1 23  1  0
  6 24  1  0
 13 25  1  0
 14 26  1  0
 15 27  1  0
 16 28  1  0
 18 29  1  0
 19 30  1  0
 20 31  1  0
M  CHG  3   1  -1  11  -1  22  -1
M  END
>  <UniqueID>  (27) 
25

>  <SMILES>  (27) 
[NH-]S(=O)(=O)c1cc(S(=O)(=O)[N-]c2ccccc2O)ccc1[O-]

>  <Energy>  (27) 
35.771880156313024

>  <Genealogy>  (27) 
[NH-]S(=O)(=O)c1cc(S(=O)(=O)[N-]c2ccccc2O)ccc1[O-] (protonated)
[NH-]S(=O)(=O)c1cc(S(=O)(=O)[N-]c2ccccc2O)ccc1[O-] (3D coordinates assigned)
[NH-]S(=O)(=O)c1cc(S(=O)(=O)[N-]c2ccccc2O)ccc1[O-] (optimized conformer: 35.771880156313024 kcal/mol)

>  <smiles>  (27) 
NS(=O)(=O)c1cc(S(=O)(=O)Nc2ccccc2O)ccc1O

>  <score_type>  (27) 
oracle

>  <origin>  (27) 
adg

>  <m_score__min__energy>  (27) 
-13.44

>  <m_primary>  (27) 
energy

$$$$
27:0
     RDKit          3D

 39 40  0  0  0  0  0  0  0  0999 V2000
   57.9910   33.9500   44.6270 O   0  0  0  0  0  0  0  0  0  0  0  0
   57.9650   33.0450   45.5030 C   0  0  0  0  0  0  0  0  0  0  0  0
   58.5430   33.3280   46.8310 C   0  0  0  0  0  0  0  0  0  0  0  0
   59.4970   34.2390   47.0820 C   0  0  0  0  0  0  0  0  0  0  0  0
   60.8970   33.9320   47.4470 C   0  0  0  0  0  0  0  0  0  0  0  0
   61.8540   33.7900   46.4300 C   0  0  0  0  0  0  0  0  0  0  0  0
   63.1820   33.4880   46.7490 C   0  0  0  0  0  0  0  0  0  0  0  0
   63.5590   33.3080   48.0830 C   0  0  0  0  0  0  0  0  0  0  0  0
   62.6060   33.4170   49.0990 C   0  0  0  0  0  0  0  0  0  0  0  0
   61.2780   33.7160   48.7840 C   0  0  0  0  0  0  0  0  0  0  0  0
   57.3080   31.7950   45.2310 N   0  0  0  0  0  0  0  0  0  0  0  0
   57.0620   31.3000   43.9070 C   0  0  0  0  0  0  0  0  0  0  0  0
   57.4420   31.9510   42.8950 O   0  0  0  0  0  0  0  0  0  0  0  0
   56.3750   29.9820   43.7180 C   0  0  0  0  0  0  0  0  0  0  0  0
   56.0690   29.3710   45.0120 N   0  0  0  0  0  0  0  0  0  0  0  0
   57.2810   28.2050   45.4560 S   0  0  0  0  0  0  0  0  0  0  0  0
   57.7980   27.5180   44.2210 O   0  0  0  0  0  0  0  0  0  0  0  0
   56.6640   27.1720   46.3570 O   0  0  0  0  0  0  0  0  0  0  0  0
   58.6000   28.9930   46.3190 C   0  0  0  0  0  0  0  0  0  0  0  0
   59.7070   29.5060   45.6250 C   0  0  0  0  0  0  0  0  0  0  0  0
   60.7400   30.1390   46.3230 C   0  0  0  0  0  0  0  0  0  0  0  0
   60.6730   30.2630   47.7140 C   0  0  0  0  0  0  0  0  0  0  0  0
   59.5710   29.7530   48.4090 C   0  0  0  0  0  0  0  0  0  0  0  0
   58.5360   29.1200   47.7130 C   0  0  0  0  0  0  0  0  0  0  0  0
   58.1619   32.7462   47.6833 H   0  0  0  0  0  0  0  0  0  0  0  0
   59.2144   35.2996   47.0103 H   0  0  0  0  0  0  0  0  0  0  0  0
   61.5585   33.9167   45.3780 H   0  0  0  0  0  0  0  0  0  0  0  0
   63.9308   33.3920   45.9489 H   0  0  0  0  0  0  0  0  0  0  0  0
   64.6058   33.0806   48.3329 H   0  0  0  0  0  0  0  0  0  0  0  0
   62.9016   33.2673   50.1479 H   0  0  0  0  0  0  0  0  0  0  0  0
   60.5270   33.7828   49.5850 H   0  0  0  0  0  0  0  0  0  0  0  0
   57.0100   31.2020   46.0390 H   0  0  0  0  0  0  0  0  0  0  0  0
   55.4391   30.1386   43.1617 H   0  0  0  0  0  0  0  0  0  0  0  0
   57.0427   29.3109   43.1577 H   0  0  0  0  0  0  0  0  0  0  0  0
   59.7619   29.4099   44.5306 H   0  0  0  0  0  0  0  0  0  0  0  0
   61.6066   30.5400   45.7770 H   0  0  0  0  0  0  0  0  0  0  0  0
   61.4864   30.7613   48.2618 H   0  0  0  0  0  0  0  0  0  0  0  0
   59.5185   29.8499   49.5035 H   0  0  0  0  0  0  0  0  0  0  0  0
   57.6698   28.7210   48.2612 H   0  0  0  0  0  0  0  0  0  0  0  0
  1  2  2  0
  2  3  1  0
  3  4  2  3
  4  5  1  0
  5  6  2  0
  6  7  1  0
  7  8  2  0
  8  9  1  0
  9 10  2  0
  2 11  1  0
 11 12  1  0
 12 13  2  0
 12 14  1  0
 14 15  1  0
 15 16  1  0
 16 17  2  0
 16 18  2  0
 16 19  1  0
 19 20  2  0
 20 21  1  0
 21 22  2  0
 22 23  1  0
 23 24  2  0
 10  5  1  0
 24 19  1  0
  3 25  1  0
  4 26  1  0
  6 27  1  0
  7 28  1  0
  8 29  1  0
  9 30  1  0
 10 31  1  0
 11 32  1  0
 14 33  1  0
 14 34  1  0
 20 35  1  0
 21 36  1  0
 22 37  1  0
 23 38  1  0
 24 39  1  0
M  CHG  1  15  -1
M  END
>  <UniqueID>  (28) 
26

>  <SMILES>  (28) 
O=C(C=Cc1ccccc1)NC(=O)C[N-]S(=O)(=O)c1ccccc1

>  <Energy>  (28) 
45.18615188320145

>  <Genealogy>  (28) 
O=C(C=Cc1ccccc1)NC(=O)C[N-]S(=O)(=O)c1ccccc1 (protonated)
O=C(C=Cc1ccccc1)NC(=O)C[N-]S(=O)(=O)c1ccccc1 (3D coordinates assigned)
O=C(C=Cc1ccccc1)NC(=O)C[N-]S(=O)(=O)c1ccccc1 (optimized conformer: 45.18615188320145 kcal/mol)

>  <smiles>  (28) 
O=C(C=Cc1ccccc1)NC(=O)CNS(=O)(=O)c1ccccc1

>  <score_type>  (28) 
oracle

>  <origin>  (28) 
adg

>  <m_score__min__energy>  (28) 
-11.42

>  <m_primary>  (28) 
energy

$$$$
28:0
     RDKit          3D

 49 52  0  0  0  0  0  0  0  0999 V2000
   55.1450   30.8090   44.4380 O   0  0  0  0  0  0  0  0  0  0  0  0
   56.3920   30.6490   44.5000 C   0  0  0  0  0  0  0  0  0  0  0  0
   57.2480   31.7270   44.0900 N   0  0  0  0  0  0  0  0  0  0  0  0
   57.9840   32.6020   44.9610 C   0  0  0  0  0  0  0  0  0  0  0  0
   58.4250   33.8370   44.4690 C   0  0  0  0  0  0  0  0  0  0  0  0
   59.1750   34.6920   45.2830 C   0  0  0  0  0  0  0  0  0  0  0  0
   59.4880   34.3200   46.5940 C   0  0  0  0  0  0  0  0  0  0  0  0
   59.0250   33.1000   47.1060 C   0  0  0  0  0  0  0  0  0  0  0  0
   59.4750   32.5660   48.7220 S   0  0  0  0  0  0  0  0  0  0  0  0
   58.4040   31.6450   49.2370 O   0  0  0  0  0  0  0  0  0  0  0  0
   59.5750   33.7500   49.6450 O   0  0  0  0  0  0  0  0  0  0  0  0
   61.0120   31.7280   48.6220 N   0  0  0  0  0  0  0  0  0  0  0  0
   61.9450   32.1810   49.6750 C   0  0  0  0  0  0  0  0  0  0  0  0
   62.4990   33.5930   49.4150 C   0  0  0  0  0  0  0  0  0  0  0  0
   62.8650   33.8350   47.9380 C   0  0  0  0  0  0  0  0  0  0  0  0
   62.9130   32.5350   47.1380 C   0  0  0  0  0  0  0  0  0  0  0  0
   61.5740   31.7860   47.2420 C   0  0  0  0  0  0  0  0  0  0  0  0
   58.2540   32.2590   46.2980 C   0  0  0  0  0  0  0  0  0  0  0  0
   56.9270   29.3560   44.9740 C   0  0  0  0  0  0  0  0  0  0  0  0
   58.3060   29.1430   45.1040 C   0  0  0  0  0  0  0  0  0  0  0  0
   58.7730   27.9340   45.6310 C   0  0  0  0  0  0  0  0  0  0  0  0
   60.1480   27.7130   45.8010 C   0  0  0  0  0  0  0  0  0  0  0  0
   60.6030   26.5160   46.3600 C   0  0  0  0  0  0  0  0  0  0  0  0
   59.6930   25.5300   46.7460 C   0  0  0  0  0  0  0  0  0  0  0  0
   58.3210   25.7310   46.5690 C   0  0  0  0  0  0  0  0  0  0  0  0
   57.8480   26.9330   46.0110 C   0  0  0  0  0  0  0  0  0  0  0  0
   56.4740   27.1740   45.8220 C   0  0  0  0  0  0  0  0  0  0  0  0
   55.6150   26.3030   46.1250 O   0  0  0  0  0  0  0  0  0  0  0  0
   56.0590   28.3650   45.3150 N   0  0  0  0  0  0  0  0  0  0  0  0
   58.1806   34.1355   43.4389 H   0  0  0  0  0  0  0  0  0  0  0  0
   59.5197   35.6601   44.8906 H   0  0  0  0  0  0  0  0  0  0  0  0
   60.0976   34.9848   47.2236 H   0  0  0  0  0  0  0  0  0  0  0  0
   60.7960   30.7250   48.8330 H   0  0  0  0  0  0  0  0  0  0  0  0
   61.4132   32.1841   50.6379 H   0  0  0  0  0  0  0  0  0  0  0  0
   62.7983   31.4869   49.6818 H   0  0  0  0  0  0  0  0  0  0  0  0
   61.7369   34.3285   49.7121 H   0  0  0  0  0  0  0  0  0  0  0  0
   63.4225   33.6970   50.0035 H   0  0  0  0  0  0  0  0  0  0  0  0
   62.1115   34.4996   47.4901 H   0  0  0  0  0  0  0  0  0  0  0  0
   63.8664   34.2892   47.9070 H   0  0  0  0  0  0  0  0  0  0  0  0
   63.1162   32.7675   46.0822 H   0  0  0  0  0  0  0  0  0  0  0  0
   63.7096   31.8960   47.5469 H   0  0  0  0  0  0  0  0  0  0  0  0
   60.8441   32.2923   46.5932 H   0  0  0  0  0  0  0  0  0  0  0  0
   61.7679   30.7475   46.9356 H   0  0  0  0  0  0  0  0  0  0  0  0
   57.8551   31.3210   46.7115 H   0  0  0  0  0  0  0  0  0  0  0  0
   59.0175   29.9222   44.7933 H   0  0  0  0  0  0  0  0  0  0  0  0
   60.8697   28.4841   45.4934 H   0  0  0  0  0  0  0  0  0  0  0  0
   61.6818   26.3499   46.4964 H   0  0  0  0  0  0  0  0  0  0  0  0
   60.0568   24.5920   47.1908 H   0  0  0  0  0  0  0  0  0  0  0  0
   57.6090   24.9472   46.8668 H   0  0  0  0  0  0  0  0  0  0  0  0
  1  2  2  0
  2  3  1  0
  3  4  1  0
  4  5  2  0
  5  6  1  0
  6  7  2  0
  7  8  1  0
  8  9  1  0
  9 10  2  0
  9 11  2  0
  9 12  1  0
 12 13  1  0
 13 14  1  0
 14 15  1  0
 15 16  1  0
 16 17  1  0
  8 18  2  0
  2 19  1  0
 19 20  2  0
 20 21  1  0
 21 22  2  0
 22 23  1  0
 23 24  2  0
 24 25  1  0
 25 26  2  0
 26 27  1  0
 27 28  2  0
 27 29  1  0
 18  4  1  0
 29 19  1  0
 17 12  1  0
 26 21  1  0
  5 30  1  0
  6 31  1  0
  7 32  1  0
 12 33  1  0
 13 34  1  0
 13 35  1  0
 14 36  1  0
 14 37  1  0
 15 38  1  0
 15 39  1  0
 16 40  1  0
 16 41  1  0
 17 42  1  0
 17 43  1  0
 18 44  1  0
 20 45  1  0
 22 46  1  0
 23 47  1  0
 24 48  1  0
 25 49  1  0
M  CHG  3   3  -1  12   1  29  -1
M  END
>  <UniqueID>  (29) 
27

>  <SMILES>  (29) 
O=C([N-]c1cccc(S(=O)(=O)[NH+]2CCCCC2)c1)c1cc2ccccc2c(=O)[n-]1

>  <Energy>  (29) 
66.82968573386454

>  <Genealogy>  (29) 
O=C([N-]c1cccc(S(=O)(=O)[NH+]2CCCCC2)c1)c1cc2ccccc2c(=O)[n-]1 (protonated)
O=C([N-]c1cccc(S(=O)(=O)[NH+]2CCCCC2)c1)c1cc2ccccc2c(=O)[n-]1 (3D coordinates assigned)
O=C([N-]c1cccc(S(=O)(=O)[NH+]2CCCCC2)c1)c1cc2ccccc2c(=O)[n-]1 (nonaromatic ring conformer: 66.82968573386454 kcal/mol)

>  <smiles>  (29) 
O=C(Nc1cccc(S(=O)(=O)N2CCCCC2)c1)c1cc2ccccc2c(=O)[nH]1

>  <score_type>  (29) 
oracle

>  <origin>  (29) 
adg

>  <m_score__min__energy>  (29) 
-12.4

>  <m_primary>  (29) 
energy

$$$$
29:0
     RDKit          3D

 46 48  0  0  0  0  0  0  0  0999 V2000
   50.0030   34.2340   51.9940 H   0  0  0  0  0  0  0  0  0  0  0  0
   49.9590   33.2690   52.3910 N   0  0  0  0  0  0  0  0  0  0  0  0
   50.8310   32.3680   52.0770 C   0  0  0  0  0  0  0  0  0  0  0  0
   50.8330   31.8380   50.8120 N   0  0  0  0  0  0  0  0  0  0  0  0
   51.7380   30.8830   50.4440 C   0  0  0  0  0  0  0  0  0  0  0  0
   51.7290   30.4030   49.2810 O   0  0  0  0  0  0  0  0  0  0  0  0
   52.6600   30.4680   51.3930 C   0  0  0  0  0  0  0  0  0  0  0  0
   53.6350   29.5560   51.2900 N   0  0  0  0  0  0  0  0  0  0  0  0
   54.1940   29.5880   52.5330 C   0  0  0  0  0  0  0  0  0  0  0  0
   55.3400   28.7030   52.9550 C   0  0  0  0  0  0  0  0  0  0  0  0
   55.0199   28.1267   53.8356 H   0  0  0  0  0  0  0  0  0  0  0  0
   55.5793   28.0739   52.0850 H   0  0  0  0  0  0  0  0  0  0  0  0
   56.6500   29.4550   53.3210 C   0  0  1  0  0  0  0  0  0  0  0  0
   57.3605   28.6448   53.5421 H   0  0  0  0  0  0  0  0  0  0  0  0
   57.3120   30.2380   52.1870 C   0  0  0  0  0  0  0  0  0  0  0  0
   58.4170   29.7600   51.4520 C   0  0  0  0  0  0  0  0  0  0  0  0
   58.8462   28.7764   51.6935 H   0  0  0  0  0  0  0  0  0  0  0  0
   58.9730   30.5220   50.4200 C   0  0  0  0  0  0  0  0  0  0  0  0
   59.8313   30.1288   49.8554 H   0  0  0  0  0  0  0  0  0  0  0  0
   58.4480   31.7840   50.0960 C   0  0  0  0  0  0  0  0  0  0  0  0
   59.0280   32.6060   49.0020 C   0  0  0  0  0  0  0  0  0  0  0  0
   60.0270   33.3360   49.2550 O   0  0  0  0  0  0  0  0  0  0  0  0
   58.4900   32.5630   47.6550 N   0  0  2  0  0  0  0  0  0  0  0  0
   57.4880   32.8650   47.6640 H   0  0  0  0  0  0  0  0  0  0  0  0
   58.5350   31.2050   47.1670 C   0  0  0  0  0  0  0  0  0  0  0  0
   59.2645   30.5007   47.5934 H   0  0  0  0  0  0  0  0  0  0  0  0
   57.7750   30.8250   46.2870 O   0  0  0  0  0  0  0  0  0  0  0  0
   59.2160   33.4630   46.7300 C   0  0  0  0  0  0  0  0  0  0  0  0
   59.4945   34.3792   47.2713 H   0  0  0  0  0  0  0  0  0  0  0  0
   60.1067   32.9299   46.3661 H   0  0  0  0  0  0  0  0  0  0  0  0
   58.3760   33.8400   45.5330 C   0  0  0  0  0  0  0  0  0  0  0  0
   58.8769   34.1231   44.5955 H   0  0  0  0  0  0  0  0  0  0  0  0
   57.0410   33.8390   45.5820 C   0  0  0  0  0  0  0  0  0  0  0  0
   56.4578   34.1188   44.6923 H   0  0  0  0  0  0  0  0  0  0  0  0
   56.5250   33.5584   46.5120 H   0  0  0  0  0  0  0  0  0  0  0  0
   57.3710   32.2780   50.8480 C   0  0  0  0  0  0  0  0  0  0  0  0
   56.9621   33.2743   50.6237 H   0  0  0  0  0  0  0  0  0  0  0  0
   56.8130   31.5180   51.8780 C   0  0  0  0  0  0  0  0  0  0  0  0
   55.9709   31.9254   52.4567 H   0  0  0  0  0  0  0  0  0  0  0  0
   56.4740   30.3320   54.5750 C   0  0  0  0  0  0  0  0  0  0  0  0
   56.5982   29.7130   55.4758 H   0  0  0  0  0  0  0  0  0  0  0  0
   57.2296   31.1314   54.5724 H   0  0  0  0  0  0  0  0  0  0  0  0
   55.4685   30.7779   54.5724 H   0  0  0  0  0  0  0  0  0  0  0  0
   53.6040   30.4630   53.3950 N   0  0  0  0  0  0  0  0  0  0  0  0
   52.6440   31.0000   52.6320 C   0  0  0  0  0  0  0  0  0  0  0  0
   51.7470   31.9460   53.0030 N   0  0  0  0  0  0  0  0  0  0  0  0
  1  2  1  0
  2  3  2  0
  3  4  1  0
  4  5  1  0
  5  6  2  0
  5  7  1  0
  7  8  1  0
  8  9  2  0
  9 10  1  0
 10 11  1  0
 10 12  1  0
 10 13  1  0
 13 14  1  1
 13 15  1  0
 15 16  2  0
 16 17  1  0
 16 18  1  0
 18 19  1  0
 18 20  2  0
 20 21  1  0
 21 22  2  0
 21 23  1  0
 23 24  1  1
 23 25  1  0
 25 26  1  0
 25 27  2  0
 23 28  1  0
 28 29  1  0
 28 30  1  0
 28 31  1  0
 31 32  1  0
 31 33  2  0
 33 34  1  0
 33 35  1  0
 20 36  1  0
 36 37  1  0
 36 38  2  0
 38 39  1  0
 13 40  1  0
 40 41  1  0
 40 42  1  0
 40 43  1  0
  9 44  1  0
 44 45  1  0
 45 46  1  0
 46  3  1  0
 45  7  2  0
 38 15  1  0
M  CHG  4   4  -1  23   1  44  -1  46  -1
M  END
>  <UniqueID>  (30) 
28

>  <SMILES>  (30) 
[H]/N=c1/[n-]c(=O)c2nc(CC(C)c3ccc(C(=O)[NH+](C=O)CC=C)cc3)[n-]c2[n-]1

>  <Energy>  (30) 
93.1397962062305

>  <Genealogy>  (30) 
C=CC[NH+](C=O)C(=O)c1ccc(C(C)Cc2nc3c(=O)[n-]c(=N)[n-]c3[n-]2)cc1 (protonated)
[H]/N=c1/[n-]c(=O)c2nc(CC(C)c3ccc(C(=O)[NH+](C=O)CC=C)cc3)[n-]c2[n-]1 (cis-trans isomerization)
[H]/N=c1/[n-]c(=O)c2nc(CC(C)c3ccc(C(=O)[NH+](C=O)CC=C)cc3)[n-]c2[n-]1 (3D coordinates assigned)
[H]/N=c1/[n-]c(=O)c2nc(CC(C)c3ccc(C(=O)[NH+](C=O)CC=C)cc3)[n-]c2[n-]1 (optimized conformer: 93.1397962062305 kcal/mol)

>  <smiles>  (30) 
C=CCN(C=O)C(=O)c1ccc(C(C)Cc2nc3c(=O)[nH]c(=N)[nH]c3[nH]2)cc1

>  <score_type>  (30) 
oracle

>  <origin>  (30) 
adg

>  <m_score__min__energy>  (30) 
-12.44

>  <m_primary>  (30) 
energy

$$$$
30:0
     RDKit          3D

 60 63  0  0  0  0  0  0  0  0999 V2000
   57.0220   24.2350   47.2300 C   0  0  0  0  0  0  0  0  0  0  0  0
   56.9370   25.5970   46.7060 N   0  0  0  0  0  0  0  0  0  0  0  0
   57.9290   26.5010   46.5810 C   0  0  0  0  0  0  0  0  0  0  0  0
   59.3610   26.2980   46.9850 C   0  0  0  0  0  0  0  0  0  0  0  0
   59.7120   27.1900   48.1460 C   0  0  0  0  0  0  0  0  0  0  0  0
   60.4070   26.6800   49.2520 C   0  0  0  0  0  0  0  0  0  0  0  0
   60.7620   27.5210   50.3080 C   0  0  0  0  0  0  0  0  0  0  0  0
   60.4220   28.8770   50.2780 C   0  0  0  0  0  0  0  0  0  0  0  0
   60.8410   29.6750   51.2920 F   0  0  0  0  0  0  0  0  0  0  0  0
   59.7080   29.4020   49.1830 C   0  0  0  0  0  0  0  0  0  0  0  0
   59.3440   30.8370   49.1150 C   0  0  0  0  0  0  0  0  0  0  0  0
   58.4570   31.2830   49.8950 O   0  0  0  0  0  0  0  0  0  0  0  0
   59.9980   31.7200   48.1870 N   0  0  0  0  0  0  0  0  0  0  0  0
   59.5530   33.0620   47.9300 C   0  0  0  0  0  0  0  0  0  0  0  0
   58.9130   33.6870   48.8200 O   0  0  0  0  0  0  0  0  0  0  0  0
   59.8560   33.7140   46.6750 N   0  0  0  0  0  0  0  0  0  0  0  0
   61.2310   34.1580   46.3930 C   0  0  0  0  0  0  0  0  0  0  0  0
   62.2020   33.5950   47.4000 C   0  0  0  0  0  0  0  0  0  0  0  0
   62.9180   32.4180   47.1190 C   0  0  0  0  0  0  0  0  0  0  0  0
   63.7850   31.8740   48.0710 C   0  0  0  0  0  0  0  0  0  0  0  0
   63.9530   32.5050   49.3070 C   0  0  0  0  0  0  0  0  0  0  0  0
   63.2570   33.6840   49.5900 C   0  0  0  0  0  0  0  0  0  0  0  0
   62.3880   34.2300   48.6410 C   0  0  0  0  0  0  0  0  0  0  0  0
   58.7870   34.0480   45.7160 C   0  0  0  0  0  0  0  0  0  0  0  0
   58.2480   32.8020   45.0590 C   0  0  0  0  0  0  0  0  0  0  0  0
   58.0310   32.7670   43.6710 C   0  0  0  0  0  0  0  0  0  0  0  0
   57.4850   31.6300   43.0680 C   0  0  0  0  0  0  0  0  0  0  0  0
   57.1590   30.5100   43.8460 C   0  0  0  0  0  0  0  0  0  0  0  0
   56.6110   29.3720   43.2570 O   0  0  0  0  0  0  0  0  0  0  0  0
   57.3880   30.5320   45.2250 C   0  0  0  0  0  0  0  0  0  0  0  0
   57.9320   31.6700   45.8300 C   0  0  0  0  0  0  0  0  0  0  0  0
   59.3670   28.5510   48.1170 C   0  0  0  0  0  0  0  0  0  0  0  0
   57.4300   27.6050   45.9180 C   0  0  0  0  0  0  0  0  0  0  0  0
   56.1290   27.4030   45.6180 N   0  0  0  0  0  0  0  0  0  0  0  0
   55.8750   26.1720   46.1060 C   0  0  0  0  0  0  0  0  0  0  0  0
   54.7520   25.6130   45.9930 O   0  0  0  0  0  0  0  0  0  0  0  0
   57.0202   24.2644   48.3296 H   0  0  0  0  0  0  0  0  0  0  0  0
   56.1585   23.6519   46.8774 H   0  0  0  0  0  0  0  0  0  0  0  0
   57.9513   23.7638   46.8774 H   0  0  0  0  0  0  0  0  0  0  0  0
   59.5095   25.2480   47.2772 H   0  0  0  0  0  0  0  0  0  0  0  0
   60.0103   26.5497   46.1335 H   0  0  0  0  0  0  0  0  0  0  0  0
   60.6734   25.6133   49.2875 H   0  0  0  0  0  0  0  0  0  0  0  0
   61.3126   27.1145   51.1691 H   0  0  0  0  0  0  0  0  0  0  0  0
   60.8640   31.3850   47.7120 H   0  0  0  0  0  0  0  0  0  0  0  0
   61.5190   33.8177   45.3874 H   0  0  0  0  0  0  0  0  0  0  0  0
   61.2625   35.2558   46.4541 H   0  0  0  0  0  0  0  0  0  0  0  0
   62.7952   31.9225   46.1446 H   0  0  0  0  0  0  0  0  0  0  0  0
   64.3357   30.9484   47.8473 H   0  0  0  0  0  0  0  0  0  0  0  0
   64.6327   32.0740   50.0568 H   0  0  0  0  0  0  0  0  0  0  0  0
   63.3934   34.1827   50.5609 H   0  0  0  0  0  0  0  0  0  0  0  0
   61.8469   35.1609   48.8660 H   0  0  0  0  0  0  0  0  0  0  0  0
   57.9703   34.5566   46.2492 H   0  0  0  0  0  0  0  0  0  0  0  0
   59.2039   34.7045   44.9380 H   0  0  0  0  0  0  0  0  0  0  0  0
   58.2925   33.6400   43.0549 H   0  0  0  0  0  0  0  0  0  0  0  0
   57.3110   31.6140   41.9820 H   0  0  0  0  0  0  0  0  0  0  0  0
   56.4360   28.5310   43.7950 H   0  0  0  0  0  0  0  0  0  0  0  0
   57.1397   29.6518   45.8362 H   0  0  0  0  0  0  0  0  0  0  0  0
   58.1134   31.6790   46.9149 H   0  0  0  0  0  0  0  0  0  0  0  0
   58.8238   28.9559   47.2504 H   0  0  0  0  0  0  0  0  0  0  0  0
   58.0044   28.5103   45.6720 H   0  0  0  0  0  0  0  0  0  0  0  0
  1  2  1  0
  2  3  1  0
  3  4  1  0
  4  5  1  0
  5  6  2  0
  6  7  1  0
  7  8  2  0
  8  9  1  0
  8 10  1  0
 10 11  1  0
 11 12  2  0
 11 13  1  0
 13 14  1  0
 14 15  2  0
 14 16  1  0
 16 17  1  0
 17 18  1  0
 18 19  2  0
 19 20  1  0
 20 21  2  0
 21 22  1  0
 22 23  2  0
 16 24  1  0
 24 25  1  0
 25 26  2  0
 26 27  1  0
 27 28  2  0
 28 29  1  0
 28 30  1  0
 30 31  2  0
 10 32  2  0
  3 33  2  0
 33 34  1  0
 34 35  1  0
 35 36  2  0
 35  2  1  0
 32  5  1  0
 23 18  1  0
 31 25  1  0
  1 37  1  0
  1 38  1  0
  1 39  1  0
  4 40  1  0
  4 41  1  0
  6 42  1  0
  7 43  1  0
 13 44  1  0
 17 45  1  0
 17 46  1  0
 19 47  1  0
 20 48  1  0
 21 49  1  0
 22 50  1  0
 23 51  1  0
 24 52  1  0
 24 53  1  0
 26 54  1  0
 27 55  1  0
 29 56  1  0
 30 57  1  0
 31 58  1  0
 32 59  1  0
 33 60  1  0
M  CHG  1  34  -1
M  END
>  <UniqueID>  (31) 
29

>  <SMILES>  (31) 
Cn1c(Cc2ccc(F)c(C(=O)NC(=O)N(Cc3ccccc3)Cc3ccc(O)cc3)c2)c[n-]c1=O

>  <Energy>  (31) 
94.79885664895218

>  <Genealogy>  (31) 
Cn1c(Cc2ccc(F)c(C(=O)NC(=O)N(Cc3ccccc3)Cc3ccc(O)cc3)c2)c[n-]c1=O (protonated)
Cn1c(Cc2ccc(F)c(C(=O)NC(=O)N(Cc3ccccc3)Cc3ccc(O)cc3)c2)c[n-]c1=O (3D coordinates assigned)
Cn1c(Cc2ccc(F)c(C(=O)NC(=O)N(Cc3ccccc3)Cc3ccc(O)cc3)c2)c[n-]c1=O (optimized conformer: 94.79885664895218 kcal/mol)

>  <smiles>  (31) 
Cn1c(Cc2ccc(F)c(C(=O)NC(=O)N(Cc3ccccc3)Cc3ccc(O)cc3)c2)c[nH]c1=O

>  <score_type>  (31) 
oracle

>  <origin>  (31) 
adg

>  <m_score__min__energy>  (31) 
-12.02

>  <m_primary>  (31) 
energy

$$$$
31:0
     RDKit          3D

 34 36  0  0  1  0  0  0  0  0999 V2000
   57.0280   32.8080   40.3390 C   0  0  0  0  0  0  0  0  0  0  0  0
   58.5360   32.3410   41.2450 S   0  0  0  0  0  0  0  0  0  0  0  0
   58.1410   32.3380   42.9870 C   0  0  0  0  0  0  0  0  0  0  0  0
   58.3020   33.4160   43.7690 N   0  0  0  0  0  0  0  0  0  0  0  0
   57.9970   33.3960   45.0900 C   0  0  0  0  0  0  0  0  0  0  0  0
   58.1820   34.5600   45.8860 N   0  0  0  0  0  0  0  0  0  0  0  0
   59.5070   34.9520   46.3190 C   0  0  0  0  0  0  0  0  0  0  0  0
   60.0090   34.5270   47.6560 C   0  0  0  0  0  0  0  0  0  0  0  0
   60.5320   33.8940   46.3600 C   0  0  0  0  0  0  0  0  0  0  0  0
   57.5050   32.2430   45.6680 C   0  0  0  0  0  0  0  0  0  0  0  0
   57.3510   31.1510   44.8390 C   0  0  0  0  0  0  0  0  0  0  0  0
   56.8940   30.0060   45.2750 N   0  0  0  0  0  0  0  0  0  0  0  0
   57.3170   28.7770   44.7100 C   0  0  0  0  0  0  0  0  0  0  0  0
   57.8990   28.3310   43.7000 N   0  0  0  0  0  0  0  0  0  0  0  0
   58.1590   27.0940   43.4450 C   0  0  0  0  0  0  0  0  0  0  0  0
   57.7590   26.1590   44.3750 C   0  0  0  0  0  0  0  0  0  0  0  0
   57.8990   24.6900   44.3870 C   0  0  0  0  0  0  0  0  0  0  0  0
   56.9810   27.1620   45.6470 S   0  0  0  0  0  0  0  0  0  0  0  0
   57.6610   31.1990   43.5290 N   0  0  0  0  0  0  0  0  0  0  0  0
   56.2311   33.0548   41.0560 H   0  0  0  0  0  0  0  0  0  0  0  0
   57.2365   33.6837   39.7067 H   0  0  0  0  0  0  0  0  0  0  0  0
   56.7051   31.9678   39.7067 H   0  0  0  0  0  0  0  0  0  0  0  0
   57.3620   35.1430   46.1630 H   0  0  0  0  0  0  0  0  0  0  0  0
   59.4163   35.9358   45.8355 H   0  0  0  0  0  0  0  0  0  0  0  0
   60.6527   35.1966   48.2453 H   0  0  0  0  0  0  0  0  0  0  0  0
   59.5546   34.1557   48.5864 H   0  0  0  0  0  0  0  0  0  0  0  0
   61.5559   34.1041   46.0173 H   0  0  0  0  0  0  0  0  0  0  0  0
   60.6139   32.8694   45.9682 H   0  0  0  0  0  0  0  0  0  0  0  0
   57.2484   32.1971   46.7367 H   0  0  0  0  0  0  0  0  0  0  0  0
   58.6791   26.7971   42.5223 H   0  0  0  0  0  0  0  0  0  0  0  0
   57.9330   24.3334   45.4270 H   0  0  0  0  0  0  0  0  0  0  0  0
   57.0401   24.2356   43.8715 H   0  0  0  0  0  0  0  0  0  0  0  0
   58.8283   24.4060   43.8715 H   0  0  0  0  0  0  0  0  0  0  0  0
   57.5330   30.3480   42.9200 H   0  0  0  0  0  0  0  0  0  0  0  0
  1  2  1  0
  2  3  1  0
  3  4  2  0
  4  5  1  0
  5  6  1  0
  6  7  1  0
  7  8  1  0
  8  9  1  0
  5 10  2  0
 10 11  1  0
 11 12  2  0
 12 13  1  0
 13 14  2  0
 14 15  1  0
 15 16  2  0
 16 17  1  0
 16 18  1  0
 11 19  1  0
 19  3  1  0
  9  7  1  0
 18 13  1  0
  1 20  1  0
  1 21  1  0
  1 22  1  0
  6 23  1  0
  7 24  1  0
  8 25  1  0
  8 26  1  0
  9 27  1  0
  9 28  1  0
 10 29  1  0
 15 30  1  0
 17 31  1  0
 17 32  1  0
 17 33  1  0
 19 34  1  0
M  END
>  <smiles>  (32) 
CSc1nc(NC2CC2)cc(=Nc2ncc(C)s2)[nH]1

>  <score_type>  (32) 
oracle

>  <origin>  (32) 
adg

>  <m_score__min__energy>  (32) 
-6.46

>  <m_primary>  (32) 
energy

$$$$
32:0
     RDKit          3D

 42 44  0  0  0  0  0  0  0  0999 V2000
   58.1710   29.2750   46.6860 O   0  0  0  0  0  0  0  0  0  0  0  0
   57.8070   28.2820   45.9990 C   0  0  0  0  0  0  0  0  0  0  0  0
   58.1760   28.2340   44.5350 C   0  0  0  0  0  0  0  0  0  0  0  0
   57.1630   28.9700   43.6410 C   0  0  0  0  0  0  0  0  0  0  0  0
   56.2150   29.8310   44.4400 C   0  0  0  0  0  0  0  0  0  0  0  0
   55.1440   29.3170   44.8710 O   0  0  0  0  0  0  0  0  0  0  0  0
   56.4810   31.2140   44.7260 N   0  0  0  0  0  0  0  0  0  0  0  0
   57.5620   32.0220   44.1670 C   0  0  0  0  0  0  0  0  0  0  0  0
   58.1690   32.9090   45.2280 C   0  0  0  0  0  0  0  0  0  0  0  0
   58.7740   34.1260   44.8750 C   0  0  0  0  0  0  0  0  0  0  0  0
   59.3600   34.9340   45.8590 C   0  0  0  0  0  0  0  0  0  0  0  0
   59.3290   34.5440   47.2010 C   0  0  0  0  0  0  0  0  0  0  0  0
   58.7050   33.3440   47.5650 C   0  0  0  0  0  0  0  0  0  0  0  0
   58.6620   32.9460   48.9010 O   0  0  0  0  0  0  0  0  0  0  0  0
   58.1210   32.5340   46.5810 C   0  0  0  0  0  0  0  0  0  0  0  0
   57.2360   27.1550   46.6800 N   0  0  0  0  0  0  0  0  0  0  0  0
   56.5910   26.1530   46.1570 C   0  0  0  0  0  0  0  0  0  0  0  0
   55.2430   26.1320   46.0880 N   0  0  0  0  0  0  0  0  0  0  0  0
   54.7860   25.0200   45.4480 C   0  0  0  0  0  0  0  0  0  0  0  0
   53.3210   24.7520   45.2870 C   0  0  0  0  0  0  0  0  0  0  0  0
   53.0310   23.3100   45.5460 C   0  0  0  0  0  0  0  0  0  0  0  0
   52.0880   22.6100   44.8840 N   0  0  0  0  0  0  0  0  0  0  0  0
   52.0860   21.3960   45.4040 N   0  0  0  0  0  0  0  0  0  0  0  0
   53.0230   21.4000   46.3680 C   0  0  0  0  0  0  0  0  0  0  0  0
   53.2910   20.3940   47.0780 O   0  0  0  0  0  0  0  0  0  0  0  0
   53.6450   22.5840   46.5050 N   0  0  0  0  0  0  0  0  0  0  0  0
   55.7730   24.1400   45.0040 C   0  0  0  0  0  0  0  0  0  0  0  0
   57.2680   24.7960   45.4120 S   0  0  0  0  0  0  0  0  0  0  0  0
   59.1634   28.7012   44.4058 H   0  0  0  0  0  0  0  0  0  0  0  0
   58.1817   27.1774   44.2291 H   0  0  0  0  0  0  0  0  0  0  0  0
   57.7131   29.6100   42.9354 H   0  0  0  0  0  0  0  0  0  0  0  0
   56.5660   28.2117   43.1132 H   0  0  0  0  0  0  0  0  0  0  0  0
   58.3397   31.3561   43.7648 H   0  0  0  0  0  0  0  0  0  0  0  0
   57.1521   32.6567   43.3675 H   0  0  0  0  0  0  0  0  0  0  0  0
   58.7881   34.4463   43.8228 H   0  0  0  0  0  0  0  0  0  0  0  0
   59.8462   35.8787   45.5741 H   0  0  0  0  0  0  0  0  0  0  0  0
   59.7939   35.1785   47.9699 H   0  0  0  0  0  0  0  0  0  0  0  0
   58.6570   31.9670   49.1660 H   0  0  0  0  0  0  0  0  0  0  0  0
   57.6214   31.5977   46.8705 H   0  0  0  0  0  0  0  0  0  0  0  0
   52.7575   25.3703   46.0012 H   0  0  0  0  0  0  0  0  0  0  0  0
   53.0207   25.0003   44.2583 H   0  0  0  0  0  0  0  0  0  0  0  0
   55.6042   23.1873   44.4806 H   0  0  0  0  0  0  0  0  0  0  0  0
  1  2  2  0
  2  3  1  0
  3  4  1  0
  4  5  1  0
  5  6  2  0
  5  7  1  0
  7  8  1  0
  8  9  1  0
  9 10  2  0
 10 11  1  0
 11 12  2  0
 12 13  1  0
 13 14  1  0
 13 15  2  0
  2 16  1  0
 16 17  2  3
 17 18  1  0
 18 19  1  0
 19 20  1  0
 20 21  1  0
 21 22  2  0
 22 23  1  0
 23 24  1  0
 24 25  2  0
 24 26  1  0
 19 27  2  0
 27 28  1  0
 15  9  1  0
 28 17  1  0
 26 21  1  0
  3 29  1  0
  3 30  1  0
  4 31  1  0
  4 32  1  0
  8 33  1  0
  8 34  1  0
 10 35  1  0
 11 36  1  0
 12 37  1  0
 14 38  1  0
 15 39  1  0
 20 40  1  0
 20 41  1  0
 27 42  1  0
M  CHG  4   7  -1  18  -1  23  -1  26  -1
M  END
>  <UniqueID>  (33) 
30

>  <SMILES>  (33) 
O=C(CCC(=O)[N-]Cc1cccc(O)c1)N=c1[n-]c(Cc2n[n-]c(=O)[n-]2)cs1

>  <Energy>  (33) 
108.21269609888184

>  <Genealogy>  (33) 
O=C(CCC(=O)[N-]Cc1cccc(O)c1)N=c1[n-]c(Cc2n[n-]c(=O)[n-]2)cs1 (protonated)
O=C(CCC(=O)[N-]Cc1cccc(O)c1)N=c1[n-]c(Cc2n[n-]c(=O)[n-]2)cs1 (3D coordinates assigned)
O=C(CCC(=O)[N-]Cc1cccc(O)c1)N=c1[n-]c(Cc2n[n-]c(=O)[n-]2)cs1 (optimized conformer: 108.21269609888184 kcal/mol)

>  <smiles>  (33) 
O=C(CCC(=O)NCc1cccc(O)c1)N=c1[nH]c(Cc2n[nH]c(=O)[nH]2)cs1

>  <score_type>  (33) 
oracle

>  <origin>  (33) 
adg

>  <m_score__min__energy>  (33) 
-15.59

>  <m_primary>  (33) 
energy

$$$$
33:0
     RDKit          3D

 41 42  0  0  0  0  0  0  0  0999 V2000
   57.5490   24.5850   47.0540 C   0  0  0  0  0  0  0  0  0  0  0  0
   58.6300   24.6100   45.6390 S   0  0  0  0  0  0  0  0  0  0  0  0
   59.5210   23.4010   45.6480 O   0  0  0  0  0  0  0  0  0  0  0  0
   57.7900   24.5880   44.3930 O   0  0  0  0  0  0  0  0  0  0  0  0
   59.5750   26.0380   45.6400 O   0  0  0  0  0  0  0  0  0  0  0  0
   59.0710   27.3440   45.7390 C   0  0  0  0  0  0  0  0  0  0  0  0
   59.6070   28.3030   46.6130 C   0  0  0  0  0  0  0  0  0  0  0  0
   59.0590   29.5860   46.6730 C   0  0  0  0  0  0  0  0  0  0  0  0
   57.9600   29.9330   45.8680 C   0  0  0  0  0  0  0  0  0  0  0  0
   57.4120   31.2250   45.9130 O   0  0  0  0  0  0  0  0  0  0  0  0
   58.1420   32.4210   45.8580 C   0  0  0  0  0  0  0  0  0  0  0  0
   57.7540   33.4030   44.9420 C   0  0  0  0  0  0  0  0  0  0  0  0
   58.4430   34.6160   44.8720 C   0  0  0  0  0  0  0  0  0  0  0  0
   59.5270   34.8580   45.7200 C   0  0  0  0  0  0  0  0  0  0  0  0
   59.9320   33.8820   46.6480 C   0  0  0  0  0  0  0  0  0  0  0  0
   61.0190   34.1190   47.5600 N   0  0  0  0  0  0  0  0  0  0  0  0
   62.2400   33.3620   47.5690 C   0  0  0  0  0  0  0  0  0  0  0  0
   62.3360   32.2880   46.9170 O   0  0  0  0  0  0  0  0  0  0  0  0
   63.3850   33.7980   48.4390 C   0  0  0  0  0  0  0  0  0  0  0  0
   64.5100   32.8740   48.3270 N   0  0  0  0  0  0  0  0  0  0  0  0
   59.2190   32.6760   46.7270 C   0  0  0  0  0  0  0  0  0  0  0  0
   57.4350   28.9850   44.9670 C   0  0  0  0  0  0  0  0  0  0  0  0
   56.2960   29.3390   44.0940 C   0  0  0  0  0  0  0  0  0  0  0  0
   55.1150   29.3470   44.5360 O   0  0  0  0  0  0  0  0  0  0  0  0
   57.9940   27.6950   44.9170 C   0  0  0  0  0  0  0  0  0  0  0  0
   58.1502   24.5989   47.9750 H   0  0  0  0  0  0  0  0  0  0  0  0
   56.8938   25.4682   47.0305 H   0  0  0  0  0  0  0  0  0  0  0  0
   56.9353   23.6724   47.0305 H   0  0  0  0  0  0  0  0  0  0  0  0
   60.4626   28.0426   47.2535 H   0  0  0  0  0  0  0  0  0  0  0  0
   59.4912   30.3319   47.3563 H   0  0  0  0  0  0  0  0  0  0  0  0
   56.9009   33.2194   44.2723 H   0  0  0  0  0  0  0  0  0  0  0  0
   58.1315   35.3828   44.1474 H   0  0  0  0  0  0  0  0  0  0  0  0
   60.0655   35.8154   45.6615 H   0  0  0  0  0  0  0  0  0  0  0  0
   60.8800   34.8250   48.3170 H   0  0  0  0  0  0  0  0  0  0  0  0
   63.7114   34.8013   48.1276 H   0  0  0  0  0  0  0  0  0  0  0  0
   63.0449   33.8102   49.4850 H   0  0  0  0  0  0  0  0  0  0  0  0
   64.2090   32.0410   47.7690 H   0  0  0  0  0  0  0  0  0  0  0  0
   65.2810   33.3460   47.8010 H   0  0  0  0  0  0  0  0  0  0  0  0
   59.5048   31.9225   47.4757 H   0  0  0  0  0  0  0  0  0  0  0  0
   56.4816   29.5997   43.0416 H   0  0  0  0  0  0  0  0  0  0  0  0
   57.5784   26.9511   44.2214 H   0  0  0  0  0  0  0  0  0  0  0  0
  1  2  1  0
  2  3  2  0
  2  4  2  0
  2  5  1  0
  5  6  1  0
  6  7  2  0
  7  8  1  0
  8  9  2  0
  9 10  1  0
 10 11  1  0
 11 12  2  0
 12 13  1  0
 13 14  2  0
 14 15  1  0
 15 16  1  0
 16 17  1  0
 17 18  2  0
 17 19  1  0
 19 20  1  0
 15 21  2  0
  9 22  1  0
 22 23  1  0
 23 24  2  0
 22 25  2  0
 25  6  1  0
 21 11  1  0
  1 26  1  0
  1 27  1  0
  1 28  1  0
  7 29  1  0
  8 30  1  0
 12 31  1  0
 13 32  1  0
 14 33  1  0
 16 34  1  0
 19 35  1  0
 19 36  1  0
 20 37  1  0
 20 38  1  0
 21 39  1  0
 23 40  1  0
 25 41  1  0
M  END
>  <UniqueID>  (34) 
31

>  <SMILES>  (34) 
CS(=O)(=O)Oc1ccc(Oc2cccc(NC(=O)CN)c2)c(C=O)c1

>  <Energy>  (34) 
45.27210365343792

>  <Genealogy>  (34) 
CS(=O)(=O)Oc1ccc(Oc2cccc(NC(=O)CN)c2)c(C=O)c1 (3D coordinates assigned)
CS(=O)(=O)Oc1ccc(Oc2cccc(NC(=O)CN)c2)c(C=O)c1 (optimized conformer: 45.27210365343792 kcal/mol)

>  <smiles>  (34) 
CS(=O)(=O)Oc1ccc(Oc2cccc(NC(=O)CN)c2)c(C=O)c1

>  <score_type>  (34) 
oracle

>  <origin>  (34) 
adg

>  <m_score__min__energy>  (34) 
-7.8499999999999996

>  <m_primary>  (34) 
energy

$$$$
34:0
     RDKit          3D

 49 52  0  0  0  0  0  0  0  0999 V2000
   57.5730   23.3600   47.4880 O   0  0  0  0  0  0  0  0  0  0  0  0
   57.1780   24.4660   47.0370 C   0  0  0  0  0  0  0  0  0  0  0  0
   55.8710   24.7490   46.8530 N   0  0  0  0  0  0  0  0  0  0  0  0
   55.9070   26.0000   46.3670 C   0  0  0  0  0  0  0  0  0  0  0  0
   54.7730   26.7120   45.9970 O   0  0  0  0  0  0  0  0  0  0  0  0
   57.2070   26.4380   46.2650 C   0  0  0  0  0  0  0  0  0  0  0  0
   57.6590   27.7690   45.8100 C   0  0  0  0  0  0  0  0  0  0  0  0
   57.0340   28.3350   44.6850 C   0  0  0  0  0  0  0  0  0  0  0  0
   57.3920   29.6030   44.2370 C   0  0  0  0  0  0  0  0  0  0  0  0
   58.3780   30.3270   44.9050 C   0  0  0  0  0  0  0  0  0  0  0  0
   59.0160   29.7810   46.0200 C   0  0  0  0  0  0  0  0  0  0  0  0
   58.6750   28.4940   46.4880 C   0  0  0  0  0  0  0  0  0  0  0  0
   59.3900   27.9030   47.5950 N   0  0  0  0  0  0  0  0  0  0  0  0
   60.4240   28.6180   48.3510 C   0  0  0  0  0  0  0  0  0  0  0  0
   59.8450   29.8120   49.0640 C   0  0  0  0  0  0  0  0  0  0  0  0
   59.0380   29.6450   50.1990 C   0  0  0  0  0  0  0  0  0  0  0  0
   58.4950   30.7590   50.8480 C   0  0  0  0  0  0  0  0  0  0  0  0
   58.7610   32.0480   50.3760 C   0  0  0  0  0  0  0  0  0  0  0  0
   58.2100   33.1090   51.0140 F   0  0  0  0  0  0  0  0  0  0  0  0
   59.5880   32.2300   49.2540 C   0  0  0  0  0  0  0  0  0  0  0  0
   59.9120   33.8470   48.6070 S   0  0  0  0  0  0  0  0  0  0  0  0
   61.3720   33.9410   48.2610 O   0  0  0  0  0  0  0  0  0  0  0  0
   59.6200   34.8850   49.6520 O   0  0  0  0  0  0  0  0  0  0  0  0
   58.9460   34.1870   47.1900 N   0  0  0  0  0  0  0  0  0  0  0  0
   59.7890   34.1860   45.9830 C   0  0  0  0  0  0  0  0  0  0  0  0
   58.9250   34.2280   44.7070 C   0  0  0  0  0  0  0  0  0  0  0  0
   57.5820   34.5590   45.0120 O   0  0  0  0  0  0  0  0  0  0  0  0
   57.0050   33.5380   45.8100 C   0  0  0  0  0  0  0  0  0  0  0  0
   57.8570   33.2110   47.0560 C   0  0  0  0  0  0  0  0  0  0  0  0
   60.1410   31.1080   48.6150 C   0  0  0  0  0  0  0  0  0  0  0  0
   58.0270   25.4600   46.6970 N   0  0  0  0  0  0  0  0  0  0  0  0
   56.2541   27.7699   44.1535 H   0  0  0  0  0  0  0  0  0  0  0  0
   56.8963   30.0343   43.3548 H   0  0  0  0  0  0  0  0  0  0  0  0
   58.6542   31.3317   44.5525 H   0  0  0  0  0  0  0  0  0  0  0  0
   59.7933   30.3604   46.5397 H   0  0  0  0  0  0  0  0  0  0  0  0
   59.2310   26.8920   47.8250 H   0  0  0  0  0  0  0  0  0  0  0  0
   60.8640   27.9350   49.0926 H   0  0  0  0  0  0  0  0  0  0  0  0
   61.1921   28.9698   47.6465 H   0  0  0  0  0  0  0  0  0  0  0  0
   58.8313   28.6341   50.5803 H   0  0  0  0  0  0  0  0  0  0  0  0
   57.8564   30.6204   51.7329 H   0  0  0  0  0  0  0  0  0  0  0  0
   60.4459   35.0681   46.0021 H   0  0  0  0  0  0  0  0  0  0  0  0
   60.3857   33.2620   45.9725 H   0  0  0  0  0  0  0  0  0  0  0  0
   59.3344   34.9837   44.0205 H   0  0  0  0  0  0  0  0  0  0  0  0
   58.9423   33.2322   44.2400 H   0  0  0  0  0  0  0  0  0  0  0  0
   56.0090   33.8683   46.1401 H   0  0  0  0  0  0  0  0  0  0  0  0
   56.9453   32.6269   45.1965 H   0  0  0  0  0  0  0  0  0  0  0  0
   57.2209   33.2495   47.9526 H   0  0  0  0  0  0  0  0  0  0  0  0
   58.2860   32.2041   46.9460 H   0  0  0  0  0  0  0  0  0  0  0  0
   60.8123   31.2466   47.7547 H   0  0  0  0  0  0  0  0  0  0  0  0
  1  2  2  0
  2  3  1  0
  3  4  1  0
  4  5  1  0
  4  6  2  0
  6  7  1  0
  7  8  2  0
  8  9  1  0
  9 10  2  0
 10 11  1  0
 11 12  2  0
 12 13  1  0
 13 14  1  0
 14 15  1  0
 15 16  2  0
 16 17  1  0
 17 18  2  0
 18 19  1  0
 18 20  1  0
 20 21  1  0
 21 22  2  0
 21 23  2  0
 21 24  1  0
 24 25  1  0
 25 26  1  0
 26 27  1  0
 27 28  1  0
 28 29  1  0
 20 30  2  0
  6 31  1  0
 31  2  1  0
 12  7  1  0
 30 15  1  0
 29 24  1  0
  8 32  1  0
  9 33  1  0
 10 34  1  0
 11 35  1  0
 13 36  1  0
 14 37  1  0
 14 38  1  0
 16 39  1  0
 17 40  1  0
 25 41  1  0
 25 42  1  0
 26 43  1  0
 26 44  1  0
 28 45  1  0
 28 46  1  0
 29 47  1  0
 29 48  1  0
 30 49  1  0
M  CHG  3   3  -1   5  -1  31  -1
M  END
>  <UniqueID>  (35) 
32

>  <SMILES>  (35) 
O=c1[n-]c([O-])c(-c2ccccc2NCc2ccc(F)c(S(=O)(=O)N3CCOCC3)c2)[n-]1

>  <Energy>  (35) 
97.4584815897859

>  <Genealogy>  (35) 
O=c1[n-]c([O-])c(-c2ccccc2NCc2ccc(F)c(S(=O)(=O)N3CCOCC3)c2)[n-]1 (protonated)
O=c1[n-]c([O-])c(-c2ccccc2NCc2ccc(F)c(S(=O)(=O)N3CCOCC3)c2)[n-]1 (3D coordinates assigned)
O=c1[n-]c([O-])c(-c2ccccc2NCc2ccc(F)c(S(=O)(=O)N3CCOCC3)c2)[n-]1 (nonaromatic ring conformer: 97.4584815897859 kcal/mol)

>  <smiles>  (35) 
O=c1[nH]c(O)c(-c2ccccc2NCc2ccc(F)c(S(=O)(=O)N3CCOCC3)c2)[nH]1

>  <score_type>  (35) 
oracle

>  <origin>  (35) 
adg

>  <m_score__min__energy>  (35) 
-18.02

>  <m_primary>  (35) 
energy

$$$$
35:0
     RDKit          3D

 59 61  0  0  0  0  0  0  0  0999 V2000
   59.9220   31.1700   49.6960 C   0  0  0  0  0  0  0  0  0  0  0  0
   60.7170   30.4130   48.6350 C   0  0  0  0  0  0  0  0  0  0  0  0
   60.3810   28.9200   48.6780 C   0  0  0  0  0  0  0  0  0  0  0  0
   60.3990   30.9530   47.3550 O   0  0  0  0  0  0  0  0  0  0  0  0
   59.1120   31.3460   46.9690 C   0  0  0  0  0  0  0  0  0  0  0  0
   58.1240   30.6020   47.2160 O   0  0  0  0  0  0  0  0  0  0  0  0
   58.9210   32.6460   46.2810 C   0  0  0  0  0  0  0  0  0  0  0  0
   59.8290   33.7280   46.3180 C   0  0  0  0  0  0  0  0  0  0  0  0
   61.0560   33.7580   47.1260 C   0  0  0  0  0  0  0  0  0  0  0  0
   60.9970   34.0850   48.4900 C   0  0  0  0  0  0  0  0  0  0  0  0
   62.1710   34.1280   49.2490 C   0  0  0  0  0  0  0  0  0  0  0  0
   63.4040   33.8410   48.6510 C   0  0  0  0  0  0  0  0  0  0  0  0
   63.4640   33.5040   47.2940 C   0  0  0  0  0  0  0  0  0  0  0  0
   62.2930   33.4620   46.5310 C   0  0  0  0  0  0  0  0  0  0  0  0
   59.4230   34.8300   45.5690 C   0  0  0  0  0  0  0  0  0  0  0  0
   57.9350   34.4880   44.8690 S   0  0  0  0  0  0  0  0  0  0  0  0
   57.7940   32.9440   45.5190 C   0  0  0  0  0  0  0  0  0  0  0  0
   56.6860   32.0640   45.3110 N   0  0  0  0  0  0  0  0  0  0  0  0
   56.7090   30.8870   44.4940 C   0  0  0  0  0  0  0  0  0  0  0  0
   55.6280   30.2760   44.2850 O   0  0  0  0  0  0  0  0  0  0  0  0
   57.9700   30.3790   43.8410 C   0  0  0  0  0  0  0  0  0  0  0  0
   58.5890   29.2220   44.5910 C   0  0  0  0  0  0  0  0  0  0  0  0
   59.9860   29.0940   44.6540 C   0  0  0  0  0  0  0  0  0  0  0  0
   60.5690   28.0260   45.3360 C   0  0  0  0  0  0  0  0  0  0  0  0
   59.7670   27.0830   45.9930 C   0  0  0  0  0  0  0  0  0  0  0  0
   60.3640   26.0180   46.6690 O   0  0  0  0  0  0  0  0  0  0  0  0
   58.3650   27.2160   45.9680 C   0  0  0  0  0  0  0  0  0  0  0  0
   57.4740   26.2230   46.6780 C   0  0  0  0  0  0  0  0  0  0  0  0
   57.8220   24.8360   46.3070 N   0  0  0  0  0  0  0  0  0  0  0  0
   57.0000   23.8670   47.0530 C   0  0  0  0  0  0  0  0  0  0  0  0
   57.6160   24.6400   44.8620 C   0  0  0  0  0  0  0  0  0  0  0  0
   57.7840   28.2820   45.2600 C   0  0  0  0  0  0  0  0  0  0  0  0
   60.2530   30.8548   50.6965 H   0  0  0  0  0  0  0  0  0  0  0  0
   60.0894   32.2508   49.5780 H   0  0  0  0  0  0  0  0  0  0  0  0
   58.8507   30.9499   49.5780 H   0  0  0  0  0  0  0  0  0  0  0  0
   61.7936   30.5253   48.8307 H   0  0  0  0  0  0  0  0  0  0  0  0
   60.3069   28.5908   49.7250 H   0  0  0  0  0  0  0  0  0  0  0  0
   59.4211   28.7454   48.1700 H   0  0  0  0  0  0  0  0  0  0  0  0
   61.1736   28.3510   48.1700 H   0  0  0  0  0  0  0  0  0  0  0  0
   60.0283   34.3072   48.9614 H   0  0  0  0  0  0  0  0  0  0  0  0
   62.1256   34.3876   50.3170 H   0  0  0  0  0  0  0  0  0  0  0  0
   64.3267   33.8804   49.2485 H   0  0  0  0  0  0  0  0  0  0  0  0
   64.4328   33.2721   46.8274 H   0  0  0  0  0  0  0  0  0  0  0  0
   62.3408   33.1970   45.4645 H   0  0  0  0  0  0  0  0  0  0  0  0
   59.9842   35.7692   45.4548 H   0  0  0  0  0  0  0  0  0  0  0  0
   57.7290   30.0481   42.8200 H   0  0  0  0  0  0  0  0  0  0  0  0
   58.6990   31.2027   43.8399 H   0  0  0  0  0  0  0  0  0  0  0  0
   60.6254   29.8416   44.1618 H   0  0  0  0  0  0  0  0  0  0  0  0
   61.6640   27.9234   45.3583 H   0  0  0  0  0  0  0  0  0  0  0  0
   59.9240   25.1060   46.7170 H   0  0  0  0  0  0  0  0  0  0  0  0
   57.5943   26.3452   47.7646 H   0  0  0  0  0  0  0  0  0  0  0  0
   56.4322   26.4133   46.3805 H   0  0  0  0  0  0  0  0  0  0  0  0
   57.1351   24.0263   48.1330 H   0  0  0  0  0  0  0  0  0  0  0  0
   55.9407   24.0067   46.7915 H   0  0  0  0  0  0  0  0  0  0  0  0
   57.3105   22.8447   46.7915 H   0  0  0  0  0  0  0  0  0  0  0  0
   56.8275   23.8898   44.7025 H   0  0  0  0  0  0  0  0  0  0  0  0
   57.3142   25.5926   44.4021 H   0  0  0  0  0  0  0  0  0  0  0  0
   58.5524   24.2912   44.4021 H   0  0  0  0  0  0  0  0  0  0  0  0
   56.6890   28.3824   45.2286 H   0  0  0  0  0  0  0  0  0  0  0  0
  1  2  1  0
  2  3  1  0
  2  4  1  0
  4  5  1  0
  5  6  2  0
  5  7  1  0
  7  8  1  0
  8  9  1  0
  9 10  2  0
 10 11  1  0
 11 12  2  0
 12 13  1  0
 13 14  2  0
  8 15  2  0
 15 16  1  0
 16 17  1  0
 17 18  1  0
 18 19  1  0
 19 20  2  0
 19 21  1  0
 21 22  1  0
 22 23  2  0
 23 24  1  0
 24 25  2  0
 25 26  1  0
 25 27  1  0
 27 28  1  0
 28 29  1  0
 29 30  1  0
 29 31  1  0
 27 32  2  0
 17  7  2  0
 32 22  1  0
 14  9  1  0
  1 33  1  0
  1 34  1  0
  1 35  1  0
  2 36  1  0
  3 37  1  0
  3 38  1  0
  3 39  1  0
 10 40  1  0
 11 41  1  0
 12 42  1  0
 13 43  1  0
 14 44  1  0
 15 45  1  0
 21 46  1  0
 21 47  1  0
 23 48  1  0
 24 49  1  0
 26 50  1  0
 28 51  1  0
 28 52  1  0
 30 53  1  0
 30 54  1  0
 30 55  1  0
 31 56  1  0
 31 57  1  0
 31 58  1  0
 32 59  1  0
M  CHG  1  18  -1
M  END
>  <UniqueID>  (36) 
33

>  <SMILES>  (36) 
CC(C)OC(=O)c1c(-c2ccccc2)csc1[N-]C(=O)Cc1ccc(O)c(CN(C)C)c1

>  <Energy>  (36) 
86.37776304586846

>  <Genealogy>  (36) 
CC(C)OC(=O)c1c(-c2ccccc2)csc1[N-]C(=O)Cc1ccc(O)c(CN(C)C)c1 (protonated)
CC(C)OC(=O)c1c(-c2ccccc2)csc1[N-]C(=O)Cc1ccc(O)c(CN(C)C)c1 (3D coordinates assigned)
CC(C)OC(=O)c1c(-c2ccccc2)csc1[N-]C(=O)Cc1ccc(O)c(CN(C)C)c1 (optimized conformer: 86.37776304586846 kcal/mol)

>  <smiles>  (36) 
CC(C)OC(=O)c1c(-c2ccccc2)csc1NC(=O)Cc1ccc(O)c(CN(C)C)c1

>  <score_type>  (36) 
oracle

>  <origin>  (36) 
adg

>  <m_score__min__energy>  (36) 
-11.050000000000001

>  <m_primary>  (36) 
energy

$$$$
36:0
     RDKit          3D

 45 48  0  0  0  0  0  0  0  0999 V2000
   64.5380   32.7370   47.0740 H   0  0  0  0  0  0  0  0  0  0  0  0
   63.6450   32.2570   47.0740 O   0  0  0  0  0  0  0  0  0  0  0  0
   62.4690   32.9090   47.4360 C   0  0  0  0  0  0  0  0  0  0  0  0
   62.0950   32.9600   48.7840 C   0  0  0  0  0  0  0  0  0  0  0  0
   62.7320   32.4914   49.5486 H   0  0  0  0  0  0  0  0  0  0  0  0
   60.9140   33.6050   49.1600 C   0  0  0  0  0  0  0  0  0  0  0  0
   60.6225   33.6414   50.2200 H   0  0  0  0  0  0  0  0  0  0  0  0
   60.1020   34.2040   48.1930 C   0  0  0  0  0  0  0  0  0  0  0  0
   59.1681   34.7016   48.4934 H   0  0  0  0  0  0  0  0  0  0  0  0
   60.4740   34.1730   46.8390 C   0  0  0  0  0  0  0  0  0  0  0  0
   59.5840   34.7840   45.7930 C   0  0  0  0  0  0  0  0  0  0  0  0
   60.2022   35.1698   44.9690 H   0  0  0  0  0  0  0  0  0  0  0  0
   59.0084   35.6057   46.2441 H   0  0  0  0  0  0  0  0  0  0  0  0
   58.6370   33.7550   45.2620 C   0  0  0  0  0  0  0  0  0  0  0  0
   57.6650   32.7510   46.1980 S   0  0  0  0  0  0  0  0  0  0  0  0
   57.0770   31.9160   44.8520 C   0  0  0  0  0  0  0  0  0  0  0  0
   56.2230   30.9330   44.8620 N   0  0  0  0  0  0  0  0  0  0  0  0
   56.2230   29.7600   44.0310 C   0  0  0  0  0  0  0  0  0  0  0  0
   55.5420   29.7130   42.9730 O   0  0  0  0  0  0  0  0  0  0  0  0
   57.0570   28.6450   44.3600 N   0  0  0  0  0  0  0  0  0  0  0  0
   57.8100   28.4790   45.5720 C   0  0  0  0  0  0  0  0  0  0  0  0
   58.6380   29.5170   46.0400 C   0  0  0  0  0  0  0  0  0  0  0  0
   58.7290   30.4455   45.4573 H   0  0  0  0  0  0  0  0  0  0  0  0
   59.3440   29.3800   47.2350 C   0  0  0  0  0  0  0  0  0  0  0  0
   59.9955   30.1944   47.5847 H   0  0  0  0  0  0  0  0  0  0  0  0
   59.2250   28.2130   47.9860 C   0  0  0  0  0  0  0  0  0  0  0  0
   59.7910   28.1026   48.9227 H   0  0  0  0  0  0  0  0  0  0  0  0
   58.3890   27.1840   47.5520 C   0  0  0  0  0  0  0  0  0  0  0  0
   58.2929   26.2708   48.1577 H   0  0  0  0  0  0  0  0  0  0  0  0
   57.6660   27.2990   46.3480 C   0  0  0  0  0  0  0  0  0  0  0  0
   56.7890   26.1720   45.9280 C   0  0  0  0  0  0  0  0  0  0  0  0
   55.4460   26.1620   46.0830 N   0  0  0  0  0  0  0  0  0  0  0  0
   55.0690   24.9830   45.5630 C   0  0  0  0  0  0  0  0  0  0  0  0
   53.6640   24.4790   45.5640 C   0  0  0  0  0  0  0  0  0  0  0  0
   53.3195   24.3554   46.6013 H   0  0  0  0  0  0  0  0  0  0  0  0
   53.0153   25.2005   45.0457 H   0  0  0  0  0  0  0  0  0  0  0  0
   53.6218   23.5097   45.0457 H   0  0  0  0  0  0  0  0  0  0  0  0
   56.1730   24.2960   45.1240 C   0  0  0  0  0  0  0  0  0  0  0  0
   56.1650   23.2959   44.6660 H   0  0  0  0  0  0  0  0  0  0  0  0
   57.2660   25.0470   45.3460 N   0  0  0  0  0  0  0  0  0  0  0  0
   57.6180   32.3760   43.7040 N   0  0  0  0  0  0  0  0  0  0  0  0
   58.4910   33.3950   43.9260 C   0  0  0  0  0  0  0  0  0  0  0  0
   59.0384   33.8951   43.1134 H   0  0  0  0  0  0  0  0  0  0  0  0
   61.6570   33.5120   46.4650 C   0  0  0  0  0  0  0  0  0  0  0  0
   61.9472   33.4676   45.4049 H   0  0  0  0  0  0  0  0  0  0  0  0
  1  2  1  0
  2  3  1  0
  3  4  2  0
  4  5  1  0
  4  6  1  0
  6  7  1  0
  6  8  2  0
  8  9  1  0
  8 10  1  0
 10 11  1  0
 11 12  1  0
 11 13  1  0
 11 14  1  0
 14 15  1  0
 15 16  1  0
 16 17  2  0
 17 18  1  0
 18 19  2  0
 18 20  1  0
 20 21  1  0
 21 22  2  0
 22 23  1  0
 22 24  1  0
 24 25  1  0
 24 26  2  0
 26 27  1  0
 26 28  1  0
 28 29  1  0
 28 30  2  0
 30 31  1  0
 31 32  2  0
 32 33  1  0
 33 34  1  0
 34 35  1  0
 34 36  1  0
 34 37  1  0
 33 38  2  0
 38 39  1  0
 38 40  1  0
 16 41  1  0
 41 42  1  0
 42 43  1  0
 10 44  2  0
 44 45  1  0
 44  3  1  0
 42 14  2  0
 30 21  1  0
 40 31  1  0
M  CHG  3  20  -1  40  -1  41  -1
M  END
>  <UniqueID>  (37) 
34

>  <SMILES>  (37) 
Cc1c[n-]c(-c2ccccc2[N-]C(=O)/N=c2/[n-]cc(Cc3cccc(O)c3)s2)n1

>  <Energy>  (37) 
113.09599897135166

>  <Genealogy>  (37) 
Cc1c[n-]c(-c2ccccc2[N-]C(=O)N=c2[n-]cc(Cc3cccc(O)c3)s2)n1 (protonated)
Cc1c[n-]c(-c2ccccc2[N-]C(=O)/N=c2/[n-]cc(Cc3cccc(O)c3)s2)n1 (cis-trans isomerization)
Cc1c[n-]c(-c2ccccc2[N-]C(=O)/N=c2/[n-]cc(Cc3cccc(O)c3)s2)n1 (3D coordinates assigned)
Cc1c[n-]c(-c2ccccc2[N-]C(=O)/N=c2/[n-]cc(Cc3cccc(O)c3)s2)n1 (optimized conformer: 113.09599897135166 kcal/mol)

>  <smiles>  (37) 
Cc1c[nH]c(-c2ccccc2NC(=O)N=c2[nH]cc(Cc3cccc(O)c3)s2)n1

>  <score_type>  (37) 
oracle

>  <origin>  (37) 
adg

>  <m_score__min__energy>  (37) 
-13.27

>  <m_primary>  (37) 
energy

$$$$
37:0
     RDKit          3D

 51 53  0  0  0  0  0  0  0  0999 V2000
   59.6820   28.8020   45.2470 O   0  0  0  0  0  0  0  0  0  0  0  0
   58.5340   29.2790   45.4140 C   0  0  0  0  0  0  0  0  0  0  0  0
   58.3530   30.6900   45.2630 N   0  0  0  0  0  0  0  0  0  0  0  0
   56.9410   31.4330   44.5800 S   0  0  0  0  0  0  0  0  0  0  0  0
   57.1370   31.5980   43.0990 O   0  0  0  0  0  0  0  0  0  0  0  0
   55.7550   30.5370   44.7990 O   0  0  0  0  0  0  0  0  0  0  0  0
   56.6450   33.0120   45.3080 C   0  0  0  0  0  0  0  0  0  0  0  0
   57.5890   33.9520   45.4590 C   0  0  0  0  0  0  0  0  0  0  0  0
   58.8170   33.7480   46.2480 C   0  0  0  0  0  0  0  0  0  0  0  0
   60.0600   34.0850   45.6960 C   0  0  0  0  0  0  0  0  0  0  0  0
   61.2360   33.8950   46.4360 C   0  0  0  0  0  0  0  0  0  0  0  0
   61.1710   33.3440   47.7190 C   0  0  0  0  0  0  0  0  0  0  0  0
   59.9350   32.9860   48.2660 C   0  0  0  0  0  0  0  0  0  0  0  0
   58.7580   33.1930   47.5370 C   0  0  0  0  0  0  0  0  0  0  0  0
   57.5610   32.8430   48.0840 F   0  0  0  0  0  0  0  0  0  0  0  0
   57.4410   28.4190   45.7810 N   0  0  0  0  0  0  0  0  0  0  0  0
   57.5780   27.0050   46.0070 C   0  0  0  0  0  0  0  0  0  0  0  0
   58.8540   26.4300   46.1370 C   0  0  0  0  0  0  0  0  0  0  0  0
   58.9960   25.0580   46.3370 C   0  0  0  0  0  0  0  0  0  0  0  0
   57.8710   24.2380   46.3770 C   0  0  0  0  0  0  0  0  0  0  0  0
   56.5840   24.7790   46.2290 C   0  0  0  0  0  0  0  0  0  0  0  0
   55.1830   23.6950   46.2540 S   0  0  0  0  0  0  0  0  0  0  0  0
   53.9300   24.5270   46.2510 O   0  0  0  0  0  0  0  0  0  0  0  0
   55.1900   22.9010   47.5290 O   0  0  0  0  0  0  0  0  0  0  0  0
   55.1370   22.6030   44.8820 N   0  0  0  0  0  0  0  0  0  0  0  0
   55.1100   23.3170   43.5950 C   0  0  0  0  0  0  0  0  0  0  0  0
   56.5190   23.7250   43.0930 C   0  0  0  0  0  0  0  0  0  0  0  0
   57.5640   23.1740   43.8670 O   0  0  0  0  0  0  0  0  0  0  0  0
   57.3570   21.7880   44.0270 C   0  0  0  0  0  0  0  0  0  0  0  0
   56.1540   21.5310   44.9490 C   0  0  0  0  0  0  0  0  0  0  0  0
   56.4340   26.1710   46.0470 C   0  0  0  0  0  0  0  0  0  0  0  0
   55.1490   26.7060   45.9320 O   0  0  0  0  0  0  0  0  0  0  0  0
   55.6272   33.2386   45.6583 H   0  0  0  0  0  0  0  0  0  0  0  0
   57.4393   34.9253   44.9689 H   0  0  0  0  0  0  0  0  0  0  0  0
   60.1136   34.5000   44.6787 H   0  0  0  0  0  0  0  0  0  0  0  0
   62.2084   34.1792   46.0073 H   0  0  0  0  0  0  0  0  0  0  0  0
   62.0932   33.1919   48.2990 H   0  0  0  0  0  0  0  0  0  0  0  0
   59.8874   32.5410   49.2708 H   0  0  0  0  0  0  0  0  0  0  0  0
   56.4920   28.8390   45.9110 H   0  0  0  0  0  0  0  0  0  0  0  0
   59.7481   27.0683   46.0804 H   0  0  0  0  0  0  0  0  0  0  0  0
   59.9980   24.6222   46.4634 H   0  0  0  0  0  0  0  0  0  0  0  0
   57.9921   23.1549   46.5261 H   0  0  0  0  0  0  0  0  0  0  0  0
   54.6465   22.6627   42.8419 H   0  0  0  0  0  0  0  0  0  0  0  0
   54.5364   24.2432   43.7471 H   0  0  0  0  0  0  0  0  0  0  0  0
   56.6338   23.3811   42.0545 H   0  0  0  0  0  0  0  0  0  0  0  0
   56.5921   24.8195   43.1749 H   0  0  0  0  0  0  0  0  0  0  0  0
   57.1641   21.3341   43.0438 H   0  0  0  0  0  0  0  0  0  0  0  0
   58.2554   21.3419   44.4784 H   0  0  0  0  0  0  0  0  0  0  0  0
   55.6829   20.5816   44.6546 H   0  0  0  0  0  0  0  0  0  0  0  0
   56.5312   21.4984   45.9818 H   0  0  0  0  0  0  0  0  0  0  0  0
   54.3380   26.3100   46.3890 H   0  0  0  0  0  0  0  0  0  0  0  0
  1  2  2  0
  2  3  1  0
  3  4  1  0
  4  5  2  0
  4  6  2  0
  4  7  1  0
  7  8  2  3
  8  9  1  0
  9 10  2  0
 10 11  1  0
 11 12  2  0
 12 13  1  0
 13 14  2  0
 14 15  1  0
  2 16  1  0
 16 17  1  0
 17 18  2  0
 18 19  1  0
 19 20  2  0
 20 21  1  0
 21 22  1  0
 22 23  2  0
 22 24  2  0
 22 25  1  0
 25 26  1  0
 26 27  1  0
 27 28  1  0
 28 29  1  0
 29 30  1  0
 21 31  2  0
 31 32  1  0
 14  9  1  0
 31 17  1  0
 30 25  1  0
  7 33  1  0
  8 34  1  0
 10 35  1  0
 11 36  1  0
 12 37  1  0
 13 38  1  0
 16 39  1  0
 18 40  1  0
 19 41  1  0
 20 42  1  0
 26 43  1  0
 26 44  1  0
 27 45  1  0
 27 46  1  0
 29 47  1  0
 29 48  1  0
 30 49  1  0
 30 50  1  0
 32 51  1  0
M  CHG  1   3  -1
M  END
>  <UniqueID>  (38) 
35

>  <SMILES>  (38) 
O=C([N-]S(=O)(=O)C=Cc1ccccc1F)Nc1cccc(S(=O)(=O)N2CCOCC2)c1O

>  <Energy>  (38) 
80.05357009576562

>  <Genealogy>  (38) 
O=C([N-]S(=O)(=O)C=Cc1ccccc1F)Nc1cccc(S(=O)(=O)N2CCOCC2)c1O (protonated)
O=C([N-]S(=O)(=O)C=Cc1ccccc1F)Nc1cccc(S(=O)(=O)N2CCOCC2)c1O (3D coordinates assigned)
O=C([N-]S(=O)(=O)C=Cc1ccccc1F)Nc1cccc(S(=O)(=O)N2CCOCC2)c1O (nonaromatic ring conformer: 80.05357009576562 kcal/mol)

>  <smiles>  (38) 
O=C(Nc1cccc(S(=O)(=O)N2CCOCC2)c1O)NS(=O)(=O)C=Cc1ccccc1F

>  <score_type>  (38) 
oracle

>  <origin>  (38) 
adg

>  <m_score__min__energy>  (38) 
-12.609999999999999

>  <m_primary>  (38) 
energy

$$$$
38:0
     RDKit          3D

 56 59  0  0  0  0  0  0  0  0999 V2000
   58.6483   28.0996   43.1215 H   0  0  0  0  0  0  0  0  0  0  0  0
   58.1880   27.1800   43.5120 C   0  0  0  0  0  0  0  0  0  0  0  0
   57.5054   26.5947   42.8784 H   0  0  0  0  0  0  0  0  0  0  0  0
   58.4600   26.7710   44.7650 C   0  0  0  0  0  0  0  0  0  0  0  0
   57.9390   25.6230   45.3740 C   0  0  0  0  0  0  0  0  0  0  0  0
   57.1490   24.6850   44.8140 C   0  0  0  0  0  0  0  0  0  0  0  0
   57.5944   24.0150   44.0639 H   0  0  0  0  0  0  0  0  0  0  0  0
   55.7250   24.5030   45.1460 C   0  0  0  0  0  0  0  0  0  0  0  0
   55.0490   23.3660   44.8990 N   0  0  0  0  0  0  0  0  0  0  0  0
   53.7860   23.6630   45.2770 C   0  0  0  0  0  0  0  0  0  0  0  0
   52.8460   22.8310   45.2080 O   0  0  0  0  0  0  0  0  0  0  0  0
   53.6110   24.9250   45.7250 N   0  0  0  0  0  0  0  0  0  0  0  0
   54.8430   25.4470   45.6240 C   0  0  0  0  0  0  0  0  0  0  0  0
   55.1420   26.7720   45.9200 O   0  0  0  0  0  0  0  0  0  0  0  0
   58.4590   25.5910   46.6570 C   0  0  0  0  0  0  0  0  0  0  0  0
   58.2719   24.8235   47.4224 H   0  0  0  0  0  0  0  0  0  0  0  0
   59.2570   26.7080   46.7890 C   0  0  0  0  0  0  0  0  0  0  0  0
   60.0320   27.0350   48.0300 C   0  0  0  0  0  0  0  0  0  0  0  0
   59.4306   26.7812   48.9154 H   0  0  0  0  0  0  0  0  0  0  0  0
   60.9662   26.4543   48.0426 H   0  0  0  0  0  0  0  0  0  0  0  0
   60.2679   28.1093   48.0426 H   0  0  0  0  0  0  0  0  0  0  0  0
   59.2890   27.4160   45.6340 N   0  0  0  0  0  0  0  0  0  0  0  0
   60.0390   28.6700   45.4250 C   0  0  0  0  0  0  0  0  0  0  0  0
   60.8120   28.7549   46.2030 H   0  0  0  0  0  0  0  0  0  0  0  0
   60.4860   28.6341   44.4206 H   0  0  0  0  0  0  0  0  0  0  0  0
   59.1420   29.8880   45.4930 C   0  0  0  0  0  0  0  0  0  0  0  0
   58.5480   30.3670   44.3100 C   0  0  0  0  0  0  0  0  0  0  0  0
   58.6941   29.8202   43.3668 H   0  0  0  0  0  0  0  0  0  0  0  0
   57.7750   31.5300   44.3230 C   0  0  0  0  0  0  0  0  0  0  0  0
   57.2060   31.9770   43.1770 F   0  0  0  0  0  0  0  0  0  0  0  0
   57.6120   32.2460   45.5080 C   0  0  0  0  0  0  0  0  0  0  0  0
   57.0145   33.1696   45.5131 H   0  0  0  0  0  0  0  0  0  0  0  0
   58.2050   31.7940   46.6880 C   0  0  0  0  0  0  0  0  0  0  0  0
   58.0940   32.5460   47.8110 F   0  0  0  0  0  0  0  0  0  0  0  0
   58.9470   30.6010   46.6990 C   0  0  0  0  0  0  0  0  0  0  0  0
   59.5220   30.1500   47.8920 O   0  0  0  0  0  0  0  0  0  0  0  0
   60.2270   31.0190   48.7820 C   0  0  0  0  0  0  0  0  0  0  0  0
   59.7010   31.9840   48.8283 H   0  0  0  0  0  0  0  0  0  0  0  0
   60.2619   30.5395   49.7714 H   0  0  0  0  0  0  0  0  0  0  0  0
   61.6660   31.2610   48.3200 C   0  0  0  0  0  0  0  0  0  0  0  0
   62.3365   30.5633   48.8430 H   0  0  0  0  0  0  0  0  0  0  0  0
   61.7235   31.0987   47.2336 H   0  0  0  0  0  0  0  0  0  0  0  0
   62.0790   32.6520   48.6200 N   0  0  0  0  0  0  0  0  0  0  0  0
   63.4970   32.8990   48.2950 C   0  0  0  0  0  0  0  0  0  0  0  0
   63.8283   33.8127   48.8102 H   0  0  0  0  0  0  0  0  0  0  0  0
   64.0844   32.0296   48.6255 H   0  0  0  0  0  0  0  0  0  0  0  0
   63.7030   33.0750   46.7840 C   0  0  0  0  0  0  0  0  0  0  0  0
   64.7644   33.2844   46.5852 H   0  0  0  0  0  0  0  0  0  0  0  0
   63.3971   32.1503   46.2728 H   0  0  0  0  0  0  0  0  0  0  0  0
   62.9190   34.1460   46.3000 O   0  0  0  0  0  0  0  0  0  0  0  0
   61.5490   33.8510   46.4820 C   0  0  0  0  0  0  0  0  0  0  0  0
   60.9469   34.6788   46.0793 H   0  0  0  0  0  0  0  0  0  0  0  0
   61.3207   32.9136   45.9537 H   0  0  0  0  0  0  0  0  0  0  0  0
   61.2140   33.6650   47.9750 C   0  0  0  0  0  0  0  0  0  0  0  0
   61.3496   34.6269   48.4910 H   0  0  0  0  0  0  0  0  0  0  0  0
   60.1735   33.3155   48.0466 H   0  0  0  0  0  0  0  0  0  0  0  0
  1  2  1  0
  2  3  1  0
  2  4  2  0
  4  5  1  0
  5  6  2  0
  6  7  1  0
  6  8  1  0
  8  9  1  0
  9 10  1  0
 10 11  2  0
 10 12  1  0
 12 13  1  0
 13 14  1  0
  5 15  1  0
 15 16  1  0
 15 17  2  0
 17 18  1  0
 18 19  1  0
 18 20  1  0
 18 21  1  0
 17 22  1  0
 22 23  1  0
 23 24  1  0
 23 25  1  0
 23 26  1  0
 26 27  2  0
 27 28  1  0
 27 29  1  0
 29 30  1  0
 29 31  2  0
 31 32  1  0
 31 33  1  0
 33 34  1  0
 33 35  2  0
 35 36  1  0
 36 37  1  0
 37 38  1  0
 37 39  1  0
 37 40  1  0
 40 41  1  0
 40 42  1  0
 40 43  1  0
 43 44  1  0
 44 45  1  0
 44 46  1  0
 44 47  1  0
 47 48  1  0
 47 49  1  0
 47 50  1  0
 50 51  1  0
 51 52  1  0
 51 53  1  0
 51 54  1  0
 54 55  1  0
 54 56  1  0
 22  4  1  0
 35 26  1  0
 54 43  1  0
 13  8  2  0
M  CHG  3   9  -1  12  -1  14  -1
M  END
>  <UniqueID>  (39) 
36

>  <SMILES>  (39) 
C=c1/c(=C/c2[n-]c(=O)[n-]c2[O-])cc(C)n1Cc1cc(F)cc(F)c1OCCN1CCOCC1

>  <Energy>  (39) 
135.41330999967997

>  <Genealogy>  (39) 
C=c1c(=Cc2[n-]c(=O)[n-]c2[O-])cc(C)n1Cc1cc(F)cc(F)c1OCCN1CCOCC1 (protonated)
C=c1/c(=C/c2[n-]c(=O)[n-]c2[O-])cc(C)n1Cc1cc(F)cc(F)c1OCCN1CCOCC1 (cis-trans isomerization)
C=c1/c(=C/c2[n-]c(=O)[n-]c2[O-])cc(C)n1Cc1cc(F)cc(F)c1OCCN1CCOCC1 (3D coordinates assigned)
C=c1/c(=C/c2[n-]c(=O)[n-]c2[O-])cc(C)n1Cc1cc(F)cc(F)c1OCCN1CCOCC1 (nonaromatic ring conformer: 135.41330999967997 kcal/mol)

>  <smiles>  (39) 
C=c1c(=Cc2[nH]c(=O)[nH]c2O)cc(C)n1Cc1cc(F)cc(F)c1OCCN1CCOCC1

>  <score_type>  (39) 
oracle

>  <origin>  (39) 
adg

>  <m_score__min__energy>  (39) 
-15.970000000000001

>  <m_primary>  (39) 
energy

$$$$
39:0
     RDKit          3D

 58 60  0  0  0  0  0  0  0  0999 V2000
   59.3880   34.4540   48.1210 C   0  0  0  0  0  0  0  0  0  0  0  0
   59.3080   34.5480   46.6600 N   0  0  0  0  0  0  0  0  0  0  0  0
   59.8540   35.7410   45.9940 C   0  0  0  0  0  0  0  0  0  0  0  0
   58.7090   33.4760   45.8830 C   0  0  0  0  0  0  0  0  0  0  0  0
   58.3810   32.2440   46.4840 C   0  0  0  0  0  0  0  0  0  0  0  0
   57.7970   31.2160   45.7400 C   0  0  0  0  0  0  0  0  0  0  0  0
   57.5300   31.3900   44.3780 C   0  0  0  0  0  0  0  0  0  0  0  0
   56.9340   30.2640   43.5730 C   0  0  0  0  0  0  0  0  0  0  0  0
   56.3130   29.2120   44.4590 C   0  0  0  0  0  0  0  0  0  0  0  0
   55.1640   29.3990   44.9420 O   0  0  0  0  0  0  0  0  0  0  0  0
   57.0320   28.0300   44.8300 N   0  0  0  0  0  0  0  0  0  0  0  0
   56.6610   27.1520   45.9400 C   0  0  0  0  0  0  0  0  0  0  0  0
   57.8770   26.8220   46.7580 C   0  0  0  0  0  0  0  0  0  0  0  0
   58.4210   25.6930   46.6200 O   0  0  0  0  0  0  0  0  0  0  0  0
   58.3360   27.6820   47.8110 N   0  0  0  0  0  0  0  0  0  0  0  0
   59.3110   28.7230   47.6880 C   0  0  0  0  0  0  0  0  0  0  0  0
   60.0260   28.9220   46.4930 C   0  0  0  0  0  0  0  0  0  0  0  0
   60.9880   29.9350   46.4100 C   0  0  0  0  0  0  0  0  0  0  0  0
   61.2480   30.7540   47.5170 C   0  0  0  0  0  0  0  0  0  0  0  0
   62.4500   32.0350   47.3900 S   0  0  0  0  0  0  0  0  0  0  0  0
   63.6920   31.5100   46.7190 O   0  0  0  0  0  0  0  0  0  0  0  0
   61.8810   33.1470   46.5530 O   0  0  0  0  0  0  0  0  0  0  0  0
   62.8480   32.6410   48.9790 N   0  0  0  0  0  0  0  0  0  0  0  0
   64.2580   32.3500   49.2900 C   0  0  0  0  0  0  0  0  0  0  0  0
   64.7180   33.1230   50.5430 C   0  0  0  0  0  0  0  0  0  0  0  0
   63.6140   33.6680   51.2370 O   0  0  0  0  0  0  0  0  0  0  0  0
   62.9740   34.6390   50.4290 C   0  0  0  0  0  0  0  0  0  0  0  0
   62.6000   34.0870   49.0360 C   0  0  0  0  0  0  0  0  0  0  0  0
   60.5530   30.5370   48.7160 C   0  0  0  0  0  0  0  0  0  0  0  0
   59.5980   29.5180   48.8010 C   0  0  0  0  0  0  0  0  0  0  0  0
   57.8640   32.6040   43.7650 C   0  0  0  0  0  0  0  0  0  0  0  0
   58.4430   33.6360   44.5080 C   0  0  0  0  0  0  0  0  0  0  0  0
   58.7382   35.2175   48.5737 H   0  0  0  0  0  0  0  0  0  0  0  0
   59.0589   33.4549   48.4427 H   0  0  0  0  0  0  0  0  0  0  0  0
   60.4269   34.6191   48.4427 H   0  0  0  0  0  0  0  0  0  0  0  0
   60.1854   36.4651   46.7528 H   0  0  0  0  0  0  0  0  0  0  0  0
   60.7091   35.4511   45.3656 H   0  0  0  0  0  0  0  0  0  0  0  0
   59.0757   36.1986   45.3656 H   0  0  0  0  0  0  0  0  0  0  0  0
   58.5877   32.0899   47.5534 H   0  0  0  0  0  0  0  0  0  0  0  0
   57.5454   30.2631   46.2286 H   0  0  0  0  0  0  0  0  0  0  0  0
   56.1590   30.6727   42.9079 H   0  0  0  0  0  0  0  0  0  0  0  0
   57.7414   29.7917   42.9941 H   0  0  0  0  0  0  0  0  0  0  0  0
   55.9206   27.6600   46.5754 H   0  0  0  0  0  0  0  0  0  0  0  0
   56.2307   26.2225   45.5389 H   0  0  0  0  0  0  0  0  0  0  0  0
   59.8285   28.2800   45.6219 H   0  0  0  0  0  0  0  0  0  0  0  0
   61.5421   30.0889   45.4723 H   0  0  0  0  0  0  0  0  0  0  0  0
   64.3712   31.2709   49.4712 H   0  0  0  0  0  0  0  0  0  0  0  0
   64.8774   32.6643   48.4370 H   0  0  0  0  0  0  0  0  0  0  0  0
   65.2589   32.4362   51.2107 H   0  0  0  0  0  0  0  0  0  0  0  0
   65.3729   33.9475   50.2247 H   0  0  0  0  0  0  0  0  0  0  0  0
   62.0562   34.9719   50.9358 H   0  0  0  0  0  0  0  0  0  0  0  0
   63.6770   35.4724   50.2834 H   0  0  0  0  0  0  0  0  0  0  0  0
   61.5346   34.2806   48.8428 H   0  0  0  0  0  0  0  0  0  0  0  0
   63.2172   34.5868   48.2749 H   0  0  0  0  0  0  0  0  0  0  0  0
   60.7594   31.1697   49.5918 H   0  0  0  0  0  0  0  0  0  0  0  0
   59.0699   29.3415   49.7496 H   0  0  0  0  0  0  0  0  0  0  0  0
   57.6693   32.7460   42.6917 H   0  0  0  0  0  0  0  0  0  0  0  0
   58.6946   34.5858   44.0134 H   0  0  0  0  0  0  0  0  0  0  0  0
  1  2  1  0
  2  3  1  0
  2  4  1  0
  4  5  2  0
  5  6  1  0
  6  7  2  0
  7  8  1  0
  8  9  1  0
  9 10  2  0
  9 11  1  0
 11 12  1  0
 12 13  1  0
 13 14  2  0
 13 15  1  0
 15 16  1  0
 16 17  2  0
 17 18  1  0
 18 19  2  0
 19 20  1  0
 20 21  2  0
 20 22  2  0
 20 23  1  0
 23 24  1  0
 24 25  1  0
 25 26  1  0
 26 27  1  0
 27 28  1  0
 19 29  1  0
 29 30  2  0
  7 31  1  0
 31 32  2  0
 32  4  1  0
 30 16  1  0
 28 23  1  0
  1 33  1  0
  1 34  1  0
  1 35  1  0
  3 36  1  0
  3 37  1  0
  3 38  1  0
  5 39  1  0
  6 40  1  0
  8 41  1  0
  8 42  1  0
 12 43  1  0
 12 44  1  0
 17 45  1  0
 18 46  1  0
 24 47  1  0
 24 48  1  0
 25 49  1  0
 25 50  1  0
 27 51  1  0
 27 52  1  0
 28 53  1  0
 28 54  1  0
 29 55  1  0
 30 56  1  0
 31 57  1  0
 32 58  1  0
M  CHG  2  11  -1  15  -1
M  END
>  <UniqueID>  (40) 
37

>  <SMILES>  (40) 
CN(C)c1ccc(CC(=O)[N-]CC(=O)[N-]c2ccc(S(=O)(=O)N3CCOCC3)cc2)cc1

>  <Energy>  (40) 
70.34867042754122

>  <Genealogy>  (40) 
CN(C)c1ccc(CC(=O)[N-]CC(=O)[N-]c2ccc(S(=O)(=O)N3CCOCC3)cc2)cc1 (protonated)
CN(C)c1ccc(CC(=O)[N-]CC(=O)[N-]c2ccc(S(=O)(=O)N3CCOCC3)cc2)cc1 (3D coordinates assigned)
CN(C)c1ccc(CC(=O)[N-]CC(=O)[N-]c2ccc(S(=O)(=O)N3CCOCC3)cc2)cc1 (nonaromatic ring conformer: 70.34867042754122 kcal/mol)

>  <smiles>  (40) 
CN(C)c1ccc(CC(=O)NCC(=O)Nc2ccc(S(=O)(=O)N3CCOCC3)cc2)cc1

>  <score_type>  (40) 
oracle

>  <origin>  (40) 
adg

>  <m_score__min__energy>  (40) 
-12.84

>  <m_primary>  (40) 
energy

$$$$
40:0
     RDKit          3D

 42 43  0  0  0  0  0  0  0  0999 V2000
   63.0760   33.4870   47.0410 C   0  0  0  0  0  0  0  0  0  0  0  0
   61.6210   33.8300   47.1460 C   0  0  0  0  0  0  0  0  0  0  0  0
   61.0370   34.0650   48.4000 C   0  0  0  0  0  0  0  0  0  0  0  0
   59.6680   34.3250   48.5030 C   0  0  0  0  0  0  0  0  0  0  0  0
   58.8700   34.3410   47.3560 C   0  0  0  0  0  0  0  0  0  0  0  0
   59.4370   34.0990   46.0950 C   0  0  0  0  0  0  0  0  0  0  0  0
   58.5650   34.0540   44.8670 C   0  0  0  0  0  0  0  0  0  0  0  0
   57.3630   33.1180   45.0570 C   0  0  0  0  0  0  0  0  0  0  0  0
   57.3740   32.0270   44.0660 N   0  0  0  0  0  0  0  0  0  0  0  0
   57.8560   32.3130   42.7110 C   0  0  0  0  0  0  0  0  0  0  0  0
   56.9900   30.6710   44.3930 C   0  0  0  0  0  0  0  0  0  0  0  0
   55.7650   30.3880   44.5050 O   0  0  0  0  0  0  0  0  0  0  0  0
   58.0220   29.5920   44.6390 C   0  0  0  0  0  0  0  0  0  0  0  0
   58.9310   29.9170   45.7980 C   0  0  0  0  0  0  0  0  0  0  0  0
   58.3990   30.4250   46.9940 C   0  0  0  0  0  0  0  0  0  0  0  0
   59.2440   30.7590   48.0560 C   0  0  0  0  0  0  0  0  0  0  0  0
   60.6280   30.6000   47.9310 C   0  0  0  0  0  0  0  0  0  0  0  0
   61.4590   30.9370   48.9970 O   0  0  0  0  0  0  0  0  0  0  0  0
   61.1650   30.1050   46.7360 C   0  0  0  0  0  0  0  0  0  0  0  0
   60.3220   29.7690   45.6720 C   0  0  0  0  0  0  0  0  0  0  0  0
   60.8140   33.8360   45.9980 C   0  0  0  0  0  0  0  0  0  0  0  0
   63.5027   33.3864   48.0499 H   0  0  0  0  0  0  0  0  0  0  0  0
   63.1906   32.5372   46.4980 H   0  0  0  0  0  0  0  0  0  0  0  0
   63.6027   34.2856   46.4980 H   0  0  0  0  0  0  0  0  0  0  0  0
   61.6599   34.0444   49.3064 H   0  0  0  0  0  0  0  0  0  0  0  0
   59.2179   34.5173   49.4881 H   0  0  0  0  0  0  0  0  0  0  0  0
   57.7923   34.5442   47.4417 H   0  0  0  0  0  0  0  0  0  0  0  0
   58.1966   35.0684   44.6542 H   0  0  0  0  0  0  0  0  0  0  0  0
   59.1692   33.6703   44.0317 H   0  0  0  0  0  0  0  0  0  0  0  0
   57.4018   32.6851   46.0675 H   0  0  0  0  0  0  0  0  0  0  0  0
   56.4415   33.7029   44.9203 H   0  0  0  0  0  0  0  0  0  0  0  0
   58.8007   32.8736   42.7686 H   0  0  0  0  0  0  0  0  0  0  0  0
   58.0228   31.3676   42.1740 H   0  0  0  0  0  0  0  0  0  0  0  0
   57.1061   32.9124   42.1740 H   0  0  0  0  0  0  0  0  0  0  0  0
   57.5008   28.6473   44.8534 H   0  0  0  0  0  0  0  0  0  0  0  0
   58.6457   29.5134   43.7363 H   0  0  0  0  0  0  0  0  0  0  0  0
   57.3121   30.5607   47.0956 H   0  0  0  0  0  0  0  0  0  0  0  0
   58.8193   31.1481   48.9931 H   0  0  0  0  0  0  0  0  0  0  0  0
   61.0820   31.1960   49.9020 H   0  0  0  0  0  0  0  0  0  0  0  0
   62.2531   29.9801   46.6340 H   0  0  0  0  0  0  0  0  0  0  0  0
   60.7498   29.3875   44.7332 H   0  0  0  0  0  0  0  0  0  0  0  0
   61.2628   33.6332   45.0144 H   0  0  0  0  0  0  0  0  0  0  0  0
  1  2  1  0
  2  3  2  0
  3  4  1  0
  4  5  2  0
  5  6  1  0
  6  7  1  0
  7  8  1  0
  8  9  1  0
  9 10  1  0
  9 11  1  0
 11 12  2  0
 11 13  1  0
 13 14  1  0
 14 15  2  0
 15 16  1  0
 16 17  2  0
 17 18  1  0
 17 19  1  0
 19 20  2  0
  6 21  2  0
 21  2  1  0
 20 14  1  0
  1 22  1  0
  1 23  1  0
  1 24  1  0
  3 25  1  0
  4 26  1  0
  5 27  1  0
  7 28  1  0
  7 29  1  0
  8 30  1  0
  8 31  1  0
 10 32  1  0
 10 33  1  0
 10 34  1  0
 13 35  1  0
 13 36  1  0
 15 37  1  0
 16 38  1  0
 18 39  1  0
 19 40  1  0
 20 41  1  0
 21 42  1  0
M  END
>  <UniqueID>  (41) 
38

>  <SMILES>  (41) 
Cc1cccc(CCN(C)C(=O)Cc2ccc(O)cc2)c1

>  <Energy>  (41) 
34.29882422679053

>  <Genealogy>  (41) 
Cc1cccc(CCN(C)C(=O)Cc2ccc(O)cc2)c1 (3D coordinates assigned)
Cc1cccc(CCN(C)C(=O)Cc2ccc(O)cc2)c1 (optimized conformer: 34.29882422679053 kcal/mol)

>  <smiles>  (41) 
Cc1cccc(CCN(C)C(=O)Cc2ccc(O)cc2)c1

>  <score_type>  (41) 
oracle

>  <origin>  (41) 
adg

>  <m_score__min__energy>  (41) 
-7.79

>  <m_primary>  (41) 
energy

$$$$
41:0
     RDKit          3D

 53 55  0  0  0  0  0  0  0  0999 V2000
   60.1860   29.4760   51.2540 C   0  0  0  0  0  0  0  0  0  0  0  0
   59.9790   29.8080   49.9730 C   0  0  0  0  0  0  0  0  0  0  0  0
   60.7020   29.1100   48.8550 C   0  0  0  0  0  0  0  0  0  0  0  0
   59.7670   28.8600   47.7080 C   0  0  0  0  0  0  0  0  0  0  0  0
   58.5610   29.9320   47.2390 S   0  0  0  0  0  0  0  0  0  0  0  0
   57.9110   28.9580   46.0330 C   0  0  0  0  0  0  0  0  0  0  0  0
   56.7460   29.2540   45.2470 N   0  0  0  0  0  0  0  0  0  0  0  0
   56.6850   30.1000   44.0890 C   0  0  0  0  0  0  0  0  0  0  0  0
   56.1640   29.6770   43.0210 O   0  0  0  0  0  0  0  0  0  0  0  0
   57.2400   31.4750   44.1380 C   0  0  0  0  0  0  0  0  0  0  0  0
   57.9380   31.9680   43.1070 C   0  0  0  0  0  0  0  0  0  0  0  0
   56.9730   32.3560   45.3330 C   0  0  0  0  0  0  0  0  0  0  0  0
   58.1490   33.2590   45.5960 C   0  0  0  0  0  0  0  0  0  0  0  0
   58.2230   34.5190   44.9860 C   0  0  0  0  0  0  0  0  0  0  0  0
   59.3370   35.3350   45.1910 C   0  0  0  0  0  0  0  0  0  0  0  0
   60.3850   34.8990   46.0050 C   0  0  0  0  0  0  0  0  0  0  0  0
   60.3230   33.6460   46.6310 C   0  0  0  0  0  0  0  0  0  0  0  0
   61.4400   33.1670   47.4760 C   0  0  0  0  0  0  0  0  0  0  0  0
   62.6570   32.8170   46.8640 C   0  0  0  0  0  0  0  0  0  0  0  0
   63.7250   32.3450   47.6290 C   0  0  0  0  0  0  0  0  0  0  0  0
   63.5890   32.2200   49.0140 C   0  0  0  0  0  0  0  0  0  0  0  0
   62.3910   32.5640   49.6350 C   0  0  0  0  0  0  0  0  0  0  0  0
   61.3090   33.0300   48.8780 C   0  0  0  0  0  0  0  0  0  0  0  0
   59.6600   33.3790   49.7940 Br  0  0  0  0  0  0  0  0  0  0  0  0
   59.2070   32.8250   46.4110 C   0  0  0  0  0  0  0  0  0  0  0  0
   58.6220   27.7580   45.9760 C   0  0  0  0  0  0  0  0  0  0  0  0
   58.2690   26.6490   45.0590 C   0  0  0  0  0  0  0  0  0  0  0  0
   57.4160   26.8680   43.9330 N   0  0  0  0  0  0  0  0  0  0  0  0
   58.7250   25.4930   45.2640 O   0  0  0  0  0  0  0  0  0  0  0  0
   59.6730   27.7020   46.9270 C   0  0  0  0  0  0  0  0  0  0  0  0
   60.5650   26.5030   47.1070 C   0  0  0  0  0  0  0  0  0  0  0  0
   59.6438   30.0027   52.0532 H   0  0  0  0  0  0  0  0  0  0  0  0
   60.8982   28.6767   51.5068 H   0  0  0  0  0  0  0  0  0  0  0  0
   59.2642   30.6091   49.7338 H   0  0  0  0  0  0  0  0  0  0  0  0
   61.5362   29.7401   48.5128 H   0  0  0  0  0  0  0  0  0  0  0  0
   61.0846   28.1463   49.2222 H   0  0  0  0  0  0  0  0  0  0  0  0
   58.3442   32.9891   43.1559 H   0  0  0  0  0  0  0  0  0  0  0  0
   58.1052   31.3519   42.2112 H   0  0  0  0  0  0  0  0  0  0  0  0
   56.0815   32.9702   45.1379 H   0  0  0  0  0  0  0  0  0  0  0  0
   56.8093   31.7192   46.2149 H   0  0  0  0  0  0  0  0  0  0  0  0
   57.4003   34.8660   44.3435 H   0  0  0  0  0  0  0  0  0  0  0  0
   59.3896   36.3232   44.7106 H   0  0  0  0  0  0  0  0  0  0  0  0
   61.2642   35.5426   46.1558 H   0  0  0  0  0  0  0  0  0  0  0  0
   62.7681   32.9160   45.7741 H   0  0  0  0  0  0  0  0  0  0  0  0
   64.6727   32.0717   47.1420 H   0  0  0  0  0  0  0  0  0  0  0  0
   64.4314   31.8485   49.6160 H   0  0  0  0  0  0  0  0  0  0  0  0
   62.2940   32.4691   50.7266 H   0  0  0  0  0  0  0  0  0  0  0  0
   59.1602   31.8318   46.8814 H   0  0  0  0  0  0  0  0  0  0  0  0
   57.1560   26.0730   43.3100 H   0  0  0  0  0  0  0  0  0  0  0  0
   57.1240   27.8280   43.6520 H   0  0  0  0  0  0  0  0  0  0  0  0
   60.7083   26.3104   48.1805 H   0  0  0  0  0  0  0  0  0  0  0  0
   60.0987   25.6251   46.6360 H   0  0  0  0  0  0  0  0  0  0  0  0
   61.5399   26.6973   46.6360 H   0  0  0  0  0  0  0  0  0  0  0  0
  1  2  2  0
  2  3  1  0
  3  4  1  0
  4  5  1  0
  5  6  1  0
  6  7  1  0
  7  8  1  0
  8  9  2  0
  8 10  1  0
 10 11  2  0
 10 12  1  0
 12 13  1  0
 13 14  2  0
 14 15  1  0
 15 16  2  0
 16 17  1  0
 17 18  1  0
 18 19  2  0
 19 20  1  0
 20 21  2  0
 21 22  1  0
 22 23  2  0
 23 24  1  0
 17 25  2  0
  6 26  2  0
 26 27  1  0
 27 28  1  0
 27 29  2  0
 26 30  1  0
 30 31  1  0
 30  4  2  0
 25 13  1  0
 23 18  1  0
  1 32  1  0
  1 33  1  0
  2 34  1  0
  3 35  1  0
  3 36  1  0
 11 37  1  0
 11 38  1  0
 12 39  1  0
 12 40  1  0
 14 41  1  0
 15 42  1  0
 16 43  1  0
 19 44  1  0
 20 45  1  0
 21 46  1  0
 22 47  1  0
 25 48  1  0
 28 49  1  0
 28 50  1  0
 31 51  1  0
 31 52  1  0
 31 53  1  0
M  CHG  1   7  -1
M  END
>  <UniqueID>  (42) 
39

>  <SMILES>  (42) 
C=CCc1sc([N-]C(=O)C(=C)Cc2cccc(-c3ccccc3Br)c2)c(C(N)=O)c1C

>  <Energy>  (42) 
87.19439869659809

>  <Genealogy>  (42) 
C=CCc1sc([N-]C(=O)C(=C)Cc2cccc(-c3ccccc3Br)c2)c(C(N)=O)c1C (protonated)
C=CCc1sc([N-]C(=O)C(=C)Cc2cccc(-c3ccccc3Br)c2)c(C(N)=O)c1C (3D coordinates assigned)
C=CCc1sc([N-]C(=O)C(=C)Cc2cccc(-c3ccccc3Br)c2)c(C(N)=O)c1C (optimized conformer: 87.19439869659809 kcal/mol)

>  <smiles>  (42) 
C=CCc1sc(NC(=O)C(=C)Cc2cccc(-c3ccccc3Br)c2)c(C(N)=O)c1C

>  <score_type>  (42) 
oracle

>  <origin>  (42) 
adg

>  <m_score__min__energy>  (42) 
-11.550000000000001

>  <m_primary>  (42) 
energy

$$$$
42:0
     RDKit          3D

 16 16  0  0  0  0  0  0  0  0999 V2000
   55.1560   29.4800   44.8540 O   0  0  0  0  0  0  0  0  0  0  0  0
   56.1180   28.6950   45.0670 C   0  0  0  0  0  0  0  0  0  0  0  0
   55.8750   27.4440   45.6200 O   0  0  0  0  0  0  0  0  0  0  0  0
   57.5080   29.0880   44.6810 C   0  0  0  0  0  0  0  0  0  0  0  0
   57.6200   30.5490   44.6220 N   0  0  0  0  0  0  0  0  0  0  0  0
   57.9480   31.2070   45.7370 N   0  0  0  0  0  0  0  0  0  0  0  0
   58.0470   32.5590   45.7650 C   0  0  0  0  0  0  0  0  0  0  0  0
   58.5250   33.4370   47.3930 Br  0  0  0  0  0  0  0  0  0  0  0  0
   57.7910   33.2730   44.5950 C   0  0  0  0  0  0  0  0  0  0  0  0
   57.8730   34.5310   44.5800 O   0  0  0  0  0  0  0  0  0  0  0  0
   57.4490   32.6000   43.4660 N   0  0  0  0  0  0  0  0  0  0  0  0
   57.3570   31.2430   43.4710 C   0  0  0  0  0  0  0  0  0  0  0  0
   57.0280   30.6380   42.4130 O   0  0  0  0  0  0  0  0  0  0  0  0
   58.2167   28.6985   45.4267 H   0  0  0  0  0  0  0  0  0  0  0  0
   57.7391   28.6687   43.6907 H   0  0  0  0  0  0  0  0  0  0  0  0
   57.2510   33.1300   42.5870 H   0  0  0  0  0  0  0  0  0  0  0  0
  1  2  2  0
  2  3  1  0
  2  4  1  0
  4  5  1  0
  5  6  1  0
  6  7  2  0
  7  8  1  0
  7  9  1  0
  9 10  2  0
  9 11  1  0
 11 12  1  0
 12 13  2  0
 12  5  1  0
  4 14  1  0
  4 15  1  0
 11 16  1  0
M  CHG  1   3  -1
M  END
>  <UniqueID>  (43) 
40

>  <SMILES>  (43) 
O=C([O-])Cn1nc(Br)c(=O)[nH]c1=O

>  <Energy>  (43) 
15.89431653784429

>  <Genealogy>  (43) 
O=C([O-])Cn1nc(Br)c(=O)[nH]c1=O (protonated)
O=C([O-])Cn1nc(Br)c(=O)[nH]c1=O (3D coordinates assigned)
O=C([O-])Cn1nc(Br)c(=O)[nH]c1=O (optimized conformer: 15.89431653784429 kcal/mol)

>  <smiles>  (43) 
O=C(O)Cn1nc(Br)c(=O)[nH]c1=O

>  <score_type>  (43) 
oracle

>  <origin>  (43) 
adg

>  <m_score__min__energy>  (43) 
-8.3499999999999996

>  <m_primary>  (43) 
energy

$$$$
43:0
     RDKit          3D

 44 47  0  0  0  0  0  0  0  0999 V2000
   59.3450   34.6380   45.6550 C   0  0  0  0  0  0  0  0  0  0  0  0
   58.1520   34.5880   46.2590 C   0  0  0  0  0  0  0  0  0  0  0  0
   57.5510   33.2890   46.7350 C   0  0  0  0  0  0  0  0  0  0  0  0
   58.3110   32.0680   46.3660 N   0  0  0  0  0  0  0  0  0  0  0  0
   57.8270   31.1520   45.3500 C   0  0  0  0  0  0  0  0  0  0  0  0
   57.5730   31.5880   44.0360 C   0  0  0  0  0  0  0  0  0  0  0  0
   57.0930   30.6980   43.0730 C   0  0  0  0  0  0  0  0  0  0  0  0
   56.9080   29.3540   43.3940 C   0  0  0  0  0  0  0  0  0  0  0  0
   57.2450   28.8880   44.6660 C   0  0  0  0  0  0  0  0  0  0  0  0
   57.7300   29.7720   45.6420 C   0  0  0  0  0  0  0  0  0  0  0  0
   58.2920   29.1940   46.9210 C   0  0  0  0  0  0  0  0  0  0  0  0
   58.7940   30.2470   47.9260 C   0  0  0  0  0  0  0  0  0  0  0  0
   59.3720   31.5210   47.2600 C   0  0  1  0  0  0  0  0  0  0  0  0
   60.6290   31.1970   46.3720 C   0  0  0  0  0  0  0  0  0  0  0  0
   61.9020   30.8460   47.1620 C   0  0  0  0  0  0  0  0  0  0  0  0
   62.2080   31.9320   48.1430 C   0  0  0  0  0  0  0  0  0  0  0  0
   63.4780   32.2210   48.6550 C   0  0  0  0  0  0  0  0  0  0  0  0
   63.4510   33.2270   49.6170 C   0  0  0  0  0  0  0  0  0  0  0  0
   64.6230   33.7020   50.4070 C   0  0  0  0  0  0  0  0  0  0  0  0
   61.8550   33.7110   49.8700 S   0  0  0  0  0  0  0  0  0  0  0  0
   61.1980   32.6750   48.7180 C   0  0  0  0  0  0  0  0  0  0  0  0
   59.7800   32.4810   48.3960 C   0  0  0  0  0  0  0  0  0  0  0  0
   58.9190   32.9860   49.1650 O   0  0  0  0  0  0  0  0  0  0  0  0
   59.7523   35.6037   45.3209 H   0  0  0  0  0  0  0  0  0  0  0  0
   59.9184   33.7134   45.4926 H   0  0  0  0  0  0  0  0  0  0  0  0
   57.5926   35.5225   46.4131 H   0  0  0  0  0  0  0  0  0  0  0  0
   57.4816   33.3280   47.8321 H   0  0  0  0  0  0  0  0  0  0  0  0
   56.5746   33.2033   46.2356 H   0  0  0  0  0  0  0  0  0  0  0  0
   57.7542   32.6387   43.7654 H   0  0  0  0  0  0  0  0  0  0  0  0
   56.8605   31.0578   42.0598 H   0  0  0  0  0  0  0  0  0  0  0  0
   56.4967   28.6610   42.6453 H   0  0  0  0  0  0  0  0  0  0  0  0
   57.1296   27.8205   44.9049 H   0  0  0  0  0  0  0  0  0  0  0  0
   57.5026   28.6024   47.4076 H   0  0  0  0  0  0  0  0  0  0  0  0
   59.1656   28.5894   46.6359 H   0  0  0  0  0  0  0  0  0  0  0  0
   57.9514   30.5431   48.5681 H   0  0  0  0  0  0  0  0  0  0  0  0
   59.6133   29.7826   48.4944 H   0  0  0  0  0  0  0  0  0  0  0  0
   60.3806   30.3424   45.7255 H   0  0  0  0  0  0  0  0  0  0  0  0
   60.8561   32.1144   45.8091 H   0  0  0  0  0  0  0  0  0  0  0  0
   61.7471   29.9001   47.7017 H   0  0  0  0  0  0  0  0  0  0  0  0
   62.7448   30.7416   46.4628 H   0  0  0  0  0  0  0  0  0  0  0  0
   64.3969   31.7094   48.3327 H   0  0  0  0  0  0  0  0  0  0  0  0
   64.4020   33.6124   51.4808 H   0  0  0  0  0  0  0  0  0  0  0  0
   65.5032   33.0896   50.1615 H   0  0  0  0  0  0  0  0  0  0  0  0
   64.8285   34.7544   50.1615 H   0  0  0  0  0  0  0  0  0  0  0  0
  1  2  2  0
  2  3  1  0
  3  4  1  0
  4  5  1  0
  5  6  2  0
  6  7  1  0
  7  8  2  0
  8  9  1  0
  9 10  2  0
 10 11  1  0
 11 12  1  0
 12 13  1  0
 13 14  1  0
 14 15  1  0
 15 16  1  0
 16 17  1  0
 17 18  2  0
 18 19  1  0
 18 20  1  0
 20 21  1  0
 21 22  1  0
 22 23  2  0
 13  4  1  6
 21 16  2  0
 10  5  1  0
 22 13  1  0
  1 24  1  0
  1 25  1  0
  2 26  1  0
  3 27  1  0
  3 28  1  0
  6 29  1  0
  7 30  1  0
  8 31  1  0
  9 32  1  0
 11 33  1  0
 11 34  1  0
 12 35  1  0
 12 36  1  0
 14 37  1  0
 14 38  1  0
 15 39  1  0
 15 40  1  0
 17 41  1  0
 19 42  1  0
 19 43  1  0
 19 44  1  0
M  END
>  <UniqueID>  (44) 
41

>  <SMILES>  (44) 
C=CCN1c2ccccc2CC[C@@]12CCc1cc(C)sc1C2=O

>  <Energy>  (44) 
92.4142646780256

>  <Genealogy>  (44) 
C=CCN1c2ccccc2CC[C@@]12CCc1cc(C)sc1C2=O (chirality)
C=CCN1c2ccccc2CC[C@@]12CCc1cc(C)sc1C2=O (3D coordinates assigned)
C=CCN1c2ccccc2CC[C@@]12CCc1cc(C)sc1C2=O (nonaromatic ring conformer: 92.4142646780256 kcal/mol)

>  <smiles>  (44) 
C=CCN1c2ccccc2CCC12CCc1cc(C)sc1C2=O

>  <score_type>  (44) 
oracle

>  <origin>  (44) 
adg

>  <m_score__min__energy>  (44) 
-7.6699999999999999

>  <m_primary>  (44) 
energy

$$$$
44:0
     RDKit          3D

 58 61  0  0  0  0  0  0  0  0999 V2000
   66.4970   31.0260   51.1580 C   0  0  0  0  0  0  0  0  0  0  0  0
   66.5920   32.1490   50.1310 C   0  0  0  0  0  0  0  0  0  0  0  0
   65.6280   33.1660   50.4040 O   0  0  0  0  0  0  0  0  0  0  0  0
   64.2900   33.1630   49.9760 C   0  0  0  0  0  0  0  0  0  0  0  0
   63.9140   32.8810   48.6490 C   0  0  0  0  0  0  0  0  0  0  0  0
   62.5650   32.8880   48.2810 C   0  0  0  0  0  0  0  0  0  0  0  0
   61.5670   33.1640   49.2310 C   0  0  0  0  0  0  0  0  0  0  0  0
   60.1340   33.1830   48.8500 C   0  0  0  0  0  0  0  0  0  0  0  0
   59.4240   34.1730   49.1780 O   0  0  0  0  0  0  0  0  0  0  0  0
   59.5020   32.0490   48.1430 C   0  0  0  0  0  0  0  0  0  0  0  0
   58.3160   32.2150   46.9640 S   0  0  0  0  0  0  0  0  0  0  0  0
   58.1880   30.5770   46.5830 C   0  0  0  0  0  0  0  0  0  0  0  0
   57.2450   30.0060   45.6510 N   0  0  0  0  0  0  0  0  0  0  0  0
   57.3100   30.6640   44.3680 C   0  0  0  0  0  0  0  0  0  0  0  0
   56.5900   30.1610   43.2700 C   0  0  0  0  0  0  0  0  0  0  0  0
   56.6270   30.8180   42.0370 C   0  0  0  0  0  0  0  0  0  0  0  0
   57.3910   31.9840   41.8800 C   0  0  0  0  0  0  0  0  0  0  0  0
   57.3970   32.7120   40.5690 C   0  0  0  0  0  0  0  0  0  0  0  0
   58.0910   32.5040   42.9800 C   0  0  0  0  0  0  0  0  0  0  0  0
   58.0540   31.8460   44.2130 C   0  0  0  0  0  0  0  0  0  0  0  0
   59.0630   29.8530   47.4070 C   0  0  0  0  0  0  0  0  0  0  0  0
   59.1830   28.3750   47.3570 C   0  0  0  0  0  0  0  0  0  0  0  0
   59.8800   27.7820   48.2200 O   0  0  0  0  0  0  0  0  0  0  0  0
   58.6220   27.6070   46.2820 N   0  0  0  0  0  0  0  0  0  0  0  0
   57.7630   26.6250   46.3320 C   0  0  0  0  0  0  0  0  0  0  0  0
   58.2080   25.4220   46.7900 N   0  0  0  0  0  0  0  0  0  0  0  0
   57.4100   24.3240   46.8640 C   0  0  0  0  0  0  0  0  0  0  0  0
   56.0770   24.4040   46.4660 C   0  0  0  0  0  0  0  0  0  0  0  0
   55.5720   25.6240   46.0210 C   0  0  0  0  0  0  0  0  0  0  0  0
   56.3980   26.7500   45.9680 C   0  0  0  0  0  0  0  0  0  0  0  0
   55.8300   27.9660   45.6130 O   0  0  0  0  0  0  0  0  0  0  0  0
   59.8030   30.6880   48.2820 C   0  0  0  0  0  0  0  0  0  0  0  0
   60.6670   30.1870   49.3120 N   0  0  0  0  0  0  0  0  0  0  0  0
   61.9480   33.4570   50.5510 C   0  0  0  0  0  0  0  0  0  0  0  0
   63.2960   33.4500   50.9180 C   0  0  0  0  0  0  0  0  0  0  0  0
   66.5330   31.4520   52.1715 H   0  0  0  0  0  0  0  0  0  0  0  0
   65.5498   30.4836   51.0217 H   0  0  0  0  0  0  0  0  0  0  0  0
   67.3397   30.3322   51.0217 H   0  0  0  0  0  0  0  0  0  0  0  0
   67.6000   32.5878   50.1681 H   0  0  0  0  0  0  0  0  0  0  0  0
   66.3933   31.7325   49.1325 H   0  0  0  0  0  0  0  0  0  0  0  0
   64.6851   32.6541   47.8980 H   0  0  0  0  0  0  0  0  0  0  0  0
   62.2827   32.6757   47.2393 H   0  0  0  0  0  0  0  0  0  0  0  0
   57.4550   28.9920   45.5080 H   0  0  0  0  0  0  0  0  0  0  0  0
   56.2850   30.0870   46.0570 H   0  0  0  0  0  0  0  0  0  0  0  0
   55.9933   29.2438   43.3823 H   0  0  0  0  0  0  0  0  0  0  0  0
   56.0548   30.4192   41.1864 H   0  0  0  0  0  0  0  0  0  0  0  0
   57.4059   33.7966   40.7519 H   0  0  0  0  0  0  0  0  0  0  0  0
   58.2928   32.4293   39.9967 H   0  0  0  0  0  0  0  0  0  0  0  0
   56.4966   32.4441   39.9967 H   0  0  0  0  0  0  0  0  0  0  0  0
   58.6707   33.4325   42.8715 H   0  0  0  0  0  0  0  0  0  0  0  0
   58.6113   32.2565   45.0679 H   0  0  0  0  0  0  0  0  0  0  0  0
   57.8164   23.3727   47.2379 H   0  0  0  0  0  0  0  0  0  0  0  0
   55.4310   23.5144   46.5027 H   0  0  0  0  0  0  0  0  0  0  0  0
   54.5196   25.7011   45.7104 H   0  0  0  0  0  0  0  0  0  0  0  0
   60.9120   30.7660   50.1430 H   0  0  0  0  0  0  0  0  0  0  0  0
   60.9630   29.1900   49.3400 H   0  0  0  0  0  0  0  0  0  0  0  0
   61.1792   33.6937   51.3013 H   0  0  0  0  0  0  0  0  0  0  0  0
   63.5786   33.6723   51.9576 H   0  0  0  0  0  0  0  0  0  0  0  0
  1  2  1  0
  2  3  1  0
  3  4  1  0
  4  5  2  0
  5  6  1  0
  6  7  2  0
  7  8  1  0
  8  9  2  0
  8 10  1  0
 10 11  1  0
 11 12  1  0
 12 13  1  0
 13 14  1  0
 14 15  2  0
 15 16  1  0
 16 17  2  0
 17 18  1  0
 17 19  1  0
 19 20  2  0
 12 21  2  0
 21 22  1  0
 22 23  2  0
 22 24  1  0
 24 25  2  3
 25 26  1  0
 26 27  1  0
 27 28  2  0
 28 29  1  0
 29 30  2  0
 30 31  1  0
 21 32  1  0
 32 33  1  0
  7 34  1  0
 34 35  2  0
 35  4  1  0
 32 10  2  0
 20 14  1  0
 30 25  1  0
  1 36  1  0
  1 37  1  0
  1 38  1  0
  2 39  1  0
  2 40  1  0
  5 41  1  0
  6 42  1  0
 13 43  1  0
 13 44  1  0
 15 45  1  0
 16 46  1  0
 18 47  1  0
 18 48  1  0
 18 49  1  0
 19 50  1  0
 20 51  1  0
 27 52  1  0
 28 53  1  0
 29 54  1  0
 33 55  1  0
 33 56  1  0
 34 57  1  0
 35 58  1  0
M  CHG  3  13   1  26  -1  31  -1
M  END
>  <UniqueID>  (45) 
42

>  <SMILES>  (45) 
CCOc1ccc(C(=O)c2sc([NH2+]c3ccc(C)cc3)c(C(=O)N=c3[n-]cccc3[O-])c2N)cc1

>  <Energy>  (45) 
112.73213381280827

>  <Genealogy>  (45) 
CCOc1ccc(C(=O)c2sc([NH2+]c3ccc(C)cc3)c(C(=O)N=c3[n-]cccc3[O-])c2N)cc1 (protonated)
CCOc1ccc(C(=O)c2sc([NH2+]c3ccc(C)cc3)c(C(=O)N=c3[n-]cccc3[O-])c2N)cc1 (3D coordinates assigned)
CCOc1ccc(C(=O)c2sc([NH2+]c3ccc(C)cc3)c(C(=O)N=c3[n-]cccc3[O-])c2N)cc1 (optimized conformer: 112.73213381280827 kcal/mol)

>  <smiles>  (45) 
CCOc1ccc(C(=O)c2sc(Nc3ccc(C)cc3)c(C(=O)N=c3[nH]cccc3O)c2N)cc1

>  <score_type>  (45) 
oracle

>  <origin>  (45) 
adg

>  <m_score__min__energy>  (45) 
-10.91

>  <m_primary>  (45) 
energy

$$$$
45:0
     RDKit          3D

 53 56  0  0  0  0  0  0  0  0999 V2000
   55.1450   29.3430   44.8780 O   0  0  0  0  0  0  0  0  0  0  0  0
   56.2380   29.8820   44.5660 C   0  0  0  0  0  0  0  0  0  0  0  0
   56.3130   31.3140   44.5010 N   0  0  0  0  0  0  0  0  0  0  0  0
   57.3020   32.1350   45.1370 C   0  0  0  0  0  0  0  0  0  0  0  0
   57.8100   31.8240   46.4100 C   0  0  0  0  0  0  0  0  0  0  0  0
   58.8000   32.6240   46.9880 C   0  0  0  0  0  0  0  0  0  0  0  0
   59.2700   33.7650   46.3150 C   0  0  0  0  0  0  0  0  0  0  0  0
   60.2830   34.5780   46.8470 O   0  0  0  0  0  0  0  0  0  0  0  0
   61.4670   34.1160   47.4400 C   0  0  0  0  0  0  0  0  0  0  0  0
   62.5350   33.7520   46.6160 C   0  0  0  0  0  0  0  0  0  0  0  0
   63.7240   33.2980   47.1890 C   0  0  0  0  0  0  0  0  0  0  0  0
   63.8420   33.2220   48.5400 N   0  0  0  0  0  0  0  0  0  0  0  0
   62.8250   33.5790   49.3750 C   0  0  0  0  0  0  0  0  0  0  0  0
   62.9610   33.5160   50.6690 N   0  0  0  0  0  0  0  0  0  0  0  0
   64.0380   34.0750   51.4390 C   0  0  0  0  0  0  0  0  0  0  0  0
   63.7620   34.9090   52.3420 O   0  0  0  0  0  0  0  0  0  0  0  0
   65.4500   33.6750   51.2360 C   0  0  0  0  0  0  0  0  0  0  0  0
   66.4760   34.5850   51.5450 C   0  0  0  0  0  0  0  0  0  0  0  0
   67.8150   34.2340   51.3560 C   0  0  0  0  0  0  0  0  0  0  0  0
   68.1460   32.9690   50.8690 C   0  0  0  0  0  0  0  0  0  0  0  0
   67.1380   32.0470   50.5780 C   0  0  0  0  0  0  0  0  0  0  0  0
   65.7900   32.3870   50.7690 C   0  0  0  0  0  0  0  0  0  0  0  0
   64.7950   31.4440   50.5090 O   0  0  0  0  0  0  0  0  0  0  0  0
   61.6230   34.0490   48.8340 C   0  0  0  0  0  0  0  0  0  0  0  0
   58.7500   34.0800   45.0540 C   0  0  0  0  0  0  0  0  0  0  0  0
   57.7630   33.2780   44.4760 C   0  0  0  0  0  0  0  0  0  0  0  0
   57.3690   29.0460   44.2860 N   0  0  0  0  0  0  0  0  0  0  0  0
   58.0010   28.1490   45.2110 C   0  0  0  0  0  0  0  0  0  0  0  0
   57.9670   26.7580   45.0240 C   0  0  0  0  0  0  0  0  0  0  0  0
   58.6080   25.9120   45.9330 C   0  0  0  0  0  0  0  0  0  0  0  0
   58.5720   24.1760   45.6860 Cl  0  0  0  0  0  0  0  0  0  0  0  0
   59.2750   26.4480   47.0390 C   0  0  0  0  0  0  0  0  0  0  0  0
   59.3140   27.8380   47.2420 C   0  0  0  0  0  0  0  0  0  0  0  0
   59.9880   28.4130   48.4630 C   0  0  0  0  0  0  0  0  0  0  0  0
   60.8950   29.3950   48.1030 F   0  0  0  0  0  0  0  0  0  0  0  0
   60.6710   27.4270   49.1540 F   0  0  0  0  0  0  0  0  0  0  0  0
   59.0310   28.9650   49.2920 F   0  0  0  0  0  0  0  0  0  0  0  0
   58.6440   28.6790   46.3350 C   0  0  0  0  0  0  0  0  0  0  0  0
   57.4271   30.9477   46.9536 H   0  0  0  0  0  0  0  0  0  0  0  0
   59.2126   32.3597   47.9728 H   0  0  0  0  0  0  0  0  0  0  0  0
   62.4394   33.8228   45.5225 H   0  0  0  0  0  0  0  0  0  0  0  0
   64.5659   33.0016   46.5461 H   0  0  0  0  0  0  0  0  0  0  0  0
   66.2227   35.5805   51.9384 H   0  0  0  0  0  0  0  0  0  0  0  0
   68.6102   34.9566   51.5917 H   0  0  0  0  0  0  0  0  0  0  0  0
   69.2008   32.6979   50.7143 H   0  0  0  0  0  0  0  0  0  0  0  0
   67.4021   31.0494   50.1972 H   0  0  0  0  0  0  0  0  0  0  0  0
   63.9300   31.6980   50.0470 H   0  0  0  0  0  0  0  0  0  0  0  0
   60.8043   34.3644   49.4975 H   0  0  0  0  0  0  0  0  0  0  0  0
   59.1208   34.9643   44.5151 H   0  0  0  0  0  0  0  0  0  0  0  0
   57.3457   33.5473   43.4945 H   0  0  0  0  0  0  0  0  0  0  0  0
   57.4347   26.3332   44.1602 H   0  0  0  0  0  0  0  0  0  0  0  0
   59.7725   25.7771   47.7549 H   0  0  0  0  0  0  0  0  0  0  0  0
   58.6254   29.7646   46.5112 H   0  0  0  0  0  0  0  0  0  0  0  0
  1  2  2  0
  2  3  1  0
  3  4  1  0
  4  5  2  0
  5  6  1  0
  6  7  2  0
  7  8  1  0
  8  9  1  0
  9 10  1  0
 10 11  2  0
 11 12  1  0
 12 13  1  0
 13 14  2  3
 14 15  1  0
 15 16  2  0
 15 17  1  0
 17 18  2  0
 18 19  1  0
 19 20  2  0
 20 21  1  0
 21 22  2  0
 22 23  1  0
 13 24  1  0
  7 25  1  0
 25 26  2  0
  2 27  1  0
 27 28  1  0
 28 29  2  0
 29 30  1  0
 30 31  1  0
 30 32  2  0
 32 33  1  0
 33 34  1  0
 34 35  1  0
 34 36  1  0
 34 37  1  0
 33 38  2  0
 26  4  1  0
 38 28  1  0
 24  9  2  0
 22 17  1  0
  5 39  1  0
  6 40  1  0
 10 41  1  0
 11 42  1  0
 18 43  1  0
 19 44  1  0
 20 45  1  0
 21 46  1  0
 23 47  1  0
 24 48  1  0
 25 49  1  0
 26 50  1  0
 29 51  1  0
 32 52  1  0
 38 53  1  0
M  CHG  3   3  -1  12  -1  27  -1
M  END
>  <UniqueID>  (46) 
43

>  <SMILES>  (46) 
O=C([N-]c1ccc(Oc2cc[n-]c(=NC(=O)c3ccccc3O)c2)cc1)[N-]c1cc(Cl)cc(C(F)(F)F)c1

>  <Energy>  (46) 
80.94751165430559

>  <Genealogy>  (46) 
O=C([N-]c1ccc(Oc2cc[n-]c(=NC(=O)c3ccccc3O)c2)cc1)[N-]c1cc(Cl)cc(C(F)(F)F)c1 (protonated)
O=C([N-]c1ccc(Oc2cc[n-]c(=NC(=O)c3ccccc3O)c2)cc1)[N-]c1cc(Cl)cc(C(F)(F)F)c1 (3D coordinates assigned)
O=C([N-]c1ccc(Oc2cc[n-]c(=NC(=O)c3ccccc3O)c2)cc1)[N-]c1cc(Cl)cc(C(F)(F)F)c1 (optimized conformer: 80.94751165430559 kcal/mol)

>  <smiles>  (46) 
O=C(Nc1ccc(Oc2cc[nH]c(=NC(=O)c3ccccc3O)c2)cc1)Nc1cc(Cl)cc(C(F)(F)F)c1

>  <score_type>  (46) 
oracle

>  <origin>  (46) 
adg

>  <m_score__min__energy>  (46) 
-12.35

>  <m_primary>  (46) 
energy

$$$$
46:0
     RDKit          3D

 44 46  0  0  0  0  0  0  0  0999 V2000
   60.6163   26.9036   47.2248 H   0  0  0  0  0  0  0  0  0  0  0  0
   59.9240   27.3770   46.5130 C   0  0  0  0  0  0  0  0  0  0  0  0
   60.4160   28.2300   45.5220 C   0  0  0  0  0  0  0  0  0  0  0  0
   61.4967   28.4215   45.4492 H   0  0  0  0  0  0  0  0  0  0  0  0
   59.5360   28.8410   44.6220 C   0  0  0  0  0  0  0  0  0  0  0  0
   59.9274   29.5082   43.8399 H   0  0  0  0  0  0  0  0  0  0  0  0
   58.1540   28.6050   44.7140 C   0  0  0  0  0  0  0  0  0  0  0  0
   57.2100   29.2290   43.7240 C   0  0  0  0  0  0  0  0  0  0  0  0
   56.7521   28.4400   43.1094 H   0  0  0  0  0  0  0  0  0  0  0  0
   57.7682   29.9248   43.0804 H   0  0  0  0  0  0  0  0  0  0  0  0
   56.1370   29.9800   44.4470 C   0  0  0  0  0  0  0  0  0  0  0  0
   55.1430   29.3580   44.9100 O   0  0  0  0  0  0  0  0  0  0  0  0
   56.2690   31.3960   44.6280 N   0  0  0  0  0  0  0  0  0  0  0  0
   57.3790   32.0800   45.2270 C   0  0  0  0  0  0  0  0  0  0  0  0
   57.7910   33.3530   44.8010 C   0  0  0  0  0  0  0  0  0  0  0  0
   57.2454   33.8631   43.9935 H   0  0  0  0  0  0  0  0  0  0  0  0
   58.8910   33.9750   45.3980 C   0  0  0  0  0  0  0  0  0  0  0  0
   59.1968   34.9777   45.0649 H   0  0  0  0  0  0  0  0  0  0  0  0
   59.6110   33.3310   46.4210 C   0  0  0  0  0  0  0  0  0  0  0  0
   60.7780   33.9910   47.0510 C   0  0  0  0  0  0  0  0  0  0  0  0
   61.8250   34.1870   46.3750 O   0  0  0  0  0  0  0  0  0  0  0  0
   60.7440   34.3180   48.4520 N   0  0  0  0  0  0  0  0  0  0  0  0
   61.5710   33.9700   49.4020 C   0  0  0  0  0  0  0  0  0  0  0  0
   61.1740   33.8400   50.7500 C   0  0  0  0  0  0  0  0  0  0  0  0
   60.1300   34.0292   51.0403 H   0  0  0  0  0  0  0  0  0  0  0  0
   62.1140   33.4700   51.7120 C   0  0  0  0  0  0  0  0  0  0  0  0
   61.8140   33.3772   52.7662 H   0  0  0  0  0  0  0  0  0  0  0  0
   63.4320   33.2180   51.3390 C   0  0  0  0  0  0  0  0  0  0  0  0
   64.1805   32.9443   52.0972 H   0  0  0  0  0  0  0  0  0  0  0  0
   63.7960   33.3160   49.9910 C   0  0  0  0  0  0  0  0  0  0  0  0
   65.2150   33.0670   49.5700 C   0  0  0  0  0  0  0  0  0  0  0  0
   65.8482   32.9559   50.4626 H   0  0  0  0  0  0  0  0  0  0  0  0
   65.2632   32.1467   48.9694 H   0  0  0  0  0  0  0  0  0  0  0  0
   65.5736   33.9159   48.9694 H   0  0  0  0  0  0  0  0  0  0  0  0
   62.8660   33.6930   49.0650 N   0  0  0  0  0  0  0  0  0  0  0  0
   63.1580   33.7810   48.0640 H   0  0  0  0  0  0  0  0  0  0  0  0
   59.2070   32.0470   46.8270 C   0  0  0  0  0  0  0  0  0  0  0  0
   59.7621   31.5258   47.6208 H   0  0  0  0  0  0  0  0  0  0  0  0
   58.1060   31.4280   46.2300 C   0  0  0  0  0  0  0  0  0  0  0  0
   57.8076   30.4191   46.5510 H   0  0  0  0  0  0  0  0  0  0  0  0
   57.6680   27.7330   45.7030 C   0  0  0  0  0  0  0  0  0  0  0  0
   56.5894   27.5282   45.7715 H   0  0  0  0  0  0  0  0  0  0  0  0
   58.5510   27.1250   46.6000 C   0  0  0  0  0  0  0  0  0  0  0  0
   58.1653   26.4471   47.3757 H   0  0  0  0  0  0  0  0  0  0  0  0
  1  2  1  0
  2  3  2  0
  3  4  1  0
  3  5  1  0
  5  6  1  0
  5  7  2  0
  7  8  1  0
  8  9  1  0
  8 10  1  0
  8 11  1  0
 11 12  2  0
 11 13  1  0
 13 14  1  0
 14 15  2  0
 15 16  1  0
 15 17  1  0
 17 18  1  0
 17 19  2  0
 19 20  1  0
 20 21  2  0
 20 22  1  0
 22 23  2  0
 23 24  1  0
 24 25  1  0
 24 26  2  0
 26 27  1  0
 26 28  1  0
 28 29  1  0
 28 30  2  0
 30 31  1  0
 31 32  1  0
 31 33  1  0
 31 34  1  0
 30 35  1  0
 35 36  1  0
 19 37  1  0
 37 38  1  0
 37 39  2  0
 39 40  1  0
  7 41  1  0
 41 42  1  0
 41 43  2  0
 43 44  1  0
 43  2  1  0
 39 14  1  0
 35 23  1  0
M  CHG  1  13  -1
M  END
>  <UniqueID>  (47) 
44

>  <SMILES>  (47) 
Cc1ccc/c(=N\C(=O)c2ccc([N-]C(=O)Cc3ccccc3)cc2)[nH]1

>  <Energy>  (47) 
56.22071887863682

>  <Genealogy>  (47) 
Cc1cccc(=NC(=O)c2ccc([N-]C(=O)Cc3ccccc3)cc2)[nH]1 (protonated)
Cc1ccc/c(=N\C(=O)c2ccc([N-]C(=O)Cc3ccccc3)cc2)[nH]1 (cis-trans isomerization)
Cc1ccc/c(=N\C(=O)c2ccc([N-]C(=O)Cc3ccccc3)cc2)[nH]1 (3D coordinates assigned)
Cc1ccc/c(=N\C(=O)c2ccc([N-]C(=O)Cc3ccccc3)cc2)[nH]1 (optimized conformer: 56.22071887863682 kcal/mol)

>  <smiles>  (47) 
Cc1cccc(=NC(=O)c2ccc(NC(=O)Cc3ccccc3)cc2)[nH]1

>  <score_type>  (47) 
oracle

>  <origin>  (47) 
adg

>  <m_score__min__energy>  (47) 
-10.619999999999999

>  <m_primary>  (47) 
energy

$$$$
47:0
     RDKit          3D

 41 43  0  0  0  0  0  0  0  0999 V2000
   59.2110   35.6950   54.5920 C   0  0  0  0  0  0  0  0  0  0  0  0
   59.1400   34.4370   53.7900 C   0  0  0  0  0  0  0  0  0  0  0  0
   59.2910   33.3270   54.3690 O   0  0  0  0  0  0  0  0  0  0  0  0
   58.8090   34.4960   52.3940 N   0  0  0  0  0  0  0  0  0  0  0  0
   58.8910   33.3750   51.4970 C   0  0  0  0  0  0  0  0  0  0  0  0
   57.9780   32.3110   51.5640 C   0  0  0  0  0  0  0  0  0  0  0  0
   58.0940   31.2220   50.6960 C   0  0  0  0  0  0  0  0  0  0  0  0
   59.1320   31.1660   49.7470 C   0  0  0  0  0  0  0  0  0  0  0  0
   59.2370   29.9980   48.8340 C   0  0  0  0  0  0  0  0  0  0  0  0
   60.3180   29.1080   48.8110 C   0  0  0  0  0  0  0  0  0  0  0  0
   60.0220   27.9470   47.6310 S   0  0  0  0  0  0  0  0  0  0  0  0
   58.5440   28.6270   47.1860 C   0  0  0  0  0  0  0  0  0  0  0  0
   57.7220   28.1620   46.2930 N   0  0  0  0  0  0  0  0  0  0  0  0
   57.4480   28.7550   45.0170 C   0  0  0  0  0  0  0  0  0  0  0  0
   58.1360   28.4050   44.0220 O   0  0  0  0  0  0  0  0  0  0  0  0
   56.3330   29.6990   44.8230 C   0  0  0  0  0  0  0  0  0  0  0  0
   55.1440   29.2860   44.8810 O   0  0  0  0  0  0  0  0  0  0  0  0
   56.6130   31.0640   44.4900 N   0  0  0  0  0  0  0  0  0  0  0  0
   57.4450   31.9670   45.2340 C   0  0  0  0  0  0  0  0  0  0  0  0
   56.9500   33.2420   45.5370 C   0  0  0  0  0  0  0  0  0  0  0  0
   57.7360   34.1580   46.2430 C   0  0  0  0  0  0  0  0  0  0  0  0
   59.0310   33.8110   46.6380 C   0  0  0  0  0  0  0  0  0  0  0  0
   60.0190   34.9610   47.5210 Cl  0  0  0  0  0  0  0  0  0  0  0  0
   59.5430   32.5480   46.3200 C   0  0  0  0  0  0  0  0  0  0  0  0
   58.7570   31.6310   45.6150 C   0  0  0  0  0  0  0  0  0  0  0  0
   58.2580   29.7150   47.9280 N   0  0  0  0  0  0  0  0  0  0  0  0
   60.0630   32.2230   49.7040 C   0  0  0  0  0  0  0  0  0  0  0  0
   59.9450   33.3100   50.5740 C   0  0  0  0  0  0  0  0  0  0  0  0
   59.1970   35.4478   55.6638 H   0  0  0  0  0  0  0  0  0  0  0  0
   60.1408   36.2312   54.3514 H   0  0  0  0  0  0  0  0  0  0  0  0
   58.3474   36.3324   54.3514 H   0  0  0  0  0  0  0  0  0  0  0  0
   58.4060   35.3890   52.0290 H   0  0  0  0  0  0  0  0  0  0  0  0
   57.1654   32.3345   52.3050 H   0  0  0  0  0  0  0  0  0  0  0  0
   57.3661   30.3994   50.7550 H   0  0  0  0  0  0  0  0  0  0  0  0
   61.2085   29.1595   49.4547 H   0  0  0  0  0  0  0  0  0  0  0  0
   55.9361   33.5245   45.2174 H   0  0  0  0  0  0  0  0  0  0  0  0
   57.3348   35.1525   46.4877 H   0  0  0  0  0  0  0  0  0  0  0  0
   60.5644   32.2763   46.6248 H   0  0  0  0  0  0  0  0  0  0  0  0
   59.1662   30.6430   45.3573 H   0  0  0  0  0  0  0  0  0  0  0  0
   60.8899   32.1921   48.9792 H   0  0  0  0  0  0  0  0  0  0  0  0
   60.6857   34.1223   50.5346 H   0  0  0  0  0  0  0  0  0  0  0  0
  1  2  1  0
  2  3  2  0
  2  4  1  0
  4  5  1  0
  5  6  2  0
  6  7  1  0
  7  8  2  0
  8  9  1  0
  9 10  2  0
 10 11  1  0
 11 12  1  0
 12 13  2  3
 13 14  1  0
 14 15  2  0
 14 16  1  0
 16 17  2  0
 16 18  1  0
 18 19  1  0
 19 20  2  0
 20 21  1  0
 21 22  2  0
 22 23  1  0
 22 24  1  0
 24 25  2  0
 12 26  1  0
  8 27  1  0
 27 28  2  0
 28  5  1  0
 26  9  1  0
 25 19  1  0
  1 29  1  0
  1 30  1  0
  1 31  1  0
  4 32  1  0
  6 33  1  0
  7 34  1  0
 10 35  1  0
 20 36  1  0
 21 37  1  0
 24 38  1  0
 25 39  1  0
 27 40  1  0
 28 41  1  0
M  CHG  2  18  -1  26  -1
M  END
>  <UniqueID>  (48) 
45

>  <SMILES>  (48) 
CC(=O)Nc1ccc(-c2csc(=NC(=O)C(=O)[N-]c3ccc(Cl)cc3)[n-]2)cc1

>  <Energy>  (48) 
87.37537555889598

>  <Genealogy>  (48) 
CC(=O)Nc1ccc(-c2csc(=NC(=O)C(=O)[N-]c3ccc(Cl)cc3)[n-]2)cc1 (protonated)
CC(=O)Nc1ccc(-c2csc(=NC(=O)C(=O)[N-]c3ccc(Cl)cc3)[n-]2)cc1 (3D coordinates assigned)
CC(=O)Nc1ccc(-c2csc(=NC(=O)C(=O)[N-]c3ccc(Cl)cc3)[n-]2)cc1 (optimized conformer: 87.37537555889598 kcal/mol)

>  <smiles>  (48) 
CC(=O)Nc1ccc(-c2csc(=NC(=O)C(=O)Nc3ccc(Cl)cc3)[nH]2)cc1

>  <score_type>  (48) 
oracle

>  <origin>  (48) 
adg

>  <m_score__min__energy>  (48) 
-11.66

>  <m_primary>  (48) 
energy

$$$$
48:0
     RDKit          3D

 63 66  0  0  0  0  0  0  0  0999 V2000
   54.8550   26.3210   45.9870 N   0  0  0  0  0  0  0  0  0  0  0  0
   56.3900   25.5820   46.2860 S   0  0  0  0  0  0  0  0  0  0  0  0
   56.8440   24.8420   45.0590 O   0  0  0  0  0  0  0  0  0  0  0  0
   56.2620   24.6040   47.4190 O   0  0  0  0  0  0  0  0  0  0  0  0
   57.5680   26.8260   46.6940 C   0  0  0  0  0  0  0  0  0  0  0  0
   58.6280   26.5410   47.5640 C   0  0  0  0  0  0  0  0  0  0  0  0
   59.5490   27.5360   47.8980 C   0  0  0  0  0  0  0  0  0  0  0  0
   59.4250   28.8300   47.3670 C   0  0  0  0  0  0  0  0  0  0  0  0
   60.4200   29.9000   47.7380 C   0  0  0  0  0  0  0  0  0  0  0  0
   59.7540   31.0060   48.4460 N   0  0  0  0  0  0  0  0  0  0  0  0
   59.6570   32.3050   48.0440 C   0  0  0  0  0  0  0  0  0  0  0  0
   60.0160   32.8630   46.7200 C   0  0  0  0  0  0  0  0  0  0  0  0
   59.3110   32.5680   45.7150 O   0  0  0  0  0  0  0  0  0  0  0  0
   61.1580   33.7140   46.5590 N   0  0  0  0  0  0  0  0  0  0  0  0
   62.7640   33.2690   47.0280 S   0  0  0  0  0  0  0  0  0  0  0  0
   62.9150   31.7730   47.0290 O   0  0  0  0  0  0  0  0  0  0  0  0
   63.7430   33.8580   46.0510 O   0  0  0  0  0  0  0  0  0  0  0  0
   63.0880   33.9080   48.6600 C   0  0  0  0  0  0  0  0  0  0  0  0
   63.6930   32.8330   49.5220 C   0  0  0  0  0  0  0  0  0  0  0  0
   65.0830   32.7780   49.7160 C   0  0  0  0  0  0  0  0  0  0  0  0
   65.6380   31.8030   50.5570 C   0  0  0  0  0  0  0  0  0  0  0  0
   64.8120   30.8940   51.2200 C   0  0  0  0  0  0  0  0  0  0  0  0
   63.4290   30.9590   51.0450 C   0  0  0  0  0  0  0  0  0  0  0  0
   62.8690   31.9220   50.1990 C   0  0  0  0  0  0  0  0  0  0  0  0
   59.1520   33.0830   49.0730 C   0  0  0  0  0  0  0  0  0  0  0  0
   58.9370   32.2450   50.1400 C   0  0  0  0  0  0  0  0  0  0  0  0
   59.3080   30.9820   49.7300 C   0  0  0  0  0  0  0  0  0  0  0  0
   59.2250   29.7920   50.6020 C   0  0  0  0  0  0  0  0  0  0  0  0
   58.1160   29.4440   51.0860 O   0  0  0  0  0  0  0  0  0  0  0  0
   60.4140   29.0640   50.9350 N   0  0  0  0  0  0  0  0  0  0  0  0
   60.4230   27.9780   51.9140 C   0  0  0  0  0  0  0  0  0  0  0  0
   61.7850   27.3430   51.9670 C   0  0  0  0  0  0  0  0  0  0  0  0
   62.9100   28.0950   52.3460 C   0  0  0  0  0  0  0  0  0  0  0  0
   64.1750   27.5060   52.3630 C   0  0  0  0  0  0  0  0  0  0  0  0
   64.3270   26.1650   52.0010 C   0  0  0  0  0  0  0  0  0  0  0  0
   63.2120   25.4100   51.6240 C   0  0  0  0  0  0  0  0  0  0  0  0
   61.9450   25.9950   51.6060 C   0  0  0  0  0  0  0  0  0  0  0  0
   58.3480   29.1160   46.5120 C   0  0  0  0  0  0  0  0  0  0  0  0
   57.4280   28.1190   46.1740 C   0  0  0  0  0  0  0  0  0  0  0  0
   54.7380   27.0800   46.6930 H   0  0  0  0  0  0  0  0  0  0  0  0
   58.7353   25.5306   47.9853 H   0  0  0  0  0  0  0  0  0  0  0  0
   60.3783   27.3043   48.5825 H   0  0  0  0  0  0  0  0  0  0  0  0
   61.1912   29.4654   48.3910 H   0  0  0  0  0  0  0  0  0  0  0  0
   60.8769   30.2929   46.8178 H   0  0  0  0  0  0  0  0  0  0  0  0
   63.7874   34.7540   48.5879 H   0  0  0  0  0  0  0  0  0  0  0  0
   62.1425   34.2435   49.1111 H   0  0  0  0  0  0  0  0  0  0  0  0
   65.7374   33.5011   49.2072 H   0  0  0  0  0  0  0  0  0  0  0  0
   66.7283   31.7543   50.6948 H   0  0  0  0  0  0  0  0  0  0  0  0
   65.2496   30.1290   51.8782 H   0  0  0  0  0  0  0  0  0  0  0  0
   62.7762   30.2496   51.5748 H   0  0  0  0  0  0  0  0  0  0  0  0
   61.7781   31.9650   50.0642 H   0  0  0  0  0  0  0  0  0  0  0  0
   58.9598   34.1656   49.0416 H   0  0  0  0  0  0  0  0  0  0  0  0
   58.5453   32.5266   51.1286 H   0  0  0  0  0  0  0  0  0  0  0  0
   61.3140   29.3170   50.4670 H   0  0  0  0  0  0  0  0  0  0  0  0
   60.1700   28.3801   52.9061 H   0  0  0  0  0  0  0  0  0  0  0  0
   59.6830   27.2198   51.6182 H   0  0  0  0  0  0  0  0  0  0  0  0
   62.7931   29.1512   52.6302 H   0  0  0  0  0  0  0  0  0  0  0  0
   65.0529   28.0977   52.6615 H   0  0  0  0  0  0  0  0  0  0  0  0
   65.3250   25.7026   52.0126 H   0  0  0  0  0  0  0  0  0  0  0  0
   63.3336   24.3539   51.3413 H   0  0  0  0  0  0  0  0  0  0  0  0
   61.0696   25.3990   51.3084 H   0  0  0  0  0  0  0  0  0  0  0  0
   58.2276   30.1311   46.1057 H   0  0  0  0  0  0  0  0  0  0  0  0
   56.5919   28.3507   45.4978 H   0  0  0  0  0  0  0  0  0  0  0  0
  1  2  1  0
  2  3  2  0
  2  4  2  0
  2  5  1  0
  5  6  2  0
  6  7  1  0
  7  8  2  0
  8  9  1  0
  9 10  1  0
 10 11  1  0
 11 12  1  0
 12 13  2  0
 12 14  1  0
 14 15  1  0
 15 16  2  0
 15 17  2  0
 15 18  1  0
 18 19  1  0
 19 20  2  0
 20 21  1  0
 21 22  2  0
 22 23  1  0
 23 24  2  0
 11 25  2  0
 25 26  1  0
 26 27  2  0
 27 28  1  0
 28 29  2  0
 28 30  1  0
 30 31  1  0
 31 32  1  0
 32 33  2  0
 33 34  1  0
 34 35  2  0
 35 36  1  0
 36 37  2  0
  8 38  1  0
 38 39  2  0
 39  5  1  0
 27 10  1  0
 37 32  1  0
 24 19  1  0
  1 40  1  0
  6 41  1  0
  7 42  1  0
  9 43  1  0
  9 44  1  0
 18 45  1  0
 18 46  1  0
 20 47  1  0
 21 48  1  0
 22 49  1  0
 23 50  1  0
 24 51  1  0
 25 52  1  0
 26 53  1  0
 30 54  1  0
 31 55  1  0
 31 56  1  0
 33 57  1  0
 34 58  1  0
 35 59  1  0
 36 60  1  0
 37 61  1  0
 38 62  1  0
 39 63  1  0
M  CHG  2   1  -1  14  -1
M  END
>  <UniqueID>  (49) 
46

>  <SMILES>  (49) 
[NH-]S(=O)(=O)c1ccc(Cn2c(C(=O)[N-]S(=O)(=O)Cc3ccccc3)ccc2C(=O)NCc2ccccc2)cc1

>  <Energy>  (49) 
91.82440742566762

>  <Genealogy>  (49) 
[NH-]S(=O)(=O)c1ccc(Cn2c(C(=O)[N-]S(=O)(=O)Cc3ccccc3)ccc2C(=O)NCc2ccccc2)cc1 (protonated)
[NH-]S(=O)(=O)c1ccc(Cn2c(C(=O)[N-]S(=O)(=O)Cc3ccccc3)ccc2C(=O)NCc2ccccc2)cc1 (3D coordinates assigned)
[NH-]S(=O)(=O)c1ccc(Cn2c(C(=O)[N-]S(=O)(=O)Cc3ccccc3)ccc2C(=O)NCc2ccccc2)cc1 (optimized conformer: 91.82440742566762 kcal/mol)

>  <smiles>  (49) 
NS(=O)(=O)c1ccc(Cn2c(C(=O)NCc3ccccc3)ccc2C(=O)NS(=O)(=O)Cc2ccccc2)cc1

>  <score_type>  (49) 
oracle

>  <origin>  (49) 
adg

>  <m_score__min__energy>  (49) 
-13.960000000000001

>  <m_primary>  (49) 
energy

$$$$
49:0
     RDKit          3D

 52 56  0  0  0  0  0  0  0  0999 V2000
   61.3480   27.9047   48.1586 H   0  0  0  0  0  0  0  0  0  0  0  0
   60.4560   28.5440   48.0830 C   0  0  0  0  0  0  0  0  0  0  0  0
   59.6720   28.4450   47.0530 N   0  0  0  0  0  0  0  0  0  0  0  0
   58.6860   27.4240   46.8200 C   0  0  0  0  0  0  0  0  0  0  0  0
   59.0870   26.0720   46.9490 C   0  0  0  0  0  0  0  0  0  0  0  0
   60.1288   25.8390   47.2143 H   0  0  0  0  0  0  0  0  0  0  0  0
   58.1730   25.0220   46.7430 C   0  0  0  0  0  0  0  0  0  0  0  0
   58.4826   23.9708   46.8382 H   0  0  0  0  0  0  0  0  0  0  0  0
   56.8650   25.3600   46.4150 C   0  0  0  0  0  0  0  0  0  0  0  0
   55.8380   24.5290   46.1840 N   0  0  0  0  0  0  0  0  0  0  0  0
   54.8250   25.3960   45.9260 C   0  0  0  0  0  0  0  0  0  0  0  0
   53.6600   25.0090   45.6540 O   0  0  0  0  0  0  0  0  0  0  0  0
   55.1590   26.7110   45.9850 N   0  0  0  0  0  0  0  0  0  0  0  0
   56.4630   26.6550   46.2970 C   0  0  0  0  0  0  0  0  0  0  0  0
   57.3370   27.7220   46.4930 C   0  0  0  0  0  0  0  0  0  0  0  0
   56.9928   28.7624   46.3974 H   0  0  0  0  0  0  0  0  0  0  0  0
   60.1520   29.5100   49.1480 C   0  0  0  0  0  0  0  0  0  0  0  0
   60.0820   29.2570   50.5160 C   0  0  0  0  0  0  0  0  0  0  0  0
   60.2459   28.2742   50.9820 H   0  0  0  0  0  0  0  0  0  0  0  0
   59.7840   30.3910   51.1900 N   0  0  0  0  0  0  0  0  0  0  0  0
   59.6720   30.4920   52.2240 H   0  0  0  0  0  0  0  0  0  0  0  0
   59.6650   31.3550   50.2620 C   0  0  0  0  0  0  0  0  0  0  0  0
   59.3690   32.7000   50.4760 C   0  0  0  0  0  0  0  0  0  0  0  0
   59.1956   33.0884   51.4905 H   0  0  0  0  0  0  0  0  0  0  0  0
   59.2990   33.5450   49.3540 C   0  0  0  0  0  0  0  0  0  0  0  0
   59.0655   34.6114   49.4893 H   0  0  0  0  0  0  0  0  0  0  0  0
   59.5260   33.0370   48.0520 C   0  0  0  0  0  0  0  0  0  0  0  0
   59.4660   34.1160   46.6570 S   0  0  0  0  0  0  0  0  0  0  0  0
   59.1650   35.5140   47.1250 O   0  0  0  0  0  0  0  0  0  0  0  0
   60.8100   34.1310   45.9830 O   0  0  0  0  0  0  0  0  0  0  0  0
   58.2440   33.6160   45.5110 N   0  0  0  0  0  0  0  0  0  0  0  0
   57.4960   32.4270   45.9910 C   0  0  0  0  0  0  0  0  0  0  0  0
   56.4260   32.5808   45.7875 H   0  0  0  0  0  0  0  0  0  0  0  0
   57.6997   32.3235   47.0670 H   0  0  0  0  0  0  0  0  0  0  0  0
   57.9400   31.1220   45.3130 C   0  0  0  0  0  0  0  0  0  0  0  0
   57.3228   30.2947   45.6933 H   0  0  0  0  0  0  0  0  0  0  0  0
   59.0029   30.9594   45.5447 H   0  0  0  0  0  0  0  0  0  0  0  0
   57.7870   31.1960   43.7740 C   0  0  0  0  0  0  0  0  0  0  0  0
   58.6092   30.6038   43.3459 H   0  0  0  0  0  0  0  0  0  0  0  0
   56.4590   30.5820   43.3140 C   0  0  0  0  0  0  0  0  0  0  0  0
   55.8592   30.3047   44.1934 H   0  0  0  0  0  0  0  0  0  0  0  0
   55.9058   31.3157   42.7094 H   0  0  0  0  0  0  0  0  0  0  0  0
   56.6596   29.6852   42.7094 H   0  0  0  0  0  0  0  0  0  0  0  0
   57.9270   32.6440   43.2450 C   0  0  0  0  0  0  0  0  0  0  0  0
   56.9319   33.1111   43.2040 H   0  0  0  0  0  0  0  0  0  0  0  0
   58.3755   32.6116   42.2411 H   0  0  0  0  0  0  0  0  0  0  0  0
   58.8330   33.4710   44.1620 C   0  0  0  0  0  0  0  0  0  0  0  0
   58.9719   34.4697   43.7224 H   0  0  0  0  0  0  0  0  0  0  0  0
   59.7973   32.9506   44.2584 H   0  0  0  0  0  0  0  0  0  0  0  0
   59.8140   31.6680   47.8710 C   0  0  0  0  0  0  0  0  0  0  0  0
   59.9816   31.2526   46.8663 H   0  0  0  0  0  0  0  0  0  0  0  0
   59.8800   30.8570   49.0030 C   0  0  0  0  0  0  0  0  0  0  0  0
  1  2  1  0
  2  3  2  0
  3  4  1  0
  4  5  2  0
  5  6  1  0
  5  7  1  0
  7  8  1  0
  7  9  2  0
  9 10  1  0
 10 11  1  0
 11 12  2  0
 11 13  1  0
 13 14  1  0
 14 15  2  0
 15 16  1  0
  2 17  1  0
 17 18  2  0
 18 19  1  0
 18 20  1  0
 20 21  1  0
 20 22  1  0
 22 23  2  0
 23 24  1  0
 23 25  1  0
 25 26  1  0
 25 27  2  0
 27 28  1  0
 28 29  2  0
 28 30  2  0
 28 31  1  0
 31 32  1  0
 32 33  1  0
 32 34  1  0
 32 35  1  0
 35 36  1  0
 35 37  1  0
 35 38  1  0
 38 39  1  0
 38 40  1  0
 40 41  1  0
 40 42  1  0
 40 43  1  0
 38 44  1  0
 44 45  1  0
 44 46  1  0
 44 47  1  0
 47 48  1  0
 47 49  1  0
 27 50  1  0
 50 51  1  0
 50 52  2  0
 15  4  1  0
 52 17  1  0
 14  9  1  0
 52 22  1  0
 47 31  1  0
M  CHG  2  10  -1  13  -1
M  END
>  <UniqueID>  (50) 
47

>  <SMILES>  (50) 
CC1CCN(S(=O)(=O)c2ccc3[nH]cc(/C=N/c4ccc5[n-]c(=O)[n-]c5c4)c3c2)CC1

>  <Energy>  (50) 
130.5604701391509

>  <Genealogy>  (50) 
CC1CCN(S(=O)(=O)c2ccc3[nH]cc(C=Nc4ccc5[n-]c(=O)[n-]c5c4)c3c2)CC1 (protonated)
CC1CCN(S(=O)(=O)c2ccc3[nH]cc(/C=N/c4ccc5[n-]c(=O)[n-]c5c4)c3c2)CC1 (cis-trans isomerization)
CC1CCN(S(=O)(=O)c2ccc3[nH]cc(/C=N/c4ccc5[n-]c(=O)[n-]c5c4)c3c2)CC1 (3D coordinates assigned)
CC1CCN(S(=O)(=O)c2ccc3[nH]cc(/C=N/c4ccc5[n-]c(=O)[n-]c5c4)c3c2)CC1 (nonaromatic ring conformer: 130.5604701391509 kcal/mol)

>  <smiles>  (50) 
CC1CCN(S(=O)(=O)c2ccc3[nH]cc(C=Nc4ccc5[nH]c(=O)[nH]c5c4)c3c2)CC1

>  <score_type>  (50) 
oracle

>  <origin>  (50) 
adg

>  <m_score__min__energy>  (50) 
-13.640000000000001

>  <m_primary>  (50) 
energy

$$$$
50:0
     RDKit          3D

 46 48  0  0  0  0  0  0  0  0999 V2000
   57.9630   32.4010   42.7440 C   0  0  0  0  0  0  0  0  0  0  0  0
   57.3320   32.3490   44.0660 N   0  0  0  0  0  0  0  0  0  0  0  0
   56.5420   31.1670   44.4580 C   0  0  0  0  0  0  0  0  0  0  0  0
   57.4390   30.0310   44.8870 C   0  0  0  0  0  0  0  0  0  0  0  0
   58.8340   30.2100   44.9280 C   0  0  0  0  0  0  0  0  0  0  0  0
   59.6670   29.1750   45.3580 C   0  0  0  0  0  0  0  0  0  0  0  0
   59.1200   27.9500   45.7420 C   0  0  0  0  0  0  0  0  0  0  0  0
   57.7370   27.7560   45.6960 C   0  0  0  0  0  0  0  0  0  0  0  0
   56.8960   28.7890   45.2710 C   0  0  0  0  0  0  0  0  0  0  0  0
   55.5220   28.5760   45.2320 O   0  0  0  0  0  0  0  0  0  0  0  0
   57.4400   33.5050   44.9270 C   0  0  0  0  0  0  0  0  0  0  0  0
   56.5950   34.4370   44.8270 O   0  0  0  0  0  0  0  0  0  0  0  0
   58.4980   33.6190   45.9480 C   0  0  0  0  0  0  0  0  0  0  0  0
   58.4040   32.8820   47.1390 C   0  0  0  0  0  0  0  0  0  0  0  0
   59.4190   32.9550   48.0960 C   0  0  0  0  0  0  0  0  0  0  0  0
   60.5440   33.7700   47.8780 C   0  0  0  0  0  0  0  0  0  0  0  0
   61.5970   33.8670   48.8510 N   0  0  0  0  0  0  0  0  0  0  0  0
   62.9850   33.6450   48.5430 C   0  0  0  0  0  0  0  0  0  0  0  0
   63.3880   33.7550   47.3530 O   0  0  0  0  0  0  0  0  0  0  0  0
   63.9730   33.3470   49.6000 C   0  0  0  0  0  0  0  0  0  0  0  0
   64.9200   32.4100   49.4520 C   0  0  0  0  0  0  0  0  0  0  0  0
   65.7950   32.1320   50.5100 O   0  0  0  0  0  0  0  0  0  0  0  0
   65.5590   32.6290   51.8270 C   0  0  0  0  0  0  0  0  0  0  0  0
   64.9900   34.0450   51.7460 C   0  0  0  0  0  0  0  0  0  0  0  0
   63.9240   34.0810   50.7940 O   0  0  0  0  0  0  0  0  0  0  0  0
   60.6100   34.5440   46.7100 C   0  0  0  0  0  0  0  0  0  0  0  0
   59.5960   34.4680   45.7510 C   0  0  0  0  0  0  0  0  0  0  0  0
   59.0530   32.4908   42.8613 H   0  0  0  0  0  0  0  0  0  0  0  0
   57.7285   31.4805   42.1893 H   0  0  0  0  0  0  0  0  0  0  0  0
   57.5810   33.2707   42.1893 H   0  0  0  0  0  0  0  0  0  0  0  0
   55.8809   31.4381   45.2943 H   0  0  0  0  0  0  0  0  0  0  0  0
   55.9523   30.8375   43.5898 H   0  0  0  0  0  0  0  0  0  0  0  0
   59.2711   31.1711   44.6194 H   0  0  0  0  0  0  0  0  0  0  0  0
   60.7560   29.3256   45.3941 H   0  0  0  0  0  0  0  0  0  0  0  0
   59.7781   27.1364   46.0812 H   0  0  0  0  0  0  0  0  0  0  0  0
   57.3087   26.7879   45.9950 H   0  0  0  0  0  0  0  0  0  0  0  0
   57.5265   32.2437   47.3196 H   0  0  0  0  0  0  0  0  0  0  0  0
   59.3378   32.3718   49.0251 H   0  0  0  0  0  0  0  0  0  0  0  0
   61.3560   34.2400   49.7970 H   0  0  0  0  0  0  0  0  0  0  0  0
   65.0097   31.8612   48.5029 H   0  0  0  0  0  0  0  0  0  0  0  0
   64.8403   31.9745   52.3420 H   0  0  0  0  0  0  0  0  0  0  0  0
   66.5063   32.6473   52.3859 H   0  0  0  0  0  0  0  0  0  0  0  0
   64.6086   34.3431   52.7338 H   0  0  0  0  0  0  0  0  0  0  0  0
   65.7832   34.7395   51.4319 H   0  0  0  0  0  0  0  0  0  0  0  0
   61.4659   35.2156   46.5476 H   0  0  0  0  0  0  0  0  0  0  0  0
   59.6599   35.0773   44.8374 H   0  0  0  0  0  0  0  0  0  0  0  0
  1  2  1  0
  2  3  1  0
  3  4  1  0
  4  5  2  0
  5  6  1  0
  6  7  2  0
  7  8  1  0
  8  9  2  0
  9 10  1  0
  2 11  1  0
 11 12  2  0
 11 13  1  0
 13 14  2  0
 14 15  1  0
 15 16  2  0
 16 17  1  0
 17 18  1  0
 18 19  2  0
 18 20  1  0
 20 21  2  0
 21 22  1  0
 22 23  1  0
 23 24  1  0
 24 25  1  0
 16 26  1  0
 26 27  2  0
  9  4  1  0
 27 13  1  0
 25 20  1  0
  1 28  1  0
  1 29  1  0
  1 30  1  0
  3 31  1  0
  3 32  1  0
  5 33  1  0
  6 34  1  0
  7 35  1  0
  8 36  1  0
 14 37  1  0
 15 38  1  0
 17 39  1  0
 21 40  1  0
 23 41  1  0
 23 42  1  0
 24 43  1  0
 24 44  1  0
 26 45  1  0
 27 46  1  0
M  CHG  1  10  -1
M  END
>  <UniqueID>  (51) 
48

>  <SMILES>  (51) 
CN(Cc1ccccc1[O-])C(=O)c1ccc(NC(=O)C2=COCCO2)cc1

>  <Energy>  (51) 
54.48473723159681

>  <Genealogy>  (51) 
CN(Cc1ccccc1[O-])C(=O)c1ccc(NC(=O)C2=COCCO2)cc1 (protonated)
CN(Cc1ccccc1[O-])C(=O)c1ccc(NC(=O)C2=COCCO2)cc1 (3D coordinates assigned)
CN(Cc1ccccc1[O-])C(=O)c1ccc(NC(=O)C2=COCCO2)cc1 (nonaromatic ring conformer: 54.48473723159681 kcal/mol)

>  <smiles>  (51) 
CN(Cc1ccccc1O)C(=O)c1ccc(NC(=O)C2=COCCO2)cc1

>  <score_type>  (51) 
oracle

>  <origin>  (51) 
adg

>  <m_score__min__energy>  (51) 
-11.359999999999999

>  <m_primary>  (51) 
energy

$$$$
51:0
     RDKit          3D

 54 57  0  0  0  0  0  0  0  0999 V2000
   51.7290   27.3390   53.6540 C   0  0  0  0  0  0  0  0  0  0  0  0
   52.7890   28.1180   53.3850 C   0  0  0  0  0  0  0  0  0  0  0  0
   52.8100   29.2520   52.5550 C   0  0  0  0  0  0  0  0  0  0  0  0
   51.8100   29.9590   51.9930 C   0  0  0  0  0  0  0  0  0  0  0  0
   51.3510   31.2880   52.4260 C   0  0  0  0  0  0  0  0  0  0  0  0
   51.0940   31.6040   53.7070 N   0  0  0  0  0  0  0  0  0  0  0  0
   50.5890   32.8550   53.6240 C   0  0  0  0  0  0  0  0  0  0  0  0
   50.2370   33.5110   54.6380 O   0  0  0  0  0  0  0  0  0  0  0  0
   50.4810   33.3410   52.3690 N   0  0  0  0  0  0  0  0  0  0  0  0
   50.9530   32.3310   51.6200 C   0  0  0  0  0  0  0  0  0  0  0  0
   50.9940   32.3530   50.2330 O   0  0  0  0  0  0  0  0  0  0  0  0
   54.1440   29.5710   52.3740 C   0  0  0  0  0  0  0  0  0  0  0  0
   54.8790   28.6830   53.1330 C   0  0  0  0  0  0  0  0  0  0  0  0
   56.3580   28.6580   53.1670 C   0  0  0  0  0  0  0  0  0  0  0  0
   56.9520   27.5770   53.4260 O   0  0  0  0  0  0  0  0  0  0  0  0
   57.1260   29.8280   52.8370 N   0  0  0  0  0  0  0  0  0  0  0  0
   56.7360   31.1530   53.3380 C   0  0  0  0  0  0  0  0  0  0  0  0
   56.7890   32.2040   52.2150 C   0  0  0  0  0  0  0  0  0  0  0  0
   57.8830   31.9240   51.1510 C   0  0  0  0  0  0  0  0  0  0  0  0
   58.4710   33.1500   50.7070 O   0  0  0  0  0  0  0  0  0  0  0  0
   59.6120   33.2670   49.8940 C   0  0  0  0  0  0  0  0  0  0  0  0
   60.8840   33.5710   50.4150 C   0  0  0  0  0  0  0  0  0  0  0  0
   61.9810   33.6760   49.5620 C   0  0  0  0  0  0  0  0  0  0  0  0
   61.8070   33.4810   48.1940 C   0  0  0  0  0  0  0  0  0  0  0  0
   60.5750   33.1910   47.6950 N   0  0  0  0  0  0  0  0  0  0  0  0
   59.4810   33.0830   48.5040 C   0  0  0  0  0  0  0  0  0  0  0  0
   58.1380   32.7580   47.9140 C   0  0  0  0  0  0  0  0  0  0  0  0
   58.9910   31.0220   51.7090 C   0  0  0  0  0  0  0  0  0  0  0  0
   58.4080   29.6680   52.1370 C   0  0  0  0  0  0  0  0  0  0  0  0
   54.0570   27.8160   53.7700 N   0  0  0  0  0  0  0  0  0  0  0  0
   54.4720   26.7130   54.6460 C   0  0  0  0  0  0  0  0  0  0  0  0
   51.8385   26.4733   54.3238 H   0  0  0  0  0  0  0  0  0  0  0  0
   50.7511   27.5665   53.2046 H   0  0  0  0  0  0  0  0  0  0  0  0
   51.2920   29.5030   51.1364 H   0  0  0  0  0  0  0  0  0  0  0  0
   54.5434   30.3796   51.7442 H   0  0  0  0  0  0  0  0  0  0  0  0
   55.7110   31.1007   53.7338 H   0  0  0  0  0  0  0  0  0  0  0  0
   57.4397   31.4498   54.1296 H   0  0  0  0  0  0  0  0  0  0  0  0
   55.8113   32.2238   51.7112 H   0  0  0  0  0  0  0  0  0  0  0  0
   57.0373   33.1664   52.6863 H   0  0  0  0  0  0  0  0  0  0  0  0
   57.3949   31.4118   50.3088 H   0  0  0  0  0  0  0  0  0  0  0  0
   61.0121   33.7258   51.4965 H   0  0  0  0  0  0  0  0  0  0  0  0
   62.9767   33.9111   49.9661 H   0  0  0  0  0  0  0  0  0  0  0  0
   62.6685   33.5617   47.5148 H   0  0  0  0  0  0  0  0  0  0  0  0
   60.4810   33.0510   46.6640 H   0  0  0  0  0  0  0  0  0  0  0  0
   57.4144   32.5829   48.7238 H   0  0  0  0  0  0  0  0  0  0  0  0
   57.7969   33.5995   47.2931 H   0  0  0  0  0  0  0  0  0  0  0  0
   58.2194   31.8536   47.2931 H   0  0  0  0  0  0  0  0  0  0  0  0
   59.7531   30.8602   50.9325 H   0  0  0  0  0  0  0  0  0  0  0  0
   59.4441   31.5102   52.5844 H   0  0  0  0  0  0  0  0  0  0  0  0
   58.2511   29.0480   51.2421 H   0  0  0  0  0  0  0  0  0  0  0  0
   59.1192   29.1897   52.8266 H   0  0  0  0  0  0  0  0  0  0  0  0
   54.3578   27.0166   55.6971 H   0  0  0  0  0  0  0  0  0  0  0  0
   53.8439   25.8318   54.4486 H   0  0  0  0  0  0  0  0  0  0  0  0
   55.5252   26.4643   54.4486 H   0  0  0  0  0  0  0  0  0  0  0  0
  1  2  2  0
  2  3  1  0
  3  4  2  3
  4  5  1  0
  5  6  1  0
  6  7  1  0
  7  8  2  0
  7  9  1  0
  9 10  1  0
 10 11  1  0
  3 12  1  0
 12 13  2  0
 13 14  1  0
 14 15  2  0
 14 16  1  0
 16 17  1  0
 17 18  1  0
 18 19  1  0
 19 20  1  0
 20 21  1  0
 21 22  2  0
 22 23  1  0
 23 24  2  0
 24 25  1  0
 25 26  2  0
 26 27  1  0
 19 28  1  0
 28 29  1  0
 13 30  1  0
 30 31  1  0
 30  2  1  0
 10  5  2  0
 29 16  1  0
 26 21  1  0
  1 32  1  0
  1 33  1  0
  4 34  1  0
 12 35  1  0
 17 36  1  0
 17 37  1  0
 18 38  1  0
 18 39  1  0
 19 40  1  0
 22 41  1  0
 23 42  1  0
 24 43  1  0
 25 44  1  0
 27 45  1  0
 27 46  1  0
 27 47  1  0
 28 48  1  0
 28 49  1  0
 29 50  1  0
 29 51  1  0
 31 52  1  0
 31 53  1  0
 31 54  1  0
M  CHG  4   6  -1   9  -1  11  -1  25   1
M  END
>  <UniqueID>  (52) 
49

>  <SMILES>  (52) 
C=c1c(=Cc2[n-]c(=O)[n-]c2[O-])cc(C(=O)N2CCC(Oc3ccc[nH+]c3C)CC2)n1C

>  <Energy>  (52) 
133.68216288388808

>  <Genealogy>  (52) 
C=c1c(=Cc2[n-]c(=O)[n-]c2[O-])cc(C(=O)N2CCC(Oc3ccc[nH+]c3C)CC2)n1C (protonated)
C=c1c(=Cc2[n-]c(=O)[n-]c2[O-])cc(C(=O)N2CCC(Oc3ccc[nH+]c3C)CC2)n1C (3D coordinates assigned)
C=c1c(=Cc2[n-]c(=O)[n-]c2[O-])cc(C(=O)N2CCC(Oc3ccc[nH+]c3C)CC2)n1C (nonaromatic ring conformer: 133.68216288388808 kcal/mol)

>  <smiles>  (52) 
C=c1c(=Cc2[nH]c(=O)[nH]c2O)cc(C(=O)N2CCC(Oc3cccnc3C)CC2)n1C

>  <score_type>  (52) 
oracle

>  <origin>  (52) 
adg

>  <m_score__min__energy>  (52) 
-16.309999999999999

>  <m_primary>  (52) 
energy

$$$$
52:0
     RDKit          3D

 44 46  0  0  0  0  0  0  0  0999 V2000
   58.4770   31.6880   43.1400 O   0  0  0  0  0  0  0  0  0  0  0  0
   57.6180   31.7830   44.0590 C   0  0  0  0  0  0  0  0  0  0  0  0
   57.3840   33.0380   44.7050 N   0  0  0  0  0  0  0  0  0  0  0  0
   58.4100   34.0620   44.8760 C   0  0  0  0  0  0  0  0  0  0  0  0
   59.2220   33.7870   46.1150 C   0  0  0  0  0  0  0  0  0  0  0  0
   60.6260   33.8280   46.0580 C   0  0  0  0  0  0  0  0  0  0  0  0
   61.3880   33.5960   47.2080 C   0  0  0  0  0  0  0  0  0  0  0  0
   63.2950   33.6570   47.1180 Br  0  0  0  0  0  0  0  0  0  0  0  0
   60.7540   33.3230   48.4230 C   0  0  0  0  0  0  0  0  0  0  0  0
   59.3600   33.2850   48.4910 C   0  0  0  0  0  0  0  0  0  0  0  0
   58.5880   33.5180   47.3440 C   0  0  0  0  0  0  0  0  0  0  0  0
   57.1960   33.4850   47.4200 O   0  0  0  0  0  0  0  0  0  0  0  0
   56.8540   30.6000   44.4730 C   0  0  0  0  0  0  0  0  0  0  0  0
   57.3810   29.4000   44.9050 C   0  0  0  0  0  0  0  0  0  0  0  0
   56.2670   28.6300   45.1660 C   0  0  0  0  0  0  0  0  0  0  0  0
   56.2660   27.2460   45.6540 C   0  0  0  0  0  0  0  0  0  0  0  0
   55.1790   26.7010   45.9870 O   0  0  0  0  0  0  0  0  0  0  0  0
   57.4980   26.5240   45.7560 N   0  0  0  0  0  0  0  0  0  0  0  0
   57.9790   25.9180   46.9930 C   0  0  0  0  0  0  0  0  0  0  0  0
   59.4620   26.2360   47.2020 C   0  0  0  0  0  0  0  0  0  0  0  0
   59.7260   27.7000   46.9720 C   0  0  0  0  0  0  0  0  0  0  0  0
   60.4030   28.1270   45.8160 C   0  0  0  0  0  0  0  0  0  0  0  0
   60.6180   29.4900   45.5900 C   0  0  0  0  0  0  0  0  0  0  0  0
   60.1540   30.4350   46.5080 C   0  0  0  0  0  0  0  0  0  0  0  0
   59.4680   30.0190   47.6540 C   0  0  0  0  0  0  0  0  0  0  0  0
   59.2500   28.6570   47.8840 C   0  0  0  0  0  0  0  0  0  0  0  0
   55.1500   29.3350   44.9010 N   0  0  0  0  0  0  0  0  0  0  0  0
   55.5090   30.5390   44.4800 N   0  0  0  0  0  0  0  0  0  0  0  0
   59.0741   34.0602   43.9991 H   0  0  0  0  0  0  0  0  0  0  0  0
   57.9229   35.0430   44.9779 H   0  0  0  0  0  0  0  0  0  0  0  0
   61.1284   34.0438   45.1035 H   0  0  0  0  0  0  0  0  0  0  0  0
   61.3536   33.1379   49.3264 H   0  0  0  0  0  0  0  0  0  0  0  0
   58.8647   33.0711   49.4496 H   0  0  0  0  0  0  0  0  0  0  0  0
   56.6160   33.6820   46.6130 H   0  0  0  0  0  0  0  0  0  0  0  0
   58.4398   29.1230   45.0152 H   0  0  0  0  0  0  0  0  0  0  0  0
   57.4003   26.3151   47.8400 H   0  0  0  0  0  0  0  0  0  0  0  0
   57.8539   24.8271   46.9279 H   0  0  0  0  0  0  0  0  0  0  0  0
   59.7464   25.9745   48.2319 H   0  0  0  0  0  0  0  0  0  0  0  0
   60.0554   25.6509   46.4840 H   0  0  0  0  0  0  0  0  0  0  0  0
   60.7646   27.3866   45.0873 H   0  0  0  0  0  0  0  0  0  0  0  0
   61.1537   29.8188   44.6873 H   0  0  0  0  0  0  0  0  0  0  0  0
   60.3280   31.5064   46.3298 H   0  0  0  0  0  0  0  0  0  0  0  0
   59.0998   30.7639   48.3748 H   0  0  0  0  0  0  0  0  0  0  0  0
   58.7038   28.3336   48.7824 H   0  0  0  0  0  0  0  0  0  0  0  0
  1  2  2  0
  2  3  1  0
  3  4  1  0
  4  5  1  0
  5  6  2  0
  6  7  1  0
  7  8  1  0
  7  9  2  0
  9 10  1  0
 10 11  2  0
 11 12  1  0
  2 13  1  0
 13 14  1  0
 14 15  2  0
 15 16  1  0
 16 17  2  0
 16 18  1  0
 18 19  1  0
 19 20  1  0
 20 21  1  0
 21 22  2  0
 22 23  1  0
 23 24  2  0
 24 25  1  0
 25 26  2  0
 15 27  1  0
 27 28  1  0
 11  5  1  0
 28 13  2  0
 26 21  1  0
  4 29  1  0
  4 30  1  0
  6 31  1  0
  9 32  1  0
 10 33  1  0
 12 34  1  0
 14 35  1  0
 19 36  1  0
 19 37  1  0
 20 38  1  0
 20 39  1  0
 22 40  1  0
 23 41  1  0
 24 42  1  0
 25 43  1  0
 26 44  1  0
M  CHG  3   3  -1  18  -1  27  -1
M  END
>  <UniqueID>  (53) 
50

>  <SMILES>  (53) 
O=C([N-]Cc1cc(Br)ccc1O)c1cc(C(=O)[N-]CCc2ccccc2)[n-]n1

>  <Energy>  (53) 
66.92123491852574

>  <Genealogy>  (53) 
O=C([N-]Cc1cc(Br)ccc1O)c1cc(C(=O)[N-]CCc2ccccc2)[n-]n1 (protonated)
O=C([N-]Cc1cc(Br)ccc1O)c1cc(C(=O)[N-]CCc2ccccc2)[n-]n1 (3D coordinates assigned)
O=C([N-]Cc1cc(Br)ccc1O)c1cc(C(=O)[N-]CCc2ccccc2)[n-]n1 (optimized conformer: 66.92123491852574 kcal/mol)

>  <smiles>  (53) 
O=C(NCc1cc(Br)ccc1O)c1cc(C(=O)NCCc2ccccc2)[nH]n1

>  <score_type>  (53) 
oracle

>  <origin>  (53) 
adg

>  <m_score__min__energy>  (53) 
-13.84

>  <m_primary>  (53) 
energy

$$$$
53:0
     RDKit          3D

 44 47  0  0  0  0  0  0  0  0999 V2000
   55.1480   27.4620   45.4220 H   0  0  0  0  0  0  0  0  0  0  0  0
   55.0480   26.6360   46.0010 O   0  0  0  0  0  0  0  0  0  0  0  0
   55.5820   25.4050   45.6240 C   0  0  0  0  0  0  0  0  0  0  0  0
   54.7270   24.4160   45.1210 C   0  0  0  0  0  0  0  0  0  0  0  0
   53.6609   24.6401   44.9684 H   0  0  0  0  0  0  0  0  0  0  0  0
   55.2200   23.1500   44.8130 C   0  0  0  0  0  0  0  0  0  0  0  0
   54.5511   22.3751   44.4103 H   0  0  0  0  0  0  0  0  0  0  0  0
   56.5700   22.8770   45.0210 C   0  0  0  0  0  0  0  0  0  0  0  0
   56.9678   21.8744   44.8052 H   0  0  0  0  0  0  0  0  0  0  0  0
   57.3950   23.8480   45.4900 N   0  0  0  0  0  0  0  0  0  0  0  0
   56.9620   25.1080   45.7760 C   0  0  0  0  0  0  0  0  0  0  0  0
   57.8510   25.9740   46.1780 N   0  0  0  0  0  0  0  0  0  0  0  0
   58.1210   27.2910   45.6780 C   0  0  0  0  0  0  0  0  0  0  0  0
   58.0730   27.4800   44.4340 O   0  0  0  0  0  0  0  0  0  0  0  0
   58.3790   28.4490   46.5820 C   0  0  0  0  0  0  0  0  0  0  0  0
   58.9400   28.1910   47.8460 C   0  0  0  0  0  0  0  0  0  0  0  0
   59.2244   27.1624   48.1126 H   0  0  0  0  0  0  0  0  0  0  0  0
   59.1410   29.2190   48.7660 C   0  0  0  0  0  0  0  0  0  0  0  0
   59.5848   28.9961   49.7475 H   0  0  0  0  0  0  0  0  0  0  0  0
   58.7810   30.5330   48.4470 C   0  0  0  0  0  0  0  0  0  0  0  0
   59.0350   31.6470   49.4250 C   0  0  0  0  0  0  0  0  0  0  0  0
   58.0808   32.1272   49.6877 H   0  0  0  0  0  0  0  0  0  0  0  0
   59.5042   31.2355   50.3308 H   0  0  0  0  0  0  0  0  0  0  0  0
   59.9260   32.6350   48.8270 N   0  0  0  0  0  0  0  0  0  0  0  0
   59.6100   33.9110   48.6670 N   0  0  0  0  0  0  0  0  0  0  0  0
   60.6340   34.5050   48.0220 C   0  0  0  0  0  0  0  0  0  0  0  0
   60.6833   35.5690   47.7474 H   0  0  0  0  0  0  0  0  0  0  0  0
   61.6110   33.5650   47.7610 C   0  0  0  0  0  0  0  0  0  0  0  0
   63.2630   33.8380   46.8520 Br  0  0  0  0  0  0  0  0  0  0  0  0
   61.1290   32.3850   48.2780 C   0  0  0  0  0  0  0  0  0  0  0  0
   61.6369   31.4097   48.2480 H   0  0  0  0  0  0  0  0  0  0  0  0
   58.2580   30.8140   47.1800 C   0  0  0  0  0  0  0  0  0  0  0  0
   57.9972   31.8503   46.9191 H   0  0  0  0  0  0  0  0  0  0  0  0
   58.0610   29.7920   46.2360 C   0  0  0  0  0  0  0  0  0  0  0  0
   57.5720   30.1770   44.8920 C   0  0  0  0  0  0  0  0  0  0  0  0
   58.3920   30.9410   44.0470 C   0  0  0  0  0  0  0  0  0  0  0  0
   59.3962   31.2455   44.3769 H   0  0  0  0  0  0  0  0  0  0  0  0
   57.9240   31.3120   42.7840 C   0  0  0  0  0  0  0  0  0  0  0  0
   58.5557   31.9223   42.1218 H   0  0  0  0  0  0  0  0  0  0  0  0
   56.6890   30.9200   42.3720 N   0  0  0  0  0  0  0  0  0  0  0  0
   55.8810   30.1630   43.1610 C   0  0  0  0  0  0  0  0  0  0  0  0
   54.8880   29.8597   42.7978 H   0  0  0  0  0  0  0  0  0  0  0  0
   56.3080   29.7690   44.4320 C   0  0  0  0  0  0  0  0  0  0  0  0
   55.4820   28.9760   45.2220 O   0  0  0  0  0  0  0  0  0  0  0  0
  1  2  1  0
  2  3  1  0
  3  4  2  0
  4  5  1  0
  4  6  1  0
  6  7  1  0
  6  8  2  0
  8  9  1  0
  8 10  1  0
 10 11  1  0
 11 12  2  0
 12 13  1  0
 13 14  2  0
 13 15  1  0
 15 16  2  0
 16 17  1  0
 16 18  1  0
 18 19  1  0
 18 20  2  0
 20 21  1  0
 21 22  1  0
 21 23  1  0
 21 24  1  0
 24 25  1  0
 25 26  2  0
 26 27  1  0
 26 28  1  0
 28 29  1  0
 28 30  2  0
 30 31  1  0
 20 32  1  0
 32 33  1  0
 32 34  2  0
 34 35  1  0
 35 36  2  0
 36 37  1  0
 36 38  1  0
 38 39  1  0
 38 40  2  0
 40 41  1  0
 41 42  1  0
 41 43  2  0
 43 44  1  0
 11  3  1  0
 34 15  1  0
 43 35  1  0
 30 24  1  0
M  CHG  2  10  -1  44  -1
M  END
>  <UniqueID>  (54) 
51

>  <SMILES>  (54) 
O=C(/N=c1/[n-]cccc1O)c1ccc(Cn2cc(Br)cn2)cc1-c1ccncc1[O-]

>  <Energy>  (54) 
100.32821283313471

>  <Genealogy>  (54) 
O=C(N=c1[n-]cccc1O)c1ccc(Cn2cc(Br)cn2)cc1-c1ccncc1[O-] (protonated)
O=C(/N=c1/[n-]cccc1O)c1ccc(Cn2cc(Br)cn2)cc1-c1ccncc1[O-] (cis-trans isomerization)
O=C(/N=c1/[n-]cccc1O)c1ccc(Cn2cc(Br)cn2)cc1-c1ccncc1[O-] (3D coordinates assigned)
O=C(/N=c1/[n-]cccc1O)c1ccc(Cn2cc(Br)cn2)cc1-c1ccncc1[O-] (optimized conformer: 100.32821283313471 kcal/mol)

>  <smiles>  (54) 
O=C(N=c1[nH]cccc1O)c1ccc(Cn2cc(Br)cn2)cc1-c1ccncc1O

>  <score_type>  (54) 
oracle

>  <origin>  (54) 
adg

>  <m_score__min__energy>  (54) 
-13.98

>  <m_primary>  (54) 
energy

$$$$
55:0
     RDKit          3D

 41 43  0  0  0  0  0  0  0  0999 V2000
   57.3830   32.3320   41.1150 C   0  0  0  0  0  0  0  0  0  0  0  0
   58.0560   32.6920   42.2050 C   0  0  0  0  0  0  0  0  0  0  0  0
   58.0540   31.9060   43.4550 C   0  0  0  0  0  0  0  0  0  0  0  0
   58.1290   30.5570   43.5430 N   0  0  0  0  0  0  0  0  0  0  0  0
   58.0990   30.2080   44.8220 N   0  0  0  0  0  0  0  0  0  0  0  0
   58.1360   28.8510   45.2990 C   0  0  0  0  0  0  0  0  0  0  0  0
   59.3670   28.2290   45.5720 C   0  0  0  0  0  0  0  0  0  0  0  0
   59.4060   26.9140   46.0480 C   0  0  0  0  0  0  0  0  0  0  0  0
   58.2180   26.2110   46.2560 C   0  0  0  0  0  0  0  0  0  0  0  0
   56.9900   26.8180   45.9870 C   0  0  0  0  0  0  0  0  0  0  0  0
   56.9440   28.1330   45.5120 C   0  0  0  0  0  0  0  0  0  0  0  0
   55.7410   28.6910   45.2260 F   0  0  0  0  0  0  0  0  0  0  0  0
   58.0070   31.3300   45.5640 C   0  0  0  0  0  0  0  0  0  0  0  0
   57.9750   31.3580   46.8230 O   0  0  0  0  0  0  0  0  0  0  0  0
   57.9760   32.4300   44.7370 C   0  0  0  0  0  0  0  0  0  0  0  0
   57.8340   34.1500   45.2240 S   0  0  0  0  0  0  0  0  0  0  0  0
   59.1770   34.0130   46.4040 C   0  0  0  0  0  0  0  0  0  0  0  0
   58.9030   33.9510   47.7750 C   0  0  0  0  0  0  0  0  0  0  0  0
   59.9480   33.8280   48.7000 C   0  0  0  0  0  0  0  0  0  0  0  0
   59.6540   33.8040   50.1710 C   0  0  0  0  0  0  0  0  0  0  0  0
   61.2750   33.7970   48.2450 C   0  0  0  0  0  0  0  0  0  0  0  0
   61.5560   33.8460   46.8700 C   0  0  0  0  0  0  0  0  0  0  0  0
   62.9770   33.8420   46.3880 C   0  0  0  0  0  0  0  0  0  0  0  0
   60.5010   33.9710   45.9540 C   0  0  0  0  0  0  0  0  0  0  0  0
   57.4226   32.9590   40.2120 H   0  0  0  0  0  0  0  0  0  0  0  0
   56.7870   31.4074   41.1169 H   0  0  0  0  0  0  0  0  0  0  0  0
   58.6432   33.6216   42.1733 H   0  0  0  0  0  0  0  0  0  0  0  0
   58.1730   29.8800   42.7490 H   0  0  0  0  0  0  0  0  0  0  0  0
   60.3054   28.7798   45.4103 H   0  0  0  0  0  0  0  0  0  0  0  0
   60.3731   26.4339   46.2584 H   0  0  0  0  0  0  0  0  0  0  0  0
   58.2496   25.1778   46.6322 H   0  0  0  0  0  0  0  0  0  0  0  0
   56.0557   26.2606   46.1490 H   0  0  0  0  0  0  0  0  0  0  0  0
   57.8623   33.9991   48.1280 H   0  0  0  0  0  0  0  0  0  0  0  0
   60.5956   33.8809   50.7344 H   0  0  0  0  0  0  0  0  0  0  0  0
   59.0023   34.6519   50.4286 H   0  0  0  0  0  0  0  0  0  0  0  0
   59.1485   32.8616   50.4286 H   0  0  0  0  0  0  0  0  0  0  0  0
   62.1001   33.7339   48.9697 H   0  0  0  0  0  0  0  0  0  0  0  0
   63.6574   33.8401   47.2524 H   0  0  0  0  0  0  0  0  0  0  0  0
   63.1551   32.9433   45.7792 H   0  0  0  0  0  0  0  0  0  0  0  0
   63.1602   34.7396   45.7792 H   0  0  0  0  0  0  0  0  0  0  0  0
   60.7157   34.0363   44.8771 H   0  0  0  0  0  0  0  0  0  0  0  0
  1  2  2  0
  2  3  1  0
  3  4  1  0
  4  5  1  0
  5  6  1  0
  6  7  2  0
  7  8  1  0
  8  9  2  0
  9 10  1  0
 10 11  2  0
 11 12  1  0
  5 13  1  0
 13 14  2  0
 13 15  1  0
 15 16  1  0
 16 17  1  0
 17 18  2  0
 18 19  1  0
 19 20  1  0
 19 21  2  0
 21 22  1  0
 22 23  1  0
 22 24  2  0
 15  3  2  0
 24 17  1  0
 11  6  1  0
  1 25  1  0
  1 26  1  0
  2 27  1  0
  4 28  1  0
  7 29  1  0
  8 30  1  0
  9 31  1  0
 10 32  1  0
 18 33  1  0
 20 34  1  0
 20 35  1  0
 20 36  1  0
 21 37  1  0
 23 38  1  0
 23 39  1  0
 23 40  1  0
 24 41  1  0
M  END
>  <UniqueID>  (55) 
52

>  <SMILES>  (55) 
C=Cc1[nH]n(-c2ccccc2F)c(=O)c1Sc1cc(C)cc(C)c1

>  <Energy>  (55) 
74.57514742337824

>  <Genealogy>  (55) 
C=Cc1[nH]n(-c2ccccc2F)c(=O)c1Sc1cc(C)cc(C)c1 (3D coordinates assigned)
C=Cc1[nH]n(-c2ccccc2F)c(=O)c1Sc1cc(C)cc(C)c1 (optimized conformer: 74.57514742337824 kcal/mol)

>  <smiles>  (55) 
C=Cc1[nH]n(-c2ccccc2F)c(=O)c1Sc1cc(C)cc(C)c1

>  <score_type>  (55) 
oracle

>  <origin>  (55) 
adg

>  <m_score__min__energy>  (55) 
-8.9299999999999997

>  <m_primary>  (55) 
energy

$$$$
56:0
     RDKit          3D

 44 47  0  0  1  0  0  0  0  0999 V2000
   57.1700   29.7500   51.9940 O   0  0  0  0  0  0  0  0  0  0  0  0
   56.2050   30.5600   52.0120 C   0  0  0  0  0  0  0  0  0  0  0  0
   56.4970   31.9230   51.8160 N   0  0  0  0  0  0  0  0  0  0  0  0
   57.8310   32.4170   51.5980 C   0  0  0  0  0  0  0  0  0  0  0  0
   58.3660   33.3000   52.5280 C   0  0  0  0  0  0  0  0  0  0  0  0
   59.6540   33.8090   52.3650 C   0  0  0  0  0  0  0  0  0  0  0  0
   60.4090   33.4340   51.2730 C   0  0  0  0  0  0  0  0  0  0  0  0
   61.6920   33.9350   51.1010 O   0  0  0  0  0  0  0  0  0  0  0  0
   62.5210   33.5770   50.0470 C   0  0  0  0  0  0  0  0  0  0  0  0
   63.7710   33.0180   50.2190 C   0  0  0  0  0  0  0  0  0  0  0  0
   64.4770   32.7160   49.0700 C   0  0  0  0  0  0  0  0  0  0  0  0
   63.9900   32.9450   47.8380 N   0  0  0  0  0  0  0  0  0  0  0  0
   62.7670   33.4910   47.7000 C   0  0  0  0  0  0  0  0  0  0  0  0
   62.2330   33.7410   46.5520 N   0  0  0  0  0  0  0  0  0  0  0  0
   60.8150   33.7210   46.3990 C   0  0  0  0  0  0  0  0  0  0  0  0
   59.9590   32.7030   46.4760 C   0  0  0  0  0  0  0  0  0  0  0  0
   58.6440   32.9300   46.2940 C   0  0  0  0  0  0  0  0  0  0  0  0
   58.2580   34.2140   46.0340 C   0  0  0  0  0  0  0  0  0  0  0  0
   59.8020   35.1730   46.0440 S   0  0  0  0  0  0  0  0  0  0  0  0
   62.0690   33.7910   48.7940 N   0  0  0  0  0  0  0  0  0  0  0  0
   59.8650   32.5440   50.3390 C   0  0  0  0  0  0  0  0  0  0  0  0
   58.5800   32.0350   50.5000 C   0  0  0  0  0  0  0  0  0  0  0  0
   54.8480   30.0750   52.2320 C   0  0  0  0  0  0  0  0  0  0  0  0
   54.5430   29.0240   53.0700 C   0  0  0  0  0  0  0  0  0  0  0  0
   53.2620   28.5710   53.2720 C   0  0  0  0  0  0  0  0  0  0  0  0
   52.2020   29.1730   52.6240 C   0  0  0  0  0  0  0  0  0  0  0  0
   52.4820   30.2340   51.7740 C   0  0  0  0  0  0  0  0  0  0  0  0
   53.7910   30.6790   51.5830 C   0  0  0  0  0  0  0  0  0  0  0  0
   55.7520   32.6530   51.8180 H   0  0  0  0  0  0  0  0  0  0  0  0
   57.7679   33.6003   53.4010 H   0  0  0  0  0  0  0  0  0  0  0  0
   60.0675   34.5087   53.1063 H   0  0  0  0  0  0  0  0  0  0  0  0
   64.1843   32.8228   51.2196 H   0  0  0  0  0  0  0  0  0  0  0  0
   65.4779   32.2702   49.1674 H   0  0  0  0  0  0  0  0  0  0  0  0
   64.5150   32.7210   46.9580 H   0  0  0  0  0  0  0  0  0  0  0  0
   60.3229   31.6865   46.6863 H   0  0  0  0  0  0  0  0  0  0  0  0
   57.9096   32.1132   46.3525 H   0  0  0  0  0  0  0  0  0  0  0  0
   57.2379   34.5857   45.8575 H   0  0  0  0  0  0  0  0  0  0  0  0
   60.4619   32.2429   49.4655 H   0  0  0  0  0  0  0  0  0  0  0  0
   58.1637   31.3351   49.7606 H   0  0  0  0  0  0  0  0  0  0  0  0
   55.3652   28.5238   53.6028 H   0  0  0  0  0  0  0  0  0  0  0  0
   53.0802   27.7259   53.9522 H   0  0  0  0  0  0  0  0  0  0  0  0
   51.1701   28.8236   52.7762 H   0  0  0  0  0  0  0  0  0  0  0  0
   51.6583   30.7325   51.2419 H   0  0  0  0  0  0  0  0  0  0  0  0
   53.9827   31.5237   50.9050 H   0  0  0  0  0  0  0  0  0  0  0  0
  1  2  2  0
  2  3  1  0
  3  4  1  0
  4  5  2  0
  5  6  1  0
  6  7  2  0
  7  8  1  0
  8  9  1  0
  9 10  1  0
 10 11  2  0
 11 12  1  0
 12 13  1  0
 13 14  2  0
 14 15  1  0
 15 16  2  0
 16 17  1  0
 17 18  2  0
 18 19  1  0
 13 20  1  0
  7 21  1  0
 21 22  2  0
  2 23  1  0
 23 24  2  0
 24 25  1  0
 25 26  2  0
 26 27  1  0
 27 28  2  0
 22  4  1  0
 28 23  1  0
 20  9  2  0
 19 15  1  0
  3 29  1  0
  5 30  1  0
  6 31  1  0
 10 32  1  0
 11 33  1  0
 12 34  1  0
 16 35  1  0
 17 36  1  0
 18 37  1  0
 21 38  1  0
 22 39  1  0
 24 40  1  0
 25 41  1  0
 26 42  1  0
 27 43  1  0
 28 44  1  0
M  END
>  <smiles>  (56) 
O=C(Nc1ccc(Oc2cc[nH]c(=Nc3cccs3)n2)cc1)c1ccccc1

>  <score_type>  (56) 
oracle

>  <origin>  (56) 
adg

>  <m_score__min__energy>  (56) 
-8.6199999999999992

>  <m_primary>  (56) 
energy

$$$$
57:0
     RDKit          3D

 61 63  0  0  0  0  0  0  0  0999 V2000
   60.3580   29.0460   46.8900 C   0  0  0  0  0  0  0  0  0  0  0  0
   60.0540   28.9550   45.3990 C   0  0  0  0  0  0  0  0  0  0  0  0
   58.7440   28.3250   45.1810 N   0  0  0  0  0  0  0  0  0  0  0  0
   57.8890   28.8220   44.0900 C   0  0  0  0  0  0  0  0  0  0  0  0
   56.6450   29.4570   44.6480 C   0  0  0  0  0  0  0  0  0  0  0  0
   55.7930   28.7350   45.2320 O   0  0  0  0  0  0  0  0  0  0  0  0
   56.3750   30.8550   44.4970 N   0  0  0  0  0  0  0  0  0  0  0  0
   57.1900   31.9440   44.9610 C   0  0  0  0  0  0  0  0  0  0  0  0
   57.4170   33.0840   44.1760 C   0  0  0  0  0  0  0  0  0  0  0  0
   58.2650   34.0950   44.6330 C   0  0  0  0  0  0  0  0  0  0  0  0
   58.9150   33.9790   45.8690 C   0  0  0  0  0  0  0  0  0  0  0  0
   59.9900   35.2920   46.3390 Cl  0  0  0  0  0  0  0  0  0  0  0  0
   58.7080   32.8230   46.6620 C   0  0  0  0  0  0  0  0  0  0  0  0
   59.5310   32.5370   48.2080 S   0  0  0  0  0  0  0  0  0  0  0  0
   59.6900   33.8010   49.0060 O   0  0  0  0  0  0  0  0  0  0  0  0
   58.6780   31.5910   49.0100 O   0  0  0  0  0  0  0  0  0  0  0  0
   61.0910   31.7930   47.9210 N   0  0  0  0  0  0  0  0  0  0  0  0
   61.9720   32.6510   47.1060 C   0  0  0  0  0  0  0  0  0  0  0  0
   62.5800   33.8210   47.9190 C   0  0  0  0  0  0  0  0  0  0  0  0
   62.4670   33.6540   49.3220 O   0  0  0  0  0  0  0  0  0  0  0  0
   62.8080   32.3340   49.6780 C   0  0  0  0  0  0  0  0  0  0  0  0
   61.7340   31.3500   49.1780 C   0  0  0  0  0  0  0  0  0  0  0  0
   57.8530   31.8140   46.1890 C   0  0  0  0  0  0  0  0  0  0  0  0
   58.3210   27.1620   45.9330 C   0  0  0  0  0  0  0  0  0  0  0  0
   57.7440   27.3180   47.0450 O   0  0  0  0  0  0  0  0  0  0  0  0
   58.5600   25.7550   45.4500 C   0  0  0  0  0  0  0  0  0  0  0  0
   57.2640   25.0310   45.1910 C   0  0  0  0  0  0  0  0  0  0  0  0
   56.0780   25.4740   45.8010 C   0  0  0  0  0  0  0  0  0  0  0  0
   54.8740   24.8090   45.5630 C   0  0  0  0  0  0  0  0  0  0  0  0
   54.8410   23.6980   44.7170 C   0  0  0  0  0  0  0  0  0  0  0  0
   56.0110   23.2390   44.1020 C   0  0  0  0  0  0  0  0  0  0  0  0
   55.9250   22.1260   43.2510 O   0  0  0  0  0  0  0  0  0  0  0  0
   56.9800   21.1940   43.0370 C   0  0  0  0  0  0  0  0  0  0  0  0
   57.2280   23.9010   44.3520 C   0  0  0  0  0  0  0  0  0  0  0  0
   59.4594   28.7770   47.4645 H   0  0  0  0  0  0  0  0  0  0  0  0
   61.1746   28.3529   47.1407 H   0  0  0  0  0  0  0  0  0  0  0  0
   60.6594   30.0738   47.1407 H   0  0  0  0  0  0  0  0  0  0  0  0
   60.0457   29.9671   44.9683 H   0  0  0  0  0  0  0  0  0  0  0  0
   60.8291   28.3441   44.9133 H   0  0  0  0  0  0  0  0  0  0  0  0
   58.4457   29.5683   43.5043 H   0  0  0  0  0  0  0  0  0  0  0  0
   57.6013   27.9764   43.4480 H   0  0  0  0  0  0  0  0  0  0  0  0
   56.9253   33.1820   43.1969 H   0  0  0  0  0  0  0  0  0  0  0  0
   58.4244   34.9918   44.0163 H   0  0  0  0  0  0  0  0  0  0  0  0
   62.7918   32.0359   46.7064 H   0  0  0  0  0  0  0  0  0  0  0  0
   61.3621   33.0859   46.3004 H   0  0  0  0  0  0  0  0  0  0  0  0
   63.6465   33.9053   47.6633 H   0  0  0  0  0  0  0  0  0  0  0  0
   62.0145   34.7267   47.6546 H   0  0  0  0  0  0  0  0  0  0  0  0
   63.7763   32.0749   49.2251 H   0  0  0  0  0  0  0  0  0  0  0  0
   62.8735   32.2650   50.7739 H   0  0  0  0  0  0  0  0  0  0  0  0
   62.2067   30.3719   49.0052 H   0  0  0  0  0  0  0  0  0  0  0  0
   60.9512   31.2945   49.9488 H   0  0  0  0  0  0  0  0  0  0  0  0
   57.7012   30.9068   46.7923 H   0  0  0  0  0  0  0  0  0  0  0  0
   59.1414   25.7916   44.5169 H   0  0  0  0  0  0  0  0  0  0  0  0
   59.1084   25.2105   46.2328 H   0  0  0  0  0  0  0  0  0  0  0  0
   56.0985   26.3481   46.4685 H   0  0  0  0  0  0  0  0  0  0  0  0
   53.9488   25.1608   46.0429 H   0  0  0  0  0  0  0  0  0  0  0  0
   53.8882   23.1801   44.5329 H   0  0  0  0  0  0  0  0  0  0  0  0
   57.3685   20.8508   44.0072 H   0  0  0  0  0  0  0  0  0  0  0  0
   56.5986   20.3325   42.4692 H   0  0  0  0  0  0  0  0  0  0  0  0
   57.7879   21.6787   42.4692 H   0  0  0  0  0  0  0  0  0  0  0  0
   58.1558   23.5334   43.8893 H   0  0  0  0  0  0  0  0  0  0  0  0
  1  2  1  0
  2  3  1  0
  3  4  1  0
  4  5  1  0
  5  6  2  0
  5  7  1  0
  7  8  1  0
  8  9  2  0
  9 10  1  0
 10 11  2  0
 11 12  1  0
 11 13  1  0
 13 14  1  0
 14 15  2  0
 14 16  2  0
 14 17  1  0
 17 18  1  0
 18 19  1  0
 19 20  1  0
 20 21  1  0
 21 22  1  0
 13 23  2  0
  3 24  1  0
 24 25  2  0
 24 26  1  0
 26 27  1  0
 27 28  2  0
 28 29  1  0
 29 30  2  0
 30 31  1  0
 31 32  1  0
 32 33  1  0
 31 34  2  0
 23  8  1  0
 34 27  1  0
 22 17  1  0
  1 35  1  0
  1 36  1  0
  1 37  1  0
  2 38  1  0
  2 39  1  0
  4 40  1  0
  4 41  1  0
  9 42  1  0
 10 43  1  0
 18 44  1  0
 18 45  1  0
 19 46  1  0
 19 47  1  0
 21 48  1  0
 21 49  1  0
 22 50  1  0
 22 51  1  0
 23 52  1  0
 26 53  1  0
 26 54  1  0
 28 55  1  0
 29 56  1  0
 30 57  1  0
 33 58  1  0
 33 59  1  0
 33 60  1  0
 34 61  1  0
M  CHG  1   7  -1
M  END
>  <UniqueID>  (57) 
53

>  <SMILES>  (57) 
CCN(CC(=O)[N-]c1ccc(Cl)c(S(=O)(=O)N2CCOCC2)c1)C(=O)Cc1cccc(OC)c1

>  <Energy>  (57) 
74.82214310568345

>  <Genealogy>  (57) 
CCN(CC(=O)[N-]c1ccc(Cl)c(S(=O)(=O)N2CCOCC2)c1)C(=O)Cc1cccc(OC)c1 (protonated)
CCN(CC(=O)[N-]c1ccc(Cl)c(S(=O)(=O)N2CCOCC2)c1)C(=O)Cc1cccc(OC)c1 (3D coordinates assigned)
CCN(CC(=O)[N-]c1ccc(Cl)c(S(=O)(=O)N2CCOCC2)c1)C(=O)Cc1cccc(OC)c1 (nonaromatic ring conformer: 74.82214310568345 kcal/mol)

>  <smiles>  (57) 
CCN(CC(=O)Nc1ccc(Cl)c(S(=O)(=O)N2CCOCC2)c1)C(=O)Cc1cccc(OC)c1

>  <score_type>  (57) 
oracle

>  <origin>  (57) 
adg

>  <m_score__min__energy>  (57) 
-11.19

>  <m_primary>  (57) 
energy

$$$$
58:0
     RDKit          3D

 51 54  0  0  0  0  0  0  0  0999 V2000
   58.2160   33.7300   45.5320 O   0  0  0  0  0  0  0  0  0  0  0  0
   58.1490   32.6180   46.1170 C   0  0  0  0  0  0  0  0  0  0  0  0
   58.5720   32.5220   47.5620 C   0  0  0  0  0  0  0  0  0  0  0  0
   59.8820   31.8760   47.7120 N   0  0  0  0  0  0  0  0  0  0  0  0
   60.1640   30.5940   48.0930 C   0  0  0  0  0  0  0  0  0  0  0  0
   59.1980   29.5280   48.4480 C   0  0  0  0  0  0  0  0  0  0  0  0
   58.4000   29.7390   49.4020 O   0  0  0  0  0  0  0  0  0  0  0  0
   59.0800   28.3130   47.6910 N   0  0  0  0  0  0  0  0  0  0  0  0
   57.8480   27.5300   47.6840 C   0  0  0  0  0  0  0  0  0  0  0  0
   58.0600   26.2770   46.8800 C   0  0  0  0  0  0  0  0  0  0  0  0
   59.3590   25.7810   46.6820 C   0  0  0  0  0  0  0  0  0  0  0  0
   59.5670   24.6580   45.8740 C   0  0  0  0  0  0  0  0  0  0  0  0
   58.4830   24.0300   45.2550 C   0  0  0  0  0  0  0  0  0  0  0  0
   57.1890   24.5250   45.4390 C   0  0  0  0  0  0  0  0  0  0  0  0
   56.9760   25.6490   46.2440 C   0  0  0  0  0  0  0  0  0  0  0  0
   61.5400   30.3720   48.0690 C   0  0  0  0  0  0  0  0  0  0  0  0
   62.1000   31.5600   47.6700 C   0  0  0  0  0  0  0  0  0  0  0  0
   63.4370   31.9090   47.4960 C   0  0  0  0  0  0  0  0  0  0  0  0
   63.7250   33.2190   47.0750 C   0  0  0  0  0  0  0  0  0  0  0  0
   62.6810   34.1370   46.8350 C   0  0  0  0  0  0  0  0  0  0  0  0
   61.3400   33.7550   47.0180 C   0  0  0  0  0  0  0  0  0  0  0  0
   61.0790   32.4480   47.4480 C   0  0  0  0  0  0  0  0  0  0  0  0
   57.5150   31.5190   45.4480 N   0  0  0  0  0  0  0  0  0  0  0  0
   58.1840   30.3310   44.9990 C   0  0  0  0  0  0  0  0  0  0  0  0
   59.5660   30.1790   45.2080 C   0  0  0  0  0  0  0  0  0  0  0  0
   60.2190   29.0050   44.8370 C   0  0  0  0  0  0  0  0  0  0  0  0
   59.5050   27.9730   44.2340 C   0  0  0  0  0  0  0  0  0  0  0  0
   58.1390   28.1200   43.9830 C   0  0  0  0  0  0  0  0  0  0  0  0
   57.4610   29.3000   44.3450 C   0  0  0  0  0  0  0  0  0  0  0  0
   56.0080   29.4090   44.0520 C   0  0  0  0  0  0  0  0  0  0  0  0
   55.1440   29.0080   44.8760 O   0  0  0  0  0  0  0  0  0  0  0  0
   55.5760   29.9700   42.8550 O   0  0  0  0  0  0  0  0  0  0  0  0
   58.6263   33.5364   47.9839 H   0  0  0  0  0  0  0  0  0  0  0  0
   57.8289   31.9085   48.0926 H   0  0  0  0  0  0  0  0  0  0  0  0
   59.7490   28.1120   46.9210 H   0  0  0  0  0  0  0  0  0  0  0  0
   57.5765   27.2629   48.7160 H   0  0  0  0  0  0  0  0  0  0  0  0
   57.0372   28.1228   47.2355 H   0  0  0  0  0  0  0  0  0  0  0  0
   60.2149   26.2767   47.1634 H   0  0  0  0  0  0  0  0  0  0  0  0
   60.5852   24.2689   45.7258 H   0  0  0  0  0  0  0  0  0  0  0  0
   58.6483   23.1454   44.6224 H   0  0  0  0  0  0  0  0  0  0  0  0
   56.3369   24.0301   44.9501 H   0  0  0  0  0  0  0  0  0  0  0  0
   55.9576   26.0420   46.3794 H   0  0  0  0  0  0  0  0  0  0  0  0
   62.0672   29.4392   48.3179 H   0  0  0  0  0  0  0  0  0  0  0  0
   64.2420   31.1828   47.6821 H   0  0  0  0  0  0  0  0  0  0  0  0
   64.7704   33.5300   46.9319 H   0  0  0  0  0  0  0  0  0  0  0  0
   62.9175   35.1585   46.5025 H   0  0  0  0  0  0  0  0  0  0  0  0
   60.5194   34.4627   46.8288 H   0  0  0  0  0  0  0  0  0  0  0  0
   60.1388   30.9966   45.6699 H   0  0  0  0  0  0  0  0  0  0  0  0
   61.2979   28.8938   45.0205 H   0  0  0  0  0  0  0  0  0  0  0  0
   60.0175   27.0406   43.9549 H   0  0  0  0  0  0  0  0  0  0  0  0
   57.5855   27.3035   43.4962 H   0  0  0  0  0  0  0  0  0  0  0  0
  1  2  2  0
  2  3  1  0
  3  4  1  0
  4  5  1  0
  5  6  1  0
  6  7  2  0
  6  8  1  0
  8  9  1  0
  9 10  1  0
 10 11  2  0
 11 12  1  0
 12 13  2  0
 13 14  1  0
 14 15  2  0
  5 16  2  0
 16 17  1  0
 17 18  2  0
 18 19  1  0
 19 20  2  0
 20 21  1  0
 21 22  2  0
  2 23  1  0
 23 24  1  0
 24 25  2  0
 25 26  1  0
 26 27  2  0
 27 28  1  0
 28 29  2  0
 29 30  1  0
 30 31  2  0
 30 32  1  0
 22  4  1  0
 29 24  1  0
 15 10  1  0
 22 17  1  0
  3 33  1  0
  3 34  1  0
  8 35  1  0
  9 36  1  0
  9 37  1  0
 11 38  1  0
 12 39  1  0
 13 40  1  0
 14 41  1  0
 15 42  1  0
 16 43  1  0
 18 44  1  0
 19 45  1  0
 20 46  1  0
 21 47  1  0
 25 48  1  0
 26 49  1  0
 27 50  1  0
 28 51  1  0
M  CHG  2  23  -1  32  -1
M  END
>  <UniqueID>  (58) 
54

>  <SMILES>  (58) 
O=C(Cn1c(C(=O)NCc2ccccc2)cc2ccccc21)[N-]c1ccccc1C(=O)[O-]

>  <Energy>  (58) 
97.02507641389626

>  <Genealogy>  (58) 
O=C(Cn1c(C(=O)NCc2ccccc2)cc2ccccc21)[N-]c1ccccc1C(=O)[O-] (protonated)
O=C(Cn1c(C(=O)NCc2ccccc2)cc2ccccc21)[N-]c1ccccc1C(=O)[O-] (3D coordinates assigned)
O=C(Cn1c(C(=O)NCc2ccccc2)cc2ccccc21)[N-]c1ccccc1C(=O)[O-] (optimized conformer: 97.02507641389626 kcal/mol)

>  <smiles>  (58) 
O=C(Cn1c(C(=O)NCc2ccccc2)cc2ccccc21)Nc1ccccc1C(=O)O

>  <score_type>  (58) 
oracle

>  <origin>  (58) 
adg

>  <m_score__min__energy>  (58) 
-12.83

>  <m_primary>  (58) 
energy

$$$$
59:0
     RDKit          3D

 58 61  0  0  0  0  0  0  0  0999 V2000
   58.8380   28.7400   47.9380 H   0  0  0  0  0  0  0  0  0  0  0  0
   58.8220   28.9550   48.9580 N   0  0  0  0  0  0  0  0  0  0  0  0
   58.9990   30.1560   49.4190 C   0  0  0  0  0  0  0  0  0  0  0  0
   58.7090   30.4460   50.8430 C   0  0  0  0  0  0  0  0  0  0  0  0
   59.7000   30.2730   51.8270 C   0  0  0  0  0  0  0  0  0  0  0  0
   60.7199   29.9874   51.5299 H   0  0  0  0  0  0  0  0  0  0  0  0
   59.3990   30.4610   53.1780 C   0  0  0  0  0  0  0  0  0  0  0  0
   60.1910   30.3546   53.9340 H   0  0  0  0  0  0  0  0  0  0  0  0
   58.0920   30.7850   53.5780 C   0  0  0  0  0  0  0  0  0  0  0  0
   57.7300   30.8490   55.0500 C   0  0  0  0  0  0  0  0  0  0  0  0
   58.5836   30.4737   55.6335 H   0  0  0  0  0  0  0  0  0  0  0  0
   57.4941   31.8993   55.2761 H   0  0  0  0  0  0  0  0  0  0  0  0
   56.5320   30.0510   55.4080 N   0  0  0  0  0  0  0  0  0  0  0  0
   55.2740   30.5430   54.8000 C   0  0  0  0  0  0  0  0  0  0  0  0
   54.8582   31.3369   55.4378 H   0  0  0  0  0  0  0  0  0  0  0  0
   55.5086   30.9219   53.7943 H   0  0  0  0  0  0  0  0  0  0  0  0
   54.2290   29.4260   54.6540 C   0  0  0  0  0  0  0  0  0  0  0  0
   53.9844   29.0345   55.6525 H   0  0  0  0  0  0  0  0  0  0  0  0
   53.3391   29.8518   54.1674 H   0  0  0  0  0  0  0  0  0  0  0  0
   54.7270   28.3130   53.8110 N   0  0  0  0  0  0  0  0  0  0  0  0
   54.4510   28.5650   52.3750 C   0  0  0  0  0  0  0  0  0  0  0  0
   55.3884   28.8510   51.8754 H   0  0  0  0  0  0  0  0  0  0  0  0
   54.0388   27.6447   51.9355 H   0  0  0  0  0  0  0  0  0  0  0  0
   53.4400   29.6720   52.1930 C   0  0  0  0  0  0  0  0  0  0  0  0
   53.8210   30.8990   51.6250 C   0  0  0  0  0  0  0  0  0  0  0  0
   54.8680   31.0634   51.3304 H   0  0  0  0  0  0  0  0  0  0  0  0
   52.8780   31.9120   51.4320 C   0  0  0  0  0  0  0  0  0  0  0  0
   53.1828   32.8699   50.9854 H   0  0  0  0  0  0  0  0  0  0  0  0
   51.5470   31.7070   51.8070 C   0  0  0  0  0  0  0  0  0  0  0  0
   50.6100   32.7160   51.6200 O   0  0  0  0  0  0  0  0  0  0  0  0
   51.1580   30.4870   52.3670 C   0  0  0  0  0  0  0  0  0  0  0  0
   50.1098   30.3262   52.6594 H   0  0  0  0  0  0  0  0  0  0  0  0
   52.0990   29.4710   52.5560 C   0  0  0  0  0  0  0  0  0  0  0  0
   51.7875   28.5099   52.9910 H   0  0  0  0  0  0  0  0  0  0  0  0
   56.1600   27.9860   54.0480 C   0  0  0  0  0  0  0  0  0  0  0  0
   56.2648   26.8920   54.0937 H   0  0  0  0  0  0  0  0  0  0  0  0
   56.7342   28.4250   53.2188 H   0  0  0  0  0  0  0  0  0  0  0  0
   56.7170   28.5840   55.3520 C   0  0  0  0  0  0  0  0  0  0  0  0
   56.1943   28.1266   56.2050 H   0  0  0  0  0  0  0  0  0  0  0  0
   57.7961   28.3742   55.3902 H   0  0  0  0  0  0  0  0  0  0  0  0
   57.1220   31.0300   52.5920 C   0  0  0  0  0  0  0  0  0  0  0  0
   56.1167   31.3649   52.8873 H   0  0  0  0  0  0  0  0  0  0  0  0
   57.4230   30.8520   51.2400 C   0  0  0  0  0  0  0  0  0  0  0  0
   56.6481   31.0308   50.4801 H   0  0  0  0  0  0  0  0  0  0  0  0
   59.4690   31.1990   48.5490 N   0  0  0  0  0  0  0  0  0  0  0  0
   60.1450   31.8970   48.9300 H   0  0  0  0  0  0  0  0  0  0  0  0
   59.2590   31.1750   47.1820 O   0  0  0  0  0  0  0  0  0  0  0  0
   58.9500   32.3220   46.4370 C   0  0  0  0  0  0  0  0  0  0  0  0
   59.4910   33.5790   46.7690 C   0  0  0  0  0  0  0  0  0  0  0  0
   60.1634   33.6743   47.6343 H   0  0  0  0  0  0  0  0  0  0  0  0
   59.1780   34.7050   46.0050 C   0  0  0  0  0  0  0  0  0  0  0  0
   59.6033   35.6840   46.2707 H   0  0  0  0  0  0  0  0  0  0  0  0
   58.3260   34.5910   44.9040 C   0  0  0  0  0  0  0  0  0  0  0  0
   58.0738   35.4810   44.3088 H   0  0  0  0  0  0  0  0  0  0  0  0
   57.7940   33.3450   44.5590 C   0  0  0  0  0  0  0  0  0  0  0  0
   57.1269   33.2553   43.6889 H   0  0  0  0  0  0  0  0  0  0  0  0
   58.1080   32.2110   45.3180 C   0  0  0  0  0  0  0  0  0  0  0  0
   57.4200   30.6570   44.8710 Cl  0  0  0  0  0  0  0  0  0  0  0  0
  1  2  1  0
  2  3  2  0
  3  4  1  0
  4  5  2  0
  5  6  1  0
  5  7  1  0
  7  8  1  0
  7  9  2  0
  9 10  1  0
 10 11  1  0
 10 12  1  0
 10 13  1  0
 13 14  1  0
 14 15  1  0
 14 16  1  0
 14 17  1  0
 17 18  1  0
 17 19  1  0
 17 20  1  0
 20 21  1  0
 21 22  1  0
 21 23  1  0
 21 24  1  0
 24 25  2  0
 25 26  1  0
 25 27  1  0
 27 28  1  0
 27 29  2  0
 29 30  1  0
 29 31  1  0
 31 32  1  0
 31 33  2  0
 33 34  1  0
 20 35  1  0
 35 36  1  0
 35 37  1  0
 35 38  1  0
 38 39  1  0
 38 40  1  0
  9 41  1  0
 41 42  1  0
 41 43  2  0
 43 44  1  0
  3 45  1  0
 45 46  1  0
 45 47  1  0
 47 48  1  0
 48 49  2  0
 49 50  1  0
 49 51  1  0
 51 52  1  0
 51 53  2  0
 53 54  1  0
 53 55  1  0
 55 56  1  0
 55 57  2  0
 57 58  1  0
 43  4  1  0
 57 48  1  0
 38 13  1  0
 33 24  1  0
M  CHG  1  30  -1
M  END
>  <UniqueID>  (59) 
55

>  <SMILES>  (59) 
[H]/N=C(\NOc1ccccc1Cl)c1ccc(CN2CCN(Cc3ccc([O-])cc3)CC2)cc1

>  <Energy>  (59) 
82.76885196992161

>  <Genealogy>  (59) 
N=C(NOc1ccccc1Cl)c1ccc(CN2CCN(Cc3ccc([O-])cc3)CC2)cc1 (protonated)
[H]/N=C(\NOc1ccccc1Cl)c1ccc(CN2CCN(Cc3ccc([O-])cc3)CC2)cc1 (cis-trans isomerization)
[H]/N=C(\NOc1ccccc1Cl)c1ccc(CN2CCN(Cc3ccc([O-])cc3)CC2)cc1 (3D coordinates assigned)
[H]/N=C(\NOc1ccccc1Cl)c1ccc(CN2CCN(Cc3ccc([O-])cc3)CC2)cc1 (nonaromatic ring conformer: 82.76885196992161 kcal/mol)

>  <smiles>  (59) 
N=C(NOc1ccccc1Cl)c1ccc(CN2CCN(Cc3ccc(O)cc3)CC2)cc1

>  <score_type>  (59) 
oracle

>  <origin>  (59) 
adg

>  <m_score__min__energy>  (59) 
-12.44

>  <m_primary>  (59) 
energy

$$$$
60:0
     RDKit          3D

 52 54  0  0  0  0  0  0  0  0999 V2000
   60.9140   30.1660   50.0200 C   0  0  0  0  0  0  0  0  0  0  0  0
   60.6600   31.0180   48.4760 S   0  0  0  0  0  0  0  0  0  0  0  0
   61.4950   30.3270   47.4380 O   0  0  0  0  0  0  0  0  0  0  0  0
   59.2150   30.8480   48.0960 O   0  0  0  0  0  0  0  0  0  0  0  0
   61.0000   32.7460   48.5690 N   0  0  0  0  0  0  0  0  0  0  0  0
   61.8920   33.1220   49.6910 C   0  0  0  0  0  0  0  0  0  0  0  0
   63.3530   32.6330   49.6030 C   0  0  0  0  0  0  0  0  0  0  0  0
   64.1390   33.1000   48.3740 C   0  0  0  0  0  0  0  0  0  0  0  0
   63.4050   32.8400   47.0560 C   0  0  0  0  0  0  0  0  0  0  0  0
   62.3080   33.8630   46.7280 C   0  0  0  0  0  0  0  0  0  0  0  0
   60.9030   33.5990   47.3460 C   0  0  2  0  0  0  0  0  0  0  0  0
   60.1030   34.8900   47.6140 C   0  0  0  0  0  0  0  0  0  0  0  0
   59.3860   35.2240   46.3160 C   0  0  0  0  0  0  0  0  0  0  0  0
   59.3720   34.0100   45.4870 N   0  0  2  0  0  0  0  0  0  0  0  0
   57.7610   33.5550   44.9760 S   0  0  0  0  0  0  0  0  0  0  0  0
   57.0310   32.9340   46.1330 O   0  0  0  0  0  0  0  0  0  0  0  0
   56.9950   34.7670   44.5180 O   0  0  0  0  0  0  0  0  0  0  0  0
   57.8240   32.3430   43.6610 C   0  0  0  0  0  0  0  0  0  0  0  0
   57.7050   30.9420   44.1960 C   0  0  0  0  0  0  0  0  0  0  0  0
   56.4430   30.3410   44.3300 C   0  0  0  0  0  0  0  0  0  0  0  0
   56.3350   29.0280   44.7960 C   0  0  0  0  0  0  0  0  0  0  0  0
   57.4840   28.3060   45.1300 C   0  0  0  0  0  0  0  0  0  0  0  0
   58.7430   28.8970   44.9990 C   0  0  0  0  0  0  0  0  0  0  0  0
   58.8560   30.2110   44.5350 C   0  0  0  0  0  0  0  0  0  0  0  0
   59.9960   32.9420   46.2820 C   0  0  0  0  0  0  0  0  0  0  0  0
   60.7095   30.8519   50.8553 H   0  0  0  0  0  0  0  0  0  0  0  0
   60.2340   29.3034   50.0790 H   0  0  0  0  0  0  0  0  0  0  0  0
   61.9554   29.8166   50.0790 H   0  0  0  0  0  0  0  0  0  0  0  0
   61.9102   34.2203   49.7498 H   0  0  0  0  0  0  0  0  0  0  0  0
   61.4712   32.6238   50.5769 H   0  0  0  0  0  0  0  0  0  0  0  0
   63.8830   32.9900   50.4983 H   0  0  0  0  0  0  0  0  0  0  0  0
   63.2972   31.5373   49.5235 H   0  0  0  0  0  0  0  0  0  0  0  0
   64.3217   34.1809   48.4654 H   0  0  0  0  0  0  0  0  0  0  0  0
   65.0759   32.5243   48.3462 H   0  0  0  0  0  0  0  0  0  0  0  0
   64.1444   32.8555   46.2417 H   0  0  0  0  0  0  0  0  0  0  0  0
   62.9044   31.8663   47.1624 H   0  0  0  0  0  0  0  0  0  0  0  0
   62.6504   34.8457   47.0844 H   0  0  0  0  0  0  0  0  0  0  0  0
   62.1640   33.7959   45.6395 H   0  0  0  0  0  0  0  0  0  0  0  0
   59.3736   34.7256   48.4208 H   0  0  0  0  0  0  0  0  0  0  0  0
   60.7631   35.7115   47.9293 H   0  0  0  0  0  0  0  0  0  0  0  0
   58.3553   35.5439   46.5291 H   0  0  0  0  0  0  0  0  0  0  0  0
   59.9008   36.0424   45.7914 H   0  0  0  0  0  0  0  0  0  0  0  0
   59.9450   34.1750   44.6250 H   0  0  0  0  0  0  0  0  0  0  0  0
   56.9953   32.5303   42.9623 H   0  0  0  0  0  0  0  0  0  0  0  0
   58.7945   32.4366   43.1517 H   0  0  0  0  0  0  0  0  0  0  0  0
   55.5363   30.9057   44.0673 H   0  0  0  0  0  0  0  0  0  0  0  0
   55.3440   28.5620   44.9001 H   0  0  0  0  0  0  0  0  0  0  0  0
   57.3970   27.2723   45.4960 H   0  0  0  0  0  0  0  0  0  0  0  0
   59.6469   28.3276   45.2613 H   0  0  0  0  0  0  0  0  0  0  0  0
   59.8489   30.6739   44.4351 H   0  0  0  0  0  0  0  0  0  0  0  0
   59.2174   32.3420   46.7757 H   0  0  0  0  0  0  0  0  0  0  0  0
   60.5894   32.2821   45.6322 H   0  0  0  0  0  0  0  0  0  0  0  0
  1  2  1  0
  2  3  2  0
  2  4  2  0
  2  5  1  0
  5  6  1  0
  6  7  1  0
  7  8  1  0
  8  9  1  0
  9 10  1  0
 10 11  1  0
 11 12  1  0
 12 13  1  0
 13 14  1  0
 14 15  1  0
 15 16  2  0
 15 17  2  0
 15 18  1  0
 18 19  1  0
 19 20  2  0
 20 21  1  0
 21 22  2  0
 22 23  1  0
 23 24  2  0
 14 25  1  0
 11  5  1  1
 24 19  1  0
 25 11  1  0
  1 26  1  0
  1 27  1  0
  1 28  1  0
  6 29  1  0
  6 30  1  0
  7 31  1  0
  7 32  1  0
  8 33  1  0
  8 34  1  0
  9 35  1  0
  9 36  1  0
 10 37  1  0
 10 38  1  0
 12 39  1  0
 12 40  1  0
 13 41  1  0
 13 42  1  0
 14 43  1  6
 18 44  1  0
 18 45  1  0
 20 46  1  0
 21 47  1  0
 22 48  1  0
 23 49  1  0
 24 50  1  0
 25 51  1  0
 25 52  1  0
M  CHG  1  14   1
M  END
>  <UniqueID>  (60) 
56

>  <SMILES>  (60) 
CS(=O)(=O)N1CCCCC[C@]12CC[N@H+](S(=O)(=O)Cc1ccccc1)C2

>  <Energy>  (60) 
68.60487723405086

>  <Genealogy>  (60) 
CS(=O)(=O)N1CCCCCC12CC[NH+](S(=O)(=O)Cc1ccccc1)C2 (protonated)
CS(=O)(=O)N1CCCCC[C@]12CC[N@H+](S(=O)(=O)Cc1ccccc1)C2 (chirality)
CS(=O)(=O)N1CCCCC[C@]12CC[N@H+](S(=O)(=O)Cc1ccccc1)C2 (3D coordinates assigned)
CS(=O)(=O)N1CCCCC[C@]12CC[N@H+](S(=O)(=O)Cc1ccccc1)C2 (nonaromatic ring conformer: 68.60487723405086 kcal/mol)

>  <smiles>  (60) 
CS(=O)(=O)N1CCCCCC12CCN(S(=O)(=O)Cc1ccccc1)C2

>  <score_type>  (60) 
oracle

>  <origin>  (60) 
adg

>  <m_score__min__energy>  (60) 
-6.4400000000000004

>  <m_primary>  (60) 
energy

$$$$
61:0
     RDKit          3D

 60 63  0  0  1  0  0  0  0  0999 V2000
   58.0800   31.9620   50.9740 C   0  0  0  0  0  0  0  0  0  0  0  0
   58.5520   32.0150   49.5330 C   0  0  0  0  0  0  0  0  0  0  0  0
   59.2890   33.2920   49.3080 C   0  0  0  0  0  0  0  0  0  0  0  0
   59.2680   33.7120   47.8910 C   0  0  0  0  0  0  0  0  0  0  0  0
   59.8690   34.9100   47.5680 C   0  0  0  0  0  0  0  0  0  0  0  0
   59.8510   35.3040   46.2470 C   0  0  0  0  0  0  0  0  0  0  0  0
   59.2450   34.5120   45.2830 C   0  0  0  0  0  0  0  0  0  0  0  0
   58.6350   33.3080   45.5810 C   0  0  0  0  0  0  0  0  0  0  0  0
   57.9980   32.4730   44.5720 C   0  0  0  0  0  0  0  0  0  0  0  0
   57.3130   31.3180   44.9310 C   0  0  0  0  0  0  0  0  0  0  0  0
   56.7020   30.5200   43.9550 C   0  0  0  0  0  0  0  0  0  0  0  0
   56.0630   29.4430   44.2820 N   0  0  0  0  0  0  0  0  0  0  0  0
   56.7000   28.4030   45.0480 C   0  0  0  0  0  0  0  0  0  0  0  0
   55.9400   27.5600   45.5940 O   0  0  0  0  0  0  0  0  0  0  0  0
   58.1820   28.3540   45.1700 C   0  0  0  0  0  0  0  0  0  0  0  0
   58.6560   27.5760   46.3540 C   0  0  0  0  0  0  0  0  0  0  0  0
   58.9350   28.4060   47.5710 C   0  0  0  0  0  0  0  0  0  0  0  0
   59.8830   29.5150   47.2880 C   0  0  0  0  0  0  0  0  0  0  0  0
   60.7640   29.9840   48.2170 N   0  0  0  0  0  0  0  0  0  0  0  0
   61.4570   30.9820   47.6160 C   0  0  0  0  0  0  0  0  0  0  0  0
   62.5030   31.7330   48.3010 C   0  0  0  0  0  0  0  0  0  0  0  0
   62.8700   31.3350   49.5720 C   0  0  0  0  0  0  0  0  0  0  0  0
   63.8630   32.0050   50.2910 C   0  0  0  0  0  0  0  0  0  0  0  0
   64.4830   33.1000   49.6880 C   0  0  0  0  0  0  0  0  0  0  0  0
   64.0890   33.4620   48.4240 C   0  0  0  0  0  0  0  0  0  0  0  0
   63.1170   32.8170   47.7040 C   0  0  0  0  0  0  0  0  0  0  0  0
   62.7490   33.2050   46.4480 F   0  0  0  0  0  0  0  0  0  0  0  0
   60.9980   31.0980   46.3660 N   0  0  0  0  0  0  0  0  0  0  0  0
   60.0600   30.2130   46.1970 O   0  0  0  0  0  0  0  0  0  0  0  0
   56.7640   30.8510   42.6520 N   0  0  0  0  0  0  0  0  0  0  0  0
   57.4320   31.9720   42.3260 C   0  0  0  0  0  0  0  0  0  0  0  0
   57.5020   32.3410   40.8890 C   0  0  0  0  0  0  0  0  0  0  0  0
   58.0250   32.7500   43.2560 N   0  0  0  0  0  0  0  0  0  0  0  0
   58.6590   32.9230   46.9060 C   0  0  0  0  0  0  0  0  0  0  0  0
   58.9448   32.0591   51.6469 H   0  0  0  0  0  0  0  0  0  0  0  0
   57.3763   32.7868   51.1599 H   0  0  0  0  0  0  0  0  0  0  0  0
   57.5767   31.0017   51.1599 H   0  0  0  0  0  0  0  0  0  0  0  0
   59.2196   31.1641   49.3324 H   0  0  0  0  0  0  0  0  0  0  0  0
   57.6858   31.9627   48.8570 H   0  0  0  0  0  0  0  0  0  0  0  0
   58.8235   34.0807   49.9173 H   0  0  0  0  0  0  0  0  0  0  0  0
   60.3385   33.1287   49.5941 H   0  0  0  0  0  0  0  0  0  0  0  0
   60.3474   35.5314   48.3394 H   0  0  0  0  0  0  0  0  0  0  0  0
   60.3213   36.2546   45.9550 H   0  0  0  0  0  0  0  0  0  0  0  0
   59.2501   34.8562   44.2383 H   0  0  0  0  0  0  0  0  0  0  0  0
   57.2501   31.0281   45.9903 H   0  0  0  0  0  0  0  0  0  0  0  0
   58.5912   27.8889   44.2610 H   0  0  0  0  0  0  0  0  0  0  0  0
   58.5307   29.3889   45.3016 H   0  0  0  0  0  0  0  0  0  0  0  0
   57.8829   26.8371   46.6117 H   0  0  0  0  0  0  0  0  0  0  0  0
   59.6115   27.1147   46.0636 H   0  0  0  0  0  0  0  0  0  0  0  0
   57.9882   28.8329   47.9335 H   0  0  0  0  0  0  0  0  0  0  0  0
   59.3948   27.7530   48.3274 H   0  0  0  0  0  0  0  0  0  0  0  0
   62.3681   30.4694   50.0291 H   0  0  0  0  0  0  0  0  0  0  0  0
   64.1476   31.6790   51.3023 H   0  0  0  0  0  0  0  0  0  0  0  0
   65.2699   33.6606   50.2139 H   0  0  0  0  0  0  0  0  0  0  0  0
   64.5856   34.3261   47.9584 H   0  0  0  0  0  0  0  0  0  0  0  0
   57.7063   33.4179   40.7965 H   0  0  0  0  0  0  0  0  0  0  0  0
   58.3082   31.7718   40.4031 H   0  0  0  0  0  0  0  0  0  0  0  0
   56.5434   32.1066   40.4031 H   0  0  0  0  0  0  0  0  0  0  0  0
   58.5150   33.5950   42.8960 H   0  0  0  0  0  0  0  0  0  0  0  0
   58.1880   31.9723   47.1964 H   0  0  0  0  0  0  0  0  0  0  0  0
  1  2  1  0
  2  3  1  0
  3  4  1  0
  4  5  2  0
  5  6  1  0
  6  7  2  0
  7  8  1  0
  8  9  1  0
  9 10  2  0
 10 11  1  0
 11 12  2  0
 12 13  1  0
 13 14  2  0
 13 15  1  0
 15 16  1  0
 16 17  1  0
 17 18  1  0
 18 19  2  0
 19 20  1  0
 20 21  1  0
 21 22  2  0
 22 23  1  0
 23 24  2  0
 24 25  1  0
 25 26  2  0
 26 27  1  0
 20 28  2  0
 28 29  1  0
 11 30  1  0
 30 31  2  0
 31 32  1  0
 31 33  1  0
  8 34  2  0
 34  4  1  0
 33  9  1  0
 29 18  1  0
 26 21  1  0
  1 35  1  0
  1 36  1  0
  1 37  1  0
  2 38  1  0
  2 39  1  0
  3 40  1  0
  3 41  1  0
  5 42  1  0
  6 43  1  0
  7 44  1  0
 10 45  1  0
 15 46  1  0
 15 47  1  0
 16 48  1  0
 16 49  1  0
 17 50  1  0
 17 51  1  0
 22 52  1  0
 23 53  1  0
 24 54  1  0
 25 55  1  0
 32 56  1  0
 32 57  1  0
 32 58  1  0
 33 59  1  0
 34 60  1  0
M  END
>  <smiles>  (61) 
CCCc1cccc(-c2cc(=NC(=O)CCCc3nc(-c4ccccc4F)no3)nc(C)[nH]2)c1

>  <score_type>  (61) 
oracle

>  <origin>  (61) 
adg

>  <m_score__min__energy>  (61) 
-9.9100000000000001

>  <m_primary>  (61) 
energy

$$$$
62:0
     RDKit          3D

 60 64  0  0  0  0  0  0  0  0999 V2000
   57.6048   30.2985   52.5371 H   0  0  0  0  0  0  0  0  0  0  0  0
   58.1850   30.3890   51.6070 C   0  0  0  0  0  0  0  0  0  0  0  0
   58.5200   29.2750   50.9100 N   0  0  0  0  0  0  0  0  0  0  0  0
   59.2310   29.3400   49.7540 C   0  0  0  0  0  0  0  0  0  0  0  0
   59.5460   28.1610   49.0680 C   0  0  0  0  0  0  0  0  0  0  0  0
   59.2198   27.1896   49.4681 H   0  0  0  0  0  0  0  0  0  0  0  0
   60.2740   28.2150   47.8760 C   0  0  0  0  0  0  0  0  0  0  0  0
   60.6660   26.7330   47.0210 Cl  0  0  0  0  0  0  0  0  0  0  0  0
   60.6900   29.4470   47.3650 C   0  0  0  0  0  0  0  0  0  0  0  0
   61.2609   29.4856   46.4256 H   0  0  0  0  0  0  0  0  0  0  0  0
   60.3840   30.6300   48.0420 C   0  0  0  0  0  0  0  0  0  0  0  0
   60.7186   31.5952   47.6340 H   0  0  0  0  0  0  0  0  0  0  0  0
   59.6490   30.5950   49.2450 C   0  0  0  0  0  0  0  0  0  0  0  0
   59.3260   31.7690   49.9650 C   0  0  0  0  0  0  0  0  0  0  0  0
   59.7000   32.9330   49.4980 N   0  0  0  0  0  0  0  0  0  0  0  0
   59.3430   33.5330   48.2440 C   0  0  0  0  0  0  0  0  0  0  0  0
   59.9760   34.7010   47.7910 C   0  0  0  0  0  0  0  0  0  0  0  0
   60.7265   35.1977   48.4234 H   0  0  0  0  0  0  0  0  0  0  0  0
   59.6570   35.2350   46.5410 C   0  0  0  0  0  0  0  0  0  0  0  0
   60.1426   36.1616   46.2010 H   0  0  0  0  0  0  0  0  0  0  0  0
   58.7220   34.5960   45.7190 C   0  0  0  0  0  0  0  0  0  0  0  0
   58.4240   35.1480   44.4780 O   0  0  0  0  0  0  0  0  0  0  0  0
   58.1020   33.4060   46.1500 C   0  0  0  0  0  0  0  0  0  0  0  0
   57.1120   32.6710   45.2780 C   0  0  0  0  0  0  0  0  0  0  0  0
   56.5682   33.3991   44.6582 H   0  0  0  0  0  0  0  0  0  0  0  0
   56.4142   32.1206   45.9261 H   0  0  0  0  0  0  0  0  0  0  0  0
   57.8010   31.7030   44.3960 N   0  0  0  0  0  0  0  0  0  0  0  0
   58.6020   30.7010   45.1500 C   0  0  0  0  0  0  0  0  0  0  0  0
   58.6857   31.0410   46.1928 H   0  0  0  0  0  0  0  0  0  0  0  0
   59.5760   30.6309   44.6436 H   0  0  0  0  0  0  0  0  0  0  0  0
   58.0020   29.2800   45.1520 C   0  0  0  0  0  0  0  0  0  0  0  0
   58.3829   28.7292   46.0247 H   0  0  0  0  0  0  0  0  0  0  0  0
   58.2947   28.7730   44.2207 H   0  0  0  0  0  0  0  0  0  0  0  0
   56.4720   29.3340   45.2210 C   0  0  0  0  0  0  0  0  0  0  0  0
   56.1893   29.8631   46.1430 H   0  0  0  0  0  0  0  0  0  0  0  0
   55.9210   27.9820   45.2480 N   0  0  0  0  0  0  0  0  0  0  0  0
   56.3990   26.9390   46.1040 C   0  0  0  0  0  0  0  0  0  0  0  0
   57.3080   27.1740   46.9430 O   0  0  0  0  0  0  0  0  0  0  0  0
   55.8070   25.6360   46.0660 N   0  0  0  0  0  0  0  0  0  0  0  0
   56.2100   24.5520   45.2170 C   0  0  0  0  0  0  0  0  0  0  0  0
   57.4770   23.9500   45.3310 C   0  0  0  0  0  0  0  0  0  0  0  0
   58.1960   24.3224   46.0756 H   0  0  0  0  0  0  0  0  0  0  0  0
   57.8250   22.8790   44.5000 C   0  0  0  0  0  0  0  0  0  0  0  0
   58.8213   22.4202   44.5826 H   0  0  0  0  0  0  0  0  0  0  0  0
   56.9070   22.3920   43.5650 C   0  0  0  0  0  0  0  0  0  0  0  0
   57.2450   21.3520   42.7630 F   0  0  0  0  0  0  0  0  0  0  0  0
   55.6380   22.9680   43.4660 C   0  0  0  0  0  0  0  0  0  0  0  0
   54.9133   22.5794   42.7354 H   0  0  0  0  0  0  0  0  0  0  0  0
   55.2890   24.0380   44.2950 C   0  0  0  0  0  0  0  0  0  0  0  0
   54.2841   24.4795   44.2229 H   0  0  0  0  0  0  0  0  0  0  0  0
   55.8980   30.0980   44.0110 C   0  0  0  0  0  0  0  0  0  0  0  0
   55.0102   30.6582   44.3396 H   0  0  0  0  0  0  0  0  0  0  0  0
   55.6524   29.3538   43.2391 H   0  0  0  0  0  0  0  0  0  0  0  0
   56.9030   31.0900   43.3910 C   0  0  0  0  0  0  0  0  0  0  0  0
   56.3411   31.8905   42.8875 H   0  0  0  0  0  0  0  0  0  0  0  0
   57.5318   30.5262   42.6863 H   0  0  0  0  0  0  0  0  0  0  0  0
   58.4330   32.8750   47.4090 C   0  0  0  0  0  0  0  0  0  0  0  0
   57.9721   31.9330   47.7410 H   0  0  0  0  0  0  0  0  0  0  0  0
   58.5720   31.6480   51.1510 C   0  0  0  0  0  0  0  0  0  0  0  0
   58.2892   32.5481   51.7165 H   0  0  0  0  0  0  0  0  0  0  0  0
  1  2  1  0
  2  3  1  0
  3  4  1  0
  4  5  2  0
  5  6  1  0
  5  7  1  0
  7  8  1  0
  7  9  2  0
  9 10  1  0
  9 11  1  0
 11 12  1  0
 11 13  2  0
 13 14  1  0
 14 15  2  0
 15 16  1  0
 16 17  2  0
 17 18  1  0
 17 19  1  0
 19 20  1  0
 19 21  2  0
 21 22  1  0
 21 23  1  0
 23 24  1  0
 24 25  1  0
 24 26  1  0
 24 27  1  0
 27 28  1  0
 28 29  1  0
 28 30  1  0
 28 31  1  0
 31 32  1  0
 31 33  1  0
 31 34  1  0
 34 35  1  0
 34 36  1  0
 36 37  1  0
 37 38  2  0
 37 39  1  0
 39 40  1  0
 40 41  2  0
 41 42  1  0
 41 43  1  0
 43 44  1  0
 43 45  2  0
 45 46  1  0
 45 47  1  0
 47 48  1  0
 47 49  2  0
 49 50  1  0
 34 51  1  0
 51 52  1  0
 51 53  1  0
 51 54  1  0
 54 55  1  0
 54 56  1  0
 23 57  2  0
 57 58  1  0
 14 59  1  0
 59 60  1  0
 59  2  2  0
 13  4  1  0
 57 16  1  0
 54 27  1  0
 49 40  1  0
M  CHG  4   3  -1  22  -1  36  -1  39  -1
M  END
>  <UniqueID>  (62) 
57

>  <SMILES>  (62) 
O=C([N-]c1ccc(F)cc1)[N-]C1CCN(Cc2cc(/N=c3\cc[n-]c4cc(Cl)ccc34)ccc2[O-])CC1

>  <Energy>  (62) 
91.86088384386736

>  <Genealogy>  (62) 
O=C([N-]c1ccc(F)cc1)[N-]C1CCN(Cc2cc(N=c3cc[n-]c4cc(Cl)ccc34)ccc2[O-])CC1 (protonated)
O=C([N-]c1ccc(F)cc1)[N-]C1CCN(Cc2cc(/N=c3\cc[n-]c4cc(Cl)ccc34)ccc2[O-])CC1 (cis-trans isomerization)
O=C([N-]c1ccc(F)cc1)[N-]C1CCN(Cc2cc(/N=c3\cc[n-]c4cc(Cl)ccc34)ccc2[O-])CC1 (3D coordinates assigned)
O=C([N-]c1ccc(F)cc1)[N-]C1CCN(Cc2cc(/N=c3\cc[n-]c4cc(Cl)ccc34)ccc2[O-])CC1 (nonaromatic ring conformer: 91.86088384386736 kcal/mol)

>  <smiles>  (62) 
O=C(Nc1ccc(F)cc1)NC1CCN(Cc2cc(N=c3cc[nH]c4cc(Cl)ccc34)ccc2O)CC1

>  <score_type>  (62) 
oracle

>  <origin>  (62) 
adg

>  <m_score__min__energy>  (62) 
-15.41

>  <m_primary>  (62) 
energy

$$$$
63:0
     RDKit          3D

 63 67  0  0  0  0  0  0  0  0999 V2000
   57.7240   26.0050   44.5330 C   0  0  0  0  0  0  0  0  0  0  0  0
   56.9300   26.8780   45.8630 S   0  0  0  0  0  0  0  0  0  0  0  0
   56.0900   25.9200   46.6600 O   0  0  0  0  0  0  0  0  0  0  0  0
   56.0380   27.9490   45.3010 O   0  0  0  0  0  0  0  0  0  0  0  0
   58.1540   27.6040   46.9000 C   0  0  0  0  0  0  0  0  0  0  0  0
   58.2130   28.9960   47.0480 C   0  0  0  0  0  0  0  0  0  0  0  0
   59.1880   29.5770   47.8640 C   0  0  0  0  0  0  0  0  0  0  0  0
   60.1230   28.7750   48.5420 C   0  0  0  0  0  0  0  0  0  0  0  0
   61.1500   29.3890   49.4210 C   0  0  0  0  0  0  0  0  0  0  0  0
   61.4440   28.8470   50.7010 C   0  0  0  0  0  0  0  0  0  0  0  0
   62.3970   29.4110   51.5000 N   0  0  0  0  0  0  0  0  0  0  0  0
   63.0580   30.5020   51.0480 C   0  0  0  0  0  0  0  0  0  0  0  0
   64.0310   31.1640   51.6900 N   0  0  0  0  0  0  0  0  0  0  0  0
   64.4220   32.1510   50.8920 N   0  0  0  0  0  0  0  0  0  0  0  0
   63.6580   32.0720   49.7730 C   0  0  0  0  0  0  0  0  0  0  0  0
   63.8320   32.9680   48.5830 C   0  0  0  0  0  0  0  0  0  0  0  0
   62.4950   33.4680   48.1110 C   0  0  0  0  0  0  0  0  0  0  0  0
   62.0930   33.2650   46.7810 C   0  0  0  0  0  0  0  0  0  0  0  0
   60.8430   33.7120   46.3460 C   0  0  0  0  0  0  0  0  0  0  0  0
   59.9670   34.3580   47.2290 C   0  0  0  0  0  0  0  0  0  0  0  0
   58.7330   34.8030   46.7230 O   0  0  0  0  0  0  0  0  0  0  0  0
   58.0800   34.3150   45.5500 C   0  0  0  0  0  0  0  0  0  0  0  0
   57.6210   32.8600   45.7090 C   0  0  0  0  0  0  0  0  0  0  0  0
   58.0470   32.0330   44.5550 N   0  0  0  0  0  0  0  0  0  0  0  0
   57.4870   30.6560   44.5960 C   0  0  0  0  0  0  0  0  0  0  0  0
   56.3580   30.4620   43.5690 C   0  0  0  0  0  0  0  0  0  0  0  0
   56.7700   30.7030   42.2300 O   0  0  0  0  0  0  0  0  0  0  0  0
   57.7680   31.7100   42.1080 C   0  0  0  0  0  0  0  0  0  0  0  0
   57.7830   32.7160   43.2710 C   0  0  0  0  0  0  0  0  0  0  0  0
   60.3610   34.5380   48.5710 C   0  0  0  0  0  0  0  0  0  0  0  0
   61.6150   34.0990   49.0060 C   0  0  0  0  0  0  0  0  0  0  0  0
   62.8010   31.0340   49.8530 N   0  0  0  0  0  0  0  0  0  0  0  0
   61.8710   30.5290   49.0060 C   0  0  0  0  0  0  0  0  0  0  0  0
   60.0630   27.3780   48.3800 C   0  0  0  0  0  0  0  0  0  0  0  0
   59.0870   26.8000   47.5630 C   0  0  0  0  0  0  0  0  0  0  0  0
   58.4097   25.2511   44.9470 H   0  0  0  0  0  0  0  0  0  0  0  0
   56.9623   25.5076   43.9146 H   0  0  0  0  0  0  0  0  0  0  0  0
   58.2912   26.7162   43.9146 H   0  0  0  0  0  0  0  0  0  0  0  0
   57.4892   29.6342   46.5200 H   0  0  0  0  0  0  0  0  0  0  0  0
   59.2241   30.6706   47.9766 H   0  0  0  0  0  0  0  0  0  0  0  0
   60.8962   27.9606   51.0533 H   0  0  0  0  0  0  0  0  0  0  0  0
   64.4310   30.9550   52.6320 H   0  0  0  0  0  0  0  0  0  0  0  0
   64.4627   33.8249   48.8622 H   0  0  0  0  0  0  0  0  0  0  0  0
   64.3099   32.3993   47.7717 H   0  0  0  0  0  0  0  0  0  0  0  0
   62.7656   32.7515   46.0782 H   0  0  0  0  0  0  0  0  0  0  0  0
   60.5431   33.5553   45.2993 H   0  0  0  0  0  0  0  0  0  0  0  0
   57.2011   34.9440   45.3455 H   0  0  0  0  0  0  0  0  0  0  0  0
   58.8004   34.3544   44.7197 H   0  0  0  0  0  0  0  0  0  0  0  0
   58.0584   32.4445   46.6288 H   0  0  0  0  0  0  0  0  0  0  0  0
   56.5223   32.8456   45.7604 H   0  0  0  0  0  0  0  0  0  0  0  0
   58.2920   29.9386   44.3785 H   0  0  0  0  0  0  0  0  0  0  0  0
   57.0663   30.4901   45.5987 H   0  0  0  0  0  0  0  0  0  0  0  0
   55.9939   29.4266   43.6415 H   0  0  0  0  0  0  0  0  0  0  0  0
   55.5722   31.1945   43.8055 H   0  0  0  0  0  0  0  0  0  0  0  0
   58.7514   31.2193   42.0617 H   0  0  0  0  0  0  0  0  0  0  0  0
   57.5372   32.2797   41.1958 H   0  0  0  0  0  0  0  0  0  0  0  0
   58.5707   33.4626   43.0914 H   0  0  0  0  0  0  0  0  0  0  0  0
   56.7983   33.2029   43.3276 H   0  0  0  0  0  0  0  0  0  0  0  0
   59.6771   35.0271   49.2803 H   0  0  0  0  0  0  0  0  0  0  0  0
   61.9140   34.2484   50.0540 H   0  0  0  0  0  0  0  0  0  0  0  0
   61.6842   30.9930   48.0263 H   0  0  0  0  0  0  0  0  0  0  0  0
   60.7895   26.7364   48.9001 H   0  0  0  0  0  0  0  0  0  0  0  0
   59.0526   25.7073   47.4409 H   0  0  0  0  0  0  0  0  0  0  0  0
  1  2  1  0
  2  3  2  0
  2  4  2  0
  2  5  1  0
  5  6  2  0
  6  7  1  0
  7  8  2  0
  8  9  1  0
  9 10  1  0
 10 11  2  0
 11 12  1  0
 12 13  2  0
 13 14  1  0
 14 15  2  0
 15 16  1  0
 16 17  1  0
 17 18  2  0
 18 19  1  0
 19 20  2  0
 20 21  1  0
 21 22  1  0
 22 23  1  0
 23 24  1  0
 24 25  1  0
 25 26  1  0
 26 27  1  0
 27 28  1  0
 28 29  1  0
 20 30  1  0
 30 31  2  0
 15 32  1  0
 32 33  1  0
  8 34  1  0
 34 35  2  0
 35  5  1  0
 33  9  2  0
 32 12  1  0
 31 17  1  0
 29 24  1  0
  1 36  1  0
  1 37  1  0
  1 38  1  0
  6 39  1  0
  7 40  1  0
 10 41  1  0
 13 42  1  0
 16 43  1  0
 16 44  1  0
 18 45  1  0
 19 46  1  0
 22 47  1  0
 22 48  1  0
 23 49  1  0
 23 50  1  0
 25 51  1  0
 25 52  1  0
 26 53  1  0
 26 54  1  0
 28 55  1  0
 28 56  1  0
 29 57  1  0
 29 58  1  0
 30 59  1  0
 31 60  1  0
 33 61  1  0
 34 62  1  0
 35 63  1  0
M  CHG  1  13   1
M  END
>  <UniqueID>  (63) 
58

>  <SMILES>  (63) 
CS(=O)(=O)c1ccc(-c2cnc3[nH+]nc(Cc4ccc(OCCN5CCOCC5)cc4)n3c2)cc1

>  <Energy>  (63) 
127.00640224770721

>  <Genealogy>  (63) 
CS(=O)(=O)c1ccc(-c2cnc3[nH+]nc(Cc4ccc(OCCN5CCOCC5)cc4)n3c2)cc1 (protonated)
CS(=O)(=O)c1ccc(-c2cnc3[nH+]nc(Cc4ccc(OCCN5CCOCC5)cc4)n3c2)cc1 (3D coordinates assigned)
CS(=O)(=O)c1ccc(-c2cnc3[nH+]nc(Cc4ccc(OCCN5CCOCC5)cc4)n3c2)cc1 (nonaromatic ring conformer: 127.00640224770721 kcal/mol)

>  <smiles>  (63) 
CS(=O)(=O)c1ccc(-c2cnc3nnc(Cc4ccc(OCCN5CCOCC5)cc4)n3c2)cc1

>  <score_type>  (63) 
oracle

>  <origin>  (63) 
adg

>  <m_score__min__energy>  (63) 
-8.5999999999999996

>  <m_primary>  (63) 
energy

$$$$
64:0
     RDKit          3D

 48 51  0  0  0  0  0  0  0  0999 V2000
   58.3140   24.1720   47.0390 H   0  0  0  0  0  0  0  0  0  0  0  0
   57.2700   24.1460   47.0290 N   0  0  0  0  0  0  0  0  0  0  0  0
   56.5500   25.1330   46.6000 C   0  0  0  0  0  0  0  0  0  0  0  0
   55.2310   25.0450   46.3700 N   0  0  0  0  0  0  0  0  0  0  0  0
   54.8790   26.2380   45.9800 O   0  0  0  0  0  0  0  0  0  0  0  0
   55.8650   27.0940   45.9360 N   0  0  0  0  0  0  0  0  0  0  0  0
   56.9590   26.4230   46.3380 C   0  0  0  0  0  0  0  0  0  0  0  0
   58.3260   26.9810   46.3720 C   0  0  0  0  0  0  0  0  0  0  0  0
   59.4260   26.2110   46.2490 N   0  0  0  0  0  0  0  0  0  0  0  0
   60.4680   27.0220   46.1700 N   0  0  0  0  0  0  0  0  0  0  0  0
   59.9920   28.2780   46.2540 C   0  0  0  0  0  0  0  0  0  0  0  0
   61.0360   29.7270   46.0470 S   0  0  0  0  0  0  0  0  0  0  0  0
   61.0620   30.1380   47.8240 C   0  0  0  0  0  0  0  0  0  0  0  0
   60.0307   30.2511   48.1895 H   0  0  0  0  0  0  0  0  0  0  0  0
   61.5611   29.3309   48.3803 H   0  0  0  0  0  0  0  0  0  0  0  0
   61.8090   31.4230   48.0280 C   0  0  0  0  0  0  0  0  0  0  0  0
   61.4460   32.2950   49.0650 C   0  0  0  0  0  0  0  0  0  0  0  0
   60.6278   32.0232   49.7481 H   0  0  0  0  0  0  0  0  0  0  0  0
   62.1210   33.5100   49.2340 C   0  0  0  0  0  0  0  0  0  0  0  0
   61.8354   34.1881   50.0517 H   0  0  0  0  0  0  0  0  0  0  0  0
   63.1570   33.8620   48.3650 C   0  0  0  0  0  0  0  0  0  0  0  0
   63.6870   34.8165   48.4991 H   0  0  0  0  0  0  0  0  0  0  0  0
   63.5200   33.0010   47.3250 C   0  0  0  0  0  0  0  0  0  0  0  0
   64.3366   33.2780   46.6421 H   0  0  0  0  0  0  0  0  0  0  0  0
   62.8460   31.7880   47.1520 C   0  0  0  0  0  0  0  0  0  0  0  0
   63.1284   31.1170   46.3274 H   0  0  0  0  0  0  0  0  0  0  0  0
   58.6480   28.2990   46.3990 N   0  0  0  0  0  0  0  0  0  0  0  0
   57.7690   29.4780   46.3720 C   0  0  0  0  0  0  0  0  0  0  0  0
   56.7302   29.1425   46.2367 H   0  0  0  0  0  0  0  0  0  0  0  0
   57.8952   30.0154   47.3235 H   0  0  0  0  0  0  0  0  0  0  0  0
   58.1230   30.4270   45.2530 C   0  0  0  0  0  0  0  0  0  0  0  0
   58.3180   29.9550   44.1010 O   0  0  0  0  0  0  0  0  0  0  0  0
   58.2410   31.8490   45.4620 N   0  0  0  0  0  0  0  0  0  0  0  0
   57.8560   32.7560   44.3690 C   0  0  0  0  0  0  0  0  0  0  0  0
   58.6256   32.7178   43.5840 H   0  0  0  0  0  0  0  0  0  0  0  0
   56.8816   32.4309   43.9753 H   0  0  0  0  0  0  0  0  0  0  0  0
   57.7200   34.1980   44.8640 C   0  0  0  0  0  0  0  0  0  0  0  0
   57.5283   34.8567   44.0041 H   0  0  0  0  0  0  0  0  0  0  0  0
   56.8861   34.2450   45.5798 H   0  0  0  0  0  0  0  0  0  0  0  0
   58.9990   34.6600   45.5740 C   0  0  0  0  0  0  0  0  0  0  0  0
   59.7637   34.8680   44.8112 H   0  0  0  0  0  0  0  0  0  0  0  0
   58.7364   35.5532   46.1599 H   0  0  0  0  0  0  0  0  0  0  0  0
   59.5700   33.6200   46.5670 C   0  0  0  0  0  0  0  0  0  0  0  0
   60.5467   33.2813   46.1910 H   0  0  0  0  0  0  0  0  0  0  0  0
   59.6449   34.1183   47.5448 H   0  0  0  0  0  0  0  0  0  0  0  0
   58.6730   32.3900   46.7600 C   0  0  0  0  0  0  0  0  0  0  0  0
   59.2343   31.6163   47.3043 H   0  0  0  0  0  0  0  0  0  0  0  0
   57.7819   32.6899   47.3309 H   0  0  0  0  0  0  0  0  0  0  0  0
  1  2  1  0
  2  3  2  0
  3  4  1  0
  4  5  1  0
  5  6  1  0
  6  7  2  0
  7  8  1  0
  8  9  2  0
  9 10  1  0
 10 11  2  0
 11 12  1  0
 12 13  1  0
 13 14  1  0
 13 15  1  0
 13 16  1  0
 16 17  2  0
 17 18  1  0
 17 19  1  0
 19 20  1  0
 19 21  2  0
 21 22  1  0
 21 23  1  0
 23 24  1  0
 23 25  2  0
 25 26  1  0
 11 27  1  0
 27 28  1  0
 28 29  1  0
 28 30  1  0
 28 31  1  0
 31 32  2  0
 31 33  1  0
 33 34  1  0
 34 35  1  0
 34 36  1  0
 34 37  1  0
 37 38  1  0
 37 39  1  0
 37 40  1  0
 40 41  1  0
 40 42  1  0
 40 43  1  0
 43 44  1  0
 43 45  1  0
 43 46  1  0
 46 47  1  0
 46 48  1  0
  7  3  1  0
 27  8  1  0
 46 33  1  0
 25 16  1  0
M  CHG  1   4  -1
M  END
>  <UniqueID>  (64) 
59

>  <SMILES>  (64) 
[H]/N=c1/[n-]onc1-c1nnc(SCc2ccccc2)n1CC(=O)N1CCCCC1

>  <Energy>  (64) 
121.74800474856755

>  <Genealogy>  (64) 
N=c1[n-]onc1-c1nnc(SCc2ccccc2)n1CC(=O)N1CCCCC1 (protonated)
[H]/N=c1/[n-]onc1-c1nnc(SCc2ccccc2)n1CC(=O)N1CCCCC1 (cis-trans isomerization)
[H]/N=c1/[n-]onc1-c1nnc(SCc2ccccc2)n1CC(=O)N1CCCCC1 (3D coordinates assigned)
[H]/N=c1/[n-]onc1-c1nnc(SCc2ccccc2)n1CC(=O)N1CCCCC1 (nonaromatic ring conformer: 121.74800474856755 kcal/mol)

>  <smiles>  (64) 
N=c1[nH]onc1-c1nnc(SCc2ccccc2)n1CC(=O)N1CCCCC1

>  <score_type>  (64) 
oracle

>  <origin>  (64) 
adg

>  <m_score__min__energy>  (64) 
-11.34

>  <m_primary>  (64) 
energy

$$$$
65:0
     RDKit          3D

 48 52  0  0  1  0  0  0  0  0999 V2000
   60.3400   27.1440   48.6310 C   0  0  0  0  0  0  0  0  0  0  0  0
   59.2750   27.2880   47.5930 C   0  0  0  0  0  0  0  0  0  0  0  0
   58.7630   26.2050   46.9530 N   0  0  0  0  0  0  0  0  0  0  0  0
   57.8080   26.3200   46.0200 C   0  0  0  0  0  0  0  0  0  0  0  0
   57.3140   25.1080   45.3830 C   0  0  0  0  0  0  0  0  0  0  0  0
   55.9470   24.9720   45.2480 C   0  0  0  0  0  0  0  0  0  0  0  0
   55.3670   23.8530   44.6540 C   0  0  0  0  0  0  0  0  0  0  0  0
   56.2300   22.8770   44.2020 C   0  0  0  0  0  0  0  0  0  0  0  0
   55.9300   21.7100   43.5970 N   0  0  0  0  0  0  0  0  0  0  0  0
   57.0840   21.0580   43.3230 C   0  0  0  0  0  0  0  0  0  0  0  0
   58.1090   21.8750   43.7850 C   0  0  0  0  0  0  0  0  0  0  0  0
   57.5750   23.0010   44.3290 N   0  0  0  0  0  0  0  0  0  0  0  0
   58.1230   24.1030   44.9140 C   0  0  0  0  0  0  0  0  0  0  0  0
   57.3480   27.5850   45.7170 C   0  0  0  0  0  0  0  0  0  0  0  0
   57.8720   28.6810   46.3690 C   0  0  0  0  0  0  0  0  0  0  0  0
   57.4500   29.8500   46.0930 N   0  0  0  0  0  0  0  0  0  0  0  0
   57.2760   30.3310   44.7630 C   0  0  0  0  0  0  0  0  0  0  0  0
   56.5560   29.6790   43.8330 N   0  0  0  0  0  0  0  0  0  0  0  0
   56.4130   30.1740   42.5700 C   0  0  0  0  0  0  0  0  0  0  0  0
   57.0260   31.3840   42.2340 C   0  0  0  0  0  0  0  0  0  0  0  0
   57.7760   32.0750   43.1830 C   0  0  0  0  0  0  0  0  0  0  0  0
   57.9030   31.5420   44.4630 C   0  0  0  0  0  0  0  0  0  0  0  0
   58.6680   32.2440   45.4390 N   0  0  0  0  0  0  0  0  0  0  0  0
   58.0740   33.4000   46.0090 C   0  0  0  0  0  0  0  0  0  0  0  0
   56.9170   33.7480   45.6320 O   0  0  0  0  0  0  0  0  0  0  0  0
   58.7250   34.2450   47.0340 C   0  0  0  0  0  0  0  0  0  0  0  0
   60.0670   33.8300   47.5770 C   0  0  0  0  0  0  0  0  0  0  0  0
   59.9690   34.9560   46.6140 C   0  0  0  0  0  0  0  0  0  0  0  0
   58.8440   28.5370   47.3160 N   0  0  0  0  0  0  0  0  0  0  0  0
   59.8874   27.2052   49.6317 H   0  0  0  0  0  0  0  0  0  0  0  0
   60.8380   26.1703   48.5128 H   0  0  0  0  0  0  0  0  0  0  0  0
   61.0787   27.9504   48.5128 H   0  0  0  0  0  0  0  0  0  0  0  0
   55.2936   25.7740   45.6219 H   0  0  0  0  0  0  0  0  0  0  0  0
   54.2764   23.7532   44.5509 H   0  0  0  0  0  0  0  0  0  0  0  0
   57.1894   20.0787   42.8333 H   0  0  0  0  0  0  0  0  0  0  0  0
   59.1831   21.6467   43.7207 H   0  0  0  0  0  0  0  0  0  0  0  0
   59.2155   24.1874   45.0106 H   0  0  0  0  0  0  0  0  0  0  0  0
   56.5645   27.7189   44.9566 H   0  0  0  0  0  0  0  0  0  0  0  0
   55.8205   29.6257   41.8228 H   0  0  0  0  0  0  0  0  0  0  0  0
   56.9161   31.7916   41.2182 H   0  0  0  0  0  0  0  0  0  0  0  0
   58.2609   33.0280   42.9248 H   0  0  0  0  0  0  0  0  0  0  0  0
   59.6190   31.9560   45.7490 H   0  0  0  0  0  0  0  0  0  0  0  0
   57.7645   34.5222   47.4929 H   0  0  0  0  0  0  0  0  0  0  0  0
   60.3194   34.0264   48.6295 H   0  0  0  0  0  0  0  0  0  0  0  0
   60.6327   32.8875   47.6177 H   0  0  0  0  0  0  0  0  0  0  0  0
   60.1531   35.9857   46.9544 H   0  0  0  0  0  0  0  0  0  0  0  0
   60.4374   35.1890   45.6463 H   0  0  0  0  0  0  0  0  0  0  0  0
   59.2470   29.3390   47.8130 H   0  0  0  0  0  0  0  0  0  0  0  0
  1  2  1  0
  2  3  2  0
  3  4  1  0
  4  5  1  0
  5  6  1  0
  6  7  2  0
  7  8  1  0
  8  9  2  0
  9 10  1  0
 10 11  2  0
 11 12  1  0
 12 13  1  0
  4 14  2  0
 14 15  1  0
 15 16  2  0
 16 17  1  0
 17 18  2  0
 18 19  1  0
 19 20  2  0
 20 21  1  0
 21 22  2  0
 22 23  1  0
 23 24  1  0
 24 25  2  0
 24 26  1  0
 26 27  1  0
 27 28  1  0
 15 29  1  0
 29  2  1  0
 13  5  2  0
 22 17  1  0
 28 26  1  0
 12  8  1  0
  1 30  1  0
  1 31  1  0
  1 32  1  0
  6 33  1  0
  7 34  1  0
 10 35  1  0
 11 36  1  0
 13 37  1  0
 14 38  1  0
 19 39  1  0
 20 40  1  0
 21 41  1  0
 23 42  1  0
 26 43  1  0
 27 44  1  0
 27 45  1  0
 28 46  1  0
 28 47  1  0
 29 48  1  0
M  END
>  <smiles>  (65) 
Cc1nc(-c2ccc3nccn3c2)cc(=Nc2ncccc2NC(=O)C2CC2)[nH]1

>  <score_type>  (65) 
oracle

>  <origin>  (65) 
adg

>  <m_score__min__energy>  (65) 
-8.7100000000000009

>  <m_primary>  (65) 
energy

$$$$
66:0
     RDKit          3D

 50 52  0  0  0  0  0  0  0  0999 V2000
   57.2650   24.3240   46.4710 C   0  0  0  0  0  0  0  0  0  0  0  0
   57.2090   25.5520   46.9860 C   0  0  0  0  0  0  0  0  0  0  0  0
   57.7380   26.7490   46.2930 C   0  0  0  0  0  0  0  0  0  0  0  0
   59.1270   26.9440   46.2790 C   0  0  0  0  0  0  0  0  0  0  0  0
   59.6800   28.0610   45.6540 C   0  0  0  0  0  0  0  0  0  0  0  0
   58.8580   28.9840   45.0100 C   0  0  0  0  0  0  0  0  0  0  0  0
   57.4700   28.7880   44.9630 C   0  0  0  0  0  0  0  0  0  0  0  0
   56.6290   29.7610   44.2270 C   0  0  0  0  0  0  0  0  0  0  0  0
   56.1910   29.4540   43.0870 O   0  0  0  0  0  0  0  0  0  0  0  0
   56.3200   31.0570   44.7560 N   0  0  0  0  0  0  0  0  0  0  0  0
   57.2650   32.0850   45.0900 C   0  0  0  0  0  0  0  0  0  0  0  0
   57.7300   32.9980   44.1340 C   0  0  0  0  0  0  0  0  0  0  0  0
   58.6550   33.9790   44.4910 C   0  0  0  0  0  0  0  0  0  0  0  0
   59.1490   34.0600   45.8040 C   0  0  0  0  0  0  0  0  0  0  0  0
   60.1430   35.1440   46.1270 C   0  0  0  0  0  0  0  0  0  0  0  0
   58.6930   33.1280   46.7730 C   0  0  0  0  0  0  0  0  0  0  0  0
   59.2460   33.0900   48.4600 S   0  0  0  0  0  0  0  0  0  0  0  0
   59.3200   34.4600   49.0740 O   0  0  0  0  0  0  0  0  0  0  0  0
   58.2590   32.2780   49.2520 O   0  0  0  0  0  0  0  0  0  0  0  0
   60.8160   32.3250   48.5420 N   0  0  0  0  0  0  0  0  0  0  0  0
   61.1310   31.6760   47.2500 C   0  0  0  0  0  0  0  0  0  0  0  0
   62.6260   31.3740   47.1270 C   0  0  0  0  0  0  0  0  0  0  0  0
   63.4580   32.6690   47.1600 C   0  0  0  0  0  0  0  0  0  0  0  0
   62.7440   33.8140   47.8990 C   0  0  0  0  0  0  0  0  0  0  0  0
   61.8500   33.2760   49.0250 C   0  0  0  0  0  0  0  0  0  0  0  0
   57.7670   32.1440   46.3920 C   0  0  0  0  0  0  0  0  0  0  0  0
   56.9050   27.6710   45.6170 C   0  0  0  0  0  0  0  0  0  0  0  0
   55.5270   27.4760   45.5850 O   0  0  0  0  0  0  0  0  0  0  0  0
   56.8547   23.4724   47.0336 H   0  0  0  0  0  0  0  0  0  0  0  0
   57.7215   24.1621   45.4834 H   0  0  0  0  0  0  0  0  0  0  0  0
   56.7466   25.6829   47.9755 H   0  0  0  0  0  0  0  0  0  0  0  0
   59.7857   26.2094   46.7653 H   0  0  0  0  0  0  0  0  0  0  0  0
   60.7692   28.2143   45.6693 H   0  0  0  0  0  0  0  0  0  0  0  0
   59.3007   29.8721   44.5354 H   0  0  0  0  0  0  0  0  0  0  0  0
   57.3642   32.9408   43.0982 H   0  0  0  0  0  0  0  0  0  0  0  0
   59.0023   34.6986   43.7349 H   0  0  0  0  0  0  0  0  0  0  0  0
   60.2347   35.2440   47.2186 H   0  0  0  0  0  0  0  0  0  0  0  0
   61.1222   34.8829   45.6992 H   0  0  0  0  0  0  0  0  0  0  0  0
   59.7983   36.0970   45.6992 H   0  0  0  0  0  0  0  0  0  0  0  0
   60.5682   30.7337   47.1762 H   0  0  0  0  0  0  0  0  0  0  0  0
   60.8488   32.3637   46.4392 H   0  0  0  0  0  0  0  0  0  0  0  0
   62.9322   30.7289   47.9638 H   0  0  0  0  0  0  0  0  0  0  0  0
   62.8025   30.8699   46.1653 H   0  0  0  0  0  0  0  0  0  0  0  0
   64.4112   32.4622   47.6686 H   0  0  0  0  0  0  0  0  0  0  0  0
   63.6138   32.9908   46.1197 H   0  0  0  0  0  0  0  0  0  0  0  0
   63.4986   34.4878   48.3309 H   0  0  0  0  0  0  0  0  0  0  0  0
   62.1105   34.3520   47.1784 H   0  0  0  0  0  0  0  0  0  0  0  0
   62.4849   32.7597   49.7601 H   0  0  0  0  0  0  0  0  0  0  0  0
   61.3251   34.1357   49.4671 H   0  0  0  0  0  0  0  0  0  0  0  0
   57.4301   31.4048   47.1337 H   0  0  0  0  0  0  0  0  0  0  0  0
  1  2  2  0
  2  3  1  0
  3  4  2  0
  4  5  1  0
  5  6  2  0
  6  7  1  0
  7  8  1  0
  8  9  2  0
  8 10  1  0
 10 11  1  0
 11 12  2  0
 12 13  1  0
 13 14  2  0
 14 15  1  0
 14 16  1  0
 16 17  1  0
 17 18  2  0
 17 19  2  0
 17 20  1  0
 20 21  1  0
 21 22  1  0
 22 23  1  0
 23 24  1  0
 24 25  1  0
 16 26  2  0
  7 27  2  0
 27 28  1  0
 27  3  1  0
 26 11  1  0
 25 20  1  0
  1 29  1  0
  1 30  1  0
  2 31  1  0
  4 32  1  0
  5 33  1  0
  6 34  1  0
 12 35  1  0
 13 36  1  0
 15 37  1  0
 15 38  1  0
 15 39  1  0
 21 40  1  0
 21 41  1  0
 22 42  1  0
 22 43  1  0
 23 44  1  0
 23 45  1  0
 24 46  1  0
 24 47  1  0
 25 48  1  0
 25 49  1  0
 26 50  1  0
M  CHG  2  10  -1  28  -1
M  END
>  <UniqueID>  (66) 
60

>  <SMILES>  (66) 
C=Cc1cccc(C(=O)[N-]c2ccc(C)c(S(=O)(=O)N3CCCCC3)c2)c1[O-]

>  <Energy>  (66) 
71.68325543321772

>  <Genealogy>  (66) 
C=Cc1cccc(C(=O)[N-]c2ccc(C)c(S(=O)(=O)N3CCCCC3)c2)c1[O-] (protonated)
C=Cc1cccc(C(=O)[N-]c2ccc(C)c(S(=O)(=O)N3CCCCC3)c2)c1[O-] (3D coordinates assigned)
C=Cc1cccc(C(=O)[N-]c2ccc(C)c(S(=O)(=O)N3CCCCC3)c2)c1[O-] (nonaromatic ring conformer: 71.68325543321772 kcal/mol)

>  <smiles>  (66) 
C=Cc1cccc(C(=O)Nc2ccc(C)c(S(=O)(=O)N3CCCCC3)c2)c1O

>  <score_type>  (66) 
oracle

>  <origin>  (66) 
adg

>  <m_score__min__energy>  (66) 
-15.34

>  <m_primary>  (66) 
energy

$$$$
67:0
     RDKit          3D

 46 49  0  0  0  0  0  0  0  0999 V2000
   55.5190   28.9630   44.8740 N   0  0  0  0  0  0  0  0  0  0  0  0
   56.2670   29.9250   44.4420 C   0  0  0  0  0  0  0  0  0  0  0  0
   57.0340   30.6390   45.3090 N   0  0  0  0  0  0  0  0  0  0  0  0
   57.8360   31.6520   44.8780 C   0  0  0  0  0  0  0  0  0  0  0  0
   58.6390   32.4120   45.8640 C   0  0  0  0  0  0  0  0  0  0  0  0
   58.1710   33.6530   46.3240 C   0  0  0  0  0  0  0  0  0  0  0  0
   58.9150   34.3890   47.2450 C   0  0  0  0  0  0  0  0  0  0  0  0
   60.1230   33.8750   47.7130 C   0  0  0  0  0  0  0  0  0  0  0  0
   60.5580   32.6640   47.2800 N   0  0  0  0  0  0  0  0  0  0  0  0
   59.8590   31.9210   46.3750 C   0  0  0  0  0  0  0  0  0  0  0  0
   60.3140   30.6480   46.0050 O   0  0  0  0  0  0  0  0  0  0  0  0
   59.7100   29.4330   46.3630 C   0  0  0  0  0  0  0  0  0  0  0  0
   59.2240   28.5270   45.4070 C   0  0  0  0  0  0  0  0  0  0  0  0
   58.6120   27.3360   45.8120 C   0  0  0  0  0  0  0  0  0  0  0  0
   58.4580   27.0390   47.1740 C   0  0  0  0  0  0  0  0  0  0  0  0
   57.8170   25.8120   47.5580 N   0  0  0  0  0  0  0  0  0  0  0  0
   56.4660   25.1280   46.7090 S   0  0  0  0  0  0  0  0  0  0  0  0
   55.7150   26.2310   46.0150 O   0  0  0  0  0  0  0  0  0  0  0  0
   55.5440   24.4660   47.6920 O   0  0  0  0  0  0  0  0  0  0  0  0
   57.0270   23.9160   45.5500 C   0  0  0  0  0  0  0  0  0  0  0  0
   58.3810   23.5400   45.5430 C   0  0  0  0  0  0  0  0  0  0  0  0
   58.8400   22.5700   44.6490 C   0  0  0  0  0  0  0  0  0  0  0  0
   57.9570   21.9710   43.7510 C   0  0  0  0  0  0  0  0  0  0  0  0
   56.6090   22.3400   43.7450 C   0  0  0  0  0  0  0  0  0  0  0  0
   56.1380   23.3100   44.6370 C   0  0  0  0  0  0  0  0  0  0  0  0
   54.4300   23.7370   44.5760 Cl  0  0  0  0  0  0  0  0  0  0  0  0
   58.9420   27.9530   48.1280 C   0  0  0  0  0  0  0  0  0  0  0  0
   59.5520   29.1430   47.7230 C   0  0  0  0  0  0  0  0  0  0  0  0
   57.8490   31.9770   43.5130 C   0  0  0  0  0  0  0  0  0  0  0  0
   57.0580   31.2320   42.6410 C   0  0  0  0  0  0  0  0  0  0  0  0
   56.2850   30.2220   43.1170 N   0  0  0  0  0  0  0  0  0  0  0  0
   55.7970   27.9620   44.7610 H   0  0  0  0  0  0  0  0  0  0  0  0
   57.2122   34.0468   45.9558 H   0  0  0  0  0  0  0  0  0  0  0  0
   58.5524   35.3654   47.5987 H   0  0  0  0  0  0  0  0  0  0  0  0
   60.7237   34.4503   48.4329 H   0  0  0  0  0  0  0  0  0  0  0  0
   59.3248   28.7545   44.3355 H   0  0  0  0  0  0  0  0  0  0  0  0
   58.2481   26.6257   45.0550 H   0  0  0  0  0  0  0  0  0  0  0  0
   58.2540   25.2230   48.3020 H   0  0  0  0  0  0  0  0  0  0  0  0
   59.0834   24.0123   46.2456 H   0  0  0  0  0  0  0  0  0  0  0  0
   59.9005   22.2778   44.6532 H   0  0  0  0  0  0  0  0  0  0  0  0
   58.3215   21.2081   43.0474 H   0  0  0  0  0  0  0  0  0  0  0  0
   55.9149   21.8656   43.0357 H   0  0  0  0  0  0  0  0  0  0  0  0
   58.8394   27.7291   49.2001 H   0  0  0  0  0  0  0  0  0  0  0  0
   59.9107   29.8573   48.4787 H   0  0  0  0  0  0  0  0  0  0  0  0
   58.4712   32.8034   43.1389 H   0  0  0  0  0  0  0  0  0  0  0  0
   57.0596   31.4622   41.5654 H   0  0  0  0  0  0  0  0  0  0  0  0
  1  2  2  3
  2  3  1  0
  3  4  2  0
  4  5  1  0
  5  6  2  0
  6  7  1  0
  7  8  2  0
  8  9  1  0
  9 10  2  0
 10 11  1  0
 11 12  1  0
 12 13  2  0
 13 14  1  0
 14 15  2  0
 15 16  1  0
 16 17  1  0
 17 18  2  0
 17 19  2  0
 17 20  1  0
 20 21  2  0
 21 22  1  0
 22 23  2  0
 23 24  1  0
 24 25  2  0
 25 26  1  0
 15 27  1  0
 27 28  2  0
  4 29  1  0
 29 30  2  0
 30 31  1  0
 31  2  1  0
 10  5  1  0
 28 12  1  0
 25 20  1  0
  1 32  1  0
  6 33  1  0
  7 34  1  0
  8 35  1  0
 13 36  1  0
 14 37  1  0
 16 38  1  0
 21 39  1  0
 22 40  1  0
 23 41  1  0
 24 42  1  0
 27 43  1  0
 28 44  1  0
 29 45  1  0
 30 46  1  0
M  CHG  1  31  -1
M  END
>  <UniqueID>  (67) 
61

>  <SMILES>  (67) 
N=c1nc(-c2cccnc2Oc2ccc(NS(=O)(=O)c3ccccc3Cl)cc2)cc[n-]1

>  <Energy>  (67) 
66.4307106811663

>  <Genealogy>  (67) 
N=c1nc(-c2cccnc2Oc2ccc(NS(=O)(=O)c3ccccc3Cl)cc2)cc[n-]1 (protonated)
N=c1nc(-c2cccnc2Oc2ccc(NS(=O)(=O)c3ccccc3Cl)cc2)cc[n-]1 (3D coordinates assigned)
N=c1nc(-c2cccnc2Oc2ccc(NS(=O)(=O)c3ccccc3Cl)cc2)cc[n-]1 (optimized conformer: 66.4307106811663 kcal/mol)

>  <smiles>  (67) 
N=c1nc(-c2cccnc2Oc2ccc(NS(=O)(=O)c3ccccc3Cl)cc2)cc[nH]1

>  <score_type>  (67) 
oracle

>  <origin>  (67) 
adg

>  <m_score__min__energy>  (67) 
-12.07

>  <m_primary>  (67) 
energy

$$$$
68:0
     RDKit          3D

 36 37  0  0  0  0  0  0  0  0999 V2000
   57.8470   32.0840   44.0810 C   0  0  0  0  0  0  0  0  0  0  0  0
   57.6920   32.9170   45.1210 C   0  0  0  0  0  0  0  0  0  0  0  0
   57.1290   34.2980   44.9150 C   0  0  0  0  0  0  0  0  0  0  0  0
   57.9950   32.4490   46.5240 C   0  0  0  0  0  0  0  0  0  0  0  0
   59.4370   32.2560   46.6990 N   0  0  0  0  0  0  0  0  0  0  0  0
   60.3800   33.2030   46.5410 C   0  0  0  0  0  0  0  0  0  0  0  0
   61.6070   32.6310   46.8090 C   0  0  0  0  0  0  0  0  0  0  0  0
   62.9240   33.2900   46.7540 C   0  0  0  0  0  0  0  0  0  0  0  0
   64.1220   32.5980   47.1120 N   0  0  0  0  0  0  0  0  0  0  0  0
   62.9950   34.4920   46.3830 O   0  0  0  0  0  0  0  0  0  0  0  0
   61.4420   31.3360   47.1450 N   0  0  0  0  0  0  0  0  0  0  0  0
   60.1070   31.1410   47.0760 C   0  0  0  0  0  0  0  0  0  0  0  0
   59.4770   29.8100   47.3760 C   0  0  0  0  0  0  0  0  0  0  0  0
   58.7520   29.2640   46.1730 C   0  0  0  0  0  0  0  0  0  0  0  0
   59.4690   28.6700   45.1200 C   0  0  0  0  0  0  0  0  0  0  0  0
   58.7940   28.1710   44.0010 C   0  0  0  0  0  0  0  0  0  0  0  0
   57.4020   28.2670   43.9220 C   0  0  0  0  0  0  0  0  0  0  0  0
   56.6820   28.8700   44.9570 C   0  0  0  0  0  0  0  0  0  0  0  0
   55.2990   28.9700   44.8740 O   0  0  0  0  0  0  0  0  0  0  0  0
   57.3540   29.3720   46.0760 C   0  0  0  0  0  0  0  0  0  0  0  0
   58.2591   31.0766   44.2399 H   0  0  0  0  0  0  0  0  0  0  0  0
   57.5620   32.4084   43.0693 H   0  0  0  0  0  0  0  0  0  0  0  0
   56.9383   34.7657   45.8922 H   0  0  0  0  0  0  0  0  0  0  0  0
   57.8504   34.9077   44.3512 H   0  0  0  0  0  0  0  0  0  0  0  0
   56.1870   34.2296   44.3512 H   0  0  0  0  0  0  0  0  0  0  0  0
   57.6407   33.2034   47.2419 H   0  0  0  0  0  0  0  0  0  0  0  0
   57.4835   31.4909   46.6983 H   0  0  0  0  0  0  0  0  0  0  0  0
   60.2038   34.2489   46.2495 H   0  0  0  0  0  0  0  0  0  0  0  0
   65.0420   33.0890   47.0630 H   0  0  0  0  0  0  0  0  0  0  0  0
   64.1090   31.6030   47.4280 H   0  0  0  0  0  0  0  0  0  0  0  0
   60.2631   29.1003   47.6733 H   0  0  0  0  0  0  0  0  0  0  0  0
   58.7481   29.9460   48.1885 H   0  0  0  0  0  0  0  0  0  0  0  0
   60.5652   28.5973   45.1761 H   0  0  0  0  0  0  0  0  0  0  0  0
   59.3596   27.7024   43.1821 H   0  0  0  0  0  0  0  0  0  0  0  0
   56.8726   27.8676   43.0444 H   0  0  0  0  0  0  0  0  0  0  0  0
   56.7853   29.8541   46.8848 H   0  0  0  0  0  0  0  0  0  0  0  0
  1  2  2  0
  2  3  1  0
  2  4  1  0
  4  5  1  0
  5  6  1  0
  6  7  2  0
  7  8  1  0
  8  9  1  0
  8 10  2  0
  7 11  1  0
 11 12  2  0
 12 13  1  0
 13 14  1  0
 14 15  2  0
 15 16  1  0
 16 17  2  0
 17 18  1  0
 18 19  1  0
 18 20  2  0
 12  5  1  0
 20 14  1  0
  1 21  1  0
  1 22  1  0
  3 23  1  0
  3 24  1  0
  3 25  1  0
  4 26  1  0
  4 27  1  0
  6 28  1  0
  9 29  1  0
  9 30  1  0
 13 31  1  0
 13 32  1  0
 15 33  1  0
 16 34  1  0
 17 35  1  0
 20 36  1  0
M  CHG  1  19  -1
M  END
>  <UniqueID>  (68) 
62

>  <SMILES>  (68) 
C=C(C)Cn1cc(C(N)=O)nc1Cc1cccc([O-])c1

>  <Energy>  (68) 
57.74209531401506

>  <Genealogy>  (68) 
C=C(C)Cn1cc(C(N)=O)nc1Cc1cccc([O-])c1 (protonated)
C=C(C)Cn1cc(C(N)=O)nc1Cc1cccc([O-])c1 (3D coordinates assigned)
C=C(C)Cn1cc(C(N)=O)nc1Cc1cccc([O-])c1 (optimized conformer: 57.74209531401506 kcal/mol)

>  <smiles>  (68) 
C=C(C)Cn1cc(C(N)=O)nc1Cc1cccc(O)c1

>  <score_type>  (68) 
oracle

>  <origin>  (68) 
adg

>  <m_score__min__energy>  (68) 
-10.49

>  <m_primary>  (68) 
energy

$$$$
69:0
     RDKit          3D

 73 78  0  0  0  0  0  0  0  0999 V2000
   59.1920   29.9590   46.8680 H   0  0  0  0  0  0  0  0  0  0  0  0
   58.4320   30.5520   46.5300 O   0  0  0  0  0  0  0  0  0  0  0  0
   57.8550   30.3760   45.2700 C   0  0  0  0  0  0  0  0  0  0  0  0
   57.6710   29.0820   44.7720 C   0  0  0  0  0  0  0  0  0  0  0  0
   58.0085   28.2159   45.3601 H   0  0  0  0  0  0  0  0  0  0  0  0
   57.0620   28.8850   43.5340 C   0  0  0  0  0  0  0  0  0  0  0  0
   56.9051   27.8677   43.1461 H   0  0  0  0  0  0  0  0  0  0  0  0
   56.6540   29.9940   42.7930 C   0  0  0  0  0  0  0  0  0  0  0  0
   56.1672   29.8553   41.8164 H   0  0  0  0  0  0  0  0  0  0  0  0
   56.8590   31.2470   43.2800 N   0  0  0  0  0  0  0  0  0  0  0  0
   57.4370   31.4710   44.4940 C   0  0  0  0  0  0  0  0  0  0  0  0
   57.5550   32.6860   44.9640 N   0  0  0  0  0  0  0  0  0  0  0  0
   58.7900   33.4150   45.0830 C   0  0  0  0  0  0  0  0  0  0  0  0
   59.3730   33.8700   44.0480 O   0  0  0  0  0  0  0  0  0  0  0  0
   59.3760   33.6320   46.4210 C   0  0  0  0  0  0  0  0  0  0  0  0
   60.6790   34.1490   46.5650 C   0  0  0  0  0  0  0  0  0  0  0  0
   61.2433   34.4767   45.6795 H   0  0  0  0  0  0  0  0  0  0  0  0
   61.2510   34.2440   47.8330 C   0  0  0  0  0  0  0  0  0  0  0  0
   62.2556   34.6776   47.9461 H   0  0  0  0  0  0  0  0  0  0  0  0
   60.5580   33.7920   48.9660 C   0  0  0  0  0  0  0  0  0  0  0  0
   61.0328   33.8398   49.9571 H   0  0  0  0  0  0  0  0  0  0  0  0
   59.2590   33.2790   48.8340 C   0  0  0  0  0  0  0  0  0  0  0  0
   58.5480   32.6540   50.0220 C   0  0  0  0  0  0  0  0  0  0  0  0
   57.4739   32.5917   49.7932 H   0  0  0  0  0  0  0  0  0  0  0  0
   58.7485   33.2921   50.8953 H   0  0  0  0  0  0  0  0  0  0  0  0
   59.0390   31.2960   50.3480 N   0  0  0  0  0  0  0  0  0  0  0  0
   58.8090   30.8160   51.7080 C   0  0  0  0  0  0  0  0  0  0  0  0
   58.9350   31.6020   52.6920 O   0  0  0  0  0  0  0  0  0  0  0  0
   58.5220   29.4320   51.9730 N   0  0  0  0  0  0  0  0  0  0  0  0
   57.3510   29.0730   52.7580 C   0  0  0  0  0  0  0  0  0  0  0  0
   56.1280   29.7630   52.5900 C   0  0  0  0  0  0  0  0  0  0  0  0
   56.0504   30.5584   51.8341 H   0  0  0  0  0  0  0  0  0  0  0  0
   55.0150   29.4430   53.3770 C   0  0  0  0  0  0  0  0  0  0  0  0
   54.0765   30.0021   53.2480 H   0  0  0  0  0  0  0  0  0  0  0  0
   55.0870   28.4210   54.3230 C   0  0  0  0  0  0  0  0  0  0  0  0
   54.2108   28.1800   54.9429 H   0  0  0  0  0  0  0  0  0  0  0  0
   56.2780   27.7030   54.4810 C   0  0  0  0  0  0  0  0  0  0  0  0
   56.3364   26.8953   55.2254 H   0  0  0  0  0  0  0  0  0  0  0  0
   57.3980   28.0100   53.6930 C   0  0  0  0  0  0  0  0  0  0  0  0
   58.3200   27.4202   53.8024 H   0  0  0  0  0  0  0  0  0  0  0  0
   59.5960   28.5050   51.7150 C   0  0  0  0  0  0  0  0  0  0  0  0
   60.3760   28.0270   52.7820 C   0  0  0  0  0  0  0  0  0  0  0  0
   60.0498   28.2012   53.8180 H   0  0  0  0  0  0  0  0  0  0  0  0
   61.5580   27.3350   52.5370 C   0  0  0  0  0  0  0  0  0  0  0  0
   62.1439   26.9299   53.3752 H   0  0  0  0  0  0  0  0  0  0  0  0
   61.9990   27.1560   51.2220 C   0  0  0  0  0  0  0  0  0  0  0  0
   62.9531   26.6438   51.0287 H   0  0  0  0  0  0  0  0  0  0  0  0
   61.2310   27.6260   50.1520 C   0  0  0  0  0  0  0  0  0  0  0  0
   61.5839   27.4829   49.1200 H   0  0  0  0  0  0  0  0  0  0  0  0
   60.0090   28.2810   50.3900 C   0  0  0  0  0  0  0  0  0  0  0  0
   59.2150   28.9460   49.2900 C   0  0  2  0  0  0  0  0  0  0  0  0
   58.1397   28.7879   49.4594 H   0  0  0  0  0  0  0  0  0  0  0  0
   59.5350   28.3690   47.9770 N   0  0  0  0  0  0  0  0  0  0  0  0
   58.8450   27.2440   47.4450 C   0  0  0  0  0  0  0  0  0  0  0  0
   59.5170   26.2280   47.1230 O   0  0  0  0  0  0  0  0  0  0  0  0
   57.4270   27.3130   47.1940 N   0  0  0  0  0  0  0  0  0  0  0  0
   56.6620   26.4240   46.6190 C   0  0  0  0  0  0  0  0  0  0  0  0
   55.4160   26.6680   46.2640 O   0  0  0  0  0  0  0  0  0  0  0  0
   54.8910   25.6390   45.6640 N   0  0  0  0  0  0  0  0  0  0  0  0
   55.8470   24.6720   45.6450 C   0  0  0  0  0  0  0  0  0  0  0  0
   55.7090   23.3200   45.0020 C   0  0  0  0  0  0  0  0  0  0  0  0
   54.6523   23.0173   45.0430 H   0  0  0  0  0  0  0  0  0  0  0  0
   56.3546   22.6221   45.5554 H   0  0  0  0  0  0  0  0  0  0  0  0
   56.1650   23.3100   43.5390 C   0  0  0  0  0  0  0  0  0  0  0  0
   57.2640   23.2859   43.4976 H   0  0  0  0  0  0  0  0  0  0  0  0
   55.7595   22.4205   43.0346 H   0  0  0  0  0  0  0  0  0  0  0  0
   55.7989   24.2164   43.0346 H   0  0  0  0  0  0  0  0  0  0  0  0
   56.9990   25.1350   46.2450 C   0  0  0  0  0  0  0  0  0  0  0  0
   57.9535   24.6080   46.3908 H   0  0  0  0  0  0  0  0  0  0  0  0
   59.5500   30.4140   49.3100 C   0  0  0  0  0  0  0  0  0  0  0  0
   60.3790   30.8440   48.4610 O   0  0  0  0  0  0  0  0  0  0  0  0
   58.6620   33.2350   47.5680 C   0  0  0  0  0  0  0  0  0  0  0  0
   57.6235   32.8864   47.4684 H   0  0  0  0  0  0  0  0  0  0  0  0
  1  2  1  0
  2  3  1  0
  3  4  2  0
  4  5  1  0
  4  6  1  0
  6  7  1  0
  6  8  2  0
  8  9  1  0
  8 10  1  0
 10 11  1  0
 11 12  2  0
 12 13  1  0
 13 14  2  0
 13 15  1  0
 15 16  2  0
 16 17  1  0
 16 18  1  0
 18 19  1  0
 18 20  2  0
 20 21  1  0
 20 22  1  0
 22 23  1  0
 23 24  1  0
 23 25  1  0
 23 26  1  0
 26 27  1  0
 27 28  2  0
 27 29  1  0
 29 30  1  0
 30 31  2  0
 31 32  1  0
 31 33  1  0
 33 34  1  0
 33 35  2  0
 35 36  1  0
 35 37  1  0
 37 38  1  0
 37 39  2  0
 39 40  1  0
 29 41  1  0
 41 42  2  0
 42 43  1  0
 42 44  1  0
 44 45  1  0
 44 46  2  0
 46 47  1  0
 46 48  1  0
 48 49  1  0
 48 50  2  0
 50 51  1  0
 51 52  1  1
 51 53  1  0
 53 54  1  0
 54 55  2  0
 54 56  1  0
 56 57  2  0
 57 58  1  0
 58 59  1  0
 59 60  1  0
 60 61  1  0
 61 62  1  0
 61 63  1  0
 61 64  1  0
 64 65  1  0
 64 66  1  0
 64 67  1  0
 60 68  2  0
 68 69  1  0
 51 70  1  0
 70 71  2  0
 22 72  2  0
 72 73  1  0
 11  3  1  0
 72 15  1  0
 70 26  1  0
 39 30  1  0
 50 41  1  0
 68 57  1  0
M  CHG  3  10  -1  53  -1  59  -1
M  END
>  <UniqueID>  (69) 
63

>  <SMILES>  (69) 
CCc1c/c(=N\C(=O)[N-][C@@H]2C(=O)N(Cc3cccc(C(=O)/N=c4\[n-]cccc4O)c3)C(=O)N(c3ccccc3)c3ccccc32)o[n-]1

>  <Energy>  (69) 
154.83590029818365

>  <Genealogy>  (69) 
CCc1cc(=NC(=O)[N-]C2C(=O)N(Cc3cccc(C(=O)N=c4[n-]cccc4O)c3)C(=O)N(c3ccccc3)c3ccccc32)o[n-]1 (protonated)
CCc1cc(=NC(=O)[N-][C@@H]2C(=O)N(Cc3cccc(C(=O)N=c4[n-]cccc4O)c3)C(=O)N(c3ccccc3)c3ccccc32)o[n-]1 (chirality)
CCc1c/c(=N\C(=O)[N-][C@@H]2C(=O)N(Cc3cccc(C(=O)/N=c4\[n-]cccc4O)c3)C(=O)N(c3ccccc3)c3ccccc32)o[n-]1 (cis-trans isomerization)
CCc1c/c(=N\C(=O)[N-][C@@H]2C(=O)N(Cc3cccc(C(=O)/N=c4\[n-]cccc4O)c3)C(=O)N(c3ccccc3)c3ccccc32)o[n-]1 (3D coordinates assigned)
CCc1c/c(=N\C(=O)[N-][C@@H]2C(=O)N(Cc3cccc(C(=O)/N=c4\[n-]cccc4O)c3)C(=O)N(c3ccccc3)c3ccccc32)o[n-]1 (nonaromatic ring conformer: 154.83590029818365 kcal/mol)

>  <smiles>  (69) 
CCc1cc(=NC(=O)NC2C(=O)N(Cc3cccc(C(=O)N=c4[nH]cccc4O)c3)C(=O)N(c3ccccc3)c3ccccc32)o[nH]1

>  <score_type>  (69) 
oracle

>  <origin>  (69) 
adg

>  <m_score__min__energy>  (69) 
-12.960000000000001

>  <m_primary>  (69) 
energy

$$$$
70:0
     RDKit          3D

 55 58  0  0  0  0  0  0  0  0999 V2000
   53.4150   29.5090   54.9500 C   0  0  0  0  0  0  0  0  0  0  0  0
   54.0460   29.8140   53.8050 C   0  0  0  0  0  0  0  0  0  0  0  0
   53.4400   30.2000   52.6050 C   0  0  0  0  0  0  0  0  0  0  0  0
   52.1240   30.3700   52.3710 C   0  0  0  0  0  0  0  0  0  0  0  0
   51.5670   30.8270   51.0840 C   0  0  0  0  0  0  0  0  0  0  0  0
   51.5640   30.0710   49.9720 N   0  0  0  0  0  0  0  0  0  0  0  0
   51.0510   30.8940   49.0340 C   0  0  0  0  0  0  0  0  0  0  0  0
   50.8750   30.5360   47.8400 O   0  0  0  0  0  0  0  0  0  0  0  0
   50.7510   32.1360   49.4720 N   0  0  0  0  0  0  0  0  0  0  0  0
   51.0940   32.0820   50.7690 C   0  0  0  0  0  0  0  0  0  0  0  0
   51.0210   33.1710   51.6280 O   0  0  0  0  0  0  0  0  0  0  0  0
   54.4720   30.4460   51.7110 C   0  0  0  0  0  0  0  0  0  0  0  0
   55.6510   30.2070   52.3870 C   0  0  0  0  0  0  0  0  0  0  0  0
   56.9870   30.4400   51.7960 C   0  0  0  0  0  0  0  0  0  0  0  0
   57.5790   29.4650   51.2530 O   0  0  0  0  0  0  0  0  0  0  0  0
   57.5290   31.7790   51.6690 N   0  0  0  0  0  0  0  0  0  0  0  0
   58.1900   31.9330   50.3430 C   0  0  0  0  0  0  0  0  0  0  0  0
   59.7130   31.7510   50.4020 C   0  0  0  0  0  0  0  0  0  0  0  0
   60.2980   32.6740   51.3850 N   0  0  0  0  0  0  0  0  0  0  0  0
   61.6550   33.1450   51.2540 C   0  0  0  0  0  0  0  0  0  0  0  0
   61.9970   34.2180   51.8240 O   0  0  0  0  0  0  0  0  0  0  0  0
   62.6610   32.4140   50.4020 C   0  0  0  0  0  0  0  0  0  0  0  0
   62.6590   32.9290   48.9870 C   0  0  0  0  0  0  0  0  0  0  0  0
   63.7740   32.7290   48.1550 C   0  0  0  0  0  0  0  0  0  0  0  0
   63.7560   33.1860   46.8320 C   0  0  0  0  0  0  0  0  0  0  0  0
   62.6240   33.8340   46.3300 C   0  0  0  0  0  0  0  0  0  0  0  0
   61.5070   34.0250   47.1470 C   0  0  0  0  0  0  0  0  0  0  0  0
   61.5210   33.5700   48.4700 C   0  0  0  0  0  0  0  0  0  0  0  0
   59.4600   33.1600   52.4870 C   0  0  0  0  0  0  0  0  0  0  0  0
   58.3970   32.1110   52.8320 C   0  0  0  0  0  0  0  0  0  0  0  0
   55.3960   29.7950   53.6520 N   0  0  0  0  0  0  0  0  0  0  0  0
   56.3860   29.3700   54.6470 C   0  0  0  0  0  0  0  0  0  0  0  0
   53.9960   29.2167   55.8371 H   0  0  0  0  0  0  0  0  0  0  0  0
   52.3170   29.5514   55.0011 H   0  0  0  0  0  0  0  0  0  0  0  0
   51.4220   30.1548   53.1900 H   0  0  0  0  0  0  0  0  0  0  0  0
   54.3700   30.7694   50.6646 H   0  0  0  0  0  0  0  0  0  0  0  0
   56.7320   32.4570   51.6800 H   0  0  0  0  0  0  0  0  0  0  0  0
   57.7744   31.1813   49.6558 H   0  0  0  0  0  0  0  0  0  0  0  0
   57.9965   32.9596   49.9984 H   0  0  0  0  0  0  0  0  0  0  0  0
   59.9440   30.7158   50.6936 H   0  0  0  0  0  0  0  0  0  0  0  0
   60.1384   31.9664   49.4107 H   0  0  0  0  0  0  0  0  0  0  0  0
   63.6636   32.5538   50.8325 H   0  0  0  0  0  0  0  0  0  0  0  0
   62.3898   31.3481   50.3832 H   0  0  0  0  0  0  0  0  0  0  0  0
   64.6633   32.2119   48.5446 H   0  0  0  0  0  0  0  0  0  0  0  0
   64.6339   33.0349   46.1867 H   0  0  0  0  0  0  0  0  0  0  0  0
   62.6126   34.1940   45.2906 H   0  0  0  0  0  0  0  0  0  0  0  0
   60.6160   34.5334   46.7499 H   0  0  0  0  0  0  0  0  0  0  0  0
   60.6369   33.7149   49.1082 H   0  0  0  0  0  0  0  0  0  0  0  0
   60.0893   33.3463   53.3697 H   0  0  0  0  0  0  0  0  0  0  0  0
   58.9640   34.0933   52.1821 H   0  0  0  0  0  0  0  0  0  0  0  0
   58.9021   31.1938   53.1691 H   0  0  0  0  0  0  0  0  0  0  0  0
   57.7551   32.5307   53.6206 H   0  0  0  0  0  0  0  0  0  0  0  0
   55.9870   29.5413   55.6576 H   0  0  0  0  0  0  0  0  0  0  0  0
   56.6025   28.2996   54.5148 H   0  0  0  0  0  0  0  0  0  0  0  0
   57.3111   29.9503   54.5148 H   0  0  0  0  0  0  0  0  0  0  0  0
  1  2  2  0
  2  3  1  0
  3  4  2  3
  4  5  1  0
  5  6  1  0
  6  7  1  0
  7  8  2  0
  7  9  1  0
  9 10  1  0
 10 11  1  0
  3 12  1  0
 12 13  2  0
 13 14  1  0
 14 15  2  0
 14 16  1  0
 16 17  1  0
 17 18  1  0
 18 19  1  0
 19 20  1  0
 20 21  2  0
 20 22  1  0
 22 23  1  0
 23 24  2  0
 24 25  1  0
 25 26  2  0
 26 27  1  0
 27 28  2  0
 19 29  1  0
 29 30  1  0
 13 31  1  0
 31 32  1  0
 31  2  1  0
 10  5  2  0
 30 16  1  0
 28 23  1  0
  1 33  1  0
  1 34  1  0
  4 35  1  0
 12 36  1  0
 16 37  1  0
 17 38  1  0
 17 39  1  0
 18 40  1  0
 18 41  1  0
 22 42  1  0
 22 43  1  0
 24 44  1  0
 25 45  1  0
 26 46  1  0
 27 47  1  0
 28 48  1  0
 29 49  1  0
 29 50  1  0
 30 51  1  0
 30 52  1  0
 32 53  1  0
 32 54  1  0
 32 55  1  0
M  CHG  4   6  -1   9  -1  11  -1  16   1
M  END
>  <UniqueID>  (70) 
64

>  <SMILES>  (70) 
C=c1c(=Cc2[n-]c(=O)[n-]c2[O-])cc(C(=O)[NH+]2CCN(C(=O)Cc3ccccc3)CC2)n1C

>  <Energy>  (70) 
138.24602678182623

>  <Genealogy>  (70) 
C=c1c(=Cc2[n-]c(=O)[n-]c2[O-])cc(C(=O)[NH+]2CCN(C(=O)Cc3ccccc3)CC2)n1C (protonated)
C=c1c(=Cc2[n-]c(=O)[n-]c2[O-])cc(C(=O)[NH+]2CCN(C(=O)Cc3ccccc3)CC2)n1C (3D coordinates assigned)
C=c1c(=Cc2[n-]c(=O)[n-]c2[O-])cc(C(=O)[NH+]2CCN(C(=O)Cc3ccccc3)CC2)n1C (nonaromatic ring conformer: 138.24602678182623 kcal/mol)

>  <smiles>  (70) 
C=c1c(=Cc2[nH]c(=O)[nH]c2O)cc(C(=O)N2CCN(C(=O)Cc3ccccc3)CC2)n1C

>  <score_type>  (70) 
oracle

>  <origin>  (70) 
adg

>  <m_score__min__energy>  (70) 
-17.68

>  <m_primary>  (70) 
energy

$$$$
71:0
     RDKit          3D

 58 61  0  0  0  0  0  0  0  0999 V2000
   53.6400   28.9650   53.3970 C   0  0  0  0  0  0  0  0  0  0  0  0
   54.7620   29.5650   52.9440 C   0  0  0  0  0  0  0  0  0  0  0  0
   55.9500   28.9140   53.1410 N   0  0  0  0  0  0  0  0  0  0  0  0
   57.1410   29.3830   52.6760 C   0  0  0  0  0  0  0  0  0  0  0  0
   58.3940   28.5830   52.9300 C   0  0  0  0  0  0  0  0  0  0  0  0
   57.1850   30.6060   51.9860 C   0  0  0  0  0  0  0  0  0  0  0  0
   58.4670   31.2160   51.5560 C   0  0  0  0  0  0  0  0  0  0  0  0
   59.0010   32.0870   52.2950 O   0  0  0  0  0  0  0  0  0  0  0  0
   59.1020   30.8430   50.3140 N   0  0  0  0  0  0  0  0  0  0  0  0
   60.1600   31.6940   49.7500 C   0  0  0  0  0  0  0  0  0  0  0  0
   60.0440   31.7690   48.2210 C   0  0  0  0  0  0  0  0  0  0  0  0
   59.7300   30.4040   47.5410 C   0  0  0  0  0  0  0  0  0  0  0  0
   58.3780   30.4520   46.7910 C   0  0  0  0  0  0  0  0  0  0  0  0
   58.5560   30.0230   45.3810 N   0  0  0  0  0  0  0  0  0  0  0  0
   58.2470   31.1080   44.4430 C   0  0  0  0  0  0  0  0  0  0  0  0
   56.7650   31.0270   44.1310 C   0  0  0  0  0  0  0  0  0  0  0  0
   56.4150   29.5600   44.3120 C   0  0  2  0  0  0  0  0  0  0  0  0
   55.2520   29.4330   45.0880 O   0  0  0  0  0  0  0  0  0  0  0  0
   57.6220   28.9400   45.0260 C   0  0  0  0  0  0  0  0  0  0  0  0
   59.7730   29.2290   48.5410 C   0  0  0  0  0  0  0  0  0  0  0  0
   58.8890   29.4930   49.7660 C   0  0  0  0  0  0  0  0  0  0  0  0
   55.9910   31.3010   51.7700 C   0  0  0  0  0  0  0  0  0  0  0  0
   54.7530   30.8120   52.2410 C   0  0  0  0  0  0  0  0  0  0  0  0
   53.6260   31.5550   52.0770 C   0  0  0  0  0  0  0  0  0  0  0  0
   52.5600   31.2700   51.0970 C   0  0  0  0  0  0  0  0  0  0  0  0
   52.6510   30.3160   50.1540 N   0  0  0  0  0  0  0  0  0  0  0  0
   51.5290   30.4930   49.4230 C   0  0  0  0  0  0  0  0  0  0  0  0
   51.2400   29.7650   48.4380 O   0  0  0  0  0  0  0  0  0  0  0  0
   50.7470   31.5180   49.8240 N   0  0  0  0  0  0  0  0  0  0  0  0
   51.4190   32.0060   50.8780 C   0  0  0  0  0  0  0  0  0  0  0  0
   51.0190   33.1260   51.5950 O   0  0  0  0  0  0  0  0  0  0  0  0
   52.6628   29.4514   53.2608 H   0  0  0  0  0  0  0  0  0  0  0  0
   53.7033   27.9899   53.9022 H   0  0  0  0  0  0  0  0  0  0  0  0
   55.9550   28.0060   53.6620 H   0  0  0  0  0  0  0  0  0  0  0  0
   58.5514   28.4825   54.0140 H   0  0  0  0  0  0  0  0  0  0  0  0
   58.2889   27.5845   52.4806 H   0  0  0  0  0  0  0  0  0  0  0  0
   59.2556   29.0985   52.4806 H   0  0  0  0  0  0  0  0  0  0  0  0
   60.0689   32.7072   50.1685 H   0  0  0  0  0  0  0  0  0  0  0  0
   61.1368   31.2588   50.0080 H   0  0  0  0  0  0  0  0  0  0  0  0
   59.2379   32.4740   47.9696 H   0  0  0  0  0  0  0  0  0  0  0  0
   61.0247   32.0940   47.8434 H   0  0  0  0  0  0  0  0  0  0  0  0
   60.5244   30.2235   46.8018 H   0  0  0  0  0  0  0  0  0  0  0  0
   57.6634   29.7792   47.2876 H   0  0  0  0  0  0  0  0  0  0  0  0
   57.9968   31.4837   46.8059 H   0  0  0  0  0  0  0  0  0  0  0  0
   58.4825   32.0799   44.9011 H   0  0  0  0  0  0  0  0  0  0  0  0
   58.8440   31.0100   43.5243 H   0  0  0  0  0  0  0  0  0  0  0  0
   56.1869   31.6529   44.8268 H   0  0  0  0  0  0  0  0  0  0  0  0
   56.5312   31.3899   43.1192 H   0  0  0  0  0  0  0  0  0  0  0  0
   56.2135   29.0583   43.3540 H   0  0  0  0  0  0  0  0  0  0  0  0
   55.4950   29.7150   46.0090 H   0  0  0  0  0  0  0  0  0  0  0  0
   57.2892   28.4221   45.9376 H   0  0  0  0  0  0  0  0  0  0  0  0
   58.1186   28.2117   44.3680 H   0  0  0  0  0  0  0  0  0  0  0  0
   59.4192   28.3181   48.0359 H   0  0  0  0  0  0  0  0  0  0  0  0
   60.8107   29.1110   48.8864 H   0  0  0  0  0  0  0  0  0  0  0  0
   57.8339   29.3904   49.4723 H   0  0  0  0  0  0  0  0  0  0  0  0
   59.1560   28.7625   50.5438 H   0  0  0  0  0  0  0  0  0  0  0  0
   56.0169   32.2528   51.2192 H   0  0  0  0  0  0  0  0  0  0  0  0
   53.4992   32.4355   52.7240 H   0  0  0  0  0  0  0  0  0  0  0  0
  1  2  2  0
  2  3  1  0
  3  4  2  0
  4  5  1  0
  4  6  1  0
  6  7  1  0
  7  8  2  0
  7  9  1  0
  9 10  1  0
 10 11  1  0
 11 12  1  0
 12 13  1  0
 13 14  1  0
 14 15  1  0
 15 16  1  0
 16 17  1  0
 17 18  1  0
 17 19  1  0
 12 20  1  0
 20 21  1  0
  6 22  2  0
 22 23  1  0
 23 24  2  3
 24 25  1  0
 25 26  1  0
 26 27  1  0
 27 28  2  0
 27 29  1  0
 29 30  1  0
 30 31  1  0
 23  2  1  0
 30 25  2  0
 21  9  1  0
 19 14  1  0
  1 32  1  0
  1 33  1  0
  3 34  1  0
  5 35  1  0
  5 36  1  0
  5 37  1  0
 10 38  1  0
 10 39  1  0
 11 40  1  0
 11 41  1  0
 12 42  1  0
 13 43  1  0
 13 44  1  0
 15 45  1  0
 15 46  1  0
 16 47  1  0
 16 48  1  0
 17 49  1  6
 18 50  1  0
 19 51  1  0
 19 52  1  0
 20 53  1  0
 20 54  1  0
 21 55  1  0
 21 56  1  0
 22 57  1  0
 24 58  1  0
M  CHG  4   3   1  26  -1  29  -1  31  -1
M  END
>  <UniqueID>  (71) 
65

>  <SMILES>  (71) 
C=c1[nH+]c(C)c(C(=O)N2CCC(CN3CC[C@H](O)C3)CC2)cc1=Cc1[n-]c(=O)[n-]c1[O-]

>  <Energy>  (71) 
116.38997807846867

>  <Genealogy>  (71) 
C=c1[nH+]c(C)c(C(=O)N2CCC(CN3CCC(O)C3)CC2)cc1=Cc1[n-]c(=O)[n-]c1[O-] (protonated)
C=c1[nH+]c(C)c(C(=O)N2CCC(CN3CC[C@H](O)C3)CC2)cc1=Cc1[n-]c(=O)[n-]c1[O-] (chirality)
C=c1[nH+]c(C)c(C(=O)N2CCC(CN3CC[C@H](O)C3)CC2)cc1=Cc1[n-]c(=O)[n-]c1[O-] (3D coordinates assigned)
C=c1[nH+]c(C)c(C(=O)N2CCC(CN3CC[C@H](O)C3)CC2)cc1=Cc1[n-]c(=O)[n-]c1[O-] (nonaromatic ring conformer: 116.38997807846867 kcal/mol)

>  <smiles>  (71) 
C=c1nc(C)c(C(=O)N2CCC(CN3CCC(O)C3)CC2)cc1=Cc1[nH]c(=O)[nH]c1O

>  <score_type>  (71) 
oracle

>  <origin>  (71) 
adg

>  <m_score__min__energy>  (71) 
-18.710000000000001

>  <m_primary>  (71) 
energy

$$$$
72:0
     RDKit          3D

 55 58  0  0  0  0  0  0  0  0999 V2000
   56.6043   21.6155   45.0031 H   0  0  0  0  0  0  0  0  0  0  0  0
   56.1480   22.5910   45.2270 C   0  0  0  0  0  0  0  0  0  0  0  0
   56.7350   23.4260   46.1250 N   0  0  0  0  0  0  0  0  0  0  0  0
   56.2140   24.6420   46.4470 C   0  0  0  0  0  0  0  0  0  0  0  0
   56.8570   25.3630   47.3250 N   0  0  0  0  0  0  0  0  0  0  0  0
   57.8370   26.3830   47.0870 C   0  0  0  0  0  0  0  0  0  0  0  0
   58.7530   26.5760   47.9330 O   0  0  0  0  0  0  0  0  0  0  0  0
   57.8170   27.1580   45.8250 C   0  0  0  0  0  0  0  0  0  0  0  0
   58.6310   26.7840   44.7410 C   0  0  0  0  0  0  0  0  0  0  0  0
   59.3112   25.9251   44.8389 H   0  0  0  0  0  0  0  0  0  0  0  0
   58.5810   27.4970   43.5400 C   0  0  0  0  0  0  0  0  0  0  0  0
   59.2355   27.2094   42.7040 H   0  0  0  0  0  0  0  0  0  0  0  0
   57.7030   28.5730   43.3980 C   0  0  0  0  0  0  0  0  0  0  0  0
   57.6776   29.1410   42.4564 H   0  0  0  0  0  0  0  0  0  0  0  0
   56.8540   28.9300   44.4540 C   0  0  0  0  0  0  0  0  0  0  0  0
   55.9330   30.0660   44.3070 C   0  0  0  0  0  0  0  0  0  0  0  0
   54.8100   29.8610   43.7770 O   0  0  0  0  0  0  0  0  0  0  0  0
   56.2640   31.4020   44.7240 N   0  0  0  0  0  0  0  0  0  0  0  0
   57.5120   32.1580   44.5580 C   0  0  0  0  0  0  0  0  0  0  0  0
   57.7416   32.1579   43.4822 H   0  0  0  0  0  0  0  0  0  0  0  0
   57.3460   33.6290   44.9720 C   0  0  0  0  0  0  0  0  0  0  0  0
   56.6756   34.1338   44.2608 H   0  0  0  0  0  0  0  0  0  0  0  0
   56.9181   33.6723   45.9844 H   0  0  0  0  0  0  0  0  0  0  0  0
   58.7110   34.3340   44.9720 C   0  0  0  0  0  0  0  0  0  0  0  0
   59.0926   34.3511   43.9404 H   0  0  0  0  0  0  0  0  0  0  0  0
   58.5504   35.3436   45.3780 H   0  0  0  0  0  0  0  0  0  0  0  0
   59.7300   33.6730   45.8400 N   0  0  0  0  0  0  0  0  0  0  0  0
   60.1480   34.5390   46.9600 C   0  0  0  0  0  0  0  0  0  0  0  0
   60.3137   35.5603   46.5866 H   0  0  0  0  0  0  0  0  0  0  0  0
   59.3575   34.5407   47.7249 H   0  0  0  0  0  0  0  0  0  0  0  0
   61.4220   34.0220   47.5740 C   0  0  0  0  0  0  0  0  0  0  0  0
   62.5140   33.6970   46.7520 C   0  0  0  0  0  0  0  0  0  0  0  0
   62.4317   33.8128   45.6612 H   0  0  0  0  0  0  0  0  0  0  0  0
   63.7050   33.2270   47.3140 C   0  0  0  0  0  0  0  0  0  0  0  0
   64.5555   32.9705   46.6653 H   0  0  0  0  0  0  0  0  0  0  0  0
   63.8150   33.0830   48.7000 C   0  0  0  0  0  0  0  0  0  0  0  0
   64.7523   32.7139   49.1418 H   0  0  0  0  0  0  0  0  0  0  0  0
   62.7340   33.4080   49.5250 C   0  0  0  0  0  0  0  0  0  0  0  0
   62.8228   33.2958   50.6157 H   0  0  0  0  0  0  0  0  0  0  0  0
   61.5410   33.8750   48.9670 C   0  0  0  0  0  0  0  0  0  0  0  0
   60.6925   34.1283   49.6196 H   0  0  0  0  0  0  0  0  0  0  0  0
   59.3320   32.3410   46.3460 C   0  0  0  0  0  0  0  0  0  0  0  0
   60.2200   31.8325   46.7495 H   0  0  0  0  0  0  0  0  0  0  0  0
   58.5715   32.4831   47.1279 H   0  0  0  0  0  0  0  0  0  0  0  0
   58.7230   31.4740   45.2360 C   0  0  0  0  0  0  0  0  0  0  0  0
   59.4930   31.2811   44.4745 H   0  0  0  0  0  0  0  0  0  0  0  0
   58.3696   30.5384   45.6939 H   0  0  0  0  0  0  0  0  0  0  0  0
   56.9490   28.2560   45.6790 C   0  0  0  0  0  0  0  0  0  0  0  0
   56.3403   28.5878   46.5331 H   0  0  0  0  0  0  0  0  0  0  0  0
   55.0330   25.0730   45.7880 C   0  0  0  0  0  0  0  0  0  0  0  0
   54.4880   26.3370   45.9820 O   0  0  0  0  0  0  0  0  0  0  0  0
   54.4140   24.2170   44.8720 C   0  0  0  0  0  0  0  0  0  0  0  0
   53.4853   24.5292   44.3719 H   0  0  0  0  0  0  0  0  0  0  0  0
   54.9680   22.9710   44.5900 C   0  0  0  0  0  0  0  0  0  0  0  0
   54.4800   22.2945   43.8729 H   0  0  0  0  0  0  0  0  0  0  0  0
  1  2  1  0
  2  3  1  0
  3  4  1  0
  4  5  2  0
  5  6  1  0
  6  7  2  0
  6  8  1  0
  8  9  2  0
  9 10  1  0
  9 11  1  0
 11 12  1  0
 11 13  2  0
 13 14  1  0
 13 15  1  0
 15 16  1  0
 16 17  2  0
 16 18  1  0
 18 19  1  0
 19 20  1  0
 19 21  1  0
 21 22  1  0
 21 23  1  0
 21 24  1  0
 24 25  1  0
 24 26  1  0
 24 27  1  0
 27 28  1  0
 28 29  1  0
 28 30  1  0
 28 31  1  0
 31 32  2  0
 32 33  1  0
 32 34  1  0
 34 35  1  0
 34 36  2  0
 36 37  1  0
 36 38  1  0
 38 39  1  0
 38 40  2  0
 40 41  1  0
 27 42  1  0
 42 43  1  0
 42 44  1  0
 42 45  1  0
 45 46  1  0
 45 47  1  0
 15 48  2  0
 48 49  1  0
  4 50  1  0
 50 51  1  0
 50 52  2  0
 52 53  1  0
 52 54  1  0
 54 55  1  0
 54  2  2  0
 48  8  1  0
 45 19  1  0
 40 31  1  0
M  CHG  3   3  -1  18  -1  51  -1
M  END
>  <UniqueID>  (72) 
66

>  <SMILES>  (72) 
O=C(/N=c1/[n-]cccc1[O-])c1cccc(C(=O)[N-]C2CCN(Cc3ccccc3)CC2)c1

>  <Energy>  (72) 
87.93049717723932

>  <Genealogy>  (72) 
O=C(N=c1[n-]cccc1[O-])c1cccc(C(=O)[N-]C2CCN(Cc3ccccc3)CC2)c1 (protonated)
O=C(/N=c1/[n-]cccc1[O-])c1cccc(C(=O)[N-]C2CCN(Cc3ccccc3)CC2)c1 (cis-trans isomerization)
O=C(/N=c1/[n-]cccc1[O-])c1cccc(C(=O)[N-]C2CCN(Cc3ccccc3)CC2)c1 (3D coordinates assigned)
O=C(/N=c1/[n-]cccc1[O-])c1cccc(C(=O)[N-]C2CCN(Cc3ccccc3)CC2)c1 (nonaromatic ring conformer: 87.93049717723932 kcal/mol)

>  <smiles>  (72) 
O=C(N=c1[nH]cccc1O)c1cccc(C(=O)NC2CCN(Cc3ccccc3)CC2)c1

>  <score_type>  (72) 
oracle

>  <origin>  (72) 
adg

>  <m_score__min__energy>  (72) 
-17.030000000000001

>  <m_primary>  (72) 
energy

$$$$
73:0
     RDKit          3D

 40 42  0  0  0  0  0  0  0  0999 V2000
   57.1090   31.3090   42.0770 O   0  0  0  0  0  0  0  0  0  0  0  0
   57.5450   31.6620   43.2060 C   0  0  0  0  0  0  0  0  0  0  0  0
   57.7850   33.0180   43.4470 C   0  0  0  0  0  0  0  0  0  0  0  0
   58.2880   33.4200   44.6810 C   0  0  0  0  0  0  0  0  0  0  0  0
   58.5670   32.4720   45.6640 C   0  0  0  0  0  0  0  0  0  0  0  0
   59.0760   32.9020   46.8980 O   0  0  0  0  0  0  0  0  0  0  0  0
   60.4290   32.8800   47.2690 C   0  0  0  0  0  0  0  0  0  0  0  0
   61.2920   33.8380   46.7240 C   0  0  0  0  0  0  0  0  0  0  0  0
   62.6500   33.8410   47.0600 C   0  0  0  0  0  0  0  0  0  0  0  0
   63.1610   32.8770   47.9340 C   0  0  0  0  0  0  0  0  0  0  0  0
   64.5140   32.8920   48.2620 O   0  0  0  0  0  0  0  0  0  0  0  0
   62.3070   31.9020   48.4680 C   0  0  0  0  0  0  0  0  0  0  0  0
   60.9490   31.8980   48.1330 C   0  0  0  0  0  0  0  0  0  0  0  0
   58.2880   31.1210   45.4000 C   0  0  0  0  0  0  0  0  0  0  0  0
   57.7820   30.7320   44.1890 N   0  0  0  0  0  0  0  0  0  0  0  0
   57.5540   29.2990   43.9450 C   0  0  0  0  0  0  0  0  0  0  0  0
   56.5280   28.7500   44.9400 C   0  0  0  0  0  0  0  0  0  0  0  0
   57.0390   27.4890   45.5900 C   0  0  0  0  0  0  0  0  0  0  0  0
   58.4230   27.2880   45.7300 C   0  0  0  0  0  0  0  0  0  0  0  0
   58.9100   26.1370   46.3580 C   0  0  0  0  0  0  0  0  0  0  0  0
   58.0210   25.1830   46.8580 C   0  0  0  0  0  0  0  0  0  0  0  0
   56.6430   25.3800   46.7360 C   0  0  0  0  0  0  0  0  0  0  0  0
   56.1480   26.5290   46.1100 C   0  0  0  0  0  0  0  0  0  0  0  0
   54.7720   26.7110   46.0120 O   0  0  0  0  0  0  0  0  0  0  0  0
   57.5774   33.7635   42.6653 H   0  0  0  0  0  0  0  0  0  0  0  0
   58.4655   34.4871   44.8807 H   0  0  0  0  0  0  0  0  0  0  0  0
   60.8998   34.5933   46.0271 H   0  0  0  0  0  0  0  0  0  0  0  0
   63.3181   34.6046   46.6350 H   0  0  0  0  0  0  0  0  0  0  0  0
   65.2300   32.9750   47.5500 H   0  0  0  0  0  0  0  0  0  0  0  0
   62.7057   31.1384   49.1520 H   0  0  0  0  0  0  0  0  0  0  0  0
   60.2849   31.1246   48.5463 H   0  0  0  0  0  0  0  0  0  0  0  0
   58.4786   30.3656   46.1766 H   0  0  0  0  0  0  0  0  0  0  0  0
   57.1773   29.1602   42.9209 H   0  0  0  0  0  0  0  0  0  0  0  0
   58.5031   28.7577   44.0726 H   0  0  0  0  0  0  0  0  0  0  0  0
   56.3380   29.5054   45.7167 H   0  0  0  0  0  0  0  0  0  0  0  0
   55.5990   28.5178   44.3987 H   0  0  0  0  0  0  0  0  0  0  0  0
   59.1269   28.0399   45.3436 H   0  0  0  0  0  0  0  0  0  0  0  0
   59.9946   25.9830   46.4582 H   0  0  0  0  0  0  0  0  0  0  0  0
   58.4056   24.2764   47.3479 H   0  0  0  0  0  0  0  0  0  0  0  0
   55.9448   24.6288   47.1337 H   0  0  0  0  0  0  0  0  0  0  0  0
  1  2  2  0
  2  3  1  0
  3  4  2  0
  4  5  1  0
  5  6  1  0
  6  7  1  0
  7  8  2  0
  8  9  1  0
  9 10  2  0
 10 11  1  0
 10 12  1  0
 12 13  2  0
  5 14  2  0
 14 15  1  0
 15 16  1  0
 16 17  1  0
 17 18  1  0
 18 19  2  0
 19 20  1  0
 20 21  2  0
 21 22  1  0
 22 23  2  0
 23 24  1  0
 15  2  1  0
 23 18  1  0
 13  7  1  0
  3 25  1  0
  4 26  1  0
  8 27  1  0
  9 28  1  0
 11 29  1  0
 12 30  1  0
 13 31  1  0
 14 32  1  0
 16 33  1  0
 16 34  1  0
 17 35  1  0
 17 36  1  0
 19 37  1  0
 20 38  1  0
 21 39  1  0
 22 40  1  0
M  CHG  1  24  -1
M  END
>  <UniqueID>  (73) 
67

>  <SMILES>  (73) 
O=c1ccc(Oc2ccc(O)cc2)cn1CCc1ccccc1[O-]

>  <Energy>  (73) 
48.60989135582047

>  <Genealogy>  (73) 
O=c1ccc(Oc2ccc(O)cc2)cn1CCc1ccccc1[O-] (protonated)
O=c1ccc(Oc2ccc(O)cc2)cn1CCc1ccccc1[O-] (3D coordinates assigned)
O=c1ccc(Oc2ccc(O)cc2)cn1CCc1ccccc1[O-] (optimized conformer: 48.60989135582047 kcal/mol)

>  <smiles>  (73) 
O=c1ccc(Oc2ccc(O)cc2)cn1CCc1ccccc1O

>  <score_type>  (73) 
oracle

>  <origin>  (73) 
adg

>  <m_score__min__energy>  (73) 
-11.43

>  <m_primary>  (73) 
energy

$$$$
74:0
     RDKit          3D

 82 86  0  0  0  0  0  0  0  0999 V2000
   62.2720   31.4550   53.8800 N   0  0  0  0  0  0  0  0  0  0  0  0
   63.5500   32.0440   53.6260 C   0  0  0  0  0  0  0  0  0  0  0  0
   64.4560   32.0440   54.5600 N   0  0  0  0  0  0  0  0  0  0  0  0
   63.8060   32.6260   52.3340 N   0  0  0  0  0  0  0  0  0  0  0  0
   65.0800   33.2430   51.9630 C   0  0  0  0  0  0  0  0  0  0  0  0
   65.1590   33.4620   50.4490 C   0  0  0  0  0  0  0  0  0  0  0  0
   64.5600   32.2730   49.6850 C   0  0  0  0  0  0  0  0  0  0  0  0
   63.0620   32.4800   49.3860 C   0  0  2  0  0  0  0  0  0  0  0  0
   62.5540   33.7350   49.9520 N   0  0  0  0  0  0  0  0  0  0  0  0
   61.7550   34.5610   49.3420 C   0  0  0  0  0  0  0  0  0  0  0  0
   60.8240   34.0870   48.3010 C   0  0  0  0  0  0  0  0  0  0  0  0
   61.1390   34.1890   46.9340 C   0  0  0  0  0  0  0  0  0  0  0  0
   60.2500   33.7110   45.9670 C   0  0  0  0  0  0  0  0  0  0  0  0
   59.0370   33.1270   46.3510 C   0  0  0  0  0  0  0  0  0  0  0  0
   57.9470   32.4900   45.1250 S   0  0  0  0  0  0  0  0  0  0  0  0
   58.4850   32.7680   43.7490 O   0  0  0  0  0  0  0  0  0  0  0  0
   56.6100   33.1620   45.2570 O   0  0  0  0  0  0  0  0  0  0  0  0
   57.7770   30.7490   45.3220 C   0  0  0  0  0  0  0  0  0  0  0  0
   56.6920   30.0830   44.7390 C   0  0  0  0  0  0  0  0  0  0  0  0
   56.5410   28.7030   44.9050 C   0  0  0  0  0  0  0  0  0  0  0  0
   57.4740   27.9680   45.6550 C   0  0  0  0  0  0  0  0  0  0  0  0
   57.3080   26.5490   45.8370 N   0  0  0  0  0  0  0  0  0  0  0  0
   58.3090   25.5370   45.8660 C   0  0  0  0  0  0  0  0  0  0  0  0
   59.5440   25.7560   45.7560 O   0  0  0  0  0  0  0  0  0  0  0  0
   57.7040   24.2120   45.9940 C   0  0  0  0  0  0  0  0  0  0  0  0
   56.3830   24.3680   46.0380 C   0  0  0  0  0  0  0  0  0  0  0  0
   56.1010   25.8000   45.9460 C   0  0  0  0  0  0  0  0  0  0  0  0
   54.9500   26.3110   46.0030 O   0  0  0  0  0  0  0  0  0  0  0  0
   58.5700   28.6390   46.2240 C   0  0  0  0  0  0  0  0  0  0  0  0
   58.7220   30.0180   46.0560 C   0  0  0  0  0  0  0  0  0  0  0  0
   58.7140   33.0340   47.7120 C   0  0  0  0  0  0  0  0  0  0  0  0
   59.6020   33.5120   48.6800 C   0  0  0  0  0  0  0  0  0  0  0  0
   62.2440   31.3030   49.8610 C   0  0  0  0  0  0  0  0  0  0  0  0
   62.1740   31.0450   51.0950 O   0  0  0  0  0  0  0  0  0  0  0  0
   61.5630   30.4700   48.9100 N   0  0  0  0  0  0  0  0  0  0  0  0
   60.6450   29.3960   49.2930 C   0  0  0  0  0  0  0  0  0  0  0  0
   59.1760   29.8570   49.2910 C   0  0  0  0  0  0  0  0  0  0  0  0
   58.9290   30.8910   50.2930 N   0  0  0  0  0  0  0  0  0  0  0  0
   59.1290   30.9960   51.5840 C   0  0  0  0  0  0  0  0  0  0  0  0
   59.4490   29.7890   52.2240 C   0  0  0  0  0  0  0  0  0  0  0  0
   59.7890   29.7590   53.5690 C   0  0  0  0  0  0  0  0  0  0  0  0
   59.8240   30.9040   54.2850 N   0  0  0  0  0  0  0  0  0  0  0  0
   59.5050   32.1050   53.7410 C   0  0  0  0  0  0  0  0  0  0  0  0
   59.5650   33.2380   54.5600 C   0  0  0  0  0  0  0  0  0  0  0  0
   59.2130   34.4880   54.0580 C   0  0  0  0  0  0  0  0  0  0  0  0
   59.3150   35.9070   55.0850 Cl  0  0  0  0  0  0  0  0  0  0  0  0
   58.7650   34.6030   52.7460 C   0  0  0  0  0  0  0  0  0  0  0  0
   58.6980   33.4800   51.9160 C   0  0  0  0  0  0  0  0  0  0  0  0
   59.1070   32.2020   52.3720 C   0  0  0  0  0  0  0  0  0  0  0  0
   62.0510   31.0280   54.8070 H   0  0  0  0  0  0  0  0  0  0  0  0
   61.5360   31.4450   53.1410 H   0  0  0  0  0  0  0  0  0  0  0  0
   64.5210   32.8370   55.2380 H   0  0  0  0  0  0  0  0  0  0  0  0
   65.1410   31.2660   54.6740 H   0  0  0  0  0  0  0  0  0  0  0  0
   63.0350   32.5930   51.6280 H   0  0  0  0  0  0  0  0  0  0  0  0
   65.1726   34.2133   52.4729 H   0  0  0  0  0  0  0  0  0  0  0  0
   65.8975   32.5717   52.2648 H   0  0  0  0  0  0  0  0  0  0  0  0
   64.6013   34.3737   50.1886 H   0  0  0  0  0  0  0  0  0  0  0  0
   66.2173   33.5610   50.1658 H   0  0  0  0  0  0  0  0  0  0  0  0
   65.0995   32.1528   48.7340 H   0  0  0  0  0  0  0  0  0  0  0  0
   64.6621   31.3763   50.3139 H   0  0  0  0  0  0  0  0  0  0  0  0
   62.9595   32.5515   48.2931 H   0  0  0  0  0  0  0  0  0  0  0  0
   61.7741   35.6285   49.6066 H   0  0  0  0  0  0  0  0  0  0  0  0
   62.0898   34.6473   46.6243 H   0  0  0  0  0  0  0  0  0  0  0  0
   60.5045   33.7940   44.9001 H   0  0  0  0  0  0  0  0  0  0  0  0
   55.9557   30.6476   44.1482 H   0  0  0  0  0  0  0  0  0  0  0  0
   55.6846   28.1886   44.4445 H   0  0  0  0  0  0  0  0  0  0  0  0
   58.2449   23.2556   46.0449 H   0  0  0  0  0  0  0  0  0  0  0  0
   55.6373   23.5643   46.1275 H   0  0  0  0  0  0  0  0  0  0  0  0
   59.3136   28.0746   46.8058 H   0  0  0  0  0  0  0  0  0  0  0  0
   59.5865   30.5321   46.5014 H   0  0  0  0  0  0  0  0  0  0  0  0
   57.7587   32.5834   48.0192 H   0  0  0  0  0  0  0  0  0  0  0  0
   59.3408   33.4367   49.7459 H   0  0  0  0  0  0  0  0  0  0  0  0
   61.7550   30.6120   47.8940 H   0  0  0  0  0  0  0  0  0  0  0  0
   60.7562   28.5646   48.5814 H   0  0  0  0  0  0  0  0  0  0  0  0
   60.8992   29.0840   50.3167 H   0  0  0  0  0  0  0  0  0  0  0  0
   58.9306   30.2590   48.2969 H   0  0  0  0  0  0  0  0  0  0  0  0
   58.5456   28.9889   49.5339 H   0  0  0  0  0  0  0  0  0  0  0  0
   59.4300   28.8509   51.6499 H   0  0  0  0  0  0  0  0  0  0  0  0
   60.0305   28.8012   54.0530 H   0  0  0  0  0  0  0  0  0  0  0  0
   59.8919   33.1406   55.6058 H   0  0  0  0  0  0  0  0  0  0  0  0
   58.4607   35.5864   52.3581 H   0  0  0  0  0  0  0  0  0  0  0  0
   58.3204   33.5905   50.8888 H   0  0  0  0  0  0  0  0  0  0  0  0
  1  2  1  0
  2  3  2  0
  2  4  1  0
  4  5  1  0
  5  6  1  0
  6  7  1  0
  7  8  1  0
  8  9  1  0
  9 10  2  3
 10 11  1  0
 11 12  2  0
 12 13  1  0
 13 14  2  0
 14 15  1  0
 15 16  2  0
 15 17  2  0
 15 18  1  0
 18 19  2  0
 19 20  1  0
 20 21  2  0
 21 22  1  0
 22 23  1  0
 23 24  2  0
 23 25  1  0
 25 26  2  0
 26 27  1  0
 27 28  2  0
 21 29  1  0
 29 30  2  0
 14 31  1  0
 31 32  2  0
  8 33  1  0
 33 34  2  0
 33 35  1  0
 35 36  1  0
 36 37  1  0
 37 38  1  0
 38 39  2  3
 39 40  1  0
 40 41  2  0
 41 42  1  0
 42 43  1  0
 43 44  2  0
 44 45  1  0
 45 46  1  0
 45 47  2  0
 47 48  1  0
 48 49  2  0
 32 11  1  0
 49 39  1  0
 30 18  1  0
 49 43  1  0
 27 22  1  0
  1 50  1  0
  1 51  1  0
  3 52  1  0
  3 53  1  0
  4 54  1  0
  5 55  1  0
  5 56  1  0
  6 57  1  0
  6 58  1  0
  7 59  1  0
  7 60  1  0
  8 61  1  6
 10 62  1  0
 12 63  1  0
 13 64  1  0
 19 65  1  0
 20 66  1  0
 25 67  1  0
 26 68  1  0
 29 69  1  0
 30 70  1  0
 31 71  1  0
 32 72  1  0
 35 73  1  0
 36 74  1  0
 36 75  1  0
 37 76  1  0
 37 77  1  0
 40 78  1  0
 41 79  1  0
 44 80  1  0
 47 81  1  0
 48 82  1  0
M  CHG  2   3   1  42  -1
M  END
>  <UniqueID>  (74) 
68

>  <SMILES>  (74) 
NC(=[NH2+])NCCC[C@H](N=Cc1ccc(S(=O)(=O)c2ccc(N3C(=O)C=CC3=O)cc2)cc1)C(=O)NCCN=c1cc[n-]c2cc(Cl)ccc12

>  <Energy>  (74) 
127.70382250573306

>  <Genealogy>  (74) 
NC(=[NH2+])NCCCC(N=Cc1ccc(S(=O)(=O)c2ccc(N3C(=O)C=CC3=O)cc2)cc1)C(=O)NCCN=c1cc[n-]c2cc(Cl)ccc12 (protonated)
NC(=[NH2+])NCCC[C@H](N=Cc1ccc(S(=O)(=O)c2ccc(N3C(=O)C=CC3=O)cc2)cc1)C(=O)NCCN=c1cc[n-]c2cc(Cl)ccc12 (chirality)
NC(=[NH2+])NCCC[C@H](N=Cc1ccc(S(=O)(=O)c2ccc(N3C(=O)C=CC3=O)cc2)cc1)C(=O)NCCN=c1cc[n-]c2cc(Cl)ccc12 (3D coordinates assigned)
NC(=[NH2+])NCCC[C@H](N=Cc1ccc(S(=O)(=O)c2ccc(N3C(=O)C=CC3=O)cc2)cc1)C(=O)NCCN=c1cc[n-]c2cc(Cl)ccc12 (nonaromatic ring conformer: 127.70382250573306 kcal/mol)

>  <smiles>  (74) 
N=C(N)NCCCC(N=Cc1ccc(S(=O)(=O)c2ccc(N3C(=O)C=CC3=O)cc2)cc1)C(=O)NCCN=c1cc[nH]c2cc(Cl)ccc12

>  <score_type>  (74) 
oracle

>  <origin>  (74) 
adg

>  <m_score__min__energy>  (74) 
-9.9199999999999999

>  <m_primary>  (74) 
energy

$$$$
75:0
     RDKit          3D

 60 64  0  0  1  0  0  0  0  0999 V2000
   56.8680   28.7920   43.8100 N   0  0  0  0  0  0  0  0  0  0  0  0
   57.8390   29.1450   44.5650 C   0  0  0  0  0  0  0  0  0  0  0  0
   57.5880   29.8350   45.7170 N   0  0  0  0  0  0  0  0  0  0  0  0
   58.6630   30.1630   46.4440 C   0  0  0  0  0  0  0  0  0  0  0  0
   59.9620   29.8380   46.0770 C   0  0  0  0  0  0  0  0  0  0  0  0
   60.1820   29.1450   44.9140 C   0  0  0  0  0  0  0  0  0  0  0  0
   61.3760   28.8460   44.5780 N   0  0  0  0  0  0  0  0  0  0  0  0
   59.0860   28.8190   44.1880 N   0  0  0  0  0  0  0  0  0  0  0  0
   61.0390   30.2840   46.9940 C   0  0  0  0  0  0  0  0  0  0  0  0
   60.7860   29.9650   48.4300 C   0  0  1  0  0  0  0  0  0  0  0  0
   59.8240   33.7760   52.5890 N   0  0  0  0  0  0  0  0  0  0  0  0
   60.0180   33.4720   51.3500 C   0  0  0  0  0  0  0  0  0  0  0  0
   59.5830   34.3450   50.4220 N   0  0  0  0  0  0  0  0  0  0  0  0
   59.7740   34.0510   49.1100 C   0  0  0  0  0  0  0  0  0  0  0  0
   59.3740   34.8590   48.2120 N   0  0  0  0  0  0  0  0  0  0  0  0
   58.5230   33.8590   53.2010 C   0  0  0  0  0  0  0  0  0  0  0  0
   57.8450   32.5420   53.0330 C   0  0  0  0  0  0  0  0  0  0  0  0
   57.0250   32.3240   51.9340 C   0  0  0  0  0  0  0  0  0  0  0  0
   56.4110   31.0930   51.8080 C   0  0  0  0  0  0  0  0  0  0  0  0
   56.5610   30.0670   52.7020 C   0  0  0  0  0  0  0  0  0  0  0  0
   55.9380   28.8890   52.5260 F   0  0  0  0  0  0  0  0  0  0  0  0
   57.3880   30.2910   53.8080 C   0  0  0  0  0  0  0  0  0  0  0  0
   58.0180   31.5160   53.9620 C   0  0  0  0  0  0  0  0  0  0  0  0
   60.3850   32.9090   48.7730 N   0  0  0  0  0  0  0  0  0  0  0  0
   60.8250   32.0270   49.6860 C   0  0  0  0  0  0  0  0  0  0  0  0
   61.4010   30.9520   49.3240 N   0  0  0  0  0  0  0  0  0  0  0  0
   58.9000   34.4100   46.9480 C   0  0  0  0  0  0  0  0  0  0  0  0
   57.6650   33.7830   46.8620 C   0  0  0  0  0  0  0  0  0  0  0  0
   57.2250   33.3570   45.6230 C   0  0  0  0  0  0  0  0  0  0  0  0
   58.0220   33.5630   44.5040 C   0  0  0  0  0  0  0  0  0  0  0  0
   59.2620   34.1970   44.6070 C   0  0  0  0  0  0  0  0  0  0  0  0
   59.6970   34.6210   45.8400 C   0  0  0  0  0  0  0  0  0  0  0  0
   60.6310   32.3250   51.0050 N   0  0  0  0  0  0  0  0  0  0  0  0
   59.2880   30.0410   48.7510 C   0  0  0  0  0  0  0  0  0  0  0  0
   58.5510   30.9200   47.7450 C   0  0  0  0  0  0  0  0  0  0  0  0
   56.7620   27.8300   43.4320 H   0  0  0  0  0  0  0  0  0  0  0  0
   56.6430   30.0960   46.0250 H   0  0  0  0  0  0  0  0  0  0  0  0
   61.5660   28.2720   43.7390 H   0  0  0  0  0  0  0  0  0  0  0  0
   59.2760   28.2850   43.2960 H   0  0  0  0  0  0  0  0  0  0  0  0
   61.9760   29.7940   46.6909 H   0  0  0  0  0  0  0  0  0  0  0  0
   61.0890   31.3801   46.9160 H   0  0  0  0  0  0  0  0  0  0  0  0
   61.2029   28.9588   48.5841 H   0  0  0  0  0  0  0  0  0  0  0  0
   59.1090   35.2320   50.6560 H   0  0  0  0  0  0  0  0  0  0  0  0
   58.6289   34.0896   54.2713 H   0  0  0  0  0  0  0  0  0  0  0  0
   57.9300   34.6551   52.7271 H   0  0  0  0  0  0  0  0  0  0  0  0
   56.8682   33.1118   51.1825 H   0  0  0  0  0  0  0  0  0  0  0  0
   55.7617   30.9269   50.9358 H   0  0  0  0  0  0  0  0  0  0  0  0
   57.5380   29.4965   54.5539 H   0  0  0  0  0  0  0  0  0  0  0  0
   58.6673   31.6824   54.8342 H   0  0  0  0  0  0  0  0  0  0  0  0
   60.5110   32.7240   47.7570 H   0  0  0  0  0  0  0  0  0  0  0  0
   57.0496   33.6284   47.7605 H   0  0  0  0  0  0  0  0  0  0  0  0
   56.2498   32.8579   45.5236 H   0  0  0  0  0  0  0  0  0  0  0  0
   57.6702   33.2207   43.5196 H   0  0  0  0  0  0  0  0  0  0  0  0
   59.8827   34.3551   43.7127 H   0  0  0  0  0  0  0  0  0  0  0  0
   60.6701   35.1233   45.9432 H   0  0  0  0  0  0  0  0  0  0  0  0
   60.9640   31.6550   51.7370 H   0  0  0  0  0  0  0  0  0  0  0  0
   58.8628   29.0270   48.7204 H   0  0  0  0  0  0  0  0  0  0  0  0
   59.1686   30.4822   49.7516 H   0  0  0  0  0  0  0  0  0  0  0  0
   57.4972   31.0456   48.0344 H   0  0  0  0  0  0  0  0  0  0  0  0
   58.9727   31.9339   47.6814 H   0  0  0  0  0  0  0  0  0  0  0  0
  1  2  2  3
  2  3  1  0
  3  4  1  0
  4  5  2  0
  5  6  1  0
  6  7  2  3
  6  8  1  0
  5  9  1  0
  9 10  1  0
 10 11  1  0
 11 12  2  0
 12 13  1  0
 13 14  1  0
 14 15  2  0
 15 16  1  0
 16 17  1  0
 17 18  2  0
 18 19  1  0
 19 20  2  0
 20 21  1  0
 20 22  1  0
 22 23  2  0
 14 24  1  0
 24 25  1  0
 25 26  2  0
 26 27  1  0
 27 28  2  0
 28 29  1  0
 29 30  2  0
 30 31  1  0
 31 32  2  0
 25 33  1  0
 10 34  1  0
 34 35  1  0
  8  2  1  0
 33 12  1  0
 35  4  1  0
 23 17  1  0
 32 27  1  0
  1 36  1  0
  3 37  1  0
  7 38  1  0
  8 39  1  0
  9 40  1  0
  9 41  1  0
 10 42  1  1
 13 43  1  0
 16 44  1  0
 16 45  1  0
 18 46  1  0
 19 47  1  0
 22 48  1  0
 23 49  1  0
 24 50  1  0
 28 51  1  0
 29 52  1  0
 30 53  1  0
 31 54  1  0
 32 55  1  0
 33 56  1  0
 34 57  1  0
 34 58  1  0
 35 59  1  0
 35 60  1  0
M  END
>  <smiles>  (75) 
N=c1[nH]c2c(c(=N)[nH]1)CC(N=c1[nH]c(=NCc3ccc(F)cc3)[nH]c(=Nc3ccccc3)[nH]1)CC2

>  <score_type>  (75) 
oracle

>  <origin>  (75) 
adg

>  <m_score__min__energy>  (75) 
-9.8699999999999992

>  <m_primary>  (75) 
energy

$$$$
76:0
     RDKit          3D

 42 44  0  0  0  0  0  0  0  0999 V2000
   57.3160   22.6990   45.3150 C   0  0  0  0  0  0  0  0  0  0  0  0
   57.1330   23.2140   46.7110 C   0  0  0  0  0  0  0  0  0  0  0  0
   57.3900   22.4530   47.6790 O   0  0  0  0  0  0  0  0  0  0  0  0
   56.7120   24.5580   46.9770 N   0  0  0  0  0  0  0  0  0  0  0  0
   57.3370   25.7610   46.5050 C   0  0  0  0  0  0  0  0  0  0  0  0
   58.7350   25.8580   46.4120 C   0  0  0  0  0  0  0  0  0  0  0  0
   59.3310   27.0100   45.8990 C   0  0  0  0  0  0  0  0  0  0  0  0
   58.5400   28.0780   45.4750 C   0  0  0  0  0  0  0  0  0  0  0  0
   57.1450   28.0070   45.5630 C   0  0  0  0  0  0  0  0  0  0  0  0
   56.3750   29.1230   45.0960 N   0  0  0  0  0  0  0  0  0  0  0  0
   56.8890   30.2340   44.3510 C   0  0  0  0  0  0  0  0  0  0  0  0
   56.7640   30.2600   43.0960 O   0  0  0  0  0  0  0  0  0  0  0  0
   57.5210   31.3730   45.0550 C   0  0  0  0  0  0  0  0  0  0  0  0
   57.0270   32.6940   44.8750 C   0  0  0  0  0  0  0  0  0  0  0  0
   57.6180   33.7810   45.5430 C   0  0  0  0  0  0  0  0  0  0  0  0
   58.6980   33.5250   46.3830 C   0  0  0  0  0  0  0  0  0  0  0  0
   59.3850   34.4170   47.1170 N   0  0  0  0  0  0  0  0  0  0  0  0
   60.3210   33.7020   47.7850 C   0  0  0  0  0  0  0  0  0  0  0  0
   61.3180   34.3140   48.7180 C   0  0  0  0  0  0  0  0  0  0  0  0
   60.2420   32.3510   47.4470 C   0  0  0  0  0  0  0  0  0  0  0  0
   61.0570   31.2240   48.0050 C   0  0  0  0  0  0  0  0  0  0  0  0
   59.1840   32.2560   46.5640 C   0  0  0  0  0  0  0  0  0  0  0  0
   58.6200   31.1540   45.9200 C   0  0  0  0  0  0  0  0  0  0  0  0
   56.5360   26.8250   46.0410 C   0  0  0  0  0  0  0  0  0  0  0  0
   55.1440   26.7120   46.0260 O   0  0  0  0  0  0  0  0  0  0  0  0
   57.6841   21.6631   45.3517 H   0  0  0  0  0  0  0  0  0  0  0  0
   56.3528   22.7273   44.7845 H   0  0  0  0  0  0  0  0  0  0  0  0
   58.0454   23.3288   44.7845 H   0  0  0  0  0  0  0  0  0  0  0  0
   59.3642   25.0198   46.7460 H   0  0  0  0  0  0  0  0  0  0  0  0
   60.4267   27.0765   45.8286 H   0  0  0  0  0  0  0  0  0  0  0  0
   59.0161   28.9825   45.0686 H   0  0  0  0  0  0  0  0  0  0  0  0
   56.1721   32.8678   44.2050 H   0  0  0  0  0  0  0  0  0  0  0  0
   57.2379   34.8041   45.4057 H   0  0  0  0  0  0  0  0  0  0  0  0
   59.2220   35.4480   47.1700 H   0  0  0  0  0  0  0  0  0  0  0  0
   61.0112   34.1257   49.7574 H   0  0  0  0  0  0  0  0  0  0  0  0
   62.3077   33.8677   48.5412 H   0  0  0  0  0  0  0  0  0  0  0  0
   61.3680   35.3985   48.5412 H   0  0  0  0  0  0  0  0  0  0  0  0
   61.0301   31.2612   49.1040 H   0  0  0  0  0  0  0  0  0  0  0  0
   60.6418   30.2655   47.6603 H   0  0  0  0  0  0  0  0  0  0  0  0
   62.0973   31.3181   47.6603 H   0  0  0  0  0  0  0  0  0  0  0  0
   59.0190   30.1415   46.0803 H   0  0  0  0  0  0  0  0  0  0  0  0
   54.6590   25.8940   46.3740 H   0  0  0  0  0  0  0  0  0  0  0  0
  1  2  1  0
  2  3  2  0
  2  4  1  0
  4  5  1  0
  5  6  2  0
  6  7  1  0
  7  8  2  0
  8  9  1  0
  9 10  1  0
 10 11  1  0
 11 12  2  0
 11 13  1  0
 13 14  2  0
 14 15  1  0
 15 16  2  0
 16 17  1  0
 17 18  1  0
 18 19  1  0
 18 20  2  0
 20 21  1  0
 20 22  1  0
 22 23  2  0
  9 24  2  0
 24 25  1  0
 24  5  1  0
 23 13  1  0
 22 16  1  0
  1 26  1  0
  1 27  1  0
  1 28  1  0
  6 29  1  0
  7 30  1  0
  8 31  1  0
 14 32  1  0
 15 33  1  0
 17 34  1  0
 19 35  1  0
 19 36  1  0
 19 37  1  0
 21 38  1  0
 21 39  1  0
 21 40  1  0
 23 41  1  0
 25 42  1  0
M  CHG  2   4  -1  10  -1
M  END
>  <UniqueID>  (76) 
69

>  <SMILES>  (76) 
CC(=O)[N-]c1cccc([N-]C(=O)c2ccc3[nH]c(C)c(C)c3c2)c1O

>  <Energy>  (76) 
85.27551730412637

>  <Genealogy>  (76) 
CC(=O)[N-]c1cccc([N-]C(=O)c2ccc3[nH]c(C)c(C)c3c2)c1O (protonated)
CC(=O)[N-]c1cccc([N-]C(=O)c2ccc3[nH]c(C)c(C)c3c2)c1O (3D coordinates assigned)
CC(=O)[N-]c1cccc([N-]C(=O)c2ccc3[nH]c(C)c(C)c3c2)c1O (optimized conformer: 85.27551730412637 kcal/mol)

>  <smiles>  (76) 
CC(=O)Nc1cccc(NC(=O)c2ccc3[nH]c(C)c(C)c3c2)c1O

>  <score_type>  (76) 
oracle

>  <origin>  (76) 
adg

>  <m_score__min__energy>  (76) 
-13.550000000000001

>  <m_primary>  (76) 
energy

$$$$
77:0
     RDKit          3D

 56 58  0  0  0  0  0  0  0  0999 V2000
   53.9300   28.4670   52.7830 C   0  0  0  0  0  0  0  0  0  0  0  0
   54.7040   29.5530   52.6320 C   0  0  0  0  0  0  0  0  0  0  0  0
   54.3950   30.6940   51.8850 C   0  0  0  0  0  0  0  0  0  0  0  0
   53.2460   30.9540   51.2300 C   0  0  0  0  0  0  0  0  0  0  0  0
   52.0780   31.6060   51.8480 C   0  0  0  0  0  0  0  0  0  0  0  0
   51.7460   31.4540   53.1420 N   0  0  0  0  0  0  0  0  0  0  0  0
   50.5870   32.1390   53.2520 C   0  0  0  0  0  0  0  0  0  0  0  0
   49.9630   32.2440   54.3400 O   0  0  0  0  0  0  0  0  0  0  0  0
   50.1460   32.6960   52.1050 N   0  0  0  0  0  0  0  0  0  0  0  0
   51.0930   32.3410   51.2220 C   0  0  0  0  0  0  0  0  0  0  0  0
   51.0310   32.6370   49.8660 O   0  0  0  0  0  0  0  0  0  0  0  0
   55.4940   31.5350   51.9840 C   0  0  0  0  0  0  0  0  0  0  0  0
   56.4210   30.8850   52.7760 C   0  0  0  0  0  0  0  0  0  0  0  0
   57.7700   31.4000   53.0780 C   0  0  0  0  0  0  0  0  0  0  0  0
   58.0310   31.7250   54.2680 O   0  0  0  0  0  0  0  0  0  0  0  0
   58.7800   31.5440   52.0520 N   0  0  0  0  0  0  0  0  0  0  0  0
   59.5470   32.7890   51.9270 C   0  0  0  0  0  0  0  0  0  0  0  0
   59.0740   30.4230   51.1460 C   0  0  0  0  0  0  0  0  0  0  0  0
   59.7960   30.8910   49.8740 C   0  0  0  0  0  0  0  0  0  0  0  0
   58.8770   30.8810   48.6440 C   0  0  0  0  0  0  0  0  0  0  0  0
   59.1270   32.0770   47.8130 N   0  0  0  0  0  0  0  0  0  0  0  0
   59.2400   33.2890   48.6550 C   0  0  0  0  0  0  0  0  0  0  0  0
   59.2550   34.5780   47.8050 C   0  0  0  0  0  0  0  0  0  0  0  0
   59.5160   34.2570   46.3910 N   0  0  0  0  0  0  0  0  0  0  0  0
   59.6500   35.4900   45.6010 C   0  0  0  0  0  0  0  0  0  0  0  0
   58.4360   33.4100   45.8410 C   0  0  0  0  0  0  0  0  0  0  0  0
   58.0650   32.2640   46.8040 C   0  0  0  0  0  0  0  0  0  0  0  0
   55.9420   29.6840   53.1740 N   0  0  0  0  0  0  0  0  0  0  0  0
   56.6430   28.7050   54.0150 C   0  0  0  0  0  0  0  0  0  0  0  0
   54.2787   27.6242   53.3979 H   0  0  0  0  0  0  0  0  0  0  0  0
   52.9469   28.4197   52.2918 H   0  0  0  0  0  0  0  0  0  0  0  0
   53.1761   30.6622   50.1717 H   0  0  0  0  0  0  0  0  0  0  0  0
   55.6057   32.5269   51.5217 H   0  0  0  0  0  0  0  0  0  0  0  0
   59.7850   33.1752   52.9291 H   0  0  0  0  0  0  0  0  0  0  0  0
   60.4801   32.5914   51.3791 H   0  0  0  0  0  0  0  0  0  0  0  0
   58.9508   33.5335   51.3791 H   0  0  0  0  0  0  0  0  0  0  0  0
   59.7132   29.6985   51.6719 H   0  0  0  0  0  0  0  0  0  0  0  0
   58.1192   29.9652   50.8480 H   0  0  0  0  0  0  0  0  0  0  0  0
   60.1633   31.9157   50.0326 H   0  0  0  0  0  0  0  0  0  0  0  0
   60.6235   30.1925   49.6809 H   0  0  0  0  0  0  0  0  0  0  0  0
   59.0750   29.9770   48.0493 H   0  0  0  0  0  0  0  0  0  0  0  0
   57.8289   30.8875   48.9779 H   0  0  0  0  0  0  0  0  0  0  0  0
   58.3824   33.3260   49.3429 H   0  0  0  0  0  0  0  0  0  0  0  0
   60.1888   33.2335   49.2089 H   0  0  0  0  0  0  0  0  0  0  0  0
   58.2793   35.0790   47.8889 H   0  0  0  0  0  0  0  0  0  0  0  0
   60.0524   35.2398   48.1740 H   0  0  0  0  0  0  0  0  0  0  0  0
   59.7436   36.3513   46.2787 H   0  0  0  0  0  0  0  0  0  0  0  0
   60.5462   35.4235   44.9667 H   0  0  0  0  0  0  0  0  0  0  0  0
   58.7604   35.6175   44.9667 H   0  0  0  0  0  0  0  0  0  0  0  0
   57.5463   34.0335   45.6690 H   0  0  0  0  0  0  0  0  0  0  0  0
   58.7933   32.9659   44.9002 H   0  0  0  0  0  0  0  0  0  0  0  0
   57.1208   32.5088   47.3124 H   0  0  0  0  0  0  0  0  0  0  0  0
   57.9528   31.3344   46.2268 H   0  0  0  0  0  0  0  0  0  0  0  0
   56.4723   28.9434   55.0752 H   0  0  0  0  0  0  0  0  0  0  0  0
   56.2606   27.6963   53.7998 H   0  0  0  0  0  0  0  0  0  0  0  0
   57.7211   28.7421   53.7998 H   0  0  0  0  0  0  0  0  0  0  0  0
  1  2  2  0
  2  3  1  0
  3  4  2  3
  4  5  1  0
  5  6  1  0
  6  7  1  0
  7  8  2  0
  7  9  1  0
  9 10  1  0
 10 11  1  0
  3 12  1  0
 12 13  2  0
 13 14  1  0
 14 15  2  0
 14 16  1  0
 16 17  1  0
 16 18  1  0
 18 19  1  0
 19 20  1  0
 20 21  1  0
 21 22  1  0
 22 23  1  0
 23 24  1  0
 24 25  1  0
 24 26  1  0
 26 27  1  0
 13 28  1  0
 28 29  1  0
 28  2  1  0
 10  5  2  0
 27 21  1  0
  1 30  1  0
  1 31  1  0
  4 32  1  0
 12 33  1  0
 17 34  1  0
 17 35  1  0
 17 36  1  0
 18 37  1  0
 18 38  1  0
 19 39  1  0
 19 40  1  0
 20 41  1  0
 20 42  1  0
 22 43  1  0
 22 44  1  0
 23 45  1  0
 23 46  1  0
 25 47  1  0
 25 48  1  0
 25 49  1  0
 26 50  1  0
 26 51  1  0
 27 52  1  0
 27 53  1  0
 29 54  1  0
 29 55  1  0
 29 56  1  0
M  CHG  3   6  -1   9  -1  11  -1
M  END
>  <UniqueID>  (77) 
70

>  <SMILES>  (77) 
C=c1c(=Cc2[n-]c(=O)[n-]c2[O-])cc(C(=O)N(C)CCCN2CCN(C)CC2)n1C

>  <Energy>  (77) 
130.1139021911382

>  <Genealogy>  (77) 
C=c1c(=Cc2[n-]c(=O)[n-]c2[O-])cc(C(=O)N(C)CCCN2CCN(C)CC2)n1C (protonated)
C=c1c(=Cc2[n-]c(=O)[n-]c2[O-])cc(C(=O)N(C)CCCN2CCN(C)CC2)n1C (3D coordinates assigned)
C=c1c(=Cc2[n-]c(=O)[n-]c2[O-])cc(C(=O)N(C)CCCN2CCN(C)CC2)n1C (nonaromatic ring conformer: 130.1139021911382 kcal/mol)

>  <smiles>  (77) 
C=c1c(=Cc2[nH]c(=O)[nH]c2O)cc(C(=O)N(C)CCCN2CCN(C)CC2)n1C

>  <score_type>  (77) 
oracle

>  <origin>  (77) 
adg

>  <m_score__min__energy>  (77) 
-17.91

>  <m_primary>  (77) 
energy

$$$$
78:0
     RDKit          3D

 77 82  0  0  0  0  0  0  0  0999 V2000
   55.6430   22.4250   48.3520 C   0  0  0  0  0  0  0  0  0  0  0  0
   55.0980   23.3280   47.2930 C   0  0  0  0  0  0  0  0  0  0  0  0
   53.8460   23.0790   46.7160 C   0  0  0  0  0  0  0  0  0  0  0  0
   53.3640   23.9660   45.7490 C   0  0  0  0  0  0  0  0  0  0  0  0
   52.0270   23.7490   45.1110 C   0  0  0  0  0  0  0  0  0  0  0  0
   54.1060   25.0540   45.4110 N   0  0  0  0  0  0  0  0  0  0  0  0
   55.3130   25.2980   45.9940 C   0  0  0  0  0  0  0  0  0  0  0  0
   56.0090   26.3480   45.6740 N   0  0  0  0  0  0  0  0  0  0  0  0
   57.6710   26.3040   45.1760 S   0  0  0  0  0  0  0  0  0  0  0  0
   58.1890   24.9000   45.2990 O   0  0  0  0  0  0  0  0  0  0  0  0
   57.8060   26.7650   43.7500 O   0  0  0  0  0  0  0  0  0  0  0  0
   58.5940   27.4030   46.1960 C   0  0  0  0  0  0  0  0  0  0  0  0
   59.9150   27.1120   46.5670 C   0  0  0  0  0  0  0  0  0  0  0  0
   60.6470   28.0230   47.3370 C   0  0  0  0  0  0  0  0  0  0  0  0
   60.0650   29.2420   47.7350 C   0  0  0  0  0  0  0  0  0  0  0  0
   60.8010   30.2050   48.5090 N   0  0  0  0  0  0  0  0  0  0  0  0
   61.8860   30.9820   47.9820 C   0  0  0  0  0  0  0  0  0  0  0  0
   62.0950   31.0200   46.7400 O   0  0  0  0  0  0  0  0  0  0  0  0
   62.6680   31.8650   48.8610 C   0  0  0  0  0  0  0  0  0  0  0  0
   64.0380   31.7290   49.0700 C   0  0  0  0  0  0  0  0  0  0  0  0
   64.3770   32.7510   49.9300 C   0  0  0  0  0  0  0  0  0  0  0  0
   65.6180   33.1100   50.4500 C   0  0  0  0  0  0  0  0  0  0  0  0
   65.6800   34.2240   51.3140 C   0  0  0  0  0  0  0  0  0  0  0  0
   66.9510   34.6670   51.8300 N   0  0  0  0  0  0  0  0  0  0  0  0
   66.9770   35.5790   52.9780 C   0  0  0  0  0  0  0  0  0  0  0  0
   68.4010   35.7230   53.5310 C   0  0  0  0  0  0  0  0  0  0  0  0
   69.3850   36.0120   52.4680 N   0  0  0  0  0  0  0  0  0  0  0  0
   69.3410   37.4270   52.0590 C   0  0  0  0  0  0  0  0  0  0  0  0
   69.3130   35.1010   51.2920 C   0  0  0  0  0  0  0  0  0  0  0  0
   68.1990   34.0450   51.3770 C   0  0  0  0  0  0  0  0  0  0  0  0
   64.4910   34.9310   51.6360 C   0  0  0  0  0  0  0  0  0  0  0  0
   63.2530   34.5450   51.0880 C   0  0  0  0  0  0  0  0  0  0  0  0
   63.2330   33.4450   50.2270 C   0  0  0  0  0  0  0  0  0  0  0  0
   62.1760   32.9150   49.5740 N   0  0  0  0  0  0  0  0  0  0  0  0
   60.7990   33.3060   49.7190 C   0  0  0  0  0  0  0  0  0  0  0  0
   60.3140   33.4410   50.8750 O   0  0  0  0  0  0  0  0  0  0  0  0
   59.9320   33.4990   48.5290 C   0  0  0  0  0  0  0  0  0  0  0  0
   60.3080   34.4020   47.5150 C   0  0  0  0  0  0  0  0  0  0  0  0
   59.4740   34.6200   46.4120 C   0  0  0  0  0  0  0  0  0  0  0  0
   58.2610   33.9340   46.3020 C   0  0  0  0  0  0  0  0  0  0  0  0
   57.2070   34.2270   44.9320 Cl  0  0  0  0  0  0  0  0  0  0  0  0
   57.8900   33.0170   47.2910 C   0  0  0  0  0  0  0  0  0  0  0  0
   58.7200   32.7950   48.3940 C   0  0  0  0  0  0  0  0  0  0  0  0
   58.7330   29.5120   47.3840 C   0  0  0  0  0  0  0  0  0  0  0  0
   58.0050   28.6010   46.6160 C   0  0  0  0  0  0  0  0  0  0  0  0
   55.7970   24.4360   46.9270 N   0  0  0  0  0  0  0  0  0  0  0  0
   55.3970   22.8326   49.3436 H   0  0  0  0  0  0  0  0  0  0  0  0
   55.1976   21.4248   48.2459 H   0  0  0  0  0  0  0  0  0  0  0  0
   56.7355   22.3530   48.2459 H   0  0  0  0  0  0  0  0  0  0  0  0
   53.2537   22.2026   47.0179 H   0  0  0  0  0  0  0  0  0  0  0  0
   51.2634   23.6251   45.8930 H   0  0  0  0  0  0  0  0  0  0  0  0
   51.7738   24.6178   44.4856 H   0  0  0  0  0  0  0  0  0  0  0  0
   52.0616   22.8447   44.4856 H   0  0  0  0  0  0  0  0  0  0  0  0
   60.3771   26.1648   46.2518 H   0  0  0  0  0  0  0  0  0  0  0  0
   61.6799   27.7862   47.6322 H   0  0  0  0  0  0  0  0  0  0  0  0
   60.3910   30.5100   49.4210 H   0  0  0  0  0  0  0  0  0  0  0  0
   64.7066   30.9684   48.6405 H   0  0  0  0  0  0  0  0  0  0  0  0
   66.5242   32.5413   50.1945 H   0  0  0  0  0  0  0  0  0  0  0  0
   66.6121   36.5672   52.6612 H   0  0  0  0  0  0  0  0  0  0  0  0
   66.3330   35.1669   53.7688 H   0  0  0  0  0  0  0  0  0  0  0  0
   68.4161   36.5456   54.2611 H   0  0  0  0  0  0  0  0  0  0  0  0
   68.6800   34.7675   53.9992 H   0  0  0  0  0  0  0  0  0  0  0  0
   69.3211   38.0668   52.9536 H   0  0  0  0  0  0  0  0  0  0  0  0
   70.2322   37.6631   51.4591 H   0  0  0  0  0  0  0  0  0  0  0  0
   68.4368   37.6073   51.4591 H   0  0  0  0  0  0  0  0  0  0  0  0
   69.1411   35.7115   50.3933 H   0  0  0  0  0  0  0  0  0  0  0  0
   70.2657   34.5520   51.2601 H   0  0  0  0  0  0  0  0  0  0  0  0
   68.0438   33.5987   50.3837 H   0  0  0  0  0  0  0  0  0  0  0  0
   68.4948   33.2655   52.0946 H   0  0  0  0  0  0  0  0  0  0  0  0
   64.5380   35.7900   52.3215 H   0  0  0  0  0  0  0  0  0  0  0  0
   62.3302   35.0925   51.3302 H   0  0  0  0  0  0  0  0  0  0  0  0
   61.2645   34.9400   47.5906 H   0  0  0  0  0  0  0  0  0  0  0  0
   59.7739   35.3329   45.6299 H   0  0  0  0  0  0  0  0  0  0  0  0
   56.9410   32.4681   47.2005 H   0  0  0  0  0  0  0  0  0  0  0  0
   58.4241   32.0651   49.1619 H   0  0  0  0  0  0  0  0  0  0  0  0
   58.2595   30.4476   47.7162 H   0  0  0  0  0  0  0  0  0  0  0  0
   56.9642   28.8259   46.3400 H   0  0  0  0  0  0  0  0  0  0  0  0
  1  2  1  0
  2  3  1  0
  3  4  2  0
  4  5  1  0
  4  6  1  0
  6  7  1  0
  7  8  2  3
  8  9  1  0
  9 10  2  0
  9 11  2  0
  9 12  1  0
 12 13  2  0
 13 14  1  0
 14 15  2  0
 15 16  1  0
 16 17  1  0
 17 18  2  0
 17 19  1  0
 19 20  2  0
 20 21  1  0
 21 22  2  0
 22 23  1  0
 23 24  1  0
 24 25  1  0
 25 26  1  0
 26 27  1  0
 27 28  1  0
 27 29  1  0
 29 30  1  0
 23 31  2  0
 31 32  1  0
 32 33  2  0
 33 34  1  0
 34 35  1  0
 35 36  2  0
 35 37  1  0
 37 38  2  0
 38 39  1  0
 39 40  2  0
 40 41  1  0
 40 42  1  0
 42 43  2  0
 15 44  1  0
 44 45  2  0
  7 46  1  0
 46  2  2  0
 45 12  1  0
 34 19  1  0
 43 37  1  0
 33 21  1  0
 30 24  1  0
  1 47  1  0
  1 48  1  0
  1 49  1  0
  3 50  1  0
  5 51  1  0
  5 52  1  0
  5 53  1  0
 13 54  1  0
 14 55  1  0
 16 56  1  0
 20 57  1  0
 22 58  1  0
 25 59  1  0
 25 60  1  0
 26 61  1  0
 26 62  1  0
 28 63  1  0
 28 64  1  0
 28 65  1  0
 29 66  1  0
 29 67  1  0
 30 68  1  0
 30 69  1  0
 31 70  1  0
 32 71  1  0
 38 72  1  0
 39 73  1  0
 42 74  1  0
 43 75  1  0
 44 76  1  0
 45 77  1  0
M  CHG  1   6  -1
M  END
>  <UniqueID>  (78) 
71

>  <SMILES>  (78) 
Cc1cc(C)[n-]c(=NS(=O)(=O)c2ccc(NC(=O)c3cc4cc(N5CCN(C)CC5)ccc4n3C(=O)c3ccc(Cl)cc3)cc2)n1

>  <Energy>  (78) 
146.6879500038376

>  <Genealogy>  (78) 
Cc1cc(C)[n-]c(=NS(=O)(=O)c2ccc(NC(=O)c3cc4cc(N5CCN(C)CC5)ccc4n3C(=O)c3ccc(Cl)cc3)cc2)n1 (protonated)
Cc1cc(C)[n-]c(=NS(=O)(=O)c2ccc(NC(=O)c3cc4cc(N5CCN(C)CC5)ccc4n3C(=O)c3ccc(Cl)cc3)cc2)n1 (3D coordinates assigned)
Cc1cc(C)[n-]c(=NS(=O)(=O)c2ccc(NC(=O)c3cc4cc(N5CCN(C)CC5)ccc4n3C(=O)c3ccc(Cl)cc3)cc2)n1 (nonaromatic ring conformer: 146.6879500038376 kcal/mol)

>  <smiles>  (78) 
Cc1cc(C)[nH]c(=NS(=O)(=O)c2ccc(NC(=O)c3cc4cc(N5CCN(C)CC5)ccc4n3C(=O)c3ccc(Cl)cc3)cc2)n1

>  <score_type>  (78) 
oracle

>  <origin>  (78) 
adg

>  <m_score__min__energy>  (78) 
-11.720000000000001

>  <m_primary>  (78) 
energy

$$$$
79:0
     RDKit          3D

 54 56  0  0  0  0  0  0  0  0999 V2000
   64.6550   32.7270   49.3750 C   0  0  0  0  0  0  0  0  0  0  0  0
   63.4950   33.0790   48.5050 C   0  0  0  0  0  0  0  0  0  0  0  0
   63.3370   32.7170   47.1800 C   0  0  0  0  0  0  0  0  0  0  0  0
   62.1090   33.2190   46.8000 C   0  0  0  0  0  0  0  0  0  0  0  0
   61.5970   33.8450   47.9220 C   0  0  0  0  0  0  0  0  0  0  0  0
   60.2740   34.5410   48.0050 C   0  0  0  0  0  0  0  0  0  0  0  0
   59.3800   33.8430   48.9240 N   0  0  0  0  0  0  0  0  0  0  0  0
   59.1820   32.4230   49.0030 C   0  0  0  0  0  0  0  0  0  0  0  0
   58.5540   31.8500   48.0740 O   0  0  0  0  0  0  0  0  0  0  0  0
   59.6770   31.5950   50.1650 C   0  0  0  0  0  0  0  0  0  0  0  0
   58.6280   30.5580   50.5940 C   0  0  0  0  0  0  0  0  0  0  0  0
   59.2910   29.2620   51.0910 C   0  0  0  0  0  0  0  0  0  0  0  0
   60.4380   28.9070   50.2600 N   0  0  0  0  0  0  0  0  0  0  0  0
   60.3980   28.0040   49.1440 C   0  0  0  0  0  0  0  0  0  0  0  0
   60.9100   26.8600   49.2650 O   0  0  0  0  0  0  0  0  0  0  0  0
   59.7390   28.3620   47.8730 C   0  0  0  0  0  0  0  0  0  0  0  0
   60.3220   29.3140   47.0250 C   0  0  0  0  0  0  0  0  0  0  0  0
   59.7240   29.6290   45.8020 C   0  0  0  0  0  0  0  0  0  0  0  0
   58.5210   29.0160   45.4200 C   0  0  0  0  0  0  0  0  0  0  0  0
   57.9560   29.3500   44.1450 N   0  0  0  0  0  0  0  0  0  0  0  0
   56.8290   30.6370   43.8620 S   0  0  0  0  0  0  0  0  0  0  0  0
   55.5280   30.3360   44.5600 O   0  0  0  0  0  0  0  0  0  0  0  0
   56.5660   30.7500   42.3870 O   0  0  0  0  0  0  0  0  0  0  0  0
   57.5120   32.1550   44.4400 C   0  0  0  0  0  0  0  0  0  0  0  0
   58.4830   32.8360   43.6870 C   0  0  0  0  0  0  0  0  0  0  0  0
   58.9970   34.0550   44.1420 C   0  0  0  0  0  0  0  0  0  0  0  0
   58.5470   34.5970   45.3510 C   0  0  0  0  0  0  0  0  0  0  0  0
   57.5820   33.9200   46.1050 C   0  0  0  0  0  0  0  0  0  0  0  0
   57.0610   32.7020   45.6500 C   0  0  0  0  0  0  0  0  0  0  0  0
   57.9230   28.0850   46.2830 C   0  0  0  0  0  0  0  0  0  0  0  0
   58.5240   27.7650   47.5030 C   0  0  0  0  0  0  0  0  0  0  0  0
   62.4450   33.7470   48.9220 O   0  0  0  0  0  0  0  0  0  0  0  0
   64.3614   32.8161   50.4313 H   0  0  0  0  0  0  0  0  0  0  0  0
   64.9686   31.6933   49.1675 H   0  0  0  0  0  0  0  0  0  0  0  0
   65.4902   33.4122   49.1675 H   0  0  0  0  0  0  0  0  0  0  0  0
   64.0432   32.1474   46.5581 H   0  0  0  0  0  0  0  0  0  0  0  0
   61.6357   33.1381   45.8103 H   0  0  0  0  0  0  0  0  0  0  0  0
   60.4289   35.5694   48.3634 H   0  0  0  0  0  0  0  0  0  0  0  0
   59.8160   34.5500   47.0049 H   0  0  0  0  0  0  0  0  0  0  0  0
   60.5976   31.0720   49.8667 H   0  0  0  0  0  0  0  0  0  0  0  0
   59.8708   32.2668   51.0142 H   0  0  0  0  0  0  0  0  0  0  0  0
   58.0170   30.9813   51.4049 H   0  0  0  0  0  0  0  0  0  0  0  0
   58.0040   30.3152   49.7213 H   0  0  0  0  0  0  0  0  0  0  0  0
   59.6292   29.4060   52.1278 H   0  0  0  0  0  0  0  0  0  0  0  0
   58.5532   28.4480   51.0349 H   0  0  0  0  0  0  0  0  0  0  0  0
   61.2544   29.8153   47.3237 H   0  0  0  0  0  0  0  0  0  0  0  0
   60.1995   30.3625   45.1342 H   0  0  0  0  0  0  0  0  0  0  0  0
   58.8399   32.4099   42.7377 H   0  0  0  0  0  0  0  0  0  0  0  0
   59.7552   34.5876   43.5491 H   0  0  0  0  0  0  0  0  0  0  0  0
   58.9518   35.5552   45.7087 H   0  0  0  0  0  0  0  0  0  0  0  0
   57.2318   34.3452   47.0571 H   0  0  0  0  0  0  0  0  0  0  0  0
   56.2982   32.1746   46.2417 H   0  0  0  0  0  0  0  0  0  0  0  0
   56.9757   27.6044   45.9973 H   0  0  0  0  0  0  0  0  0  0  0  0
   58.0423   27.0413   48.1770 H   0  0  0  0  0  0  0  0  0  0  0  0
  1  2  1  0
  2  3  2  0
  3  4  1  0
  4  5  2  0
  5  6  1  0
  6  7  1  0
  7  8  1  0
  8  9  2  0
  8 10  1  0
 10 11  1  0
 11 12  1  0
 12 13  1  0
 13 14  1  0
 14 15  2  0
 14 16  1  0
 16 17  2  0
 17 18  1  0
 18 19  2  0
 19 20  1  0
 20 21  1  0
 21 22  2  0
 21 23  2  0
 21 24  1  0
 24 25  2  0
 25 26  1  0
 26 27  2  0
 27 28  1  0
 28 29  2  0
 19 30  1  0
 30 31  2  0
  5 32  1  0
 32  2  1  0
 31 16  1  0
 29 24  1  0
  1 33  1  0
  1 34  1  0
  1 35  1  0
  3 36  1  0
  4 37  1  0
  6 38  1  0
  6 39  1  0
 10 40  1  0
 10 41  1  0
 11 42  1  0
 11 43  1  0
 12 44  1  0
 12 45  1  0
 17 46  1  0
 18 47  1  0
 25 48  1  0
 26 49  1  0
 27 50  1  0
 28 51  1  0
 29 52  1  0
 30 53  1  0
 31 54  1  0
M  CHG  3   7  -1  13  -1  20  -1
M  END
>  <UniqueID>  (79) 
72

>  <SMILES>  (79) 
Cc1ccc(C[N-]C(=O)CCC[N-]C(=O)c2ccc([N-]S(=O)(=O)c3ccccc3)cc2)o1

>  <Energy>  (79) 
79.1871290043295

>  <Genealogy>  (79) 
Cc1ccc(C[N-]C(=O)CCC[N-]C(=O)c2ccc([N-]S(=O)(=O)c3ccccc3)cc2)o1 (protonated)
Cc1ccc(C[N-]C(=O)CCC[N-]C(=O)c2ccc([N-]S(=O)(=O)c3ccccc3)cc2)o1 (3D coordinates assigned)
Cc1ccc(C[N-]C(=O)CCC[N-]C(=O)c2ccc([N-]S(=O)(=O)c3ccccc3)cc2)o1 (optimized conformer: 79.1871290043295 kcal/mol)

>  <smiles>  (79) 
Cc1ccc(CNC(=O)CCCNC(=O)c2ccc(NS(=O)(=O)c3ccccc3)cc2)o1

>  <score_type>  (79) 
oracle

>  <origin>  (79) 
adg

>  <m_score__min__energy>  (79) 
-13.06

>  <m_primary>  (79) 
energy

$$$$
80:0
     RDKit          3D

 41 42  0  0  0  0  0  0  0  0999 V2000
   63.0090   34.1950   49.9590 C   0  0  0  0  0  0  0  0  0  0  0  0
   62.6410   32.8120   49.3850 C   0  0  0  0  0  0  0  0  0  0  0  0
   63.8470   32.2820   48.5810 C   0  0  0  0  0  0  0  0  0  0  0  0
   62.3440   31.8190   50.5260 C   0  0  0  0  0  0  0  0  0  0  0  0
   61.4750   32.9250   48.4880 N   0  0  0  0  0  0  0  0  0  0  0  0
   61.4950   33.5300   47.1800 C   0  0  0  0  0  0  0  0  0  0  0  0
   62.5590   34.0210   46.7180 O   0  0  0  0  0  0  0  0  0  0  0  0
   60.2760   33.5880   46.3540 C   0  0  0  0  0  0  0  0  0  0  0  0
   59.6940   32.4900   45.8240 N   0  0  0  0  0  0  0  0  0  0  0  0
   58.5780   32.7860   45.0980 C   0  0  0  0  0  0  0  0  0  0  0  0
   57.7810   31.7210   44.4360 C   0  0  0  0  0  0  0  0  0  0  0  0
   57.5690   31.7720   43.0460 C   0  0  0  0  0  0  0  0  0  0  0  0
   56.8230   30.7820   42.4040 C   0  0  0  0  0  0  0  0  0  0  0  0
   56.2740   29.7310   43.1390 C   0  0  0  0  0  0  0  0  0  0  0  0
   56.4620   29.6600   44.5230 C   0  0  0  0  0  0  0  0  0  0  0  0
   55.8730   28.5650   45.2370 N   0  0  0  0  0  0  0  0  0  0  0  0
   56.7090   27.1310   45.7370 S   0  0  0  0  0  0  0  0  0  0  0  0
   57.9100   27.5650   46.9740 C   0  0  0  0  0  0  0  0  0  0  0  0
   55.7330   26.1480   46.3220 O   0  0  0  0  0  0  0  0  0  0  0  0
   57.4160   26.5150   44.5610 O   0  0  0  0  0  0  0  0  0  0  0  0
   57.2150   30.6590   45.1690 C   0  0  0  0  0  0  0  0  0  0  0  0
   58.2650   34.1480   45.0540 C   0  0  0  0  0  0  0  0  0  0  0  0
   59.4230   34.9780   45.9460 S   0  0  0  0  0  0  0  0  0  0  0  0
   62.9972   34.1508   51.0580 H   0  0  0  0  0  0  0  0  0  0  0  0
   64.0141   34.4795   49.6142 H   0  0  0  0  0  0  0  0  0  0  0  0
   62.2782   34.9414   49.6142 H   0  0  0  0  0  0  0  0  0  0  0  0
   64.6282   31.9387   49.2752 H   0  0  0  0  0  0  0  0  0  0  0  0
   63.5249   31.4425   47.9474 H   0  0  0  0  0  0  0  0  0  0  0  0
   64.2476   33.0870   47.9474 H   0  0  0  0  0  0  0  0  0  0  0  0
   62.4933   32.3183   51.4947 H   0  0  0  0  0  0  0  0  0  0  0  0
   61.3029   31.4724   50.4487 H   0  0  0  0  0  0  0  0  0  0  0  0
   63.0239   30.9577   50.4487 H   0  0  0  0  0  0  0  0  0  0  0  0
   60.5620   32.5380   48.8210 H   0  0  0  0  0  0  0  0  0  0  0  0
   57.9950   32.5996   42.4598 H   0  0  0  0  0  0  0  0  0  0  0  0
   56.6677   30.8307   41.3161 H   0  0  0  0  0  0  0  0  0  0  0  0
   55.6893   28.9529   42.6265 H   0  0  0  0  0  0  0  0  0  0  0  0
   57.4791   27.4093   47.9740 H   0  0  0  0  0  0  0  0  0  0  0  0
   58.8022   26.9324   46.8567 H   0  0  0  0  0  0  0  0  0  0  0  0
   58.1918   28.6218   46.8567 H   0  0  0  0  0  0  0  0  0  0  0  0
   57.3631   30.6099   46.2579 H   0  0  0  0  0  0  0  0  0  0  0  0
   57.4103   34.5978   44.5276 H   0  0  0  0  0  0  0  0  0  0  0  0
  1  2  1  0
  2  3  1  0
  2  4  1  0
  2  5  1  0
  5  6  1  0
  6  7  2  0
  6  8  1  0
  8  9  2  0
  9 10  1  0
 10 11  1  0
 11 12  2  0
 12 13  1  0
 13 14  2  0
 14 15  1  0
 15 16  1  0
 16 17  1  0
 17 18  1  0
 17 19  2  0
 17 20  2  0
 15 21  2  0
 10 22  2  0
 22 23  1  0
 23  8  1  0
 21 11  1  0
  1 24  1  0
  1 25  1  0
  1 26  1  0
  3 27  1  0
  3 28  1  0
  3 29  1  0
  4 30  1  0
  4 31  1  0
  4 32  1  0
  5 33  1  0
 12 34  1  0
 13 35  1  0
 14 36  1  0
 18 37  1  0
 18 38  1  0
 18 39  1  0
 21 40  1  0
 22 41  1  0
M  CHG  1  16  -1
M  END
>  <UniqueID>  (80) 
73

>  <SMILES>  (80) 
CC(C)(C)NC(=O)c1nc(-c2cccc([N-]S(C)(=O)=O)c2)cs1

>  <Energy>  (80) 
66.44638934649754

>  <Genealogy>  (80) 
CC(C)(C)NC(=O)c1nc(-c2cccc([N-]S(C)(=O)=O)c2)cs1 (protonated)
CC(C)(C)NC(=O)c1nc(-c2cccc([N-]S(C)(=O)=O)c2)cs1 (3D coordinates assigned)
CC(C)(C)NC(=O)c1nc(-c2cccc([N-]S(C)(=O)=O)c2)cs1 (optimized conformer: 66.44638934649754 kcal/mol)

>  <smiles>  (80) 
CC(C)(C)NC(=O)c1nc(-c2cccc(NS(C)(=O)=O)c2)cs1

>  <score_type>  (80) 
oracle

>  <origin>  (80) 
adg

>  <m_score__min__energy>  (80) 
-10.24

>  <m_primary>  (80) 
energy

$$$$
81:0
     RDKit          3D

105110  0  0  0  0  0  0  0  0999 V2000
   59.0630   30.1150   44.4560 C   0  0  0  0  0  0  0  0  0  0  0  0
   59.4270   29.7960   45.8950 C   0  0  0  0  0  0  0  0  0  0  0  0
   59.6000   30.8530   46.8220 C   0  0  0  0  0  0  0  0  0  0  0  0
   59.3930   32.2770   46.4560 C   0  0  0  0  0  0  0  0  0  0  0  0
   58.1950   32.6470   45.8190 C   0  0  0  0  0  0  0  0  0  0  0  0
   57.9600   33.9780   45.4690 C   0  0  0  0  0  0  0  0  0  0  0  0
   58.9030   34.9590   45.7820 C   0  0  0  0  0  0  0  0  0  0  0  0
   60.0930   34.6040   46.4200 C   0  0  0  0  0  0  0  0  0  0  0  0
   60.3710   33.2590   46.7330 C   0  0  0  0  0  0  0  0  0  0  0  0
   61.6060   32.8980   47.3780 N   0  0  0  0  0  0  0  0  0  0  0  0
   62.8790   33.4490   47.0010 C   0  0  0  0  0  0  0  0  0  0  0  0
   62.9770   34.2050   45.9960 O   0  0  0  0  0  0  0  0  0  0  0  0
   64.1250   33.0730   47.7420 C   0  0  0  0  0  0  0  0  0  0  0  0
   63.8670   33.1090   49.2500 C   0  0  0  0  0  0  0  0  0  0  0  0
   64.9620   32.4320   50.0310 C   0  0  0  0  0  0  0  0  0  0  0  0
   66.1660   32.7270   49.7880 O   0  0  0  0  0  0  0  0  0  0  0  0
   64.6620   31.4790   51.0700 N   0  0  0  0  0  0  0  0  0  0  0  0
   65.6480   30.4360   51.3860 C   0  0  0  0  0  0  0  0  0  0  0  0
   65.0270   29.3200   52.2460 C   0  0  0  0  0  0  0  0  0  0  0  0
   63.5870   28.9730   51.7600 C   0  0  0  0  0  0  0  0  0  0  0  0
   62.9370   27.8380   52.4930 N   0  0  0  0  0  0  0  0  0  0  0  0
   62.1330   26.9430   51.6180 C   0  0  0  0  0  0  0  0  0  0  0  0
   61.4620   25.7910   52.4010 C   0  0  0  0  0  0  0  0  0  0  0  0
   61.6800   25.9000   53.9070 C   0  0  0  0  0  0  0  0  0  0  0  0
   61.3210   27.3030   54.3720 C   0  0  0  0  0  0  0  0  0  0  0  0
   62.0860   28.3890   53.5860 C   0  0  0  0  0  0  0  0  0  0  0  0
   62.6750   30.2320   51.8490 C   0  0  0  0  0  0  0  0  0  0  0  0
   63.4390   31.5660   51.8770 C   0  0  0  0  0  0  0  0  0  0  0  0
   59.9300   30.5410   48.1410 C   0  0  0  0  0  0  0  0  0  0  0  0
   60.0960   31.4760   48.9790 O   0  0  0  0  0  0  0  0  0  0  0  0
   60.0590   29.2430   48.5370 N   0  0  0  0  0  0  0  0  0  0  0  0
   60.3340   28.9400   49.9570 C   0  0  0  0  0  0  0  0  0  0  0  0
   59.3860   29.7200   50.8790 C   0  0  0  0  0  0  0  0  0  0  0  0
   59.1710   28.9700   52.1940 C   0  0  0  0  0  0  0  0  0  0  0  0
   57.7930   29.1770   52.7430 C   0  0  0  0  0  0  0  0  0  0  0  0
   57.4490   28.6470   53.8390 O   0  0  0  0  0  0  0  0  0  0  0  0
   56.8370   29.8840   51.9610 N   0  0  0  0  0  0  0  0  0  0  0  0
   56.4140   31.2480   52.2960 C   0  0  0  0  0  0  0  0  0  0  0  0
   57.6190   32.1390   52.2780 C   0  0  0  0  0  0  0  0  0  0  0  0
   58.1350   32.6110   51.0620 C   0  0  0  0  0  0  0  0  0  0  0  0
   59.3350   33.3370   51.0360 C   0  0  0  0  0  0  0  0  0  0  0  0
   60.0310   33.5700   52.2250 C   0  0  0  0  0  0  0  0  0  0  0  0
   59.5250   33.1010   53.4430 C   0  0  0  0  0  0  0  0  0  0  0  0
   58.3270   32.3870   53.4630 C   0  0  0  0  0  0  0  0  0  0  0  0
   59.9570   28.2290   47.6220 C   0  0  0  0  0  0  0  0  0  0  0  0
   60.1440   27.0400   48.0040 O   0  0  0  0  0  0  0  0  0  0  0  0
   59.6520   28.4940   46.3030 N   0  0  0  0  0  0  0  0  0  0  0  0
   59.5150   27.3560   45.3540 C   0  0  0  0  0  0  0  0  0  0  0  0
   58.3830   26.4220   45.7360 C   0  0  0  0  0  0  0  0  0  0  0  0
   58.6330   25.0770   46.0620 C   0  0  0  0  0  0  0  0  0  0  0  0
   59.8840   24.5680   46.0050 F   0  0  0  0  0  0  0  0  0  0  0  0
   57.5900   24.2470   46.4790 C   0  0  0  0  0  0  0  0  0  0  0  0
   56.2980   24.7560   46.6010 C   0  0  0  0  0  0  0  0  0  0  0  0
   56.0370   26.0900   46.2970 C   0  0  0  0  0  0  0  0  0  0  0  0
   57.0750   26.9260   45.8760 C   0  0  0  0  0  0  0  0  0  0  0  0
   56.8050   28.2340   45.6310 F   0  0  0  0  0  0  0  0  0  0  0  0
   58.2358   30.8399   44.4391 H   0  0  0  0  0  0  0  0  0  0  0  0
   59.9367   30.5436   43.9432 H   0  0  0  0  0  0  0  0  0  0  0  0
   58.7528   29.1926   43.9432 H   0  0  0  0  0  0  0  0  0  0  0  0
   57.4372   31.8818   45.5948 H   0  0  0  0  0  0  0  0  0  0  0  0
   57.0320   34.2538   44.9467 H   0  0  0  0  0  0  0  0  0  0  0  0
   58.7084   36.0110   45.5261 H   0  0  0  0  0  0  0  0  0  0  0  0
   60.8227   35.3844   46.6816 H   0  0  0  0  0  0  0  0  0  0  0  0
   61.5900   32.1470   48.1110 H   0  0  0  0  0  0  0  0  0  0  0  0
   64.4311   32.0580   47.4488 H   0  0  0  0  0  0  0  0  0  0  0  0
   64.9227   33.7889   47.4945 H   0  0  0  0  0  0  0  0  0  0  0  0
   63.7986   34.1584   49.5727 H   0  0  0  0  0  0  0  0  0  0  0  0
   62.9293   32.5681   49.4450 H   0  0  0  0  0  0  0  0  0  0  0  0
   66.0209   29.9996   50.4477 H   0  0  0  0  0  0  0  0  0  0  0  0
   66.4692   30.8961   51.9551 H   0  0  0  0  0  0  0  0  0  0  0  0
   65.6563   28.4205   52.1764 H   0  0  0  0  0  0  0  0  0  0  0  0
   64.9694   29.6717   53.2867 H   0  0  0  0  0  0  0  0  0  0  0  0
   63.7030   28.6400   50.7180 H   0  0  0  0  0  0  0  0  0  0  0  0
   61.3491   27.5399   51.1290 H   0  0  0  0  0  0  0  0  0  0  0  0
   62.8174   26.4924   50.8841 H   0  0  0  0  0  0  0  0  0  0  0  0
   60.3808   25.8108   52.1992 H   0  0  0  0  0  0  0  0  0  0  0  0
   61.9203   24.8490   52.0654 H   0  0  0  0  0  0  0  0  0  0  0  0
   61.0417   25.1681   54.4236 H   0  0  0  0  0  0  0  0  0  0  0  0
   62.7355   25.6958   54.1400 H   0  0  0  0  0  0  0  0  0  0  0  0
   60.2411   27.4578   54.2313 H   0  0  0  0  0  0  0  0  0  0  0  0
   61.6021   27.3908   55.4318 H   0  0  0  0  0  0  0  0  0  0  0  0
   61.3538   29.0803   53.1433 H   0  0  0  0  0  0  0  0  0  0  0  0
   62.7563   28.8939   54.2971 H   0  0  0  0  0  0  0  0  0  0  0  0
   62.0069   30.2359   50.9751 H   0  0  0  0  0  0  0  0  0  0  0  0
   62.1313   30.1603   52.8025 H   0  0  0  0  0  0  0  0  0  0  0  0
   62.7945   32.3601   51.4719 H   0  0  0  0  0  0  0  0  0  0  0  0
   63.7162   31.7937   52.9169 H   0  0  0  0  0  0  0  0  0  0  0  0
   60.1963   27.8621   50.1281 H   0  0  0  0  0  0  0  0  0  0  0  0
   61.3683   29.2371   50.1851 H   0  0  0  0  0  0  0  0  0  0  0  0
   59.8220   30.7068   51.0935 H   0  0  0  0  0  0  0  0  0  0  0  0
   58.4154   29.8327   50.3739 H   0  0  0  0  0  0  0  0  0  0  0  0
   59.3248   27.8951   52.0183 H   0  0  0  0  0  0  0  0  0  0  0  0
   59.8901   29.3618   52.9284 H   0  0  0  0  0  0  0  0  0  0  0  0
   55.6807   31.6011   51.5560 H   0  0  0  0  0  0  0  0  0  0  0  0
   55.9492   31.2637   53.2929 H   0  0  0  0  0  0  0  0  0  0  0  0
   57.5960   32.4108   50.1242 H   0  0  0  0  0  0  0  0  0  0  0  0
   59.7268   33.7216   50.0828 H   0  0  0  0  0  0  0  0  0  0  0  0
   60.9808   34.1245   52.2038 H   0  0  0  0  0  0  0  0  0  0  0  0
   60.0692   33.2945   54.3792 H   0  0  0  0  0  0  0  0  0  0  0  0
   57.9327   32.0139   54.4197 H   0  0  0  0  0  0  0  0  0  0  0  0
   59.3197   27.7557   44.3480 H   0  0  0  0  0  0  0  0  0  0  0  0
   60.4514   26.7794   45.3821 H   0  0  0  0  0  0  0  0  0  0  0  0
   57.7883   23.1903   46.7115 H   0  0  0  0  0  0  0  0  0  0  0  0
   55.4811   24.1013   46.9388 H   0  0  0  0  0  0  0  0  0  0  0  0
   55.0146   26.4853   46.3882 H   0  0  0  0  0  0  0  0  0  0  0  0
  1  2  1  0
  2  3  2  0
  3  4  1  0
  4  5  2  0
  5  6  1  0
  6  7  2  0
  7  8  1  0
  8  9  2  0
  9 10  1  0
 10 11  1  0
 11 12  2  0
 11 13  1  0
 13 14  1  0
 14 15  1  0
 15 16  2  0
 15 17  1  0
 17 18  1  0
 18 19  1  0
 19 20  1  0
 20 21  1  0
 21 22  1  0
 22 23  1  0
 23 24  1  0
 24 25  1  0
 25 26  1  0
 20 27  1  0
 27 28  1  0
  3 29  1  0
 29 30  2  0
 29 31  1  0
 31 32  1  0
 32 33  1  0
 33 34  1  0
 34 35  1  0
 35 36  2  0
 35 37  1  0
 37 38  1  0
 38 39  1  0
 39 40  2  0
 40 41  1  0
 41 42  2  0
 42 43  1  0
 43 44  2  0
 31 45  1  0
 45 46  2  0
 45 47  1  0
 47 48  1  0
 48 49  1  0
 49 50  2  0
 50 51  1  0
 50 52  1  0
 52 53  2  0
 53 54  1  0
 54 55  2  0
 55 56  1  0
 47  2  1  0
 55 49  1  0
  9  4  1  0
 28 17  1  0
 44 39  1  0
 26 21  1  0
  1 57  1  0
  1 58  1  0
  1 59  1  0
  5 60  1  0
  6 61  1  0
  7 62  1  0
  8 63  1  0
 10 64  1  0
 13 65  1  0
 13 66  1  0
 14 67  1  0
 14 68  1  0
 18 69  1  0
 18 70  1  0
 19 71  1  0
 19 72  1  0
 20 73  1  0
 22 74  1  0
 22 75  1  0
 23 76  1  0
 23 77  1  0
 24 78  1  0
 24 79  1  0
 25 80  1  0
 25 81  1  0
 26 82  1  0
 26 83  1  0
 27 84  1  0
 27 85  1  0
 28 86  1  0
 28 87  1  0
 32 88  1  0
 32 89  1  0
 33 90  1  0
 33 91  1  0
 34 92  1  0
 34 93  1  0
 38 94  1  0
 38 95  1  0
 40 96  1  0
 41 97  1  0
 42 98  1  0
 43 99  1  0
 44100  1  0
 48101  1  0
 48102  1  0
 52103  1  0
 53104  1  0
 54105  1  0
M  CHG  1  37  -1
M  END
>  <UniqueID>  (81) 
74

>  <SMILES>  (81) 
Cc1c(-c2ccccc2NC(=O)CCC(=O)N2CCC(N3CCCCC3)CC2)c(=O)n(CCCC(=O)[N-]Cc2ccccc2)c(=O)n1Cc1c(F)cccc1F

>  <Energy>  (81) 
142.0081486507022

>  <Genealogy>  (81) 
Cc1c(-c2ccccc2NC(=O)CCC(=O)N2CCC(N3CCCCC3)CC2)c(=O)n(CCCC(=O)[N-]Cc2ccccc2)c(=O)n1Cc1c(F)cccc1F (protonated)
Cc1c(-c2ccccc2NC(=O)CCC(=O)N2CCC(N3CCCCC3)CC2)c(=O)n(CCCC(=O)[N-]Cc2ccccc2)c(=O)n1Cc1c(F)cccc1F (3D coordinates assigned)
Cc1c(-c2ccccc2NC(=O)CCC(=O)N2CCC(N3CCCCC3)CC2)c(=O)n(CCCC(=O)[N-]Cc2ccccc2)c(=O)n1Cc1c(F)cccc1F (nonaromatic ring conformer: 142.0081486507022 kcal/mol)

>  <smiles>  (81) 
Cc1c(-c2ccccc2NC(=O)CCC(=O)N2CCC(N3CCCCC3)CC2)c(=O)n(CCCC(=O)NCc2ccccc2)c(=O)n1Cc1c(F)cccc1F

>  <score_type>  (81) 
oracle

>  <origin>  (81) 
adg

>  <m_score__min__energy>  (81) 
-13.029999999999999

>  <m_primary>  (81) 
energy

$$$$
82:0
     RDKit          3D

 79 83  0  0  0  0  0  0  0  0999 V2000
   57.8140   32.5000   51.6230 C   0  0  0  0  0  0  0  0  0  0  0  0
   58.7540   33.4960   52.2950 C   0  0  0  0  0  0  0  0  0  0  0  0
   60.1490   32.9570   52.3420 C   0  0  0  0  0  0  0  0  0  0  0  0
   60.8650   33.1680   53.3580 O   0  0  0  0  0  0  0  0  0  0  0  0
   60.6710   32.2420   51.2200 N   0  0  0  0  0  0  0  0  0  0  0  0
   61.0800   30.5600   51.2890 S   0  0  0  0  0  0  0  0  0  0  0  0
   62.5690   30.4020   51.1600 O   0  0  0  0  0  0  0  0  0  0  0  0
   60.6480   29.9960   52.6150 O   0  0  0  0  0  0  0  0  0  0  0  0
   60.2960   29.7030   49.9630 C   0  0  0  0  0  0  0  0  0  0  0  0
   60.8860   28.5490   49.4320 C   0  0  0  0  0  0  0  0  0  0  0  0
   60.3000   27.8950   48.3440 C   0  0  0  0  0  0  0  0  0  0  0  0
   59.1280   28.4000   47.7620 C   0  0  0  0  0  0  0  0  0  0  0  0
   58.5450   27.7370   46.6280 N   0  0  0  0  0  0  0  0  0  0  0  0
   58.3830   26.4240   46.5630 N   0  0  0  0  0  0  0  0  0  0  0  0
   57.8120   26.1330   45.3750 C   0  0  0  0  0  0  0  0  0  0  0  0
   57.5190   24.7460   44.9290 C   0  0  0  0  0  0  0  0  0  0  0  0
   56.9140   24.5110   43.7500 C   0  0  0  0  0  0  0  0  0  0  0  0
   56.6570   23.1260   43.2280 C   0  0  0  0  0  0  0  0  0  0  0  0
   56.8070   22.0450   44.3080 C   0  0  0  0  0  0  0  0  0  0  0  0
   57.9500   22.3030   45.2050 N   0  0  0  0  0  0  0  0  0  0  0  0
   59.2460   22.1820   44.5150 C   0  0  0  0  0  0  0  0  0  0  0  0
   57.8060   23.6050   45.8830 C   0  0  0  0  0  0  0  0  0  0  0  0
   57.6140   27.3040   44.6590 C   0  0  0  0  0  0  0  0  0  0  0  0
   58.0870   28.3010   45.4870 C   0  0  0  0  0  0  0  0  0  0  0  0
   58.2730   29.7130   45.0960 C   0  0  0  0  0  0  0  0  0  0  0  0
   59.1270   29.9980   44.2180 O   0  0  0  0  0  0  0  0  0  0  0  0
   57.5060   30.7680   45.6860 N   0  0  0  0  0  0  0  0  0  0  0  0
   57.8150   32.1860   45.5530 C   0  0  0  0  0  0  0  0  0  0  0  0
   59.0520   32.5110   46.3410 C   0  0  0  0  0  0  0  0  0  0  0  0
   59.1510   33.7320   47.0240 C   0  0  0  0  0  0  0  0  0  0  0  0
   60.2940   34.0360   47.7670 C   0  0  0  0  0  0  0  0  0  0  0  0
   61.3670   33.1290   47.8330 C   0  0  0  0  0  0  0  0  0  0  0  0
   62.5820   33.4660   48.6170 C   0  0  0  0  0  0  0  0  0  0  0  0
   63.3410   34.3980   48.2210 O   0  0  0  0  0  0  0  0  0  0  0  0
   62.9010   32.7660   49.8310 N   0  0  0  0  0  0  0  0  0  0  0  0
   64.1900   32.8570   50.4570 C   0  0  0  0  0  0  0  0  0  0  0  0
   65.3210   33.0560   49.6510 C   0  0  0  0  0  0  0  0  0  0  0  0
   66.5960   33.1180   50.2190 C   0  0  0  0  0  0  0  0  0  0  0  0
   66.7540   32.9930   51.5990 C   0  0  0  0  0  0  0  0  0  0  0  0
   65.6340   32.8210   52.4180 C   0  0  0  0  0  0  0  0  0  0  0  0
   64.3450   32.7680   51.8620 C   0  0  0  0  0  0  0  0  0  0  0  0
   63.2120   32.6840   52.7360 N   0  0  0  0  0  0  0  0  0  0  0  0
   61.2740   31.9160   47.1260 C   0  0  0  0  0  0  0  0  0  0  0  0
   60.1250   31.6080   46.3920 C   0  0  0  0  0  0  0  0  0  0  0  0
   58.5260   29.5440   48.3130 C   0  0  0  0  0  0  0  0  0  0  0  0
   59.1090   30.1930   49.4050 C   0  0  0  0  0  0  0  0  0  0  0  0
   57.2745   31.9284   52.3925 H   0  0  0  0  0  0  0  0  0  0  0  0
   57.0917   33.0432   50.9960 H   0  0  0  0  0  0  0  0  0  0  0  0
   58.3980   31.8103   50.9960 H   0  0  0  0  0  0  0  0  0  0  0  0
   58.7495   34.4374   51.7260 H   0  0  0  0  0  0  0  0  0  0  0  0
   58.4073   33.6708   53.3242 H   0  0  0  0  0  0  0  0  0  0  0  0
   61.8140   28.1557   49.8727 H   0  0  0  0  0  0  0  0  0  0  0  0
   60.7603   26.9801   47.9426 H   0  0  0  0  0  0  0  0  0  0  0  0
   56.5939   25.3702   43.1423 H   0  0  0  0  0  0  0  0  0  0  0  0
   55.6324   23.0851   42.8299 H   0  0  0  0  0  0  0  0  0  0  0  0
   57.4063   22.9217   42.4490 H   0  0  0  0  0  0  0  0  0  0  0  0
   55.8859   22.0151   44.9086 H   0  0  0  0  0  0  0  0  0  0  0  0
   56.9877   21.0858   43.8007 H   0  0  0  0  0  0  0  0  0  0  0  0
   60.0522   22.1067   45.2596 H   0  0  0  0  0  0  0  0  0  0  0  0
   59.2433   21.2802   43.8851 H   0  0  0  0  0  0  0  0  0  0  0  0
   59.4102   23.0687   43.8851 H   0  0  0  0  0  0  0  0  0  0  0  0
   56.9774   23.5345   46.6030 H   0  0  0  0  0  0  0  0  0  0  0  0
   58.7644   23.8245   46.3762 H   0  0  0  0  0  0  0  0  0  0  0  0
   57.1774   27.4135   43.6553 H   0  0  0  0  0  0  0  0  0  0  0  0
   57.9835   32.4256   44.4927 H   0  0  0  0  0  0  0  0  0  0  0  0
   56.9723   32.7799   45.9366 H   0  0  0  0  0  0  0  0  0  0  0  0
   58.3233   34.4548   46.9742 H   0  0  0  0  0  0  0  0  0  0  0  0
   60.3556   34.9933   48.3053 H   0  0  0  0  0  0  0  0  0  0  0  0
   62.1160   32.3780   50.4010 H   0  0  0  0  0  0  0  0  0  0  0  0
   65.2029   33.1641   48.5627 H   0  0  0  0  0  0  0  0  0  0  0  0
   67.4767   33.2657   49.5767 H   0  0  0  0  0  0  0  0  0  0  0  0
   67.7597   33.0297   52.0431 H   0  0  0  0  0  0  0  0  0  0  0  0
   65.7632   32.7264   53.5063 H   0  0  0  0  0  0  0  0  0  0  0  0
   62.4230   32.0310   52.5190 H   0  0  0  0  0  0  0  0  0  0  0  0
   63.1750   33.2040   53.6400 H   0  0  0  0  0  0  0  0  0  0  0  0
   62.1124   31.2043   47.1511 H   0  0  0  0  0  0  0  0  0  0  0  0
   60.0615   30.6522   45.8512 H   0  0  0  0  0  0  0  0  0  0  0  0
   57.5906   29.9309   47.8824 H   0  0  0  0  0  0  0  0  0  0  0  0
   58.6341   31.0910   49.8271 H   0  0  0  0  0  0  0  0  0  0  0  0
  1  2  1  0
  2  3  1  0
  3  4  2  0
  3  5  1  0
  5  6  1  0
  6  7  2  0
  6  8  2  0
  6  9  1  0
  9 10  2  0
 10 11  1  0
 11 12  2  0
 12 13  1  0
 13 14  1  0
 14 15  2  0
 15 16  1  0
 16 17  2  0
 17 18  1  0
 18 19  1  0
 19 20  1  0
 20 21  1  0
 20 22  1  0
 15 23  1  0
 23 24  2  0
 24 25  1  0
 25 26  2  0
 25 27  1  0
 27 28  1  0
 28 29  1  0
 29 30  2  0
 30 31  1  0
 31 32  2  0
 32 33  1  0
 33 34  2  0
 33 35  1  0
 35 36  1  0
 36 37  2  0
 37 38  1  0
 38 39  2  0
 39 40  1  0
 40 41  2  0
 41 42  1  0
 32 43  1  0
 43 44  2  0
 12 45  1  0
 45 46  2  0
 46  9  1  0
 24 13  1  0
 44 29  1  0
 22 16  1  0
 41 36  1  0
  1 47  1  0
  1 48  1  0
  1 49  1  0
  2 50  1  0
  2 51  1  0
 10 52  1  0
 11 53  1  0
 17 54  1  0
 18 55  1  0
 18 56  1  0
 19 57  1  0
 19 58  1  0
 21 59  1  0
 21 60  1  0
 21 61  1  0
 22 62  1  0
 22 63  1  0
 23 64  1  0
 28 65  1  0
 28 66  1  0
 30 67  1  0
 31 68  1  0
 35 69  1  0
 37 70  1  0
 38 71  1  0
 39 72  1  0
 40 73  1  0
 42 74  1  0
 42 75  1  0
 43 76  1  0
 44 77  1  0
 45 78  1  0
 46 79  1  0
M  CHG  2   5  -1  27  -1
M  END
>  <UniqueID>  (82) 
75

>  <SMILES>  (82) 
CCC(=O)[N-]S(=O)(=O)c1ccc(-n2nc(C3=CCCN(C)C3)cc2C(=O)[N-]Cc2ccc(C(=O)Nc3ccccc3N)cc2)cc1

>  <Energy>  (82) 
132.72890644369957

>  <Genealogy>  (82) 
CCC(=O)[N-]S(=O)(=O)c1ccc(-n2nc(C3=CCCN(C)C3)cc2C(=O)[N-]Cc2ccc(C(=O)Nc3ccccc3N)cc2)cc1 (protonated)
CCC(=O)[N-]S(=O)(=O)c1ccc(-n2nc(C3=CCCN(C)C3)cc2C(=O)[N-]Cc2ccc(C(=O)Nc3ccccc3N)cc2)cc1 (3D coordinates assigned)
CCC(=O)[N-]S(=O)(=O)c1ccc(-n2nc(C3=CCCN(C)C3)cc2C(=O)[N-]Cc2ccc(C(=O)Nc3ccccc3N)cc2)cc1 (nonaromatic ring conformer: 132.72890644369957 kcal/mol)

>  <smiles>  (82) 
CCC(=O)NS(=O)(=O)c1ccc(-n2nc(C3=CCCN(C)C3)cc2C(=O)NCc2ccc(C(=O)Nc3ccccc3N)cc2)cc1

>  <score_type>  (82) 
oracle

>  <origin>  (82) 
adg

>  <m_score__min__energy>  (82) 
-12.32

>  <m_primary>  (82) 
energy

$$$$
83:0
     RDKit          3D

 34 35  0  0  0  0  0  0  0  0999 V2000
   55.6550   24.6120   46.7340 O   0  0  0  0  0  0  0  0  0  0  0  0
   56.0550   25.7300   46.3160 C   0  0  0  0  0  0  0  0  0  0  0  0
   55.1310   26.7160   45.9940 O   0  0  0  0  0  0  0  0  0  0  0  0
   57.5190   26.0110   46.2100 C   0  0  0  0  0  0  0  0  0  0  0  0
   57.8610   27.1950   46.9930 N   0  0  0  0  0  0  0  0  0  0  0  0
   58.8560   28.1360   46.5650 C   0  0  0  0  0  0  0  0  0  0  0  0
   59.6110   27.8640   45.5930 O   0  0  0  0  0  0  0  0  0  0  0  0
   59.0070   29.4510   47.2680 C   0  0  0  0  0  0  0  0  0  0  0  0
   58.0020   30.3660   46.8310 O   0  0  0  0  0  0  0  0  0  0  0  0
   57.8230   30.8160   45.5100 C   0  0  0  0  0  0  0  0  0  0  0  0
   57.1360   30.0460   44.5490 C   0  0  0  0  0  0  0  0  0  0  0  0
   57.0150   30.4980   43.2340 C   0  0  0  0  0  0  0  0  0  0  0  0
   57.5690   31.7210   42.8580 C   0  0  0  0  0  0  0  0  0  0  0  0
   57.4010   32.3340   41.0570 Br  0  0  0  0  0  0  0  0  0  0  0  0
   58.2410   32.5020   43.8020 C   0  0  0  0  0  0  0  0  0  0  0  0
   58.3660   32.0640   45.1330 C   0  0  0  0  0  0  0  0  0  0  0  0
   59.0800   32.9170   46.1140 C   0  0  0  0  0  0  0  0  0  0  0  0
   60.2770   32.4800   46.7070 C   0  0  0  0  0  0  0  0  0  0  0  0
   60.9250   33.2990   47.6340 C   0  0  0  0  0  0  0  0  0  0  0  0
   60.4000   34.5080   47.9630 N   0  0  0  0  0  0  0  0  0  0  0  0
   59.2410   34.9550   47.4110 C   0  0  0  0  0  0  0  0  0  0  0  0
   58.5580   34.1680   46.4800 C   0  0  0  0  0  0  0  0  0  0  0  0
   58.0837   25.1473   46.5910 H   0  0  0  0  0  0  0  0  0  0  0  0
   57.7756   26.1905   45.1555 H   0  0  0  0  0  0  0  0  0  0  0  0
   57.3250   27.3810   47.8710 H   0  0  0  0  0  0  0  0  0  0  0  0
   58.9092   29.2957   48.3526 H   0  0  0  0  0  0  0  0  0  0  0  0
   59.9971   29.8694   47.0344 H   0  0  0  0  0  0  0  0  0  0  0  0
   56.6921   29.0819   44.8379 H   0  0  0  0  0  0  0  0  0  0  0  0
   56.4806   29.8871   42.4916 H   0  0  0  0  0  0  0  0  0  0  0  0
   58.6757   33.4669   43.5020 H   0  0  0  0  0  0  0  0  0  0  0  0
   60.7004   31.4997   46.4427 H   0  0  0  0  0  0  0  0  0  0  0  0
   61.8637   32.9641   48.0994 H   0  0  0  0  0  0  0  0  0  0  0  0
   58.8399   35.9383   47.6978 H   0  0  0  0  0  0  0  0  0  0  0  0
   57.6172   34.5263   46.0366 H   0  0  0  0  0  0  0  0  0  0  0  0
  1  2  2  0
  2  3  1  0
  2  4  1  0
  4  5  1  0
  5  6  1  0
  6  7  2  0
  6  8  1  0
  8  9  1  0
  9 10  1  0
 10 11  2  0
 11 12  1  0
 12 13  2  0
 13 14  1  0
 13 15  1  0
 15 16  2  0
 16 17  1  0
 17 18  2  0
 18 19  1  0
 19 20  2  0
 20 21  1  0
 21 22  2  0
 16 10  1  0
 22 17  1  0
  4 23  1  0
  4 24  1  0
  5 25  1  0
  8 26  1  0
  8 27  1  0
 11 28  1  0
 12 29  1  0
 15 30  1  0
 18 31  1  0
 19 32  1  0
 21 33  1  0
 22 34  1  0
M  CHG  1   3  -1
M  END
>  <UniqueID>  (83) 
76

>  <SMILES>  (83) 
O=C([O-])CNC(=O)COc1ccc(Br)cc1-c1ccncc1

>  <Energy>  (83) 
36.96216164684608

>  <Genealogy>  (83) 
O=C([O-])CNC(=O)COc1ccc(Br)cc1-c1ccncc1 (protonated)
O=C([O-])CNC(=O)COc1ccc(Br)cc1-c1ccncc1 (3D coordinates assigned)
O=C([O-])CNC(=O)COc1ccc(Br)cc1-c1ccncc1 (optimized conformer: 36.96216164684608 kcal/mol)

>  <smiles>  (83) 
O=C(O)CNC(=O)COc1ccc(Br)cc1-c1ccncc1

>  <score_type>  (83) 
oracle

>  <origin>  (83) 
adg

>  <m_score__min__energy>  (83) 
-10.17

>  <m_primary>  (83) 
energy

$$$$
84:0
     RDKit          3D

 62 66  0  0  0  0  0  0  0  0999 V2000
   56.4548   31.0784   43.1280 H   0  0  0  0  0  0  0  0  0  0  0  0
   57.0470   31.0750   44.0550 C   0  0  0  0  0  0  0  0  0  0  0  0
   57.0780   32.1820   44.8430 N   0  0  0  0  0  0  0  0  0  0  0  0
   57.7810   32.2260   46.0080 C   0  0  0  0  0  0  0  0  0  0  0  0
   57.7800   33.3340   46.6980 N   0  0  0  0  0  0  0  0  0  0  0  0
   58.9050   34.1850   46.9670 C   0  0  0  0  0  0  0  0  0  0  0  0
   59.0290   35.2560   46.3180 O   0  0  0  0  0  0  0  0  0  0  0  0
   59.8520   33.8870   48.0680 C   0  0  0  0  0  0  0  0  0  0  0  0
   59.3250   33.7000   49.3560 C   0  0  0  0  0  0  0  0  0  0  0  0
   58.2391   33.7735   49.5157 H   0  0  0  0  0  0  0  0  0  0  0  0
   60.1640   33.4220   50.4350 C   0  0  0  0  0  0  0  0  0  0  0  0
   59.7376   33.2920   51.4406 H   0  0  0  0  0  0  0  0  0  0  0  0
   61.5410   33.3080   50.2450 C   0  0  0  0  0  0  0  0  0  0  0  0
   62.1970   33.0994   51.1030 H   0  0  0  0  0  0  0  0  0  0  0  0
   62.0920   33.4580   48.9660 C   0  0  0  0  0  0  0  0  0  0  0  0
   63.4730   33.2910   48.7730 C   0  0  0  0  0  0  0  0  0  0  0  0
   64.1245   33.0796   49.6337 H   0  0  0  0  0  0  0  0  0  0  0  0
   64.0220   33.3920   47.4950 C   0  0  0  0  0  0  0  0  0  0  0  0
   65.1039   33.2560   47.3499 H   0  0  0  0  0  0  0  0  0  0  0  0
   63.2020   33.6650   46.4010 C   0  0  0  0  0  0  0  0  0  0  0  0
   63.6405   33.7422   45.3951 H   0  0  0  0  0  0  0  0  0  0  0  0
   61.8280   33.8410   46.5740 C   0  0  0  0  0  0  0  0  0  0  0  0
   61.1906   34.0499   45.7022 H   0  0  0  0  0  0  0  0  0  0  0  0
   61.2500   33.7530   47.8590 C   0  0  0  0  0  0  0  0  0  0  0  0
   58.5250   31.0940   46.3950 C   0  0  0  0  0  0  0  0  0  0  0  0
   59.1060   31.1107   47.3289 H   0  0  0  0  0  0  0  0  0  0  0  0
   58.5250   29.9450   45.5890 C   0  0  0  0  0  0  0  0  0  0  0  0
   59.2480   28.7960   45.9480 O   0  0  0  0  0  0  0  0  0  0  0  0
   58.6840   27.5210   46.1030 C   0  0  0  0  0  0  0  0  0  0  0  0
   59.3720   26.4040   45.6150 C   0  0  0  0  0  0  0  0  0  0  0  0
   60.3561   26.5322   45.1406 H   0  0  0  0  0  0  0  0  0  0  0  0
   58.8160   25.1270   45.7270 C   0  0  0  0  0  0  0  0  0  0  0  0
   59.3514   24.2589   45.3150 H   0  0  0  0  0  0  0  0  0  0  0  0
   57.5750   24.9460   46.3640 C   0  0  0  0  0  0  0  0  0  0  0  0
   56.9610   23.6520   46.4700 N   0  0  0  0  0  0  0  0  0  0  0  0
   56.5230   23.2570   45.6080 H   0  0  0  0  0  0  0  0  0  0  0  0
   56.7370   22.9650   47.7140 C   0  0  0  0  0  0  0  0  0  0  0  0
   57.3340   23.3250   48.7630 O   0  0  0  0  0  0  0  0  0  0  0  0
   55.8540   21.8400   47.7770 N   0  0  0  0  0  0  0  0  0  0  0  0
   54.5290   21.7780   47.2280 C   0  0  0  0  0  0  0  0  0  0  0  0
   53.7470   20.6170   47.3250 C   0  0  0  0  0  0  0  0  0  0  0  0
   54.1402   19.7326   47.8476 H   0  0  0  0  0  0  0  0  0  0  0  0
   52.4740   20.5820   46.7610 C   0  0  0  0  0  0  0  0  0  0  0  0
   51.8576   19.6769   46.8646 H   0  0  0  0  0  0  0  0  0  0  0  0
   51.9710   21.6860   46.0640 C   0  0  0  0  0  0  0  0  0  0  0  0
   50.3340   21.5640   45.4230 Cl  0  0  0  0  0  0  0  0  0  0  0  0
   52.7700   22.8470   45.9040 C   0  0  0  0  0  0  0  0  0  0  0  0
   52.2680   24.0760   45.1610 C   0  0  0  0  0  0  0  0  0  0  0  0
   53.0910   25.1630   45.4080 F   0  0  0  0  0  0  0  0  0  0  0  0
   50.9970   24.4210   45.5940 F   0  0  0  0  0  0  0  0  0  0  0  0
   52.2140   23.8090   43.6580 C   0  0  0  0  0  0  0  0  0  0  0  0
   51.9987   22.7447   43.4822 H   0  0  0  0  0  0  0  0  0  0  0  0
   51.4219   24.4231   43.2047 H   0  0  0  0  0  0  0  0  0  0  0  0
   53.1825   24.0670   43.2047 H   0  0  0  0  0  0  0  0  0  0  0  0
   54.0420   22.8770   46.5120 C   0  0  0  0  0  0  0  0  0  0  0  0
   54.6626   23.7807   46.4217 H   0  0  0  0  0  0  0  0  0  0  0  0
   56.8930   26.0650   46.8610 C   0  0  0  0  0  0  0  0  0  0  0  0
   55.9139   25.9372   47.3457 H   0  0  0  0  0  0  0  0  0  0  0  0
   57.4480   27.3410   46.7450 C   0  0  0  0  0  0  0  0  0  0  0  0
   56.9145   28.2095   47.1585 H   0  0  0  0  0  0  0  0  0  0  0  0
   57.7640   29.9340   44.4180 C   0  0  0  0  0  0  0  0  0  0  0  0
   57.7300   29.0336   43.7871 H   0  0  0  0  0  0  0  0  0  0  0  0
  1  2  1  0
  2  3  1  0
  3  4  1  0
  4  5  2  0
  5  6  1  0
  6  7  2  0
  6  8  1  0
  8  9  2  0
  9 10  1  0
  9 11  1  0
 11 12  1  0
 11 13  2  0
 13 14  1  0
 13 15  1  0
 15 16  2  0
 16 17  1  0
 16 18  1  0
 18 19  1  0
 18 20  2  0
 20 21  1  0
 20 22  1  0
 22 23  1  0
 22 24  2  0
  4 25  1  0
 25 26  1  0
 25 27  2  0
 27 28  1  0
 28 29  1  0
 29 30  2  0
 30 31  1  0
 30 32  1  0
 32 33  1  0
 32 34  2  0
 34 35  1  0
 35 36  1  0
 35 37  1  0
 37 38  2  0
 37 39  1  0
 39 40  1  0
 40 41  2  0
 41 42  1  0
 41 43  1  0
 43 44  1  0
 43 45  2  0
 45 46  1  0
 45 47  1  0
 47 48  1  0
 48 49  1  0
 48 50  1  0
 48 51  1  0
 51 52  1  0
 51 53  1  0
 51 54  1  0
 47 55  2  0
 55 56  1  0
 34 57  1  0
 57 58  1  0
 57 59  2  0
 59 60  1  0
 27 61  1  0
 61 62  1  0
 61  2  2  0
 24  8  1  0
 59 29  1  0
 24 15  1  0
 55 40  1  0
M  CHG  2   3  -1  39  -1
M  END
>  <UniqueID>  (84) 
77

>  <SMILES>  (84) 
CC(F)(F)c1cc([N-]C(=O)Nc2ccc(Oc3cc[n-]/c(=N/C(=O)c4cccc5ccccc45)c3)cc2)ccc1Cl

>  <Energy>  (84) 
100.04163640077938

>  <Genealogy>  (84) 
CC(F)(F)c1cc([N-]C(=O)Nc2ccc(Oc3cc[n-]c(=NC(=O)c4cccc5ccccc45)c3)cc2)ccc1Cl (protonated)
CC(F)(F)c1cc([N-]C(=O)Nc2ccc(Oc3cc[n-]/c(=N/C(=O)c4cccc5ccccc45)c3)cc2)ccc1Cl (cis-trans isomerization)
CC(F)(F)c1cc([N-]C(=O)Nc2ccc(Oc3cc[n-]/c(=N/C(=O)c4cccc5ccccc45)c3)cc2)ccc1Cl (3D coordinates assigned)
CC(F)(F)c1cc([N-]C(=O)Nc2ccc(Oc3cc[n-]/c(=N/C(=O)c4cccc5ccccc45)c3)cc2)ccc1Cl (optimized conformer: 100.04163640077938 kcal/mol)

>  <smiles>  (84) 
CC(F)(F)c1cc(NC(=O)Nc2ccc(Oc3cc[nH]c(=NC(=O)c4cccc5ccccc45)c3)cc2)ccc1Cl

>  <score_type>  (84) 
oracle

>  <origin>  (84) 
adg

>  <m_score__min__energy>  (84) 
-11.699999999999999

>  <m_primary>  (84) 
energy

$$$$
85:0
     RDKit          3D

 49 52  0  0  0  0  0  0  0  0999 V2000
   53.6740   25.9630   46.3840 H   0  0  0  0  0  0  0  0  0  0  0  0
   54.5730   26.1030   45.9390 O   0  0  0  0  0  0  0  0  0  0  0  0
   55.6930   25.3720   46.3190 C   0  0  0  0  0  0  0  0  0  0  0  0
   55.6290   24.2460   47.0480 N   0  0  0  0  0  0  0  0  0  0  0  0
   56.9240   23.8810   47.1480 C   0  0  0  0  0  0  0  0  0  0  0  0
   57.2920   22.8460   47.7640 O   0  0  0  0  0  0  0  0  0  0  0  0
   57.7960   24.7030   46.5240 N   0  0  0  0  0  0  0  0  0  0  0  0
   57.0030   25.6690   46.0200 C   0  0  0  0  0  0  0  0  0  0  0  0
   57.4700   26.7480   45.1360 C   0  0  0  0  0  0  0  0  0  0  0  0
   57.5268   26.5247   44.0604 H   0  0  0  0  0  0  0  0  0  0  0  0
   57.8340   27.9840   45.5250 C   0  0  0  0  0  0  0  0  0  0  0  0
   57.0810   29.0590   45.2020 N   0  0  0  0  0  0  0  0  0  0  0  0
   57.7610   30.1110   45.6960 C   0  0  0  0  0  0  0  0  0  0  0  0
   57.3490   31.2970   45.5930 O   0  0  0  0  0  0  0  0  0  0  0  0
   58.8980   29.7690   46.3310 N   0  0  0  0  0  0  0  0  0  0  0  0
   59.7690   30.6690   47.0390 C   0  0  0  0  0  0  0  0  0  0  0  0
   61.1400   30.7080   46.7500 C   0  0  0  0  0  0  0  0  0  0  0  0
   61.5538   30.0487   45.9728 H   0  0  0  0  0  0  0  0  0  0  0  0
   61.9840   31.5790   47.4430 C   0  0  0  0  0  0  0  0  0  0  0  0
   63.0556   31.6120   47.1968 H   0  0  0  0  0  0  0  0  0  0  0  0
   61.4740   32.4140   48.4530 C   0  0  0  0  0  0  0  0  0  0  0  0
   62.3600   33.3550   49.1800 C   0  0  0  0  0  0  0  0  0  0  0  0
   62.1170   34.5910   49.1580 O   0  0  0  0  0  0  0  0  0  0  0  0
   63.5040   32.8890   49.9090 N   0  0  0  0  0  0  0  0  0  0  0  0
   64.8340   33.0410   49.3200 C   0  0  0  0  0  0  0  0  0  0  0  0
   65.0844   32.1344   48.7496 H   0  0  0  0  0  0  0  0  0  0  0  0
   64.8331   33.9162   48.6536 H   0  0  0  0  0  0  0  0  0  0  0  0
   65.8810   33.2520   50.4210 C   0  0  0  0  0  0  0  0  0  0  0  0
   66.8829   33.1772   49.9731 H   0  0  0  0  0  0  0  0  0  0  0  0
   65.7058   34.2449   50.8609 H   0  0  0  0  0  0  0  0  0  0  0  0
   65.7730   32.2560   51.5080 N   0  0  0  0  0  0  0  0  0  0  0  0
   66.2430   30.9210   51.1000 C   0  0  0  0  0  0  0  0  0  0  0  0
   66.4554   30.3177   51.9949 H   0  0  0  0  0  0  0  0  0  0  0  0
   65.4651   30.4259   50.5002 H   0  0  0  0  0  0  0  0  0  0  0  0
   67.1595   31.0224   50.5002 H   0  0  0  0  0  0  0  0  0  0  0  0
   64.4180   32.2250   52.0950 C   0  0  0  0  0  0  0  0  0  0  0  0
   64.3756   31.4172   52.8404 H   0  0  0  0  0  0  0  0  0  0  0  0
   64.2302   33.2084   52.5507 H   0  0  0  0  0  0  0  0  0  0  0  0
   63.3240   31.9830   51.0450 C   0  0  0  0  0  0  0  0  0  0  0  0
   63.3823   30.9426   50.6927 H   0  0  0  0  0  0  0  0  0  0  0  0
   62.3408   32.1705   51.5013 H   0  0  0  0  0  0  0  0  0  0  0  0
   60.0990   32.3630   48.7480 C   0  0  0  0  0  0  0  0  0  0  0  0
   59.6846   33.0127   49.5330 H   0  0  0  0  0  0  0  0  0  0  0  0
   59.2560   31.4930   48.0510 C   0  0  0  0  0  0  0  0  0  0  0  0
   58.1847   31.4545   48.2975 H   0  0  0  0  0  0  0  0  0  0  0  0
   58.9530   28.4170   46.2550 C   0  0  0  0  0  0  0  0  0  0  0  0
   59.8830   27.6720   46.8710 C   0  0  0  0  0  0  0  0  0  0  0  0
   60.7098   28.1587   47.4090 H   0  0  0  0  0  0  0  0  0  0  0  0
   59.8188   26.5744   46.8381 H   0  0  0  0  0  0  0  0  0  0  0  0
  1  2  1  0
  2  3  1  0
  3  4  1  0
  4  5  1  0
  5  6  2  0
  5  7  1  0
  7  8  1  0
  8  9  1  0
  9 10  1  0
  9 11  2  0
 11 12  1  0
 12 13  1  0
 13 14  2  0
 13 15  1  0
 15 16  1  0
 16 17  2  0
 17 18  1  0
 17 19  1  0
 19 20  1  0
 19 21  2  0
 21 22  1  0
 22 23  2  0
 22 24  1  0
 24 25  1  0
 25 26  1  0
 25 27  1  0
 25 28  1  0
 28 29  1  0
 28 30  1  0
 28 31  1  0
 31 32  1  0
 32 33  1  0
 32 34  1  0
 32 35  1  0
 31 36  1  0
 36 37  1  0
 36 38  1  0
 36 39  1  0
 39 40  1  0
 39 41  1  0
 21 42  1  0
 42 43  1  0
 42 44  2  0
 44 45  1  0
 15 46  1  0
 46 47  2  0
 47 48  1  0
 47 49  1  0
  8  3  2  0
 46 11  1  0
 44 16  1  0
 39 24  1  0
M  CHG  3   4  -1   7  -1  12  -1
M  END
>  <UniqueID>  (85) 
78

>  <SMILES>  (85) 
C=c1/c(=C\c2[n-]c(=O)[n-]c2O)[n-]c(=O)n1-c1ccc(C(=O)N2CCN(C)CC2)cc1

>  <Energy>  (85) 
140.85096053720505

>  <Genealogy>  (85) 
C=c1c(=Cc2[n-]c(=O)[n-]c2O)[n-]c(=O)n1-c1ccc(C(=O)N2CCN(C)CC2)cc1 (protonated)
C=c1/c(=C\c2[n-]c(=O)[n-]c2O)[n-]c(=O)n1-c1ccc(C(=O)N2CCN(C)CC2)cc1 (cis-trans isomerization)
C=c1/c(=C\c2[n-]c(=O)[n-]c2O)[n-]c(=O)n1-c1ccc(C(=O)N2CCN(C)CC2)cc1 (3D coordinates assigned)
C=c1/c(=C\c2[n-]c(=O)[n-]c2O)[n-]c(=O)n1-c1ccc(C(=O)N2CCN(C)CC2)cc1 (nonaromatic ring conformer: 140.85096053720505 kcal/mol)

>  <smiles>  (85) 
C=c1c(=Cc2[nH]c(=O)[nH]c2O)[nH]c(=O)n1-c1ccc(C(=O)N2CCN(C)CC2)cc1

>  <score_type>  (85) 
oracle

>  <origin>  (85) 
adg

>  <m_score__min__energy>  (85) 
-13.84

>  <m_primary>  (85) 
energy

$$$$
86:0
     RDKit          3D

 47 49  0  0  0  0  0  0  0  0999 V2000
   57.6840   26.1650   44.7210 C   0  0  0  0  0  0  0  0  0  0  0  0
   56.6450   26.9560   45.9310 S   0  0  0  0  0  0  0  0  0  0  0  0
   57.4490   27.3490   47.1370 O   0  0  0  0  0  0  0  0  0  0  0  0
   55.5780   25.9880   46.3560 O   0  0  0  0  0  0  0  0  0  0  0  0
   55.8850   28.3540   45.2420 N   0  0  0  0  0  0  0  0  0  0  0  0
   56.5600   29.5200   44.7470 C   0  0  0  0  0  0  0  0  0  0  0  0
   56.4140   29.9660   43.4220 C   0  0  0  0  0  0  0  0  0  0  0  0
   57.0890   31.1090   42.9870 C   0  0  0  0  0  0  0  0  0  0  0  0
   57.9170   31.8130   43.8640 C   0  0  0  0  0  0  0  0  0  0  0  0
   58.0830   31.3760   45.1880 C   0  0  0  0  0  0  0  0  0  0  0  0
   58.9250   32.1110   46.0980 N   0  0  0  0  0  0  0  0  0  0  0  0
   58.9410   33.5780   46.0690 C   0  0  0  0  0  0  0  0  0  0  0  0
   60.2190   34.1210   46.7260 C   0  0  0  0  0  0  0  0  0  0  0  0
   61.3630   33.2280   46.4360 N   0  0  0  0  0  0  0  0  0  0  0  0
   62.6450   33.8350   46.8650 C   0  0  0  0  0  0  0  0  0  0  0  0
   62.9950   33.4800   48.2940 C   0  0  0  0  0  0  0  0  0  0  0  0
   64.0950   32.6450   48.5540 C   0  0  0  0  0  0  0  0  0  0  0  0
   64.4410   32.3190   49.8690 C   0  0  0  0  0  0  0  0  0  0  0  0
   65.5040   31.5120   50.1090 F   0  0  0  0  0  0  0  0  0  0  0  0
   63.6910   32.8230   50.9340 C   0  0  0  0  0  0  0  0  0  0  0  0
   62.5960   33.6540   50.6880 C   0  0  0  0  0  0  0  0  0  0  0  0
   62.2450   33.9840   49.3750 C   0  0  0  0  0  0  0  0  0  0  0  0
   61.1800   34.7990   49.1600 F   0  0  0  0  0  0  0  0  0  0  0  0
   61.1870   31.9050   47.0940 C   0  0  0  0  0  0  0  0  0  0  0  0
   59.7220   31.4200   47.1170 C   0  0  0  0  0  0  0  0  0  0  0  0
   57.3930   30.2300   45.6220 C   0  0  0  0  0  0  0  0  0  0  0  0
   58.4588   25.5751   45.2325 H   0  0  0  0  0  0  0  0  0  0  0  0
   57.0735   25.5010   44.0914 H   0  0  0  0  0  0  0  0  0  0  0  0
   58.1616   26.9302   44.0914 H   0  0  0  0  0  0  0  0  0  0  0  0
   55.7663   29.4133   42.7256 H   0  0  0  0  0  0  0  0  0  0  0  0
   56.9679   31.4557   41.9501 H   0  0  0  0  0  0  0  0  0  0  0  0
   58.4420   32.7147   43.5157 H   0  0  0  0  0  0  0  0  0  0  0  0
   58.8996   33.9188   45.0240 H   0  0  0  0  0  0  0  0  0  0  0  0
   58.0703   33.9519   46.6276 H   0  0  0  0  0  0  0  0  0  0  0  0
   60.4325   35.1249   46.3302 H   0  0  0  0  0  0  0  0  0  0  0  0
   60.0694   34.1700   47.8147 H   0  0  0  0  0  0  0  0  0  0  0  0
   61.4050   33.0640   45.4000 H   0  0  0  0  0  0  0  0  0  0  0  0
   63.4467   33.4743   46.2037 H   0  0  0  0  0  0  0  0  0  0  0  0
   62.5382   34.9281   46.8048 H   0  0  0  0  0  0  0  0  0  0  0  0
   64.6875   32.2454   47.7178 H   0  0  0  0  0  0  0  0  0  0  0  0
   63.9633   32.5650   51.9681 H   0  0  0  0  0  0  0  0  0  0  0  0
   62.0080   34.0501   51.5291 H   0  0  0  0  0  0  0  0  0  0  0  0
   61.7911   31.1630   46.5514 H   0  0  0  0  0  0  0  0  0  0  0  0
   61.5072   32.0184   48.1402 H   0  0  0  0  0  0  0  0  0  0  0  0
   59.6979   30.3380   46.9203 H   0  0  0  0  0  0  0  0  0  0  0  0
   59.2946   31.6407   48.1063 H   0  0  0  0  0  0  0  0  0  0  0  0
   57.5086   29.8869   46.6607 H   0  0  0  0  0  0  0  0  0  0  0  0
  1  2  1  0
  2  3  2  0
  2  4  2  0
  2  5  1  0
  5  6  1  0
  6  7  2  0
  7  8  1  0
  8  9  2  0
  9 10  1  0
 10 11  1  0
 11 12  1  0
 12 13  1  0
 13 14  1  0
 14 15  1  0
 15 16  1  0
 16 17  2  0
 17 18  1  0
 18 19  1  0
 18 20  2  0
 20 21  1  0
 21 22  2  0
 22 23  1  0
 14 24  1  0
 24 25  1  0
 10 26  2  0
 26  6  1  0
 25 11  1  0
 22 16  1  0
  1 27  1  0
  1 28  1  0
  1 29  1  0
  7 30  1  0
  8 31  1  0
  9 32  1  0
 12 33  1  0
 12 34  1  0
 13 35  1  0
 13 36  1  0
 14 37  1  0
 15 38  1  0
 15 39  1  0
 17 40  1  0
 20 41  1  0
 21 42  1  0
 24 43  1  0
 24 44  1  0
 25 45  1  0
 25 46  1  0
 26 47  1  0
M  CHG  2   5  -1  14   1
M  END
>  <UniqueID>  (86) 
79

>  <SMILES>  (86) 
CS(=O)(=O)[N-]c1cccc(N2CC[NH+](Cc3cc(F)ccc3F)CC2)c1

>  <Energy>  (86) 
58.98894132631521

>  <Genealogy>  (86) 
CS(=O)(=O)[N-]c1cccc(N2CC[NH+](Cc3cc(F)ccc3F)CC2)c1 (protonated)
CS(=O)(=O)[N-]c1cccc(N2CC[NH+](Cc3cc(F)ccc3F)CC2)c1 (3D coordinates assigned)
CS(=O)(=O)[N-]c1cccc(N2CC[NH+](Cc3cc(F)ccc3F)CC2)c1 (nonaromatic ring conformer: 58.98894132631521 kcal/mol)

>  <smiles>  (86) 
CS(=O)(=O)Nc1cccc(N2CCN(Cc3cc(F)ccc3F)CC2)c1

>  <score_type>  (86) 
oracle

>  <origin>  (86) 
adg

>  <m_score__min__energy>  (86) 
-8.9499999999999993

>  <m_primary>  (86) 
energy

$$$$
87:0
     RDKit          3D

 49 51  0  0  0  0  0  0  0  0999 V2000
   60.2790   26.9850   47.4730 C   0  0  0  0  0  0  0  0  0  0  0  0
   59.3950   26.9250   46.2700 C   0  0  0  0  0  0  0  0  0  0  0  0
   58.9870   28.0210   45.5990 N   0  0  0  0  0  0  0  0  0  0  0  0
   58.2380   27.6200   44.5810 N   0  0  0  0  0  0  0  0  0  0  0  0
   57.6280   28.5530   43.6330 C   0  0  0  0  0  0  0  0  0  0  0  0
   57.3580   29.8800   44.2760 C   0  0  0  0  0  0  0  0  0  0  0  0
   56.1720   30.2960   44.3900 O   0  0  0  0  0  0  0  0  0  0  0  0
   58.4440   30.6190   44.8560 N   0  0  0  0  0  0  0  0  0  0  0  0
   58.2980   31.9330   45.4200 C   0  0  0  0  0  0  0  0  0  0  0  0
   57.2800   32.7870   44.9590 C   0  0  0  0  0  0  0  0  0  0  0  0
   57.1900   34.0990   45.4290 C   0  0  0  0  0  0  0  0  0  0  0  0
   58.1180   34.5770   46.3550 C   0  0  0  0  0  0  0  0  0  0  0  0
   59.1410   33.7440   46.8130 C   0  0  0  0  0  0  0  0  0  0  0  0
   59.2360   32.4190   46.3620 C   0  0  0  0  0  0  0  0  0  0  0  0
   60.3190   31.5590   46.8880 C   0  0  0  0  0  0  0  0  0  0  0  0
   60.1410   30.3120   46.9250 O   0  0  0  0  0  0  0  0  0  0  0  0
   61.5690   32.1160   47.3400 N   0  0  0  0  0  0  0  0  0  0  0  0
   62.2330   31.5600   48.5230 C   0  0  0  0  0  0  0  0  0  0  0  0
   63.7520   31.6910   48.3780 C   0  0  0  0  0  0  0  0  0  0  0  0
   64.1140   33.0190   48.0550 O   0  0  0  0  0  0  0  0  0  0  0  0
   63.6130   33.3520   46.7740 C   0  0  0  0  0  0  0  0  0  0  0  0
   62.0820   33.3690   46.7760 C   0  0  0  0  0  0  0  0  0  0  0  0
   58.1410   26.2690   44.5840 C   0  0  0  0  0  0  0  0  0  0  0  0
   57.3890   25.4470   43.5760 C   0  0  0  0  0  0  0  0  0  0  0  0
   58.8860   25.7910   45.6520 C   0  0  0  0  0  0  0  0  0  0  0  0
   59.1090   24.4210   46.0260 N   0  0  0  0  0  0  0  0  0  0  0  0
   58.2540   23.7950   46.6850 O   0  0  0  0  0  0  0  0  0  0  0  0
   60.2580   23.7700   45.6460 O   0  0  0  0  0  0  0  0  0  0  0  0
   59.6628   26.9432   48.3833 H   0  0  0  0  0  0  0  0  0  0  0  0
   60.9733   26.1319   47.4607 H   0  0  0  0  0  0  0  0  0  0  0  0
   60.8517   27.9241   47.4607 H   0  0  0  0  0  0  0  0  0  0  0  0
   58.3108   28.6985   42.7830 H   0  0  0  0  0  0  0  0  0  0  0  0
   56.6713   28.1292   43.2938 H   0  0  0  0  0  0  0  0  0  0  0  0
   59.3710   30.1430   44.9310 H   0  0  0  0  0  0  0  0  0  0  0  0
   56.5498   32.4190   44.2233 H   0  0  0  0  0  0  0  0  0  0  0  0
   56.3857   34.7571   45.0684 H   0  0  0  0  0  0  0  0  0  0  0  0
   58.0437   35.6105   46.7244 H   0  0  0  0  0  0  0  0  0  0  0  0
   59.8779   34.1297   47.5329 H   0  0  0  0  0  0  0  0  0  0  0  0
   61.9034   32.1084   49.4178 H   0  0  0  0  0  0  0  0  0  0  0  0
   61.9689   30.4966   48.6203 H   0  0  0  0  0  0  0  0  0  0  0  0
   64.2304   31.4077   49.3272 H   0  0  0  0  0  0  0  0  0  0  0  0
   64.0867   31.0277   47.5669 H   0  0  0  0  0  0  0  0  0  0  0  0
   63.9842   34.3475   46.4893 H   0  0  0  0  0  0  0  0  0  0  0  0
   63.9561   32.5947   46.0537 H   0  0  0  0  0  0  0  0  0  0  0  0
   61.7275   34.2145   47.3838 H   0  0  0  0  0  0  0  0  0  0  0  0
   61.7199   33.4758   45.7428 H   0  0  0  0  0  0  0  0  0  0  0  0
   56.7358   24.7330   44.0990 H   0  0  0  0  0  0  0  0  0  0  0  0
   56.7776   26.1093   42.9455 H   0  0  0  0  0  0  0  0  0  0  0  0
   58.1030   24.8968   42.9455 H   0  0  0  0  0  0  0  0  0  0  0  0
  1  2  1  0
  2  3  2  0
  3  4  1  0
  4  5  1  0
  5  6  1  0
  6  7  2  0
  6  8  1  0
  8  9  1  0
  9 10  2  0
 10 11  1  0
 11 12  2  0
 12 13  1  0
 13 14  2  0
 14 15  1  0
 15 16  2  0
 15 17  1  0
 17 18  1  0
 18 19  1  0
 19 20  1  0
 20 21  1  0
 21 22  1  0
  4 23  1  0
 23 24  1  0
 23 25  2  0
 25 26  1  0
 26 27  2  0
 26 28  1  0
 25  2  1  0
 14  9  1  0
 22 17  1  0
  1 29  1  0
  1 30  1  0
  1 31  1  0
  5 32  1  0
  5 33  1  0
  8 34  1  0
 10 35  1  0
 11 36  1  0
 12 37  1  0
 13 38  1  0
 18 39  1  0
 18 40  1  0
 19 41  1  0
 19 42  1  0
 21 43  1  0
 21 44  1  0
 22 45  1  0
 22 46  1  0
 24 47  1  0
 24 48  1  0
 24 49  1  0
M  CHG  2  26   1  28  -1
M  END
>  <UniqueID>  (87) 
80

>  <SMILES>  (87) 
Cc1nn(CC(=O)Nc2ccccc2C(=O)N2CCOCC2)c(C)c1[N+](=O)[O-]

>  <Energy>  (87) 
91.16519050825926

>  <Genealogy>  (87) 
Cc1nn(CC(=O)Nc2ccccc2C(=O)N2CCOCC2)c(C)c1[N+](=O)[O-] (3D coordinates assigned)
Cc1nn(CC(=O)Nc2ccccc2C(=O)N2CCOCC2)c(C)c1[N+](=O)[O-] (nonaromatic ring conformer: 91.16519050825926 kcal/mol)

>  <smiles>  (87) 
Cc1nn(CC(=O)Nc2ccccc2C(=O)N2CCOCC2)c(C)c1[N+](=O)[O-]

>  <score_type>  (87) 
oracle

>  <origin>  (87) 
adg

>  <m_score__min__energy>  (87) 
-8.3499999999999996

>  <m_primary>  (87) 
energy

$$$$
